data_functionalizedCrystal
_audit_creation_method	'MofGen! by Chris Wilmer'
_symmetry_space_group_name_H-M	'P1'
_symmetry_Int_Tables_number	1
_symmetry_cell_setting	triclinic
loop_
_symmetry_equiv_pos_as_xyz
  x,y,z
_cell_length_a	19.077142
_cell_length_b	19.077391
_cell_length_c	13.897449
_cell_angle_alpha	87.689280
_cell_angle_beta	87.696632
_cell_angle_gamma	85.338989
loop_
_atom_site_label
_atom_site_type_symbol
_atom_site_fract_x
_atom_site_fract_y
_atom_site_fract_z
Zn1	Zn	-1.088858	0.324163	0.587474
Zn2	Zn	-0.588858	0.824163	1.087474
Zn3	Zn	-1.093522	0.442014	0.419936
Zn4	Zn	-0.593522	0.942014	0.919936
Zn5	Zn	-0.971001	0.319405	0.419965
Zn6	Zn	-0.471001	0.819405	0.919965
Zn7	Zn	-0.975660	0.437264	0.574960
Zn8	Zn	-0.475660	0.937264	1.074960
O9	O	-1.032260	0.380712	0.500584
O10	O	-0.532260	0.880712	1.000584
O11	O	-1.188126	0.343776	0.570475
O12	O	-0.688126	0.843776	1.070475
O13	O	-1.077271	0.425747	0.284959
O14	O	-0.577271	0.925747	0.784959
O15	O	-0.982733	0.221391	0.447434
O16	O	-0.482733	0.721391	0.947434
O17	O	-1.191553	0.430361	0.447386
O18	O	-0.691553	0.930361	0.947386
O19	O	-1.069322	0.224887	0.570502
O20	O	-0.569322	0.724887	1.070502
O21	O	-0.987255	0.335666	0.284980
O22	O	-0.487255	0.835666	0.784980
O23	O	-0.872969	0.331059	0.435300
O24	O	-0.372969	0.831059	0.935300
O25	O	-0.990674	0.422264	0.711601
O26	O	-0.490674	0.922264	1.211601
O27	O	-0.876392	0.417650	0.549174
O28	O	-0.376392	0.917650	1.049174
O29	O	-1.073840	0.339170	0.720795
O30	O	-0.573840	0.839170	1.220795
O31	O	-1.081789	0.540030	0.435252
O32	O	-0.581789	1.040030	0.935252
O33	O	-0.995196	0.536539	0.549147
O34	O	-0.495196	1.036539	1.049147
C35	C	-0.849102	0.373323	0.490883
C36	C	-0.349102	0.873323	0.990883
C37	C	-0.770747	0.370179	0.486755
C38	C	-0.270747	0.870179	0.986755
C39	C	-1.039523	0.563863	0.490860
C40	C	-0.539523	1.063863	0.990860
C41	C	-1.042695	0.642218	0.486736
C42	C	-0.542695	1.142218	0.986736
C43	C	-1.032256	0.380718	0.752176
C44	C	-0.532256	0.880718	1.252176
C45	C	-1.032254	0.380720	0.859390
C46	C	-0.532254	0.880720	1.359390
C47	C	-0.735739	0.413853	0.544003
C48	C	-0.235739	0.913853	1.044003
C49	C	-0.662116	0.410890	0.540129
C50	C	-0.162116	0.910890	1.040129
C51	C	-0.623502	0.364256	0.479002
C52	C	-0.123502	0.864256	0.979002
C53	C	-0.658515	0.320577	0.421751
C54	C	-0.158515	0.820577	0.921751
C55	C	-0.732137	0.323537	0.425630
C56	C	-0.232137	0.823537	0.925630
C57	C	-0.403123	0.350557	0.461057
C58	C	0.096877	0.850557	0.961057
C59	C	-0.329496	0.347602	0.457180
C60	C	0.170504	0.847602	0.957180
C61	C	-0.333102	0.437914	0.575560
C62	C	0.166898	0.937914	1.075560
C63	C	-0.406725	0.440873	0.579430
C64	C	0.093275	0.940873	1.079430
C65	C	-0.441732	0.397192	0.522183
C66	C	0.058268	0.897192	1.022183
N67	N	-0.548247	0.361227	0.475038
N68	N	-0.048247	0.861227	0.975038
N69	N	-0.516985	0.400217	0.526152
N70	N	-0.016985	0.900217	1.026152
C71	C	-0.216133	0.388126	0.510312
C72	C	0.283867	0.888126	1.010312
C73	C	-0.294488	0.391276	0.514429
C74	C	0.205512	0.891276	1.014429
C75	C	-0.999070	0.677237	0.544045
C76	C	-0.499070	1.177237	1.044045
C77	C	-1.002054	0.750861	0.540167
C78	C	-0.502054	1.250861	1.040167
C79	C	-1.048666	0.789464	0.478983
C80	C	-0.548666	1.289464	0.978983
C81	C	-1.092293	0.754440	0.421668
C82	C	-0.592293	1.254440	0.921668
C83	C	-1.089305	0.680818	0.425542
C84	C	-0.589305	1.180818	0.925542
C85	C	-1.062435	1.009844	0.461038
C86	C	-0.562435	1.509844	0.961038
C87	C	-1.065421	1.083471	0.457170
C88	C	-0.565421	1.583471	0.957170
C89	C	-0.975180	1.079886	0.575669
C90	C	-0.475180	1.579886	1.075669
C91	C	-0.972200	1.006262	0.579542
C92	C	-0.472200	1.506262	1.079542
C93	C	-1.015824	0.971245	0.522222
C94	C	-0.515824	1.471245	1.022222
N95	N	-1.051718	0.864719	0.475019
N96	N	-0.551718	1.364719	0.975019
N97	N	-1.012768	0.895991	0.526182
N98	N	-0.512768	1.395991	1.026182
C99	C	-1.024964	1.196845	0.510353
C100	C	-0.524964	1.696845	1.010353
C101	C	-1.021796	1.118490	0.514479
C102	C	-0.521796	1.618490	1.014479
C103	C	-1.032253	0.380723	0.946459
C104	C	-0.532253	0.880723	1.446459
C105	C	-1.032252	0.380719	1.055692
C106	C	-0.532252	0.880719	1.555692
C107	C	-1.032258	0.380720	1.249969
C108	C	-0.532258	0.880720	1.749969
C109	C	-1.032255	0.380713	1.142755
C110	C	-0.532255	0.880713	1.642755
H111	H	-0.633616	0.446454	0.586746
H112	H	-0.133616	0.946454	1.086746
O113	O	-0.926949	0.968848	0.639099
O114	O	-0.426949	1.468848	1.139099
C115	C	-0.943029	0.987402	0.735126
C116	C	-0.443029	1.487402	1.235126
H117	H	-0.972300	1.041919	0.735785
H118	H	-0.472300	1.541919	1.235785
H119	H	-0.892225	0.987914	0.775481
H120	H	-0.392225	1.487914	1.275481
H121	H	-0.977561	0.947378	0.771764
H122	H	-0.477561	1.447378	1.271764
H123	H	-0.304592	0.473476	0.622169
H124	H	0.195408	0.973476	1.122169
H125	H	-0.431616	0.314994	0.414435
H126	H	0.068384	0.814994	0.914435
O127	O	-0.620901	0.275334	0.362398
O128	O	-0.120901	0.775334	0.862398
C129	C	-0.548413	0.282073	0.371266
C130	C	-0.048413	0.782073	0.871266
H131	H	-0.540522	0.336109	0.399309
H132	H	-0.040522	0.836109	0.899309
H133	H	-0.520229	0.276077	0.297810
H134	H	-0.020229	0.776077	0.797810
H135	H	-0.525872	0.239483	0.423849
H136	H	-0.025872	0.739483	0.923849
H137	H	-0.760639	0.287969	0.379018
H138	H	-0.260639	0.787969	0.879018
O139	O	-0.953732	0.639847	0.603506
O140	O	-0.453732	1.139847	1.103506
C141	C	-0.915881	0.686547	0.653274
C142	C	-0.415881	1.186547	1.153274
H143	H	-0.915591	0.738942	0.610869
H144	H	-0.415591	1.238942	1.110869
H145	H	-0.859471	0.663088	0.661683
H146	H	-0.359471	1.163088	1.161683
H147	H	-0.941970	0.695375	0.727514
H148	H	-0.441970	1.195375	1.227514
H149	H	-0.939663	1.108405	0.622333
H150	H	-0.439663	1.608405	1.122333
O151	O	-1.110719	1.120864	0.397646
O152	O	-0.610719	1.620864	0.897646
C153	C	-1.148595	1.074171	0.347902
C154	C	-0.648595	1.574171	0.847902
H155	H	-1.117595	1.020556	0.345755
H156	H	-0.617595	1.520556	0.845755
H157	H	-1.157021	1.095766	0.271194
H158	H	-0.657021	1.595766	0.771194
H159	H	-1.201794	1.068434	0.386529
H160	H	-0.701794	1.568434	0.886529
H161	H	-0.298058	0.309619	0.407409
H162	H	0.201942	0.809619	0.907409
H163	H	-0.966523	0.779369	0.586825
H164	H	-0.466523	1.279369	1.086825
H165	H	-1.130242	0.785877	0.371846
H166	H	-0.630242	1.285877	0.871846
O167	O	-1.104713	0.975801	0.405258
O168	O	-0.604713	1.475801	0.905258
C169	C	-1.062895	0.931644	0.343035
C170	C	-0.562895	1.431644	0.843035
H171	H	-1.008278	0.951645	0.332906
H172	H	-0.508278	1.451645	0.832906
H173	H	-1.088405	0.931841	0.270229
H174	H	-0.588405	1.431841	0.770229
H175	H	-1.058189	0.875740	0.375654
H176	H	-0.558189	1.375740	0.875654
O177	O	-1.131651	0.646874	0.369733
O178	O	-0.631651	1.146874	0.869733
C179	C	-1.117020	0.664273	0.271817
C180	C	-0.617020	1.164273	0.771817
H181	H	-1.092094	0.716665	0.265541
H182	H	-0.592094	1.216665	0.765541
H183	H	-1.168022	0.668802	0.231183
H184	H	-0.668022	1.168802	0.731183
H185	H	-1.079113	0.621424	0.239549
H186	H	-0.579113	1.121424	0.739549
O187	O	-0.773137	0.459172	0.603468
O188	O	-0.273137	0.959172	1.103468
C189	C	-0.726448	0.497095	0.653149
C190	C	-0.226448	0.997095	1.153149
H191	H	-0.672822	0.466114	0.655318
H192	H	-0.172822	0.966114	1.155318
H193	H	-0.748030	0.505557	0.729850
H194	H	-0.248030	1.005557	1.229850
H195	H	-0.720736	0.550278	0.614456
H196	H	-0.220736	1.050278	1.114456
H197	H	-0.438160	0.478849	0.629205
H198	H	0.061840	0.978849	1.129205
