data_functionalizedCrystal
_audit_creation_method	'MofGen! by Chris Wilmer'
_symmetry_space_group_name_H-M	'P1'
_symmetry_Int_Tables_number	1
_symmetry_cell_setting	triclinic
loop_
_symmetry_equiv_pos_as_xyz
  x,y,z
_cell_length_a	16.625548
_cell_length_b	16.625545
_cell_length_c	12.759387
_cell_angle_alpha	90.033270
_cell_angle_beta	90.022878
_cell_angle_gamma	90.026626
loop_
_atom_site_label
_atom_site_type_symbol
_atom_site_fract_x
_atom_site_fract_y
_atom_site_fract_z
Zn1	Zn	1.232682	-0.320936	0.594053
Zn2	Zn	1.732682	0.179064	1.094053
Zn3	Zn	1.232572	-0.455791	0.418366
Zn4	Zn	1.732572	0.044209	0.918366
Zn5	Zn	1.097838	-0.320979	0.418383
Zn6	Zn	1.597838	0.179021	0.918383
Zn7	Zn	1.097807	-0.455733	0.593998
Zn8	Zn	1.597807	0.044267	1.093998
O9	O	1.165225	-0.388360	0.506200
O10	O	1.665225	0.111640	1.006200
O11	O	1.345499	-0.338831	0.570764
O12	O	1.845499	0.161169	1.070764
O13	O	1.214667	-0.437951	0.271347
O14	O	1.714667	0.062049	0.771347
O15	O	1.115784	-0.208141	0.441716
O16	O	1.615784	0.291859	0.941716
O17	O	1.345419	-0.437909	0.441688
O18	O	1.845419	0.062091	0.941688
O19	O	1.214853	-0.208109	0.570781
O20	O	1.714853	0.291891	1.070781
O21	O	1.115678	-0.338905	0.271360
O22	O	1.615678	0.161095	0.771360
O23	O	0.985001	-0.338848	0.441663
O24	O	1.485001	0.161152	0.941663
O25	O	1.115731	-0.437809	0.741027
O26	O	1.615731	0.062191	1.241027
O27	O	0.984978	-0.437851	0.570686
O28	O	1.484978	0.062149	1.070686
O29	O	1.214823	-0.338775	0.741067
O30	O	1.714823	0.161225	1.241067
O31	O	1.214636	-0.568616	0.441634
O32	O	1.714636	-0.068616	0.941634
O33	O	1.115624	-0.568573	0.570670
O34	O	1.615624	-0.068573	1.070670
C35	C	0.955734	-0.388348	0.506171
C36	C	1.455734	0.111652	1.006171
C37	C	0.866113	-0.388363	0.506183
C38	C	1.366113	0.111637	1.006183
C39	C	0.537937	-0.388368	0.506228
C40	C	1.037937	0.111632	1.006228
C41	C	0.629245	-0.388364	0.506212
C42	C	1.129245	0.111636	1.006212
C43	C	0.702022	-0.388366	0.506205
C44	C	1.202022	0.111634	1.006205
C45	C	0.793336	-0.388361	0.506191
C46	C	1.293336	0.111639	1.006191
C47	C	1.165137	-0.597851	0.506167
C48	C	1.665137	-0.097851	1.006167
C49	C	1.165173	-0.687472	0.506188
C50	C	1.665173	-0.187472	1.006188
C51	C	1.165205	-0.760254	0.506209
C52	C	1.665205	-0.260254	1.006209
C53	C	1.165251	-0.851563	0.506232
C54	C	1.665251	-0.351563	1.006232
C55	C	1.165293	-0.924339	0.506246
C56	C	1.665293	-0.424339	1.006246
C57	C	1.165339	-1.015653	0.506267
C58	C	1.665339	-0.515653	1.006267
C59	C	1.375533	-0.388372	0.506230
C60	C	1.875533	0.111628	1.006230
C61	C	1.465154	-0.388377	0.506243
C62	C	1.965154	0.111623	1.006243
C63	C	1.165285	-0.388281	0.780234
C64	C	1.665285	0.111719	1.280234
C65	C	1.165311	-0.388247	0.897011
C66	C	1.665311	0.111753	1.397011
C67	C	1.165334	-0.178051	0.506256
C68	C	1.665334	0.321949	1.006256
C69	C	1.165381	-0.088430	0.506280
C70	C	1.665381	0.411570	1.006280
C71	C	1.165210	-0.388380	0.233233
C72	C	1.665210	0.111620	0.733233
C73	C	1.165341	-0.388187	0.116457
C74	C	1.665341	0.111813	0.616457
C75	C	1.268503	-0.285129	0.897073
C76	C	1.768503	0.214871	1.397073
C77	C	1.320110	-0.233558	0.951965
C78	C	1.820110	0.266442	1.451965
C79	C	1.320130	-0.233529	1.061686
C80	C	1.820130	0.266471	1.561686
C81	C	1.268535	-0.285074	1.116519
C82	C	1.768535	0.214926	1.616519
C83	C	1.216928	-0.336645	1.061627
C84	C	1.716928	0.163355	1.561627
C85	C	1.216916	-0.336671	0.951903
C86	C	1.716916	0.163329	1.451903
C87	C	1.113733	-0.439758	1.061565
C88	C	1.613733	0.060242	1.561565
C89	C	1.113717	-0.439793	0.951843
C90	C	1.613717	0.060207	1.451843
C91	C	1.062139	-0.491304	1.116397
C92	C	1.562139	0.008696	1.616397
C93	C	1.010535	-0.542880	1.061505
C94	C	1.510535	-0.042880	1.561505
C95	C	1.010518	-0.542908	0.951777
C96	C	1.510518	-0.042908	1.451777
C97	C	1.062110	-0.491364	0.896951
C98	C	1.562110	0.008636	1.396951
H99	H	1.268500	-0.285155	0.807732
H100	H	1.768500	0.214845	1.307732
F101	F	1.268552	-0.285034	1.233295
F102	F	1.768552	0.214966	1.733295
F103	F	0.955585	-0.597794	0.893365
F104	F	1.455585	-0.097794	1.393365
F105	F	1.375045	-0.178631	1.120108
F106	F	1.875045	0.321369	1.620108
F107	F	1.375003	-0.178687	0.893601
F108	F	1.875003	0.321313	1.393601
F109	F	1.062160	-0.491270	1.233173
F110	F	1.562160	0.008730	1.733173
F111	F	0.955626	-0.597728	1.119867
F112	F	1.455626	-0.097728	1.619867
H113	H	1.062104	-0.491385	0.807610
H114	H	1.562104	0.008615	1.307610
