data_functionalizedCrystal
_audit_creation_method	'MofGen! by Chris Wilmer'
_symmetry_space_group_name_H-M	'P1'
_symmetry_Int_Tables_number	1
_symmetry_cell_setting	triclinic
loop_
_symmetry_equiv_pos_as_xyz
  x,y,z
_cell_length_a	18.101398
_cell_length_b	18.050589
_cell_length_c	18.101389
_cell_angle_alpha	89.985984
_cell_angle_beta	89.990255
_cell_angle_gamma	90.023777
loop_
_atom_site_label
_atom_site_type_symbol
_atom_site_fract_x
_atom_site_fract_y
_atom_site_fract_z
Zn1	Zn	1.132136	-0.295825	-0.418573
Zn2	Zn	1.465469	0.037508	-0.085240
Zn3	Zn	1.798802	0.370841	0.248093
Zn4	Zn	1.132038	-0.420000	-0.294741
Zn5	Zn	1.465371	-0.086666	0.038592
Zn6	Zn	1.798705	0.246667	0.371925
Zn7	Zn	1.008295	-0.295818	-0.294766
Zn8	Zn	1.341628	0.037515	0.038567
Zn9	Zn	1.674961	0.370848	0.371901
Zn10	Zn	1.008252	-0.419968	-0.418561
Zn11	Zn	1.341585	-0.086635	-0.085228
Zn12	Zn	1.674918	0.246698	0.248105
O13	O	1.070180	-0.357903	-0.356660
O14	O	1.403513	-0.024570	-0.023327
O15	O	1.736847	0.308764	0.310006
O16	O	1.235756	-0.312313	-0.402141
O17	O	1.569089	0.021020	-0.068808
O18	O	1.902422	0.354353	0.264525
O19	O	1.115600	-0.403537	-0.191112
O20	O	1.448933	-0.070203	0.142222
O21	O	1.782267	0.263130	0.475555
O22	O	1.024781	-0.191895	-0.311205
O23	O	1.358115	0.141439	0.022129
O24	O	1.691448	0.474772	0.355462
O25	O	1.235684	-0.403544	-0.311163
O26	O	1.569017	-0.070210	0.022171
O27	O	1.902350	0.263123	0.355504
O28	O	1.115767	-0.191900	-0.402165
O29	O	1.449100	0.141433	-0.068832
O30	O	1.782434	0.474767	0.264501
O31	O	1.024687	-0.312301	-0.191130
O32	O	1.358020	0.021032	0.142204
O33	O	1.691353	0.354365	0.475537
O34	O	0.904656	-0.312271	-0.311193
O35	O	1.237989	0.021062	0.022140
O36	O	1.571323	0.354396	0.355474
O37	O	1.024708	-0.403491	-0.522196
O38	O	1.358041	-0.070157	-0.188863
O39	O	1.691375	0.263176	0.144471
O40	O	0.904624	-0.403484	-0.402145
O41	O	1.237958	-0.070150	-0.068812
O42	O	1.571291	0.263183	0.264522
O43	O	1.115725	-0.312283	-0.522205
O44	O	1.449059	0.021050	-0.188871
O45	O	1.782392	0.354383	0.144462
O46	O	1.115558	-0.523920	-0.311151
O47	O	1.448892	-0.190587	0.022182
O48	O	1.782225	0.142747	0.355516
O49	O	1.024613	-0.523897	-0.402121
O50	O	1.357947	-0.190564	-0.068788
O51	O	1.691280	0.142769	0.264546
C52	C	0.877769	-0.357874	-0.356671
C53	C	1.211103	-0.024540	-0.023337
C54	C	1.544436	0.308793	0.309996
C55	C	0.795455	-0.357879	-0.356693
C56	C	1.128789	-0.024546	-0.023359
C57	C	1.462122	0.308787	0.309974
C58	C	0.496364	-0.357923	-0.356662
C59	C	0.829698	-0.024590	-0.023328
C60	C	1.163031	0.308744	0.310005
C61	C	0.527694	-0.415589	-0.413604
C62	C	0.861028	-0.082255	-0.080271
C63	C	1.194361	0.251078	0.253063
C64	C	0.613313	-0.415408	-0.413838
C65	C	0.946646	-0.082075	-0.080505
C66	C	1.279979	0.251258	0.252829
C67	C	0.644747	-0.357902	-0.356677
C68	C	0.978080	-0.024569	-0.023344
C69	C	1.311414	0.308765	0.309989
C70	C	0.613689	-0.279684	-0.377999
C71	C	0.947022	0.053650	-0.044666
C72	C	1.280355	0.386983	0.288668
C73	C	0.528044	-0.280030	-0.378404
C74	C	0.861377	0.053303	-0.045070
C75	C	1.194710	0.386637	0.288263
C76	C	0.527913	-0.377786	-0.278261
C77	C	0.861246	-0.044452	0.055073
C78	C	1.194579	0.288881	0.388406
C79	C	0.613563	-0.379502	-0.278680
C80	C	0.946896	-0.046169	0.054654
C81	C	1.280230	0.287165	0.387987
C82	C	0.728606	-0.357885	-0.356685
C83	C	1.061940	-0.024552	-0.023351
C84	C	1.395273	0.308782	0.309982
C85	C	0.412505	-0.357934	-0.356656
C86	C	0.745838	-0.024601	-0.023323
C87	C	1.079172	0.308732	0.310010
C88	C	1.070091	-0.550855	-0.356648
C89	C	1.403424	-0.217522	-0.023315
C90	C	1.736757	0.115812	0.310019
C91	C	1.070120	-0.633401	-0.356668
C92	C	1.403453	-0.300068	-0.023334
C93	C	1.736787	0.033266	0.309999
C94	C	1.020713	-0.832866	-0.406120
C95	C	1.354046	-0.499533	-0.072787
C96	C	1.687379	-0.166199	0.260547
C97	C	1.002661	-0.882294	-0.338546
C98	C	1.335994	-0.548960	-0.005212
C99	C	1.669327	-0.215627	0.328121
C100	C	1.070193	-0.784531	-0.356677
C101	C	1.403526	-0.451198	-0.023344
C102	C	1.736860	-0.117865	0.309989
C103	C	1.088281	-0.882185	-0.424259
C104	C	1.421614	-0.548852	-0.090926
C105	C	1.754948	-0.215519	0.242407
C106	C	1.070262	-0.930516	-0.356693
C107	C	1.403595	-0.597183	-0.023359
C108	C	1.736928	-0.263850	0.309974
C109	C	1.052105	-0.832872	-0.289067
C110	C	1.385439	-0.499538	0.044266
C111	C	1.718772	-0.166205	0.377599
C112	C	1.137757	-0.832759	-0.374826
C113	C	1.471090	-0.499426	-0.041493
C114	C	1.804424	-0.166092	0.291840
C115	C	1.119731	-0.882164	-0.307206
C116	C	1.453064	-0.548831	0.026128
C117	C	1.786398	-0.215498	0.359461
C118	C	1.070151	-0.700433	-0.356669
C119	C	1.403485	-0.367100	-0.023336
C120	C	1.736818	-0.033766	0.309997
C121	C	1.070303	-1.014613	-0.356693
C122	C	1.403637	-0.681279	-0.023359
C123	C	1.736970	-0.347946	0.309974
C124	C	1.263342	-0.357933	-0.356651
C125	C	1.596675	-0.024599	-0.023317
C126	C	1.930009	0.308734	0.310016
C127	C	1.345656	-0.357946	-0.356646
C128	C	1.678989	-0.024612	-0.023313
C129	C	2.012323	0.308721	0.310020
C130	C	1.070223	-0.357884	-0.549822
C131	C	1.403556	-0.024551	-0.216489
C132	C	1.736889	0.308782	0.116844
C133	C	1.070241	-0.357876	-0.632137
C134	C	1.403574	-0.024543	-0.298803
C135	C	1.736908	0.308790	0.034530
C136	C	1.070290	-0.164197	-0.356689
C137	C	1.403623	0.169136	-0.023356
C138	C	1.736957	0.502469	0.309978
C139	C	1.070337	-0.081652	-0.356701
C140	C	1.403670	0.251682	-0.023368
C141	C	1.737003	0.585015	0.309966
C142	C	1.070284	-0.357737	-0.931228
C143	C	1.403617	-0.024404	-0.597894
C144	C	1.736951	0.308930	-0.264561
C145	C	1.012821	-0.414940	-0.899897
C146	C	1.346155	-0.081606	-0.566564
C147	C	1.679488	0.251727	-0.233230
C148	C	1.012977	-0.415205	-0.814279
C149	C	1.346310	-0.081872	-0.480945
C150	C	1.679643	0.251462	-0.147612
C151	C	1.070262	-0.357806	-0.782845
C152	C	1.403595	-0.024473	-0.449512
C153	C	1.736929	0.308861	-0.116178
C154	C	1.148289	-0.379056	-0.813933
C155	C	1.481622	-0.045722	-0.480599
C156	C	1.814955	0.287611	-0.147266
C157	C	1.147968	-0.379431	-0.899578
C158	C	1.481302	-0.046098	-0.566244
C159	C	1.814635	0.287235	-0.232911
C160	C	1.050399	-0.279157	-0.899651
C161	C	1.383732	0.054176	-0.566318
C162	C	1.717065	0.387509	-0.232984
C163	C	1.048663	-0.279611	-0.814000
C164	C	1.381996	0.053722	-0.480667
C165	C	1.715329	0.387055	-0.147334
C166	C	1.070254	-0.357844	-0.698986
C167	C	1.403588	-0.024511	-0.365652
C168	C	1.736921	0.308823	-0.032319
C169	C	1.070297	-0.357701	-1.015087
C170	C	1.403630	-0.024368	-0.681754
C171	C	1.736964	0.308966	-0.348421
C172	C	1.070180	-0.357868	-0.164250
C173	C	1.403513	-0.024535	0.169083
C174	C	1.736847	0.308799	0.502417
C175	C	1.070305	-0.357667	-0.081936
C176	C	1.403639	-0.024334	0.251397
C177	C	1.736972	0.309000	0.584730
H178	H	0.633870	-0.437059	-0.262599
H179	H	0.967203	-0.103726	0.070735
H180	H	1.300536	0.229608	0.404068
H181	H	1.103553	-0.903847	-0.481406
H182	H	1.436886	-0.570513	-0.148073
H183	H	1.770219	-0.237180	0.185260
H184	H	0.994491	-0.259798	-0.921250
H185	H	1.327824	0.073535	-0.587916
H186	H	1.661157	0.406868	-0.254583
H187	H	1.161604	-0.903674	-0.265352
H188	H	1.494937	-0.570341	0.067981
H189	H	1.828271	-0.237007	0.401315
H190	H	0.508081	-0.263181	-0.435718
H191	H	0.841415	0.070152	-0.102385
H192	H	1.174748	0.403485	0.230948
N193	N	0.499204	-0.398401	-0.490106
N194	N	0.832537	-0.065068	-0.156773
N195	N	1.165871	0.268265	0.176560
H196	H	0.515468	-0.346992	-0.504998
H197	H	0.848802	-0.013658	-0.171665
H198	H	1.182135	0.319675	0.161668
H199	H	0.519597	-0.435741	-0.526296
H200	H	0.852930	-0.102408	-0.192962
H201	H	1.186264	0.230926	0.140371
N202	N	0.965214	-0.804174	-0.461424
N203	N	1.298547	-0.470840	-0.128091
N204	N	1.631881	-0.137507	0.205242
H205	H	0.978326	-0.822881	-0.512345
H206	H	1.311660	-0.489548	-0.179011
H207	H	1.644993	-0.156214	0.154322
H208	H	0.914235	-0.822198	-0.447558
H209	H	1.247569	-0.488865	-0.114225
H210	H	1.580902	-0.155531	0.219109
N211	N	1.206520	-0.325596	-0.786969
N212	N	1.539854	0.007737	-0.453635
N213	N	1.873187	0.341070	-0.120302
H214	H	1.208483	-0.326814	-0.731220
H215	H	1.541816	0.006520	-0.397886
H216	H	1.875150	0.339853	-0.064553
H217	H	1.256194	-0.340341	-0.807678
H218	H	1.589528	-0.007008	-0.474345
H219	H	1.922861	0.326326	-0.141012
N220	N	1.171007	-0.454336	-0.785532
N221	N	1.504340	-0.121002	-0.452199
N222	N	1.837673	0.212331	-0.118865
H223	H	1.133772	-0.492631	-0.801939
H224	H	1.467105	-0.159297	-0.468606
H225	H	1.800438	0.174036	-0.135273
H226	H	1.221294	-0.467449	-0.805851
H227	H	1.554628	-0.134116	-0.472517
H228	H	1.887961	0.199217	-0.139184
N229	N	0.641135	-0.492237	-0.396136
N230	N	0.974468	-0.158904	-0.062803
N231	N	1.307801	0.174430	0.270530
H232	H	0.597763	-0.526527	-0.388112
H233	H	0.931096	-0.193194	-0.054778
H234	H	1.264429	0.140139	0.278555
H235	H	0.672053	-0.511070	-0.438609
H236	H	1.005387	-0.177737	-0.105276
H237	H	1.338720	0.155596	0.228057
H238	H	1.036768	-0.811300	-0.231905
H239	H	1.370101	-0.477967	0.101429
H240	H	1.703434	-0.144633	0.434762
N241	N	0.927023	-0.911126	-0.318207
N242	N	1.260356	-0.577792	0.015126
N243	N	1.593689	-0.244459	0.348459
H244	H	0.913003	-0.892415	-0.267531
H245	H	1.246336	-0.559081	0.065803
H246	H	1.579669	-0.225748	0.399136
H247	H	0.889701	-0.893195	-0.355620
H248	H	1.223034	-0.559862	-0.022287
H249	H	1.556367	-0.226529	0.311047
N250	N	1.213383	-0.803916	-0.395178
N251	N	1.546716	-0.470582	-0.061844
N252	N	1.880049	-0.137249	0.271489
H253	H	1.226977	-0.821821	-0.446259
H254	H	1.560310	-0.488487	-0.112925
H255	H	1.893644	-0.155154	0.220408
H256	H	1.212856	-0.747971	-0.394499
H257	H	1.546189	-0.414638	-0.061166
H258	H	1.879523	-0.081304	0.272167
H259	H	0.955117	-0.401907	-0.793260
H260	H	1.288450	-0.068573	-0.459926
H261	H	1.621784	0.264760	-0.126593
H262	H	1.092252	-0.236538	-0.919913
H263	H	1.425585	0.096795	-0.586580
H264	H	1.758919	0.430128	-0.253246
H265	H	1.026106	-0.473451	-0.793797
H266	H	1.359439	-0.140117	-0.460464
H267	H	1.692772	0.193216	-0.127131
H268	H	1.164826	-0.436874	-0.919561
H269	H	1.498159	-0.103541	-0.586228
H270	H	1.831492	0.229793	-0.252894
N271	N	0.935942	-0.397499	-0.927161
N272	N	1.269275	-0.064165	-0.593828
N273	N	1.602609	0.269168	-0.260494
H274	H	0.937613	-0.352350	-0.960090
H275	H	1.270946	-0.019017	-0.626757
H276	H	1.604280	0.314316	-0.293424
H277	H	0.916188	-0.441089	-0.956028
H278	H	1.249522	-0.107755	-0.622694
H279	H	1.582855	0.225578	-0.289361
N280	N	1.030050	-0.491629	-0.928383
N281	N	1.363383	-0.158296	-0.595050
N282	N	1.696716	0.175038	-0.261716
H283	H	1.074912	-0.489478	-0.961498
H284	H	1.408246	-0.156144	-0.628165
H285	H	1.741579	0.177189	-0.294831
H286	H	1.040274	-0.525705	-0.885324
H287	H	1.373608	-0.192372	-0.551991
H288	H	1.706941	0.140961	-0.218657
H289	H	1.192234	-0.339576	-0.920304
H290	H	1.525567	-0.006243	-0.586970
H291	H	1.858900	0.327090	-0.253637
H292	H	0.507652	-0.335782	-0.235834
H293	H	0.840986	-0.002449	0.097500
H294	H	1.174319	0.330885	0.430833
H295	H	0.991242	-0.263587	-0.793682
H296	H	1.324576	0.069747	-0.460349
H297	H	1.657909	0.403080	-0.127015
N298	N	1.100053	-0.220154	-0.785663
N299	N	1.433386	0.113179	-0.452330
N300	N	1.766720	0.446513	-0.118996
H301	H	1.138237	-0.243167	-0.752080
H302	H	1.471570	0.090166	-0.418746
H303	H	1.804904	0.423500	-0.085413
H304	H	1.125552	-0.195438	-0.828753
H305	H	1.458886	0.137895	-0.495420
H306	H	1.792219	0.471228	-0.162087
H307	H	0.507082	-0.473782	-0.400391
H308	H	0.840415	-0.140448	-0.067057
H309	H	1.173749	0.192885	0.266276
H310	H	0.633815	-0.402267	-0.471928
H311	H	0.967148	-0.068934	-0.138595
H312	H	1.300481	0.264400	0.194738
N313	N	0.500573	-0.221198	-0.325865
N314	N	0.833906	0.112135	0.007468
N315	N	1.167240	0.445468	0.340802
H316	H	0.519320	-0.171116	-0.342263
H317	H	0.852654	0.162217	-0.008930
H318	H	1.185987	0.495551	0.324404
H319	H	0.444779	-0.221043	-0.325748
H320	H	0.778112	0.112290	0.007585
H321	H	1.111445	0.445623	0.340918
N322	N	0.640656	-0.221223	-0.324781
N323	N	0.973989	0.112110	0.008552
N324	N	1.307323	0.445444	0.341885
H325	H	0.673345	-0.244937	-0.286247
H326	H	1.006678	0.088397	0.047087
H327	H	1.340011	0.421730	0.380420
H328	H	0.669706	-0.182489	-0.352690
H329	H	1.003040	0.150845	-0.019357
H330	H	1.336373	0.484178	0.313977
H331	H	0.506302	-0.433846	-0.258883
H332	H	0.839635	-0.100513	0.074450
H333	H	1.172969	0.232821	0.407784
N334	N	0.642107	-0.256954	-0.453095
N335	N	0.975441	0.076379	-0.119761
N336	N	1.308774	0.409713	0.213572
H337	H	0.697851	-0.254751	-0.452049
H338	H	1.031185	0.078582	-0.118716
H339	H	1.364518	0.411915	0.214618
H340	H	0.625646	-0.294349	-0.491188
H341	H	0.958979	0.038984	-0.157854
H342	H	1.292312	0.372317	0.175479
N343	N	0.641902	-0.327908	-0.219458
N344	N	0.975235	0.005425	0.113875
N345	N	1.308568	0.338758	0.447209
H346	H	0.675504	-0.289628	-0.242453
H347	H	1.008837	0.043705	0.090880
H348	H	1.342171	0.377038	0.424214
H349	H	0.598814	-0.302327	-0.194864
H350	H	0.932147	0.031006	0.138469
H351	H	1.265480	0.364340	0.471803
