data_functionalizedCrystal
_audit_creation_method	'MofGen! by Chris Wilmer'
_symmetry_space_group_name_H-M	'P1'
_symmetry_Int_Tables_number	1
_symmetry_cell_setting	triclinic
loop_
_symmetry_equiv_pos_as_xyz
  x,y,z
_cell_length_a	14.971482
_cell_length_b	10.654559
_cell_length_c	13.448316
_cell_angle_alpha	89.996020
_cell_angle_beta	89.993798
_cell_angle_gamma	84.050646
loop_
_atom_site_label
_atom_site_type_symbol
_atom_site_fract_x
_atom_site_fract_y
_atom_site_fract_z
O1	O	1.187844	0.163636	-0.082673
O2	O	0.927550	0.183239	-0.082677
O3	O	1.063677	-0.009365	-0.082675
O4	O	1.051717	0.356241	-0.082675
O5	O	1.063660	-0.009377	0.082709
O6	O	0.927533	0.183228	0.082707
O7	O	1.187826	0.163624	0.082711
Cu8	Cu	1.057678	0.173425	0.097809
Cu9	Cu	1.057699	0.173439	-0.097776
O10	O	1.051699	0.356229	0.082708
C11	C	0.894212	0.182358	0.000014
C12	C	0.794900	0.179733	0.000012
C13	C	0.748240	0.178490	0.090164
C14	C	0.654928	0.176004	0.090165
C15	C	0.608277	0.174770	0.000013
C16	C	0.654945	0.176009	-0.090145
C17	C	0.748256	0.178486	-0.090145
C18	C	0.460455	0.170848	-0.090139
C19	C	0.367137	0.168373	-0.090139
C20	C	0.367126	0.168367	0.090172
C21	C	0.460437	0.170844	0.090172
C22	C	0.507098	0.172085	0.000012
C23	C	1.062789	-0.056159	0.000015
C24	C	1.060156	-0.195574	0.000008
C25	C	0.977532	-0.246225	0.000005
C26	C	0.975064	-0.377221	0.000012
C27	C	1.137851	-0.406903	0.000023
C28	C	1.140318	-0.275909	0.000023
C29	C	0.883548	-0.229090	-0.000006
C30	C	0.881080	-0.360086	0.000001
C31	C	1.221165	0.164506	0.000017
C32	C	1.320476	0.167131	0.000012
C33	C	1.052588	0.403023	0.000016
C34	C	1.055221	0.542437	0.000016
N35	N	1.057670	0.173414	0.235374
N36	N	1.057713	0.173440	-0.235340
C37	C	1.117966	0.088164	0.287415
C38	C	1.117972	0.088163	0.391518
C39	C	1.057685	0.173419	0.443578
C40	C	0.997382	0.258673	0.391530
C41	C	0.997373	0.258667	0.287428
C42	C	0.997407	0.258682	0.608510
C43	C	0.997417	0.258690	0.712618
C44	C	1.118006	0.088178	0.712600
C45	C	1.117997	0.088172	0.608498
C46	C	1.057695	0.173428	0.556457
H47	H	0.498443	0.171860	-0.163556
H48	H	0.786215	0.179506	0.163576
H49	H	1.167091	0.018756	0.566111
H50	H	0.329157	0.167369	-0.163549
H51	H	0.948273	0.328085	0.245057
N52	N	0.932362	0.350627	0.447684
H53	H	0.943212	0.439782	0.429554
H54	H	0.868818	0.335907	0.429567
N55	N	1.182975	-0.003803	0.231258
H56	H	1.222872	0.044266	0.188046
H57	H	1.221111	-0.057799	0.280080
H58	H	1.167069	0.018745	0.433890
N59	N	1.229433	-0.221274	0.000048
H60	H	1.279838	-0.292046	0.000057
H61	H	1.234020	-0.167565	-0.061259
H62	H	1.167105	0.018759	0.754978
N63	N	0.604597	0.174659	0.187398
H64	H	0.648381	0.174933	0.244509
H65	H	0.559543	0.251875	0.191626
N66	N	0.510755	0.172194	0.187403
H67	H	0.467038	0.171032	0.244519
H68	H	0.556243	0.095433	0.191332
H69	H	0.844330	-0.389054	-0.069208
H70	H	0.329130	0.167356	0.163582
H71	H	0.948300	0.328103	0.566141
N72	N	0.604627	0.174666	-0.187378
H73	H	0.559143	0.251428	-0.191398
H74	H	0.648406	0.175778	-0.244435
H75	H	0.786246	0.179500	-0.163556
N76	N	1.224308	-0.493550	0.000044
H77	H	1.210209	-0.584221	0.000048
H78	H	1.260294	-0.477136	-0.061263
N79	N	0.841423	-0.406864	0.094590
H80	H	0.777896	-0.366024	0.102726
H81	H	0.841119	-0.501506	0.091087
H82	H	0.848123	-0.186966	0.069202
H83	H	0.855162	-0.183138	-0.071417
N84	N	0.932404	0.350653	0.768773
H85	H	0.894200	0.404659	0.720010
H86	H	0.892573	0.302489	0.811988
