data_functionalizedCrystal
_audit_creation_method	'MofGen! by Chris Wilmer'
_symmetry_space_group_name_H-M	'P1'
_symmetry_Int_Tables_number	1
_symmetry_cell_setting	triclinic
loop_
_symmetry_equiv_pos_as_xyz
  x,y,z
_cell_length_a	27.440280
_cell_length_b	27.440280
_cell_length_c	20.016444
_cell_angle_alpha	59.992610
_cell_angle_beta	90.005481
_cell_angle_gamma	60.007024
loop_
_atom_site_label
_atom_site_type_symbol
_atom_site_fract_x
_atom_site_fract_y
_atom_site_fract_z
Zr1	Zr	0.469576	0.533360	-0.087658
O2	O	0.391768	0.635038	-0.194361
O3	O	0.493418	0.431690	-0.054940
O4	O	0.493427	0.533361	-0.194332
O5	O	0.391762	0.533364	0.054976
O6	O	0.573630	0.533351	-0.194318
O7	O	0.391758	0.533368	-0.054969
O8	O	0.573613	0.351481	0.055029
O9	O	0.391779	0.715234	-0.194371
O10	O	0.563453	0.473498	-0.040986
O11	O	0.503602	0.473502	0.041055
O12	O	0.503613	0.593206	-0.123061
O13	O	0.443762	0.593210	-0.041021
Zr14	Zr	0.597497	0.533339	0.087713
Zr15	Zr	0.597490	0.533345	-0.087636
Zr16	Zr	0.469583	0.533354	0.087691
Zr17	Zr	0.469595	0.661263	-0.087674
Zr18	Zr	0.597478	0.405436	0.087729
O19	O	0.573655	0.635008	0.054995
O20	O	0.573645	0.635017	-0.194330
O21	O	0.391777	0.635030	0.054963
O22	O	0.675305	0.431660	0.194416
O23	O	0.675296	0.431669	-0.054909
O24	O	0.493428	0.431681	0.194385
O25	O	0.675310	0.533335	-0.054921
O26	O	0.573645	0.533338	0.194387
O27	O	0.493442	0.533347	0.194373
O28	O	0.675315	0.533331	0.055024
O29	O	0.493454	0.715222	-0.194354
O30	O	0.573619	0.351476	0.194408
O31	O	0.675293	0.351464	0.194426
O32	O	0.675288	0.351469	0.055046
O33	O	0.391785	0.715229	-0.054991
O34	O	0.493459	0.715217	-0.054974
O35	O	0.563460	0.473492	0.123116
O36	O	0.623311	0.473488	0.041075
O37	O	0.563471	0.593196	-0.041000
O38	O	0.503619	0.593200	0.041041
C39	C	0.533513	0.373362	0.000047
C40	C	0.533505	0.319064	0.000053
C41	C	0.577722	0.040173	0.060614
C42	C	0.577717	0.091195	0.060617
O43	O	0.615299	0.080012	0.112124
N44	N	0.533531	0.160894	0.000037
C45	C	0.489350	0.179570	-0.060555
O46	O	0.451766	0.243539	-0.112083
C47	C	0.489359	0.128549	-0.060561
C48	C	0.533544	0.058850	0.000028
C49	C	0.621905	-0.029522	0.121197
C50	C	0.621910	-0.080540	0.121194
C51	C	0.577732	-0.061863	0.060609
C52	C	0.533549	0.007832	0.000025
C53	C	0.445181	0.147226	-0.121155
C54	C	0.445194	0.096197	-0.121156
C55	C	0.489380	0.026498	-0.060567
C56	C	0.489376	-0.024510	-0.060563
N57	N	0.533562	-0.094208	0.000017
C58	C	0.577740	-0.112885	0.060603
C59	C	0.489336	0.286715	-0.060539
C60	C	0.489325	0.337737	-0.060530
C61	C	0.577693	0.249358	0.060641
C62	C	0.577701	0.198336	0.060635
C63	C	0.533523	0.217017	0.000041
C64	C	0.577746	-0.220023	0.060593
C65	C	0.577746	-0.271042	0.060587
C66	C	0.489380	-0.182660	-0.060586
C67	C	0.489379	-0.131645	-0.060578
C68	C	0.533567	-0.150332	0.000016
O69	O	0.451815	-0.013378	-0.112045
O70	O	0.615323	-0.176853	0.112116
C71	C	0.373535	0.533368	-0.000000
C72	C	0.319232	0.533374	-0.000009
C73	C	0.013771	0.470851	0.042893
C74	C	-0.037248	0.470848	0.042900
O75	O	-0.037071	0.417705	0.079361
N76	N	-0.094001	0.533333	0.000056
C77	C	-0.099734	0.595827	-0.042790
O78	O	-0.152691	0.648976	-0.079230
C79	C	-0.048716	0.595830	-0.042792
C80	C	0.008036	0.533340	0.000047
C81	C	0.070520	0.408367	0.085729
C82	C	0.121535	0.408371	0.085721
C83	C	0.115800	0.470860	0.042875
C84	C	0.059051	0.533344	0.000039
C85	C	-0.054450	0.658323	-0.085633
C86	C	-0.003426	0.658321	-0.085631
C87	C	0.053326	0.595831	-0.042792
C88	C	0.104331	0.595837	-0.042815
N89	N	0.161083	0.533351	0.000028
C90	C	0.166818	0.470863	0.042873
C91	C	-0.206873	0.595816	-0.042782
C92	C	-0.257890	0.595813	-0.042785
C93	C	-0.195400	0.470834	0.042907
C94	C	-0.144382	0.470837	0.042905
C95	C	-0.150120	0.533330	0.000062
C96	C	0.273950	0.470876	0.042851
C97	C	0.324967	0.470885	0.042836
C98	C	0.262473	0.595865	-0.042852
C99	C	0.211461	0.595856	-0.042840
C100	C	0.217203	0.533356	0.000017
O101	O	0.104200	0.648952	-0.079255
O102	O	0.219777	0.417723	0.079316
C103	C	0.693537	0.533330	0.000055
C104	C	0.747840	0.533324	0.000064
C105	C	0.533528	0.533357	-0.219308
C106	C	0.533525	0.533359	-0.293749
C107	C	0.533560	0.693336	0.000008
C108	C	0.533568	0.747634	0.000002
C109	C	0.502300	0.595838	-0.507848
C110	C	0.502304	0.595835	-0.577789
C111	C	0.564777	0.470856	-0.492089
C112	C	0.564775	0.470859	-0.422150
C113	C	0.533533	0.533352	-0.430032
C114	C	0.533540	0.533346	-0.569913
C115	C	0.533545	0.533342	-0.645746
C116	C	0.533528	0.533356	-0.354195
C117	C	0.533545	0.533342	0.219363
C118	C	0.533548	0.533339	0.293804
C119	C	0.693514	0.373343	0.000074
C120	C	0.747809	0.319039	0.000090
C121	C	0.533521	0.373354	0.219383
C122	C	0.533516	0.319054	0.293830
C123	C	0.693523	0.373336	0.219410
C124	C	0.747820	0.319029	0.293866
C125	C	0.373550	0.693363	-0.219355
C126	C	0.319252	0.747670	-0.293812
C127	C	0.373559	0.693355	-0.000019
C128	C	0.319264	0.747660	-0.000035
C129	C	0.533551	0.693344	-0.219328
C130	C	0.533556	0.747645	-0.293775
C131	C	0.742062	0.293542	-0.042745
C132	C	0.793073	0.242524	-0.042746
C133	C	0.849831	0.217001	0.000092
C134	C	0.855577	0.242503	0.042929
C135	C	0.804567	0.293523	0.042925
C136	C	0.564759	0.293548	0.371633
C137	C	0.564752	0.242534	0.441591
C138	C	0.533506	0.217023	0.433743
C139	C	0.502259	0.242533	0.355931
C140	C	0.502263	0.293550	0.285976
C141	C	0.804566	0.293523	0.286008
C142	C	0.855590	0.242503	0.355961
C143	C	0.849866	0.216986	0.433772
C144	C	0.793114	0.242496	0.441629
C145	C	0.742092	0.293519	0.371677
C146	C	0.262506	0.773181	-0.285953
C147	C	0.211483	0.824217	-0.355906
C148	C	0.217207	0.849738	-0.433717
C149	C	0.273959	0.824224	-0.441574
C150	C	0.324981	0.773192	-0.371622
C151	C	0.325011	0.773162	0.042793
C152	C	0.274000	0.824194	0.042775
C153	C	0.217242	0.849719	-0.000066
C154	C	0.211496	0.824215	-0.042899
C155	C	0.262506	0.773187	-0.042886
C156	C	0.564809	0.773140	-0.285901
C157	C	0.564825	0.824154	-0.355845
C158	C	0.533585	0.849676	-0.433662
C159	C	0.502332	0.824176	-0.441535
C160	C	0.502319	0.773159	-0.371591
H161	H	0.613728	-0.327795	0.109929
H162	H	0.533600	0.891218	-0.490608
O163	O	0.167684	0.899240	-0.501724
C164	C	0.111568	0.930459	-0.625570
C165	C	0.167686	0.874347	-0.548602
H166	H	0.111545	0.910349	-0.663483
H167	H	0.111548	0.978242	-0.663616
H168	H	0.070039	0.944313	-0.606557
H169	H	0.209245	0.860434	-0.567542
H170	H	0.167653	0.826600	-0.510574
H171	H	0.613681	0.141587	0.109971
H172	H	0.165278	0.844982	-0.349492
O173	O	0.620716	-0.238146	0.119355
C174	C	0.701672	-0.231809	0.149005
C175	C	0.653049	-0.211252	0.082373
H176	H	0.727818	-0.210062	0.119129
H177	H	0.733288	-0.290386	0.192297
H178	H	0.679876	-0.210157	0.184923
H179	H	0.674793	-0.232857	0.046396
H180	H	0.621438	-0.152671	0.039138
O181	O	0.472037	0.748301	-0.379191
C182	C	0.477682	0.648734	-0.349887
C183	C	0.512061	0.676789	-0.341239
H184	H	0.510025	0.590911	-0.319193
H185	H	0.455364	0.675689	-0.417505
H186	H	0.442191	0.658830	-0.319314
H187	H	0.547580	0.666699	-0.371766
H188	H	0.534338	0.649833	-0.273606
H189	H	0.613665	0.234158	0.109973
H190	H	0.476860	0.646724	-0.514271
H191	H	0.257818	0.752425	-0.077759
O192	O	0.279551	0.848868	-0.517140
C193	C	0.317185	0.822421	-0.611765
C194	C	0.310934	0.794438	-0.526140
H195	H	0.342546	0.778431	-0.619075
H196	H	0.342653	0.846304	-0.619296
H197	H	0.270941	0.863263	-0.660340
H198	H	0.357153	0.753572	-0.477514
H199	H	0.285436	0.770599	-0.518679
H200	H	0.809255	0.314276	0.077811
O201	O	0.446427	-0.063970	-0.119509
C202	C	0.358761	0.018298	-0.239669
C203	C	0.407372	-0.058364	-0.172982
H204	H	0.327165	0.022855	-0.282909
H205	H	0.380509	0.044418	-0.275631
H206	H	0.332596	0.044379	-0.209794
H207	H	0.433554	-0.084504	-0.202789
H208	H	0.385588	-0.084433	-0.137025
O209	O	0.380097	0.748469	0.084426
C210	C	0.436693	0.753823	0.169436
C211	C	0.374275	0.781853	0.122305
H212	H	0.432007	0.780792	0.200088
H213	H	0.462155	0.763872	0.125103
H214	H	0.462129	0.696008	0.218060
H215	H	0.348789	0.839671	0.073681
H216	H	0.348858	0.771751	0.166689
O217	O	0.279516	0.848942	0.084455
C218	C	0.258235	0.864490	0.191785
C219	C	0.251930	0.836453	0.144633
H220	H	0.235947	0.854391	0.240461
H221	H	0.235901	0.922308	0.147466
H222	H	0.307569	0.837484	0.222373
H223	H	0.202612	0.863407	0.114042
H224	H	0.274301	0.778631	0.188990
H225	H	0.590204	0.314314	0.378039
O226	O	0.910669	0.217778	0.348172
C227	C	0.967239	0.223198	0.255802
C228	C	0.904829	0.251247	0.264508
H229	H	0.962539	0.250256	0.188164
H230	H	0.992695	0.165394	0.286369
H231	H	0.992690	0.233213	0.286438
H232	H	0.879329	0.241282	0.233867
H233	H	0.879419	0.309043	0.233964
O234	O	0.167631	0.899311	-0.000193
C235	C	0.060134	0.972532	-0.047176
C236	C	0.116264	0.916380	-0.047118
H237	H	0.018589	0.986339	-0.085096
H238	H	0.060100	1.020331	-0.074741
H239	H	0.060162	0.952458	0.018326
H240	H	0.116273	0.936389	-0.112595
H241	H	0.116276	0.868592	-0.019506
H242	H	-0.304096	0.646699	-0.077680
O243	O	0.156390	0.848890	-0.084446
C244	C	0.087337	0.822535	-0.100036
C245	C	0.149768	0.794500	-0.052941
H246	H	0.081958	0.778577	-0.074571
H247	H	0.081931	0.846399	-0.167670
H248	H	0.051884	0.863402	-0.092697
H249	H	0.185258	0.753609	-0.060213
H250	H	0.155122	0.770679	0.014674
H251	H	0.590248	0.752368	-0.222544
O252	O	0.595190	0.848871	-0.348041
C253	C	0.657187	0.843439	-0.255651
C254	C	0.622815	0.815400	-0.264374
H255	H	0.679541	0.816380	-0.188011
H256	H	0.624851	0.901244	-0.286219
H257	H	0.692652	0.833419	-0.286277
H258	H	0.587349	0.825371	-0.233744
H259	H	0.655188	0.757603	-0.233828
H260	H	0.371184	0.752421	-0.378030
H261	H	0.590213	0.419976	-0.485681
H262	H	0.891417	0.175440	0.490725
H263	H	0.409204	0.203970	-0.170498
O264	O	0.595126	0.410095	-0.346614
C265	C	0.657121	0.286132	-0.268986
C266	C	0.622762	0.354892	-0.354575
H267	H	0.679484	0.241482	-0.275394
H268	H	0.624775	0.282969	-0.234093
H269	H	0.692578	0.283045	-0.234102
H270	H	0.587305	0.358026	-0.389527
H271	H	0.655146	0.358027	-0.389406
O272	O	0.595163	0.217809	0.517109
C273	C	0.657131	0.223223	0.594671
C274	C	0.622727	0.251272	0.509102
H275	H	0.679415	0.250276	0.588226
H276	H	0.692640	0.165418	0.629590
H277	H	0.624768	0.233245	0.629549
H278	H	0.655044	0.241300	0.474156
H279	H	0.587210	0.309069	0.474245
H280	H	0.453356	0.301936	-0.109881
O281	O	0.402218	0.114465	-0.180057
C282	C	0.314594	0.207513	-0.300274
C283	C	0.363220	0.186920	-0.233610
H284	H	0.283059	0.266093	-0.343600
H285	H	0.288359	0.185878	-0.270470
H286	H	0.336394	0.185803	-0.336139
H287	H	0.341469	0.208623	-0.197723
H288	H	0.389451	0.208544	-0.263465
O289	O	0.533403	0.167548	0.501678
C290	C	0.474277	0.136304	0.578546
C291	C	0.474303	0.192401	0.501584
H292	H	0.426498	0.156372	0.578487
H293	H	0.501940	0.122463	0.635529
H294	H	0.494376	0.088522	0.578571
H295	H	0.454193	0.240219	0.501479
H296	H	0.446658	0.206184	0.444636
O297	O	0.686962	0.318213	-0.084304
C298	C	0.617924	0.291852	-0.099944
C299	C	0.680344	0.263820	-0.052818
H300	H	0.612548	0.247893	-0.074495
H301	H	0.612536	0.315716	-0.167573
H302	H	0.582457	0.332720	-0.092616
H303	H	0.715848	0.222929	-0.060080
H304	H	0.685680	0.240000	0.014792
H305	H	0.165250	0.646740	-0.077734
H306	H	0.476897	0.844964	-0.504903
O307	O	0.787666	0.217604	0.517278
C308	C	0.838596	0.139008	0.663007
C309	C	0.844850	0.167132	0.577383
H310	H	0.884823	0.098206	0.711624
H311	H	0.813193	0.115068	0.670438
H312	H	0.813135	0.182973	0.670344
H313	H	0.870323	0.123205	0.569987
H314	H	0.870230	0.191092	0.569991
H315	H	0.657892	-0.137289	0.170530
H316	H	0.657883	-0.044741	0.170534
H317	H	0.453338	0.394485	-0.109859
H318	H	0.453410	-0.167463	-0.109910
H319	H	0.695889	0.314279	0.378087
H320	H	0.371177	0.419997	0.077724
H321	H	-0.098175	0.419952	0.077796
H322	H	0.476819	0.221754	0.349554
H323	H	0.788382	0.221767	-0.077629
O324	O	0.279640	0.410103	0.084493
C325	C	0.347018	0.286142	0.169517
C326	C	0.340661	0.354916	0.122383
H327	H	0.396351	0.241506	0.200177
H328	H	0.324728	0.282967	0.125183
H329	H	0.324673	0.283044	0.218134
H330	H	0.363009	0.358061	0.073766
H331	H	0.362934	0.358062	0.166767
H332	H	0.167741	0.357485	0.120601
H333	H	0.476823	0.314310	0.222627
H334	H	0.257834	0.752406	-0.222601
O335	O	0.076204	0.347598	0.127363
C336	C	0.143586	0.223638	0.212383
C337	C	0.137227	0.292413	0.165255
H338	H	0.192920	0.179003	0.243045
H339	H	0.121300	0.220463	0.168045
H340	H	0.121240	0.220536	0.260998
H341	H	0.159576	0.295561	0.116639
H342	H	0.159497	0.295559	0.209643
H343	H	0.891362	0.175456	0.000090
H344	H	-0.190739	0.419952	0.077791
O345	O	0.910758	0.217605	0.084532
C346	C	1.017041	0.139007	0.122470
C347	C	0.954584	0.167137	0.075331
H348	H	1.052491	0.098209	0.115034
H349	H	1.022462	0.115062	0.190118
H350	H	1.022405	0.182970	0.097107
H351	H	0.949177	0.123212	0.100625
H352	H	0.949191	0.191102	0.007689
H353	H	-0.211553	0.646708	-0.077673
H354	H	-0.100652	0.709209	-0.120517
H355	H	-0.008105	0.709211	-0.120509
H356	H	0.476872	0.646717	-0.641148
O357	O	0.256802	0.656625	-0.084537
C358	C	0.189451	0.780588	-0.169470
C359	C	0.195786	0.711827	-0.122319
H360	H	0.140122	0.825237	-0.200015
H361	H	0.211732	0.783767	-0.218161
H362	H	0.211817	0.783662	-0.125086
H363	H	0.173417	0.708707	-0.166640
H364	H	0.173521	0.708678	-0.073618
H365	H	0.809238	0.314292	0.222656
