data_functionalizedCrystal
_audit_creation_method	'MofGen! by Chris Wilmer'
_symmetry_space_group_name_H-M	'P1'
_symmetry_Int_Tables_number	1
_symmetry_cell_setting	triclinic
loop_
_symmetry_equiv_pos_as_xyz
  x,y,z
_cell_length_a	12.759401
_cell_length_b	12.594516
_cell_length_c	12.759393
_cell_angle_alpha	89.970274
_cell_angle_beta	89.980324
_cell_angle_gamma	90.012242
loop_
_atom_site_label
_atom_site_type_symbol
_atom_site_fract_x
_atom_site_fract_y
_atom_site_fract_z
Zn1	Zn	1.606287	-0.423678	-0.593990
Zn2	Zn	1.606187	-0.601694	-0.418313
Zn3	Zn	1.430586	-0.423732	-0.418329
Zn4	Zn	1.430587	-0.601617	-0.593954
O5	O	1.518412	-0.512680	-0.506147
O6	O	1.753295	-0.447303	-0.570695
O7	O	1.582851	-0.578142	-0.271294
O8	O	1.453935	-0.274779	-0.441653
O9	O	1.753222	-0.578091	-0.441625
O10	O	1.583022	-0.274740	-0.570711
O11	O	1.453838	-0.447394	-0.271306
O12	O	1.283565	-0.447318	-0.441618
O13	O	1.453936	-0.577958	-0.740980
O14	O	1.283566	-0.578010	-0.570649
O15	O	1.583023	-0.447228	-0.741007
O16	O	1.582852	-0.750630	-0.441590
O17	O	1.453839	-0.750573	-0.570633
C18	C	1.245445	-0.512662	-0.506132
C19	C	1.128668	-0.512680	-0.506150
C20	C	1.073845	-0.444702	-0.573460
C21	C	0.964121	-0.444713	-0.573467
C22	C	0.964053	-0.580689	-0.438851
C23	C	1.073775	-0.580672	-0.438840
C24	C	1.518363	-0.789221	-0.506128
C25	C	1.518439	-0.907527	-0.506156
C26	C	1.588690	-0.976772	-0.436044
C27	C	1.614368	-1.047465	-0.531937
C28	C	1.492893	-1.047632	-0.410324
C29	C	1.544165	-0.976662	-0.602098
C30	C	1.422645	-0.976822	-0.480421
C31	C	1.448286	-1.047484	-0.576380
C32	C	1.792445	-0.512700	-0.506162
C33	C	1.909222	-0.512708	-0.506169
C34	C	1.518491	-0.512578	-0.780180
C35	C	1.518524	-0.512535	-0.896957
C36	C	1.518489	-0.235059	-0.506188
C37	C	1.518522	-0.116754	-0.506206
C38	C	1.585744	-0.444452	-0.951834
C39	C	1.585762	-0.444407	-1.061559
C40	C	1.451336	-0.580534	-1.061518
C41	C	1.451314	-0.580574	-0.951796
C42	C	1.518394	-0.512705	-0.233179
C43	C	1.518564	-0.512449	-0.116403
H44	H	1.648109	-0.945723	-0.376807
H45	H	1.396568	-0.636014	-0.907113
H46	H	0.919489	-0.389356	-0.628276
H47	H	0.919345	-0.636046	-0.384050
H48	H	1.118536	-0.389335	-0.628266
F49	F	1.720303	-1.088009	-0.560439
F50	F	1.572587	-0.936093	-0.708084
F51	F	1.132125	-0.653018	-0.367186
F52	F	1.370680	-1.087814	-0.653992
H53	H	1.341623	-0.945766	-0.458598
F54	F	1.464605	-1.088379	-0.304369
F55	F	1.657272	-0.372036	-0.893474
F56	F	1.657314	-0.371951	-1.119959
H57	H	1.396619	-0.635932	-1.106181
