data_functionalizedCrystal
_audit_creation_method	'MofGen! by Chris Wilmer'
_symmetry_space_group_name_H-M	'P1'
_symmetry_Int_Tables_number	1
_symmetry_cell_setting	triclinic
loop_
_symmetry_equiv_pos_as_xyz
  x,y,z
_cell_length_a	8.559649
_cell_length_b	8.559649
_cell_length_c	7.088638
_cell_angle_alpha	84.664720
_cell_angle_beta	84.666224
_cell_angle_gamma	110.221336
loop_
_atom_site_label
_atom_site_type_symbol
_atom_site_fract_x
_atom_site_fract_y
_atom_site_fract_z
O1	O	-2.145576	-0.073745	0.158964
O2	O	-1.670092	0.010035	0.158972
O3	O	-1.949725	-0.269597	0.158964
O4	O	-1.865944	0.205887	0.158972
O5	O	-1.912307	-0.232174	-0.159025
O6	O	-1.632675	0.047458	-0.159017
O7	O	-2.108159	-0.036323	-0.159025
Cu8	Cu	-1.867000	0.008984	-0.188056
Cu9	Cu	-1.911251	-0.035272	0.188003
O10	O	-1.828527	0.243309	-0.159017
C11	C	-1.591075	0.035095	-0.000022
C12	C	-1.411376	0.053994	-0.000018
C13	C	-1.937365	-0.311195	-0.000027
C14	C	-1.956266	-0.490896	-0.000018
C15	C	-2.187177	-0.061384	-0.000027
C16	C	-2.366877	-0.080284	-0.000018
C17	C	-1.840886	0.284907	-0.000022
C18	C	-1.821988	0.464606	-0.000018
N19	N	-1.835889	0.040110	-0.452555
N20	N	-1.942377	-0.066412	0.452502
H21	H	-1.311989	0.183421	-0.000006
O22	O	-1.667502	0.583140	-0.000348
C23	C	-1.561030	0.584156	-0.165009
H24	H	-1.640175	0.529274	-0.280124
H25	H	-1.474865	0.718744	-0.220282
H26	H	-1.481954	0.505275	-0.127772
O27	O	-1.704214	0.171592	-0.550206
C28	C	-1.601217	0.110521	-0.665983
H29	H	-1.677865	-0.020864	-0.695758
H30	H	-1.550861	0.197813	-0.806836
H31	H	-1.491640	0.105231	-0.588978
O32	O	-2.110556	0.390335	0.000064
C33	C	-2.095709	0.231342	0.000007
H34	H	-1.976119	0.233567	0.060206
H35	H	-2.209149	0.132277	0.092326
H36	H	-2.089857	0.199615	-0.152551
O37	O	-2.073848	-0.198335	-0.450214
C38	C	-2.061332	-0.349906	-0.499152
H39	H	-1.925081	-0.328239	-0.554284
H40	H	-2.105316	-0.449059	-0.367488
H41	H	-2.143479	-0.394986	-0.615252
O42	O	-1.485627	-0.234554	-0.000105
C43	C	-1.644632	-0.219720	-0.000057
H44	H	-1.628239	-0.085963	-0.060258
H45	H	-1.721969	-0.311434	-0.092378
H46	H	-1.712265	-0.249768	0.152499
