data_functionalizedCrystal
_audit_creation_method	'MofGen! by Chris Wilmer'
_symmetry_space_group_name_H-M	'P1'
_symmetry_Int_Tables_number	1
_symmetry_cell_setting	triclinic
loop_
_symmetry_equiv_pos_as_xyz
  x,y,z
_cell_length_a	13.032831
_cell_length_b	19.120786
_cell_length_c	13.033109
_cell_angle_alpha	95.029172
_cell_angle_beta	76.665514
_cell_angle_gamma	84.950973
loop_
_atom_site_label
_atom_site_type_symbol
_atom_site_fract_x
_atom_site_fract_y
_atom_site_fract_z
Zn1	Zn	1.664547	-0.487709	-0.770884
Zn2	Zn	2.164547	0.012291	-0.270884
Zn3	Zn	1.634649	-0.586845	-0.586046
Zn4	Zn	2.134649	-0.086845	-0.086046
Zn5	Zn	1.466832	-0.453966	-0.573235
Zn6	Zn	1.966832	0.046034	-0.073235
Zn7	Zn	1.479668	-0.586784	-0.741094
Zn8	Zn	1.979668	-0.086784	-0.241094
O9	O	1.561424	-0.528826	-0.667814
O10	O	2.061424	-0.028826	-0.167814
O11	O	1.808185	-0.515007	-0.764193
O12	O	2.308185	-0.015007	-0.264193
O13	O	1.594503	-0.555122	-0.436741
O14	O	2.094503	-0.055122	0.063259
O15	O	1.500199	-0.361368	-0.606559
O16	O	2.000199	0.138632	-0.106559
O17	O	1.786220	-0.587842	-0.628393
O18	O	2.286220	-0.087842	-0.128393
O19	O	1.645460	-0.386159	-0.751771
O20	O	2.145460	0.113841	-0.251771
O21	O	1.471209	-0.457496	-0.427329
O22	O	1.971209	0.042504	0.072671
O23	O	1.320930	-0.457437	-0.577673
O24	O	1.820930	0.042563	-0.077673
O25	O	1.522077	-0.587738	-0.892651
O26	O	2.022077	-0.087738	-0.392651
O27	O	1.330361	-0.555018	-0.700999
O28	O	1.830361	-0.055018	-0.200999
O29	O	1.657907	-0.514948	-0.914537
O30	O	2.157907	-0.014948	-0.414537
O31	O	1.606951	-0.683911	-0.599507
O32	O	2.106951	-0.183911	-0.099507
O33	O	1.493087	-0.683866	-0.713421
O34	O	1.993087	-0.183866	-0.213421
C35	C	1.287374	-0.502560	-0.634714
C36	C	1.787374	-0.002560	-0.134714
C37	C	1.170135	-0.491342	-0.620577
C38	C	1.670135	0.008658	-0.120577
C39	C	1.122544	-0.534681	-0.675192
C40	C	1.622544	-0.034681	-0.175192
C41	C	1.001372	-0.523088	-0.660583
C42	C	1.501372	-0.023088	-0.160583
C43	C	1.548199	-0.709063	-0.654648
C44	C	2.048199	-0.209063	-0.154648
C45	C	1.542642	-0.786182	-0.649062
C46	C	2.042642	-0.286182	-0.149062
C47	C	1.615617	-0.835260	-0.722091
C48	C	2.115617	-0.335260	-0.222091
C49	C	1.610391	-0.907722	-0.716844
C50	C	2.110391	-0.407722	-0.216844
C51	C	1.532195	-0.931103	-0.638563
C52	C	2.032195	-0.431103	-0.138563
C53	C	1.459212	-0.882019	-0.565531
C54	C	1.959212	-0.382019	-0.065531
C55	C	1.464434	-0.809559	-0.570783
C56	C	1.964434	-0.309559	-0.070783
C57	C	1.512643	-1.149242	-0.618923
C58	C	2.012643	-0.649242	-0.118923
C59	C	1.507429	-1.221708	-0.613674
C60	C	2.007429	-0.721708	-0.113674
C61	C	1.658607	-1.247405	-0.764989
C62	C	2.158607	-0.747405	-0.264989
C63	C	1.663826	-1.174943	-0.770231
C64	C	2.163826	-0.674943	-0.270231
C65	C	1.590840	-1.125865	-0.697202
C66	C	2.090840	-0.625865	-0.197202
C67	C	1.526853	-1.005170	-0.633196
C68	C	2.026853	-0.505170	-0.133196
C69	C	1.596177	-1.051800	-0.702575
C70	C	2.096177	-0.551800	-0.202575
C71	C	1.836545	-0.555195	-0.701045
C72	C	2.336545	-0.055195	-0.201045
C73	C	1.953785	-0.566432	-0.715206
C74	C	2.453785	-0.066432	-0.215206
C75	C	1.594759	-0.555100	-0.942936
C76	C	2.094759	-0.055100	-0.442936
C77	C	1.608964	-0.566296	-1.060177
C78	C	2.108964	-0.066296	-0.560177
C79	C	1.574732	-0.347890	-0.681059
C80	C	2.074732	0.152110	-0.181059
C81	C	1.580404	-0.270786	-0.686703
C82	C	2.080404	0.229214	-0.186703
C83	C	1.554294	-0.522985	-1.107789
C84	C	2.054294	-0.022985	-0.607789
C85	C	1.568974	-0.534556	-1.228964
C86	C	2.068974	-0.034556	-0.728964
C87	C	1.528283	-0.502610	-0.393774
C88	C	2.028283	-0.002610	0.106226
C89	C	1.514296	-0.491238	-0.276573
C90	C	2.014296	0.008762	0.223427
H91	H	1.002743	-0.612119	-0.772791
H92	H	1.502743	-0.112119	-0.272791
H93	H	1.666637	-0.611944	-1.109122
H94	H	2.166637	-0.111944	-0.609122
H95	H	1.718027	-1.287371	-0.824446
H96	H	2.218027	-0.787371	-0.324446
H97	H	1.463188	-1.024215	-0.569456
H98	H	1.963188	-0.524215	-0.069456
H99	H	0.952415	-0.477396	-0.603009
H100	H	1.452415	0.022604	-0.103009
H101	H	1.171507	-0.580365	-0.732771
H102	H	1.671507	-0.080365	-0.232771
H103	H	1.121174	-0.445654	-0.563007
H104	H	1.621174	0.054346	-0.063007
H105	H	1.405009	-0.769599	-0.511317
H106	H	1.905009	-0.269599	-0.011317
H107	H	1.496615	-0.477340	-1.058843
H108	H	1.996615	0.022660	-0.558843
H109	H	1.395539	-0.901062	-0.501796
H110	H	1.895539	-0.401062	-0.001796
H111	H	1.659842	-1.032761	-0.766315
H112	H	2.159842	-0.532761	-0.266315
H113	H	1.679297	-0.816229	-0.785832
H114	H	2.179297	-0.316229	-0.285832
H115	H	1.669822	-0.947679	-0.776304
H116	H	2.169822	-0.447679	-0.276304
H117	H	1.727500	-1.155908	-0.833973
H118	H	2.227500	-0.655908	-0.333973
H119	H	1.626651	-0.580206	-1.277905
H120	H	2.126651	-0.080206	-0.777905
H121	H	1.443747	-1.240741	-0.549927
H122	H	1.943747	-0.740741	-0.049927
H123	H	1.456616	-0.445589	-1.227632
H124	H	1.956616	0.054411	-0.727632
H125	H	1.453217	-1.109288	-0.559459
H126	H	1.953217	-0.609288	-0.059459
