data_functionalizedCrystal
_audit_creation_method	'MofGen! by Chris Wilmer'
_symmetry_space_group_name_H-M	'P1'
_symmetry_Int_Tables_number	1
_symmetry_cell_setting	triclinic
loop_
_symmetry_equiv_pos_as_xyz
  x,y,z
_cell_length_a	21.606444
_cell_length_b	18.878441
_cell_length_c	21.606444
_cell_angle_alpha	60.003386
_cell_angle_beta	59.999875
_cell_angle_gamma	89.999888
loop_
_atom_site_label
_atom_site_type_symbol
_atom_site_fract_x
_atom_site_fract_y
_atom_site_fract_z
Zr1	Zr	0.596214	-0.092956	0.677470
O2	O	0.497391	-0.206050	0.806581
O3	O	0.626510	-0.058290	0.548354
O4	O	0.626509	-0.206060	0.677468
O5	O	0.497391	0.058288	0.677471
O6	O	0.728359	-0.206064	0.677472
O7	O	0.497392	-0.058279	0.677467
O8	O	0.728360	0.058270	0.446512
O9	O	0.497390	-0.206046	0.908432
O10	O	0.715439	-0.043504	0.601467
O11	O	0.639429	0.043492	0.601466
O12	O	0.639428	-0.130488	0.753481
O13	O	0.563419	-0.043492	0.753481
Zr14	Zr	0.758652	0.092950	0.677483
Zr15	Zr	0.758653	-0.092962	0.677477
Zr16	Zr	0.596214	0.092957	0.677476
Zr17	Zr	0.596213	-0.092950	0.839911
Zr18	Zr	0.758654	0.092944	0.515043
O19	O	0.728357	0.058284	0.806599
O20	O	0.728358	-0.206060	0.806591
O21	O	0.497390	0.058293	0.806589
O22	O	0.857476	0.206044	0.548372
O23	O	0.857477	-0.058299	0.548364
O24	O	0.626509	0.206054	0.548363
O25	O	0.857475	-0.058294	0.677483
O26	O	0.728357	0.206054	0.677485
O27	O	0.626508	0.206059	0.677481
O28	O	0.857475	0.058274	0.677486
O29	O	0.626507	-0.206052	0.908437
O30	O	0.728360	0.206046	0.446516
O31	O	0.857477	0.206040	0.446522
O32	O	0.857477	0.058265	0.446517
O33	O	0.497389	-0.058271	0.908436
O34	O	0.626506	-0.058276	0.908442
O35	O	0.715438	0.130483	0.601472
O36	O	0.791448	0.043486	0.601473
O37	O	0.715437	-0.043498	0.753487
O38	O	0.639428	0.043498	0.753487
C39	C	0.474247	0.000006	0.677468
C40	C	0.405288	0.000008	0.677465
C41	C	0.677435	-0.000010	0.474289
C42	C	0.677436	-0.000013	0.405329
C43	C	0.677432	0.232545	0.677484
C44	C	0.677432	0.311470	0.677486
C45	C	0.412565	0.045410	0.598116
C46	C	0.347768	0.045411	0.598118
C47	C	0.275694	0.000004	0.677471
C48	C	0.268418	-0.045399	0.756826
C49	C	0.333215	-0.045394	0.756823
C50	C	0.007100	-0.045418	0.756841
C51	C	-0.057698	-0.045422	0.756839
C52	C	0.021653	0.045387	0.598137
C53	C	0.086450	0.045392	0.598133
C54	C	0.079169	-0.000008	0.677488
C55	C	0.149430	-0.000006	0.677485
C56	C	0.205434	-0.000002	0.677475
C57	C	0.880619	-0.000011	0.677485
C58	C	0.949579	-0.000014	0.677488
C59	C	0.677434	-0.232551	0.677469
C60	C	0.677435	-0.311475	0.677467
C61	C	0.637756	0.303146	0.756835
C62	C	0.637753	0.377307	0.756832
C63	C	0.677430	0.459791	0.677480
C64	C	0.717106	0.468113	0.598124
C65	C	0.717105	0.393953	0.598128
C66	C	0.717108	0.622683	0.598122
C67	C	0.717110	0.696848	0.598118
C68	C	0.637755	0.606037	0.756826
C69	C	0.637754	0.531877	0.756830
C70	C	0.677432	0.540204	0.677475
C71	C	0.717111	-0.045426	0.372931
C72	C	0.717113	-0.045420	0.308131
C73	C	0.677437	-0.000006	0.275734
C74	C	0.637761	0.045412	0.308134
C75	C	0.637763	0.045411	0.372928
C76	C	0.637752	0.045419	0.046825
C77	C	0.637751	0.045415	-0.017972
C78	C	0.717102	-0.045411	-0.017972
C79	C	0.717104	-0.045412	0.046822
C80	C	0.677432	0.000009	0.079213
C81	C	0.677431	0.000004	0.149475
C82	C	0.677433	-0.000005	0.205477
C83	C	0.677431	0.000005	0.880665
C84	C	0.677430	0.000007	0.949625
C85	C	0.880621	-0.000019	0.474297
C86	C	0.949581	-0.000024	0.405340
C87	C	0.677434	0.232537	0.474296
C88	C	0.677435	0.311459	0.405338
C89	C	0.880620	0.232529	0.474305
C90	C	0.949580	0.311448	0.405350
C91	C	0.474246	-0.232535	0.880649
C92	C	0.405286	-0.311454	0.949603
C93	C	0.474245	0.000013	0.880656
C94	C	0.405285	0.000018	0.949613
C95	C	0.677432	-0.232543	0.880657
C96	C	0.677432	-0.311465	0.949615
C97	C	0.942290	-0.045443	0.372954
C98	C	1.007079	-0.045465	0.308170
C99	C	1.079159	-0.000064	0.275770
C100	C	1.086449	0.045356	0.308162
C101	C	1.021661	0.045373	0.372949
C102	C	0.717111	0.393938	0.372958
C103	C	0.717108	0.468101	0.308174
C104	C	0.677434	0.459783	0.275767
C105	C	0.637753	0.377296	0.308153
C106	C	0.637751	0.303135	0.372941
C107	C	1.021647	0.303098	0.372968
C108	C	1.086449	0.377244	0.308187
C109	C	1.079181	0.459739	0.275784
C110	C	1.007106	0.468087	0.308172
C111	C	0.942306	0.393942	0.372957
C112	C	0.333219	-0.303104	0.981993
C113	C	0.268418	-0.377250	1.046794
C114	C	0.275686	-0.459745	1.079201
C115	C	0.347761	-0.468093	1.046809
C116	C	0.412560	-0.393948	0.982013
C117	C	0.412577	0.045429	0.982006
C118	C	0.347787	0.045431	1.046808
C119	C	0.275707	0.000027	1.079211
C120	C	0.268417	-0.045389	1.046815
C121	C	0.333206	-0.045396	0.982019
C122	C	0.717114	-0.303120	0.982002
C123	C	0.717129	-0.377268	1.046786
C124	C	0.677456	-0.459761	1.079187
C125	C	0.637772	-0.468105	1.046794
C126	C	0.637763	-0.393957	0.982007
H127	H	0.353700	0.082383	0.533504
N128	N	0.594968	0.368332	0.273191
H129	H	0.600999	0.427832	0.227232
H130	H	0.615809	0.335547	0.246347
N131	N	1.149082	0.539699	0.205898
H132	H	1.149118	0.575386	0.152128
H133	H	1.149088	0.575336	0.228509
N134	N	0.759908	0.631671	0.512529
H135	H	0.799834	0.602924	0.508997
H136	H	0.723471	0.602940	0.509037
H137	H	0.605445	-0.400764	0.955645
H138	H	0.209738	-0.370436	1.073157
H139	H	0.605472	-0.535281	1.073185
N140	N	0.205789	-0.539710	1.149075
H141	H	0.221323	-0.593242	1.164692
H142	H	0.174633	-0.539654	1.202789
N143	N	0.594966	0.094411	-0.052929
H144	H	0.555034	0.052770	-0.041655
H145	H	0.569885	0.123188	-0.022566
N146	N	1.164192	0.094336	0.273205
H147	H	1.170277	0.070530	0.322627
H148	H	1.204078	0.087420	0.227232
H149	H	1.027608	0.082363	0.399310
H150	H	0.605446	0.599259	0.821440
H151	H	0.605445	0.235980	0.399296
H152	H	0.749409	-0.082393	-0.044355
H153	H	0.327285	-0.082354	0.821437
N154	N	0.759908	0.402921	0.407901
H155	H	0.785036	0.466430	0.377553
H156	H	0.723476	0.374131	0.472943
H157	H	0.749424	0.535258	0.281813
N158	N	0.594952	0.094401	0.081757
H159	H	0.555024	0.052757	0.146796
H160	H	0.631389	0.140101	0.070422
N161	N	0.677441	0.539772	0.205884
H162	H	0.654864	0.575465	0.228438
H163	H	0.731198	0.575387	0.152152
H164	H	0.353669	-0.535269	1.073202
N165	N	0.594975	0.214183	0.842424
H166	H	0.569842	0.220166	0.892690
H167	H	0.555085	0.181426	0.845890
H168	H	0.749416	-0.082411	0.399309
H169	H	0.222959	0.000039	1.131972
H170	H	1.027579	0.235933	0.399341
N171	N	1.164183	0.368238	0.273250
H172	H	1.170249	0.335468	0.322686
H173	H	1.170199	0.335509	0.246350
N174	N	0.999273	0.557066	0.273218
H175	H	1.051263	0.602762	0.227262
H176	H	0.970630	0.563941	0.246373
H177	H	0.883628	0.400753	0.399313
H178	H	0.327287	-0.235939	0.955611
N179	N	0.594967	0.368330	0.842416
H180	H	0.569838	0.304824	0.892685
H181	H	0.631406	0.397126	0.845862
N182	N	0.999203	-0.094442	0.273231
H183	H	1.051180	-0.087573	0.227275
H184	H	0.970539	-0.157941	0.322718
H185	H	0.605451	0.464716	0.821446
H186	H	0.471239	-0.400757	0.955642
N187	N	1.149033	-0.000078	0.205883
H188	H	1.195806	0.035576	0.190266
H189	H	1.148985	-0.061606	0.228488
H190	H	0.471262	0.082408	0.955628
H191	H	0.471248	0.082389	0.533497
N192	N	0.355660	0.094419	1.081739
H193	H	0.411154	0.123186	1.051369
H194	H	0.330503	0.140070	1.070469
H195	H	0.605454	0.082388	0.399308
H196	H	0.209721	-0.082356	1.073207
N197	N	0.325336	-0.094376	0.947084
H198	H	0.269841	-0.123134	0.977447
H199	H	0.350483	-0.052686	0.882044
H200	H	0.749420	-0.235957	0.955631
H201	H	0.749442	-0.370458	1.073154
N202	N	0.164189	0.094369	0.512550
H203	H	0.192844	0.052722	0.509011
H204	H	0.158907	0.123134	0.462328
N205	N	0.677480	-0.539724	1.149061
H206	H	0.654906	-0.539745	1.202820
H207	H	0.646342	-0.593214	1.164608
H208	H	-0.116386	-0.082399	0.821461
N209	N	0.029509	0.094353	0.512543
H210	H	-0.022474	0.087463	0.524581
H211	H	0.058162	0.157856	0.477884
H212	H	0.883605	-0.082424	0.399334
N213	N	-0.000756	-0.094399	0.842427
H214	H	-0.056247	-0.123171	0.892694
H215	H	0.024404	-0.140047	0.845870
H216	H	0.749414	0.764009	0.533502
N217	N	0.190684	-0.094365	0.842416
H218	H	0.150738	-0.087481	0.830379
H219	H	0.184685	-0.157867	0.877070
H220	H	0.749408	0.535278	0.533514
H221	H	0.749420	-0.082397	0.281753
N222	N	0.759897	0.402926	0.512545
H223	H	0.785035	0.466432	0.462274
H224	H	0.799785	0.374133	0.509092
H225	H	0.749410	-0.082396	0.073201
H226	H	0.605460	0.082394	0.281747
