data_functionalizedCrystal
_audit_creation_method	'MofGen! by Chris Wilmer'
_symmetry_space_group_name_H-M	'P1'
_symmetry_Int_Tables_number	1
_symmetry_cell_setting	triclinic
loop_
_symmetry_equiv_pos_as_xyz
  x,y,z
_cell_length_a	10.654562
_cell_length_b	10.540510
_cell_length_c	9.130313
_cell_angle_alpha	90.001199
_cell_angle_beta	89.996930
_cell_angle_gamma	84.501707
loop_
_atom_site_label
_atom_site_type_symbol
_atom_site_fract_x
_atom_site_fract_y
_atom_site_fract_z
O1	O	1.667869	0.178374	-0.121887
O2	O	1.302396	0.195345	-0.121868
O3	O	1.493490	0.002148	-0.121877
O4	O	1.476775	0.371571	-0.121878
O5	O	1.493488	0.002153	0.121721
O6	O	1.302394	0.195350	0.121731
O7	O	1.667866	0.178379	0.121712
Cu8	Cu	1.485130	0.186865	0.143964
Cu9	Cu	1.485133	0.186859	-0.144120
O10	O	1.476773	0.371576	0.121721
C11	C	1.255597	0.194098	-0.000066
C12	C	1.116154	0.190360	-0.000059
C13	C	1.050621	0.188619	0.132715
C14	C	0.919598	0.185117	0.132691
C15	C	0.919651	0.185101	-0.132894
C16	C	1.050673	0.188595	-0.132868
C17	C	1.050589	0.188633	0.286049
C18	C	0.919566	0.185131	0.286024
C19	C	1.492243	-0.045153	-0.000081
C20	C	1.488517	-0.186101	-0.000090
C21	C	1.621269	-0.403599	0.000461
C22	C	1.625244	-0.257004	-0.000095
C23	C	1.418527	-0.230841	-0.139190
C24	C	1.415520	-0.377601	-0.139299
C25	C	1.412670	-0.377403	0.137719
C26	C	1.419155	-0.231064	0.139550
C27	C	1.714666	0.179626	-0.000093
C28	C	1.854109	0.183364	-0.000110
C29	C	1.478019	0.418877	-0.000079
C30	C	1.481746	0.559825	-0.000079
N31	N	1.485137	0.186869	0.346586
N32	N	1.485135	0.186845	-0.346743
C33	C	1.569775	0.101350	0.423234
C34	C	1.569772	0.101335	0.576571
C35	C	1.400488	0.272368	0.576599
C36	C	1.400487	0.272376	0.423265
C37	C	1.667514	0.002610	0.423220
C38	C	1.667510	0.002595	0.576556
H39	H	1.680006	-0.227675	0.099615
H40	H	1.456119	-0.419596	0.243158
C41	C	1.273994	-0.407279	0.138999
H42	H	1.258218	-0.457758	0.056014
H43	H	1.220433	-0.329906	0.135944
H44	H	1.257788	-0.452633	0.225817
C45	C	1.113068	0.070124	0.365583
H46	H	1.201978	0.072508	0.365608
H47	H	1.092364	-0.004577	0.316545
H48	H	1.083419	0.069345	0.463678
H49	H	1.470083	-0.202466	0.242455
H50	H	1.764027	0.024350	0.618168
C51	C	0.857051	0.303648	0.365530
H52	H	0.768141	0.301258	0.365524
H53	H	0.877767	0.378345	0.316496
H54	H	0.886663	0.304439	0.463636
H55	H	1.331567	0.341984	0.639047
C56	C	1.484186	-0.189197	-0.279049
H57	H	1.441133	-0.216710	-0.362642
H58	H	1.569050	-0.226219	-0.280301
H59	H	1.482863	-0.098959	-0.280493
C60	C	1.692820	-0.462369	-0.133552
H61	H	1.777031	-0.439807	-0.132382
H62	H	1.652092	-0.431050	-0.220656
H63	H	1.693496	-0.552516	-0.130280
H64	H	1.331557	0.342000	0.360859
C65	C	1.480143	-0.431966	-0.279761
H66	H	1.478874	-0.521959	-0.281069
H67	H	1.564973	-0.411317	-0.281931
H68	H	1.436431	-0.396170	-0.362947
C69	C	1.284309	-0.164732	0.150920
H70	H	1.268471	-0.108506	0.070287
H71	H	1.275716	-0.117717	0.239705
H72	H	1.225541	-0.227053	0.149751
C73	C	1.638504	-0.129195	0.366985
H74	H	1.626562	-0.183405	0.447910
H75	H	1.706990	-0.165265	0.309175
H76	H	1.564040	-0.120226	0.309191
H77	H	1.674535	-0.445568	0.100217
C78	C	1.699640	-0.218646	-0.135044
H79	H	1.727538	-0.292698	-0.189747
H80	H	1.770484	-0.177346	-0.104038
H81	H	1.646778	-0.162241	-0.194627
H82	H	1.758705	0.033533	0.375656
C83	C	1.122761	0.190507	-0.278915
H84	H	1.210172	0.192832	-0.259883
H85	H	1.092386	0.263827	-0.333486
H86	H	1.110213	0.116022	-0.333473
H87	H	0.889955	0.092549	0.333604
H88	H	0.866320	0.183665	-0.241023
H89	H	1.636975	-0.089614	0.624105
H90	H	1.080186	0.281219	0.333625
H91	H	1.317871	-0.183421	-0.144357
C92	C	1.277380	-0.408631	-0.147863
H93	H	1.223346	-0.331570	-0.151270
H94	H	1.257863	-0.456318	-0.063988
H95	H	1.265707	-0.457130	-0.233651
