data_functionalizedCrystal
_audit_creation_method	'MofGen! by Chris Wilmer'
_symmetry_space_group_name_H-M	'P1'
_symmetry_Int_Tables_number	1
_symmetry_cell_setting	triclinic
loop_
_symmetry_equiv_pos_as_xyz
  x,y,z
_cell_length_a	11.169417
_cell_length_b	18.050590
_cell_length_c	11.169417
_cell_angle_alpha	90.011088
_cell_angle_beta	90.003400
_cell_angle_gamma	90.019802
loop_
_atom_site_label
_atom_site_type_symbol
_atom_site_fract_x
_atom_site_fract_y
_atom_site_fract_z
Zn1	Zn	1.834703	-0.295772	0.678485
Zn2	Zn	1.834620	-0.419928	0.477782
Zn3	Zn	1.634045	-0.295759	0.477821
Zn4	Zn	1.633968	-0.419927	0.678428
O5	O	1.734334	-0.357847	0.578129
O6	O	2.002642	-0.312247	0.651869
O7	O	1.808011	-0.403453	0.309838
O8	O	1.660730	-0.191836	0.504479
O9	O	2.002581	-0.403464	0.504414
O10	O	1.808152	-0.191845	0.651906
O11	O	1.660650	-0.312226	0.309866
O12	O	1.466085	-0.312225	0.504424
O13	O	1.660598	-0.403462	0.846385
O14	O	1.466028	-0.403450	0.651809
O15	O	1.808077	-0.312246	0.846427
O16	O	1.807936	-0.523853	0.504359
O17	O	1.660517	-0.523852	0.651772
C18	C	1.422509	-0.357837	0.578115
C19	C	1.289109	-0.357850	0.578138
C20	C	1.734242	-0.550799	0.578081
C21	C	1.734312	-0.633345	0.578101
C22	C	1.814645	-0.832769	0.498049
C23	C	1.843938	-0.882121	0.607585
C24	C	1.734380	-0.784475	0.578149
C25	C	1.705209	-0.882204	0.468662
C26	C	1.734448	-0.930460	0.578185
C27	C	1.763730	-0.832740	0.687742
C28	C	1.624950	-0.832818	0.548745
C29	C	1.654201	-0.882149	0.658357
C30	C	1.734344	-0.700377	0.578126
C31	C	1.734484	-1.014556	0.578220
C32	C	2.047376	-0.357857	0.578144
C33	C	2.180776	-0.357862	0.578150
C34	C	1.734338	-0.357855	0.891171
C35	C	1.734340	-0.357859	1.024571
C36	C	1.734459	-0.164141	0.578203
C37	C	1.734513	-0.081595	0.578235
C38	C	1.734325	-0.357857	1.266304
C39	C	1.734335	-0.357862	1.132904
H40	H	1.882545	-0.811087	0.430382
H41	H	1.680508	-0.903931	0.376056
H42	H	1.788339	-0.811105	0.780428
H43	H	1.936510	-0.903780	0.632478
N44	N	1.564309	-0.910679	0.748192
H45	H	1.586518	-0.892582	0.830834
H46	H	1.564349	-0.966627	0.747135
H47	H	1.532404	-0.811144	0.523820
