data_functionalizedCrystal
_audit_creation_method	'MofGen! by Chris Wilmer'
_symmetry_space_group_name_H-M	'P1'
_symmetry_Int_Tables_number	1
_symmetry_cell_setting	triclinic
loop_
_symmetry_equiv_pos_as_xyz
  x,y,z
_cell_length_a	18.215407
_cell_length_b	19.121063
_cell_length_c	18.215398
_cell_angle_alpha	87.587650
_cell_angle_beta	90.019464
_cell_angle_gamma	92.469446
loop_
_atom_site_label
_atom_site_type_symbol
_atom_site_fract_x
_atom_site_fract_y
_atom_site_fract_z
Zn1	Zn	1.112556	-0.279631	0.428597
Zn2	Zn	1.107209	-0.397081	0.310773
Zn3	Zn	0.989488	-0.279649	0.305545
Zn4	Zn	0.984200	-0.397047	0.433796
O5	O	1.048363	-0.338352	0.369678
O6	O	1.214830	-0.295218	0.412979
O7	O	1.091569	-0.381525	0.207096
O8	O	1.010264	-0.181362	0.317504
O9	O	1.210902	-0.381508	0.326414
O10	O	1.100681	-0.181349	0.407910
O11	O	1.005080	-0.295248	0.203255
O12	O	0.885803	-0.295215	0.322546
O13	O	1.001251	-0.381450	0.536090
O14	O	0.881917	-0.381467	0.416771
O15	O	1.095553	-0.295185	0.532270
O16	O	1.086441	-0.495361	0.331456
O17	O	0.996066	-0.495337	0.421841
C18	C	0.857157	-0.338340	0.369656
C19	C	0.775358	-0.338352	0.369665
C20	C	0.585157	-0.383334	0.418672
C21	C	0.508298	-0.383336	0.418682
C22	C	0.512321	-0.293383	0.320700
C23	C	0.589178	-0.293378	0.320694
C24	C	0.625594	-0.338357	0.369680
C25	C	0.471878	-0.338365	0.369694
C26	C	0.388544	-0.338367	0.369704
C27	C	0.708933	-0.338354	0.369671
C28	C	1.040119	-0.520833	0.377796
C29	C	1.036660	-0.598899	0.381293
C30	C	1.082124	-0.635565	0.335917
C31	C	1.078875	-0.708916	0.339211
C32	C	1.030157	-0.745601	0.387878
C33	C	0.984691	-0.708930	0.433259
C34	C	0.987944	-0.635580	0.429968
C35	C	1.017982	-0.967071	0.400169
C36	C	1.014730	-1.040427	0.403454
C37	C	1.108916	-1.040407	0.309407
C38	C	1.112162	-0.967056	0.306117
C39	C	1.066698	-0.930392	0.351501
C40	C	1.026833	-0.820578	0.391244
C41	C	1.070026	-0.855416	0.348138
C42	C	1.240315	-0.338365	0.369700
C43	C	1.322114	-0.338370	0.369709
C44	C	1.048409	-0.338312	0.561629
C45	C	1.048428	-0.338294	0.643427
C46	C	1.056659	-0.155158	0.361544
C47	C	1.060194	-0.077092	0.358078
C48	C	1.048363	-0.338342	0.178471
C49	C	1.048495	-0.338161	0.096664
C50	C	1.093500	-0.383132	0.910485
C51	C	1.093488	-0.383157	0.833627
C52	C	1.003417	-0.293321	0.829611
C53	C	1.003426	-0.293301	0.906468
C54	C	1.048472	-0.338205	0.946903
C55	C	1.048451	-0.338250	0.793189
C56	C	1.048437	-0.338276	0.709856
C57	C	1.048485	-0.338180	1.030241
H58	H	0.622104	-0.256748	0.280799
O59	O	0.943746	-0.599886	0.473941
C60	C	0.848020	-0.517176	0.480048
C61	C	0.898040	-0.557541	0.430158
H62	H	0.811044	-0.482942	0.444669
H63	H	0.883275	-0.482739	0.517004
H64	H	0.812675	-0.556009	0.515412
H65	H	0.933394	-0.518759	0.394748
H66	H	0.862743	-0.591988	0.393251
O67	O	0.979488	-0.856106	0.438580
C68	C	0.886375	-0.848394	0.531479
C69	C	0.939969	-0.808069	0.477916
H70	H	0.854399	-0.809573	0.563286
H71	H	0.918589	-0.882662	0.571577
H72	H	0.846425	-0.882808	0.499185
H73	H	0.979931	-0.773616	0.510149
H74	H	0.907708	-0.773844	0.437818
O75	O	0.967487	-1.076035	0.450839
C76	C	0.930684	-1.098413	0.576992
C77	C	0.984240	-1.058054	0.523417
H78	H	0.944199	-1.083879	0.635682
H79	H	0.936173	-1.157143	0.571606
H80	H	0.871989	-1.084056	0.563340
H81	H	1.042957	-1.072352	0.537035
H82	H	0.978687	-0.999334	0.528814
H83	H	0.966744	-0.256761	0.796680
O84	O	1.137271	-0.426821	0.949653
C85	C	1.226636	-0.515901	0.945520
C86	C	1.177089	-0.466468	0.901076
H87	H	1.258853	-0.547959	0.906263
H88	H	1.191225	-0.552663	0.983109
H89	H	1.266550	-0.483636	0.980097
H90	H	1.137168	-0.498677	0.866457
H91	H	1.212546	-0.429705	0.863533
H92	H	1.115897	-0.738766	0.302260
H93	H	1.151831	-0.937189	0.266489
H94	H	1.130154	-0.419740	0.803980
O95	O	1.153057	-1.076132	0.265407
C96	C	1.189774	-1.189123	0.228775
C97	C	1.139747	-1.148754	0.278654
H98	H	1.179019	-1.247844	0.239456
H99	H	1.249760	-1.174693	0.241116
H100	H	1.177540	-1.174709	0.168780
H101	H	1.151914	-1.163146	0.338665
H102	H	1.079775	-1.163186	0.266250
O103	O	0.937447	-0.744533	0.480639
C104	C	0.900631	-0.766897	0.606790
C105	C	0.954195	-0.726547	0.553216
H106	H	0.914143	-0.752359	0.665479
H107	H	0.906116	-0.825629	0.601411
H108	H	0.841939	-0.752537	0.593131
H109	H	1.012910	-0.740848	0.566841
H110	H	0.948646	-0.667825	0.558606
O111	O	1.117244	-0.819752	0.300784
C112	C	1.130859	-0.736950	0.197756
C113	C	1.077306	-0.777317	0.251329
H114	H	1.098591	-0.702620	0.157768
H115	H	1.162786	-0.775720	0.165827
H116	H	1.170858	-0.702589	0.230053
H117	H	1.037262	-0.811679	0.219088
H118	H	1.045433	-0.738509	0.283258
H119	H	0.966755	-0.256715	0.936120
H120	H	0.614805	-0.419957	0.458561
H121	H	0.475377	-0.419960	0.458577
H122	H	0.980962	-0.937225	0.437121
H123	H	1.121792	-0.605701	0.296284
O124	O	0.476828	-0.249760	0.273143
C125	C	0.360209	-0.209866	0.229760
C126	C	0.400308	-0.259318	0.283646
H127	H	0.298337	-0.217567	0.238243
H128	H	0.374688	-0.222123	0.170925
H129	H	0.377927	-0.153257	0.240255
H130	H	0.382613	-0.315944	0.273218
H131	H	0.385829	-0.247001	0.342463
