data_functionalizedCrystal
_audit_creation_method	'MofGen! by Chris Wilmer'
_symmetry_space_group_name_H-M	'P1'
_symmetry_Int_Tables_number	1
_symmetry_cell_setting	triclinic
loop_
_symmetry_equiv_pos_as_xyz
  x,y,z
_cell_length_a	20.919309
_cell_length_b	17.917603
_cell_length_c	17.917603
_cell_angle_alpha	60.138055
_cell_angle_beta	90.204349
_cell_angle_gamma	60.553501
loop_
_atom_site_label
_atom_site_type_symbol
_atom_site_fract_x
_atom_site_fract_y
_atom_site_fract_z
Zr1	Zr	0.676095	0.748213	-0.097077
O2	O	0.581024	0.901492	-0.222110
O3	O	0.700696	0.593851	-0.054262
O4	O	0.712700	0.734662	-0.209103
O5	O	0.564720	0.771748	0.049769
O6	O	0.821736	0.725204	-0.203945
O7	O	0.569021	0.760681	-0.067270
O8	O	0.800264	0.473319	0.073037
O9	O	0.586193	1.023633	-0.227213
O10	O	0.798050	0.650685	-0.037572
O11	O	0.713468	0.666002	0.045923
O12	O	0.727601	0.831789	-0.136382
O13	O	0.643019	0.847106	-0.052887
Zr14	Zr	0.843137	0.750779	0.097812
Zr15	Zr	0.849995	0.733129	-0.088851
Zr16	Zr	0.669237	0.765863	0.089585
Zr17	Zr	0.684338	0.943013	-0.105215
Zr18	Zr	0.834894	0.555978	0.105950
O19	O	0.818536	0.905140	0.054997
O20	O	0.828288	0.880045	-0.210414
O21	O	0.571272	0.926588	0.043300
O22	O	0.938208	0.597499	0.222845
O23	O	0.947960	0.572404	-0.042565
O24	O	0.690944	0.618947	0.211148
O25	O	0.954512	0.727244	-0.049034
O26	O	0.806532	0.764329	0.209837
O27	O	0.697496	0.773787	0.204679
O28	O	0.950211	0.738310	0.068004
O29	O	0.724420	1.011643	-0.220674
O30	O	0.794812	0.487349	0.221409
O31	O	0.933039	0.475359	0.227948
O32	O	0.938491	0.461329	0.079576
O33	O	0.580741	1.037662	-0.078841
O34	O	0.718968	1.025672	-0.072302
O35	O	0.791631	0.667203	0.137117
O36	O	0.876213	0.651886	0.053622
O37	O	0.805764	0.832989	-0.045188
O38	O	0.721182	0.848306	0.038307
C39	C	0.749306	0.505830	0.010547
C40	C	0.745806	0.423133	0.014002
C41	C	0.739413	0.271720	0.020311
C42	C	0.779817	0.227267	-0.019574
C43	C	0.776260	0.143016	-0.016064
C44	C	0.742969	0.355979	0.016802
C45	C	0.542093	0.768364	-0.009923
C46	C	0.468268	0.774767	-0.013415
C47	C	0.470357	0.683243	0.036517
C48	C	0.400988	0.689267	0.033234
C49	C	0.329531	0.786814	-0.019988
C50	C	0.327445	0.878345	-0.069922
C51	C	0.396813	0.872321	-0.066633
C52	C	0.118245	0.809731	-0.032495
C53	C	0.048875	0.815748	-0.035783
C54	C	0.122423	0.626669	0.067375
C55	C	0.191789	0.620654	0.070655
C56	C	0.189697	0.712185	0.020725
C57	C	0.258624	0.792973	-0.023348
C58	C	0.260603	0.706026	0.024090
C59	C	0.977138	0.730628	0.010657
C60	C	1.050964	0.724224	0.014150
C61	C	0.768195	0.727418	-0.233119
C62	C	0.771107	0.719926	-0.312362
C63	C	0.769926	0.993161	-0.009812
C64	C	0.773426	1.075859	-0.013267
C65	C	0.776442	0.706238	-0.457465
C66	C	0.742792	0.792749	-0.541803
C67	C	0.745760	0.785133	-0.622543
C68	C	0.773474	0.713852	-0.376716
C69	C	0.751037	0.771573	0.233854
C70	C	0.748125	0.779066	0.313097
C71	C	0.966828	0.486962	0.020837
C72	C	1.037154	0.397861	0.027784
C73	C	0.740726	0.527908	0.244033
C74	C	0.734315	0.452703	0.326732
C75	C	0.958249	0.509040	0.254323
C76	C	1.025663	0.427431	0.340514
C77	C	0.560983	0.989952	-0.253589
C78	C	0.493569	1.071560	-0.339779
C79	C	0.552404	1.012029	-0.020102
C80	C	0.482078	1.101130	-0.027050
C81	C	0.778505	0.971084	-0.243299
C82	C	0.784916	1.046289	-0.325997
C83	C	1.029380	0.355391	-0.016563
C84	C	1.095453	0.271680	-0.010054
C85	C	1.169299	0.230437	0.040809
C86	C	1.177072	0.272915	0.085157
C87	C	1.111000	0.356629	0.078642
C88	C	0.772105	0.418013	0.413177
C89	C	0.766078	0.347362	0.490888
C90	C	0.722266	0.311396	0.482150
C91	C	0.684472	0.346093	0.395695
C92	C	0.690495	0.416748	0.317986
C93	C	1.101480	0.381111	0.337406
C94	C	1.164830	0.304441	0.418384
C95	C	1.152362	0.274087	0.502468
C96	C	1.076537	0.320415	0.505573
C97	C	1.013189	0.397089	0.424596
C98	C	0.417753	1.117890	-0.336672
C99	C	0.354403	1.194584	-0.417651
C100	C	0.366872	1.224942	-0.501735
C101	C	0.442696	1.178609	-0.504840
C102	C	0.506044	1.101921	-0.423863
C103	C	0.489853	1.143608	0.017290
C104	C	0.423781	1.227338	0.010759
C105	C	0.349935	1.268584	-0.040107
C106	C	0.342162	1.226102	-0.084451
C107	C	0.408233	1.142379	-0.077925
C108	C	0.828735	1.082232	-0.317230
C109	C	0.834773	1.152884	-0.394926
C110	C	0.796989	1.187597	-0.481387
C111	C	0.753169	1.151647	-0.490152
C112	C	0.747136	1.080990	-0.412457
H113	H	0.402695	0.614738	0.073895
H114	H	0.702153	0.246506	0.057091
N115	N	0.701673	0.898434	-0.557127
H116	H	0.645210	0.942112	-0.594544
H117	H	0.726968	0.934948	-0.590639
N118	N	0.819353	0.456805	0.422618
H119	H	0.817441	0.506831	0.360278
H120	H	0.875033	0.395424	0.460839
N121	N	0.637225	0.307290	0.386279
H122	H	0.639154	0.257262	0.448629
H123	H	0.659383	0.270050	0.355764
N124	N	1.220691	0.191387	0.589805
H125	H	1.270610	0.166653	0.575069
H126	H	1.216616	0.130349	0.628300
N127	N	0.869493	1.044791	-0.223978
H128	H	0.849473	1.106662	-0.220529
H129	H	0.927285	1.008032	-0.212903
N130	N	1.256719	0.228419	0.140028
H131	H	1.266620	0.284863	0.113957
H132	H	1.297341	0.168927	0.137411
H133	H	0.807477	0.626459	-0.445900
N134	N	0.829174	0.260660	-0.068307
H135	H	0.869780	0.247398	-0.023877
H136	H	0.795111	0.337703	-0.119259
H137	H	0.969257	0.388969	-0.057992
H138	H	0.796859	0.319120	0.561276
N139	N	1.087059	0.225876	-0.057891
H140	H	1.030250	0.264704	-0.091091
H141	H	1.109152	0.149495	-0.011501
N142	N	0.181548	0.898176	-0.080756
H143	H	0.179153	0.934311	-0.146584
H144	H	0.175969	0.942532	-0.058816
H145	H	0.549976	1.110033	0.058715
H146	H	0.801908	1.245131	-0.544644
N147	N	1.240559	0.140147	0.047830
H148	H	1.224421	0.119505	0.012017
H149	H	1.268922	0.078666	0.113871
N150	N	1.119390	0.402429	0.126481
H151	H	1.176199	0.363591	0.159690
H152	H	1.090212	0.395565	0.171617
N153	N	0.699861	1.042238	-0.421915
H154	H	0.734445	0.963589	-0.387960
H155	H	0.676846	1.075029	-0.488498
N156	N	0.712415	1.189101	-0.583411
H157	H	0.683737	1.155614	-0.577186
H158	H	0.752057	1.169085	-0.613875
H159	H	0.528536	0.603810	0.079860
H160	H	0.717369	0.253863	0.545433
N161	N	0.649687	0.454219	0.224745
H162	H	0.621007	0.420727	0.231009
H163	H	0.689286	0.434235	0.194225
N164	N	1.114949	0.413826	0.246728
H165	H	1.147208	0.442751	0.239857
H166	H	1.063291	0.469392	0.195943
N167	N	0.268860	0.515441	0.128046
H168	H	0.259657	0.458373	0.159178
H169	H	0.297638	0.512959	0.175510
N170	N	1.246605	0.254480	0.415024
H171	H	1.244885	0.285340	0.349468
H172	H	1.272878	0.176554	0.448640
N173	N	1.063092	0.287663	0.596266
H174	H	1.034704	0.350251	0.599333
H175	H	1.114759	0.232035	0.647035
H176	H	0.315283	1.287387	-0.567666
H177	H	0.567775	1.064199	-0.426403
N178	N	0.124670	0.527958	0.121220
H179	H	0.095915	0.530387	0.166004
H180	H	0.180481	0.465299	0.155378
N181	N	0.931416	0.447041	0.427955
H182	H	0.933137	0.416169	0.493511
H183	H	0.901278	0.433431	0.398174
H184	H	0.407585	1.093178	-0.268214
N185	N	0.882038	1.191645	-0.385451
H186	H	0.859904	1.228928	-0.354964
H187	H	0.880125	1.241626	-0.447810
H188	H	-0.009309	0.895187	-0.079127
N189	N	0.272625	1.244546	-0.414298
H190	H	0.266288	1.280440	-0.383046
H191	H	0.262467	1.188875	-0.379265
N192	N	0.115986	0.908448	-0.086363
H193	H	0.060192	0.971154	-0.120584
H194	H	0.144779	0.905908	-0.131093
N195	N	0.456138	1.211357	-0.595534
H196	H	0.404499	1.266964	-0.646354
H197	H	0.484545	1.148706	-0.598509
N198	N	0.432175	1.273146	0.058592
H199	H	0.488983	1.234300	0.091811
H200	H	0.402988	1.266300	0.103718
H201	H	0.296142	1.336757	-0.045413
N202	N	0.262511	1.270578	-0.139294
H203	H	0.221841	1.330053	-0.136685
H204	H	0.252702	1.214049	-0.113160
H205	H	0.401892	1.107796	-0.114030
H206	H	0.269258	0.957771	-0.113251
H207	H	0.395107	0.946851	-0.107282
H208	H	0.318785	0.626603	0.067427
