data_functionalizedCrystal
_audit_creation_method	'MofGen! by Chris Wilmer'
_symmetry_space_group_name_H-M	'P1'
_symmetry_Int_Tables_number	1
_symmetry_cell_setting	triclinic
loop_
_symmetry_equiv_pos_as_xyz
  x,y,z
_cell_length_a	17.077404
_cell_length_b	21.295417
_cell_length_c	17.077396
_cell_angle_alpha	90.033192
_cell_angle_beta	90.019501
_cell_angle_gamma	90.030732
loop_
_atom_site_label
_atom_site_type_symbol
_atom_site_fract_x
_atom_site_fract_y
_atom_site_fract_z
Zn1	Zn	1.200013	-0.250605	0.443817
Zn2	Zn	1.450013	-0.000605	0.693817
Zn3	Zn	1.700013	0.249395	0.943817
Zn4	Zn	1.950013	0.499395	1.193817
Zn5	Zn	1.199903	-0.355878	0.312540
Zn6	Zn	1.449903	-0.105878	0.562540
Zn7	Zn	1.699903	0.144122	0.812540
Zn8	Zn	1.949903	0.394122	1.062540
Zn9	Zn	1.068745	-0.250628	0.312565
Zn10	Zn	1.318745	-0.000628	0.562565
Zn11	Zn	1.568745	0.249372	0.812565
Zn12	Zn	1.818745	0.499372	1.062565
Zn13	Zn	1.068695	-0.355841	0.443764
Zn14	Zn	1.318695	-0.105841	0.693764
Zn15	Zn	1.568695	0.144159	0.943764
Zn16	Zn	1.818695	0.394159	1.193764
O17	O	1.134339	-0.303238	0.378171
O18	O	1.384339	-0.053238	0.628171
O19	O	1.634339	0.196762	0.878171
O20	O	1.884339	0.446762	1.128171
O21	O	1.309845	-0.264577	0.426415
O22	O	1.559845	-0.014577	0.676415
O23	O	1.809845	0.235423	0.926415
O24	O	2.059845	0.485423	1.176415
O25	O	1.182479	-0.341942	0.202697
O26	O	1.432479	-0.091942	0.452697
O27	O	1.682479	0.158058	0.702697
O28	O	1.932479	0.408058	0.952697
O29	O	1.086225	-0.162535	0.330008
O30	O	1.336225	0.087465	0.580008
O31	O	1.586225	0.337465	0.830008
O32	O	1.836225	0.587465	1.080008
O33	O	1.309764	-0.341920	0.329966
O34	O	1.559764	-0.091920	0.579966
O35	O	1.809764	0.158080	0.829966
O36	O	2.059764	0.408080	1.079966
O37	O	1.182667	-0.162519	0.426439
O38	O	1.432667	0.087481	0.676439
O39	O	1.682667	0.337481	0.926439
O40	O	1.932667	0.587481	1.176439
O41	O	1.086118	-0.264614	0.202715
O42	O	1.336118	-0.014614	0.452715
O43	O	1.586118	0.235386	0.702715
O44	O	1.836118	0.485386	0.952715
O45	O	0.958891	-0.264578	0.329957
O46	O	1.208891	-0.014578	0.579957
O47	O	1.458891	0.235422	0.829957
O48	O	1.708891	0.485422	1.079957
O49	O	1.086140	-0.341857	0.553618
O50	O	1.336140	-0.091857	0.803618
O51	O	1.586140	0.158143	1.053618
O52	O	1.836140	0.408143	1.303618
O53	O	0.958855	-0.341878	0.426348
O54	O	1.208855	-0.091878	0.676348
O55	O	1.458855	0.158122	0.926348
O56	O	1.708855	0.408122	1.176348
O57	O	1.182619	-0.264540	0.553657
O58	O	1.432619	-0.014540	0.803657
O59	O	1.682619	0.235460	1.053657
O60	O	1.932619	0.485460	1.303657
O61	O	1.182431	-0.443963	0.329915
O62	O	1.432431	-0.193963	0.579915
O63	O	1.682431	0.056037	0.829915
O64	O	1.932431	0.306037	1.079915
O65	O	1.086033	-0.443935	0.426324
O66	O	1.336033	-0.193935	0.676324
O67	O	1.586033	0.056065	0.926324
O68	O	1.836033	0.306065	1.176324
C69	C	0.930391	-0.303227	0.378150
C70	C	1.180391	-0.053227	0.628150
C71	C	1.430391	0.196773	0.878150
C72	C	1.680391	0.446773	1.128150
C73	C	0.843141	-0.303237	0.378159
C74	C	1.093141	-0.053237	0.628159
C75	C	1.343141	0.196763	0.878159
C76	C	1.593141	0.446763	1.128159
C77	C	0.802153	-0.343548	0.428270
C78	C	1.052153	-0.093548	0.678270
C79	C	1.302153	0.156452	0.928270
C80	C	1.552153	0.406452	1.178270
C81	C	0.720172	-0.343549	0.428282
C82	C	0.970172	-0.093549	0.678282
C83	C	1.220172	0.156451	0.928282
C84	C	1.470172	0.406451	1.178282
C85	C	0.679182	-0.303242	0.378180
C86	C	0.929182	-0.053242	0.628180
C87	C	1.179182	0.196758	0.878180
C88	C	1.429182	0.446758	1.128180
C89	C	0.720176	-0.262927	0.328067
C90	C	0.970176	-0.012927	0.578067
C91	C	1.220176	0.237073	0.828067
C92	C	1.470176	0.487073	1.078067
C93	C	0.802155	-0.262923	0.328059
C94	C	1.052155	-0.012923	0.578059
C95	C	1.302155	0.237077	0.828059
C96	C	1.552155	0.487077	1.078059
C97	C	0.549306	-0.262940	0.328086
C98	C	0.799306	-0.012940	0.578086
C99	C	1.049306	0.237060	0.828086
C100	C	1.299306	0.487060	1.078086
C101	C	0.467322	-0.262944	0.328093
C102	C	0.717322	-0.012944	0.578093
C103	C	0.967322	0.237056	0.828093
C104	C	1.217322	0.487056	1.078093
C105	C	0.467323	-0.343566	0.428309
C106	C	0.717323	-0.093566	0.678309
C107	C	0.967323	0.156434	0.928309
C108	C	1.217323	0.406434	1.178309
C109	C	0.549302	-0.343562	0.428301
C110	C	0.799302	-0.093562	0.678301
C111	C	1.049302	0.156438	0.928301
C112	C	1.299302	0.406438	1.178301
C113	C	0.590291	-0.303247	0.378187
C114	C	0.840291	-0.053247	0.628187
C115	C	1.090291	0.196753	0.878187
C116	C	1.340291	0.446753	1.128187
C117	C	1.134236	-0.466790	0.378128
C118	C	1.384236	-0.216790	0.628128
C119	C	1.634236	0.033210	0.878128
C120	C	1.884236	0.283210	1.128128
C121	C	1.134264	-0.536758	0.378136
C122	C	1.384264	-0.286758	0.628136
C123	C	1.634264	-0.036758	0.878136
C124	C	1.884264	0.213242	1.128136
C125	C	1.184503	-0.569618	0.327987
C126	C	1.434503	-0.319618	0.577987
C127	C	1.684503	-0.069618	0.827987
C128	C	1.934503	0.180382	1.077987
C129	C	1.184539	-0.635360	0.328004
C130	C	1.434539	-0.385360	0.578004
C131	C	1.684539	-0.135360	0.828004
C132	C	1.934539	0.114640	1.078004
C133	C	1.134323	-0.668240	0.378163
C134	C	1.384323	-0.418240	0.628163
C135	C	1.634323	-0.168240	0.878163
C136	C	1.884323	0.081760	1.128163
C137	C	1.084081	-0.635372	0.428321
C138	C	1.334081	-0.385372	0.678321
C139	C	1.584081	-0.135372	0.928321
C140	C	1.834081	0.114628	1.178321
C141	C	1.084051	-0.569631	0.428308
C142	C	1.334051	-0.319631	0.678308
C143	C	1.584051	-0.069631	0.928308
C144	C	1.834051	0.180369	1.178308
N145	N	1.065655	-0.771506	0.384140
N146	N	1.315655	-0.521506	0.634140
N147	N	1.565655	-0.271506	0.884140
N148	N	1.815655	-0.021506	1.134140
N149	N	1.065685	-0.833958	0.384148
N150	N	1.315685	-0.583958	0.634148
N151	N	1.565685	-0.333958	0.884148
N152	N	1.815685	-0.083958	1.134148
C153	C	1.134411	-0.866315	0.378208
C154	C	1.384411	-0.616315	0.628208
C155	C	1.634411	-0.366315	0.878208
C156	C	1.884411	-0.116315	1.128208
N157	N	1.203107	-0.833862	0.372244
N158	N	1.453107	-0.583862	0.622244
N159	N	1.703107	-0.333862	0.872244
N160	N	1.953107	-0.083862	1.122244
N161	N	1.203076	-0.771405	0.372231
N162	N	1.453076	-0.521405	0.622231
N163	N	1.703076	-0.271405	0.872231
N164	N	1.953076	-0.021405	1.122231
C165	C	1.134351	-0.739526	0.378183
C166	C	1.384351	-0.489526	0.628183
C167	C	1.634351	-0.239526	0.878183
C168	C	1.884351	0.010474	1.128183
C169	C	1.184694	-0.970461	0.328075
C170	C	1.434694	-0.720461	0.578075
C171	C	1.684694	-0.470461	0.828075
C172	C	1.934694	-0.220461	1.078075
C173	C	1.184732	-1.036204	0.328098
C174	C	1.434732	-0.786204	0.578098
C175	C	1.684732	-0.536204	0.828098
C176	C	1.934732	-0.286204	1.078098
C177	C	1.084267	-1.036215	0.428411
C178	C	1.334267	-0.786215	0.678411
C179	C	1.584267	-0.536215	0.928411
C180	C	1.834267	-0.286215	1.178411
C181	C	1.084236	-0.970473	0.428392
C182	C	1.334236	-0.720473	0.678392
C183	C	1.584236	-0.470473	0.928392
C184	C	1.834236	-0.220473	1.178392
C185	C	1.134449	-0.937599	0.378220
C186	C	1.384449	-0.687599	0.628220
C187	C	1.634449	-0.437599	0.878220
C188	C	1.884449	-0.187599	1.128220
C189	C	1.339083	-0.303250	0.378194
C190	C	1.589083	-0.053250	0.628194
C191	C	1.839083	0.196750	0.878194
C192	C	2.089083	0.446750	1.128194
C193	C	1.426333	-0.303255	0.378203
C194	C	1.676333	-0.053255	0.628203
C195	C	1.926333	0.196745	0.878203
C196	C	2.176333	0.446745	1.128203
C197	C	1.134386	-0.303192	0.582916
C198	C	1.384386	-0.053192	0.832916
C199	C	1.634386	0.196808	1.082916
C200	C	1.884386	0.446808	1.332916
C201	C	1.134407	-0.303172	0.670166
C202	C	1.384407	-0.053172	0.920166
C203	C	1.634407	0.196828	1.170166
C204	C	1.884407	0.446828	1.420166
C205	C	1.134464	-0.139048	0.378232
C206	C	1.384464	0.110952	0.628232
C207	C	1.634464	0.360952	0.878232
C208	C	1.884464	0.610952	1.128232
C209	C	1.134517	-0.069080	0.378258
C210	C	1.384517	0.180920	0.628258
C211	C	1.634517	0.430920	0.878258
C212	C	1.884517	0.680920	1.128258
C213	C	1.134337	-0.303239	0.174224
C214	C	1.384337	-0.053239	0.424224
C215	C	1.634337	0.196761	0.674224
C216	C	1.884337	0.446761	0.924224
C217	C	1.134469	-0.303081	0.086974
C218	C	1.384469	-0.053081	0.336974
C219	C	1.634469	0.196919	0.586974
C220	C	1.884469	0.446919	0.836974
C221	C	1.184645	-0.262910	0.711177
C222	C	1.434645	-0.012910	0.961177
C223	C	1.684645	0.237090	1.211177
C224	C	1.934645	0.487090	1.461177
C225	C	1.184654	-0.262889	0.793158
C226	C	1.434654	-0.012889	1.043158
C227	C	1.684654	0.237111	1.293158
C228	C	1.934654	0.487111	1.543158
C229	C	1.134429	-0.303134	0.834125
C230	C	1.384429	-0.053134	1.084125
C231	C	1.634429	0.196866	1.334125
C232	C	1.884429	0.446866	1.584125
C233	C	1.084185	-0.343397	0.793108
C234	C	1.334185	-0.093397	1.043108
C235	C	1.584185	0.156603	1.293108
C236	C	1.834185	0.406603	1.543108
C237	C	1.084172	-0.343415	0.711129
C238	C	1.334172	-0.093415	0.961129
C239	C	1.584172	0.156585	1.211129
C240	C	1.834172	0.406585	1.461129
C241	C	1.084217	-0.343360	0.963978
C242	C	1.334217	-0.093360	1.213978
C243	C	1.584217	0.156640	1.463978
C244	C	1.834217	0.406640	1.713978
C245	C	1.084231	-0.343343	1.045963
C246	C	1.334231	-0.093343	1.295963
C247	C	1.584231	0.156657	1.545963
C248	C	1.834231	0.406657	1.795963
C249	C	1.184699	-0.262834	1.046007
C250	C	1.434699	-0.012834	1.296007
C251	C	1.684699	0.237166	1.546007
C252	C	1.934699	0.487166	1.796007
C253	C	1.184686	-0.262851	0.964028
C254	C	1.434686	-0.012851	1.214028
C255	C	1.684686	0.237149	1.464028
C256	C	1.934686	0.487149	1.714028
C257	C	1.134443	-0.303116	0.923016
C258	C	1.384443	-0.053116	1.173016
C259	C	1.634443	0.196884	1.423016
C260	C	1.884443	0.446884	1.673016
H261	H	0.433949	-0.230115	0.287304
H262	H	0.683949	0.019885	0.537304
H263	H	0.933949	0.269885	0.787304
H264	H	1.183949	0.519885	1.037304
H265	H	0.582674	-0.376386	0.469094
H266	H	0.832674	-0.126386	0.719094
H267	H	1.082674	0.123614	0.969094
H268	H	1.332674	0.373614	1.219094
F269	F	0.676549	-0.220026	0.274749
F270	F	0.926549	0.029974	0.524749
F271	F	1.176549	0.279974	0.774749
F272	F	1.426549	0.529974	1.024749
H273	H	0.686803	-0.376375	0.469086
H274	H	0.936803	-0.126375	0.719086
H275	H	1.186803	0.123625	0.969086
H276	H	1.436803	0.373625	1.219086
H277	H	1.225565	-0.230105	0.826546
H278	H	1.475565	0.019895	1.076546
H279	H	1.725565	0.269895	1.326546
H280	H	1.975565	0.519895	1.576546
F281	F	1.238172	-0.219981	1.089656
F282	F	1.488172	0.030019	1.339656
F283	F	1.738172	0.280019	1.589656
F284	F	1.988172	0.530019	1.839656
H285	H	1.225588	-0.230084	0.930675
H286	H	1.475588	0.019916	1.180675
H287	H	1.725588	0.269916	1.430675
H288	H	1.975588	0.519916	1.680675
F289	F	1.030741	-0.386213	0.920332
F290	F	1.280741	-0.136213	1.170332
F291	F	1.530741	0.113787	1.420332
F292	F	1.780741	0.363787	1.670332
H293	H	1.043288	-0.376163	0.826470
H294	H	1.293288	-0.126163	1.076470
H295	H	1.543288	0.123837	1.326470
H296	H	1.793288	0.373837	1.576470
F297	F	1.237952	-0.534635	0.274597
F298	F	1.487952	-0.284635	0.524597
F299	F	1.737952	-0.034635	0.774597
F300	F	1.987952	0.215365	1.024597
F301	F	1.030641	-0.670366	0.481706
F302	F	1.280641	-0.420366	0.731706
F303	F	1.530641	-0.170366	0.981706
F304	F	1.780641	0.079634	1.231706
F305	F	1.238012	-0.670340	0.274626
F306	F	1.488012	-0.420340	0.524626
F307	F	1.738012	-0.170340	0.774626
F308	F	1.988012	0.079660	1.024626
H309	H	1.043331	-0.376113	1.079316
H310	H	1.293331	-0.126113	1.329316
H311	H	1.543331	0.123887	1.579316
H312	H	1.793331	0.373887	1.829316
F313	F	1.030578	-0.534658	0.481686
F314	F	1.280578	-0.284658	0.731686
F315	F	1.530578	-0.034658	0.981686
F316	F	1.780578	0.215342	1.231686
F317	F	1.238212	-1.071176	0.274725
F318	F	1.488212	-0.821176	0.524725
F319	F	1.738212	-0.571176	0.774725
F320	F	1.988212	-0.321176	1.024725
F321	F	0.845771	-0.386452	0.481593
F322	F	1.095771	-0.136452	0.731593
F323	F	1.345771	0.113548	0.981593
F324	F	1.595771	0.363548	1.231593
F325	F	0.423700	-0.386465	0.481653
F326	F	0.673700	-0.136465	0.731653
F327	F	0.923700	0.113535	0.981653
F328	F	1.173700	0.363535	1.231653
F329	F	1.030700	-0.386265	0.667481
F330	F	1.280700	-0.136265	0.917481
F331	F	1.530700	0.113735	1.167481
F332	F	1.780700	0.363735	1.417481
F333	F	1.238133	-0.935472	0.274678
F334	F	1.488133	-0.685472	0.524678
F335	F	1.738133	-0.435472	0.774678
F336	F	1.988133	-0.185472	1.024678
F337	F	0.592927	-0.220031	0.274750
F338	F	0.842927	0.029969	0.524750
F339	F	1.092927	0.279969	0.774750
F340	F	1.342927	0.529969	1.024750
H341	H	0.835527	-0.230095	0.287258
H342	H	1.085527	0.019905	0.537258
H343	H	1.335527	0.269905	0.787258
H344	H	1.585527	0.519905	1.037258
H345	H	1.043384	-1.062985	0.469255
H346	H	1.293384	-0.812985	0.719255
H347	H	1.543384	-0.562985	0.969255
H348	H	1.793384	-0.312985	1.219255
H349	H	1.043324	-0.943716	0.469225
H350	H	1.293324	-0.693716	0.719225
H351	H	1.543324	-0.443716	0.969225
H352	H	1.793324	-0.193716	1.219225
H353	H	1.225547	-0.230140	0.677828
H354	H	1.475547	0.019860	0.927828
H355	H	1.725547	0.269860	1.177828
H356	H	1.975547	0.519860	1.427828
