data_functionalizedCrystal
_audit_creation_method	'MofGen! by Chris Wilmer'
_symmetry_space_group_name_H-M	'P1'
_symmetry_Int_Tables_number	1
_symmetry_cell_setting	triclinic
loop_
_symmetry_equiv_pos_as_xyz
  x,y,z
_cell_length_a	10.654546
_cell_length_b	10.654550
_cell_length_c	9.730223
_cell_angle_alpha	90.000146
_cell_angle_beta	90.004209
_cell_angle_gamma	84.484207
loop_
_atom_site_label
_atom_site_type_symbol
_atom_site_fract_x
_atom_site_fract_y
_atom_site_fract_z
O1	O	1.667842	0.176377	0.114306
O2	O	1.302363	0.193188	0.114301
O3	O	1.493505	0.002043	0.114309
O4	O	1.476699	0.367522	0.114297
O5	O	1.493493	0.002038	-0.114271
O6	O	1.302350	0.193183	-0.114279
O7	O	1.667829	0.176372	-0.114274
Zn8	Zn	1.485088	0.184777	-0.150569
Zn9	Zn	1.485104	0.184784	0.150595
O10	O	1.476687	0.367517	-0.114282
C11	C	1.255558	0.191952	0.000010
C12	C	1.116115	0.188262	0.000009
C13	C	1.050627	0.186519	0.124614
C14	C	0.919606	0.183041	0.124625
C15	C	0.919574	0.183046	-0.124585
C16	C	1.050591	0.186532	-0.124595
C17	C	1.116151	0.188249	0.249218
C18	C	1.050663	0.186504	0.373833
C19	C	0.919642	0.183026	0.373844
C20	C	0.854109	0.181294	0.249240
C21	C	1.492265	-0.044757	0.000023
C22	C	1.488573	-0.184200	0.000036
C23	C	1.714633	0.177608	0.000019
C24	C	1.854077	0.181298	0.000030
C25	C	1.477927	0.414317	0.000006
C26	C	1.481619	0.553761	0.000002
C27	C	1.369077	0.633248	0.000004
C28	C	1.372554	0.764268	0.000026
C29	C	1.601123	0.736302	0.000039
C30	C	1.597646	0.605284	0.000027
N31	N	1.485086	0.184771	-0.356105
C32	C	1.569753	0.100168	-0.428027
C33	C	1.569765	0.100169	-0.571910
C34	C	1.400440	0.269386	-0.571936
C35	C	1.400422	0.269379	-0.428056
N36	N	1.485116	0.184779	0.356132
H37	H	1.104027	0.187925	0.475281
C38	C	1.248754	0.851703	0.000020
C39	C	1.153989	0.845207	0.118701
C40	C	1.030184	0.932641	0.118696
C41	C	1.001143	1.026572	0.000010
C42	C	1.095911	1.033072	-0.118679
C43	C	1.219716	0.945638	-0.118675
H44	H	1.175485	0.775670	0.206567
H45	H	0.960031	0.927829	0.206558
H46	H	0.909495	1.091296	0.000007
H47	H	1.074416	1.102609	-0.206545
H48	H	1.289869	0.950450	-0.206537
C49	C	1.307284	0.362448	-0.348928
C50	C	1.214211	0.455569	-0.428062
C51	C	1.121074	0.548630	-0.348934
C52	C	1.121010	0.548570	-0.190671
C53	C	1.214086	0.455445	-0.111528
C54	C	1.307223	0.362385	-0.190657
H55	H	1.214255	0.455617	-0.545226
H56	H	1.052172	0.617566	-0.407521
H57	H	1.052064	0.617458	-0.132095
H58	H	1.214042	0.455398	0.005635
H59	H	1.376125	0.293448	-0.132069
C60	C	0.847492	0.181127	-0.261641
C61	C	0.744083	0.287589	-0.295904
C62	C	0.672003	0.285665	-0.432962
C63	C	0.703332	0.177278	-0.535758
C64	C	0.806746	0.070808	-0.501498
C65	C	0.878825	0.072732	-0.364439
H66	H	0.720888	0.367830	-0.219806
H67	H	0.595450	0.364481	-0.458323
H68	H	0.649974	0.175854	-0.637217
H69	H	0.829941	-0.009433	-0.577596
H70	H	0.955379	-0.006084	-0.339078
H71	H	1.689296	0.540562	0.000030
H72	H	1.331510	0.338273	-0.630533
C73	C	1.122652	0.188456	-0.261650
C74	C	1.199390	0.299727	-0.295894
C75	C	1.271458	0.301662	-0.432947
C76	C	1.266789	0.192326	-0.535757
C77	C	1.190048	0.081046	-0.501516
C78	C	1.117980	0.079111	-0.364463
H79	H	1.202849	0.380671	-0.219785
H80	H	1.328266	0.384039	-0.458294
H81	H	1.320138	0.193758	-0.637212
H82	H	1.186589	0.000102	-0.577625
H83	H	1.061172	-0.003266	-0.339116
C84	C	1.728746	0.792985	0.000050
C85	C	1.762562	0.879216	-0.118642
C86	C	1.890188	0.935896	-0.118636
C87	C	1.983998	0.906346	0.000062
C88	C	1.950184	0.820111	0.118762
C89	C	1.822559	0.763430	0.118756
H90	H	1.693116	0.901094	-0.206516
H91	H	1.915218	0.999733	-0.206506
H92	H	2.078474	0.948304	0.000066
H93	H	2.019630	0.798232	0.206637
H94	H	1.797529	0.699593	0.206627
H95	H	1.222835	0.191077	0.249223
H96	H	1.638689	0.031274	-0.369448
H97	H	0.866324	0.181619	0.475312
H98	H	1.638707	0.031276	-0.630465
H99	H	0.747422	0.178476	0.249259
H100	H	1.274601	0.591302	-0.000021
