data_functionalizedCrystal
_audit_creation_method	'MofGen! by Chris Wilmer'
_symmetry_space_group_name_H-M	'P1'
_symmetry_Int_Tables_number	1
_symmetry_cell_setting	triclinic
loop_
_symmetry_equiv_pos_as_xyz
  x,y,z
_cell_length_a	12.837943
_cell_length_b	12.837942
_cell_length_c	11.892095
_cell_angle_alpha	85.697431
_cell_angle_beta	85.689438
_cell_angle_gamma	85.171060
loop_
_atom_site_label
_atom_site_type_symbol
_atom_site_fract_x
_atom_site_fract_y
_atom_site_fract_z
O1	O	1.408367	-0.266110	-0.093982
O2	O	1.908367	0.233890	0.406018
O3	O	1.105234	-0.252667	-0.093989
O4	O	1.605234	0.247333	0.406011
O5	O	1.250078	-0.107822	-0.093979
O6	O	1.750078	0.392178	0.406021
O7	O	1.263522	-0.410955	-0.093992
O8	O	1.763522	0.089045	0.406008
O9	O	1.237999	-0.119879	0.094028
O10	O	1.737999	0.380121	0.594028
O11	O	1.093155	-0.264723	0.094018
O12	O	1.593155	0.235277	0.594018
O13	O	1.396288	-0.278167	0.094025
O14	O	1.896288	0.221833	0.594025
Zn15	Zn	1.242803	-0.273359	0.123871
Zn16	Zn	1.742803	0.226641	0.623871
Zn17	Zn	1.258718	-0.257474	-0.123836
Zn18	Zn	1.758718	0.242526	0.376164
O19	O	1.251443	-0.423011	0.094014
O20	O	1.751443	0.076989	0.594014
C21	C	1.060125	-0.254153	0.000014
C22	C	1.560125	0.245847	0.500014
C23	C	0.943710	-0.240609	0.000011
C24	C	1.443710	0.259391	0.500011
C25	C	0.718835	-0.403439	0.000020
C26	C	1.218835	0.096561	0.500020
C27	C	0.609453	-0.390717	0.000019
C28	C	1.109453	0.109283	0.500019
C29	C	0.615561	-0.202446	0.000015
C30	C	1.115561	0.297554	0.500015
C31	C	0.724943	-0.215167	0.000017
C32	C	1.224943	0.284833	0.500017
C33	C	0.776577	-0.315667	0.000017
C34	C	1.276577	0.184333	0.500017
C35	C	0.885961	-0.328387	0.000011
C36	C	1.385961	0.171613	0.500011
C37	C	0.892066	-0.140117	0.000015
C38	C	1.392066	0.359883	0.500015
C39	C	0.782684	-0.127395	0.000014
C40	C	1.282684	0.372605	0.500014
C41	C	1.239497	-0.074781	0.000024
C42	C	1.739497	0.425219	0.500024
C43	C	1.225953	0.041634	0.000022
C44	C	1.725953	0.541634	0.500022
C45	C	1.441397	-0.276680	0.000020
C46	C	1.941397	0.223320	0.500020
C47	C	1.557812	-0.290224	0.000015
C48	C	2.057812	0.209776	0.500015
C49	C	1.262024	-0.456052	0.000009
C50	C	1.762024	0.043948	0.500009
C51	C	1.275569	-0.572467	0.000004
C52	C	1.775569	-0.072467	0.500004
N53	N	1.231950	-0.284200	0.292925
N54	N	1.731950	0.215800	0.792925
C55	C	1.388784	0.266509	0.000002
C56	C	1.888784	0.766509	0.500002
C57	C	1.376062	0.375892	-0.000000
C58	C	1.876062	0.875892	0.500000
C59	C	1.187791	0.369784	0.000007
C60	C	1.687791	0.869784	0.500007
C61	C	1.200512	0.260402	0.000009
C62	C	1.700512	0.760402	0.500009
C63	C	1.301011	0.208768	0.000008
C64	C	1.801011	0.708768	0.500008
C65	C	1.313731	0.099383	0.000019
C66	C	1.813731	0.599383	0.500019
C67	C	1.125461	0.093278	0.000018
C68	C	1.625461	0.593278	0.500018
C69	C	1.112740	0.202660	0.000016
C70	C	1.612740	0.702660	0.500016
N71	N	1.269579	-0.246626	-0.292889
N72	N	1.769579	0.253374	0.207111
C73	C	1.345098	-0.171130	0.529580
C74	C	1.845098	0.328870	1.029580
C75	C	1.337519	-0.178716	0.647922
C76	C	1.837519	0.321284	1.147922
C77	C	1.209210	-0.306952	0.647951
C78	C	1.709210	0.193048	1.147951
C79	C	1.216788	-0.299366	0.529610
C80	C	1.716788	0.200634	1.029610
C81	C	1.284736	-0.231454	0.470428
C82	C	1.784736	0.268546	0.970428
C83	C	1.292319	-0.223874	0.352085
C84	C	1.792319	0.276126	0.852085
C85	C	1.164005	-0.352104	0.352116
C86	C	1.664005	0.147896	0.852116
C87	C	1.156426	-0.359690	0.470458
C88	C	1.656426	0.140310	0.970458
H89	H	0.562444	-0.462191	0.000024
H90	H	1.062444	0.037809	0.500024
H91	H	1.101102	-0.414980	0.518656
H92	H	1.601102	0.085020	1.018656
H93	H	1.400430	-0.115841	0.481394
H94	H	1.900430	0.384159	0.981394
H95	H	1.347647	-0.168579	0.303901
H96	H	1.847647	0.331421	0.803901
H97	H	1.386671	-0.129593	0.696080
H98	H	1.886671	0.370407	1.196080
H99	H	1.114857	-0.401227	0.303941
H100	H	1.614857	0.098773	0.803941
H101	H	0.573495	-0.120630	0.000108
H102	H	1.073495	0.379370	0.500108
C103	C	1.134474	-0.381644	0.713063
C104	C	1.634474	0.118356	1.213063
H105	H	1.138612	-0.377522	0.792014
H106	H	1.638612	0.122478	1.292014
H107	H	1.064726	-0.362098	0.693684
H108	H	1.564726	0.137902	1.193684
H109	H	1.153994	-0.451403	0.693673
H110	H	1.653994	0.048597	1.193673
H111	H	0.928000	-0.410219	0.000013
H112	H	1.428000	0.089781	0.500013
C113	C	0.955584	-0.043564	0.000011
C114	C	1.455584	0.456436	0.500011
H115	H	1.028123	-0.065531	0.000016
H116	H	1.528123	0.434469	0.500016
H117	H	0.943119	0.001399	-0.065552
H118	H	1.443119	0.501399	0.434448
H119	H	0.934704	-0.007002	0.065580
H120	H	1.434704	0.492998	0.565580
H121	H	0.740628	-0.045572	0.000026
H122	H	1.240628	0.454428	0.500026
C123	C	1.424274	0.042587	0.000014
C124	C	1.924274	0.542587	0.500014
H125	H	1.474726	0.092647	-0.000002
H126	H	1.974726	0.592647	0.499998
H127	H	1.428947	-0.004158	0.065575
H128	H	1.928947	0.495842	0.565575
H129	H	1.437356	0.004247	-0.065557
H130	H	1.937356	0.504247	0.434443
H131	H	0.760876	-0.485269	0.000019
H132	H	1.260876	0.014731	0.500019
C133	C	1.472611	0.439404	-0.000001
C134	C	1.972611	0.939404	0.499999
H135	H	1.534282	0.392982	0.000006
H136	H	2.034282	0.892982	0.500006
H137	H	1.475773	0.486404	-0.065562
H138	H	1.975773	0.986404	0.434438
H139	H	1.467351	0.477996	0.065570
H140	H	1.967351	0.977996	0.565570
C141	C	1.077254	0.426594	0.000008
C142	C	1.577254	0.926594	0.500008
H143	H	1.082253	0.500007	0.000010
H144	H	1.582253	1.000007	0.500010
H145	H	1.044865	0.411613	-0.065549
H146	H	1.544865	0.911613	0.434451
H147	H	1.036453	0.403218	0.065583
H148	H	1.536453	0.903218	0.565583
C149	C	1.499324	0.209709	0.000010
C150	C	1.999324	0.709709	0.500010
H151	H	1.549778	0.259765	0.000003
H152	H	2.049778	0.759765	0.500003
H153	H	1.503985	0.162964	0.065572
H154	H	2.003985	0.662964	0.565572
H155	H	1.512413	0.171368	-0.065560
H156	H	2.012413	0.671368	0.434440
C157	C	1.002199	0.259463	0.000024
C158	C	1.502199	0.759463	0.500024
H159	H	1.007192	0.332877	0.000030
H160	H	1.507192	0.832877	0.500030
H161	H	0.969807	0.244482	-0.065531
H162	H	1.469807	0.744482	0.434469
H163	H	0.961405	0.236080	0.065601
H164	H	1.461405	0.736080	0.565601
C165	C	1.028904	0.029765	0.000030
C166	C	1.528904	0.529765	0.500030
H167	H	0.967232	0.076185	0.000040
H168	H	1.467232	0.576185	0.500040
H169	H	1.034156	-0.008839	-0.065526
H170	H	1.534156	0.491161	0.434474
H171	H	1.025748	-0.017226	0.065606
H172	H	1.525748	0.482774	0.565606
