data_functionalizedCrystal
_audit_creation_method	'MofGen! by Chris Wilmer'
_symmetry_space_group_name_H-M	'P1'
_symmetry_Int_Tables_number	1
_symmetry_cell_setting	triclinic
loop_
_symmetry_equiv_pos_as_xyz
  x,y,z
_cell_length_a	10.540539
_cell_length_b	19.188930
_cell_length_c	9.016244
_cell_angle_alpha	89.992636
_cell_angle_beta	89.994699
_cell_angle_gamma	83.835137
loop_
_atom_site_label
_atom_site_type_symbol
_atom_site_fract_x
_atom_site_fract_y
_atom_site_fract_z
O1	O	1.683725	0.098388	-0.123289
O2	O	1.314108	0.107659	-0.123309
O3	O	1.509583	0.001439	-0.123270
O4	O	1.488250	0.204608	-0.123329
O5	O	1.509554	0.001441	0.123411
O6	O	1.314079	0.107661	0.123372
O7	O	1.683697	0.098391	0.123392
Cu8	Cu	1.498885	0.103026	0.145905
Cu9	Cu	1.498919	0.103023	-0.145823
O10	O	1.488222	0.204611	0.123352
C11	C	1.266806	0.106965	0.000029
C12	C	1.125904	0.104885	0.000023
C13	C	0.944233	0.025184	0.000622
C14	C	1.090805	0.027292	0.000050
C15	C	1.063424	0.142224	-0.140849
C16	C	0.916938	0.139576	-0.140951
C17	C	0.916383	0.141157	0.139570
C18	C	1.063349	0.141872	0.141417
C19	C	1.508878	-0.024575	0.000075
C20	C	1.506804	-0.102094	0.000088
C21	C	1.621502	-0.146253	0.000101
C22	C	1.619554	-0.219090	0.000077
C23	C	1.502901	-0.247764	0.000070
C24	C	1.388187	-0.203595	0.000048
C25	C	1.390139	-0.130760	0.000057
N26	N	1.413724	-0.356363	0.084015
N27	N	1.411878	-0.425553	0.084010
C28	C	1.497014	-0.467212	0.000039
N29	N	1.584085	-0.437067	-0.083907
N30	N	1.585935	-0.367870	-0.083895
C31	C	1.500772	-0.326741	0.000059
C32	C	1.609608	-0.590350	0.000025
C33	C	1.607655	-0.663188	-0.000008
C34	C	1.376285	-0.647691	-0.000023
C35	C	1.378241	-0.574855	-0.000004
C36	C	1.494906	-0.546189	0.000026
C37	C	1.730998	0.099085	0.000050
C38	C	1.871901	0.101165	0.000047
C39	C	1.488927	0.230625	0.000004
C40	C	1.491000	0.308143	-0.000018
N41	N	1.498871	0.103028	0.351092
N42	N	1.498944	0.103016	-0.351009
C43	C	1.393992	0.159658	0.586103
C44	C	1.394216	0.159870	0.414212
C45	C	1.631229	0.119601	0.413432
C46	C	1.630654	0.120002	0.585376
C47	C	1.472714	0.029640	0.585655
C48	C	1.469658	0.030115	0.413700
H49	H	1.106597	0.116284	-0.245674
H50	H	1.704603	-0.567009	0.000043
H51	H	1.284841	-0.538899	-0.000007
N52	N	1.737117	0.066446	0.359275
H53	H	1.740364	0.067491	0.247350
H54	H	1.821253	0.078150	0.400807
N55	N	1.662679	0.189708	0.356357
H56	H	1.591385	0.210829	0.290135
H57	H	1.672895	0.222070	0.442859
H58	H	0.914710	-0.005341	-0.099826
N59	N	1.743264	-0.266735	0.000117
H60	H	1.747631	-0.297296	-0.091326
H61	H	1.817397	-0.237478	0.000195
N62	N	1.661321	0.190916	0.638469
H63	H	1.661248	0.191888	0.750470
H64	H	1.748255	0.199915	0.600594
H65	H	1.295820	0.149898	0.372066
H66	H	1.378325	0.013867	0.629103
H67	H	1.296735	-0.094804	0.000047
H68	H	0.867740	0.195380	-0.147361
H69	H	0.885377	0.116048	0.246350
H70	H	1.084522	0.199206	-0.146107
N71	N	1.118378	0.105745	0.279473
H72	H	1.183558	0.065586	0.250563
H73	H	1.160630	0.140346	0.341937
N74	N	1.250465	-0.678610	-0.000007
H75	H	1.178098	-0.639579	-0.000002
H76	H	1.244617	-0.708486	-0.091455
H77	H	1.133214	-0.002297	-0.101092
N78	N	1.731371	-0.710821	-0.000000
H79	H	1.805568	-0.681606	0.000025
H80	H	1.735578	-0.741386	0.091442
H81	H	1.711169	0.080409	0.626974
H82	H	1.086328	0.198442	0.149905
H83	H	1.295283	0.149839	0.627495
N84	N	1.262362	-0.234512	0.000042
H85	H	1.256406	-0.264381	-0.091403
H86	H	1.256457	-0.264355	0.091547
N87	N	1.416270	0.232017	0.359847
H88	H	1.496490	0.228826	0.297840
H89	H	1.341134	0.251808	0.297782
N90	N	1.564374	-0.028403	0.356822
H91	H	1.627847	-0.008390	0.289362
H92	H	1.610876	-0.052888	0.443339
N93	N	1.340649	0.013495	0.359839
H94	H	1.301287	0.053022	0.295138
H95	H	1.351013	-0.031431	0.300625
H96	H	0.916311	-0.005469	0.101650
N97	N	1.415816	0.231363	0.643274
H98	H	1.347995	0.267438	0.602348
H99	H	1.411412	0.231543	0.755173
N100	N	1.574094	-0.026208	0.639516
H101	H	1.636718	-0.004125	0.704624
H102	H	1.532751	-0.062466	0.698317
H103	H	1.134054	-0.002088	0.101034
H104	H	0.889348	0.111977	-0.246239
H105	H	1.716500	-0.122918	0.000121
N106	N	0.852170	0.215389	0.140835
H107	H	0.881107	0.240826	0.230714
H108	H	0.875837	0.240368	0.047875
