data_functionalizedCrystal
_audit_creation_method	'MofGen! by Chris Wilmer'
_symmetry_space_group_name_H-M	'P1'
_symmetry_Int_Tables_number	1
_symmetry_cell_setting	triclinic
loop_
_symmetry_equiv_pos_as_xyz
  x,y,z
_cell_length_a	10.686285
_cell_length_b	18.215407
_cell_length_c	18.215399
_cell_angle_alpha	90.020595
_cell_angle_beta	85.609148
_cell_angle_gamma	94.368569
loop_
_atom_site_label
_atom_site_type_symbol
_atom_site_fract_x
_atom_site_fract_y
_atom_site_fract_z
Zn1	Zn	-0.502362	-1.147640	-0.393718
Zn2	Zn	-0.713378	-1.157028	-0.261238
Zn3	Zn	-0.502401	-1.024574	-0.270662
Zn4	Zn	-0.713305	-1.034015	-0.384264
O5	O	-0.607861	-1.090814	-0.327471
O6	O	-0.530367	-1.251870	-0.376157
O7	O	-0.685438	-1.139436	-0.159502
O8	O	-0.325821	-1.033019	-0.294887
O9	O	-0.685400	-1.258767	-0.278824
O10	O	-0.325792	-1.123435	-0.385296
O11	O	-0.530434	-1.042123	-0.166426
O12	O	-0.530364	-0.922842	-0.285720
O13	O	-0.685277	-1.049109	-0.488505
O14	O	-0.685315	-0.929778	-0.369182
O15	O	-0.530297	-1.132589	-0.495451
O16	O	-0.889943	-1.148590	-0.269657
O17	O	-0.889890	-1.058212	-0.360044
C18	C	-0.607837	-0.899607	-0.327448
C19	C	-0.607857	-0.817809	-0.327455
C20	C	-0.688663	-0.633251	-0.370847
C21	C	-0.688666	-0.556393	-0.370855
C22	C	-0.527067	-0.549129	-0.284097
C23	C	-0.527058	-0.625986	-0.284094
C24	C	-0.607864	-0.668046	-0.327467
C25	C	-0.607875	-0.514330	-0.327479
C26	C	-0.607877	-0.430997	-0.327487
C27	C	-0.607860	-0.751384	-0.327460
C28	C	-0.935701	-1.105464	-0.312818
C29	C	-1.075952	-1.111799	-0.306574
C30	C	-0.278742	-1.076127	-0.342197
C31	C	-0.138491	-1.069868	-0.348473
C32	C	-0.607774	-1.090855	-0.519428
C33	C	-0.607737	-1.090873	-0.601228
C34	C	-0.607883	-0.282768	-0.327491
C35	C	-0.607882	-0.364567	-0.327491
C36	C	-0.526964	-1.134354	-0.793044
C37	C	-0.526927	-1.134361	-0.869904
C38	C	-0.688315	-1.047434	-0.862660
C39	C	-0.688345	-1.047424	-0.785801
C40	C	-0.607671	-1.090888	-0.750995
C41	C	-0.607605	-1.090906	-0.904714
C42	C	-0.607566	-1.090913	-0.988049
C43	C	-0.607708	-1.090880	-0.667654
C44	C	-0.607857	-1.090812	-0.136265
C45	C	-0.607539	-1.090921	-0.054480
H46	H	-0.754459	-0.528067	-0.406180
O47	O	-0.775324	-1.000556	-0.900202
H48	H	-0.839520	-1.036363	-0.932347
O49	O	-1.147166	-1.165772	-0.252727
H50	H	-1.122035	-1.152063	-0.196061
H51	H	-0.754065	-1.012023	-0.751564
H52	H	-0.754457	-0.667494	-0.406166
H53	H	-0.461271	-1.169743	-0.764707
H54	H	-0.461280	-0.514876	-0.248783
H55	H	-0.461254	-0.654316	-0.248769
H56	H	-1.084739	-1.029124	-0.389122
O57	O	-0.439887	-1.181247	-0.915259
H58	H	-0.383806	-1.211470	-0.878141
