data_functionalizedCrystal
_audit_creation_method	'MofGen! by Chris Wilmer'
_symmetry_space_group_name_H-M	'P1'
_symmetry_Int_Tables_number	1
_symmetry_cell_setting	triclinic
loop_
_symmetry_equiv_pos_as_xyz
  x,y,z
_cell_length_a	18.050590
_cell_length_b	18.050589
_cell_length_c	18.050583
_cell_angle_alpha	89.968090
_cell_angle_beta	89.999666
_cell_angle_gamma	90.017386
loop_
_atom_site_label
_atom_site_type_symbol
_atom_site_fract_x
_atom_site_fract_y
_atom_site_fract_z
Zn1	Zn	1.135301	-0.295821	-0.419624
Zn2	Zn	1.468634	0.037512	-0.086291
Zn3	Zn	1.801967	0.370846	0.247042
Zn4	Zn	1.135209	-0.420034	-0.295444
Zn5	Zn	1.468542	-0.086701	0.037890
Zn6	Zn	1.801875	0.246633	0.371223
Zn7	Zn	1.011117	-0.295839	-0.295482
Zn8	Zn	1.344451	0.037494	0.037851
Zn9	Zn	1.677784	0.370828	0.371184
Zn10	Zn	1.011068	-0.419950	-0.419626
Zn11	Zn	1.344401	-0.086617	-0.086293
Zn12	Zn	1.677734	0.246716	0.247041
O13	O	1.073174	-0.357911	-0.357544
O14	O	1.406507	-0.024578	-0.024211
O15	O	1.739840	0.308756	0.309123
O16	O	1.239213	-0.312326	-0.403134
O17	O	1.572546	0.021008	-0.069801
O18	O	1.905880	0.354341	0.263532
O19	O	1.118730	-0.403602	-0.191524
O20	O	1.452064	-0.070268	0.141809
O21	O	1.785397	0.263065	0.475143
O22	O	1.027650	-0.191912	-0.311965
O23	O	1.360983	0.141421	0.021368
O24	O	1.694316	0.474755	0.354701
O25	O	1.239146	-0.403585	-0.311899
O26	O	1.572479	-0.070251	0.021434
O27	O	1.905812	0.263082	0.354767
O28	O	1.118886	-0.191899	-0.403172
O29	O	1.452220	0.141435	-0.069838
O30	O	1.785553	0.474768	0.263495
O31	O	1.027561	-0.312356	-0.191553
O32	O	1.360894	0.020977	0.141781
O33	O	1.694227	0.354310	0.475114
O34	O	0.907186	-0.312275	-0.311967
O35	O	1.240520	0.021058	0.021366
O36	O	1.573853	0.354392	0.354699
O37	O	1.027565	-0.403442	-0.523551
O38	O	1.360898	-0.070108	-0.190217
O39	O	1.694232	0.263225	0.143116
O40	O	0.907150	-0.403459	-0.403175
O41	O	1.240483	-0.070126	-0.069842
O42	O	1.573816	0.263208	0.263491
O43	O	1.118838	-0.312245	-0.523549
O44	O	1.452172	0.021089	-0.190216
O45	O	1.785505	0.354422	0.143118
O46	O	1.118682	-0.523948	-0.311901
O47	O	1.452015	-0.190614	0.021432
O48	O	1.785349	0.142719	0.354765
O49	O	1.027476	-0.523886	-0.403138
O50	O	1.360810	-0.190553	-0.069804
O51	O	1.694143	0.142781	0.263529
C52	C	0.880221	-0.357860	-0.357576
C53	C	1.213555	-0.024527	-0.024243
C54	C	1.546888	0.308806	0.309091
C55	C	0.797676	-0.357857	-0.357607
C56	C	1.131009	-0.024523	-0.024274
C57	C	1.464342	0.308810	0.309059
C58	C	0.598227	-0.407584	-0.407088
C59	C	0.931560	-0.074251	-0.073755
C60	C	1.264893	0.259082	0.259578
C61	C	0.548834	-0.339865	-0.425358
C62	C	0.882167	-0.006532	-0.092025
C63	C	1.215501	0.326802	0.241308
C64	C	0.646545	-0.357898	-0.357571
C65	C	0.979879	-0.024565	-0.024238
C66	C	1.313212	0.308769	0.309096
C67	C	0.548856	-0.425656	-0.339300
C68	C	0.882190	-0.092323	-0.005967
C69	C	1.215523	0.241011	0.327366
C70	C	0.500560	-0.357944	-0.357537
C71	C	0.833894	-0.024611	-0.024204
C72	C	1.167227	0.308723	0.309129
C73	C	0.598240	-0.290143	-0.375876
C74	C	0.931573	0.043191	-0.042543
C75	C	1.264907	0.376524	0.290790
C76	C	0.598267	-0.375979	-0.289787
C77	C	0.931600	-0.042646	0.043547
C78	C	1.264933	0.290687	0.376880
C79	C	0.548896	-0.308213	-0.308031
C80	C	0.882229	0.025120	0.025302
C81	C	1.215563	0.358453	0.358636
C82	C	0.730644	-0.357872	-0.357592
C83	C	1.063977	-0.024539	-0.024259
C84	C	1.397310	0.308794	0.309074
C85	C	0.416464	-0.357962	-0.357516
C86	C	0.749797	-0.024629	-0.024183
C87	C	1.083130	0.308705	0.309151
C88	C	1.073084	-0.550863	-0.357532
C89	C	1.406417	-0.217530	-0.024198
C90	C	1.739751	0.115803	0.309135
C91	C	1.073114	-0.633409	-0.357551
C92	C	1.406447	-0.300076	-0.024218
C93	C	1.739780	0.033258	0.309115
C94	C	1.023565	-0.832853	-0.407148
C95	C	1.356898	-0.499520	-0.073815
C96	C	1.690231	-0.166186	0.259518
C97	C	1.005465	-0.882300	-0.339386
C98	C	1.338799	-0.548967	-0.006053
C99	C	1.672132	-0.215633	0.327281
C100	C	1.073186	-0.784539	-0.357561
C101	C	1.406520	-0.451206	-0.024228
C102	C	1.739853	-0.117873	0.309106
C103	C	1.091322	-0.882174	-0.425331
C104	C	1.424655	-0.548841	-0.091998
C105	C	1.757989	-0.215508	0.241336
C106	C	1.073256	-0.930524	-0.357576
C107	C	1.406589	-0.597191	-0.024243
C108	C	1.739922	-0.263858	0.309090
C109	C	1.055052	-0.832899	-0.289763
C110	C	1.388385	-0.499566	0.043571
C111	C	1.721718	-0.166232	0.376904
C112	C	1.140940	-0.832769	-0.375754
C113	C	1.474273	-0.499436	-0.042420
C114	C	1.807607	-0.166102	0.290913
C115	C	1.122867	-0.882193	-0.307945
C116	C	1.456200	-0.548860	0.025389
C117	C	1.789533	-0.215527	0.358722
C118	C	1.073145	-0.700441	-0.357553
C119	C	1.406478	-0.367108	-0.024220
C120	C	1.739811	-0.033774	0.309114
C121	C	1.073297	-1.014621	-0.357576
C122	C	1.406631	-0.681288	-0.024243
C123	C	1.739964	-0.347954	0.309090
C124	C	1.266879	-0.357963	-0.357512
C125	C	1.600212	-0.024629	-0.024179
C126	C	1.933546	0.308704	0.309154
C127	C	1.349425	-0.357984	-0.357499
C128	C	1.682758	-0.024651	-0.024166
C129	C	2.016092	0.308682	0.309168
C130	C	1.073206	-0.357832	-0.551250
C131	C	1.406540	-0.024498	-0.217916
C132	C	1.739873	0.308835	0.115417
C133	C	1.073220	-0.357798	-0.633796
C134	C	1.406554	-0.024465	-0.300462
C135	C	1.739887	0.308869	0.032871
C136	C	1.073284	-0.164205	-0.357573
C137	C	1.406617	0.169128	-0.024239
C138	C	1.739951	0.502461	0.309094
C139	C	1.073331	-0.081660	-0.357585
C140	C	1.406664	0.251674	-0.024252
C141	C	1.739997	0.585007	0.309082
C142	C	1.122905	-0.308181	-0.833246
C143	C	1.456238	0.025152	-0.499912
C144	C	1.789571	0.358486	-0.166579
C145	C	1.055171	-0.289992	-0.882658
C146	C	1.388504	0.043341	-0.549324
C147	C	1.721838	0.376675	-0.215991
C148	C	1.073250	-0.357785	-0.784926
C149	C	1.406584	-0.024452	-0.451593
C150	C	1.739917	0.308881	-0.118259
C151	C	1.141011	-0.375927	-0.882596
C152	C	1.474344	-0.042594	-0.549262
C153	C	1.807678	0.290739	-0.215929
C154	C	1.073285	-0.357772	-0.930911
C155	C	1.406618	-0.024438	-0.597578
C156	C	1.739952	0.308895	-0.264244
C157	C	1.005481	-0.339561	-0.833251
C158	C	1.338814	-0.006228	-0.499917
C159	C	1.672147	0.327105	-0.166584
C160	C	1.091366	-0.425528	-0.833185
C161	C	1.424700	-0.092195	-0.499851
C162	C	1.758033	0.241139	-0.166518
C163	C	1.023586	-0.407365	-0.882574
C164	C	1.356919	-0.074031	-0.549241
C165	C	1.690253	0.259302	-0.215908
C166	C	1.073231	-0.357791	-0.700828
C167	C	1.406565	-0.024458	-0.367494
C168	C	1.739898	0.308875	-0.034161
C169	C	1.073296	-0.357766	-1.015008
C170	C	1.406630	-0.024432	-0.681674
C171	C	1.739963	0.308901	-0.348341
C172	C	1.073184	-0.357936	-0.164592
C173	C	1.406517	-0.024603	0.168741
C174	C	1.739850	0.308730	0.502075
C175	C	1.073314	-0.357761	-0.082047
C176	C	1.406647	-0.024428	0.251287
C177	C	1.739980	0.308906	0.584620
H178	H	0.981539	-0.811188	-0.449023
H179	H	1.314872	-0.477855	-0.115690
H180	H	1.648206	-0.144522	0.217643
H181	H	0.619841	-0.232843	-0.391380
H182	H	0.953174	0.100490	-0.058047
H183	H	1.286508	0.433824	0.275286
H184	H	0.981562	-0.449308	-0.904097
H185	H	1.314895	-0.115974	-0.570764
H186	H	1.648228	0.217359	-0.237430
H187	H	0.527121	-0.324587	-0.482668
H188	H	0.860454	0.008747	-0.149335
H189	H	1.193788	0.342080	0.183999
H190	H	0.527372	-0.266166	-0.266142
H191	H	0.860706	0.067167	0.067192
H192	H	1.194039	0.400500	0.400525
O193	O	1.109786	-0.493837	-0.807269
O194	O	1.443119	-0.160503	-0.473936
O195	O	1.776452	0.172830	-0.140602
C196	C	1.181276	-0.512767	-0.832381
C197	C	1.514610	-0.179434	-0.499048
C198	C	1.847943	0.153900	-0.165715
H199	H	1.213350	-0.460148	-0.846271
H200	H	1.546683	-0.126814	-0.512937
H201	H	1.880017	0.206519	-0.179604
H202	H	1.211708	-0.544670	-0.787151
H203	H	1.545042	-0.211337	-0.453818
H204	H	1.878375	0.121997	-0.120484
H205	H	1.176581	-0.548790	-0.884027
H206	H	1.509914	-0.215457	-0.550694
H207	H	1.843247	0.117877	-0.217360
H208	H	0.619996	-0.391278	-0.232494
H209	H	0.953329	-0.057945	0.100839
H210	H	1.286663	0.275389	0.434173
H211	H	1.164860	-0.903721	-0.265968
H212	H	1.498193	-0.570388	0.067365
H213	H	1.831527	-0.237054	0.400698
O214	O	1.209205	-0.806666	-0.394083
O215	O	1.542538	-0.473333	-0.060750
O216	O	1.875872	-0.140000	0.272583
C217	C	1.208363	-0.728567	-0.393166
C218	C	1.541697	-0.395233	-0.059833
C219	C	1.875030	-0.061900	0.273501
H220	H	1.161421	-0.708492	-0.356009
H221	H	1.494755	-0.375159	-0.022676
H222	H	1.828088	-0.041826	0.310658
H223	H	1.263463	-0.707173	-0.370912
H224	H	1.596796	-0.373840	-0.037579
H225	H	1.930129	-0.040506	0.295754
H226	H	1.199526	-0.706881	-0.451834
H227	H	1.532860	-0.373548	-0.118500
H228	H	1.866193	-0.040214	0.214833
O229	O	0.522935	-0.494010	-0.321004
O230	O	0.856268	-0.160677	0.012329
O231	O	1.189601	0.172656	0.345662
C232	C	0.478851	-0.521578	-0.379287
C233	C	0.812185	-0.188245	-0.045953
C234	C	1.145518	0.145089	0.287380
H235	H	0.494924	-0.492882	-0.433220
H236	H	0.828258	-0.159548	-0.099886
H237	H	1.161591	0.173785	0.233447
H238	H	0.488010	-0.583801	-0.384977
H239	H	0.821344	-0.250467	-0.051644
H240	H	1.154677	0.082866	0.281690
H241	H	0.417973	-0.510344	-0.366793
H242	H	0.751307	-0.177011	-0.033460
H243	H	1.084640	0.156322	0.299874
O244	O	1.036787	-0.221693	-0.908638
O245	O	1.370120	0.111640	-0.575305
O246	O	1.703454	0.444973	-0.241971
C247	C	0.971770	-0.226807	-0.951624
C248	C	1.305103	0.106526	-0.618290
C249	C	1.638437	0.439859	-0.284957
H250	H	0.939373	-0.278342	-0.934737
H251	H	1.272707	0.054991	-0.601403
H252	H	1.606040	0.388325	-0.268070
H253	H	0.936172	-0.175523	-0.942147
H254	H	1.269506	0.157810	-0.608814
H255	H	1.602839	0.491143	-0.275480
H256	H	0.987189	-0.230691	-1.012745
H257	H	1.320522	0.102642	-0.679412
H258	H	1.653856	0.435976	-0.346079
H259	H	1.198301	-0.391276	-0.904274
H260	H	1.531634	-0.057943	-0.570941
H261	H	1.864967	0.275390	-0.237608
H262	H	0.948201	-0.904073	-0.324012
H263	H	1.281534	-0.570740	0.009321
H264	H	1.614867	-0.237406	0.342654
H265	H	0.619889	-0.449529	-0.449011
H266	H	0.953223	-0.116196	-0.115677
H267	H	1.286556	0.217138	0.217656
O268	O	1.036682	-0.807066	-0.221429
O269	O	1.370016	-0.473732	0.111904
O270	O	1.703349	-0.140399	0.445237
C271	C	1.036855	-0.728959	-0.222250
C272	C	1.370188	-0.395626	0.111084
C273	C	1.703522	-0.062293	0.444417
H274	H	1.028548	-0.708482	-0.281423
H275	H	1.361881	-0.375149	0.051910
H276	H	1.695215	-0.041816	0.385244
H277	H	0.990021	-0.707452	-0.185764
H278	H	1.323354	-0.374119	0.147569
H279	H	1.656687	-0.040785	0.480903
H280	H	1.092133	-0.707785	-0.200225
H281	H	1.425467	-0.374452	0.133108
H282	H	1.758800	-0.041118	0.466441
H283	H	1.106634	-0.903819	-0.482637
H284	H	1.439967	-0.570486	-0.149304
H285	H	1.773300	-0.237153	0.184029
H286	H	1.164827	-0.266206	-0.811584
H287	H	1.498160	0.067127	-0.478250
H288	H	1.831493	0.400461	-0.144917
H289	H	0.948174	-0.324144	-0.811666
H290	H	1.281508	0.009189	-0.478332
H291	H	1.614841	0.342522	-0.144999
