data_functionalizedCrystal
_audit_creation_method	'MofGen! by Chris Wilmer'
_symmetry_space_group_name_H-M	'P1'
_symmetry_Int_Tables_number	1
_symmetry_cell_setting	triclinic
loop_
_symmetry_equiv_pos_as_xyz
  x,y,z
_cell_length_a	21.395362
_cell_length_b	19.120786
_cell_length_c	21.395355
_cell_angle_alpha	92.459295
_cell_angle_beta	90.043940
_cell_angle_gamma	92.480156
loop_
_atom_site_label
_atom_site_type_symbol
_atom_site_fract_x
_atom_site_fract_y
_atom_site_fract_z
Zn1	Zn	0.947248	-0.279415	0.343943
Zn2	Zn	1.447248	0.220585	0.843943
Zn3	Zn	0.942691	-0.396855	0.234692
Zn4	Zn	1.442691	0.103145	0.734692
Zn5	Zn	0.842462	-0.279448	0.239143
Zn6	Zn	1.342462	0.220552	0.739143
Zn7	Zn	0.837972	-0.396870	0.339397
Zn8	Zn	1.337972	0.103130	0.839397
O9	O	0.892593	-0.338147	0.289294
O10	O	1.392593	0.161853	0.789294
O11	O	1.034322	-0.294974	0.329491
O12	O	1.534322	0.205026	0.829491
O13	O	0.929367	-0.381289	0.147605
O14	O	1.429367	0.118711	0.647605
O15	O	0.860149	-0.181153	0.256810
O16	O	1.360149	0.318847	0.756810
O17	O	1.030974	-0.381257	0.249225
O18	O	1.530974	0.118743	0.749225
O19	O	0.937135	-0.181129	0.333806
O20	O	1.437135	0.318871	0.833806
O21	O	0.855729	-0.295030	0.150874
O22	O	1.355729	0.204970	0.650874
O23	O	0.754188	-0.295044	0.252402
O24	O	1.254188	0.204956	0.752402
O25	O	0.852496	-0.381281	0.427678
O26	O	1.352496	0.118719	0.927678
O27	O	0.750889	-0.381313	0.326058
O28	O	1.250889	0.118687	0.826058
O29	O	0.932781	-0.294988	0.431018
O30	O	1.432781	0.205012	0.931018
O31	O	0.925013	-0.495148	0.244816
O32	O	1.425013	0.004852	0.744816
O33	O	0.848076	-0.495159	0.321742
O34	O	1.348076	0.004841	0.821742
C35	C	0.729804	-0.338184	0.289220
C36	C	1.229804	0.161816	0.789220
C37	C	0.660162	-0.338217	0.289202
C38	C	1.160162	0.161783	0.789202
C39	C	0.885580	-0.520639	0.282317
C40	C	1.385580	-0.020639	0.782317
C41	C	0.882637	-0.598710	0.279353
C42	C	1.382637	-0.098710	0.779353
C43	C	0.625745	-0.383197	0.327493
C44	C	1.125745	0.116803	0.827493
C45	C	0.560310	-0.383180	0.327521
C46	C	1.060310	0.116820	0.827521
C47	C	0.529294	-0.338190	0.289248
C48	C	1.029294	0.161810	0.789248
C49	C	0.563719	-0.293201	0.250955
C50	C	1.063719	0.206799	0.750955
C51	C	0.629153	-0.293215	0.250932
C52	C	1.129153	0.206785	0.750932
C53	C	0.425784	-0.332531	0.233058
C54	C	0.925784	0.167469	0.733058
C55	C	0.360352	-0.332523	0.233080
C56	C	0.860352	0.167477	0.733080
C57	C	0.327475	-0.338144	0.289319
C58	C	0.827475	0.161856	0.789319
C59	C	0.360039	-0.343789	0.345537
C60	C	0.860039	0.156211	0.845537
C61	C	0.425473	-0.343802	0.345515
C62	C	0.925473	0.156198	0.845515
C63	C	0.458343	-0.338170	0.289269
C64	C	0.958343	0.161830	0.789269
C65	C	0.222107	-0.383108	0.327643
C66	C	0.722107	0.116892	0.827643
C67	C	0.156671	-0.383086	0.327673
C68	C	0.656671	0.116914	0.827673
C69	C	0.160081	-0.293111	0.251101
C70	C	0.660081	0.206889	0.751101
C71	C	0.225516	-0.293129	0.251077
C72	C	0.725516	0.206871	0.751077
C73	C	0.256525	-0.338131	0.289347
C74	C	0.756525	0.161869	0.789347
C75	C	0.921307	-0.635315	0.318080
C76	C	1.421307	-0.135315	0.818080
C77	C	0.918539	-0.708671	0.315297
C78	C	1.418539	-0.208671	0.815297
C79	C	0.877104	-0.745420	0.273781
C80	C	1.377104	-0.245420	0.773781
C81	C	0.838430	-0.708810	0.235052
C82	C	1.338430	-0.208810	0.735052
C83	C	0.841195	-0.635456	0.237839
C84	C	1.341195	-0.135456	0.737839
C85	C	0.866749	-0.966907	0.263361
C86	C	1.366749	-0.466907	0.763361
C87	C	0.863988	-1.040267	0.260575
C88	C	1.363988	-0.540267	0.760575
C89	C	0.944097	-1.040122	0.340821
C90	C	1.444097	-0.540122	0.840821
C91	C	0.946861	-0.966766	0.343602
C92	C	1.446861	-0.466766	0.843602
C93	C	0.908185	-0.930162	0.304875
C94	C	1.408185	-0.430162	0.804875
C95	C	0.874276	-0.820402	0.270933
C96	C	1.374276	-0.320402	0.770933
C97	C	0.911011	-0.855182	0.307726
C98	C	1.411011	-0.355182	0.807726
C99	C	1.056018	-0.338110	0.289369
C100	C	1.556018	0.161890	0.789369
C101	C	1.125660	-0.338094	0.289400
C102	C	1.625660	0.161906	0.789400
C103	C	0.892646	-0.338133	0.452718
C104	C	1.392646	0.161867	0.952718
C105	C	0.892668	-0.338127	0.522359
C106	C	1.392668	0.161873	1.022359
C107	C	0.899651	-0.154942	0.296312
C108	C	1.399651	0.345058	0.796312
C109	C	0.902658	-0.076871	0.299303
C110	C	1.402658	0.423129	0.799303
C111	C	0.892579	-0.338110	0.126508
C112	C	1.392579	0.161890	0.626508
C113	C	0.892685	-0.337919	0.056874
C114	C	1.392685	0.162081	0.556874
C115	C	0.934471	-0.293192	0.556813
C116	C	1.434471	0.206808	1.056813
C117	C	0.934471	-0.293162	0.622249
C118	C	1.434471	0.206838	1.122249
C119	C	0.892675	-0.338079	0.653229
C120	C	1.392675	0.161921	1.153229
C121	C	0.850864	-0.383017	0.618768
C122	C	1.350864	0.116983	1.118768
C123	C	0.850861	-0.383041	0.553333
C124	C	1.350861	0.116959	1.053333
C125	C	0.885297	-0.401324	0.754484
C126	C	1.385297	0.098676	1.254484
C127	C	0.885305	-0.401302	0.819918
C128	C	1.385305	0.098698	1.319918
C129	C	0.892681	-0.338005	0.855053
C130	C	1.392681	0.161995	1.355053
C131	C	0.900064	-0.274728	0.824746
C132	C	1.400064	0.225272	1.324746
C133	C	0.900060	-0.274752	0.759311
C134	C	1.400060	0.225248	1.259311
C135	C	0.892673	-0.338058	0.724183
C136	C	1.392673	0.161942	1.224183
C137	C	0.934487	-0.293033	0.960461
C138	C	1.434487	0.206967	1.460461
C139	C	0.934483	-0.293002	1.025898
C140	C	1.434483	0.206998	1.525898
C141	C	0.850879	-0.382863	1.022416
C142	C	1.350879	0.117137	1.522416
C143	C	0.850880	-0.382888	0.956979
C144	C	1.350880	0.117112	1.456979
C145	C	0.892687	-0.337974	0.926006
C146	C	1.392687	0.162026	1.426006
H147	H	0.532283	-0.419808	0.358704
H148	H	1.032283	0.080192	0.858704
O149	O	0.119541	-0.431695	0.368887
O150	O	0.619541	0.068305	0.868887
H151	H	0.152098	-0.463026	0.395457
H152	H	0.652098	0.036974	0.895457
H153	H	0.247355	-0.419748	0.358808
H154	H	0.747355	0.080252	0.858808
H155	H	0.944745	-0.825259	0.341530
H156	H	1.444745	-0.325259	0.841530
O157	O	0.666282	-0.244702	0.209630
O158	O	1.166282	0.255298	0.709630
H159	H	0.694839	-0.276099	0.176502
H160	H	1.194839	0.223901	0.676502
H161	H	0.980601	-0.936846	0.377407
H162	H	1.480601	-0.436846	0.877407
H163	H	0.879297	-0.452825	0.844589
H164	H	1.379297	0.047175	1.344589
O165	O	0.979561	-0.244748	0.523408
O166	O	1.479561	0.255252	1.023408
H167	H	0.952897	-0.209029	0.494933
H168	H	1.452897	0.290971	0.994933
O169	O	0.985802	-1.079599	0.382599
O170	O	1.485802	-0.579599	0.882599
H171	H	0.976915	-1.136781	0.373694
H172	H	1.476915	-0.636781	0.873694
H173	H	0.809705	-0.605652	0.206304
H174	H	1.309705	-0.105652	0.706304
H175	H	0.650988	-0.419840	0.358656
H176	H	1.150988	0.080160	0.858656
H177	H	0.955051	-0.605398	0.351884
H178	H	1.455051	-0.105398	0.851884
H179	H	0.968523	-0.256406	1.053950
H180	H	1.468523	0.243594	1.553950
O181	O	0.126640	-0.244581	0.209821
O182	O	0.626640	0.255419	0.709821
H183	H	0.138684	-0.256546	0.160168
H184	H	0.638684	0.243454	0.660168
O185	O	0.530276	-0.244674	0.209671
O186	O	1.030276	0.255326	0.709671
H187	H	0.542327	-0.256640	0.160020
H188	H	1.042327	0.243360	0.660020
O189	O	0.805797	-0.431308	1.055825
O190	O	1.305797	0.068692	1.555825
H191	H	0.757087	-0.419270	1.043691
H192	H	1.257087	0.080730	1.543691
H193	H	0.950033	-0.738471	0.346828
H194	H	1.450033	-0.238471	0.846828
H195	H	0.840541	-0.850331	0.237130
H196	H	1.340541	-0.350331	0.737130
O197	O	0.819291	-1.079908	0.215801
O198	O	1.319291	-0.579908	0.715801
H199	H	0.792856	-1.042132	0.189344
H200	H	1.292856	-0.542132	0.689344
O201	O	0.825049	-0.927430	0.221581
O202	O	1.325049	-0.427430	0.721581
H203	H	0.795782	-0.965311	0.192237
H204	H	1.295782	-0.465311	0.692237
O205	O	0.805796	-0.431351	0.919805
O206	O	1.305796	0.068649	1.419805
H207	H	0.775134	-0.399917	0.891174
H208	H	1.275134	0.100083	1.391174
O209	O	0.908016	-0.206509	0.726623
O210	O	1.408016	0.293491	1.226623
H211	H	0.950420	-0.207624	0.696804
H212	H	1.450420	0.292376	1.196804
H213	H	0.968525	-0.256457	0.935241
H214	H	1.468525	0.243543	1.435241
H215	H	0.451983	-0.348396	0.391290
H216	H	0.951983	0.151604	0.891290
O217	O	0.324592	-0.349846	0.406203
O218	O	0.824592	0.150154	0.906203
H219	H	0.273621	-0.348878	0.396779
H220	H	0.773621	0.151122	0.896779
H221	H	0.253538	-0.256505	0.219894
H222	H	0.753538	0.243495	0.719894
H223	H	0.879123	-0.452855	0.725883
H224	H	1.379123	0.047145	1.225883
O225	O	0.805781	-0.431463	0.652176
O226	O	1.305781	0.068537	1.152176
H227	H	0.812809	-0.423902	0.703466
H228	H	1.312809	0.076098	1.203466
O229	O	0.325230	-0.326431	0.172449
O230	O	0.825230	0.173569	0.672449
H231	H	0.359083	-0.322509	0.133340
H232	H	0.859083	0.177491	0.633340
O233	O	0.461243	-0.326470	0.172397
O234	O	0.961243	0.173530	0.672397
H235	H	0.427608	-0.322555	0.133309
H236	H	0.927608	0.177445	0.633309
H237	H	0.804690	-0.738737	0.201252
H238	H	1.304690	-0.238737	0.701252
O239	O	0.979565	-0.244701	0.659422
O240	O	1.479565	0.255299	1.159422
H241	H	1.008638	-0.213478	0.626891
H242	H	1.508638	0.286522	1.126891
O243	O	0.908004	-0.206448	0.862630
O244	O	1.408004	0.293552	1.362630
H245	H	0.906753	-0.217057	0.913223
H246	H	1.406753	0.282943	1.413223
H247	H	0.816817	-0.419631	0.525281
H248	H	1.316817	0.080369	1.025281
