data_functionalizedCrystal
_audit_creation_method	'MofGen! by Chris Wilmer'
_symmetry_space_group_name_H-M	'P1'
_symmetry_Int_Tables_number	1
_symmetry_cell_setting	triclinic
loop_
_symmetry_equiv_pos_as_xyz
  x,y,z
_cell_length_a	23.532407
_cell_length_b	17.699083
_cell_length_c	16.776229
_cell_angle_alpha	90.007545
_cell_angle_beta	90.001810
_cell_angle_gamma	83.065846
loop_
_atom_site_label
_atom_site_type_symbol
_atom_site_fract_x
_atom_site_fract_y
_atom_site_fract_z
O1	O	-0.755525	-0.091879	-0.066190
O2	O	-0.589700	-0.105173	-0.066214
O3	O	-0.677298	0.011687	-0.066194
O4	O	-0.667928	-0.208739	-0.066210
O5	O	-0.677286	0.011694	0.066382
O6	O	-0.589689	-0.105166	0.066363
O7	O	-0.755514	-0.091872	0.066386
Zn8	Zn	-0.672599	-0.098518	0.087424
Zn9	Zn	-0.672615	-0.098527	-0.087252
O10	O	-0.667916	-0.208732	0.066367
C11	C	-0.568478	-0.104831	0.000071
C12	C	-0.505258	-0.103813	0.000063
C13	C	-0.676956	0.039886	0.000094
C14	C	-0.675949	0.123899	0.000094
C15	C	-0.776737	-0.092214	0.000099
C16	C	-0.839957	-0.093232	0.000103
C17	C	-0.106335	-0.166585	0.000094
C18	C	-0.046932	-0.165639	0.000099
O19	O	-0.010354	-0.223829	0.000124
N20	N	-0.024106	-0.096166	0.000103
C21	C	-0.060687	-0.027634	0.000109
O22	O	-0.035817	0.031545	0.000114
C23	C	-0.120089	-0.028580	0.000110
C24	C	-0.142911	-0.098058	0.000099
C25	C	-0.129158	-0.236057	0.000084
C26	C	-0.188557	-0.237002	0.000077
C27	C	-0.225133	-0.168475	0.000081
C28	C	-0.202310	-0.099003	0.000092
C29	C	-0.156668	0.039951	0.000123
C30	C	-0.216073	0.038999	0.000124
C31	C	-0.238896	-0.030479	0.000112
C32	C	-0.298285	-0.031421	0.000090
N33	N	-0.321110	-0.100894	0.000086
C34	C	-0.284534	-0.169421	0.000082
C35	C	0.064061	-0.025652	0.000109
C36	C	0.123462	-0.024705	0.000103
C37	C	0.137213	-0.162710	0.000094
C38	C	0.077811	-0.163657	0.000095
C39	C	0.041236	-0.095125	0.000106
C40	C	-0.409277	-0.171401	0.000068
C41	C	-0.468682	-0.172340	0.000058
C42	C	-0.482427	-0.034335	0.000071
C43	C	-0.423028	-0.033395	0.000077
C44	C	-0.386453	-0.101935	0.000078
O45	O	-0.334897	0.026738	0.000068
O46	O	-0.309412	-0.228591	0.000088
C47	C	-0.668258	-0.236931	0.000077
C48	C	-0.669265	-0.320944	0.000071
N49	N	-0.672593	-0.098511	0.206635
C50	C	-0.727367	0.172781	0.000102
C51	C	-0.726417	0.251719	0.000095
C52	C	-0.674049	0.281774	0.000085
C53	C	-0.622627	0.232886	0.000074
C54	C	-0.623577	0.153949	0.000076
C55	C	-0.618793	0.551230	0.000067
C56	C	-0.617847	0.630173	0.000068
C57	C	-0.721633	0.649000	0.000087
C58	C	-0.722583	0.570063	0.000088
C59	C	-0.671162	0.521181	0.000073
C60	C	-0.672192	0.435587	0.000079
C61	C	-0.673018	0.367366	0.000085
N62	N	-0.672626	-0.098528	-0.206463
C63	C	-0.711393	-0.046787	0.248361
C64	C	-0.711396	-0.046786	0.331813
C65	C	-0.672602	-0.098514	0.373538
C66	C	-0.633798	-0.150241	0.331806
C67	C	-0.633792	-0.150237	0.248356
C68	C	-0.633818	-0.150256	0.668353
C69	C	-0.633828	-0.150257	0.751810
C70	C	-0.711422	-0.046804	0.751811
C71	C	-0.711417	-0.046801	0.668360
C72	C	-0.672611	-0.098525	0.626636
C73	C	-0.672607	-0.098524	0.536147
C74	C	-0.672608	-0.098519	0.464025
H75	H	-0.487260	-0.228920	0.000048
H76	H	-0.576922	0.511439	0.000055
H77	H	-0.579988	0.257363	0.000061
H78	H	-0.742990	-0.004667	0.365786
H79	H	-0.602222	-0.192373	0.634388
H80	H	-0.512218	0.021458	0.000072
H81	H	-0.768287	0.291516	0.000104
H82	H	-0.742986	-0.004667	0.214394
H83	H	-0.581708	0.114149	0.000069
H84	H	-0.743009	-0.004681	0.634390
H85	H	0.034284	0.030159	0.000111
H86	H	-0.575200	0.654640	0.000062
H87	H	-0.379504	-0.227212	0.000071
H88	H	-0.743019	-0.004685	0.785792
H89	H	0.059234	-0.220231	0.000090
H90	H	-0.602197	-0.192356	0.214383
H91	H	-0.602235	-0.192382	0.785781
H92	H	-0.602208	-0.192357	0.365784
H93	H	-0.207132	-0.293578	0.000067
H94	H	-0.770011	0.148316	0.000115
H95	H	-0.099383	-0.291863	0.000083
H96	H	-0.245851	0.094807	0.000133
H97	H	0.167004	-0.218509	0.000094
H98	H	0.142038	0.031871	0.000100
H99	H	-0.404445	0.023179	0.000074
H100	H	-0.765227	0.545597	0.000100
H101	H	-0.138097	0.096527	0.000133
H102	H	-0.763503	0.688809	0.000095
