data_functionalizedCrystal
_audit_creation_method	'MofGen! by Chris Wilmer'
_symmetry_space_group_name_H-M	'P1'
_symmetry_Int_Tables_number	1
_symmetry_cell_setting	triclinic
loop_
_symmetry_equiv_pos_as_xyz
  x,y,z
_cell_length_a	10.654550
_cell_length_b	23.532407
_cell_length_c	9.730223
_cell_angle_alpha	89.990960
_cell_angle_beta	89.999957
_cell_angle_gamma	83.666804
loop_
_atom_site_label
_atom_site_type_symbol
_atom_site_fract_x
_atom_site_fract_y
_atom_site_fract_z
O1	O	1.665305	0.079985	-0.114203
O2	O	1.299585	0.087605	-0.114230
O3	O	1.493473	0.000935	-0.114191
O4	O	1.471417	0.166655	-0.114242
O5	O	1.493461	0.000933	0.114389
O6	O	1.299573	0.087603	0.114350
O7	O	1.665293	0.079982	0.114377
Zn8	Zn	1.482431	0.083792	0.150655
Zn9	Zn	1.482447	0.083795	-0.150508
O10	O	1.471404	0.166652	0.114337
C11	C	1.252799	0.087044	0.000057
C12	C	1.113408	0.085370	0.000048
C13	C	1.032306	0.136400	0.000036
C14	C	0.901335	0.134824	0.000060
C15	C	0.932582	0.031183	0.000103
C16	C	1.063550	0.032760	0.000089
C17	C	1.492905	-0.020286	0.000103
C18	C	1.491217	-0.083514	0.000113
C19	C	1.595364	-0.481938	0.000046
C20	C	1.593795	-0.541349	0.000035
O21	O	1.690341	-0.577464	-0.000009
N22	N	1.478529	-0.564726	0.000028
C23	C	1.364824	-0.528689	0.000017
O24	O	1.266636	-0.554029	0.000008
C25	C	1.366394	-0.469280	0.000018
C26	C	1.481668	-0.445906	0.000039
C27	C	1.710629	-0.458564	0.000066
C28	C	1.712197	-0.399158	0.000079
C29	C	1.598500	-0.363126	0.000072
C30	C	1.483236	-0.386500	0.000052
C31	C	1.252690	-0.433244	-0.000003
C32	C	1.254270	-0.373831	-0.000003
C33	C	1.369544	-0.350458	0.000018
C34	C	1.371107	-0.291061	0.000058
N35	N	1.486374	-0.267684	0.000066
C36	C	1.600070	-0.303716	0.000073
C37	C	1.361535	-0.653453	0.000013
C38	C	1.359964	-0.712861	0.000022
C39	C	1.588936	-0.725517	0.000038
C40	C	1.590506	-0.666108	0.000038
C41	C	1.476802	-0.630076	0.000020
C42	C	1.603355	-0.178958	0.000101
C43	C	1.604913	-0.119546	0.000120
C44	C	1.375942	-0.106896	0.000097
C45	C	1.374383	-0.166303	0.000086
C46	C	1.488100	-0.202333	0.000083
O47	O	1.274613	-0.254911	0.000096
O48	O	1.698241	-0.278369	0.000063
C49	C	1.712079	0.080543	0.000087
C50	C	1.851469	0.082217	0.000087
C51	C	1.471972	0.187873	0.000041
C52	C	1.473661	0.251101	0.000022
N53	N	1.482429	0.083790	0.356192
N54	N	1.482459	0.083793	-0.356045
C55	C	1.568311	0.045429	0.428135
C56	C	1.568324	0.045429	0.572018
C57	C	1.396567	0.122156	0.572002
C58	C	1.396550	0.122153	0.428121
H59	H	1.072896	0.179239	0.000013
O60	O	1.651770	0.008106	0.358475
C61	C	1.727593	-0.025743	0.452835
H62	H	1.676130	-0.026600	0.555405
H63	H	1.747318	-0.071143	0.411288
H64	H	1.820643	-0.006859	0.468114
H65	H	1.638255	0.014191	0.630591
H66	H	1.326648	0.153392	0.630581
O67	O	1.313072	0.159475	0.358439
C68	C	1.237263	0.193329	0.452776
H69	H	1.288746	0.194196	0.555332
H70	H	1.217524	0.238726	0.411175
H71	H	1.144219	0.174443	0.468102
H72	H	0.835306	0.176378	0.000053
H73	H	1.129588	-0.008797	0.000102
O74	O	0.883937	-0.019871	0.000070
C75	C	0.750949	-0.010322	0.000111
H76	H	0.719632	0.033998	-0.043178
H77	H	0.711148	-0.044015	-0.066235
H78	H	0.714531	-0.013226	0.109777
H79	H	1.803219	-0.487896	0.000066
H80	H	1.698787	-0.100519	0.000141
H81	H	1.681514	-0.754865	0.000038
H82	H	1.695954	-0.208288	0.000094
H83	H	1.266096	-0.731886	0.000028
O84	O	1.824285	-0.376551	0.000027
C85	C	1.924286	-0.421103	0.000063
H86	H	1.889588	-0.461589	-0.043215
H87	H	2.004816	-0.408366	-0.066296
H88	H	1.959316	-0.429378	0.109725
O89	O	1.140745	-0.455969	0.000204
C90	C	1.132957	-0.489977	0.118558
H91	H	1.198382	-0.475679	0.201327
H92	H	1.031675	-0.485050	0.158263
H93	H	1.162515	-0.536702	0.091789
O94	O	1.702513	-0.643431	-0.000198
C95	C	1.771790	-0.661809	-0.118558
H96	H	1.704371	-0.674430	-0.201303
H97	H	1.824762	-0.625611	-0.158298
H98	H	1.842254	-0.700244	-0.091785
O99	O	1.250959	-0.618535	0.000076
C100	C	1.148897	-0.651915	0.000036
H101	H	1.181355	-0.696121	0.043308
H102	H	1.069275	-0.630333	0.066398
H103	H	1.113532	-0.656280	-0.109627
O104	O	1.143732	-0.338889	-0.000202
C105	C	1.073731	-0.349537	-0.118616
H106	H	1.105155	-0.394468	-0.158087
H107	H	0.968942	-0.345785	-0.092007
H108	H	1.090489	-0.316970	-0.201504
H109	H	1.280517	-0.185334	0.000106
H110	H	1.283373	-0.077548	0.000097
