data_functionalizedCrystal
_audit_creation_method	'MofGen! by Chris Wilmer'
_symmetry_space_group_name_H-M	'P1'
_symmetry_Int_Tables_number	1
_symmetry_cell_setting	triclinic
loop_
_symmetry_equiv_pos_as_xyz
  x,y,z
_cell_length_a	29.839131
_cell_length_b	29.839134
_cell_length_c	29.839126
_cell_angle_alpha	90.025950
_cell_angle_beta	90.021998
_cell_angle_gamma	90.021992
loop_
_atom_site_label
_atom_site_type_symbol
_atom_site_fract_x
_atom_site_fract_y
_atom_site_fract_z
Zn1	Zn	-0.179130	0.686780	0.254008
Zn2	Zn	0.154203	1.020114	0.587341
Zn3	Zn	0.487537	1.353447	0.920674
Zn4	Zn	-0.254248	0.686695	0.178878
Zn5	Zn	0.079086	1.020028	0.512211
Zn6	Zn	0.412419	1.353361	0.845544
Zn7	Zn	-0.179107	0.611645	0.178890
Zn8	Zn	0.154226	0.944979	0.512223
Zn9	Zn	0.487560	1.278312	0.845557
Zn10	Zn	-0.254208	0.611611	0.253979
Zn11	Zn	0.079125	0.944944	0.587312
Zn12	Zn	0.412458	1.278278	0.920646
O13	O	-0.216673	0.649183	0.216439
O14	O	0.116660	0.982516	0.549772
O15	O	0.449993	1.315850	0.883105
O16	O	-0.189121	0.749636	0.244048
O17	O	0.144213	1.082970	0.577382
O18	O	0.477546	1.416303	0.910715
O19	O	-0.244287	0.676718	0.116012
O20	O	0.089046	1.010051	0.449345
O21	O	0.422380	1.343384	0.782679
O22	O	-0.116243	0.621662	0.188872
O23	O	0.217090	0.954996	0.522205
O24	O	0.550424	1.288329	0.855538
O25	O	-0.244309	0.749573	0.188851
O26	O	0.089024	1.082906	0.522184
O27	O	0.422357	1.416240	0.855517
O28	O	-0.116260	0.676864	0.244060
O29	O	0.217073	1.010197	0.577394
O30	O	0.550407	1.343531	0.910727
O31	O	-0.189082	0.621579	0.116021
O32	O	0.144252	0.954912	0.449355
O33	O	0.477585	1.288246	0.782688
O34	O	-0.189043	0.548774	0.188844
O35	O	0.144290	0.882107	0.522177
O36	O	0.477623	1.215440	0.855511
O37	O	-0.244242	0.621604	0.316850
O38	O	0.089091	0.954937	0.650183
O39	O	0.422424	1.288271	0.983516
O40	O	-0.244220	0.548748	0.244011
O41	O	0.089113	0.882082	0.577345
O42	O	0.422447	1.215415	0.910678
O43	O	-0.189083	0.676831	0.316871
O44	O	0.144251	1.010164	0.650204
O45	O	0.477584	1.343497	0.983538
O46	O	-0.317110	0.676684	0.188823
O47	O	0.016224	1.010018	0.522156
O48	O	0.349557	1.343351	0.855489
O49	O	-0.317081	0.621521	0.243999
O50	O	0.016253	0.954854	0.577333
O51	O	0.349586	1.288187	0.910666
C52	C	-0.216625	0.532460	0.216426
C53	C	0.116708	0.865794	0.549759
C54	C	0.450041	1.199127	0.883093
C55	C	-0.216615	0.482526	0.216431
C56	C	0.116718	0.815859	0.549765
C57	C	0.450051	1.149193	0.883098
C58	C	-0.333396	0.649102	0.216416
C59	C	-0.000063	0.982435	0.549750
C60	C	0.333271	1.315768	0.883083
C61	C	-0.383330	0.649108	0.216422
C62	C	-0.049997	0.982441	0.549755
C63	C	0.283336	1.315775	0.883088
C64	C	-0.187997	0.125967	0.245237
C65	C	0.145337	0.459301	0.578570
C66	C	0.478670	0.792634	0.911903
C67	C	-0.187960	0.313641	0.245226
C68	C	0.145373	0.646974	0.578560
C69	C	0.478706	0.980307	0.911893
O70	O	-0.163570	0.337930	0.269715
O71	O	0.169763	0.671263	0.603049
O72	O	0.503096	1.004596	0.936382
N73	N	-0.216645	0.337081	0.216442
N74	N	0.116688	0.670414	0.549775
N75	N	0.450022	1.003747	0.883109
C76	C	-0.245342	0.313600	0.187660
C77	C	0.087991	0.646933	0.520994
C78	C	0.421324	0.980266	0.854327
O79	O	-0.269743	0.337843	0.163181
O80	O	0.063591	0.671177	0.496514
O81	O	0.396924	1.004510	0.829847
C82	C	-0.245381	0.125928	0.187673
C83	C	0.087953	0.459261	0.521007
C84	C	0.421286	0.792594	0.854340
C85	C	-0.216691	0.102490	0.216456
C86	C	0.116642	0.435823	0.549790
C87	C	0.449976	0.769156	0.883123
C88	C	-0.159310	0.102530	0.274017
C89	C	0.174024	0.435863	0.607351
C90	C	0.507357	0.769196	0.940684
C91	C	-0.159317	0.055614	0.274018
C92	C	0.174016	0.388947	0.607351
C93	C	0.507349	0.722281	0.940685
C94	C	-0.188012	0.032137	0.245238
C95	C	0.145322	0.365470	0.578571
C96	C	0.478655	0.698803	0.911904
C97	C	-0.216699	0.055574	0.216457
C98	C	0.116635	0.388908	0.549790
C99	C	0.449968	0.722241	0.883123
C100	C	-0.274080	0.102448	0.158894
C101	C	0.059253	0.435781	0.492228
C102	C	0.392587	0.769114	0.825561
C103	C	-0.274088	0.055527	0.158901
C104	C	0.059246	0.388860	0.492234
C105	C	0.392579	0.722193	0.825568
C106	C	-0.245398	0.032089	0.187684
C107	C	0.087935	0.365422	0.521017
C108	C	0.421268	0.698755	0.854350
C109	C	-0.245401	-0.014819	0.187677
C110	C	0.087933	0.318515	0.521010
C111	C	0.421266	0.651848	0.854344
N112	N	-0.216716	-0.038259	0.216461
N113	N	0.116617	0.295074	0.549795
N114	N	0.449951	0.628408	0.883128
C115	C	-0.188022	-0.014781	0.245242
C116	C	0.145312	0.318552	0.578575
C117	C	0.478645	0.651885	0.911908
C118	C	-0.245320	0.412130	0.187655
C119	C	0.088014	0.745464	0.520988
C120	C	0.421347	1.078797	0.854322
C121	C	-0.245310	0.459048	0.187651
C122	C	0.088024	0.792382	0.520984
C123	C	0.421357	1.125715	0.854318
C124	C	-0.187928	0.459086	0.245218
C125	C	0.145405	0.792419	0.578551
C126	C	0.478738	1.125752	0.911884
C127	C	-0.187936	0.412167	0.245219
C128	C	0.145397	0.745500	0.578552
C129	C	0.478730	1.078834	0.911886
C130	C	-0.216635	0.388690	0.216439
C131	C	0.116698	0.722024	0.549773
C132	C	0.450031	1.055357	0.883106
C133	C	-0.188040	-0.113307	0.245240
C134	C	0.145294	0.220026	0.578574
C135	C	0.478627	0.553359	0.911907
C136	C	-0.188048	-0.160227	0.245237
C137	C	0.145285	0.173107	0.578570
C138	C	0.478618	0.506440	0.911904
C139	C	-0.245431	-0.160260	0.187672
C140	C	0.087902	0.173073	0.521006
C141	C	0.421235	0.506407	0.854339
C142	C	-0.245421	-0.113345	0.187674
C143	C	0.087912	0.219989	0.521007
C144	C	0.421246	0.553322	0.854340
C145	C	-0.216724	-0.089869	0.216461
C146	C	0.116610	0.243464	0.549795
C147	C	0.449943	0.576797	0.883128
O148	O	-0.269781	-0.039137	0.163204
O149	O	0.063552	0.294197	0.496538
O150	O	0.396885	0.627530	0.829871
O151	O	-0.163632	-0.039033	0.269725
O152	O	0.169701	0.294300	0.603058
O153	O	0.503035	0.627634	0.936391
C154	C	-0.187989	0.172883	0.245236
C155	C	0.145344	0.506216	0.578569
C156	C	0.478678	0.839550	0.911903
C157	C	-0.216676	0.196321	0.216455
C158	C	0.116658	0.529654	0.549788
C159	C	0.449991	0.862987	0.883122
C160	C	-0.245370	0.172843	0.187675
C161	C	0.087963	0.506176	0.521008
C162	C	0.421296	0.839510	0.854341
C163	C	-0.216666	0.243239	0.216451
C164	C	0.116668	0.576572	0.549785
C165	C	0.450001	0.909905	0.883118
C166	C	-0.187971	0.266716	0.245231
C167	C	0.145362	0.600050	0.578565
C168	C	0.478695	0.933383	0.911898
C169	C	-0.159287	0.243276	0.274016
C170	C	0.174046	0.576609	0.607349
C171	C	0.507380	0.909943	0.940682
C172	C	-0.159295	0.196361	0.274016
C173	C	0.174039	0.529694	0.607350
C174	C	0.507372	0.863027	0.940683
C175	C	-0.274055	0.196283	0.158891
C176	C	0.059279	0.529617	0.492224
C177	C	0.392612	0.862950	0.825557
C178	C	-0.274044	0.243199	0.158892
C179	C	0.059289	0.576532	0.492225
C180	C	0.392622	0.909865	0.825559
C181	C	-0.245350	0.266676	0.187672
C182	C	0.087983	0.600010	0.521006
C183	C	0.421317	0.933343	0.854339
C184	C	-0.692976	0.677959	0.187750
C185	C	-0.359643	1.011292	0.521083
C186	C	-0.026310	1.344625	0.854417
C187	C	-0.880649	0.678014	0.187768
C188	C	-0.547316	1.011348	0.521101
C189	C	-0.213983	1.344681	0.854434
O190	O	-0.904916	0.702480	0.163373
O191	O	-0.571583	1.035813	0.496706
O192	O	-0.238249	1.369146	0.830039
N193	N	-0.904115	0.649276	0.216472
N194	N	-0.570782	0.982609	0.549806
N195	N	-0.237449	1.315943	0.883139
C196	C	-0.880660	0.620524	0.245177
C197	C	-0.547327	0.953857	0.578510
C198	C	-0.213994	1.287191	0.911844
O199	O	-0.904926	0.596085	0.269596
O200	O	-0.571593	0.929418	0.602929
O201	O	-0.238259	1.262752	0.936263
C202	C	-0.692988	0.620471	0.245162
C203	C	-0.359655	0.953804	0.578495
C204	C	-0.026322	1.287138	0.911828
C205	C	-0.669525	0.649208	0.216452
C206	C	-0.336191	0.982541	0.549785
C207	C	-0.002858	1.315875	0.883118
C208	C	-0.669512	0.706694	0.159043
C209	C	-0.336179	1.040027	0.492376
C210	C	-0.002846	1.373360	0.825709
C211	C	-0.622597	0.706678	0.159037
C212	C	-0.289264	1.040011	0.492370
C213	C	0.044070	1.373344	0.825704
C214	C	-0.599145	0.677927	0.187738
C215	C	-0.265812	1.011260	0.521072
C216	C	0.067521	1.344594	0.854405
C217	C	-0.622609	0.649192	0.216446
C218	C	-0.289276	0.982525	0.549779
C219	C	0.044058	1.315859	0.883112
C220	C	-0.669534	0.591722	0.273868
C221	C	-0.336201	0.925055	0.607202
C222	C	-0.002868	1.258388	0.940535
C223	C	-0.622613	0.591712	0.273863
C224	C	-0.289280	0.925045	0.607196
C225	C	0.044054	1.258378	0.940529
C226	C	-0.599149	0.620449	0.245153
C227	C	-0.265816	0.953782	0.578486
C228	C	0.067517	1.287115	0.911819
C229	C	-0.552242	0.620425	0.245141
C230	C	-0.218909	0.953759	0.578475
C231	C	0.114425	1.287092	0.911808
N232	N	-0.528776	0.649164	0.216437
N233	N	-0.195442	0.982497	0.549770
N234	N	0.137891	1.315830	0.883103
C235	C	-0.552227	0.677914	0.187735
C236	C	-0.218894	1.011248	0.521068
C237	C	0.114439	1.344581	0.854402
C238	C	-0.979191	0.620553	0.245183
C239	C	-0.645858	0.953886	0.578516
C240	C	-0.312524	1.287220	0.911849
C241	C	-1.026109	0.620566	0.245186
C242	C	-0.692776	0.953899	0.578519
C243	C	-0.359442	1.287232	0.911853
C244	C	-1.026094	0.678057	0.187777
C245	C	-0.692761	1.011390	0.521110
C246	C	-0.359428	1.344723	0.854444
C247	C	-0.979176	0.678041	0.187772
C248	C	-0.645842	1.011375	0.521105
C249	C	-0.312509	1.344708	0.854438
C250	C	-0.955725	0.649291	0.216478
C251	C	-0.622392	0.982625	0.549811
C252	C	-0.289058	1.315958	0.883144
C253	C	-0.453702	0.677879	0.187725
C254	C	-0.120368	1.011212	0.521058
C255	C	0.212965	1.344545	0.854391
C256	C	-0.406782	0.677859	0.187720
C257	C	-0.073449	1.011192	0.521054
C258	C	0.259885	1.344526	0.854387
C259	C	-0.406801	0.620370	0.245131
C260	C	-0.073467	0.953703	0.578464
C261	C	0.259866	1.287036	0.911797
C262	C	-0.453716	0.620388	0.245134
C263	C	-0.120383	0.953721	0.578467
C264	C	0.212951	1.287054	0.911801
C265	C	-0.477165	0.649146	0.216429
C266	C	-0.143832	0.982479	0.549763
C267	C	0.189501	1.315812	0.883096
O268	O	-0.527946	0.595976	0.269527
O269	O	-0.194613	0.929310	0.602860
O270	O	0.138721	1.262643	0.936194
O271	O	-0.527954	0.702357	0.163327
O272	O	-0.194620	1.035690	0.496660
O273	O	0.138713	1.369024	0.829993
C274	C	-0.739892	0.677975	0.187756
C275	C	-0.406558	1.011308	0.521089
C276	C	-0.073225	1.344641	0.854423
C277	C	-0.763355	0.649240	0.216463
C278	C	-0.430022	0.982573	0.549797
C279	C	-0.096689	1.315906	0.883130
C280	C	-0.739904	0.620489	0.245165
C281	C	-0.406570	0.953822	0.578498
C282	C	-0.073237	1.287156	0.911831
C283	C	-0.810273	0.649252	0.216467
C284	C	-0.476940	0.982586	0.549800
C285	C	-0.143607	1.315919	0.883133
C286	C	-0.833725	0.678003	0.187765
C287	C	-0.500392	1.011336	0.521098
C288	C	-0.167058	1.344670	0.854432
C289	C	-0.810259	0.706741	0.159060
C290	C	-0.476925	1.040075	0.492393
C291	C	-0.143592	1.373408	0.825727
C292	C	-0.763343	0.706725	0.159054
C293	C	-0.430010	1.040059	0.492388
C294	C	-0.096677	1.373392	0.825721
C295	C	-0.763370	0.591751	0.273870
C296	C	-0.430037	0.925084	0.607203
C297	C	-0.096703	1.258417	0.940536
C298	C	-0.810285	0.591769	0.273873
C299	C	-0.476952	0.925102	0.607206
C300	C	-0.143619	1.258435	0.940539
C301	C	-0.833737	0.620519	0.245171
C302	C	-0.500404	0.953853	0.578505
C303	C	-0.167070	1.287186	0.911838
C304	C	-0.099495	0.649277	0.216471
C305	C	0.233838	0.982610	0.549804
C306	C	0.567172	1.315943	0.883137
C307	C	-0.049561	0.649316	0.216484
C308	C	0.283773	0.982650	0.549818
C309	C	0.617106	1.315983	0.883151
C310	C	-0.216661	0.649223	0.333617
C311	C	0.116673	0.982556	0.666950
C312	C	0.450006	1.315890	1.000284
C313	C	-0.216655	0.649240	0.383551
C314	C	0.116678	0.982574	0.716885
C315	C	0.450012	1.315907	1.050218
C316	C	-0.216722	0.766361	0.216451
C317	C	0.116611	1.099694	0.549785
C318	C	0.449945	1.433028	0.883118
C319	C	-0.216743	0.816296	0.216457
C320	C	0.116591	1.149629	0.549790
C321	C	0.449924	1.482962	0.883123
C322	C	-0.216654	0.649169	0.099716
C323	C	0.116680	0.982502	0.433049
C324	C	0.450013	1.315835	0.766383
C325	C	-0.216533	0.649238	0.049782
C326	C	0.116801	0.982572	0.383115
C327	C	0.450134	1.315905	0.716449
C328	C	-0.245341	0.677945	0.740137
C329	C	0.087993	1.011278	1.073470
C330	C	0.421326	1.344611	1.406804
C331	C	-0.245372	0.677946	0.552464
C332	C	0.087961	1.011279	0.885797
C333	C	0.421295	1.344612	1.219130
O334	O	-0.269832	0.702347	0.528198
O335	O	0.063501	1.035680	0.861531
O336	O	0.396835	1.369013	1.194864
N337	N	-0.216633	0.649238	0.528997
N338	N	0.116700	0.982572	0.862330
N339	N	0.450033	1.315905	1.195663
C340	C	-0.187887	0.620527	0.552450
C341	C	0.145446	0.953860	0.885784
C342	C	0.478780	1.287193	1.219117
O343	O	-0.163447	0.596106	0.528184
O344	O	0.169886	0.929439	0.861517
O345	O	0.503220	1.262773	1.194851
C346	C	-0.187858	0.620524	0.740123
C347	C	0.145475	0.953857	1.073456
C348	C	0.478808	1.287191	1.406789
C349	C	-0.216596	0.649236	0.763588
C350	C	0.116738	0.982570	1.096921
C351	C	0.450071	1.315903	1.430254
C352	C	-0.274076	0.706655	0.763602
C353	C	0.059257	1.039988	1.096935
C354	C	0.392591	1.373321	1.430268
C355	C	-0.274066	0.706656	0.810517
C356	C	0.059267	1.039989	1.143851
C357	C	0.392601	1.373322	1.477184
C358	C	-0.245321	0.677947	0.833968
C359	C	0.088012	1.011281	1.167301
C360	C	0.421346	1.344614	1.500635
C361	C	-0.216586	0.649238	0.810503
C362	C	0.116748	0.982571	1.143836
C363	C	0.450081	1.315904	1.477170
C364	C	-0.159115	0.591810	0.763576
C365	C	0.174219	0.925144	1.096909
C366	C	0.507552	1.258477	1.430242
C367	C	-0.159111	0.591812	0.810497
C368	C	0.174222	0.925145	1.143830
C369	C	0.507556	1.258478	1.477164
C370	C	-0.187848	0.620524	0.833962
C371	C	0.145485	0.953857	1.167295
C372	C	0.478819	1.287191	1.500628
C373	C	-0.187831	0.620530	0.880869
C374	C	0.145502	0.953864	1.214202
C375	C	0.478836	1.287197	1.547536
N376	N	-0.216569	0.649238	0.904336
N377	N	0.116764	0.982571	1.237670
N378	N	0.450097	1.315904	1.571003
C379	C	-0.245315	0.677946	0.880886
C380	C	0.088019	1.011280	1.214219
C381	C	0.421352	1.344613	1.547552
C382	C	-0.187904	0.620531	0.453920
C383	C	0.145430	0.953864	0.787253
C384	C	0.478763	1.287197	1.120587
C385	C	-0.187910	0.620532	0.407002
C386	C	0.145423	0.953865	0.740335
C387	C	0.478757	1.287199	1.073669
C388	C	-0.245396	0.677950	0.407019
C389	C	0.087938	1.011284	0.740352
C390	C	0.421271	1.344617	1.073685
C391	C	-0.245387	0.677951	0.453937
C392	C	0.087947	1.011284	0.787271
C393	C	0.421280	1.344618	1.120604
C394	C	-0.216642	0.649238	0.477387
C395	C	0.116691	0.982571	0.810720
C396	C	0.450025	1.315905	1.144054
C397	C	-0.245291	0.677947	0.979412
C398	C	0.088042	1.011280	1.312745
C399	C	0.421375	1.344614	1.646078
C400	C	-0.245278	0.677947	1.026331
C401	C	0.088056	1.011280	1.359665
C402	C	0.421389	1.344614	1.692998
C403	C	-0.187794	0.620527	1.026311
C404	C	0.145539	0.953860	1.359644
C405	C	0.478873	1.287194	1.692977
C406	C	-0.187806	0.620528	0.979395
C407	C	0.145528	0.953862	1.312728
C408	C	0.478861	1.287195	1.646062
C409	C	-0.216558	0.649240	0.955947
C410	C	0.116775	0.982573	1.289280
C411	C	0.450108	1.315907	1.622613
O412	O	-0.163387	0.596139	0.905164
O413	O	0.169946	0.929472	1.238497
O414	O	0.503279	1.262805	1.571831
O415	O	-0.269758	0.702356	0.905160
O416	O	0.063576	1.035689	1.238494
O417	O	0.396909	1.369023	1.571827
C418	C	-0.245351	0.677944	0.693221
C419	C	0.087983	1.011277	1.026555
C420	C	0.421316	1.344610	1.359888
C421	C	-0.216615	0.649234	0.669757
C422	C	0.116718	0.982567	1.003090
C423	C	0.450051	1.315901	1.336423
C424	C	-0.187870	0.620525	0.693207
C425	C	0.145463	0.953859	1.026541
C426	C	0.478796	1.287192	1.359874
C427	C	-0.216622	0.649235	0.622839
C428	C	0.116712	0.982568	0.956172
C429	C	0.450045	1.315902	1.289505
C430	C	-0.245367	0.677943	0.599388
C431	C	0.087966	1.011277	0.932721
C432	C	0.421300	1.344610	1.266055
C433	C	-0.274105	0.706651	0.622855
C434	C	0.059228	1.039984	0.956189
C435	C	0.392561	1.373317	1.289522
C436	C	-0.274096	0.706652	0.669771
C437	C	0.059238	1.039985	1.003104
C438	C	0.392571	1.373319	1.336437
C439	C	-0.159132	0.591818	0.669740
C440	C	0.174202	0.925151	1.003073
C441	C	0.507535	1.258485	1.336407
C442	C	-0.159143	0.591820	0.622825
C443	C	0.174190	0.925153	0.956158
C444	C	0.507523	1.258486	1.289491
C445	C	-0.187889	0.620528	0.599374
C446	C	0.145445	0.953861	0.932707
C447	C	0.478778	1.287195	1.266041
H448	H	-0.164684	-0.179308	0.268675
H449	H	0.168650	0.154026	0.602009
H450	H	0.501983	0.487359	0.935342
C451	C	-1.051914	0.588949	0.276765
C452	C	-0.718580	0.922282	0.610098
C453	C	-0.385247	1.255615	0.943432
N454	N	-1.071348	0.565135	0.300553
N455	N	-0.738015	0.898469	0.633887
N456	N	-0.404682	1.231802	0.967220
H457	H	-0.164504	0.597157	0.387901
H458	H	0.168829	0.930490	0.721234
H459	H	0.502163	1.263823	1.054568
C460	C	-0.127738	0.128348	0.305678
C461	C	0.205595	0.461681	0.639012
C462	C	0.538929	0.795014	0.972345
N463	N	-0.103953	0.147791	0.329524
N464	N	0.229381	0.481124	0.662857
N465	N	0.562714	0.814457	0.996191
C466	C	-0.127487	0.560226	0.836289
C467	C	0.205846	0.893559	1.169622
C468	C	0.539179	1.226892	1.502955
N469	N	-0.103667	0.536437	0.855714
N470	N	0.229666	0.869770	1.189048
N471	N	0.563000	1.203103	1.522381
H472	H	-0.297442	0.121523	0.135456
H473	H	0.035891	0.454856	0.468790
H474	H	0.369224	0.788189	0.802123
H475	H	-0.297460	0.036414	0.135466
H476	H	0.035873	0.369747	0.468799
H477	H	0.369207	0.703081	0.802132
C478	C	-0.276916	0.709536	0.953625
C479	C	0.056418	1.042869	1.286959
C480	C	0.389751	1.376202	1.620292
N481	N	-0.300732	0.733332	0.934203
N482	N	0.032601	1.066665	1.267537
N483	N	0.365935	1.399998	1.600870
C484	C	-0.695334	0.560110	0.305453
C485	C	-0.362001	0.893443	0.638787
C486	C	-0.028667	1.226776	0.972120
N487	N	-0.714765	0.536298	0.329246
N488	N	-0.381432	0.869631	0.662579
N489	N	-0.048099	1.202965	0.995913
H490	H	-0.135933	0.177282	0.297454
H491	H	0.197401	0.510615	0.630788
H492	H	0.530734	0.843948	0.964121
H493	H	-0.744242	0.730126	0.135676
H494	H	-0.410909	1.063459	0.469009
H495	H	-0.077576	1.396792	0.802343
H496	H	-0.688602	0.730108	0.135670
H497	H	-0.355268	1.063442	0.469004
H498	H	-0.021935	1.396775	0.802337
C499	C	-0.305690	0.738250	0.737813
C500	C	0.027643	1.071583	1.071147
C501	C	0.360977	1.404916	1.404480
N502	N	-0.329498	0.762055	0.718393
N503	N	0.003835	1.095388	1.051726
N504	N	0.337169	1.428722	1.385059
C505	C	-0.479527	0.588774	0.276714
C506	C	-0.146194	0.922108	0.610048
C507	C	0.187140	1.255441	0.943381
N508	N	-0.498965	0.564966	0.300505
N509	N	-0.165631	0.898299	0.633839
N510	N	0.167702	1.231633	0.967172
C511	C	-0.836065	0.738367	0.127488
C512	C	-0.502731	1.071700	0.460821
C513	C	-0.169398	1.405033	0.794155
N514	N	-0.855504	0.762187	0.103711
N515	N	-0.522171	1.095521	0.437044
N516	N	-0.188837	1.428854	0.770377
H517	H	-1.045197	0.701467	0.164407
H518	H	-0.711863	1.034800	0.497740
H519	H	-0.378530	1.368133	0.831074
H520	H	-0.960101	0.597140	0.268559
H521	H	-0.626767	0.930474	0.601892
H522	H	-0.293434	1.263807	0.935226
H523	H	-0.829386	0.568364	0.297251
H524	H	-0.496052	0.901697	0.630585
H525	H	-0.162719	1.235030	0.963918
C526	C	-0.276894	0.709533	1.052140
C527	C	0.056440	1.042866	1.385473
C528	C	0.389773	1.376199	1.718806
N529	N	-0.300708	0.733321	1.071577
N530	N	0.032626	1.066654	1.404910
N531	N	0.365959	1.399988	1.738244
H532	H	-0.297422	0.177173	0.135454
H533	H	0.035911	0.510506	0.468787
H534	H	0.369245	0.843839	0.802121
C535	C	-0.156191	0.588946	0.953583
C536	C	0.177142	0.922279	1.286916
C537	C	0.510475	1.255613	1.620250
N538	N	-0.132382	0.565154	0.934145
N539	N	0.200951	0.898487	1.267478
N540	N	0.534285	1.231820	1.600811
H541	H	-0.387699	0.596960	0.268498
H542	H	-0.054366	0.930293	0.601831
H543	H	0.278968	1.263626	0.935165
H544	H	-0.297406	0.262278	0.135449
H545	H	0.035927	0.595611	0.468783
H546	H	0.369261	0.928945	0.802116
C547	C	-0.380975	0.709471	0.156134
C548	C	-0.047641	1.042804	0.489467
C549	C	0.285692	1.376137	0.822800
N550	N	-0.361538	0.733280	0.132343
N551	N	-0.028205	1.066613	0.465676
N552	N	0.305128	1.399947	0.799009
H553	H	-0.164671	-0.094199	0.268682
H554	H	0.168662	0.239134	0.602015
H555	H	0.501995	0.572468	0.935348
C556	C	-0.305684	0.738237	0.836322
C557	C	0.027649	1.071570	1.169656
C558	C	0.360982	1.404904	1.502989
N559	N	-0.329503	0.762024	0.855756
N560	N	0.003830	1.095357	1.189089
N561	N	0.337164	1.428691	1.522423
C562	C	-0.277002	0.709534	0.479744
C563	C	0.056331	1.042867	0.813077
C564	C	0.389664	1.376200	1.146411
N565	N	-0.300818	0.733322	0.499180
N566	N	0.032515	1.066655	0.832513
N567	N	0.365848	1.399988	1.165846
H568	H	-0.164495	0.597148	0.473008
H569	H	0.168838	0.930481	0.806342
H570	H	0.502172	1.263814	1.139675
H571	H	-0.744279	0.568339	0.297242
H572	H	-0.410946	0.901672	0.630576
H573	H	-0.077613	1.235006	0.963909
H574	H	-0.603522	0.568300	0.297240
H575	H	-0.270188	0.901634	0.630573
H576	H	0.063145	1.234967	0.963907
C577	C	-0.277018	0.709527	0.381214
C578	C	0.056315	1.042861	0.714547
C579	C	0.389649	1.376194	1.047881
N580	N	-0.300837	0.733307	0.361776
N581	N	0.032496	1.066640	0.695109
N582	N	0.365829	1.399974	1.028443
H583	H	-0.135715	0.568429	0.744479
H584	H	0.197619	0.901762	1.077812
H585	H	0.530952	1.235096	1.411145
C586	C	-0.156379	0.386390	0.276885
C587	C	0.176954	0.719723	0.610218
C588	C	0.510288	1.053057	0.943552
N589	N	-0.132610	0.366977	0.300738
N590	N	0.200724	0.700310	0.634072
N591	N	0.534057	1.033643	0.967405
H592	H	-0.164389	0.597155	1.045413
H593	H	0.168944	0.930488	1.378746
H594	H	0.502277	1.263821	1.712079
C595	C	-0.276979	-0.087562	0.156010
C596	C	0.056354	0.245771	0.489343
C597	C	0.389688	0.579104	0.822676
N598	N	-0.300753	-0.068146	0.132163
N599	N	0.032581	0.265187	0.465496
N600	N	0.365914	0.598520	0.798830
C601	C	-0.127761	0.029839	0.305686
C602	C	0.205573	0.363172	0.639020
C603	C	0.538906	0.696505	0.972353
N604	N	-0.103992	0.010428	0.329542
N605	N	0.229341	0.343761	0.662875
N606	N	0.562674	0.677094	0.996209
C607	C	-0.305726	0.738229	0.597051
C608	C	0.027607	1.071563	0.930384
C609	C	0.360941	1.404896	1.263717
N610	N	-0.329543	0.762011	0.577612
N611	N	0.003790	1.095344	0.910945
N612	N	0.337123	1.428677	1.244279
H613	H	-0.472789	0.701297	0.164352
H614	H	-0.139455	1.034630	0.497685
H615	H	0.193878	1.367964	0.831019
H616	H	-0.297496	0.730033	0.688872
H617	H	0.035837	1.063366	1.022205
H618	H	0.369170	1.396699	1.355538
H619	H	-0.135738	0.568439	0.603723
H620	H	0.197596	0.901773	0.937057
H621	H	0.530929	1.235106	1.270390
H622	H	-0.603495	0.730079	0.135660
H623	H	-0.270162	1.063412	0.468994
H624	H	0.063171	1.396746	0.802327
C625	C	-0.127504	0.560239	0.695529
C626	C	0.205829	0.893572	1.028863
C627	C	0.539163	1.226905	1.362196
N628	N	-0.103677	0.536454	0.714952
N629	N	0.229656	0.869787	1.048285
N630	N	0.562990	1.203121	1.381619
H631	H	-0.268667	0.478127	0.164208
H632	H	0.064667	0.811461	0.497542
H633	H	0.398000	1.144794	0.830875
C634	C	-0.156367	0.484920	0.276879
C635	C	0.176967	0.818253	0.610212
C636	C	0.510300	1.151586	0.943545
N637	N	-0.132598	0.504380	0.300727
N638	N	0.200735	0.837714	0.634061
N639	N	0.534068	1.171047	0.967394
H640	H	-0.960074	0.701442	0.164394
H641	H	-0.626741	1.034775	0.497727
H642	H	-0.293408	1.368108	0.831060
C643	C	-0.276888	0.386312	0.155987
C644	C	0.056446	0.719645	0.489321
C645	C	0.389779	1.052979	0.822654
N646	N	-0.300662	0.366867	0.132132
N647	N	0.032671	0.700201	0.465465
N648	N	0.366005	1.033534	0.798799
H649	H	-0.268792	-0.179384	0.164238
H650	H	0.064541	0.153949	0.497572
H651	H	0.397875	0.487283	0.830905
H652	H	-0.135921	0.262400	0.297448
H653	H	0.197412	0.595733	0.630781
H654	H	0.530746	0.929066	0.964115
