data_functionalizedCrystal
_audit_creation_method	'MofGen! by Chris Wilmer'
_symmetry_space_group_name_H-M	'P1'
_symmetry_Int_Tables_number	1
_symmetry_cell_setting	triclinic
loop_
_symmetry_equiv_pos_as_xyz
  x,y,z
_cell_length_a	12.759401
_cell_length_b	25.639239
_cell_length_c	25.639234
_cell_angle_alpha	89.978894
_cell_angle_beta	89.992193
_cell_angle_gamma	90.038847
loop_
_atom_site_label
_atom_site_type_symbol
_atom_site_fract_x
_atom_site_fract_y
_atom_site_fract_z
Zn1	Zn	1.605969	-0.208200	-0.295575
Zn2	Zn	1.605823	-0.295622	-0.208140
Zn3	Zn	1.430304	-0.208203	-0.208158
Zn4	Zn	1.430186	-0.295607	-0.295548
O5	O	1.518071	-0.251908	-0.251855
O6	O	1.752971	-0.219802	-0.283981
O7	O	1.582528	-0.284034	-0.134977
O8	O	1.453717	-0.135037	-0.219773
O9	O	1.752863	-0.284031	-0.219742
O10	O	1.582778	-0.135035	-0.283998
O11	O	1.453575	-0.219807	-0.134990
O12	O	1.283268	-0.219792	-0.219746
O13	O	1.453516	-0.284004	-0.368717
O14	O	1.283181	-0.284007	-0.283951
O15	O	1.582663	-0.219787	-0.368737
O16	O	1.582414	-0.368786	-0.219716
O17	O	1.453374	-0.368774	-0.283934
C18	C	1.245103	-0.251898	-0.251848
C19	C	1.128327	-0.251907	-0.251858
C20	C	1.073447	-0.285397	-0.285234
C21	C	0.963723	-0.285404	-0.285240
C22	C	0.963768	-0.218428	-0.218488
C23	C	1.073490	-0.218420	-0.218485
C24	C	1.128284	-0.318884	-0.318606
C25	C	1.073404	-0.352378	-0.351985
C26	C	0.963680	-0.352384	-0.351990
C27	C	0.908836	-0.318898	-0.318617
C28	C	1.517894	-0.387751	-0.251831
C29	C	1.517915	-0.445865	-0.251839
C30	C	1.585437	-0.806221	-0.218474
C31	C	1.585478	-0.860825	-0.218481
O32	O	1.642704	-0.889057	-0.190086
N33	N	1.518255	-0.888147	-0.251890
C34	C	1.450996	-0.860861	-0.285298
O35	O	1.393822	-0.889115	-0.313716
C36	C	1.450961	-0.806258	-0.285293
C37	C	1.518180	-0.778939	-0.251878
C38	C	1.652651	-0.778902	-0.185062
C39	C	1.652609	-0.724302	-0.185054
C40	C	1.585352	-0.697020	-0.218459
C41	C	1.518138	-0.724339	-0.251871
C42	C	1.383707	-0.778974	-0.318704
C43	C	1.383679	-0.724367	-0.318696
C44	C	1.450898	-0.697048	-0.285281
C45	C	1.450839	-0.642457	-0.285268
N46	N	1.518061	-0.615135	-0.251858
C47	C	1.585317	-0.642417	-0.218454
C48	C	1.451075	-0.975532	-0.285306
C49	C	1.451103	-1.030134	-0.285309
C50	C	1.585587	-1.030095	-0.218492
C51	C	1.585552	-0.975491	-0.218487
C52	C	1.518297	-0.948211	-0.251897
C53	C	1.585223	-0.527752	-0.218440
C54	C	1.585171	-0.473146	-0.218434
C55	C	1.450692	-0.473191	-0.285253
C56	C	1.450739	-0.527792	-0.285257
C57	C	1.518013	-0.555071	-0.251849
O58	O	1.393644	-0.614191	-0.313649
O59	O	1.642491	-0.614157	-0.190045
C60	C	1.792104	-0.251918	-0.251863
C61	C	1.908881	-0.251922	-0.251866
C62	C	1.518093	-0.251893	-0.388228
C63	C	1.518103	-0.251887	-0.446342
C64	C	1.518277	-0.115535	-0.251891
C65	C	1.518365	-0.057421	-0.251906
C66	C	1.450926	-0.285259	-0.697520
C67	C	1.450908	-0.285271	-0.642915
O68	O	1.393691	-0.313697	-0.614665
N69	N	1.518143	-0.251845	-0.615616
C70	C	1.585393	-0.218401	-0.642924
O71	O	1.642580	-0.189970	-0.614691
C72	C	1.585406	-0.218387	-0.697528
C73	C	1.518173	-0.251819	-0.724824
C74	C	1.383699	-0.318688	-0.724816
C75	C	1.383719	-0.318677	-0.779416
C76	C	1.450966	-0.285237	-0.806721
C77	C	1.518194	-0.251808	-0.779425
C78	C	1.652650	-0.184941	-0.724835
C79	C	1.652656	-0.184929	-0.779442
C80	C	1.585424	-0.218361	-0.806738
C81	C	1.585461	-0.218356	-0.861329
N82	N	1.518226	-0.251782	-0.888628
C83	C	1.450978	-0.285223	-0.861324
C84	C	1.585361	-0.218432	-0.528254
C85	C	1.585355	-0.218448	-0.473651
C86	C	1.450867	-0.285318	-0.473646
C87	C	1.450880	-0.285304	-0.528249
C88	C	1.518126	-0.251858	-0.555553
C89	C	1.451026	-0.285197	-0.975989
C90	C	1.451055	-0.285184	-1.030595
C91	C	1.585538	-0.218313	-1.030595
C92	C	1.585514	-0.218327	-0.975995
C93	C	1.518249	-0.251771	-0.948693
O94	O	1.642645	-0.189943	-0.889615
O95	O	1.393792	-0.313644	-0.889565
C96	C	1.518109	-0.251885	-0.116013
C97	C	1.518303	-0.251744	-0.057899
H98	H	0.819491	-0.318901	-0.318629
H99	H	1.640267	-0.191108	-0.953769
H100	H	0.919105	-0.191166	-0.191317
H101	H	1.118174	-0.191145	-0.191311
O102	O	1.650748	-0.186018	-0.554833
C103	C	1.718589	-0.215778	-0.586405
H104	H	1.681477	-0.255397	-0.594585
H105	H	1.796430	-0.221533	-0.565358
C106	C	1.783259	-0.138335	-0.628226
C107	C	1.737673	-0.186993	-0.638276
H108	H	1.795036	-0.120578	-0.660222
H109	H	1.737557	-0.118284	-0.606954
H110	H	1.848122	-0.143138	-0.610686
H111	H	1.672807	-0.182189	-0.655810
H112	H	1.783366	-0.207042	-0.659552
O113	O	1.718161	-0.805405	-0.152700
C114	C	1.785988	-0.836930	-0.182517
H115	H	1.792314	-0.820461	-0.223704
H116	H	1.753599	-0.878343	-0.184284
C117	C	1.887516	-0.857899	-0.106475
C118	C	1.895293	-0.837669	-0.157061
H119	H	1.954940	-0.858357	-0.090772
H120	H	1.841818	-0.836662	-0.086387
H121	H	1.860522	-0.892408	-0.107955
H122	H	1.922274	-0.803158	-0.155580
H123	H	1.940998	-0.858900	-0.177149
O124	O	1.717964	-0.697710	-0.152672
C125	C	1.785777	-0.666088	-0.182466
H126	H	1.748655	-0.657903	-0.222069
H127	H	1.863635	-0.687094	-0.188251
C128	C	1.850418	-0.624281	-0.105056
C129	C	1.804820	-0.614224	-0.153697
H130	H	1.862169	-0.592290	-0.087310
H131	H	1.804735	-0.645586	-0.084983
H132	H	1.915295	-0.641787	-0.109884
H133	H	1.739939	-0.596724	-0.148868
H134	H	1.850493	-0.592914	-0.173769
O135	O	0.910322	-0.384841	-0.384470
C136	C	0.846882	-0.355131	-0.418290
H137	H	0.879993	-0.313954	-0.421595
H138	H	0.763720	-0.353311	-0.402132
C139	C	0.804528	-0.431331	-0.468534
C140	C	0.845200	-0.380758	-0.472598
H141	H	0.803486	-0.447139	-0.502034
H142	H	0.847265	-0.451348	-0.445748
H143	H	0.735230	-0.429808	-0.455067
H144	H	0.914501	-0.382282	-0.486059
H145	H	0.802474	-0.360741	-0.495388
H146	H	1.396357	-1.052373	-0.312514
O147	O	1.650572	-0.446690	-0.185957
C148	C	1.709925	-0.482483	-0.156468
H149	H	1.713557	-0.521393	-0.177893
H150	H	1.671513	-0.488332	-0.116744
C151	C	1.817278	-0.413332	-0.122663
C152	C	1.821746	-0.461120	-0.148979
H153	H	1.886253	-0.400153	-0.118041
H154	H	1.777289	-0.389217	-0.142528
H155	H	1.785264	-0.418212	-0.089562
H156	H	1.853748	-0.456237	-0.182082
H157	H	1.861743	-0.485233	-0.129119
O158	O	1.650965	-1.056682	-0.186129
C159	C	1.636596	-1.110733	-0.193313
H160	H	1.602031	-1.118171	-0.233630
H161	H	1.580802	-1.126304	-0.162251
C162	C	1.785416	-1.129560	-0.139142
C163	C	1.742971	-1.138695	-0.188662
H164	H	1.851031	-1.146809	-0.136270
H165	H	1.795095	-1.093145	-0.134299
H166	H	1.738910	-1.142535	-0.113262
H167	H	1.789470	-1.125714	-0.214540
H168	H	1.733302	-1.175109	-0.193508
H169	H	1.707398	-0.157717	-0.702620
H170	H	1.328913	-0.702157	-0.345904
H171	H	1.396244	-0.312425	-0.953767
H172	H	1.396132	-0.312527	-0.550470
H173	H	1.396299	-0.953323	-0.312511
O174	O	1.718082	-0.152423	-0.805883
C175	C	1.777392	-0.122912	-0.770077
H176	H	1.780982	-0.144338	-0.731151
H177	H	1.738972	-0.083204	-0.764275
C178	C	1.884820	-0.089056	-0.839192
C179	C	1.889237	-0.115374	-0.791385
H180	H	1.953810	-0.084404	-0.852336
H181	H	1.844859	-0.108937	-0.863316
H182	H	1.852798	-0.055969	-0.834351
H183	H	1.921246	-0.148463	-0.796227
H184	H	1.929206	-0.095499	-0.767262
O185	O	1.318308	-0.805527	-0.351093
C186	C	1.250517	-0.837174	-0.321313
H187	H	1.244060	-0.820749	-0.280127
H188	H	1.283027	-0.878543	-0.319535
C189	C	1.149203	-0.858223	-0.397407
C190	C	1.141265	-0.838047	-0.346823
H191	H	1.081812	-0.858763	-0.413143
H192	H	1.194876	-0.836903	-0.417470
H193	H	1.176299	-0.892694	-0.395918
H194	H	1.114182	-0.803573	-0.348313
H195	H	1.095584	-0.859360	-0.326760
H196	H	1.396007	-0.550036	-0.312468
O197	O	1.385518	-0.446658	-0.317757
C198	C	1.445282	-0.415018	-0.351532
H199	H	1.528031	-0.431437	-0.354795
H200	H	1.448906	-0.373644	-0.335358
C201	C	1.292257	-0.394003	-0.401859
C202	C	1.393888	-0.414171	-0.405870
H203	H	1.260554	-0.393478	-0.435376
H204	H	1.251992	-0.415318	-0.379103
H205	H	1.295291	-0.359526	-0.388378
H206	H	1.390852	-0.448650	-0.419343
H207	H	1.434152	-0.392862	-0.428629
O208	O	1.385642	-0.317677	-1.057029
C209	C	1.326302	-0.347201	-1.021216
H210	H	1.322687	-0.325792	-0.982297
H211	H	1.364712	-0.386913	-1.015400
C212	C	1.218917	-0.381024	-1.090325
C213	C	1.214471	-0.354727	-1.042525
H214	H	1.149936	-0.385669	-1.103470
H215	H	1.258898	-0.361135	-1.114453
H216	H	1.250931	-0.414115	-1.085472
H217	H	1.182470	-0.321635	-1.047380
H218	H	1.174482	-0.374611	-1.018398
H219	H	1.217627	-0.318884	-0.318604
O220	O	1.318301	-0.351165	-0.805847
C221	C	1.258966	-0.380686	-0.770030
H222	H	1.255368	-0.359276	-0.731111
H223	H	1.297372	-0.420400	-0.764217
C224	C	1.151555	-0.414505	-0.839130
C225	C	1.147127	-0.388207	-0.791331
H226	H	1.082569	-0.419146	-0.852270
H227	H	1.191532	-0.394618	-0.863262
H228	H	1.183564	-0.447597	-0.834280
H229	H	1.115131	-0.355113	-0.796183
H230	H	1.107143	-0.408089	-0.767200
O231	O	1.318518	-0.351202	-0.698240
C232	C	1.378275	-0.384994	-0.666665
H233	H	1.457915	-0.366557	-0.658479
H234	H	1.389777	-0.423730	-0.687712
C235	C	1.222617	-0.417130	-0.624855
C236	C	1.320429	-0.394483	-0.614798
H237	H	1.186934	-0.422986	-0.592862
H238	H	1.182356	-0.394365	-0.646129
H239	H	1.232216	-0.449408	-0.642396
H240	H	1.310828	-0.362203	-0.597264
H241	H	1.360687	-0.417243	-0.593520
H242	H	1.640293	-0.191089	-1.052836
H243	H	1.118066	-0.379638	-0.379159
H244	H	1.640113	-0.191230	-0.451431
H245	H	1.640006	-0.549956	-0.191237
H246	H	1.640288	-0.953252	-0.191278
H247	H	1.396109	-0.312546	-0.451405
