data_functionalizedCrystal
_audit_creation_method	'MofGen! by Chris Wilmer'
_symmetry_space_group_name_H-M	'P1'
_symmetry_Int_Tables_number	1
_symmetry_cell_setting	triclinic
loop_
_symmetry_equiv_pos_as_xyz
  x,y,z
_cell_length_a	21.395364
_cell_length_b	12.594516
_cell_length_c	21.395355
_cell_angle_alpha	90.013083
_cell_angle_beta	90.024552
_cell_angle_gamma	90.026767
loop_
_atom_site_label
_atom_site_type_symbol
_atom_site_fract_x
_atom_site_fract_y
_atom_site_fract_z
Zn1	Zn	0.957941	-0.423441	0.354285
Zn2	Zn	0.957878	-0.601405	0.249518
Zn3	Zn	0.853156	-0.423487	0.249522
Zn4	Zn	0.853160	-0.601424	0.354258
O5	O	0.905534	-0.512439	0.301896
O6	O	1.045611	-0.447021	0.340397
O7	O	0.943959	-0.577815	0.161840
O8	O	0.867081	-0.274535	0.263432
O9	O	1.045565	-0.577770	0.263425
O10	O	0.944066	-0.274501	0.340401
O11	O	0.867020	-0.447100	0.161843
O12	O	0.765479	-0.447119	0.263406
O13	O	0.867087	-0.577803	0.441939
O14	O	0.765482	-0.577848	0.340355
O15	O	0.944070	-0.447039	0.441959
O16	O	0.943963	-0.750353	0.263398
O17	O	0.867026	-0.750367	0.340351
C18	C	0.742746	-0.512491	0.301878
C19	C	0.673105	-0.512539	0.301885
C20	C	0.640439	-0.444569	0.342027
C21	C	0.575003	-0.444541	0.342029
C22	C	0.542237	-0.512501	0.301897
C23	C	0.574911	-0.580476	0.261748
C24	C	0.640346	-0.580495	0.261742
C25	C	0.438531	-0.608355	0.296865
C26	C	0.373098	-0.608338	0.296875
C27	C	0.340416	-0.512443	0.301911
C28	C	0.373175	-0.416562	0.306950
C29	C	0.438609	-0.416581	0.306944
C30	C	0.471285	-0.512488	0.301898
C31	C	0.236797	-0.444436	0.342057
C32	C	0.171360	-0.444406	0.342055
C33	C	0.171270	-0.580351	0.261777
C34	C	0.236705	-0.580372	0.261775
C35	C	0.269465	-0.512416	0.301919
C36	C	0.905505	-0.788980	0.301885
C37	C	0.905550	-0.907286	0.301901
C38	C	0.947444	-0.976493	0.260091
C39	C	0.962759	-1.047207	0.317279
C40	C	0.890314	-1.047370	0.244750
C41	C	0.920894	-0.976442	0.359119
C42	C	0.848422	-0.976598	0.286551
C43	C	0.863715	-1.047281	0.343778
C44	C	1.068957	-0.512388	0.301914
C45	C	1.138599	-0.512366	0.301921
C46	C	0.905586	-0.512418	0.465319
C47	C	0.905608	-0.512409	0.534960
C48	C	0.905580	-0.234818	0.301920
C49	C	0.905600	-0.116513	0.301931
C50	C	0.905518	-0.512384	0.139108
C51	C	0.905618	-0.512093	0.069467
C52	C	0.945691	-0.444317	0.567685
C53	C	0.945690	-0.444271	0.633120
C54	C	0.905613	-0.512336	0.665829
C55	C	0.865522	-0.580432	0.633096
C56	C	0.865520	-0.580469	0.567662
C57	C	0.900656	-0.608176	0.769500
C58	C	0.900663	-0.608141	0.834933
C59	C	0.905617	-0.512224	0.867649
C60	C	0.910578	-0.416337	0.834925
C61	C	0.910575	-0.416374	0.769491
C62	C	0.905611	-0.512304	0.736781
C63	C	0.945701	-0.444077	0.971327
C64	C	0.945696	-0.444029	1.036763
C65	C	0.865531	-0.580200	1.036738
C66	C	0.865533	-0.580238	0.971303
C67	C	0.905622	-0.512178	0.938601
H68	H	0.548401	-0.389186	0.374716
H69	H	0.877406	-1.078524	0.196406
Cl70	Cl	0.815137	-0.665995	0.674214
Cl71	Cl	0.773817	-0.928676	0.266456
H72	H	0.667107	-0.389233	0.374714
Cl73	Cl	0.996072	-0.358643	0.674268
Cl74	Cl	0.277774	-0.665820	0.211306
H75	H	0.346431	-0.686409	0.292774
H76	H	0.896627	-0.686217	0.861571
H77	H	0.978335	-0.388575	1.063407
Cl78	Cl	0.996084	-0.358750	0.526578
H79	H	0.982878	-0.945410	0.224766
Cl80	Cl	0.533721	-0.665907	0.211293
Cl81	Cl	0.681414	-0.665947	0.211273
Cl82	Cl	0.916809	-0.295747	0.876048
H83	H	0.933754	-0.945419	0.407505
H84	H	1.011092	-1.078226	0.330279
Cl85	Cl	0.809049	-1.094973	0.398447
Cl86	Cl	0.996093	-0.358512	0.930213
H87	H	0.144592	-0.635686	0.229100
H88	H	0.914613	-0.338300	0.742850
H89	H	0.832893	-0.635608	1.063368
Cl90	Cl	0.479610	-0.728919	0.290524
H91	H	0.832897	-0.635692	0.944658
Cl92	Cl	0.479790	-0.296051	0.313275
H93	H	0.832877	-0.635915	0.541018
Cl94	Cl	0.277983	-0.359000	0.392517
H95	H	0.346567	-0.338475	0.311051
H96	H	0.144764	-0.389051	0.374742
Cl97	Cl	0.894446	-0.728773	0.728377
