data_functionalizedCrystal
_audit_creation_method	'MofGen! by Chris Wilmer'
_symmetry_space_group_name_H-M	'P1'
_symmetry_Int_Tables_number	1
_symmetry_cell_setting	triclinic
loop_
_symmetry_equiv_pos_as_xyz
  x,y,z
_cell_length_a	16.625545
_cell_length_b	16.625547
_cell_length_c	16.625525
_cell_angle_alpha	90.067621
_cell_angle_beta	89.907739
_cell_angle_gamma	89.975256
loop_
_atom_site_label
_atom_site_type_symbol
_atom_site_fract_x
_atom_site_fract_y
_atom_site_fract_z
Zn1	Zn	-0.320507	-1.232986	-0.456051
Zn2	Zn	0.012826	-0.899653	-0.122718
Zn3	Zn	0.346160	-0.566320	0.210615
Zn4	Zn	-0.455501	-1.232787	-0.321219
Zn5	Zn	-0.122168	-0.899453	0.012115
Zn6	Zn	0.211166	-0.566120	0.345448
Zn7	Zn	-0.320684	-1.098053	-0.321216
Zn8	Zn	0.012649	-0.764719	0.012117
Zn9	Zn	0.345983	-0.431386	0.345451
Zn10	Zn	-0.455299	-1.098111	-0.455994
Zn11	Zn	-0.121966	-0.764778	-0.122660
Zn12	Zn	0.211367	-0.431445	0.210673
O13	O	-0.387998	-1.165484	-0.388620
O14	O	-0.054665	-0.832151	-0.055287
O15	O	0.278669	-0.498818	0.278047
O16	O	-0.338424	-1.345792	-0.438191
O17	O	-0.005091	-1.012459	-0.104857
O18	O	0.328242	-0.679126	0.228476
O19	O	-0.437776	-1.214806	-0.208386
O20	O	-0.104443	-0.881473	0.124948
O21	O	0.228891	-0.548139	0.458281
O22	O	-0.207828	-1.116011	-0.339125
O23	O	0.125505	-0.782677	-0.005792
O24	O	0.458838	-0.449344	0.327541
O25	O	-0.437604	-1.345646	-0.339130
O26	O	-0.104271	-1.012312	-0.005796
O27	O	0.229063	-0.678979	0.327537
O28	O	-0.207698	-1.215146	-0.438188
O29	O	0.125635	-0.881813	-0.104855
O30	O	0.458969	-0.548479	0.228478
O31	O	-0.338727	-1.115817	-0.208384
O32	O	-0.005393	-0.782484	0.124950
O33	O	0.327940	-0.449151	0.458283
O34	O	-0.338531	-0.985228	-0.339070
O35	O	-0.005198	-0.651895	-0.005736
O36	O	0.328136	-0.318561	0.327597
O37	O	-0.437260	-1.116111	-0.568834
O38	O	-0.103927	-0.782777	-0.235501
O39	O	0.229406	-0.449444	0.097833
O40	O	-0.437432	-0.985271	-0.438090
O41	O	-0.104099	-0.651938	-0.104757
O42	O	0.229235	-0.318604	0.228577
O43	O	-0.338229	-1.215203	-0.568876
O44	O	-0.004895	-0.881870	-0.235543
O45	O	0.328438	-0.548536	0.097790
O46	O	-0.568307	-1.214863	-0.339074
O47	O	-0.234973	-0.881529	-0.005740
O48	O	0.098360	-0.548196	0.327593
O49	O	-0.568159	-1.115917	-0.438092
O50	O	-0.234825	-0.782584	-0.104759
O51	O	0.098508	-0.449251	0.228574
C52	C	-0.597489	-1.165397	-0.388594
C53	C	-0.264155	-0.832063	-0.055261
C54	C	0.069178	-0.498730	0.278072
C55	C	-0.687110	-1.165433	-0.388611
C56	C	-0.353776	-0.832100	-0.055277
C57	C	-0.020443	-0.498766	0.278056
C58	C	-0.387979	-0.955993	-0.388574
C59	C	-0.054646	-0.622660	-0.055240
C60	C	0.278687	-0.289327	0.278093
C61	C	-0.387991	-0.866372	-0.388573
C62	C	-0.054658	-0.533039	-0.055240
C63	C	0.278676	-0.199706	0.278094
C64	C	-0.759892	-1.165464	-0.388627
C65	C	-0.426559	-0.832131	-0.055293
C66	C	-0.093226	-0.498798	0.278040
C67	C	-0.851201	-1.165511	-0.388644
C68	C	-0.517867	-0.832178	-0.055311
C69	C	-0.184534	-0.498844	0.278022
C70	C	-0.923977	-1.165553	-0.388655
C71	C	-0.590644	-0.832220	-0.055321
C72	C	-0.257310	-0.498886	0.278012
C73	C	-1.015291	-1.165599	-0.388671
C74	C	-0.681958	-0.832266	-0.055338
C75	C	-0.348625	-0.498932	0.277995
C76	C	-0.387992	-0.793590	-0.388580
C77	C	-0.054658	-0.460256	-0.055247
C78	C	0.278675	-0.126923	0.278087
C79	C	-0.387995	-0.702281	-0.388597
C80	C	-0.054661	-0.368948	-0.055263
C81	C	0.278672	-0.035615	0.278070
C82	C	-0.388001	-0.629505	-0.388614
C83	C	-0.054668	-0.296172	-0.055281
C84	C	0.278666	0.037162	0.278052
C85	C	-0.388005	-0.538191	-0.388630
C86	C	-0.054672	-0.204857	-0.055297
C87	C	0.278661	0.128476	0.278037
C88	C	-0.177689	-1.165594	-0.388663
C89	C	0.155644	-0.832261	-0.055330
C90	C	0.488978	-0.498927	0.278004
C91	C	-0.088068	-1.165641	-0.388681
C92	C	0.245266	-0.832308	-0.055348
C93	C	0.578599	-0.498974	0.277985
C94	C	-0.387702	-1.165686	-0.598929
C95	C	-0.054369	-0.832352	-0.265596
C96	C	0.278964	-0.499019	0.067737
C97	C	-0.387576	-1.165771	-0.688551
C98	C	-0.054243	-0.832438	-0.355218
C99	C	0.279090	-0.499105	-0.021884
C100	C	-0.388014	-0.375793	-0.388657
C101	C	-0.054680	-0.042460	-0.055324
C102	C	0.278653	0.290874	0.278010
C103	C	-0.388012	-0.465414	-0.388648
C104	C	-0.054679	-0.132081	-0.055314
C105	C	0.278655	0.201252	0.278019
C106	C	-0.388234	-1.165330	-0.179129
C107	C	-0.054901	-0.831997	0.154205
C108	C	0.278433	-0.498663	0.487538
C109	C	-0.388133	-1.165400	-0.089508
C110	C	-0.054800	-0.832067	0.243826
C111	C	0.278534	-0.498734	0.577159
C112	C	-0.388038	-1.165471	-0.016725
C113	C	-0.054705	-0.832138	0.316608
C114	C	0.278628	-0.498804	0.649941
C115	C	-0.387912	-1.165557	0.074583
C116	C	-0.054579	-0.832224	0.407916
C117	C	0.278755	-0.498891	0.741249
C118	C	-0.387807	-1.165622	0.147359
C119	C	-0.054474	-0.832289	0.480692
C120	C	0.278860	-0.498955	0.814026
C121	C	-0.387681	-1.165707	0.238673
C122	C	-0.054348	-0.832373	0.572006
C123	C	0.278985	-0.499040	0.905340
