data_functionalizedCrystal
_audit_creation_method	'MofGen! by Chris Wilmer'
_symmetry_space_group_name_H-M	'P1'
_symmetry_Int_Tables_number	1
_symmetry_cell_setting	triclinic
loop_
_symmetry_equiv_pos_as_xyz
  x,y,z
_cell_length_a	19.188931
_cell_length_b	11.026607
_cell_length_c	10.065875
_cell_angle_alpha	79.268236
_cell_angle_beta	81.284444
_cell_angle_gamma	84.134601
loop_
_atom_site_label
_atom_site_type_symbol
_atom_site_fract_x
_atom_site_fract_y
_atom_site_fract_z
O1	O	0.953404	-0.133529	-0.113440
O2	O	0.752691	-0.153908	-0.113452
O3	O	0.836413	0.032845	-0.113442
O4	O	0.869683	-0.320283	-0.113450
O5	O	0.820466	-0.002909	0.113545
O6	O	0.736745	-0.189662	0.113534
O7	O	0.937458	-0.169283	0.113547
Zn8	Zn	0.834569	-0.185149	0.149580
Zn9	Zn	0.855580	-0.138042	-0.149485
O10	O	0.853737	-0.356037	0.113537
C11	C	0.718623	-0.171125	0.000039
C12	C	0.640866	-0.169143	0.000034
C13	C	0.971526	-0.152066	0.000053
C14	C	1.049284	-0.154047	0.000049
C15	C	0.822302	0.060147	0.000049
C16	C	0.804005	0.194765	0.000043
C17	C	1.080243	-0.044463	0.000039
C18	C	1.153303	-0.046326	0.000047
C19	C	1.195404	-0.157774	0.000038
C20	C	1.164436	-0.267373	0.000055
C21	C	1.091376	-0.265509	0.000060
N22	N	1.319684	-0.230792	-0.077235
N23	N	1.389088	-0.232554	-0.077243
C24	C	1.415530	-0.163396	0.000024
N25	N	1.369947	-0.092388	0.077282
N26	N	1.300537	-0.090621	0.077284
C27	C	1.274626	-0.159807	0.000032
C28	C	1.525709	-0.055825	0.000025
C29	C	1.598771	-0.057694	0.000042
C30	C	1.609904	-0.278742	0.000035
C31	C	1.536843	-0.276872	0.000032
C32	C	1.494750	-0.165409	0.000021
C33	C	0.867848	-0.383338	0.000043
C34	C	0.886145	-0.517955	0.000040
N35	N	0.820235	-0.217298	0.353684
C36	C	0.854526	0.268838	0.000045
C37	C	0.835617	0.407973	0.000038
N38	N	0.869918	-0.105884	-0.353589
C39	C	0.850587	-0.149220	0.421466
C40	C	0.839562	-0.173972	0.578632
H41	H	1.045975	0.046297	0.000035
H42	H	0.943407	0.442481	-0.000059
O43	O	0.798713	-0.265242	0.648133
C44	C	0.683397	-0.344325	0.692097
C45	C	0.729574	-0.240870	0.613326
H46	H	0.627493	-0.324670	0.663963
H47	H	0.681701	-0.348006	0.806473
H48	H	0.706833	-0.436946	0.664098
H49	H	0.706173	-0.148195	0.641210
H50	H	0.731269	-0.237299	0.498970
O51	O	0.922855	0.221716	-0.000196
C52	C	1.041936	0.226619	-0.117751
C53	C	0.964576	0.280068	-0.117661
H54	H	1.075693	0.273792	-0.212697
H55	H	1.045063	0.122829	-0.117839
H56	H	1.062332	0.243725	-0.022714
H57	H	0.944131	0.263052	-0.212682
H58	H	0.961494	0.383841	-0.117503
O59	O	0.767273	0.455012	0.000211
C60	C	0.648204	0.450218	0.117835
C61	C	0.725571	0.396818	0.117795
H62	H	0.614468	0.403209	0.212906
H63	H	0.627734	0.433031	0.022905
H64	H	0.645145	0.554026	0.117763
H65	H	0.728690	0.293001	0.117915
H66	H	0.746007	0.414102	0.212716
H67	H	1.511637	-0.366106	0.000031
O68	O	0.735710	0.241961	-0.000207
C69	C	0.633146	0.274076	-0.117771
C70	C	0.710494	0.220602	-0.117673
H71	H	0.612730	0.256804	-0.212717
H72	H	0.630029	0.377894	-0.117864
H73	H	0.599398	0.227036	-0.022734
H74	H	0.744288	0.267546	-0.212693
H75	H	0.713555	0.116778	-0.117508
H76	H	0.884732	-0.072606	0.363146
O77	O	0.910466	-0.014213	0.576843
C78	C	0.915189	0.177126	0.415865
C79	C	0.869262	0.073249	0.494449
H80	H	0.881890	0.247878	0.349253
H81	H	0.961428	0.136019	0.348719
H82	H	0.936241	0.224426	0.491535
H83	H	0.848160	0.025909	0.418878
H84	H	0.823060	0.114428	0.561615
O85	O	1.183278	0.060252	-0.000037
C86	C	1.164529	0.279689	0.000003
C87	C	1.130496	0.159087	0.000074
H88	H	1.121868	0.359624	0.000121
H89	H	1.205101	0.299373	-0.095022
H90	H	1.191813	0.269329	0.094965
H91	H	1.103173	0.169355	-0.094824
H92	H	1.089960	0.139442	0.095162
O93	O	1.205376	-0.375565	-0.000203
C94	C	1.302606	-0.487405	-0.117776
C95	C	1.256287	-0.364813	-0.117677
H96	H	1.343788	-0.478745	-0.212729
H97	H	1.267965	-0.565444	-0.117858
H98	H	1.330387	-0.508756	-0.022746
H99	H	1.228497	-0.343345	-0.212691
H100	H	1.290964	-0.286843	-0.117523
H101	H	1.066170	-0.354748	0.000069
H102	H	1.491435	0.034933	0.000022
O103	O	0.779448	-0.308706	0.423038
C104	C	0.707224	-0.470842	0.408302
C105	C	0.753386	-0.367344	0.329594
H106	H	0.686151	-0.518297	0.332787
H107	H	0.661008	-0.429355	0.475174
H108	H	0.740384	-0.541557	0.475232
H109	H	0.720284	-0.296594	0.262591
H110	H	0.799605	-0.408920	0.262809
H111	H	1.623975	0.031545	0.000044
H112	H	1.644181	-0.369486	0.000036
