data_functionalizedCrystal
_audit_creation_method	'MofGen! by Chris Wilmer'
_symmetry_space_group_name_H-M	'P1'
_symmetry_Int_Tables_number	1
_symmetry_cell_setting	triclinic
loop_
_symmetry_equiv_pos_as_xyz
  x,y,z
_cell_length_a	17.639044
_cell_length_b	17.637651
_cell_length_c	15.296721
_cell_angle_alpha	93.471964
_cell_angle_beta	67.473512
_cell_angle_gamma	92.197722
loop_
_atom_site_label
_atom_site_type_symbol
_atom_site_fract_x
_atom_site_fract_y
_atom_site_fract_z
Zn1	Zn	1.076391	-0.552488	0.133593
Zn2	Zn	1.081589	-0.658974	-0.043053
Zn3	Zn	0.969927	-0.513241	0.016438
Zn4	Zn	0.921623	-0.655216	0.145602
O5	O	1.012383	-0.594980	0.063145
O6	O	1.188582	-0.584612	0.080237
O7	O	1.089167	-0.624789	-0.163144
O8	O	1.002090	-0.414466	0.051850
O9	O	1.192401	-0.662846	-0.049544
O10	O	1.080309	-0.443301	0.137923
O11	O	1.007130	-0.517720	-0.119437
O12	O	0.852018	-0.514076	0.063495
O13	O	0.919763	-0.656441	0.271991
O14	O	0.816530	-0.618384	0.158391
O15	O	1.033471	-0.580968	0.263168
O16	O	1.042329	-0.762457	-0.037899
O17	O	0.924803	-0.759696	0.100705
C18	C	0.805363	-0.561564	0.118702
C19	C	0.716792	-0.547289	0.142488
C20	C	0.589937	-0.486524	0.243653
C21	C	0.673163	-0.499943	0.221295
C22	C	0.677206	-0.581233	0.086005
C23	C	0.593979	-0.567819	0.108349
C24	C	0.550351	-0.520464	0.187175
C25	C	0.554393	-0.601759	0.051871
C26	C	0.471173	-0.588348	0.074216
C27	C	0.427539	-0.540998	0.153040
C28	C	0.467131	-0.507054	0.209520
C29	C	0.598021	-0.649117	-0.026951
C30	C	0.558435	-0.683057	-0.083429
C31	C	0.475215	-0.669643	-0.061088
C32	C	0.431581	-0.622292	0.017736
C33	C	0.435623	-0.703587	-0.117568
C34	C	0.352403	-0.690176	-0.095222
C35	C	0.348361	-0.608882	0.040082
C36	C	0.978906	-0.788043	0.026265
C37	C	0.964653	-0.870652	0.010498
C38	C	1.121134	-1.217112	0.183070
C39	C	1.107718	-1.294730	0.168246
C40	C	1.026357	-1.264809	0.078486
C41	C	1.039769	-1.187188	0.093299
C42	C	1.087158	-1.163346	0.145592
C43	C	1.005793	-1.133421	0.055821
C44	C	1.019201	-1.055806	0.070637
C45	C	1.066586	-1.031958	0.122931
C46	C	1.100566	-1.085731	0.160408
C47	C	0.958400	-1.157264	0.003534
C48	C	0.924423	-1.103498	-0.033943
C49	C	0.937836	-1.025881	-0.019134
C50	C	0.985221	-1.002033	0.033160
C51	C	0.903856	-0.972108	-0.056611
C52	C	0.917264	-0.894493	-0.041795
C53	C	0.998629	-0.924418	0.047976
C54	C	1.220211	-0.628526	0.007371
C55	C	1.308775	-0.642822	-0.016397
C56	C	0.970649	-0.622663	0.301692
C57	C	0.952865	-0.634460	0.403347
C58	C	1.046008	-0.401168	0.100183
C59	C	1.060337	-0.318577	0.115966
C60	C	1.054009	-0.567358	-0.174477
C61	C	1.071984	-0.555376	-0.276133
C62	C	0.885305	-0.679296	0.455697
C63	C	0.868596	-0.690384	0.551205
C64	C	0.919441	-0.656633	0.594376
C65	C	0.986999	-0.611792	0.542028
C66	C	1.003713	-0.600707	0.446508
C67	C	1.037850	-0.578044	0.585187
C68	C	1.105407	-0.533203	0.532839
C69	C	1.122118	-0.522120	0.437329
C70	C	1.071273	-0.555871	0.394158
C71	C	1.021135	-0.589129	0.680707
C72	C	1.139543	-0.510540	0.671518
C73	C	1.156253	-0.499452	0.576009
H74	H	0.320171	-0.717815	-0.141211
H75	H	1.139162	-1.066320	0.202982
H76	H	1.177134	-0.485615	0.394706
F77	F	1.049076	-0.899041	0.103620
F78	F	0.881105	-0.837268	-0.081686
H79	H	0.593968	-0.721615	-0.147607
F80	F	0.301927	-0.558471	0.123968
F81	F	0.901655	-0.668435	0.696025
F82	F	1.228145	-0.451722	0.520289
H83	H	1.077502	-0.968758	0.134992
H84	H	0.554416	-0.447954	0.307832
H85	H	0.705392	-0.472298	0.267290
F86	F	0.723645	-0.631632	0.002117
H87	H	0.359775	-0.530082	0.171235
F88	F	1.143889	-1.351952	0.208133
F89	F	0.420698	-0.456643	0.293407
F90	F	0.686592	-0.663392	-0.050729
H91	H	0.813591	-0.726895	0.593820
H92	H	0.885837	-1.122921	-0.076518
H93	H	0.471155	-0.742148	-0.181742
F94	F	1.171581	-1.191735	0.238714
H95	H	0.865266	-0.991533	-0.099180
F96	F	0.975917	-1.290192	0.022841
H97	H	0.947475	-1.220464	-0.008517
H98	H	0.843918	-0.706776	0.420536
F99	F	1.089045	-0.544062	0.292510
H100	H	0.966129	-0.625639	0.723319
F101	F	1.193663	-0.474620	0.717456
