data_functionalizedCrystal
_audit_creation_method	'MofGen! by Chris Wilmer'
_symmetry_space_group_name_H-M	'P1'
_symmetry_Int_Tables_number	1
_symmetry_cell_setting	triclinic
loop_
_symmetry_equiv_pos_as_xyz
  x,y,z
_cell_length_a	9.065218
_cell_length_b	8.597304
_cell_length_c	8.140239
_cell_angle_alpha	82.296592
_cell_angle_beta	89.997198
_cell_angle_gamma	85.172810
loop_
_atom_site_label
_atom_site_type_symbol
_atom_site_fract_x
_atom_site_fract_y
_atom_site_fract_z
O1	O	1.960827	0.230168	-0.169189
O2	O	2.294160	0.563501	0.164145
O3	O	2.627494	0.896835	0.497478
O4	O	1.531577	0.249048	-0.171862
O5	O	1.864911	0.582381	0.161471
O6	O	2.198244	0.915714	0.494804
O7	O	1.754650	0.011261	-0.138202
O8	O	2.087983	0.344595	0.195132
O9	O	2.421316	0.677928	0.528465
O10	O	1.737755	0.467955	-0.202849
O11	O	2.071088	0.801288	0.130484
O12	O	2.404421	1.134621	0.463817
O13	O	1.754637	0.011258	0.135026
O14	O	2.087971	0.344592	0.468359
O15	O	2.421304	0.677925	0.801692
O16	O	1.531565	0.249045	0.101365
O17	O	1.864898	0.582378	0.434698
O18	O	2.198232	0.915711	0.768032
O19	O	1.960815	0.230165	0.104039
O20	O	2.294148	0.563499	0.437372
O21	O	2.627481	0.896832	0.770706
Zn22	Zn	1.746188	0.239605	0.146083
Zn23	Zn	2.079521	0.572938	0.479416
Zn24	Zn	2.412854	0.906271	0.812749
Zn25	Zn	1.746204	0.239608	-0.213906
Zn26	Zn	2.079538	0.572942	0.119427
Zn27	Zn	2.412871	0.906275	0.452760
O28	O	1.737742	0.467952	0.070378
O29	O	2.071076	0.801285	0.403712
O30	O	2.404409	1.134618	0.737045
C31	C	1.476581	0.247232	-0.034992
C32	C	1.809915	0.580565	0.298341
C33	C	2.143248	0.913898	0.631674
C34	C	1.312728	0.241807	-0.034225
C35	C	1.646062	0.575140	0.299108
C36	C	1.979395	0.908473	0.632442
C37	C	1.752829	-0.047238	0.006689
C38	C	2.086162	0.286096	0.340022
C39	C	2.419496	0.619429	0.673356
C40	C	1.747404	-0.221541	0.031352
C41	C	2.080738	0.111792	0.364686
C42	C	2.414071	0.445125	0.698019
C43	C	2.015811	0.231981	-0.032835
C44	C	2.349144	0.565314	0.300498
C45	C	2.682478	0.898648	0.633832
C46	C	2.179664	0.237406	-0.033613
C47	C	2.512997	0.570740	0.299721
C48	C	2.846331	0.904073	0.633054
C49	C	1.739563	0.526450	-0.074516
C50	C	2.072896	0.859784	0.258817
C51	C	2.406230	1.193117	0.592150
C52	C	1.744988	0.700754	-0.099190
C53	C	2.078321	1.034088	0.234143
C54	C	2.411654	1.367421	0.567476
N55	N	1.746187	0.239601	0.391766
N56	N	2.079521	0.572934	0.725099
N57	N	2.412854	0.906268	1.058432
N58	N	1.746216	0.239600	-0.459588
N59	N	2.079550	0.572933	-0.126254
N60	N	2.412883	0.906266	0.207079
H61	H	1.747065	-0.232424	-0.229832
H62	H	2.080398	0.100910	0.103502
H63	H	2.413731	0.434243	0.436835
H64	H	1.745306	-0.288369	0.162002
H65	H	2.078639	0.044965	0.495335
H66	H	2.411972	0.378298	0.828669
