data_functionalizedCrystal
_audit_creation_method	'MofGen! by Chris Wilmer'
_symmetry_space_group_name_H-M	'P1'
_symmetry_Int_Tables_number	1
_symmetry_cell_setting	triclinic
loop_
_symmetry_equiv_pos_as_xyz
  x,y,z
_cell_length_a	8.634740
_cell_length_b	7.681215
_cell_length_c	17.699083
_cell_angle_alpha	96.439009
_cell_angle_beta	88.073339
_cell_angle_gamma	84.495813
loop_
_atom_site_label
_atom_site_type_symbol
_atom_site_fract_x
_atom_site_fract_y
_atom_site_fract_z
O1	O	-2.058131	0.146492	0.254034
O2	O	-1.609256	0.146485	0.233347
O3	O	-1.846373	0.146473	0.134437
O4	O	-1.821013	0.146504	0.352945
O5	O	-1.820375	-0.146399	0.119764
O6	O	-1.583257	-0.146388	0.218674
O7	O	-2.032132	-0.146380	0.239361
Zn8	Zn	-1.803567	-0.192884	0.226688
Zn9	Zn	-1.837821	0.192988	0.246020
O10	O	-1.795014	-0.146368	0.338272
C11	C	-1.538824	0.000047	0.221325
C12	C	-1.367692	0.000044	0.207352
N13	N	-1.780200	-0.456231	0.213495
C14	C	-1.832465	0.000037	0.098837
C15	C	-1.829739	0.000036	0.014617
C16	C	-1.102564	0.000055	0.251384
C17	C	-1.273695	0.000052	0.265357
N18	N	-1.861199	0.456336	0.259209
C19	C	-1.968923	0.000036	-0.023728
C20	C	-1.966353	0.000051	-0.102861
C21	C	-1.824597	0.000054	-0.143647
C22	C	-1.685403	0.000060	-0.105296
C23	C	-1.687975	0.000057	-0.026164
C24	C	-1.675026	0.000074	-0.424424
C25	C	-1.672464	0.000072	-0.503561
C26	C	-1.953404	0.000068	-0.501121
C27	C	-1.955976	0.000066	-0.421989
C28	C	-1.816784	0.000080	-0.383644
C29	C	-1.819572	0.000067	-0.297840
C30	C	-1.821806	0.000055	-0.229450
C31	C	-1.808923	0.000072	0.373872
C32	C	-1.811650	0.000084	0.458092
H33	H	-1.324145	0.000050	0.325710
H34	H	-1.317251	0.000080	0.147004
O35	O	-1.539669	-0.000013	-0.387306
C36	C	-1.414009	0.000020	-0.440275
H37	H	-1.448449	-0.055419	-0.499104
H38	H	-1.383007	0.140522	-0.442023
C39	C	-1.229804	-0.046758	-0.344052
C40	C	-1.272098	-0.114864	-0.416306
H41	H	-1.142263	-0.117617	-0.329266
H42	H	-1.314462	-0.046774	-0.308365
H43	H	-1.203979	0.070325	-0.345518
H44	H	-1.297941	-0.231936	-0.414837
H45	H	-1.187441	-0.114870	-0.451992
H46	H	-1.697562	-0.531476	0.166838
H47	H	-1.943853	-0.468411	0.305865
O48	O	-2.101691	-0.000039	-0.139995
C49	C	-2.227361	-0.000014	-0.087027
H50	H	-2.183083	-0.055460	-0.033756
H51	H	-2.283313	0.140486	-0.071191
C52	C	-2.403250	-0.046780	-0.187945
C53	C	-2.348869	-0.114895	-0.122520
H54	H	-2.478206	-0.117637	-0.209838
H55	H	-2.318586	-0.046791	-0.223631
H56	H	-2.449866	0.070302	-0.174739
H57	H	-2.302237	-0.231966	-0.135727
H58	H	-2.433529	-0.114907	-0.086836
H59	H	-2.084356	0.000023	0.009474
H60	H	-2.071408	0.000054	-0.388785
H61	H	-2.066742	0.000065	-0.532350
H62	H	-1.557022	0.000071	-0.536768
H63	H	-1.569983	0.000073	-0.138509
H64	H	-1.574637	0.000057	0.005056
