data_functionalizedCrystal
_audit_creation_method	'MofGen! by Chris Wilmer'
_symmetry_space_group_name_H-M	'P1'
_symmetry_Int_Tables_number	1
_symmetry_cell_setting	triclinic
loop_
_symmetry_equiv_pos_as_xyz
  x,y,z
_cell_length_a	16.120530
_cell_length_b	18.101395
_cell_length_c	18.101389
_cell_angle_alpha	90.020787
_cell_angle_beta	92.913729
_cell_angle_gamma	87.126665
loop_
_atom_site_label
_atom_site_type_symbol
_atom_site_fract_x
_atom_site_fract_y
_atom_site_fract_z
Zn1	Zn	1.274469	-0.352368	0.476079
Zn2	Zn	1.524469	-0.102368	0.726079
Zn3	Zn	1.774469	0.147632	0.976079
Zn4	Zn	2.024469	0.397632	1.226079
Zn5	Zn	1.274356	-0.476197	0.352235
Zn6	Zn	1.524356	-0.226197	0.602235
Zn7	Zn	1.774356	0.023803	0.852235
Zn8	Zn	2.024356	0.273803	1.102235
Zn9	Zn	1.135060	-0.346090	0.345979
Zn10	Zn	1.385060	-0.096090	0.595979
Zn11	Zn	1.635060	0.153910	0.845979
Zn12	Zn	1.885060	0.403910	1.095979
Zn13	Zn	1.134999	-0.469881	0.469766
Zn14	Zn	1.384999	-0.219881	0.719766
Zn15	Zn	1.634999	0.030119	0.969766
Zn16	Zn	1.884999	0.280119	1.219766
O17	O	1.204721	-0.411134	0.411015
O18	O	1.454721	-0.161134	0.661015
O19	O	1.704721	0.088866	0.911015
O20	O	1.954721	0.338866	1.161015
O21	O	1.391119	-0.374064	0.464911
O22	O	1.641119	-0.124064	0.714911
O23	O	1.891119	0.125936	0.964911
O24	O	2.141119	0.375936	1.214911
O25	O	1.255857	-0.458954	0.247772
O26	O	1.505857	-0.208954	0.497772
O27	O	1.755857	0.041046	0.747772
O28	O	2.005857	0.291046	0.997772
O29	O	1.153625	-0.243293	0.363261
O30	O	1.403625	0.006707	0.613261
O31	O	1.653625	0.256707	0.863261
O32	O	1.903625	0.506707	1.113261
O33	O	1.391036	-0.465041	0.373923
O34	O	1.641036	-0.215041	0.623923
O35	O	1.891036	0.034959	0.873923
O36	O	2.141036	0.284959	1.123923
O37	O	1.256048	-0.247905	0.458844
O38	O	1.506048	0.002095	0.708844
O39	O	1.756048	0.252095	0.958844
O40	O	2.006048	0.502095	1.208844
O41	O	1.153516	-0.363365	0.243175
O42	O	1.403516	-0.113365	0.493175
O43	O	1.653516	0.136635	0.743175
O44	O	1.903516	0.386635	0.993175
O45	O	1.018387	-0.357241	0.357140
O46	O	1.268387	-0.107241	0.607140
O47	O	1.518387	0.142759	0.857140
O48	O	1.768387	0.392759	1.107140
O49	O	1.153522	-0.454276	0.574237
O50	O	1.403522	-0.204276	0.824237
O51	O	1.653522	0.045724	1.074237
O52	O	1.903522	0.295724	1.324237
O53	O	1.018343	-0.448189	0.448085
O54	O	1.268343	-0.198189	0.698085
O55	O	1.518343	0.051811	0.948085
O56	O	1.768343	0.301811	1.198085
O57	O	1.255990	-0.367940	0.578875
O58	O	1.505990	-0.117940	0.828875
O59	O	1.755990	0.132060	1.078875
O60	O	2.005990	0.382060	1.328875
O61	O	1.255798	-0.578989	0.367802
O62	O	1.505798	-0.328989	0.617802
O63	O	1.755798	-0.078989	0.867802
O64	O	2.005798	0.171011	1.117802
O65	O	1.153413	-0.574348	0.454152
O66	O	1.403413	-0.324348	0.704152
O67	O	1.653413	-0.074348	0.954152
O68	O	1.903413	0.175652	1.204152
C69	C	0.988115	-0.401349	0.401249
C70	C	1.238115	-0.151349	0.651249
C71	C	1.488115	0.098651	0.901249
C72	C	1.738115	0.348651	1.151249
C73	C	0.895450	-0.397181	0.397089
C74	C	1.145450	-0.147181	0.647089
C75	C	1.395450	0.102819	0.897089
C76	C	1.645450	0.352819	1.147089
C77	C	0.725790	-0.389553	0.389500
C78	C	0.975790	-0.139553	0.639500
C79	C	1.225790	0.110447	0.889500
C80	C	1.475790	0.360447	1.139500
C81	C	0.684493	-0.432769	0.432584
C82	C	0.934493	-0.182769	0.682584
C83	C	1.184493	0.067231	0.932584
C84	C	1.434493	0.317231	1.182584
C85	C	0.590088	-0.428525	0.428361
C86	C	0.840088	-0.178525	0.678361
C87	C	1.090088	0.071475	0.928361
C88	C	1.340088	0.321475	1.178361
C89	C	0.820203	-0.393796	0.393722
C90	C	1.070203	-0.143796	0.643722
C91	C	1.320203	0.106204	0.893722
C92	C	1.570203	0.356204	1.143722
C93	C	1.204610	-0.603539	0.410988
C94	C	1.454610	-0.353539	0.660988
C95	C	1.704610	-0.103539	0.910988
C96	C	1.954610	0.146461	1.160988
C97	C	1.204638	-0.685855	0.411005
C98	C	1.454638	-0.435855	0.661005
C99	C	1.704638	-0.185855	0.911005
C100	C	1.954638	0.064145	1.161005
C101	C	1.204821	-0.984954	0.411053
C102	C	1.454821	-0.734954	0.661053
C103	C	1.704821	-0.484954	0.911053
C104	C	1.954821	-0.234954	1.161053
C105	C	1.140553	-0.950747	0.465530
C106	C	1.390553	-0.700747	0.715530
C107	C	1.640553	-0.450747	0.965530
C108	C	1.890553	-0.200747	1.215530
C109	C	1.140247	-0.865115	0.465337
C110	C	1.390247	-0.615115	0.715337
C111	C	1.640247	-0.365115	0.965337
C112	C	1.890247	-0.115115	1.215337
C113	C	1.204730	-0.836567	0.411030
C114	C	1.454730	-0.586567	0.661030
C115	C	1.704730	-0.336567	0.911030
C116	C	1.954730	-0.086567	1.161030
C117	C	1.180947	-0.866637	0.331910
C118	C	1.430947	-0.616637	0.581910
C119	C	1.680947	-0.366637	0.831910
C120	C	1.930947	-0.116637	1.081910
C121	C	1.180533	-0.952264	0.332235
C122	C	1.430533	-0.702264	0.582235
C123	C	1.680533	-0.452264	0.832235
C124	C	1.930533	-0.202264	1.082235
C125	C	1.293013	-0.957278	0.435014
C126	C	1.543013	-0.707278	0.685014
C127	C	1.793013	-0.457278	0.935014
C128	C	2.043013	-0.207278	1.185014
C129	C	1.292495	-0.871604	0.436703
C130	C	1.542495	-0.621604	0.686703
C131	C	1.792495	-0.371604	0.936703
C132	C	2.042495	-0.121604	1.186703
C133	C	1.204680	-0.752706	0.411012
C134	C	1.454680	-0.502706	0.661012
C135	C	1.704680	-0.252706	0.911012
C136	C	1.954680	-0.002706	1.161012
C137	C	1.204869	-1.068816	0.411065
C138	C	1.454869	-0.818816	0.661065
C139	C	1.704869	-0.568816	0.911065
C140	C	1.954869	-0.318816	1.161065
C141	C	1.422173	-0.420958	0.420819
C142	C	1.672173	-0.170958	0.670819
C143	C	1.922173	0.079042	0.920819
C144	C	2.172173	0.329042	1.170819
C145	C	1.514838	-0.425144	0.424997
C146	C	1.764838	-0.175144	0.674997
C147	C	2.014838	0.074856	0.924997
C148	C	2.264838	0.324856	1.174997
C149	C	1.204762	-0.411104	0.604179
C150	C	1.454762	-0.161104	0.854179
C151	C	1.704762	0.088896	1.104179
C152	C	1.954762	0.338896	1.354179
C153	C	1.204779	-0.411091	0.686494
C154	C	1.454779	-0.161091	0.936494
C155	C	1.704779	0.088909	1.186494
C156	C	1.954779	0.338909	1.436494
C157	C	1.204856	-0.217978	0.411059
C158	C	1.454856	0.032022	0.661059
C159	C	1.704856	0.282022	0.911059
C160	C	1.954856	0.532022	1.161059
C161	C	1.204913	-0.135667	0.411078
C162	C	1.454913	0.114333	0.661078
C163	C	1.704913	0.364333	0.911078
C164	C	1.954913	0.614333	1.161078
C165	C	1.204728	-0.411113	0.218605
C166	C	1.454728	-0.161113	0.468605
C167	C	1.704728	0.088887	0.718605
C168	C	1.954728	0.338887	0.968605
C169	C	1.204873	-0.410924	0.136297
C170	C	1.454873	-0.160924	0.386297
C171	C	1.704873	0.089076	0.636297
C172	C	1.954873	0.339076	0.886297
C173	C	1.204811	-0.411035	0.837203
C174	C	1.454811	-0.161035	1.087203
C175	C	1.704811	0.088965	1.337203
C176	C	1.954811	0.338965	1.587203
C177	C	1.140351	-0.465344	0.865640
C178	C	1.390351	-0.215344	1.115640
C179	C	1.640351	0.034656	1.365640
C180	C	1.890351	0.284656	1.615640
C181	C	1.140116	-0.465132	0.951247
C182	C	1.390116	-0.215132	1.201247
C183	C	1.640116	0.034868	1.451247
C184	C	1.890116	0.284868	1.701247
C185	C	1.204841	-0.410980	0.985588
C186	C	1.454841	-0.160980	1.235588
C187	C	1.704841	0.089020	1.485588
C188	C	1.954841	0.339020	1.735588
C189	C	1.181328	-0.331825	0.953445
C190	C	1.431328	-0.081825	1.203445
C191	C	1.681328	0.168175	1.453445
C192	C	1.931328	0.418175	1.703445
C193	C	1.180842	-0.332166	0.867778
C194	C	1.430842	-0.082166	1.117778
C195	C	1.680842	0.167834	1.367778
C196	C	1.930842	0.417834	1.617778
C197	C	1.292953	-0.435194	0.872737
C198	C	1.542953	-0.185194	1.122737
C199	C	1.792953	0.064806	1.372737
C200	C	2.042953	0.314806	1.622737
C201	C	1.292498	-0.436863	0.958367
C202	C	1.542498	-0.186863	1.208367
C203	C	1.792498	0.063137	1.458367
C204	C	2.042498	0.313137	1.708367
C205	C	1.204860	-0.410945	1.069448
C206	C	1.454860	-0.160945	1.319448
C207	C	1.704860	0.089055	1.569448
C208	C	1.954860	0.339055	1.819448
C209	C	1.204790	-0.411065	0.753343
C210	C	1.454790	-0.161065	1.003343
C211	C	1.704790	0.088935	1.253343
C212	C	1.954790	0.338935	1.503343
H213	H	0.720038	-0.472953	0.472641
H214	H	0.970038	-0.222953	0.722641
H215	H	1.220038	0.027047	0.972641
H216	H	1.470038	0.277047	1.222641
Br217	Br	1.032108	-0.438434	0.824904
Br218	Br	1.282108	-0.188434	1.074904
Br219	Br	1.532108	0.061566	1.324904
Br220	Br	1.782108	0.311566	1.574904
H221	H	0.690247	-0.349372	0.349446
H222	H	0.940247	-0.099372	0.599446
H223	H	1.190247	0.150628	0.849446
H224	H	1.440247	0.400628	1.099446
Br225	Br	1.164575	-0.562742	0.987382
Br226	Br	1.414575	-0.312742	1.237382
Br227	Br	1.664575	-0.062742	1.487382
Br228	Br	1.914575	0.187258	1.737382
H229	H	1.155127	-0.844729	0.523879
H230	H	1.405127	-0.594729	0.773879
H231	H	1.655127	-0.344729	1.023879
H232	H	1.905127	-0.094729	1.273879
Br233	Br	1.376532	-0.839692	0.375923
Br234	Br	1.626532	-0.589692	0.625923
Br235	Br	1.876532	-0.339692	0.875923
Br236	Br	2.126532	-0.089692	1.125923
H237	H	1.155284	-0.971966	0.524253
H238	H	1.405284	-0.721966	0.774253
H239	H	1.655284	-0.471966	1.024253
H240	H	1.905284	-0.221966	1.274253
Br241	Br	1.074632	-0.826201	0.298389
Br242	Br	1.324632	-0.576201	0.548389
Br243	Br	1.574632	-0.326201	0.798389
Br244	Br	1.824632	-0.076201	1.048389
Br245	Br	1.032262	-0.981857	0.438883
Br246	Br	1.282262	-0.731857	0.688883
Br247	Br	1.532262	-0.481857	0.938883
Br248	Br	1.782262	-0.231857	1.188883
Br249	Br	1.031290	-0.826151	0.438367
Br250	Br	1.281290	-0.576151	0.688367
Br251	Br	1.531290	-0.326151	0.938367
Br252	Br	1.781290	-0.076151	1.188367
Br253	Br	1.073083	-0.980824	0.299171
Br254	Br	1.323083	-0.730824	0.549171
Br255	Br	1.573083	-0.480824	0.799171
Br256	Br	1.823083	-0.230824	1.049171
Br257	Br	1.255158	-0.990156	0.261916
Br258	Br	1.505158	-0.740156	0.511916
Br259	Br	1.755158	-0.490156	0.761916
Br260	Br	2.005158	-0.240156	1.011916
Br261	Br	1.256511	-0.836091	0.262120
Br262	Br	1.506511	-0.586091	0.512120
Br263	Br	1.756511	-0.336091	0.762120
Br264	Br	2.006511	-0.086091	1.012120
H265	H	1.225767	-0.290092	0.849070
H266	H	1.475767	-0.040092	1.099070
H267	H	1.725767	0.209908	1.349070
H268	H	1.975767	0.459908	1.599070
H269	H	1.314698	-0.979811	0.491934
H270	H	1.564698	-0.729811	0.741934
H271	H	1.814698	-0.479811	0.991934
H272	H	2.064698	-0.229811	1.241934
H273	H	1.310430	-0.852056	0.494950
H274	H	1.560430	-0.602056	0.744950
H275	H	1.810430	-0.352056	0.994950
H276	H	2.060430	-0.102056	1.244950
H277	H	1.226849	-0.290066	0.975850
H278	H	1.476849	-0.040066	1.225850
H279	H	1.726849	0.209934	1.475850
H280	H	1.976849	0.459934	1.725850
H281	H	1.340896	-0.979683	0.395385
H282	H	1.590896	-0.729683	0.645385
H283	H	1.840896	-0.479683	0.895385
H284	H	2.090896	-0.229683	1.145385
H285	H	1.154846	-0.524096	0.845697
H286	H	1.404846	-0.274096	1.095697
H287	H	1.654846	-0.024096	1.345697
H288	H	1.904846	0.225904	1.595697
Br289	Br	1.031264	-0.437930	0.980505
Br290	Br	1.281264	-0.187930	1.230505
Br291	Br	1.531264	0.062070	1.480505
Br292	Br	1.781264	0.312070	1.730505
Br293	Br	1.073473	-0.298860	0.829647
Br294	Br	1.323473	-0.048860	1.079647
Br295	Br	1.573473	0.201140	1.329647
Br296	Br	1.823473	0.451140	1.579647
Br297	Br	1.075152	-0.298051	0.984415
Br298	Br	1.325152	-0.048051	1.234415
Br299	Br	1.575152	0.201949	1.484415
Br300	Br	1.825152	0.451949	1.734415
Br301	Br	1.328711	-0.530142	0.838350
Br302	Br	1.578711	-0.280142	1.088350
Br303	Br	1.828711	-0.030142	1.338350
Br304	Br	2.078711	0.219858	1.588350
Br305	Br	1.322063	-0.533991	0.993555
Br306	Br	1.572063	-0.283991	1.243555
Br307	Br	1.822063	-0.033991	1.493555
Br308	Br	2.072063	0.216009	1.743555
H309	H	1.343079	-0.400517	0.982039
H310	H	1.593079	-0.150517	1.232039
H311	H	1.843079	0.099483	1.482039
H312	H	2.093079	0.349483	1.732039
H313	H	1.340975	-0.395684	0.854638
H314	H	1.590975	-0.145684	1.104638
H315	H	1.840975	0.104316	1.354638
H316	H	2.090975	0.354316	1.604638
