data_functionalizedCrystal
_audit_creation_method	'MofGen! by Chris Wilmer'
_symmetry_space_group_name_H-M	'P1'
_symmetry_Int_Tables_number	1
_symmetry_cell_setting	triclinic
loop_
_symmetry_equiv_pos_as_xyz
  x,y,z
_cell_length_a	6.817900
_cell_length_b	17.253917
_cell_length_c	9.514088
_cell_angle_alpha	94.843328
_cell_angle_beta	118.843545
_cell_angle_gamma	102.659311
loop_
_atom_site_label
_atom_site_type_symbol
_atom_site_fract_x
_atom_site_fract_y
_atom_site_fract_z
V1	V	-4.224333	-0.112764	-0.516187
O2	O	-4.201122	0.003951	-0.490670
O3	O	-4.181195	-0.222180	-0.527749
O4	O	-4.259044	-0.111674	-0.734429
O5	O	-4.122734	-0.107321	-0.282558
V6	V	-4.696509	-0.098728	-0.486410
O7	O	-4.510480	-0.143554	-0.581506
O8	O	-4.860559	-0.067937	-0.421091
O9	O	-4.516440	0.010689	-0.474849
O10	O	-4.837117	-0.215442	-0.511928
O11	O	-4.915505	-0.104171	-0.720039
O12	O	-4.438591	-0.099818	-0.268168
C13	C	-4.024787	-0.248834	-0.523500
C14	C	-4.071358	-0.338287	-0.534407
C15	C	-3.996250	-0.368401	-0.390826
C16	C	-4.040030	-0.452453	-0.401081
C17	C	-4.158905	-0.506389	-0.554916
C18	C	-4.234023	-0.476270	-0.698508
C19	C	-4.190257	-0.392220	-0.688253
C20	C	-4.300213	-0.759041	-0.601534
C21	C	-4.343968	-0.843095	-0.611778
C22	C	-4.149976	-0.819273	-0.314349
C23	C	-4.106205	-0.735222	-0.304107
C24	C	-4.181338	-0.705111	-0.447699
N25	N	-4.203651	-0.592303	-0.565401
N26	N	-4.136606	-0.619198	-0.437214
C27	C	-4.124089	-0.107870	-0.787139
C28	C	-4.233788	-0.107703	-0.965652
C29	C	-4.336189	0.037338	-0.479094
C30	C	-4.268860	0.126790	-0.468197
C31	C	-4.236885	-0.103624	-0.215450
C32	C	-4.106424	-0.103787	-0.036935
H33	H	-4.330830	-0.520191	-0.823765
C34	C	-4.067371	-0.852399	-0.156415
H35	H	-4.110476	-0.910181	-0.184549
H36	H	-3.901731	-0.831097	-0.088134
H37	H	-4.138993	-0.836365	-0.099133
H38	H	-3.913464	-0.100571	-0.961399
C39	C	-4.494478	-0.112053	-1.067695
H40	H	-4.536485	-0.111357	-1.178312
H41	H	-4.588069	-0.160924	-1.065011
H42	H	-4.519693	-0.066546	-1.022726
H43	H	-3.899436	-0.324491	-0.265556
H44	H	-4.009421	-0.691312	-0.178838
C45	C	-3.957447	-0.485580	-0.243148
H46	H	-4.000571	-0.543362	-0.271284
H47	H	-3.791807	-0.464284	-0.174861
H48	H	-4.029072	-0.469541	-0.185872
C49	C	-4.474743	-0.902424	-0.781005
H50	H	-4.513240	-0.872454	-0.865057
H51	H	-4.377229	-0.933071	-0.785702
H52	H	-4.614469	-0.938343	-0.796663
C53	C	-4.382562	-0.725917	-0.759460
H54	H	-4.339417	-0.668134	-0.731329
H55	H	-4.310813	-0.741977	-0.816614
H56	H	-4.548204	-0.747193	-0.827861
C57	C	-4.272865	-0.359094	-0.846191
H58	H	-4.349911	-0.403252	-0.939279
H59	H	-4.378441	-0.329435	-0.853862
H60	H	-4.141190	-0.324166	-0.842882
