data_functionalizedCrystal
_audit_creation_method	'MofGen! by Chris Wilmer'
_symmetry_space_group_name_H-M	'P1'
_symmetry_Int_Tables_number	1
_symmetry_cell_setting	triclinic
loop_
_symmetry_equiv_pos_as_xyz
  x,y,z
_cell_length_a	18.101395
_cell_length_b	17.077404
_cell_length_c	17.077396
_cell_angle_alpha	90.019501
_cell_angle_beta	89.972533
_cell_angle_gamma	89.968671
loop_
_atom_site_label
_atom_site_type_symbol
_atom_site_fract_x
_atom_site_fract_y
_atom_site_fract_z
Zn1	Zn	-0.294825	-1.200010	-0.443848
Zn2	Zn	0.205175	-0.700010	0.056152
Zn3	Zn	-0.418674	-1.199898	-0.312585
Zn4	Zn	0.081326	-0.699898	0.187415
Zn5	Zn	-0.294851	-1.068742	-0.312596
Zn6	Zn	0.205149	-0.568742	0.187404
Zn7	Zn	-0.418630	-1.068691	-0.443808
Zn8	Zn	0.081370	-0.568691	0.056192
O9	O	-0.356745	-1.134335	-0.378209
O10	O	0.143255	-0.634335	0.121791
O11	O	-0.311261	-1.309842	-0.426448
O12	O	0.188739	-0.809842	0.073552
O13	O	-0.402278	-1.182474	-0.202739
O14	O	0.097722	-0.682474	0.297261
O15	O	-0.191215	-1.086223	-0.330029
O16	O	0.308785	-0.586223	0.169971
O17	O	-0.402253	-1.309760	-0.330009
O18	O	0.097747	-0.809760	0.169991
O19	O	-0.191196	-1.182665	-0.426459
O20	O	0.308804	-0.682665	0.073541
O21	O	-0.311306	-1.086114	-0.202748
O22	O	0.188694	-0.586114	0.297252
O23	O	-0.311263	-0.958888	-0.329990
O24	O	0.188737	-0.458888	0.170010
O25	O	-0.402178	-1.086136	-0.553660
O26	O	0.097822	-0.586136	-0.053660
O27	O	-0.402203	-0.958851	-0.426391
O28	O	0.097797	-0.458851	0.073609
O29	O	-0.311219	-1.182616	-0.553690
O30	O	0.188781	-0.682616	-0.053690
O31	O	-0.522301	-1.182425	-0.329970
O32	O	-0.022301	-0.682425	0.170030
O33	O	-0.522269	-1.086028	-0.426379
O34	O	-0.022269	-0.586028	0.073621
C35	C	-0.356732	-0.930387	-0.378188
C36	C	0.143268	-0.430387	0.121812
C37	C	-0.356744	-0.843137	-0.378197
C38	C	0.143256	-0.343137	0.121803
C39	C	-0.549156	-1.134230	-0.378186
C40	C	-0.049156	-0.634230	0.121814
C41	C	-0.631470	-1.134257	-0.378203
C42	C	-0.131470	-0.634257	0.121797
C43	C	-0.356690	-1.134383	-0.582954
C44	C	0.143310	-0.634383	-0.082954
C45	C	-0.356667	-1.134403	-0.670203
C46	C	0.143333	-0.634403	-0.170203
C47	C	-0.930561	-1.134429	-0.378245
C48	C	-0.430561	-0.634429	0.121755
C49	C	-0.899246	-1.073919	-0.439054
C50	C	-0.399246	-0.573919	0.060946
C51	C	-0.813628	-1.073632	-0.438863
C52	C	-0.313628	-0.573632	0.061137
C53	C	-0.782178	-1.134344	-0.378225
C54	C	-0.282178	-0.634344	0.121775
C55	C	-0.813330	-1.111947	-0.295495
C56	C	-0.313330	-0.611947	0.204505
C57	C	-0.898975	-1.111557	-0.295859
C58	C	-0.398975	-0.611557	0.204141
C59	C	-0.898904	-1.217469	-0.399437
C60	C	-0.398904	-0.717469	0.100563
C61	C	-0.813253	-1.216980	-0.401252
C62	C	-0.313253	-0.716980	0.098748
C63	C	-0.698319	-1.134297	-0.378208
C64	C	-0.198319	-0.634297	0.121792
C65	C	-1.014420	-1.134474	-0.378256
C66	C	-0.514420	-0.634474	0.121744
C67	C	-0.163583	-1.134462	-0.378250
C68	C	0.336417	-0.634462	0.121750
C69	C	-0.081269	-1.134516	-0.378267
C70	C	0.418731	-0.634516	0.121733
C71	C	-0.356759	-1.339079	-0.378231
C72	C	0.143241	-0.839079	0.121769
C73	C	-0.356765	-1.426329	-0.378241
C74	C	0.143235	-0.926329	0.121759
C75	C	-0.404167	-0.802148	-0.428312
C76	C	0.095833	-0.302148	0.071688
C77	C	-0.404169	-0.720168	-0.428325
C78	C	0.095831	-0.220168	0.071675
C79	C	-0.356750	-0.679178	-0.378218
C80	C	0.143250	-0.179178	0.121782
C81	C	-0.309321	-0.720173	-0.328100
C82	C	0.190679	-0.220173	0.171900
C83	C	-0.309316	-0.802152	-0.328092
C84	C	0.190684	-0.302152	0.171908
C85	C	-0.309336	-0.549303	-0.328119
C86	C	0.190664	-0.049303	0.171881
C87	C	-0.309341	-0.467318	-0.328126
C88	C	0.190659	0.032682	0.171874
C89	C	-0.404188	-0.467319	-0.428352
C90	C	0.095812	0.032681	0.071648
C91	C	-0.404184	-0.549298	-0.428344
C92	C	0.095816	-0.049298	0.071656
C93	C	-0.356755	-0.590287	-0.378225
C94	C	0.143245	-0.090287	0.121775
C95	C	-0.309301	-1.184642	-0.711210
C96	C	0.190699	-0.684642	-0.211210
C97	C	-0.309276	-1.184651	-0.793191
C98	C	0.190724	-0.684651	-0.293191
C99	C	-0.356622	-1.134425	-0.834163
C100	C	0.143378	-0.634425	-0.334163
C101	C	-0.403990	-1.084181	-0.793150
C102	C	0.096010	-0.584181	-0.293150
C103	C	-0.404011	-1.084168	-0.711171
C104	C	0.095989	-0.584168	-0.211171
C105	C	-0.403946	-1.084212	-0.964021
C106	C	0.096054	-0.584212	-0.464021
C107	C	-0.403927	-1.084226	-1.046005
C108	C	0.096073	-0.584226	-0.546005
C109	C	-0.309211	-1.184695	-1.046040
C110	C	0.190789	-0.684695	-0.546040
C111	C	-0.309232	-1.184683	-0.964061
C112	C	0.190768	-0.684683	-0.464061
C113	C	-0.356601	-1.134439	-0.923054
C114	C	0.143399	-0.634439	-0.423054
C115	C	-0.356746	-1.134333	-0.174261
C116	C	0.143254	-0.634333	0.325739
C117	C	-0.356561	-1.134465	-0.087012
C118	C	0.143439	-0.634465	0.412988
H119	H	-0.792564	-1.087644	-0.500206
H120	H	-0.292564	-0.587644	-0.000206
H121	H	-0.442478	-1.043326	-1.079363
H122	H	0.057522	-0.543326	-0.579363
Br123	Br	-0.244967	-0.604931	-0.260101
Br124	Br	0.255033	-0.104931	0.239899
H125	H	-0.442508	-1.043287	-0.930635
H126	H	0.057492	-0.543287	-0.430635
H127	H	-0.442804	-0.433942	-0.469163
H128	H	0.057196	0.066058	0.030837
H129	H	-0.270695	-0.835524	-0.287287
H130	H	0.229305	-0.335524	0.212713
Br131	Br	-0.933494	-1.097037	-0.541632
Br132	Br	-0.433494	-0.597037	-0.041632
Br133	Br	-0.468242	-1.016011	-0.848755
Br134	Br	0.031758	-0.516011	-0.348755
H135	H	-0.270720	-0.433946	-0.287333
H136	H	0.229280	0.066054	0.212667
Br137	Br	-0.468531	-0.857770	-0.496313
Br138	Br	0.031469	-0.357770	0.003687
Br139	Br	-0.935244	-0.971956	-0.415973
Br140	Br	-0.435244	-0.471956	0.084027
H141	H	-0.442787	-0.686798	-0.469133
H142	H	0.057213	-0.186798	0.030867
Br143	Br	-0.468546	-0.604927	-0.496340
Br144	Br	0.031454	-0.104927	0.003660
Br145	Br	-0.468291	-1.015979	-0.655518
Br146	Br	0.031709	-0.515979	-0.155518
Br147	Br	-0.244927	-1.252886	-1.101691
Br148	Br	0.255073	-0.752886	-0.601691
Br149	Br	-0.932669	-1.292613	-0.325633
Br150	Br	-0.432669	-0.792613	0.174367
H151	H	-0.919018	-1.050855	-0.277907
H152	H	-0.419018	-0.550855	0.222093
Br153	Br	-0.779581	-0.971041	-0.415472
Br154	Br	-0.279581	-0.471041	0.084528
H155	H	-0.270709	-0.686792	-0.287305
H156	H	0.229291	-0.186792	0.212695
Br157	Br	-0.245048	-1.252815	-0.655613
Br158	Br	0.254952	-0.752815	-0.155613
Br159	Br	-0.245025	-1.252872	-0.848840
Br160	Br	0.254975	-0.752872	-0.348840
H161	H	-0.919692	-1.153718	-0.249007
H162	H	-0.419692	-0.653718	0.250993
Br163	Br	-0.779383	-1.183091	-0.217916
Br164	Br	-0.279383	-0.683091	0.282084
H165	H	-0.270683	-1.225585	-0.930704
H166	H	0.229317	-0.725585	-0.430704
H167	H	-0.791945	-1.051888	-0.277221
H168	H	-0.291945	-0.551888	0.222779
H169	H	-0.920452	-1.237888	-0.458736
H170	H	-0.420452	-0.737888	0.041264
Br171	Br	-0.779316	-1.245135	-0.502731
Br172	Br	-0.279316	-0.745135	-0.002731
H173	H	-0.791840	-1.264448	-0.360190
H174	H	-0.291840	-0.764448	0.139810
