data_functionalizedCrystal
_audit_creation_method	'MofGen! by Chris Wilmer'
_symmetry_space_group_name_H-M	'P1'
_symmetry_Int_Tables_number	1
_symmetry_cell_setting	triclinic
loop_
_symmetry_equiv_pos_as_xyz
  x,y,z
_cell_length_a	10.654550
_cell_length_b	10.654551
_cell_length_c	9.730223
_cell_angle_alpha	90.001469
_cell_angle_beta	89.996251
_cell_angle_gamma	84.485132
loop_
_atom_site_label
_atom_site_type_symbol
_atom_site_fract_x
_atom_site_fract_y
_atom_site_fract_z
O1	O	1.667835	0.176393	-0.114394
O2	O	1.302356	0.193199	-0.114371
O3	O	1.493498	0.002057	-0.114383
O4	O	1.476693	0.367535	-0.114381
O5	O	1.493496	0.002062	0.114197
O6	O	1.302354	0.193204	0.114209
O7	O	1.667832	0.176398	0.114186
Zn8	Zn	1.485093	0.184802	0.150490
Zn9	Zn	1.485096	0.184795	-0.150674
O10	O	1.476691	0.367540	0.114199
C11	C	1.255557	0.191968	-0.000078
C12	C	1.116114	0.188276	-0.000069
C13	C	1.036629	0.300817	-0.000089
C14	C	0.905608	0.297341	-0.000113
C15	C	0.933570	0.068771	-0.000104
C16	C	1.064589	0.072249	-0.000070
C17	C	1.088154	0.416844	-0.000088
C18	C	1.008667	0.529395	-0.000109
C19	C	0.877647	0.525918	-0.000133
C20	C	0.826112	0.409891	-0.000136
C21	C	1.492263	-0.044739	-0.000096
C22	C	1.488570	-0.184182	-0.000105
C23	C	1.486839	-0.249696	-0.124702
C24	C	1.483359	-0.380717	-0.124695
C25	C	1.483346	-0.380697	0.124515
C26	C	1.486817	-0.249678	0.124507
C27	C	1.488592	-0.184200	-0.249314
C28	C	1.486862	-0.249715	-0.373921
C29	C	1.483382	-0.380735	-0.373914
C30	C	1.481631	-0.446241	-0.249301
C31	C	1.714632	0.177629	-0.000109
C32	C	1.854075	0.181321	-0.000127
C33	C	1.477926	0.414336	-0.000091
C34	C	1.481619	0.553779	-0.000091
N35	N	1.485100	0.184805	0.356026
N36	N	1.485099	0.184782	-0.356211
C37	C	1.569760	0.100197	0.427947
C38	C	1.569756	0.100181	0.571830
C39	C	1.400430	0.269395	0.571859
C40	C	1.400428	0.269403	0.427979
C41	C	1.654431	0.015599	0.355994
C42	C	1.739099	-0.069016	0.427915
C43	C	1.739095	-0.069031	0.571798
C44	C	1.654425	0.015568	0.643760
H45	H	1.050636	0.623860	-0.000095
H46	H	0.891600	-0.025693	-0.000129
H47	H	1.488200	-0.196331	0.225964
H48	H	1.194836	0.419687	-0.000075
H49	H	1.654444	0.015606	0.238837
C50	C	1.307271	0.362449	0.348862
N51	N	1.237089	0.432521	0.289271
H52	H	0.812931	0.617562	-0.000136
C53	C	1.152027	-0.051552	-0.000056
N54	N	1.217887	-0.144803	-0.000043
C55	C	1.654426	0.015547	0.802037
N56	N	1.654435	0.015535	0.921249
H57	H	0.719425	0.407069	-0.000134
H58	H	1.808026	-0.137936	0.630354
C59	C	1.307301	0.362449	0.651023
N60	N	1.237155	0.432541	0.710650
H61	H	1.808028	-0.137901	0.369316
C62	C	1.477803	-0.590368	-0.249302
N63	N	1.474928	-0.698924	-0.249304
C64	C	1.492300	-0.040061	-0.249333
N65	N	1.495052	0.068510	-0.249345
H66	H	1.488276	-0.196370	-0.475376
C67	C	1.481518	-0.452803	-0.510982
N68	N	1.480137	-0.507084	-0.614226
H69	H	1.481922	-0.434042	0.225969
