data_functionalizedCrystal
_audit_creation_method	'MofGen! by Chris Wilmer'
_symmetry_space_group_name_H-M	'P1'
_symmetry_Int_Tables_number	1
_symmetry_cell_setting	triclinic
loop_
_symmetry_equiv_pos_as_xyz
  x,y,z
_cell_length_a	16.109301
_cell_length_b	16.109301
_cell_length_c	14.586319
_cell_angle_alpha	89.998390
_cell_angle_beta	89.996867
_cell_angle_gamma	83.461481
loop_
_atom_site_label
_atom_site_type_symbol
_atom_site_fract_x
_atom_site_fract_y
_atom_site_fract_z
O1	O	-1.103134	-0.106861	0.076185
O2	O	-0.769801	0.226472	0.409519
O3	O	-0.436467	0.559805	0.742852
O4	O	-0.861072	-0.120161	0.076200
O5	O	-0.527739	0.213173	0.409534
O6	O	-0.194406	0.546506	0.742867
O7	O	-0.988753	0.007520	0.076183
O8	O	-0.655419	0.340853	0.409516
O9	O	-0.322086	0.674187	0.742850
O10	O	-0.975454	-0.234542	0.076203
O11	O	-0.642120	0.098791	0.409536
O12	O	-0.308787	0.432125	0.742869
O13	O	-0.988737	0.007512	-0.076298
O14	O	-0.655404	0.340846	0.257036
O15	O	-0.322071	0.674179	0.590369
O16	O	-0.861057	-0.120168	-0.076281
O17	O	-0.527723	0.213165	0.257053
O18	O	-0.194390	0.546498	0.590386
O19	O	-1.103119	-0.106869	-0.076295
O20	O	-0.769785	0.226464	0.257038
O21	O	-0.436452	0.559798	0.590371
Cu22	Cu	-0.982086	-0.113519	-0.090211
Cu23	Cu	-0.648753	0.219814	0.243123
Cu24	Cu	-0.315419	0.553147	0.576456
Cu25	Cu	-0.982105	-0.113510	0.090115
Cu26	Cu	-0.648771	0.219823	0.423449
Cu27	Cu	-0.315438	0.553156	0.756782
O28	O	-0.975438	-0.234550	-0.076278
O29	O	-0.642105	0.098784	0.257055
O30	O	-0.308771	0.432117	0.590388
C31	C	-0.830090	-0.119626	-0.000038
C32	C	-0.496756	0.213708	0.333295
C33	C	-0.163423	0.547041	0.666628
C34	C	-0.737794	-0.118011	-0.000033
C35	C	-0.404461	0.215323	0.333300
C36	C	-0.071128	0.548656	0.666634
N37	N	-0.982079	-0.113525	-0.217042
N38	N	-0.648746	0.219808	0.116291
N39	N	-0.315413	0.553142	0.449624
C40	C	-0.988206	0.038491	-0.000058
C41	C	-0.654873	0.371824	0.333276
C42	C	-0.321540	0.705158	0.666609
C43	C	-0.986591	0.130786	-0.000059
C44	C	-0.653258	0.464120	0.333274
C45	C	-0.319925	0.797453	0.666608
C46	C	-1.134101	-0.107404	-0.000055
C47	C	-0.800768	0.225929	0.333278
C48	C	-0.467435	0.559263	0.666612
C49	C	-1.226397	-0.109019	-0.000054
C50	C	-0.893063	0.224314	0.333279
C51	C	-0.559730	0.557648	0.666612
C52	C	-0.515522	-0.190018	-0.000038
C53	C	-0.182188	0.143315	0.333296
C54	C	0.151145	0.476648	0.666629
C55	C	-0.428801	-0.188494	-0.000044
C56	C	-0.095468	0.144839	0.333290
C57	C	0.237865	0.478172	0.666623
C58	C	-0.448676	-0.037006	-0.000052
C59	C	-0.115342	0.296328	0.333281
C60	C	0.217991	0.629661	0.666614
C61	C	-0.535394	-0.038530	-0.000053
C62	C	-0.202061	0.294803	0.333281
C63	C	0.131272	0.628136	0.666614
C64	C	-0.568815	-0.115039	-0.000041
C65	C	-0.235482	0.218294	0.333292
C66	C	0.097852	0.551627	0.666626
C67	C	-0.395376	-0.111990	-0.000046
C68	C	-0.062042	0.221343	0.333287
C69	C	0.271291	0.554676	0.666620
C70	C	-0.301350	-0.110337	-0.000053
C71	C	0.031984	0.222996	0.333280
C72	C	0.365317	0.556329	0.666614
C73	C	-0.662847	-0.116693	-0.000036
C74	C	-0.329514	0.216641	0.333297
C75	C	0.003820	0.549974	0.666631
C76	C	-0.975984	-0.265521	-0.000035
C77	C	-0.642651	0.067813	0.333298
C78	C	-0.309318	0.401146	0.666631
C79	C	-0.977600	-0.357816	-0.000028
C80	C	-0.644266	-0.024483	0.333305
C81	C	-0.310933	0.308851	0.666638
C82	C	-1.058599	0.353059	-0.000049
C83	C	-0.725266	0.686392	0.333284
C84	C	-0.391932	1.019725	0.666618
C85	C	-1.057075	0.439779	-0.000041
C86	C	-0.723742	0.773112	0.333292
C87	C	-0.390408	1.106446	0.666625
C88	C	-0.905586	0.419905	-0.000036
C89	C	-0.572253	0.753238	0.333298
C90	C	-0.238919	1.086571	0.666631
C91	C	-0.907111	0.333186	-0.000037
C92	C	-0.573778	0.666519	0.333297
C93	C	-0.240444	0.999853	0.666630
C94	C	-0.983620	0.299766	-0.000048
C95	C	-0.650287	0.633099	0.333285
C96	C	-0.316953	0.966432	0.666619
C97	C	-0.980571	0.473205	-0.000039
C98	C	-0.647238	0.806538	0.333294
C99	C	-0.313904	1.139871	0.666627
C100	C	-0.978918	0.567231	-0.000031
C101	C	-0.645585	0.900564	0.333302
C102	C	-0.312251	1.233897	0.666636
C103	C	-0.985273	0.205734	-0.000055
C104	C	-0.651940	0.539067	0.333279
C105	C	-0.318607	0.872400	0.666612
C106	C	-1.032502	-0.163954	-0.452048
C107	C	-0.699169	0.169380	-0.118715
C108	C	-0.365835	0.502713	0.214619
C109	C	-1.032511	-0.163948	-0.548029
C110	C	-0.699177	0.169385	-0.214696
C111	C	-0.365844	0.502719	0.118638
C112	C	-0.931693	-0.063064	-0.548041
C113	C	-0.598360	0.270270	-0.214707
C114	C	-0.265027	0.603603	0.118626
C115	C	-0.931690	-0.063066	-0.452061
C116	C	-0.598356	0.270268	-0.118728
C117	C	-0.265023	0.603601	0.214605
C118	C	-0.982093	-0.113515	-0.404067
C119	C	-0.648759	0.219818	-0.070734
C120	C	-0.315426	0.553151	0.262599
C121	C	-0.982105	-0.113508	-0.596028
C122	C	-0.648771	0.219826	-0.262695
C123	C	-0.315438	0.553159	0.070639
C124	C	-0.982114	-0.113501	-0.700095
C125	C	-0.648781	0.219832	-0.366762
C126	C	-0.315447	0.553166	-0.033428
C127	C	-0.982085	-0.113521	-0.299993
C128	C	-0.648752	0.219812	0.033340
C129	C	-0.315418	0.553146	0.366673
N130	N	-0.982118	-0.113498	0.216947
N131	N	-0.648785	0.219835	0.550281
N132	N	-0.315451	0.553169	0.883614
H133	H	-0.542730	-0.252317	-0.000035
H134	H	-0.209396	0.081017	0.333298
H135	H	0.123937	0.414350	0.666632
Cl136	Cl	-0.812844	0.266184	-0.000027
Cl137	Cl	-0.479510	0.599517	0.333306
Cl138	Cl	-0.146177	0.932850	0.666639
Cl139	Cl	-0.868310	0.000346	-0.391738
Cl140	Cl	-0.534977	0.333680	-0.058405
Cl141	Cl	-0.201644	0.667013	0.274929
Cl142	Cl	-1.154781	0.311047	-0.000061
Cl143	Cl	-0.821448	0.644381	0.333272
Cl144	Cl	-0.488114	0.977714	0.666606
Cl145	Cl	-1.151339	0.506773	-0.000041
Cl146	Cl	-0.818006	0.840107	0.333293
Cl147	Cl	-0.484672	1.173440	0.666626
Cl148	Cl	-0.809409	0.461926	-0.000022
Cl149	Cl	-0.476076	0.795259	0.333312
Cl150	Cl	-0.142742	1.128592	0.666645
H151	H	-1.073544	-0.205033	-0.412974
H152	H	-0.740210	0.128300	-0.079641
H153	H	-0.406877	0.461634	0.253693
H154	H	-0.890656	-0.021990	-0.587129
H155	H	-0.557323	0.311343	-0.253796
H156	H	-0.223989	0.644676	0.079538
H157	H	-1.073560	-0.205019	-0.587091
H158	H	-0.740227	0.128315	-0.253757
H159	H	-0.406894	0.461648	0.079576
H160	H	-0.385413	-0.249550	-0.000043
H161	H	-0.052080	0.083783	0.333290
H162	H	0.281254	0.417117	0.666624
H163	H	-0.421454	0.025285	-0.000067
H164	H	-0.088121	0.358619	0.333266
H165	H	0.245213	0.691952	0.666599
Cl166	Cl	-0.602397	0.055737	-0.000064
Cl167	Cl	-0.269064	0.389070	0.333269
Cl168	Cl	0.064270	0.722404	0.666603
