data_functionalizedCrystal
_audit_creation_method	'MofGen! by Chris Wilmer'
_symmetry_space_group_name_H-M	'P1'
_symmetry_Int_Tables_number	1
_symmetry_cell_setting	triclinic
loop_
_symmetry_equiv_pos_as_xyz
  x,y,z
_cell_length_a	11.169417
_cell_length_b	19.077713
_cell_length_c	11.169409
_cell_angle_alpha	92.261581
_cell_angle_beta	89.980487
_cell_angle_gamma	87.733990
loop_
_atom_site_label
_atom_site_type_symbol
_atom_site_fract_x
_atom_site_fract_y
_atom_site_fract_z
Zn1	Zn	1.853982	-0.280099	-0.697688
Zn2	Zn	2.353982	0.219901	-0.197688
Zn3	Zn	1.861864	-0.397810	-0.505055
Zn4	Zn	2.361864	0.102190	-0.005055
Zn5	Zn	1.653270	-0.280142	-0.497027
Zn6	Zn	2.153270	0.219858	0.002973
Zn7	Zn	1.661264	-0.397753	-0.705697
Zn8	Zn	2.161264	0.102247	-0.205697
O9	O	1.757595	-0.338951	-0.601367
O10	O	2.257595	0.161049	-0.101367
O11	O	2.022977	-0.295719	-0.672143
O12	O	2.522977	0.204281	-0.172143
O13	O	1.834147	-0.382243	-0.336043
O14	O	2.334147	0.117757	0.163957
O15	O	1.673251	-0.181653	-0.516933
O16	O	2.173251	0.318347	-0.016933
O17	O	2.028768	-0.382201	-0.530616
O18	O	2.528768	0.117799	-0.030616
O19	O	1.820713	-0.181621	-0.664358
O20	O	2.320713	0.318379	-0.164358
O21	O	1.680894	-0.295793	-0.330145
O22	O	2.180894	0.204207	0.169855
O23	O	1.486381	-0.295738	-0.524699
O24	O	1.986381	0.204262	-0.024699
O25	O	1.686875	-0.382104	-0.872582
O26	O	2.186875	0.117896	-0.372582
O27	O	1.492254	-0.382147	-0.678008
O28	O	1.992254	0.117853	-0.178008
O29	O	1.828464	-0.295664	-0.866697
O30	O	2.328464	0.204336	-0.366697
O31	O	1.841898	-0.496286	-0.538382
O32	O	2.341898	0.003714	-0.038382
O33	O	1.694518	-0.496244	-0.685793
O34	O	2.194518	0.003756	-0.185793
C35	C	1.445770	-0.338942	-0.601352
C36	C	1.945770	0.161058	-0.101352
C37	C	1.312371	-0.338954	-0.601376
C38	C	1.812371	0.161046	-0.101376
C39	C	1.769963	-0.521800	-0.613854
C40	C	2.269963	-0.021800	-0.113854
C41	C	1.775364	-0.600024	-0.619237
C42	C	2.275364	-0.100024	-0.119237
C43	C	1.814097	-1.040332	-0.657805
C44	C	2.314097	-0.540332	-0.157805
C45	C	1.809009	-0.966833	-0.652737
C46	C	2.309009	-0.466833	-0.152737
C47	C	1.729751	-0.930166	-0.573395
C48	C	2.229751	-0.430166	-0.073395
C49	C	1.655584	-0.967003	-0.499108
C50	C	2.155584	-0.467003	0.000892
C51	C	1.660679	-1.040501	-0.504170
C52	C	2.160679	-0.540501	-0.004170
C53	C	1.706293	-0.710359	-0.550012
C54	C	2.206293	-0.210359	-0.050012
C55	C	1.701201	-0.636856	-0.544957
C56	C	2.201201	-0.136856	-0.044957
C57	C	1.854628	-0.636691	-0.698586
C58	C	2.354628	-0.136691	-0.198586
C59	C	1.859711	-0.710190	-0.703646
C60	C	2.359711	-0.210190	-0.203646
C61	C	1.785549	-0.747021	-0.629355
C62	C	2.285549	-0.247021	-0.129355
N63	N	1.724545	-0.855038	-0.568216
N64	N	2.224545	-0.355038	-0.068216
N65	N	1.790761	-0.822147	-0.634529
N66	N	2.290761	-0.322147	-0.134529
C67	C	2.070638	-0.338961	-0.601382
C68	C	2.570638	0.161039	-0.101382
C69	C	2.204038	-0.338965	-0.601388
C70	C	2.704038	0.161035	-0.101388
C71	C	1.757682	-0.338873	-0.914404
C72	C	2.257682	0.161127	-0.414404
C73	C	1.757719	-0.338840	-1.047802
C74	C	2.257719	0.161160	-0.547802
C75	C	1.745211	-0.155388	-0.588857
C76	C	2.245211	0.344612	-0.088857
C77	C	1.739934	-0.077164	-0.583526
C78	C	2.239934	0.422836	-0.083526
C79	C	1.757574	-0.338978	-0.289544
C80	C	2.257574	0.161022	0.210456
C81	C	1.757756	-0.338813	-0.156133
C82	C	2.257756	0.161187	0.343867
H83	H	1.878626	-1.070181	-0.722425
H84	H	2.378626	-0.570181	-0.222425
H85	H	1.915009	-0.606697	-0.759069
H86	H	2.415009	-0.106697	-0.259069
H87	H	1.636654	-0.607005	-0.480344
H88	H	2.136654	-0.107005	0.019656
H89	H	1.645904	-0.740337	-0.489519
H90	H	2.145904	-0.240337	0.010481
H91	H	1.591055	-0.937145	-0.434500
H92	H	2.091055	-0.437145	0.065500
H93	H	1.869400	-0.936845	-0.713220
H94	H	2.369400	-0.436845	-0.213220
H95	H	1.924265	-0.740039	-0.768241
H96	H	2.424265	-0.240039	-0.268241
H97	H	1.600288	-1.070488	-0.443684
H98	H	2.100288	-0.570488	0.056316
