data_functionalizedCrystal
_audit_creation_method	'MofGen! by Chris Wilmer'
_symmetry_space_group_name_H-M	'P1'
_symmetry_Int_Tables_number	1
_symmetry_cell_setting	triclinic
loop_
_symmetry_equiv_pos_as_xyz
  x,y,z
_cell_length_a	16.959454
_cell_length_b	19.805407
_cell_length_c	19.805399
_cell_angle_alpha	89.980427
_cell_angle_beta	90.017367
_cell_angle_gamma	89.999010
loop_
_atom_site_label
_atom_site_type_symbol
_atom_site_fract_x
_atom_site_fract_y
_atom_site_fract_z
Zn1	Zn	0.314700	1.034855	-0.382768
Zn2	Zn	0.446882	1.034820	-0.269600
Zn3	Zn	0.314722	0.921670	-0.269592
Zn4	Zn	0.446840	0.921684	-0.382746
O5	O	0.380786	0.978257	-0.326177
O6	O	0.332243	1.129567	-0.367768
O7	O	0.429378	1.019790	-0.174882
O8	O	0.204108	0.936693	-0.284611
O9	O	0.429356	1.129542	-0.284624
O10	O	0.204092	1.019850	-0.367761
O11	O	0.332280	0.936659	-0.174877
O12	O	0.332239	0.826955	-0.284590
O13	O	0.429285	0.936716	-0.477466
O14	O	0.429306	0.826965	-0.367724
O15	O	0.332202	1.019863	-0.477482
O16	O	0.557487	1.019804	-0.284603
O17	O	0.557457	0.936683	-0.367731
C18	C	0.380771	0.802401	-0.326155
C19	C	0.380783	0.727169	-0.326161
C20	C	0.174618	0.978274	-0.326187
C21	C	0.086761	0.978281	-0.326192
C22	C	0.431402	0.691848	-0.369379
C23	C	0.431404	0.621160	-0.369389
C24	C	0.380790	0.585794	-0.326177
C25	C	0.330165	0.621120	-0.282957
C26	C	0.330160	0.691807	-0.282951
C27	C	0.330183	0.336047	-0.282979
C28	C	0.330193	0.265354	-0.282987
C29	C	0.431426	0.265399	-0.369417
C30	C	0.431421	0.336086	-0.369411
C31	C	0.380794	0.371406	-0.326194
C32	C	0.380792	0.448055	-0.326185
C33	C	0.380795	0.509147	-0.326182
C34	C	-0.284725	1.021614	-0.369496
C35	C	-0.284704	0.935022	-0.282911
C36	C	-0.202158	0.935013	-0.282909
C37	C	-0.160892	0.978305	-0.326200
C38	C	-0.202172	1.021607	-0.369493
C39	C	-0.160872	0.891716	-0.239611
C40	C	-0.078321	0.891705	-0.239607
C41	C	-0.037053	0.934994	-0.282901
C42	C	-0.078338	0.978298	-0.326197
C43	C	-0.037072	1.021590	-0.369488
C44	C	-0.078356	1.064891	-0.412788
C45	C	-0.160904	1.064897	-0.412788
C46	C	0.045495	0.934989	-0.282901
C47	C	0.045481	1.021583	-0.369485
C48	C	0.586152	0.978259	-0.326180
C49	C	0.674009	0.978322	-0.326205
C50	C	0.380736	0.978295	-0.502719
C51	C	0.380715	0.978311	-0.577951
C52	C	0.380802	1.154800	-0.326199
C53	C	0.380808	1.230032	-0.326208
C54	C	0.330161	1.021607	-0.613305
C55	C	0.330138	1.021614	-0.683993
C56	C	0.380674	0.978328	-0.719327
C57	C	0.431230	0.935028	-0.683969
C58	C	0.431248	0.935018	-0.613281
C59	C	0.431156	0.935066	-0.969042
C60	C	0.431135	0.935081	-1.039734
C61	C	0.330046	1.021662	-1.039754
C62	C	0.330065	1.021652	-0.969067
C63	C	0.380617	0.978350	-0.933714
C64	C	0.380640	0.978342	-0.857066
C65	C	0.380655	0.978339	-0.795974
C66	C	0.380778	0.978258	-0.150321
C67	C	0.380577	0.978373	-0.075089
H68	H	0.472621	0.720638	-0.404565
F69	F	0.276378	1.067682	-0.575706
F70	F	0.276299	0.373628	-0.236986
H71	H	0.472623	0.592404	-0.404580
F72	F	0.485052	0.888935	-0.575656
F73	F	-0.328624	0.888954	-0.236837
F74	F	0.485308	0.227804	-0.415413
H75	H	-0.044746	1.100142	-0.448032
F76	F	0.484958	0.888980	-0.931427
H77	H	-0.318340	1.056867	-0.404752
F78	F	-0.204793	0.845648	-0.193539
F79	F	0.485294	0.373722	-0.415400
H80	H	0.472373	0.899782	-0.712743
H81	H	0.288916	1.056902	-0.940301
F82	F	-0.204846	1.110973	-0.458869
F83	F	0.276293	0.583479	-0.236971
F84	F	0.276319	0.227717	-0.236993
F85	F	0.089393	1.067658	-0.415566
F86	F	0.484924	0.889007	-1.077338
F87	F	-0.034391	0.845620	-0.193526
F88	F	0.276241	1.067746	-1.077384
F89	F	0.276283	0.729398	-0.236954
H90	H	0.079105	0.899736	-0.247645
F91	F	0.276359	1.067718	-0.721616
