data_functionalizedCrystal
_audit_creation_method	'MofGen! by Chris Wilmer'
_symmetry_space_group_name_H-M	'P1'
_symmetry_Int_Tables_number	1
_symmetry_cell_setting	triclinic
loop_
_symmetry_equiv_pos_as_xyz
  x,y,z
_cell_length_a	18.215407
_cell_length_b	19.121063
_cell_length_c	18.215399
_cell_angle_alpha	87.590157
_cell_angle_beta	90.019833
_cell_angle_gamma	92.469446
loop_
_atom_site_label
_atom_site_type_symbol
_atom_site_fract_x
_atom_site_fract_y
_atom_site_fract_z
Zn1	Zn	1.112559	-0.279613	0.428596
Zn2	Zn	1.107212	-0.397068	0.310772
Zn3	Zn	0.989491	-0.279636	0.305544
Zn4	Zn	0.984203	-0.397029	0.433795
O5	O	1.048366	-0.338336	0.369677
O6	O	1.214834	-0.295200	0.412978
O7	O	1.091570	-0.381516	0.207095
O8	O	1.010267	-0.181348	0.317504
O9	O	1.210905	-0.381494	0.326414
O10	O	1.100685	-0.181331	0.407909
O11	O	1.005081	-0.295240	0.203255
O12	O	0.885805	-0.295202	0.322545
O13	O	1.001255	-0.381427	0.536089
O14	O	0.881921	-0.381450	0.416771
O15	O	1.095558	-0.295162	0.532269
O16	O	1.086443	-0.495348	0.331455
O17	O	0.996070	-0.495319	0.421840
C18	C	0.857160	-0.338324	0.369655
C19	C	0.775361	-0.338336	0.369664
C20	C	0.585160	-0.383316	0.418671
C21	C	0.508302	-0.383318	0.418681
C22	C	0.512323	-0.293369	0.320699
C23	C	0.589181	-0.293364	0.320694
C24	C	0.625597	-0.338342	0.369679
C25	C	0.471881	-0.338349	0.369694
C26	C	0.388547	-0.338351	0.369703
C27	C	0.708936	-0.338339	0.369671
C28	C	1.040122	-0.520817	0.377795
C29	C	1.036663	-0.598883	0.381293
C30	C	1.082127	-0.635551	0.335916
C31	C	1.078878	-0.708902	0.339210
C32	C	1.030161	-0.745585	0.387877
C33	C	0.984695	-0.708912	0.433258
C34	C	0.987948	-0.635562	0.429968
C35	C	1.017985	-0.967055	0.400168
C36	C	1.014733	-1.040410	0.403454
C37	C	1.108918	-1.040394	0.309406
C38	C	1.112164	-0.967043	0.306117
C39	C	1.066701	-0.930377	0.351501
C40	C	1.026837	-0.820561	0.391243
C41	C	1.070029	-0.855401	0.348138
C42	C	1.240319	-0.338349	0.369699
C43	C	1.322117	-0.338354	0.369709
C44	C	1.048413	-0.338288	0.561628
C45	C	1.048433	-0.338267	0.643426
C46	C	1.056662	-0.155143	0.361543
C47	C	1.060197	-0.077077	0.358077
C48	C	1.048364	-0.338334	0.178471
C49	C	1.048495	-0.338157	0.096664
C50	C	1.097555	-0.293307	0.829630
C51	C	1.097565	-0.293287	0.906488
C52	C	0.999368	-0.383119	0.910455
C53	C	0.999355	-0.383135	0.833598
C54	C	1.048453	-0.338231	0.793188
C55	C	1.048476	-0.338194	0.946902
C56	C	1.048486	-0.338172	1.030235
C57	C	1.048442	-0.338251	0.709850
H58	H	0.475381	-0.419940	0.458576
H59	H	0.987169	-0.850437	0.430866
H60	H	1.137532	-0.256741	0.796730
C61	C	0.625216	-0.432787	0.472562
N62	N	0.655384	-0.470048	0.513156
C63	C	1.151583	-0.243869	0.946571
N64	N	1.192272	-0.206646	0.976761
C65	C	0.945362	-0.432510	0.954913
N66	N	0.904683	-0.469713	0.988398
C67	C	0.945334	-0.432555	0.793509
N68	N	0.904645	-0.469774	0.763314
C69	C	0.633664	-0.243886	0.266795
N70	N	0.667169	-0.206620	0.226202
H71	H	0.980966	-0.937207	0.437120
C72	C	0.472258	-0.243901	0.266814
N73	N	0.442081	-0.206642	0.226225
C74	C	1.165738	-0.926697	0.252560
N75	N	1.206082	-0.896309	0.212212
H76	H	1.121795	-0.605688	0.296283
C77	C	0.931102	-0.749266	0.486790
N78	N	0.890732	-0.779660	0.527108
H79	H	1.115899	-0.738753	0.302259
C80	C	1.158926	-1.080733	0.259489
N81	N	1.196596	-1.111116	0.221892
H82	H	0.975071	-1.070275	0.443097
C83	C	1.123615	-0.815048	0.294604
N84	N	1.163974	-0.784648	0.254279
C85	C	0.937934	-0.595229	0.479886
N86	N	0.900264	-0.564850	0.517487
