data_functionalizedCrystal
_audit_creation_method	'MofGen! by Chris Wilmer'
_symmetry_space_group_name_H-M	'P1'
_symmetry_Int_Tables_number	1
_symmetry_cell_setting	triclinic
loop_
_symmetry_equiv_pos_as_xyz
  x,y,z
_cell_length_a	17.699077
_cell_length_b	17.699103
_cell_length_c	16.776229
_cell_angle_alpha	89.988386
_cell_angle_beta	89.993415
_cell_angle_gamma	83.285818
loop_
_atom_site_label
_atom_site_type_symbol
_atom_site_fract_x
_atom_site_fract_y
_atom_site_fract_z
O1	O	1.004088	0.095691	-0.066286
O2	O	0.783710	0.108148	-0.066291
O3	O	0.900118	-0.008269	-0.066273
O4	O	0.887681	0.212107	-0.066304
O5	O	0.900102	-0.008276	0.066303
O6	O	0.783695	0.108141	0.066285
O7	O	1.004073	0.095683	0.066290
Zn8	Zn	0.893881	0.101911	0.087337
Zn9	Zn	0.893901	0.101920	-0.087338
O10	O	0.887665	0.212100	0.066272
C11	C	0.755505	0.107698	-0.000004
C12	C	0.671487	0.106362	-0.000005
C13	C	0.632011	0.105728	0.072264
C14	C	0.553068	0.104460	0.072265
C15	C	0.513602	0.103831	-0.000004
C16	C	0.553084	0.104462	-0.072278
C17	C	0.632026	0.105725	-0.072278
C18	C	0.234720	0.099369	-0.072278
C19	C	0.155772	0.098109	-0.072273
C20	C	0.155763	0.098104	0.072264
C21	C	0.234705	0.099366	0.072264
C22	C	0.274180	0.099994	-0.000010
C23	C	0.359779	0.101368	-0.000010
C24	C	0.428004	0.102463	-0.000004
C25	C	0.899662	-0.036469	0.000017
C26	C	0.898317	-0.120487	0.000024
C27	C	1.032278	0.096133	0.000001
C28	C	1.116296	0.097469	-0.000003
C29	C	0.890101	-0.636194	-0.072296
C30	C	0.891364	-0.557251	-0.072289
C31	C	0.891985	-0.517796	-0.000017
C32	C	0.891351	-0.557290	0.072253
C33	C	0.890095	-0.636233	0.072245
C34	C	0.896421	-0.238924	0.072286
C35	C	0.897676	-0.159976	0.072289
C36	C	0.897690	-0.159942	-0.072248
C37	C	0.896433	-0.238885	-0.072256
C38	C	0.895804	-0.278372	0.000014
C39	C	0.894437	-0.363971	0.000005
C40	C	0.893347	-0.432198	-0.000008
C41	C	0.888121	0.240301	-0.000020
C42	C	0.889466	0.324318	-0.000032
N43	N	0.893873	0.101904	0.206548
N44	N	0.893916	0.101921	-0.206549
C45	C	0.945434	0.050376	0.248273
C46	C	0.945438	0.050375	0.331725
C47	C	0.893884	0.101907	0.373451
C48	C	0.842318	0.153438	0.331720
C49	C	0.842311	0.153434	0.248270
C50	C	0.842345	0.153452	0.668267
C51	C	0.842358	0.153454	0.751724
C52	C	0.945473	0.050393	0.751723
C53	C	0.945465	0.050390	0.668273
C54	C	0.893897	0.101918	0.626549
C55	C	0.893892	0.101917	0.536061
C56	C	0.893892	0.101912	0.463938
H57	H	0.520932	0.103931	0.131113
C58	C	1.002157	-0.006303	0.377627
C59	C	1.058888	-0.062969	0.331738
C60	C	1.115609	-0.119649	0.377641
C61	C	1.115598	-0.119663	0.469434
C62	C	1.058865	-0.062995	0.515328
C63	C	1.002145	-0.006315	0.469425
H64	H	1.058897	-0.062960	0.263783
H65	H	1.157606	-0.161598	0.343667
H66	H	1.157586	-0.161621	0.503414
H67	H	1.058856	-0.063003	0.583283
H68	H	0.960147	0.035635	0.503399
C69	C	0.509674	0.103768	-0.151775
C70	C	0.553100	0.104461	-0.231269
C71	C	0.509692	0.103767	-0.310769
C72	C	0.422858	0.102381	-0.310773
C73	C	0.379428	0.101688	-0.231275
C74	C	0.422836	0.102381	-0.151776
H75	H	0.617383	0.105487	-0.231269
H76	H	0.541842	0.104280	-0.369618
H77	H	0.390725	0.101867	-0.369623
H78	H	0.315144	0.100661	-0.231276
H79	H	0.390685	0.101868	-0.092927
C80	C	1.002195	-0.006296	0.797620
C81	C	1.002207	-0.006303	0.889413
C82	C	1.058929	-0.062988	0.935307
C83	C	1.115639	-0.119667	0.889409
C84	C	1.115630	-0.119663	0.797611
C85	C	1.058907	-0.062977	0.751717
H86	H	0.960225	0.035656	0.923394
H87	H	1.058936	-0.062991	1.003262
H88	H	1.157629	-0.161630	0.923382
H89	H	1.157612	-0.161622	0.763630
H90	H	1.058900	-0.062974	0.683762
C91	C	0.889417	-0.679590	-0.151799
C92	C	0.822858	-0.725142	-0.171687
C93	C	0.822176	-0.768535	-0.251192
C94	C	0.888053	-0.766376	-0.310809
C95	C	0.954618	-0.720822	-0.290923
C96	C	0.955300	-0.677429	-0.211418
H97	H	0.774087	-0.726742	-0.127553
H98	H	0.772900	-0.802257	-0.265913
H99	H	0.887549	-0.798498	-0.369664
H100	H	1.003389	-0.719222	-0.335056
H101	H	1.004575	-0.643707	-0.196697
C102	C	0.112340	0.097405	0.151769
C103	C	0.131910	0.031884	0.211404
C104	C	0.088489	0.031189	0.290907
C105	C	0.025499	0.096015	0.310773
C106	C	0.005927	0.161540	0.251136
C107	C	0.049347	0.162236	0.171634
H108	H	0.178541	-0.016108	0.196699
H109	H	0.102979	-0.017318	0.335054
H110	H	-0.006643	0.095500	0.369626
H111	H	-0.040705	0.209532	0.265841
H112	H	0.034857	0.210742	0.127487
C113	C	0.785641	0.210138	0.797625
C114	C	0.785655	0.210142	0.889417
C115	C	0.728942	0.266823	0.935318
C116	C	0.672215	0.323500	0.889427
C117	C	0.672199	0.323498	0.797629
C118	C	0.728912	0.266817	0.751728
H119	H	0.827649	0.168185	0.923393
H120	H	0.728955	0.266824	1.003273
H121	H	0.630233	0.365459	0.923405
H122	H	0.630205	0.365455	0.763653
H123	H	0.728900	0.266816	0.683773
H124	H	0.664138	0.106246	0.131113
H125	H	0.891883	-0.525103	-0.131134
H126	H	0.266834	0.099882	0.131112
H127	H	0.895924	-0.271004	-0.131107
H128	H	0.800358	0.195409	0.634303
H129	H	0.266852	0.099878	-0.131128
H130	H	0.987447	0.008430	0.634302
H131	H	0.895910	-0.271065	0.131133
C132	C	0.785607	0.210125	0.377614
C133	C	0.785646	0.210171	0.469407
C134	C	0.728935	0.266862	0.515298
C135	C	0.672185	0.323507	0.469396
C136	C	0.672143	0.323463	0.377599
C137	C	0.728854	0.266772	0.331708
H138	H	0.827659	0.168238	0.503390
H139	H	0.728967	0.266895	0.583252
H140	H	0.630204	0.365473	0.503367
H141	H	0.630131	0.365396	0.343615
H142	H	0.728823	0.266739	0.263753
H143	H	0.664166	0.106243	-0.131126
H144	H	0.123641	0.097596	-0.131126
H145	H	0.800324	0.195393	0.214298
H146	H	0.891862	-0.525161	0.131098
H147	H	0.898205	-0.127782	-0.131093
H148	H	0.898178	-0.127853	0.131145
H149	H	0.889576	-0.668383	0.131090
H150	H	0.987418	0.008416	0.214306
