data_functionalizedCrystal
_audit_creation_method	'MofGen! by Chris Wilmer'
_symmetry_space_group_name_H-M	'P1'
_symmetry_Int_Tables_number	1
_symmetry_cell_setting	triclinic
loop_
_symmetry_equiv_pos_as_xyz
  x,y,z
_cell_length_a	17.038272
_cell_length_b	17.019448
_cell_length_c	9.482900
_cell_angle_alpha	103.131721
_cell_angle_beta	80.035009
_cell_angle_gamma	87.247973
loop_
_atom_site_label
_atom_site_type_symbol
_atom_site_fract_x
_atom_site_fract_y
_atom_site_fract_z
O1	O	1.047371	0.161696	-0.100495
O2	O	0.819782	0.158939	-0.100882
O3	O	0.941379	0.044534	-0.115154
O4	O	0.925775	0.276101	-0.086223
O5	O	0.916678	0.067872	0.129550
O6	O	0.795082	0.182277	0.143822
O7	O	1.022671	0.185034	0.144209
Cu8	Cu	0.906621	0.185786	0.166359
Cu9	Cu	0.935832	0.158186	-0.123032
O10	O	0.901074	0.299439	0.158481
C11	C	0.778338	0.168104	0.021151
C12	C	0.691646	0.160633	0.020201
C13	C	0.928921	0.026427	0.003474
C14	C	0.928589	-0.062296	-0.007621
C15	C	0.927480	-0.564755	-0.077224
C16	C	0.927780	-0.481387	-0.066769
C17	C	0.914460	-0.426997	0.071847
C18	C	0.900846	-0.455979	0.200016
C19	C	0.900552	-0.539347	0.189559
C20	C	0.914681	-0.174646	0.110092
C21	C	0.914975	-0.091274	0.120538
C22	C	0.941910	-0.116687	-0.146248
C23	C	0.941609	-0.200054	-0.156692
C24	C	0.928000	-0.229030	-0.028523
C25	C	0.914764	-0.341781	0.082537
C26	C	0.927701	-0.314245	-0.039214
C27	C	0.640614	0.229209	0.028770
C28	C	0.559156	0.222188	0.027913
C29	C	0.528732	0.146590	0.018476
C30	C	0.579770	0.078009	0.009911
C31	C	0.661226	0.085032	0.010779
C32	C	0.283302	0.121780	0.015416
C33	C	0.201840	0.114762	0.014544
C34	C	0.181231	0.258942	0.032549
C35	C	0.262690	0.265957	0.033407
C36	C	0.313721	0.197378	0.024849
C37	C	0.445469	0.139411	0.017595
C38	C	0.396981	0.204558	0.025741
C39	C	1.064116	0.175868	0.022173
C40	C	1.150808	0.183338	0.023113
C41	C	0.913533	0.317545	0.039850
C42	C	0.913865	0.406268	0.050935
N43	N	0.886081	0.205199	0.369901
N44	N	0.956378	0.138768	-0.326574
C45	C	0.929768	0.163907	0.436949
C46	C	0.912685	0.180065	0.606382
H47	H	0.938319	-0.609034	-0.190100
H48	H	0.904104	-0.046988	0.233422
F49	F	1.021931	0.077064	0.584534
F50	F	0.820657	0.267037	0.458818
F51	F	0.995051	0.101914	0.348013
F52	F	0.942273	-0.450551	-0.203175
F53	F	0.886065	-0.570186	0.325965
F54	F	0.847257	0.241907	0.695294
H55	H	0.952461	-0.244335	-0.269568
F56	F	0.413083	0.058955	0.007547
F57	F	0.956405	-0.085843	-0.282645
F58	F	0.169461	0.034299	0.004526
F59	F	0.886675	-0.398092	0.347542
F60	F	0.941883	-0.372132	-0.186735
F61	F	0.900191	-0.205473	0.246502
H62	H	0.554991	0.016457	0.002249
F63	F	0.900586	-0.283888	0.230059
H64	H	0.665378	0.290769	0.036453
H65	H	0.517608	0.278030	0.034889
F66	F	0.295064	0.346419	0.043443
F67	F	0.126916	0.331925	0.041659
H68	H	0.324842	0.065938	0.008449
H69	H	0.702777	0.029190	0.003801
H70	H	0.421755	0.266111	0.033432
