data_functionalizedCrystal
_audit_creation_method	'MofGen! by Chris Wilmer'
_symmetry_space_group_name_H-M	'P1'
_symmetry_Int_Tables_number	1
_symmetry_cell_setting	triclinic
loop_
_symmetry_equiv_pos_as_xyz
  x,y,z
_cell_length_a	10.654545
_cell_length_b	19.188924
_cell_length_c	9.730223
_cell_angle_alpha	89.993539
_cell_angle_beta	89.997167
_cell_angle_gamma	83.812522
loop_
_atom_site_label
_atom_site_type_symbol
_atom_site_fract_x
_atom_site_fract_y
_atom_site_fract_z
O1	O	1.665763	0.098047	-0.114283
O2	O	2.165763	0.598047	0.385717
O3	O	1.300086	0.107393	-0.114290
O4	O	1.800086	0.607393	0.385710
O5	O	1.493482	0.001133	-0.114270
O6	O	1.993482	0.501133	0.385730
O7	O	1.472367	0.204307	-0.114303
O8	O	1.972367	0.704307	0.385697
O9	O	1.493469	0.001130	0.114310
O10	O	1.993469	0.501130	0.614310
O11	O	1.300074	0.107390	0.114290
O12	O	1.800074	0.607390	0.614290
O13	O	1.665751	0.098044	0.114297
O14	O	2.165751	0.598044	0.614297
Zn15	Zn	1.482910	0.102717	0.150586
Zn16	Zn	1.982910	0.602717	0.650586
Zn17	Zn	1.482927	0.102721	-0.150578
Zn18	Zn	1.982927	0.602721	0.349422
O19	O	1.472355	0.204304	0.114277
O20	O	1.972355	0.704304	0.614277
C21	C	1.253296	0.106706	-0.000000
C22	C	1.753296	0.606706	0.500000
C23	C	1.113896	0.104655	-0.000002
C24	C	1.613896	0.604655	0.499998
C25	C	1.048405	0.103688	0.124598
C26	C	1.548405	0.603688	0.624598
C27	C	0.917427	0.101749	0.124598
C28	C	1.417427	0.601749	0.624598
C29	C	0.917441	0.101747	-0.124612
C30	C	1.417441	0.601747	0.375388
C31	C	1.048418	0.103681	-0.124611
C32	C	1.548418	0.603681	0.375389
C33	C	1.492793	-0.024884	0.000021
C34	C	1.992793	0.475116	0.500021
C35	C	1.490745	-0.102402	0.000025
C36	C	1.990745	0.397598	0.500025
C37	C	1.489796	-0.138806	-0.124574
C38	C	1.989796	0.361194	0.375426
C39	C	1.487854	-0.211641	-0.124585
C40	C	1.987854	0.288359	0.375415
C41	C	1.486886	-0.248072	0.000011
C42	C	1.986886	0.251928	0.500011
C43	C	1.487828	-0.211659	0.124627
C44	C	1.987828	0.288341	0.624627
C45	C	1.489758	-0.138824	0.124634
C46	C	1.989758	0.361176	0.624634
N47	N	1.555314	-0.367289	0.092746
N48	N	2.055314	0.132711	0.592746
N49	N	1.553483	-0.436480	0.092731
N50	N	2.053483	0.063520	0.592731
C51	C	1.481069	-0.467519	-0.000002
C52	C	1.981069	0.032481	0.499998
N53	N	1.410570	-0.426755	-0.092741
N54	N	1.910570	0.073245	0.407259
N55	N	1.412406	-0.357559	-0.092730
N56	N	1.912406	0.142441	0.407270
C57	C	1.484792	-0.327049	0.000017
C58	C	1.984792	0.172951	0.500017
C59	C	1.478012	-0.582899	-0.124622
C60	C	1.978012	-0.082899	0.375378
C61	C	1.476062	-0.655735	-0.124627
C62	C	1.976062	-0.155735	0.375373
C63	C	1.476049	-0.655752	0.124588
C64	C	1.976049	-0.155752	0.624588
C65	C	1.477986	-0.582917	0.124590
C66	C	1.977986	-0.082917	0.624590
C67	C	1.478974	-0.546495	-0.000019
C68	C	1.978974	-0.046495	0.499981
C69	C	1.712541	0.098731	0.000004
C70	C	2.212541	0.598731	0.500004
C71	C	1.851941	0.100782	-0.000003
C72	C	2.351941	0.600782	0.499997
C73	C	1.473044	0.230321	-0.000017
C74	C	1.973044	0.730321	0.499983
C75	C	1.475092	0.307839	-0.000030
C76	C	1.975092	0.807839	0.499970
N77	N	1.482908	0.102714	0.356122
N78	N	1.982908	0.602714	0.856122
N79	N	1.482938	0.102718	-0.356115
N80	N	1.982938	0.602718	0.143885
C81	C	1.568573	0.055682	0.428057
C82	C	2.068573	0.555682	0.928057
C83	C	1.568585	0.055682	0.571939
C84	C	2.068585	0.555682	1.071939
C85	C	1.397265	0.149752	0.571941
C86	C	1.897265	0.649752	1.071941
C87	C	1.397247	0.149748	0.428060
C88	C	1.897247	0.649748	0.928060
H89	H	0.864110	0.100962	0.226060
H90	H	1.364110	0.600962	0.726060
H91	H	0.864113	0.100955	-0.226065
H92	H	1.364113	0.600955	0.273935
O93	O	1.304853	0.200480	0.350457
O94	O	1.804853	0.700480	0.850457
H95	H	1.245304	0.233194	0.424650
H96	H	1.745304	0.733194	0.924650
O97	O	1.660995	0.004956	0.649514
O98	O	2.160995	0.504956	1.149514
H99	H	1.608345	-0.029260	0.715077
H100	H	2.108345	0.470740	1.215077
H101	H	1.475251	-0.685413	0.226037
H102	H	1.975251	-0.185413	0.726037
H103	H	1.101743	0.104467	-0.226082
H104	H	1.601743	0.604467	0.273918
H105	H	1.101714	0.104481	0.226063
H106	H	1.601714	0.604481	0.726063
H107	H	1.490596	-0.109155	-0.226041
H108	H	1.990596	0.390845	0.273959
O109	O	1.304893	0.200487	0.649540
O110	O	1.804893	0.700487	1.149540
H111	H	1.320584	0.254994	0.621886
H112	H	1.820584	0.754994	1.121886
O113	O	1.486833	-0.250919	-0.258978
O114	O	1.986833	0.249081	0.241022
H115	H	1.487849	-0.213356	-0.345623
H116	H	1.987849	0.286644	0.154377
H117	H	1.478809	-0.553242	-0.226085
H118	H	1.978809	-0.053242	0.273915
H119	H	1.490525	-0.109184	0.226100
H120	H	1.990525	0.390816	0.726100
O121	O	1.486807	-0.250947	0.259017
O122	O	1.986807	0.249053	0.759017
H123	H	1.485326	-0.307712	0.238081
H124	H	1.985326	0.192288	0.738081
H125	H	1.478770	-0.553277	0.226052
H126	H	1.978770	-0.053277	0.726052
O127	O	1.474989	-0.695001	-0.259022
O128	O	1.974989	-0.195001	0.240978
H129	H	1.475994	-0.657435	-0.345662
H130	H	1.975994	-0.157435	0.154338
H131	H	1.638321	0.017382	0.369488
H132	H	2.138321	0.517382	0.869488
