data_functionalizedCrystal
_audit_creation_method	'MofGen! by Chris Wilmer'
_symmetry_space_group_name_H-M	'P1'
_symmetry_Int_Tables_number	1
_symmetry_cell_setting	triclinic
loop_
_symmetry_equiv_pos_as_xyz
  x,y,z
_cell_length_a	15.995292
_cell_length_b	15.995292
_cell_length_c	15.186229
_cell_angle_alpha	90.002910
_cell_angle_beta	89.993216
_cell_angle_gamma	83.468616
loop_
_atom_site_label
_atom_site_type_symbol
_atom_site_fract_x
_atom_site_fract_y
_atom_site_fract_z
O1	O	1.110995	0.107692	-0.073246
O2	O	1.444329	0.441025	0.260087
O3	O	1.777662	0.774359	0.593421
O4	O	0.867211	0.121071	-0.073242
O5	O	1.200544	0.454404	0.260091
O6	O	1.533877	0.787737	0.593425
O7	O	0.995792	-0.007511	-0.073245
O8	O	1.329126	0.325822	0.260088
O9	O	1.662459	0.659156	0.593421
O10	O	0.982414	0.236274	-0.073243
O11	O	1.315747	0.569607	0.260091
O12	O	1.649080	0.902940	0.593424
O13	O	0.995777	-0.007504	0.073212
O14	O	1.329111	0.325830	0.406545
O15	O	1.662444	0.659163	0.739879
O16	O	0.867196	0.121078	0.073215
O17	O	1.200529	0.454411	0.406549
O18	O	1.533862	0.787745	0.739882
O19	O	1.110980	0.107699	0.073211
O20	O	1.444314	0.441033	0.406545
O21	O	1.777647	0.774366	0.739878
Zn22	Zn	0.989086	0.114390	0.096467
Zn23	Zn	1.322419	0.447723	0.429800
Zn24	Zn	1.655752	0.781057	0.763133
Zn25	Zn	0.989105	0.114380	-0.096497
Zn26	Zn	1.322439	0.447714	0.236836
Zn27	Zn	1.655772	0.781047	0.570169
O28	O	0.982399	0.236281	0.073215
O29	O	1.315732	0.569614	0.406548
O30	O	1.649065	0.902948	0.739881
C31	C	0.836008	0.120530	-0.000013
C32	C	1.169341	0.453863	0.333321
C33	C	1.502674	0.787197	0.666654
C34	C	0.743055	0.118898	-0.000011
C35	C	1.076388	0.452231	0.333322
C36	C	1.409722	0.785564	0.666655
C37	C	0.405318	0.112896	-0.000021
C38	C	0.738651	0.446229	0.333312
C39	C	1.071985	0.779563	0.666645
C40	C	0.428611	0.205703	-0.000347
C41	C	0.761944	0.539036	0.332986
C42	C	1.095278	0.872370	0.666319
C43	C	0.525286	0.207467	-0.000013
C44	C	0.858619	0.540800	0.333320
C45	C	1.191953	0.874134	0.666653
C46	C	0.572873	0.115874	-0.000017
C47	C	0.906207	0.449207	0.333316
C48	C	1.239540	0.782541	0.666650
C49	C	0.543772	0.069479	0.083614
C50	C	0.877106	0.402813	0.416947
C51	C	1.210439	0.736146	0.750280
C52	C	0.446982	0.068362	0.083680
C53	C	0.780315	0.401695	0.417013
C54	C	1.113649	0.735029	0.750347
C55	C	0.447144	0.066458	-0.082869
C56	C	0.780478	0.399792	0.250464
C57	C	1.113811	0.733125	0.583797
C58	C	0.543636	0.069898	-0.083971
C59	C	0.876969	0.403231	0.249363
C60	C	1.210303	0.736564	0.582696
C61	C	0.667569	0.117552	-0.000011
C62	C	1.000902	0.450885	0.333322
C63	C	1.334236	0.784219	0.666655
C64	C	0.310622	0.111215	-0.000021
C65	C	0.643956	0.444549	0.333312
C66	C	0.977289	0.777882	0.666646
C67	C	0.995240	-0.038703	-0.000019
C68	C	1.328574	0.294631	0.333314
C69	C	1.661907	0.627964	0.666648
C70	C	0.993608	-0.131655	-0.000026
C71	C	1.326941	0.201678	0.333308
C72	C	1.660275	0.535011	0.666641
C73	C	0.987607	-0.469393	-0.000017
C74	C	1.320940	-0.136059	0.333316
C75	C	1.654273	0.197274	0.666649
C76	C	1.080413	-0.446100	0.000308
C77	C	1.413747	-0.112766	0.333641
C78	C	1.747080	0.220567	0.666975
C79	C	1.082177	-0.349424	-0.000025
C80	C	1.415511	-0.016091	0.333308
C81	C	1.748844	0.317242	0.666642
C82	C	0.990584	-0.301837	-0.000021
C83	C	1.323918	0.031496	0.333312
C84	C	1.657251	0.364829	0.666646
C85	C	0.944194	-0.330933	-0.083652
C86	C	1.277527	0.002401	0.249682
C87	C	1.610861	0.335734	0.583015
C88	C	0.943077	-0.427723	-0.083719
C89	C	1.276410	-0.094390	0.249615
C90	C	1.609743	0.238944	0.582948
C91	C	0.941164	-0.427571	0.082831
C92	C	1.274498	-0.094238	0.416164
C93	C	1.607831	0.239095	0.749498
C94	C	0.944604	-0.331080	0.083933
C95	C	1.277937	0.002254	0.417266
C96	C	1.611270	0.335587	0.750600
C97	C	0.992263	-0.207141	-0.000026
C98	C	1.325596	0.126192	0.333307
C99	C	1.658929	0.459525	0.666641
C100	C	0.985926	-0.564088	-0.000018
C101	C	1.319259	-0.230755	0.333315
C102	C	1.652592	0.102579	0.666648
C103	C	1.142183	0.108240	-0.000020
C104	C	1.475517	0.441574	0.333313
C105	C	1.808850	0.774907	0.666647
C106	C	1.235136	0.109873	-0.000027
C107	C	1.568469	0.443206	0.333306
C108	C	1.901803	0.776539	0.666640
C109	C	0.982951	0.267473	-0.000014
C110	C	1.316284	0.600806	0.333320
C111	C	1.649617	0.934140	0.666653
C112	C	0.984583	0.360426	-0.000013
C113	C	1.317916	0.693759	0.333321
C114	C	1.651250	1.027092	0.666654
N115	N	0.989078	0.114396	0.228159
N116	N	1.322411	0.447729	0.561493
N117	N	1.655745	0.781063	0.894826
N118	N	0.989120	0.114368	-0.228190
N119	N	1.322453	0.447701	0.105143
N120	N	1.655786	0.781034	0.438477
C121	C	1.039864	0.165186	0.453882
C122	C	1.373197	0.498520	0.787215
C123	C	1.706531	0.831853	1.120548
C124	C	1.039873	0.165180	0.546071
C125	C	1.373207	0.498514	0.879405
C126	C	1.706540	0.831847	1.212738
C127	C	0.938331	0.063571	0.546081
C128	C	1.271665	0.396905	0.879414
C129	C	1.604998	0.730238	1.212748
C130	C	0.938327	0.063573	0.453893
C131	C	1.271661	0.396907	0.787227
C132	C	1.604994	0.730240	1.120560
C133	C	0.989092	0.114386	0.407796
C134	C	1.322426	0.447719	0.741129
C135	C	1.655759	0.781052	1.074463
C136	C	0.989105	0.114378	0.592173
C137	C	1.322439	0.447711	0.925507
C138	C	1.655772	0.781044	1.258840
C139	C	0.989115	0.114371	0.692130
C140	C	1.322448	0.447704	1.025463
C141	C	1.655782	0.781038	1.358796
C142	C	0.989084	0.114392	0.307833
C143	C	1.322417	0.447725	0.641167
C144	C	1.655751	0.781058	0.974500
H145	H	0.432446	0.000316	0.087477
H146	H	0.765779	0.333649	0.420810
H147	H	1.099112	0.666983	0.754143
N148	N	0.883580	0.008774	0.595808
N149	N	1.216914	0.342107	0.929141
N150	N	1.550247	0.675441	1.262474
H151	H	0.842592	0.045216	0.634064
H152	H	1.175925	0.378550	0.967398
H153	H	1.509258	0.711883	1.300731
H154	H	0.851472	-0.023403	0.552568
H155	H	1.184806	0.309930	0.885902
H156	H	1.518139	0.643264	1.219235
N157	N	0.883560	0.008777	0.404186
N158	N	1.216894	0.342110	0.737519
N159	N	1.550227	0.675443	1.070853
H160	H	0.842570	0.045218	0.365944
H161	H	1.175904	0.378552	0.699277
H162	H	1.509237	0.711885	1.032610
H163	H	0.920084	-0.032186	0.365981
H164	H	1.253417	0.301147	0.699314
H165	H	1.586750	0.634480	1.032648
H166	H	0.420152	0.100499	0.146198
H167	H	0.753485	0.433833	0.479532
H168	H	1.086819	0.767166	0.812865
H169	H	0.418818	0.095463	-0.146257
H170	H	0.752151	0.428797	0.187077
H171	H	1.085484	0.762130	0.520410
N172	N	0.550496	0.255588	-0.079424
N173	N	0.883829	0.588922	0.253910
N174	N	1.217163	0.922255	0.587243
H175	H	0.498763	0.275845	-0.114961
H176	H	0.832096	0.609178	0.218372
H177	H	1.165429	0.942511	0.551706
H178	H	0.578938	0.305515	-0.059383
H179	H	0.912272	0.638848	0.273951
H180	H	1.245605	0.972182	0.607284
N181	N	0.586009	-0.019796	0.087741
N182	N	0.919343	0.313537	0.421074
N183	N	1.252676	0.646871	0.754407
H184	H	0.619981	-0.027980	0.143761
H185	H	0.953314	0.305354	0.477094
H186	H	1.286648	0.638687	0.810428
H187	H	0.541794	-0.060114	0.086878
H188	H	0.875127	0.273219	0.420212
H189	H	1.208460	0.606553	0.753545
H190	H	0.399579	0.241279	0.059292
H191	H	0.732912	0.574613	0.392625
H192	H	1.066245	0.907946	0.725959
N193	N	1.094627	0.219969	0.595792
N194	N	1.427960	0.553303	0.929126
N195	N	1.761294	0.886636	1.262459
H196	H	1.135617	0.183519	0.634027
H197	H	1.468950	0.516853	0.967360
H198	H	1.802284	0.850186	1.300694
H199	H	1.126734	0.252153	0.552554
H200	H	1.460068	0.585486	0.885887
H201	H	1.793401	0.918820	1.219221
N202	N	0.391528	0.253092	-0.079788
N203	N	0.724861	0.586426	0.253545
N204	N	1.058194	0.919759	0.586878
H205	H	0.359265	0.214865	-0.116339
H206	H	0.692598	0.548198	0.216995
H207	H	1.025932	0.881532	0.550328
H208	H	0.352257	0.303420	-0.059761
H209	H	0.685590	0.636754	0.273573
H210	H	1.018923	0.970087	0.606906
H211	H	0.543676	0.244027	0.060039
H212	H	0.877009	0.577360	0.393373
H213	H	1.210342	0.910694	0.726706
N214	N	0.986878	-0.304388	-0.166104
N215	N	1.320211	0.028945	0.167229
N216	N	1.653544	0.362279	0.500563
H217	H	0.985386	-0.241099	-0.167060
H218	H	1.318719	0.092235	0.166274
H219	H	1.652052	0.425568	0.499607
H220	H	1.047261	-0.330937	-0.166884
H221	H	1.380594	0.002396	0.166449
H222	H	1.713927	0.335730	0.499783
H223	H	1.118510	-0.330404	0.059923
H224	H	1.451843	0.002930	0.393257
H225	H	1.785176	0.336263	0.726590
N226	N	0.852946	-0.446982	-0.088758
N227	N	1.186280	-0.113649	0.244575
N228	N	1.519613	0.219684	0.577909
H229	H	0.844947	-0.480931	-0.143578
H230	H	1.178280	-0.147597	0.189755
H231	H	1.511613	0.185736	0.523088
H232	H	0.839449	-0.480271	-0.035110
H233	H	1.172782	-0.146937	0.298223
H234	H	1.506115	0.186396	0.631556
H235	H	0.562205	0.103678	-0.145840
H236	H	0.895538	0.437011	0.187493
H237	H	1.228872	0.770345	0.520826
N238	N	0.570321	0.112157	0.166063
N239	N	0.903654	0.445490	0.499397
N240	N	1.236988	0.778823	0.832730
H241	H	0.601191	0.161534	0.149433
H242	H	0.934525	0.494867	0.482766
H243	H	1.267858	0.828200	0.816100
H244	H	0.518851	0.132663	0.201901
H245	H	0.852184	0.465997	0.535234
H246	H	1.185517	0.799330	0.868567
N247	N	0.587322	-0.018660	-0.090673
N248	N	0.920655	0.314674	0.242661
N249	N	1.253988	0.648007	0.575994
H250	H	0.626858	-0.030284	-0.039150
H251	H	0.960192	0.303049	0.294183
H252	H	1.293525	0.636382	0.627517
H253	H	0.543955	-0.059879	-0.089959
H254	H	0.877288	0.273455	0.243374
H255	H	1.210621	0.606788	0.576707
H256	H	0.433165	-0.001854	-0.083437
H257	H	0.766499	0.331480	0.249896
H258	H	1.099832	0.664813	0.583229
H259	H	1.116179	-0.474101	0.060283
H260	H	1.449513	-0.140768	0.393617
H261	H	1.782846	0.192565	0.726950
H262	H	1.115993	-0.475128	-0.059332
H263	H	1.449326	-0.141794	0.274002
H264	H	1.782660	0.191539	0.607335
H265	H	1.118736	-0.331030	-0.060081
H266	H	1.452070	0.002303	0.273252
H267	H	1.785403	0.335636	0.606586
H268	H	0.975217	-0.454549	-0.146237
H269	H	1.308551	-0.121216	0.187096
H270	H	1.641884	0.212117	0.520430
H271	H	0.876794	-0.299051	-0.086758
H272	H	1.210127	0.034282	0.246575
H273	H	1.543461	0.367615	0.579909
N274	N	0.979658	-0.465003	0.166800
N275	N	1.312991	-0.131669	0.500134
N276	N	1.646325	0.201664	0.833467
H277	H	1.027597	-0.509456	0.151983
H278	H	1.360930	-0.176123	0.485317
H279	H	1.694263	0.157211	0.818650
H280	H	1.001538	-0.419251	0.203089
H281	H	1.334872	-0.085917	0.536422
H282	H	1.668205	0.247416	0.869756
H283	H	0.877749	-0.298096	0.088987
H284	H	1.211083	0.035237	0.422320
H285	H	1.544416	0.368571	0.755653
N286	N	0.989337	-0.306491	0.165891
N287	N	1.322671	0.026843	0.499225
N288	N	1.656004	0.360176	0.832558
H289	H	1.039180	-0.276532	0.148720
H290	H	1.372513	0.056801	0.482054
H291	H	1.705846	0.390134	0.815387
H292	H	0.949275	-0.267845	0.202996
H293	H	1.282609	0.065488	0.536330
H294	H	1.615942	0.398822	0.869663
N295	N	0.850677	-0.446081	0.083598
N296	N	1.184010	-0.112747	0.416931
N297	N	1.517344	0.220586	0.750264
H298	H	0.821492	-0.422655	0.028448
H299	H	1.154825	-0.089322	0.361781
H300	H	1.488158	0.244012	0.695115
H301	H	0.848827	-0.508946	0.085919
H302	H	1.182160	-0.175613	0.419252
H303	H	1.515494	0.157721	0.752586
H304	H	1.081200	0.206561	0.416352
H305	H	1.414534	0.539894	0.749685
H306	H	1.747867	0.873228	1.083019
