data_functionalizedCrystal
_audit_creation_method	'MofGen! by Chris Wilmer'
_symmetry_space_group_name_H-M	'P1'
_symmetry_Int_Tables_number	1
_symmetry_cell_setting	triclinic
loop_
_symmetry_equiv_pos_as_xyz
  x,y,z
_cell_length_a	17.000383
_cell_length_b	14.519709
_cell_length_c	13.596369
_cell_angle_alpha	90.006934
_cell_angle_beta	89.991382
_cell_angle_gamma	100.359776
loop_
_atom_site_label
_atom_site_type_symbol
_atom_site_fract_x
_atom_site_fract_y
_atom_site_fract_z
O1	O	1.056148	-0.033240	-0.081859
O2	O	0.824464	-0.066705	-0.081847
O3	O	0.946449	0.084775	-0.081845
O4	O	0.934163	-0.184721	-0.081862
O5	O	0.946437	0.084782	0.081738
O6	O	0.824451	-0.066699	0.081736
O7	O	1.056136	-0.033234	0.081723
Zn8	Zn	0.940292	-0.049965	0.107702
Zn9	Zn	0.940308	-0.049974	-0.107826
O10	O	0.934151	-0.184715	0.081721
C11	C	0.794807	-0.068499	-0.000054
C12	C	0.706456	-0.073843	-0.000049
C13	C	0.206288	-0.108353	-0.000088
C14	C	0.289304	-0.103324	-0.000087
C15	C	0.340174	-0.016037	-0.000074
C16	C	0.308025	0.066226	-0.000072
C17	C	0.225011	0.061196	-0.000080
C18	C	0.591292	0.003390	-0.000055
C19	C	0.674312	0.008413	-0.000044
C20	C	0.655585	-0.161137	-0.000061
C21	C	0.572569	-0.166159	-0.000063
C22	C	0.540428	-0.083896	-0.000067
C23	C	0.425030	-0.010895	-0.000070
C24	C	0.455573	-0.089039	-0.000078
C25	C	0.945870	0.119091	-0.000053
C26	C	0.944154	0.221330	-0.000052
C27	C	1.085793	-0.031440	-0.000072
C28	C	1.174144	-0.026096	-0.000083
C29	C	0.934730	-0.219030	-0.000073
C30	C	0.936445	-0.321269	-0.000080
N31	N	0.940287	-0.049958	0.254794
C32	C	0.937838	0.595701	-0.000078
C33	C	0.939592	0.491539	-0.000070
C34	C	0.940996	0.408519	-0.000064
C35	C	0.942750	0.304350	-0.000059
N36	N	0.940319	-0.049973	-0.254917
C37	C	0.940307	-0.049975	0.656085
C38	C	0.940299	-0.049974	0.544433
C39	C	0.940297	-0.049967	0.455443
C40	C	0.940288	-0.049965	0.343784
H41	H	0.349451	0.137296	-0.000067
C42	C	0.262455	-0.271419	-0.000084
C43	C	0.324636	-0.193744	-0.000083
H44	H	0.284268	-0.327242	-0.000076
H45	H	0.230476	-0.269858	-0.057128
H46	H	0.230456	-0.269842	0.056962
H47	H	0.356631	-0.195317	-0.057134
H48	H	0.356627	-0.195305	0.056967
H49	H	0.715730	0.079496	-0.000039
H50	H	0.531155	-0.237237	-0.000077
H51	H	0.681764	-0.228111	-0.000060
H52	H	0.198841	0.128179	-0.000078
C53	C	0.529273	0.093113	-0.084131
C54	C	0.480954	0.085047	-0.000046
H55	H	0.563803	0.152341	-0.084112
H56	H	0.496509	0.087643	-0.141168
H57	H	0.560287	0.044830	-0.084127
H58	H	0.449936	0.133326	-0.000053
H59	H	0.513722	0.090526	0.057006
C60	C	0.102083	-0.212364	-0.084198
C61	C	0.150372	-0.204300	-0.000103
H62	H	0.067561	-0.271598	-0.084205
H63	H	0.134867	-0.206879	-0.141229
H64	H	0.071060	-0.164090	-0.084183
H65	H	0.181399	-0.252570	-0.000122
H66	H	0.117583	-0.209795	0.056942
H67	H	0.565133	0.070374	-0.000055
H68	H	0.414151	-0.160107	-0.000093
