data_functionalizedCrystal
_audit_creation_method	'MofGen! by Chris Wilmer'
_symmetry_space_group_name_H-M	'P1'
_symmetry_Int_Tables_number	1
_symmetry_cell_setting	triclinic
loop_
_symmetry_equiv_pos_as_xyz
  x,y,z
_cell_length_a	12.759401
_cell_length_b	15.298259
_cell_length_c	12.759400
_cell_angle_alpha	80.290900
_cell_angle_beta	90.014845
_cell_angle_gamma	99.661955
loop_
_atom_site_label
_atom_site_type_symbol
_atom_site_fract_x
_atom_site_fract_y
_atom_site_fract_z
Zn1	Zn	1.503453	-0.510049	-0.315420
Zn2	Zn	1.533753	-0.359193	-0.521538
Zn3	Zn	1.358157	-0.359210	-0.345871
Zn4	Zn	1.327750	-0.510016	-0.491065
O5	O	1.430778	-0.434617	-0.418473
O6	O	1.654492	-0.490044	-0.342772
O7	O	1.535866	-0.232949	-0.523732
O8	O	1.377476	-0.379240	-0.194806
O9	O	1.676753	-0.379212	-0.494205
O10	O	1.484224	-0.490060	-0.172434
O11	O	1.406856	-0.232961	-0.394670
O12	O	1.207104	-0.379208	-0.365122
O13	O	1.325652	-0.636266	-0.442269
O14	O	1.184764	-0.490004	-0.471795
O15	O	1.454740	-0.636291	-0.313223
O16	O	1.506381	-0.379180	-0.664521
O17	O	1.355032	-0.489988	-0.642132
C18	C	1.157813	-0.434605	-0.418457
C19	C	1.041034	-0.434621	-0.418470
C20	C	0.974586	-0.492217	-0.474142
C21	C	0.864860	-0.492227	-0.474153
C22	C	0.888040	-0.377036	-0.362820
C23	C	0.997763	-0.377032	-0.362803
C24	C	0.961203	-0.558719	-0.538423
C25	C	0.851476	-0.558729	-0.538435
C26	C	1.383424	-0.669928	-0.370950
C27	C	1.363244	-0.770204	-0.350698
C28	C	1.575039	-1.052831	-0.562406
C29	C	1.593994	-0.958617	-0.581440
C30	C	1.536308	-0.911509	-0.523756
C31	C	1.459665	-0.958624	-0.447035
C32	C	1.440703	-1.052847	-0.428005
C33	C	1.401972	-0.911526	-0.389355
C34	C	1.325328	-0.958641	-0.312634
C35	C	1.306370	-1.052855	-0.293607
C36	C	1.364055	-1.099963	-0.351291
C37	C	1.420934	-0.817302	-0.408385
C38	C	1.286597	-0.817319	-0.273985
C39	C	1.267643	-0.911533	-0.254951
C40	C	1.704809	-0.434630	-0.418491
C41	C	1.821585	-0.434635	-0.418499
C42	C	1.430720	-0.434598	-0.691445
C43	C	1.430785	-0.434620	-0.808217
C44	C	1.478009	-0.200221	-0.465736
C45	C	1.498392	-0.099946	-0.485692
C46	C	1.509654	-0.376986	-0.874689
C47	C	1.509713	-0.377014	-0.984407
C48	C	1.352024	-0.492313	-0.961172
C49	C	1.351970	-0.492289	-0.851454
C50	C	1.600692	-0.310416	-0.888105
C51	C	1.600751	-0.310444	-0.997823
C52	C	1.430862	-0.434656	-0.144432
C53	C	1.430897	-0.434672	-0.027652
H54	H	0.825477	-0.539895	-0.623579
C55	C	1.590406	-0.216042	-1.057194
N56	N	1.582611	-0.144941	-1.101910
H57	H	1.678253	-0.329180	-0.854466
C58	C	1.698355	-0.344327	-1.036859
N59	N	1.771869	-0.369846	-1.066262
H60	H	1.000285	-0.533572	-0.620743
H61	H	1.243952	-1.091213	-0.231146
H62	H	1.584950	-0.244017	-0.867538
H63	H	1.051861	-0.330137	-0.317462
C64	C	1.265327	-0.555739	-1.008745
N65	N	1.200022	-0.603510	-1.044576
H66	H	0.852796	-0.330150	-0.317497
C67	C	0.982442	-0.653159	-0.490104
N68	N	0.998440	-0.724293	-0.453720
C69	C	0.787457	-0.648455	-0.481103
N70	N	0.739237	-0.716032	-0.437915
H71	H	1.483344	-0.778950	-0.470846
C72	C	1.557177	-0.807871	-0.544681
N73	N	1.572907	-0.729807	-0.560437
H74	H	1.239624	-0.778964	-0.227014
C75	C	1.678345	-0.906798	-0.665784
N76	N	1.741900	-0.867766	-0.729300
H77	H	1.287757	-0.539227	-0.797331
H78	H	1.621991	-1.091195	-0.609371
C79	C	1.343206	-1.203604	-0.330361
N80	N	1.327502	-1.281669	-0.314601
C81	C	1.183332	-0.963372	-0.170564
N82	N	1.119829	-1.002418	-0.107004
