data_functionalizedCrystal
_audit_creation_method	'MofGen! by Chris Wilmer'
_symmetry_space_group_name_H-M	'P1'
_symmetry_Int_Tables_number	1
_symmetry_cell_setting	triclinic
loop_
_symmetry_equiv_pos_as_xyz
  x,y,z
_cell_length_a	15.298206
_cell_length_b	12.759399
_cell_length_c	15.296720
_cell_angle_alpha	80.352123
_cell_angle_beta	110.778255
_cell_angle_gamma	99.646701
loop_
_atom_site_label
_atom_site_type_symbol
_atom_site_fract_x
_atom_site_fract_y
_atom_site_fract_z
Zn1	Zn	1.330708	0.742450	-0.279369
Zn2	Zn	1.357543	0.892220	-0.123871
Zn3	Zn	1.202117	0.690698	-0.150828
Zn4	Zn	1.175186	0.892203	-0.306291
O5	O	1.266389	0.804393	-0.215090
O6	O	1.464401	0.783982	-0.236194
O7	O	1.359427	0.843836	0.002691
O8	O	1.219216	0.550553	-0.167894
O9	O	1.484116	0.894018	-0.121950
O10	O	1.313691	0.588575	-0.262333
O11	O	1.245237	0.695778	-0.017114
O12	O	1.068412	0.695763	-0.193999
O13	O	1.173314	0.893990	-0.432858
O14	O	1.048625	0.843808	-0.308217
O15	O	1.287576	0.783967	-0.413079
O16	O	1.333313	1.039227	-0.148055
O17	O	1.199335	1.039215	-0.282078
C18	C	1.024777	0.764168	-0.256955
C19	C	0.921410	0.746989	-0.274887
C20	C	1.266335	1.077347	-0.215079
C21	C	1.266392	1.194137	-0.215090
C22	C	1.224448	0.844749	-0.457655
C23	C	1.206575	0.861947	-0.561022
C24	C	0.862573	0.681749	-0.342889
C25	C	0.765455	0.665599	-0.359740
C26	C	0.727163	0.714694	-0.308595
C27	C	0.785999	0.779941	-0.240595
C28	C	0.883128	0.796087	-0.223738
C29	C	0.747718	0.829031	-0.189444
C30	C	0.806554	0.894279	-0.121445
C31	C	0.903673	0.910421	-0.104591
C32	C	0.941965	0.861327	-0.155736
C33	C	0.650589	0.812886	-0.206301
C34	C	0.671144	0.927223	-0.087150
C35	C	0.768262	0.943373	-0.070299
C36	C	1.508944	0.844775	-0.173062
C37	C	1.612307	0.861983	-0.155152
C38	C	1.266464	0.530380	-0.215117
C39	C	1.266496	0.413612	-0.215129
C40	C	1.336210	1.248993	-0.145360
C41	C	1.336265	1.358732	-0.145381
C42	C	1.196674	1.358749	-0.284866
C43	C	1.196625	1.249014	-0.284848
C44	C	1.394162	0.681300	-0.811203
C45	C	1.410960	0.665145	-0.714084
C46	C	1.359865	0.714344	-0.675814
C47	C	1.291970	0.779701	-0.734673
C48	C	1.275175	0.795865	-0.831801
C49	C	1.240878	0.828908	-0.696411
C50	C	1.172982	0.894266	-0.755270
C51	C	1.156190	0.910426	-0.852388
C52	C	1.207285	0.861227	-0.890658
C53	C	1.257673	0.812745	-0.599283
C54	C	1.138685	0.927309	-0.619880
C55	C	1.121887	0.943464	-0.716999
C56	C	1.308220	0.764126	0.026541
C57	C	1.326273	0.746663	0.129939
H58	H	0.602694	0.759759	-0.261665
H59	H	1.139769	1.204348	-0.341635
O60	O	1.129022	1.412202	-0.352643
C61	C	1.171552	1.494386	-0.403609
H62	H	1.247721	1.517060	-0.358654
H63	H	1.131548	1.567344	-0.422616
H64	H	1.169776	1.465212	-0.470769
H65	H	0.639967	0.967201	-0.045504
H66	H	0.717557	0.612476	-0.415105
H67	H	1.312953	0.759529	-0.551369
H68	H	1.097081	0.967373	-0.588721
H69	H	1.373547	0.701186	-0.596734
H70	H	1.100912	0.963654	-0.900308
O71	O	0.899920	0.634179	-0.392507
C72	C	0.998262	0.662396	-0.363025
H73	H	1.016791	0.740536	-0.330146
H74	H	1.023156	0.673122	-0.426280
H75	H	1.034361	0.596348	-0.308810
O76	O	1.476911	0.601589	-0.657052
C77	C	1.518423	0.561650	-0.711650
H78	H	1.468362	0.563189	-0.787482
H79	H	1.533221	0.475862	-0.681878
H80	H	1.587252	0.613601	-0.709739
O81	O	0.632797	0.698939	-0.325112
C82	C	0.589080	0.630804	-0.396081
H83	H	0.635672	0.634531	-0.440717
H84	H	0.518018	0.657636	-0.442601
H85	H	0.578198	0.545153	-0.362313
O86	O	1.443682	0.633564	-0.848537
C87	C	1.414319	0.661876	-0.946877
H88	H	1.340246	0.686531	-0.972569
H89	H	1.414273	0.590387	-0.982712
H90	H	1.464692	0.731599	-0.964869
O91	O	1.036278	0.877046	-0.139542
C92	C	1.053333	0.924433	-0.222993
H93	H	0.988108	0.906196	-0.286293
H94	H	1.115445	0.890640	-0.228330
H95	H	1.070237	1.014778	-0.221839
H96	H	1.193612	0.874377	-0.969740
O97	O	1.404076	1.195859	-0.077559
C98	C	1.465696	1.267808	-0.016005
H99	H	1.462334	1.352877	-0.053562
H100	H	1.540664	1.246592	0.006560
H101	H	1.443920	1.262137	0.048758
H102	H	0.951577	0.963540	-0.049214
O103	O	0.825501	1.006837	-0.004355
C104	C	0.872531	1.092932	-0.047455
H105	H	0.874902	1.070159	-0.115462
H106	H	0.947372	1.111986	0.002292
H107	H	0.833350	1.166267	-0.064045
O108	O	1.056066	1.007098	-0.774197
C109	C	1.099275	1.093096	-0.821213
H110	H	1.177575	1.106912	-0.779251
H111	H	1.065426	1.168527	-0.828140
H112	H	1.089764	1.073391	-0.894267
H113	H	1.393119	1.403392	-0.088601
