data_functionalizedCrystal
_audit_creation_method	'MofGen! by Chris Wilmer'
_symmetry_space_group_name_H-M	'P1'
_symmetry_Int_Tables_number	1
_symmetry_cell_setting	triclinic
loop_
_symmetry_equiv_pos_as_xyz
  x,y,z
_cell_length_a	12.759401
_cell_length_b	19.805405
_cell_length_c	12.759393
_cell_angle_alpha	89.965059
_cell_angle_beta	89.981433
_cell_angle_gamma	90.025770
loop_
_atom_site_label
_atom_site_type_symbol
_atom_site_fract_x
_atom_site_fract_y
_atom_site_fract_z
Zn1	Zn	1.606168	-0.269441	-0.593959
Zn2	Zn	2.106168	0.230559	-0.093959
Zn3	Zn	1.606025	-0.382645	-0.418268
Zn4	Zn	2.106025	0.117355	0.081732
Zn5	Zn	1.430470	-0.269474	-0.418298
Zn6	Zn	1.930470	0.230526	0.081702
Zn7	Zn	1.430421	-0.382591	-0.593910
Zn8	Zn	1.930421	0.117409	-0.093910
O9	O	1.518271	-0.326038	-0.506109
O10	O	2.018271	0.173962	-0.006109
O11	O	1.753170	-0.284466	-0.570661
O12	O	2.253170	0.215534	-0.070661
O13	O	1.582698	-0.367670	-0.271251
O14	O	2.082698	0.132330	0.228749
O15	O	1.453856	-0.174753	-0.441632
O16	O	1.953856	0.325247	0.058368
O17	O	1.753065	-0.367637	-0.441582
O18	O	2.253065	0.132363	0.058418
O19	O	1.582941	-0.174728	-0.570690
O20	O	2.082941	0.325272	-0.070690
O21	O	1.453718	-0.284523	-0.271273
O22	O	1.953718	0.215477	0.228727
O23	O	1.283442	-0.284470	-0.441585
O24	O	1.783442	0.215530	0.058415
O25	O	1.453774	-0.367545	-0.740937
O26	O	1.953774	0.132455	-0.240937
O27	O	1.283407	-0.367577	-0.570606
O28	O	1.783407	0.132423	-0.070606
O29	O	1.582894	-0.284414	-0.740973
O30	O	2.082894	0.215586	-0.240973
O31	O	1.582651	-0.477355	-0.441535
O32	O	2.082651	0.022645	0.058465
O33	O	1.453636	-0.477315	-0.570578
O34	O	1.953636	0.022685	-0.070578
C35	C	1.245304	-0.326022	-0.506094
C36	C	1.745304	0.173978	-0.006094
C37	C	1.128527	-0.326031	-0.506113
C38	C	1.628527	0.173969	-0.006113
C39	C	1.073712	-0.282806	-0.573428
C40	C	1.573712	0.217194	-0.073428
C41	C	0.963988	-0.282819	-0.573435
C42	C	1.463988	0.217181	-0.073435
C43	C	0.963903	-0.369289	-0.438807
C44	C	1.463903	0.130711	0.061193
C45	C	1.073625	-0.369272	-0.438796
C46	C	1.573625	0.130728	0.061204
C47	C	1.073761	-0.232885	-0.651158
C48	C	1.573761	0.267115	-0.151158
C49	C	0.964037	-0.232898	-0.651164
C50	C	1.464037	0.267102	-0.151164
C51	C	1.518151	-0.501894	-0.506071
C52	C	2.018151	-0.001894	-0.006071
C53	C	1.518196	-0.577126	-0.506089
C54	C	2.018196	-0.077126	-0.006089
C55	C	1.585371	-0.612399	-0.573342
C56	C	2.085371	-0.112399	-0.073342
C57	C	1.585409	-0.683087	-0.573362
C58	C	2.085409	-0.183087	-0.073362
C59	C	1.518276	-0.718501	-0.506122
C60	C	2.018276	-0.218501	-0.006122
C61	C	1.451094	-0.683223	-0.438867
C62	C	1.951094	-0.183223	0.061133
C63	C	1.451052	-0.612536	-0.438853
C64	C	1.951052	-0.112536	0.061147
C65	C	1.451263	-0.968296	-0.438921
C66	C	1.951263	-0.468296	0.061079
C67	C	1.451313	-1.038988	-0.438937
C68	C	1.951313	-0.538988	0.061063
C69	C	1.585620	-1.038848	-0.573429
C70	C	2.085620	-0.538848	-0.073429
C71	C	1.585577	-0.968161	-0.573416
C72	C	2.085577	-0.468161	-0.073416
C73	C	1.518392	-0.932889	-0.506164
C74	C	2.018392	-0.432889	-0.006164
C75	C	1.518350	-0.856240	-0.506145
C76	C	2.018350	-0.356240	-0.006145
C77	C	1.518323	-0.795148	-0.506135
C78	C	2.018323	-0.295148	-0.006135
C79	C	1.792304	-0.326054	-0.506124
C80	C	2.292304	0.173946	-0.006124
C81	C	1.909081	-0.326061	-0.506130
C82	C	2.409081	0.173939	-0.006130
C83	C	1.518344	-0.325969	-0.780142
C84	C	2.018344	0.174031	-0.280142
C85	C	1.518376	-0.325940	-0.896919
C86	C	2.018376	0.174060	-0.396919
C87	C	1.518420	-0.149495	-0.506170
C88	C	2.018420	0.350505	-0.006170
C89	C	1.518483	-0.074263	-0.506196
C90	C	2.018483	0.425737	-0.006196
C91	C	1.585618	-0.282650	-0.951801
C92	C	2.085618	0.217350	-0.451801
C93	C	1.585643	-0.282625	-1.061525
C94	C	2.085643	0.217375	-0.561525
C95	C	1.451181	-0.369188	-1.061475
C96	C	1.951181	0.130812	-0.561475
C97	C	1.451151	-0.369208	-0.951753
C98	C	1.951151	0.130792	-0.451753
C99	C	1.663252	-0.232676	-0.951831
C100	C	2.163252	0.267324	-0.451831
C101	C	1.663277	-0.232651	-1.061556
C102	C	2.163277	0.267349	-0.561556
C103	C	1.518258	-0.326057	-0.233141
C104	C	2.018258	0.173943	0.266859
C105	C	1.518430	-0.325895	-0.116365
C106	C	2.018430	0.174105	0.383635
H107	H	1.107820	-0.251718	-0.728394
H108	H	1.607820	0.248282	-0.228394
H109	H	1.740517	-0.251468	-0.917794
H110	H	2.240517	0.248532	-0.417794
H111	H	1.640042	-0.583570	-0.628092
H112	H	2.140042	-0.083570	-0.128092
H113	H	0.930011	-0.183081	-0.622169
H114	H	1.430011	0.316919	-0.122169
H115	H	1.744643	-0.246692	-1.091333
H116	H	2.244643	0.253308	-0.591333
H117	H	0.919188	-0.404493	-0.384001
H118	H	1.419188	0.095507	0.115999
H119	H	0.934287	-0.247004	-0.732499
H120	H	1.434287	0.252996	-0.232499
H121	H	1.634179	-0.182845	-1.095608
H122	H	2.134179	0.317155	-0.595608
H123	H	1.396641	-1.067821	-0.384181
H124	H	1.896641	-0.567821	0.115819
H125	H	1.103545	-0.180442	-0.629509
H126	H	1.603545	0.319558	-0.129509
H127	H	1.118251	-0.404464	-0.383972
H128	H	1.618251	0.095536	0.116028
H129	H	1.640117	-0.711804	-0.628118
H130	H	2.140117	-0.211804	-0.128118
H131	H	1.640246	-0.939329	-0.628164
H132	H	2.140246	-0.439329	-0.128164
H133	H	1.396561	-0.939583	-0.384160
H134	H	1.896561	-0.439583	0.115840
H135	H	1.396430	-0.712063	-0.384124
H136	H	1.896430	-0.212063	0.115876
H137	H	1.640322	-1.067575	-0.628192
H138	H	2.140322	-0.567575	-0.128192
H139	H	1.641500	-0.180257	-0.922080
H140	H	2.141500	0.319743	-0.422080
H141	H	1.396350	-0.583817	-0.384091
H142	H	1.896350	-0.083817	0.115909
H143	H	1.396393	-0.404457	-0.907072
H144	H	1.896393	0.095543	-0.407072
H145	H	1.396447	-0.404414	-1.106134
H146	H	1.896447	0.095586	-0.606134
