data_functionalizedCrystal
_audit_creation_method	'MofGen! by Chris Wilmer'
_symmetry_space_group_name_H-M	'P1'
_symmetry_Int_Tables_number	1
_symmetry_cell_setting	triclinic
loop_
_symmetry_equiv_pos_as_xyz
  x,y,z
_cell_length_a	23.532361
_cell_length_b	23.532407
_cell_length_c	16.776229
_cell_angle_alpha	89.988688
_cell_angle_beta	89.997131
_cell_angle_gamma	82.839173
loop_
_atom_site_label
_atom_site_type_symbol
_atom_site_fract_x
_atom_site_fract_y
_atom_site_fract_z
O1	O	0.755279	0.069010	-0.066216
O2	O	0.589412	0.079041	-0.066237
O3	O	0.677347	-0.008907	-0.066211
O4	O	0.667343	0.156958	-0.066242
O5	O	0.677335	-0.008913	0.066365
O6	O	0.589400	0.079035	0.066340
O7	O	0.755267	0.069005	0.066360
Zn8	Zn	0.672332	0.074019	0.087399
Zn9	Zn	0.672347	0.074026	-0.087276
O10	O	0.667332	0.156953	0.066335
C11	C	0.568189	0.078787	0.000049
C12	C	0.504971	0.078032	0.000042
C13	C	0.231733	0.074731	-0.072220
C14	C	0.291133	0.075446	-0.072222
O15	O	0.321864	0.075799	-0.133681
N16	N	0.320832	0.075804	0.000046
C17	C	0.291130	0.075442	0.072320
O18	O	0.321846	0.075812	0.133789
C19	C	0.231732	0.074723	0.072322
C20	C	0.202035	0.074370	0.000049
C21	C	0.202036	0.074378	-0.144486
C22	C	0.142641	0.073664	-0.144484
C23	C	0.112942	0.073303	-0.072215
C24	C	0.142639	0.073657	0.000051
C25	C	0.202031	0.074356	0.144595
C26	C	0.142629	0.073637	0.144590
C27	C	0.112931	0.073284	0.072318
C28	C	0.053544	0.072582	0.072323
N29	N	0.023845	0.072224	0.000055
C30	C	0.053544	0.072584	-0.072214
C31	C	0.415870	0.076951	0.072312
C32	C	0.475266	0.077674	0.072312
C33	C	0.475266	0.077677	-0.072231
C34	C	0.415868	0.076958	-0.072230
C35	C	0.386171	0.076593	0.000044
C36	C	-0.071192	0.071086	-0.072203
C37	C	-0.130593	0.070374	-0.072195
C38	C	-0.130587	0.070368	0.072347
C39	C	-0.071191	0.071083	0.072339
C40	C	-0.041495	0.071440	0.000057
O41	O	0.022776	0.072227	0.133751
O42	O	0.022821	0.072207	-0.133673
C43	C	0.677086	-0.030126	0.000079
C44	C	0.676320	-0.093343	0.000085
C45	C	0.723555	-0.492454	0.000047
C46	C	0.722844	-0.551854	0.000041
O47	O	0.766630	-0.588606	0.000017
N48	N	0.670566	-0.574471	0.000035
C49	C	0.618997	-0.537685	0.000027
O50	O	0.574465	-0.562377	0.000021
C51	C	0.619709	-0.478286	0.000028
C52	C	0.671990	-0.455672	0.000042
C53	C	0.775832	-0.469839	0.000060
C54	C	0.776543	-0.410443	0.000068
C55	C	0.724977	-0.373662	0.000062
C56	C	0.672701	-0.396276	0.000049
C57	C	0.568140	-0.441501	0.000014
C58	C	0.568857	-0.382099	0.000014
C59	C	0.621137	-0.359485	0.000028
C60	C	0.621847	-0.300099	0.000052
N61	N	0.674124	-0.277481	0.000057
C62	C	0.725690	-0.314263	0.000063
C63	C	0.617505	-0.662427	0.000025
C64	C	0.616793	-0.721825	0.000030
C65	C	0.720640	-0.735990	0.000042
C66	C	0.721352	-0.676591	0.000043
C67	C	0.669783	-0.639810	0.000031
C68	C	0.727179	-0.189526	0.000080
C69	C	0.727886	-0.130124	0.000090
C70	C	0.624039	-0.115965	0.000074
C71	C	0.623332	-0.175361	0.000067
C72	C	0.674907	-0.212141	0.000067
O73	O	0.578083	-0.263312	0.000072
O74	O	0.770214	-0.289562	0.000059
C75	C	0.776489	0.069258	0.000073
C76	C	0.839708	0.070014	0.000074
C77	C	0.667592	0.178171	0.000043
C78	C	0.668358	0.241388	0.000032
N79	N	0.672325	0.074014	0.206611
N80	N	0.672358	0.074027	-0.206487
C81	C	0.711275	0.035086	0.248339
C82	C	0.711278	0.035086	0.331791
C83	C	0.672334	0.074016	0.373514
C84	C	0.633380	0.112946	0.331779
C85	C	0.633375	0.112943	0.248329
C86	C	0.633401	0.112957	0.668327
C87	C	0.633411	0.112957	0.751783
C88	C	0.711304	0.035100	0.751789
C89	C	0.711299	0.035097	0.668338
C90	C	0.672343	0.074024	0.626612
C91	C	0.672340	0.074024	0.536123
C92	C	0.672340	0.074020	0.464000
H93	H	-0.154779	0.070077	0.131187
O94	O	0.591410	0.154959	0.796780
H95	H	0.547051	0.147936	0.780789
H96	H	0.601683	0.144653	0.634359
H97	H	0.770461	-0.111716	0.000104
H98	H	0.817825	-0.499782	0.000062
O99	O	0.110563	0.073528	0.222547
H100	H	0.064256	0.073071	0.210413
H101	H	0.819115	-0.392037	0.000076
O102	O	0.560402	-0.746209	0.000026
H103	H	0.557585	-0.772937	0.054063
O104	O	0.591377	0.154939	0.376774
H105	H	0.597928	0.148407	0.441813
O106	O	0.561878	-0.622761	0.000031
H107	H	0.559711	-0.595354	-0.054006
H108	H	0.525567	-0.459902	-0.000002
O109	O	0.777742	-0.652207	0.000046
H110	H	0.780555	-0.625494	0.054083
O111	O	0.507304	0.078062	-0.150182
H112	H	0.501201	0.039104	-0.184828
O113	O	0.753296	-0.006896	0.623335
H114	H	0.797655	0.000119	0.639338
O115	O	0.110618	0.073279	-0.222439
H116	H	0.064323	0.072724	-0.210309
O117	O	0.513232	-0.342431	0.000005
H118	H	0.522505	-0.297326	0.000006
O119	O	0.566946	-0.199758	0.000055
H120	H	0.531209	-0.164200	0.000049
H121	H	0.762627	-0.765949	0.000044
H122	H	0.743022	0.003401	0.785772
H123	H	0.391693	0.076661	0.131170
O124	O	0.753289	-0.006902	0.376795
H125	H	0.746747	-0.000367	0.441833
H126	H	0.226200	0.074641	0.203447
H127	H	-0.047012	0.071381	0.131189
H128	H	0.391692	0.076671	-0.131080
H129	H	0.769176	-0.219466	0.000076
O130	O	0.591368	0.154931	0.203315
H131	H	0.564293	0.182007	0.246346
H132	H	-0.154770	0.070089	-0.131050
O133	O	0.568423	-0.076289	0.000067
H134	H	0.577706	-0.031187	0.000066
H135	H	-0.047020	0.071377	-0.131062
O136	O	0.753277	-0.006905	0.203339
H137	H	0.780357	-0.033978	0.246379
O138	O	0.234060	0.074765	-0.222444
H139	H	0.280355	0.075319	-0.210320
O140	O	0.507293	0.078073	0.150262
H141	H	0.476656	0.077703	0.200510
