data_functionalizedCrystal
_audit_creation_method	'MofGen! by Chris Wilmer'
_symmetry_space_group_name_H-M	'P1'
_symmetry_Int_Tables_number	1
_symmetry_cell_setting	triclinic
loop_
_symmetry_equiv_pos_as_xyz
  x,y,z
_cell_length_a	13.032831
_cell_length_b	15.299816
_cell_length_c	13.032268
_cell_angle_alpha	72.095154
_cell_angle_beta	89.113023
_cell_angle_gamma	74.594753
loop_
_atom_site_label
_atom_site_type_symbol
_atom_site_fract_x
_atom_site_fract_y
_atom_site_fract_z
Zn1	Zn	1.608034	-0.636635	0.922463
Zn2	Zn	1.653946	-0.777088	0.781728
Zn3	Zn	1.451116	-0.597255	0.719943
Zn4	Zn	1.459317	-0.771991	0.930720
O5	O	1.543103	-0.695742	0.838713
O6	O	1.761248	-0.673880	0.926196
O7	O	1.642822	-0.738885	0.626424
O8	O	1.449285	-0.470571	0.717495
O9	O	1.794979	-0.777070	0.822799
O10	O	1.564572	-0.499503	0.866285
O11	O	1.493804	-0.606762	0.581030
O12	O	1.305080	-0.601820	0.725501
O13	O	1.463263	-0.768383	1.076733
O14	O	1.311105	-0.730198	0.880358
O15	O	1.572524	-0.668938	1.070667
O16	O	1.650775	-0.908319	0.830805
O17	O	1.507782	-0.904574	0.940269
C18	C	1.269945	-0.661183	0.797122
C19	C	1.153088	-0.646424	0.779359
C20	C	1.104024	-0.703445	0.847984
C21	C	0.983247	-0.688192	0.829627
C22	C	1.585176	-0.940655	0.893165
C23	C	1.603268	-1.045445	0.916509
C24	C	1.414452	-1.280894	0.672331
C25	C	1.397449	-1.182438	0.650399
C26	C	1.448902	-1.148185	0.716925
C27	C	1.517362	-1.212398	0.805385
C28	C	1.534360	-1.310863	0.827324
C29	C	1.568810	-1.178154	0.871918
C30	C	1.637270	-1.242367	0.960379
C31	C	1.654266	-1.340822	0.982313
C32	C	1.602812	-1.375076	0.915787
C33	C	1.551812	-1.079688	0.849979
C34	C	1.671720	-1.109657	1.004972
C35	C	1.688723	-1.208113	1.026904
C36	C	1.817328	-0.730436	0.880468
C37	C	1.934186	-0.745221	0.898262
C38	C	1.513687	-0.722485	1.112910
C39	C	1.501151	-0.733881	1.229756
C40	C	1.500892	-0.449879	0.784077
C41	C	1.482904	-0.345106	0.760794
C42	C	1.572454	-0.669043	0.565578
C43	C	1.585147	-0.657407	0.448704
C44	C	1.549623	-0.689758	1.278848
C45	C	1.536669	-0.701536	1.399615
H46	H	1.105677	-0.586310	0.707019
O47	O	1.721757	-1.076555	1.069737
C48	C	1.842527	-1.116664	1.225748
C49	C	1.785919	-1.154289	1.152509
H50	H	1.894434	-1.179493	1.292672
H51	H	1.780414	-1.069870	1.263137
H52	H	1.894702	-1.072764	1.175596
H53	H	1.733748	-1.198230	1.202585
H54	H	1.848089	-1.201032	1.115114
H55	H	1.744463	-1.260409	1.098930
H56	H	1.636234	-0.610903	1.401330
H57	H	0.981590	-0.805331	0.970615
H58	H	1.496071	-1.027414	0.777954
H59	H	0.935839	-0.628074	0.757282
H60	H	1.600708	-0.643260	1.231470
O61	O	1.364306	-1.314120	0.607800
C62	C	1.196228	-1.316767	0.536116
C63	C	1.252889	-1.279090	0.609255
H64	H	1.106139	-1.288444	0.537251
H65	H	1.220047	-1.398168	0.566991
H66	H	1.220563	-1.291528	0.449891
H67	H	1.228583	-1.304259	0.695498
H68	H	1.229068	-1.197691	0.578291
H69	H	1.435055	-1.068017	0.699062
O70	O	1.720837	-1.403070	1.068257
C71	C	1.837943	-1.422400	1.219698
C72	C	1.762594	-1.351803	1.122392
H73	H	1.871707	-1.380979	1.263507
H74	H	1.906138	-1.470708	1.190162
H75	H	1.791700	-1.467786	1.277510
H76	H	1.808745	-1.306354	1.064542
H77	H	1.694399	-1.303560	1.152006
H78	H	1.341709	-1.130160	0.578376
O79	O	1.475794	-0.757010	1.456294
C80	C	1.407300	-0.819252	1.628315
C81	C	1.476286	-0.756417	1.564260
H82	H	1.407656	-0.818778	1.715612
H83	H	1.441107	-0.895539	1.626576
H84	H	1.321994	-0.789901	1.590148
H85	H	1.561605	-0.785684	1.602380
H86	H	1.442391	-0.680139	1.565996
O87	O	1.440366	-0.789478	1.286358
C88	C	1.434848	-0.926939	1.436613
C89	C	1.503815	-0.864066	1.372598
H90	H	1.486113	-0.987247	1.506366
H91	H	1.400395	-0.958405	1.380932
H92	H	1.366947	-0.881661	1.469976
H93	H	1.571767	-0.909279	1.339227
H94	H	1.538187	-0.832593	1.428324
O95	O	1.160742	-0.775139	0.934211
C96	C	1.332812	-0.855650	1.031187
C97	C	1.268716	-0.774432	0.933476
H98	H	1.420117	-0.855092	1.030638
H99	H	1.326424	-0.927151	1.026247
H100	H	1.299320	-0.844790	1.109065
H101	H	1.302163	-0.785200	0.855550
H102	H	1.275104	-0.702960	0.938512
H103	H	1.616657	-1.455246	0.933636
