data_functionalizedCrystal
_audit_creation_method	'MofGen! by Chris Wilmer'
_symmetry_space_group_name_H-M	'P1'
_symmetry_Int_Tables_number	1
_symmetry_cell_setting	triclinic
loop_
_symmetry_equiv_pos_as_xyz
  x,y,z
_cell_length_a	12.827893
_cell_length_b	21.295417
_cell_length_c	12.827885
_cell_angle_alpha	90.037053
_cell_angle_beta	90.019272
_cell_angle_gamma	90.029863
loop_
_atom_site_label
_atom_site_type_symbol
_atom_site_fract_x
_atom_site_fract_y
_atom_site_fract_z
Zn1	Zn	1.597566	-0.250576	0.590796
Zn2	Zn	2.097566	0.249424	1.090796
Zn3	Zn	1.597416	-0.355858	0.416034
Zn4	Zn	2.097416	0.144142	0.916034
Zn5	Zn	1.422807	-0.250607	0.416070
Zn6	Zn	1.922807	0.249393	0.916070
Zn7	Zn	1.422749	-0.355812	0.590734
Zn8	Zn	1.922749	0.144188	1.090734
O9	O	1.510134	-0.303213	0.503408
O10	O	2.010134	0.196787	1.003408
O11	O	1.743782	-0.264548	0.567624
O12	O	2.243782	0.235452	1.067624
O13	O	1.574216	-0.341929	0.269803
O14	O	2.074216	0.158071	0.769803
O15	O	1.446076	-0.162514	0.439288
O16	O	1.946076	0.337486	0.939288
O17	O	1.743672	-0.341899	0.439228
O18	O	2.243672	0.158101	0.939228
O19	O	1.574471	-0.162491	0.567659
O20	O	2.074471	0.337509	1.067659
O21	O	1.445931	-0.264601	0.269829
O22	O	1.945931	0.235399	0.769829
O23	O	1.276563	-0.264556	0.439228
O24	O	1.776563	0.235444	0.939228
O25	O	1.445977	-0.341819	0.736978
O26	O	1.945977	0.158181	1.236978
O27	O	1.276520	-0.341850	0.567553
O28	O	1.776520	0.158150	1.067553
O29	O	1.574414	-0.264503	0.737024
O30	O	2.074414	0.235497	1.237024
O31	O	1.574159	-0.443941	0.439168
O32	O	2.074159	0.056059	0.939168
O33	O	1.445832	-0.443907	0.567519
O34	O	1.945832	0.056093	1.067519
C35	C	1.238625	-0.303202	0.503388
C36	C	1.738625	0.196798	1.003388
C37	C	1.122471	-0.303212	0.503405
C38	C	1.622471	0.196788	1.003405
C39	C	1.070741	-0.265004	0.567039
C40	C	1.570741	0.234996	1.067039
C41	C	0.950690	-0.265014	0.567057
C42	C	1.450690	0.234986	1.067057
C43	C	1.510001	-0.466765	0.503355
C44	C	2.010001	0.033235	1.003355
C45	C	1.510040	-0.536733	0.503368
C46	C	2.010040	-0.036733	1.003368
C47	C	1.576857	-0.569531	0.570258
C48	C	2.076857	-0.069531	1.070258
C49	C	1.576893	-0.635273	0.570284
C50	C	2.076893	-0.135273	1.070284
C51	C	1.510125	-0.668215	0.503401
C52	C	2.010125	-0.168215	1.003401
C53	C	1.443295	-0.635410	0.436506
C54	C	1.943295	-0.135410	0.936506
C55	C	1.443253	-0.569669	0.436489
C56	C	1.943253	-0.069669	0.936489
N57	N	1.502229	-0.771484	0.411945
N58	N	2.002229	-0.271484	0.911945
N59	N	1.502275	-0.833935	0.411964
N60	N	2.002275	-0.333935	0.911964
C61	C	1.510247	-0.866290	0.503448
C62	C	2.010247	-0.366290	1.003448
N63	N	1.518191	-0.833834	0.594915
N64	N	2.018191	-0.333834	1.094915
N65	N	1.518150	-0.771377	0.594895
N66	N	2.018150	-0.271377	1.094895
C67	C	1.510163	-0.739501	0.503412
C68	C	2.010163	-0.239501	1.003412
C69	C	1.577107	-0.970373	0.570372
C70	C	2.077107	-0.470373	1.070372
C71	C	1.577136	-1.036117	0.570399
C72	C	2.077136	-0.536117	1.070399
C73	C	1.443543	-1.036252	0.436612
C74	C	1.943543	-0.536252	0.936612
C75	C	1.443508	-0.970510	0.436594
C76	C	1.943508	-0.470510	0.936594
C77	C	1.510296	-0.937574	0.503472
C78	C	2.010296	-0.437574	1.003472
C79	C	1.782704	-0.303225	0.503429
C80	C	2.282704	0.196775	1.003429
C81	C	1.898858	-0.303230	0.503438
C82	C	2.398858	0.196770	1.003438
C83	C	1.510206	-0.303153	0.775979
C84	C	2.010206	0.196847	1.275979
C85	C	1.510236	-0.303127	0.892132
C86	C	2.010236	0.196873	1.392132
C87	C	1.510297	-0.139023	0.503484
C88	C	2.010297	0.360977	1.003484
C89	C	1.510366	-0.069055	0.503517
C90	C	2.010366	0.430945	1.003517
C91	C	1.510124	-0.303228	0.231898
C92	C	2.010124	0.196772	0.731898
C93	C	1.510296	-0.303076	0.115746
C94	C	2.010296	0.196924	0.615746
C95	C	1.573798	-0.264861	0.943939
C96	C	2.073798	0.235139	1.443939
C97	C	1.573830	-0.264834	1.063990
C98	C	2.073830	0.235166	1.563990
H99	H	0.943338	-0.335946	0.448961
H100	H	1.443338	0.164054	0.948961
F101	F	1.372480	-1.071308	0.365432
F102	F	1.872480	-0.571308	0.865432
F103	F	1.439132	-0.345920	0.950321
F104	F	1.939132	0.154080	1.450321
F105	F	0.892546	-0.222260	0.638273
F106	F	1.392546	0.277740	1.138273
H107	H	1.077883	-0.335928	0.448937
H108	H	1.577883	0.164072	0.948937
H109	H	1.115329	-0.232284	0.621500
H110	H	1.615329	0.267716	1.121500
F111	F	1.644966	-0.222014	1.122220
F112	F	2.144966	0.277986	1.622220
F113	F	1.648245	-1.071022	0.641608
F114	F	2.148245	-0.571022	1.141608
H115	H	1.455879	-0.335841	1.071200
H116	H	1.955879	0.164159	1.571200
F117	F	1.647933	-0.534482	0.641442
F118	F	2.147933	-0.034482	1.141442
H119	H	1.631295	-0.661982	0.624766
H120	H	2.131295	-0.161982	1.124766
H121	H	1.628187	-0.232118	0.899416
H122	H	2.128187	0.267882	1.399416
F123	F	1.372133	-0.534762	0.365293
F124	F	1.872133	-0.034762	0.865293
F125	F	1.648183	-0.935318	0.641552
F126	F	2.148183	-0.435318	1.141552
F127	F	1.372230	-0.670470	0.365329
F128	F	1.872230	-0.170470	0.865329
H129	H	1.389104	-0.943804	0.382121
H130	H	1.889104	-0.443804	0.882121
