data_functionalizedCrystal
_audit_creation_method	'MofGen! by Chris Wilmer'
_symmetry_space_group_name_H-M	'P1'
_symmetry_Int_Tables_number	1
_symmetry_cell_setting	triclinic
loop_
_symmetry_equiv_pos_as_xyz
  x,y,z
_cell_length_a	17.640112
_cell_length_b	13.897448
_cell_length_c	13.897433
_cell_angle_alpha	90.068930
_cell_angle_beta	101.155478
_cell_angle_gamma	78.756147
loop_
_atom_site_label
_atom_site_type_symbol
_atom_site_fract_x
_atom_site_fract_y
_atom_site_fract_z
Zn1	Zn	1.208442	0.085372	-0.247746
Zn2	Zn	1.208287	0.246847	-0.086492
Zn3	Zn	1.076215	0.118161	-0.119033
Zn4	Zn	1.076260	0.279247	-0.280265
O5	O	1.142301	0.182407	-0.183384
O6	O	1.319013	0.079510	-0.199127
O7	O	1.190684	0.229940	0.044152
O8	O	1.093801	-0.021182	-0.136116
O9	O	1.318899	0.198146	-0.080655
O10	O	1.190948	-0.045271	-0.230680
O11	O	1.093651	0.135394	0.020245
O12	O	0.965629	0.166811	-0.167649
O13	O	1.093878	0.253366	-0.410913
O14	O	0.965662	0.285161	-0.286105
O15	O	1.190992	0.110927	-0.387021
O16	O	1.190727	0.386138	-0.112188
O17	O	1.093727	0.409942	-0.254552
C18	C	0.936970	0.233060	-0.233937
C19	C	0.849129	0.254753	-0.255587
C20	C	0.560035	0.017591	-0.018921
C21	C	0.477495	0.037994	-0.039277
C22	C	0.477584	0.161401	-0.162413
C23	C	0.560126	0.141005	-0.142070
C24	C	0.601345	0.069099	-0.070322
C25	C	0.601435	0.192514	-0.193472
C26	C	0.683970	0.172122	-0.173127
C27	C	0.725195	0.100222	-0.101380
C28	C	0.683880	0.048708	-0.049977
C29	C	0.560214	0.264424	-0.265215
C30	C	0.601524	0.315932	-0.316617
C31	C	0.684060	0.295536	-0.296277
C32	C	0.725285	0.223636	-0.224530
C33	C	0.725375	0.347050	-0.347680
C34	C	0.807910	0.326659	-0.327335
C35	C	0.807820	0.203245	-0.204185
C36	C	1.142236	0.433037	-0.183383
C37	C	1.142281	0.540240	-0.183397
C38	C	1.142359	0.736516	-0.183448
C39	C	1.142313	0.627295	-0.183423
C40	C	1.348433	0.131556	-0.132634
C41	C	1.436274	0.109887	-0.111007
C42	C	1.142457	0.182103	-0.434939
C43	C	1.142523	0.181974	-0.542137
C44	C	1.142380	0.930794	-0.183413
C45	C	1.142397	0.823576	-0.183459
C46	C	1.142191	0.182628	0.067204
C47	C	1.142277	0.182448	0.174439
C48	C	1.142453	0.182121	0.370776
C49	C	1.142358	0.182305	0.261521
H50	H	0.444012	0.219950	-0.220827
Br51	Br	0.421434	-0.031909	0.030501
H52	H	0.493009	0.281024	-0.281777
Br53	Br	0.545576	0.413530	-0.413971
Br54	Br	0.669425	0.444655	-0.445026
H55	H	0.841383	0.144678	-0.145775
Br56	Br	0.739828	-0.048889	0.047387
H57	H	0.841545	0.368601	-0.369193
Br58	Br	0.615984	-0.080006	0.078444
Br59	Br	0.837208	0.072552	-0.073759
