data_functionalizedCrystal
_audit_creation_method	'MofGen! by Chris Wilmer'
_symmetry_space_group_name_H-M	'P1'
_symmetry_Int_Tables_number	1
_symmetry_cell_setting	triclinic
loop_
_symmetry_equiv_pos_as_xyz
  x,y,z
_cell_length_a	12.645323
_cell_length_b	16.120530
_cell_length_c	16.120444
_cell_angle_alpha	89.831599
_cell_angle_beta	92.868836
_cell_angle_gamma	92.919534
loop_
_atom_site_label
_atom_site_type_symbol
_atom_site_fract_x
_atom_site_fract_y
_atom_site_fract_z
Zn1	Zn	-0.705684	-1.254493	-0.395599
Zn2	Zn	-0.536909	-1.247327	-0.534661
Zn3	Zn	-0.519021	-1.115426	-0.388568
Zn4	Zn	-0.704716	-1.108343	-0.527552
O5	O	-0.616583	-1.181397	-0.461595
O6	O	-0.691187	-1.369908	-0.419963
O7	O	-0.386189	-1.229796	-0.515314
O8	O	-0.536701	-1.139836	-0.273137
O9	O	-0.567189	-1.364643	-0.522132
O10	O	-0.673842	-1.242008	-0.278303
O11	O	-0.373046	-1.132888	-0.407981
O12	O	-0.535762	-0.998120	-0.401087
O13	O	-0.853192	-1.127764	-0.510015
O14	O	-0.672192	-0.992917	-0.503198
O15	O	-0.853903	-1.235140	-0.413070
O16	O	-0.566250	-1.222928	-0.650082
O17	O	-0.689538	-1.120816	-0.644859
C18	C	-0.601932	-0.965346	-0.450609
C19	C	-0.595690	-0.872917	-0.445929
C20	C	-0.629755	-1.170348	-0.677643
C21	C	-0.635430	-1.165698	-0.770073
C22	C	-0.893088	-1.181462	-0.461534
C23	C	-1.010918	-1.181489	-0.461508
C24	C	-1.178003	-1.113756	-0.522184
C25	C	-1.055474	-1.113909	-0.522509
C26	C	-1.062819	-1.267899	-0.489739
C27	C	-1.185418	-1.267525	-0.490122
C28	C	-1.171228	-1.163659	-0.372285
C29	C	-1.048522	-1.161678	-0.372714
C30	C	-0.341152	-1.181384	-0.461598
C31	C	-0.223319	-1.181529	-0.461398
C32	C	-0.631291	-1.398292	-0.472624
C33	C	-0.637560	-1.490719	-0.477325
C34	C	-0.584303	-0.703690	-0.437366
C35	C	-0.648943	-0.659941	-0.485886
C36	C	-0.642607	-0.565778	-0.481121
C37	C	-0.590637	-0.797863	-0.442130
C38	C	-0.587382	-1.205726	-0.983047
C39	C	-0.645805	-1.157222	-0.939300
C40	C	-0.640031	-1.161939	-0.845133
C41	C	-0.593154	-1.201010	-1.077222
C42	C	-0.603384	-1.192512	-0.244705
C43	C	-0.597759	-1.197248	-0.152279
H44	H	-1.202167	-1.049340	-0.504136
H45	H	-0.524208	-0.670427	-0.392253
O46	O	-1.221771	-1.329470	-0.439903
C47	C	-1.333279	-1.329741	-0.439790
H48	H	-1.360613	-1.265619	-0.458108
H49	H	-1.360087	-1.346040	-0.374999
H50	H	-1.369306	-1.377783	-0.486170
H51	H	-0.709043	-0.693207	-0.531002
H52	H	-0.700159	-1.112153	-0.972567
H53	H	-0.533030	-1.250791	-0.949783
H54	H	-1.213768	-1.125066	-0.587740
O55	O	-1.013112	-1.037304	-0.500937
C56	C	-0.953518	-1.004587	-0.566183
H57	H	-0.928101	-1.057586	-0.606116
H58	H	-0.880226	-0.968077	-0.539243
H59	H	-1.004035	-0.961643	-0.605948
O60	O	-1.026571	-1.127496	-0.601256
C61	C	-1.063408	-1.063961	-0.653817
H62	H	-1.133329	-1.034731	-0.625299
H63	H	-1.089764	-1.091274	-0.717110
H64	H	-0.996919	-1.014504	-0.661546
H65	H	-1.219237	-1.283193	-0.555397
H66	H	-1.034265	-1.319554	-0.447062
H67	H	-1.037320	-1.283926	-0.554357
H68	H	-1.196561	-1.101983	-0.347419
O69	O	-1.007422	-1.085845	-0.347291
C70	C	-1.041676	-1.068725	-0.267509
H71	H	-1.117909	-1.107169	-0.256627
H72	H	-1.057003	-0.999870	-0.262690
H73	H	-0.977816	-1.085293	-0.218698
H74	H	-1.017780	-1.207790	-0.324673
O75	O	-1.206331	-1.222543	-0.318188
C76	C	-1.317488	-1.221232	-0.315309
H77	H	-1.344405	-1.157671	-0.336044
H78	H	-1.341625	-1.233890	-0.249081
H79	H	-1.356319	-1.271073	-0.358471
