data_functionalizedCrystal
_audit_creation_method	'MofGen! by Chris Wilmer'
_symmetry_space_group_name_H-M	'P1'
_symmetry_Int_Tables_number	1
_symmetry_cell_setting	triclinic
loop_
_symmetry_equiv_pos_as_xyz
  x,y,z
_cell_length_a	16.992694
_cell_length_b	14.519709
_cell_length_c	16.053802
_cell_angle_alpha	92.569364
_cell_angle_beta	87.249047
_cell_angle_gamma	87.174184
loop_
_atom_site_label
_atom_site_type_symbol
_atom_site_fract_x
_atom_site_fract_y
_atom_site_fract_z
O1	O	1.043963	0.191936	-0.069327
O2	O	0.815676	0.189789	-0.069352
O3	O	0.935872	0.057059	-0.069332
O4	O	0.923768	0.324666	-0.069348
O5	O	0.929256	0.064333	0.069526
O6	O	0.809060	0.197063	0.069506
O7	O	1.037348	0.199210	0.069530
Zn8	Zn	0.922154	0.199291	0.091565
Zn9	Zn	0.930870	0.189708	-0.091386
O10	O	0.917152	0.331940	0.069510
C11	C	0.783152	0.190666	0.000074
C12	C	0.696097	0.182430	0.000065
C13	C	0.645968	0.261890	0.000061
C14	C	0.564170	0.254147	0.000073
C15	C	0.532503	0.166943	0.000083
C16	C	0.582638	0.087478	0.000089
C17	C	0.664434	0.095222	0.000083
C18	C	0.288859	0.134847	0.000107
C19	C	0.207056	0.127109	0.000111
C20	C	0.188594	0.293779	0.000095
C21	C	0.270393	0.301515	0.000084
C22	C	0.320520	0.222050	0.000095
N23	N	0.448892	0.159027	0.000092
N24	N	0.404129	0.229968	0.000092
C25	C	0.932000	0.026296	0.000097
C26	C	0.930309	-0.076207	0.000098
C27	C	0.924087	-0.451551	0.000075
C28	C	0.925815	-0.347118	0.000082
C29	C	0.927198	-0.263882	0.000087
C30	C	0.928926	-0.159443	0.000092
C31	C	1.069872	0.198333	0.000103
C32	C	1.156927	0.206569	0.000106
C33	C	0.921024	0.362703	0.000079
C34	C	0.922715	0.465206	0.000073
N35	N	0.916210	0.205832	0.216424
N36	N	0.936820	0.183161	-0.216246
C37	C	0.967373	0.149377	0.260127
C38	C	0.963222	0.153962	0.347533
C39	C	0.907913	0.215006	0.391235
C40	C	0.856746	0.271462	0.347526
C41	C	0.860893	0.266872	0.260121
C42	C	0.889799	0.235027	0.652641
C43	C	0.885658	0.239615	0.740052
C44	C	0.992134	0.122113	0.740053
C45	C	0.996279	0.117533	0.652646
C46	C	0.945109	0.173985	0.608945
N47	N	0.903672	0.219695	0.480578
N48	N	0.949347	0.169291	0.519604
H49	H	0.671745	0.332900	0.000052
H50	H	0.819230	0.312842	0.224539
H51	H	0.329663	0.070141	0.000117
O52	O	0.551750	0.002836	0.000064
C53	C	0.433922	-0.082959	0.000126
C54	C	0.468795	0.012955	0.000139
H55	H	0.366848	-0.074810	0.000205
H56	H	0.457263	-0.125595	-0.057996
H57	H	0.451845	-0.119480	0.058227
H58	H	0.450887	0.049555	-0.057923
H59	H	0.445456	0.055523	0.058300
O60	O	0.713156	0.018069	0.000232
C61	C	0.812840	-0.066121	0.072147
C62	C	0.757691	0.021290	0.072088
H63	H	0.848873	-0.063536	0.130227
H64	H	0.776194	-0.129808	0.072207
H65	H	0.854323	-0.069700	0.014007
H66	H	0.716198	0.024958	0.130218
H67	H	0.794386	0.084936	0.071985
O68	O	1.021124	0.089999	0.217808
C69	C	1.126323	-0.026027	0.227044
C70	C	1.065476	0.041167	0.275070
H71	H	1.162209	-0.065512	0.273320
H72	H	1.094387	-0.076830	0.186159
H73	H	1.167459	0.014572	0.186089
H74	H	1.024324	0.000645	0.316071
H75	H	1.097463	0.091970	0.315903
H76	H	0.296170	0.372525	0.000066
H77	H	1.004882	0.107992	0.383115
H78	H	1.041316	0.067826	0.617066
O79	O	0.802945	0.330778	0.389846
C80	C	0.697800	0.446872	0.380613
C81	C	0.758680	0.379721	0.332585
H82	H	0.662007	0.486474	0.334338
H83	H	0.656581	0.406325	0.421522
H84	H	0.729786	0.497579	0.421544
H85	H	0.726760	0.328999	0.291608
H86	H	0.799896	0.420329	0.291728
H87	H	1.033794	0.076151	0.775642
O88	O	0.831849	0.298928	0.782376
C89	C	0.726690	0.415007	0.773157
C90	C	0.787575	0.347869	0.725121
H91	H	0.690889	0.454607	0.726887
H92	H	0.685478	0.374450	0.814065
H93	H	0.758672	0.465717	0.814089
H94	H	0.755659	0.297144	0.684143
H95	H	0.828783	0.388487	0.684265
O96	O	0.840214	0.289920	0.610110
C97	C	0.828379	0.409520	0.511467
C98	C	0.884624	0.347385	0.559568
H99	H	0.864262	0.456010	0.470606
H100	H	0.791097	0.364699	0.470500
H101	H	0.788130	0.453896	0.557740
H102	H	0.924922	0.302998	0.513355
H103	H	0.921851	0.392259	0.600548
H104	H	0.147771	0.358475	0.000088
H105	H	0.523358	0.318852	0.000068
H106	H	0.181277	0.056094	0.000118
