data_functionalizedCrystal
_audit_creation_method	'MofGen! by Chris Wilmer'
_symmetry_space_group_name_H-M	'P1'
_symmetry_Int_Tables_number	1
_symmetry_cell_setting	triclinic
loop_
_symmetry_equiv_pos_as_xyz
  x,y,z
_cell_length_a	17.699083
_cell_length_b	16.176319
_cell_length_c	17.699103
_cell_angle_alpha	90.012529
_cell_angle_beta	96.712962
_cell_angle_gamma	90.005199
loop_
_atom_site_label
_atom_site_type_symbol
_atom_site_fract_x
_atom_site_fract_y
_atom_site_fract_z
O1	O	-1.004079	0.068631	0.095714
O2	O	-0.504079	0.568631	0.595714
O3	O	-0.783701	0.068662	0.108166
O4	O	-0.283701	0.568662	0.608166
O5	O	-0.900108	0.068630	-0.008248
O6	O	-0.400108	0.568630	0.491752
O7	O	-0.887671	0.068663	0.212128
O8	O	-0.387671	0.568663	0.712128
O9	O	-0.900106	-0.068863	-0.008259
O10	O	-0.400106	0.431137	0.491741
O11	O	-0.783699	-0.068832	0.108156
O12	O	-0.283699	0.431168	0.608156
O13	O	-1.004077	-0.068862	0.095703
O14	O	-0.504077	0.431138	0.595703
Cu15	Cu	-0.893888	-0.081401	0.101928
Cu16	Cu	-0.393888	0.418599	0.601928
Cu17	Cu	-0.893890	0.081201	0.101941
Cu18	Cu	-0.393890	0.581201	0.601941
O19	O	-0.887669	-0.068830	0.212118
O20	O	-0.387669	0.431170	0.712118
C21	C	-0.755503	-0.000081	0.107715
C22	C	-0.255503	0.499919	0.607715
C23	C	-0.671485	-0.000071	0.106376
C24	C	-0.171485	0.499929	0.606376
C25	C	-0.622869	-0.000060	0.174709
C26	C	-0.122869	0.499940	0.674709
C27	C	-0.543925	-0.000070	0.173447
C28	C	-0.043925	0.499930	0.673447
C29	C	-0.513600	-0.000085	0.103851
C30	C	-0.013600	0.499915	0.603851
C31	C	-0.562222	-0.000098	0.035513
C32	C	-0.062222	0.499902	0.535513
C33	C	-0.641164	-0.000094	0.036776
C34	C	-0.141164	0.499906	0.536776
C35	C	-0.243859	-0.000117	0.030418
C36	C	0.256141	0.499883	0.530418
C37	C	-0.164910	-0.000119	0.029160
C38	C	0.335090	0.499881	0.529160
C39	C	-0.146620	-0.000093	0.167088
C40	C	0.353380	0.499907	0.667088
C41	C	-0.225562	-0.000089	0.168351
C42	C	0.274438	0.499911	0.668351
C43	C	-0.274177	-0.000106	0.100014
C44	C	0.225823	0.499894	0.600014
C45	C	-0.359777	-0.000097	0.101383
C46	C	0.140223	0.499903	0.601383
C47	C	-0.428002	-0.000089	0.102480
C48	C	0.071998	0.499911	0.602480
N49	N	-0.893891	-0.195766	0.101919
N50	N	-0.393891	0.304234	0.601919
C51	C	-0.899659	-0.000119	-0.036450
C52	C	-0.399659	0.499881	0.463550
C53	C	-0.898315	-0.000126	-0.120468
C54	C	-0.398315	0.499874	0.379532
C55	C	-0.032275	-0.000115	0.096155
C56	C	0.467725	0.499885	0.596155
C57	C	-0.116293	-0.000114	0.097493
C58	C	0.383707	0.499886	0.597493
N59	N	-0.893892	0.195566	0.101944
N60	N	-0.393892	0.695566	0.601944
C61	C	-0.945533	0.238816	0.050497
C62	C	-0.445533	0.738816	0.550497
C63	C	-0.945536	0.325363	0.050496
C64	C	-0.445536	0.825363	0.550496
C65	C	-0.893894	0.368659	0.101938
C66	C	-0.393894	0.868659	0.601938
C67	C	-0.842251	0.325402	0.153390
C68	C	-0.342251	0.825402	0.653390
C69	C	-0.842252	0.238857	0.153395
C70	C	-0.342252	0.738857	0.653395
C71	C	-0.842245	0.674431	0.153373
C72	C	-0.342245	1.174431	0.653373
C73	C	-0.842246	0.760982	0.153363
C74	C	-0.342246	1.260982	0.653363
C75	C	-0.945529	0.760937	0.050474
C76	C	-0.445529	1.260937	0.550474
C77	C	-0.945530	0.674391	0.050478
C78	C	-0.445530	1.174391	0.550478
C79	C	-0.893890	0.631143	0.101933
C80	C	-0.393890	1.131143	0.601933
C81	C	-0.893889	0.537299	0.101935
C82	C	-0.393889	1.037299	0.601935
C83	C	-0.893891	0.462501	0.101933
C84	C	-0.393891	0.962501	0.601933
C85	C	-0.890091	0.074877	-0.636173
C86	C	-0.390091	0.574877	-0.136173
C87	C	-0.891354	0.074870	-0.557230
C88	C	-0.391354	0.574870	-0.057230
C89	C	-0.891982	-0.000083	-0.517777
C90	C	-0.391982	0.499917	-0.017777
C91	C	-0.891356	-0.075033	-0.557273
C92	C	-0.391356	0.424967	-0.057273
C93	C	-0.890099	-0.075025	-0.636216
C94	C	-0.390099	0.424975	-0.136216
C95	C	-0.896426	-0.075068	-0.238907
C96	C	-0.396426	0.424932	0.261093
C97	C	-0.897681	-0.075071	-0.159958
C98	C	-0.397681	0.424929	0.340042
C99	C	-0.897681	0.074826	-0.159921
C100	C	-0.397681	0.574826	0.340079
C101	C	-0.896424	0.074834	-0.238863
C102	C	-0.396424	0.574834	0.261137
C103	C	-0.895802	-0.000115	-0.278353
C104	C	-0.395802	0.499885	0.221647
C105	C	-0.894434	-0.000106	-0.363952
C106	C	-0.394434	0.499894	0.136048
C107	C	-0.893344	-0.000093	-0.432178
C108	C	-0.393344	0.499907	0.067822
C109	C	-0.888119	-0.000079	0.240320
C110	C	-0.388119	0.499921	0.740320
C111	C	-0.889463	-0.000067	0.324337
C112	C	-0.389463	0.499933	0.824337
H113	H	-0.680747	-0.000102	-0.018868
H114	H	-0.180747	0.499898	0.481132
H115	H	-0.800205	0.360658	0.195279
H116	H	-0.300205	0.860658	0.695279
H117	H	-0.107027	-0.000084	0.222732
H118	H	0.392973	0.499916	0.722732
H119	H	-0.800202	0.203643	0.195289
H120	H	-0.300202	0.703643	0.695289
H121	H	-0.987580	0.796159	0.008579
H122	H	-0.487580	1.296159	0.508579
H123	H	-0.898189	0.135854	-0.127759
H124	H	-0.398189	0.635854	0.372241
C125	C	-0.889408	0.157332	-0.679565
C126	C	-0.389408	0.657332	-0.179565
N127	N	-0.888899	0.219440	-0.712246
N128	N	-0.388899	0.719440	-0.212246
C129	C	-0.785462	0.808605	0.209985
C130	C	-0.285462	1.308605	0.709985
N131	N	-0.742704	0.844475	0.252640
N132	N	-0.242704	1.344475	0.752640
C133	C	-0.785432	0.626868	0.209968
C134	C	-0.285432	1.126868	0.709968
N135	N	-0.742636	0.591041	0.252596
N136	N	-0.242636	1.091041	0.752596
H137	H	-0.537525	-0.000122	-0.021153
H138	H	-0.037525	0.499878	0.478847
C139	C	-0.892044	0.157314	-0.513794
C140	C	-0.392044	0.657314	-0.013794
N141	N	-0.892565	0.219415	-0.481079
N142	N	-0.392565	0.719415	0.018921
H143	H	-0.895908	0.135868	-0.270981
H144	H	-0.395908	0.635868	0.229019
C145	C	-1.002342	0.191199	-0.006096
C146	C	-0.502342	0.691199	0.493904
N147	N	-1.045134	0.155337	-0.048723
N148	N	-0.545134	0.655337	0.451277
H149	H	-0.898189	-0.136110	-0.127838
H150	H	-0.398189	0.363890	0.372162
C151	C	-0.895730	-0.157515	-0.282333
C152	C	-0.395730	0.342485	0.217667
N153	N	-0.895201	-0.219618	-0.315044
N154	N	-0.395201	0.280382	0.184956
H155	H	-0.891873	-0.136061	-0.525145
H156	H	-0.391873	0.363939	-0.025145
C157	C	-0.889405	-0.157469	-0.679654
C158	C	-0.389405	0.342531	-0.179654
N159	N	-0.888885	-0.219569	-0.712371
N160	N	-0.388885	0.280431	-0.212371
C161	C	-1.002341	0.372934	-0.006104
C162	C	-0.502341	0.872934	0.493896
N163	N	-1.045129	0.408765	-0.048738
N164	N	-0.545129	0.908765	0.451262
C165	C	-0.490450	-0.000074	0.248618
C166	C	0.009550	0.499926	0.748618
N167	N	-0.450173	-0.000082	0.305241
N168	N	0.049827	0.499918	0.805241
C169	C	-0.656219	-0.000045	0.251271
C170	C	-0.156219	0.499955	0.751271
N171	N	-0.681336	-0.000038	0.308940
N172	N	-0.181336	0.499962	0.808940
H173	H	-0.140223	-0.000132	-0.027517
H174	H	0.359777	0.499868	0.472483
C175	C	-0.258915	-0.000078	0.244912
C176	C	0.241085	0.499922	0.744912
N177	N	-0.284035	-0.000075	0.302579
N178	N	0.215965	0.499925	0.802579
C179	C	-0.297326	-0.000130	-0.044756
C180	C	0.202674	0.499870	0.455244
N181	N	-0.337600	-0.000139	-0.101381
N182	N	0.162400	0.499861	0.398619
C183	C	-1.002332	0.626771	-0.006120
C184	C	-0.502332	1.126771	0.493880
N185	N	-1.045117	0.590905	-0.048751
N186	N	-0.545117	1.090905	0.451249
