data_functionalizedCrystal
_audit_creation_method	'MofGen! by Chris Wilmer'
_symmetry_space_group_name_H-M	'P1'
_symmetry_Int_Tables_number	1
_symmetry_cell_setting	triclinic
loop_
_symmetry_equiv_pos_as_xyz
  x,y,z
_cell_length_a	19.805407
_cell_length_b	21.295417
_cell_length_c	19.805407
_cell_angle_alpha	90.016337
_cell_angle_beta	90.002724
_cell_angle_gamma	90.029702
loop_
_atom_site_label
_atom_site_type_symbol
_atom_site_fract_x
_atom_site_fract_y
_atom_site_fract_z
Zn1	Zn	1.034608	-0.250707	0.382709
Zn2	Zn	1.284608	-0.000707	0.632709
Zn3	Zn	1.534608	0.249293	0.882709
Zn4	Zn	1.784608	0.499293	1.132709
Zn5	Zn	1.034549	-0.355951	0.269516
Zn6	Zn	1.284549	-0.105951	0.519516
Zn7	Zn	1.534549	0.144049	0.769516
Zn8	Zn	1.784549	0.394049	1.019516
Zn9	Zn	0.921456	-0.250700	0.269534
Zn10	Zn	1.171456	-0.000700	0.519534
Zn11	Zn	1.421456	0.249300	0.769534
Zn12	Zn	1.671456	0.499300	1.019534
Zn13	Zn	0.921379	-0.355943	0.382663
Zn14	Zn	1.171379	-0.105943	0.632663
Zn15	Zn	1.421379	0.144057	0.882663
Zn16	Zn	1.671379	0.394057	1.132663
O17	O	0.977998	-0.303325	0.326106
O18	O	1.227998	-0.053325	0.576106
O19	O	1.477998	0.196675	0.826106
O20	O	1.727998	0.446675	1.076106
O21	O	1.129316	-0.264675	0.367706
O22	O	1.379316	-0.014675	0.617706
O23	O	1.629316	0.235325	0.867706
O24	O	1.879316	0.485325	1.117706
O25	O	1.019555	-0.341990	0.174802
O26	O	1.269555	-0.091990	0.424802
O27	O	1.519555	0.158010	0.674802
O28	O	1.769555	0.408010	0.924802
O29	O	0.936522	-0.162612	0.284573
O30	O	1.186522	0.087388	0.534573
O31	O	1.436522	0.337388	0.784573
O32	O	1.686522	0.587388	1.034573
O33	O	1.129274	-0.341997	0.284544
O34	O	1.379274	-0.091997	0.534544
O35	O	1.629274	0.158003	0.784544
O36	O	1.879274	0.408003	1.034544
O37	O	1.019654	-0.162617	0.367722
O38	O	1.269654	0.087383	0.617722
O39	O	1.519654	0.337383	0.867722
O40	O	1.769654	0.587383	1.117722
O41	O	0.936465	-0.264662	0.174815
O42	O	1.186465	-0.014662	0.424815
O43	O	1.436465	0.235338	0.674815
O44	O	1.686465	0.485338	0.924815
O45	O	0.826729	-0.264654	0.284529
O46	O	1.076729	-0.014654	0.534529
O47	O	1.326729	0.235346	0.784529
O48	O	1.576729	0.485346	1.034529
O49	O	0.936392	-0.341982	0.477386
O50	O	1.186392	-0.091982	0.727386
O51	O	1.436392	0.158018	0.977386
O52	O	1.686392	0.408018	1.227386
O53	O	0.826673	-0.341975	0.367644
O54	O	1.076673	-0.091975	0.617644
O55	O	1.326673	0.158025	0.867644
O56	O	1.576673	0.408025	1.117644
O57	O	1.019580	-0.264667	0.477419
O58	O	1.269580	-0.014667	0.727419
O59	O	1.519580	0.235333	0.977419
O60	O	1.769580	0.485333	1.227419
O61	O	1.019481	-0.444040	0.284499
O62	O	1.269481	-0.194040	0.534499
O63	O	1.519481	0.055960	0.784499
O64	O	1.769481	0.305960	1.034499
O65	O	0.936335	-0.444033	0.367628
O66	O	1.186335	-0.194033	0.617628
O67	O	1.436335	0.055967	0.867628
O68	O	1.686335	0.305967	1.117628
C69	C	0.802142	-0.303313	0.326084
C70	C	1.052142	-0.053313	0.576084
C71	C	1.302142	0.196687	0.826084
C72	C	1.552142	0.446687	1.076084
C73	C	0.726910	-0.303323	0.326090
C74	C	0.976910	-0.053323	0.576090
C75	C	1.226910	0.196677	0.826090
C76	C	1.476910	0.446677	1.076090
C77	C	0.977912	-0.466877	0.326071
C78	C	1.227912	-0.216877	0.576071
C79	C	1.477912	0.033123	0.826071
C80	C	1.727912	0.283123	1.076071
C81	C	0.977937	-0.536845	0.326079
C82	C	1.227937	-0.286845	0.576079
C83	C	1.477937	-0.036845	0.826079
C84	C	1.727937	0.213155	1.076079
C85	C	0.691554	-0.343645	0.369299
C86	C	0.941554	-0.093645	0.619299
C87	C	1.191554	0.156355	0.869299
C88	C	1.441554	0.406355	1.119299
C89	C	0.620866	-0.343646	0.369308
C90	C	0.870866	-0.093646	0.619308
C91	C	1.120866	0.156354	0.869308
C92	C	1.370866	0.406354	1.119308
C93	C	0.585534	-0.303328	0.326106
C94	C	0.835534	-0.053328	0.576106
C95	C	1.085534	0.196672	0.826106
C96	C	1.335534	0.446672	1.076106
C97	C	0.620895	-0.263002	0.282895
C98	C	0.870895	-0.013002	0.532895
C99	C	1.120895	0.236998	0.782895
C100	C	1.370895	0.486998	1.032895
C101	C	0.691582	-0.262998	0.282890
C102	C	0.941582	-0.012998	0.532890
C103	C	1.191582	0.237002	0.782890
C104	C	1.441582	0.487002	1.032890
C105	C	0.335822	-0.263016	0.282918
C106	C	0.585822	-0.013016	0.532918
C107	C	0.835822	0.236984	0.782918
C108	C	1.085822	0.486984	1.032918
C109	C	0.265129	-0.263024	0.282925
C110	C	0.515129	-0.013024	0.532925
C111	C	0.765129	0.236976	0.782925
C112	C	1.015129	0.486976	1.032925
C113	C	0.265105	-0.343664	0.369336
C114	C	0.515105	-0.093664	0.619336
C115	C	0.765105	0.156336	0.869336
C116	C	1.015105	0.406336	1.119336
C117	C	0.335793	-0.343660	0.369331
C118	C	0.585793	-0.093660	0.619331
C119	C	0.835793	0.156340	0.869331
C120	C	1.085793	0.406340	1.119331
C121	C	0.371147	-0.303332	0.326123
C122	C	0.621147	-0.053332	0.576123
C123	C	0.871147	0.196668	0.826123
C124	C	1.121147	0.446668	1.076123
C125	C	0.447795	-0.303330	0.326114
C126	C	0.697795	-0.053330	0.576114
C127	C	0.947795	0.196670	0.826114
C128	C	1.197795	0.446670	1.076114
C129	C	0.508887	-0.303333	0.326111
C130	C	0.758887	-0.053333	0.576111
C131	C	1.008887	0.196667	0.826111
C132	C	1.258887	0.446667	1.076111
C133	C	1.021199	-0.569657	0.369406
C134	C	1.271199	-0.319657	0.619406
C135	C	1.521199	-0.069657	0.869406
C136	C	1.771199	0.180343	1.119406
C137	C	1.021223	-0.635400	0.369423
C138	C	1.271223	-0.385400	0.619423
C139	C	1.521223	-0.135400	0.869423
C140	C	1.771223	0.114600	1.119423
C141	C	0.977992	-0.668328	0.326101
C142	C	1.227992	-0.418328	0.576101
C143	C	1.477992	-0.168328	0.826101
C144	C	1.727992	0.081672	1.076101
C145	C	0.934721	-0.635507	0.282771
C146	C	1.184721	-0.385507	0.532771
C147	C	1.434721	-0.135507	0.782771
C148	C	1.684721	0.114493	1.032771
C149	C	0.934693	-0.569766	0.282760
C150	C	1.184693	-0.319766	0.532760
C151	C	1.434693	-0.069766	0.782760
C152	C	1.684693	0.180234	1.032760
N153	N	0.972898	-0.771576	0.266865
N154	N	1.222898	-0.521576	0.516865
N155	N	1.472898	-0.271576	0.766865
N156	N	1.722898	-0.021576	1.016865
N157	N	0.972928	-0.834027	0.266877
N158	N	1.222928	-0.584027	0.516877
N159	N	1.472928	-0.334027	0.766877
N160	N	1.722928	-0.084027	1.016877
C161	C	0.978071	-0.866402	0.326131
C162	C	1.228071	-0.616402	0.576131
C163	C	1.478071	-0.366402	0.826131
C164	C	1.728071	-0.116402	1.076131
N165	N	0.983196	-0.833967	0.385374
N166	N	1.233196	-0.583967	0.635374
N167	N	1.483196	-0.333967	0.885374
N168	N	1.733196	-0.083967	1.135374
N169	N	0.983169	-0.771509	0.385361
N170	N	1.233169	-0.521509	0.635361
N171	N	1.483169	-0.271509	0.885361
N172	N	1.733169	-0.021509	1.135361
C173	C	0.978016	-0.739613	0.326108
C174	C	1.228016	-0.489613	0.576108
C175	C	1.478016	-0.239613	0.826108
C176	C	1.728016	0.010387	1.076108
C177	C	1.021361	-0.970500	0.369480
C178	C	1.271361	-0.720500	0.619480
C179	C	1.521361	-0.470500	0.869480
C180	C	1.771361	-0.220500	1.119480
C181	C	1.021380	-1.036244	0.369498
C182	C	1.271380	-0.786244	0.619498
C183	C	1.521380	-0.536244	0.869498
C184	C	1.771380	-0.286244	1.119498
C185	C	0.934882	-1.036350	0.282839
C186	C	1.184882	-0.786350	0.532839
C187	C	1.434882	-0.536350	0.782839
C188	C	1.684882	-0.286350	1.032839
C189	C	0.934859	-0.970608	0.282828
C190	C	1.184859	-0.720608	0.532828
C191	C	1.434859	-0.470608	0.782828
C192	C	1.684859	-0.220608	1.032828
C193	C	0.978102	-0.937687	0.326147
C194	C	1.228102	-0.687687	0.576147
C195	C	1.478102	-0.437687	0.826147
C196	C	1.728102	-0.187687	1.076147
C197	C	1.154541	-0.303338	0.326128
C198	C	1.404541	-0.053338	0.576128
C199	C	1.654541	0.196662	0.826128
C200	C	1.904541	0.446662	1.076128
C201	C	1.229773	-0.303343	0.326137
C202	C	1.479773	-0.053343	0.576137
C203	C	1.729773	0.196657	0.826137
C204	C	1.979773	0.446657	1.076137
C205	C	0.977984	-0.303324	0.502648
C206	C	1.227984	-0.053324	0.752648
C207	C	1.477984	0.196676	1.002648
C208	C	1.727984	0.446676	1.252648
C209	C	0.977978	-0.303324	0.577880
C210	C	1.227978	-0.053324	0.827880
C211	C	1.477978	0.196676	1.077880
C212	C	1.727978	0.446676	1.327880
C213	C	0.978103	-0.139135	0.326155
C214	C	1.228103	0.110865	0.576155
C215	C	1.478103	0.360865	0.826155
C216	C	1.728103	0.610865	1.076155
C217	C	0.978148	-0.069167	0.326176
C218	C	1.228148	0.180833	0.576176
C219	C	1.478148	0.430833	0.826176
C220	C	1.728148	0.680833	1.076176
C221	C	1.021266	-0.343597	1.039662
C222	C	1.271266	-0.093597	1.289662
C223	C	1.521266	0.156403	1.539662
C224	C	1.771266	0.406403	1.789662
C225	C	1.021260	-0.343597	0.968974
C226	C	1.271260	-0.093597	1.218974
C227	C	1.521260	0.156403	1.468974
C228	C	1.771260	0.406403	1.718974
C229	C	0.977997	-0.303337	0.933642
C230	C	1.227997	-0.053337	1.183642
C231	C	1.477997	0.196663	1.433642
C232	C	1.727997	0.446663	1.683642
C233	C	0.934733	-0.263077	0.969002
C234	C	1.184733	-0.013077	1.219002
C235	C	1.434733	0.236923	1.469002
C236	C	1.684733	0.486923	1.719002
C237	C	0.934736	-0.263080	1.039689
C238	C	1.184736	-0.013080	1.289689
C239	C	1.434736	0.236920	1.539689
C240	C	1.684736	0.486920	1.789689
C241	C	0.934720	-0.263064	0.683929
C242	C	1.184720	-0.013064	0.933929
C243	C	1.434720	0.236936	1.183929
C244	C	1.684720	0.486936	1.433929
C245	C	0.934722	-0.263063	0.613237
C246	C	1.184722	-0.013063	0.863237
C247	C	1.434722	0.236937	1.113237
C248	C	1.684722	0.486937	1.363237
C249	C	1.021243	-0.343581	0.613213
C250	C	1.271243	-0.093581	0.863213
C251	C	1.521243	0.156419	1.113213
C252	C	1.771243	0.406419	1.363213
C253	C	1.021246	-0.343584	0.683900
C254	C	1.271246	-0.093584	0.933900
C255	C	1.521246	0.156416	1.183900
C256	C	1.771246	0.406416	1.433900
C257	C	0.977980	-0.303328	0.719255
C258	C	1.227980	-0.053328	0.969255
C259	C	1.477980	0.196672	1.219255
C260	C	1.727980	0.446672	1.469255
C261	C	0.977986	-0.303328	0.795903
C262	C	1.227986	-0.053328	1.045903
C263	C	1.477986	0.196672	1.295903
C264	C	1.727986	0.446672	1.545903
C265	C	0.977994	-0.303332	0.856995
C266	C	1.227994	-0.053332	1.106995
C267	C	1.477994	0.196668	1.356995
C268	C	1.727994	0.446668	1.606995
C269	C	0.978005	-0.303340	1.150250
C270	C	1.228005	-0.053340	1.400250
C271	C	1.478005	0.196660	1.650250
C272	C	1.728005	0.446660	1.900250
C273	C	0.978006	-0.303339	1.075018
C274	C	1.228006	-0.053339	1.325018
C275	C	1.478006	0.196661	1.575018
C276	C	1.728006	0.446661	1.825018
H277	H	0.720316	-0.376479	0.404477
H278	H	0.970316	-0.126479	0.654477
H279	H	1.220316	0.123521	0.904477
H280	H	1.470316	0.373521	1.154477
H281	H	1.056470	-0.376362	0.584419
H282	H	1.306470	-0.126362	0.834419
H283	H	1.556470	0.123638	1.084419
H284	H	1.806470	0.373638	1.334419
H285	H	1.056609	-1.062959	0.404783
H286	H	1.306609	-0.812959	0.654783
H287	H	1.556609	-0.562959	0.904783
H288	H	1.806609	-0.312959	1.154783
H289	H	0.899678	-1.063159	0.247570
H290	H	1.149678	-0.813159	0.497570
H291	H	1.399678	-0.563159	0.747570
H292	H	1.649678	-0.313159	0.997570
H293	H	0.899511	-0.230298	1.068475
H294	H	1.149511	0.019702	1.318475
H295	H	1.399511	0.269702	1.568475
H296	H	1.649511	0.519702	1.818475
H297	H	0.364599	-0.230183	0.247730
H298	H	0.614599	0.019817	0.497730
H299	H	0.864599	0.269817	0.747730
H300	H	1.114599	0.519817	0.997730
H301	H	0.592122	-0.230172	0.247722
H302	H	0.842122	0.019828	0.497722
H303	H	1.092122	0.269828	0.747722
H304	H	1.342122	0.519828	0.997722
H305	H	0.899634	-0.943890	0.247544
H306	H	1.149634	-0.693890	0.497544
H307	H	1.399634	-0.443890	0.747544
H308	H	1.649634	-0.193890	0.997544
H309	H	1.056408	-0.542855	0.404681
H310	H	1.306408	-0.292855	0.654681
H311	H	1.556408	-0.042855	0.904681
H312	H	1.806408	0.207145	1.154681
H313	H	1.056498	-0.376379	1.068424
H314	H	1.306498	-0.126379	1.318424
H315	H	1.556498	0.123621	1.568424
H316	H	1.806498	0.373621	1.818424
H317	H	0.236364	-0.230189	0.247744
H318	H	0.486364	0.019811	0.497744
H319	H	0.736364	0.269811	0.747744
H320	H	0.986364	0.519811	0.997744
H321	H	0.592082	-0.376481	0.404492
H322	H	0.842082	-0.126481	0.654492
H323	H	1.092082	0.123519	0.904492
H324	H	1.342082	0.373519	1.154492
H325	H	0.899490	-0.230276	0.584472
H326	H	1.149490	0.019724	0.834472
H327	H	1.399490	0.269724	1.084472
H328	H	1.649490	0.519724	1.334472
H329	H	0.236311	-0.376499	0.404520
H330	H	0.486311	-0.126499	0.654520
H331	H	0.736311	0.123501	0.904520
H332	H	0.986311	0.373501	1.154520
H333	H	0.364556	-0.376493	0.404508
H334	H	0.614556	-0.126493	0.654508
H335	H	0.864556	0.123507	0.904508
H336	H	1.114556	0.373507	1.154508
H337	H	1.056477	-0.376387	0.940191
H338	H	1.306477	-0.126387	1.190191
H339	H	1.556477	0.123613	1.440191
H340	H	1.806477	0.373613	1.690191
H341	H	1.056477	-0.376367	0.712664
H342	H	1.306477	-0.126367	0.962664
H343	H	1.556477	0.123633	1.212664
H344	H	1.806477	0.373633	1.462664
H345	H	0.720368	-0.230161	0.247709
H346	H	0.970368	0.019839	0.497709
H347	H	1.220368	0.269839	0.747709
H348	H	1.470368	0.519839	0.997709
H349	H	0.899489	-0.230285	0.712706
H350	H	1.149489	0.019715	0.962706
H351	H	1.399489	0.269715	1.212706
H352	H	1.649489	0.519715	1.462706
H353	H	1.056446	-0.662121	0.404713
H354	H	1.306446	-0.412121	0.654713
H355	H	1.556446	-0.162121	0.904713
H356	H	1.806446	0.087879	1.154713
H357	H	0.899505	-0.230299	0.940229
H358	H	1.149505	0.019701	1.190229
H359	H	1.399505	0.269701	1.440229
H360	H	1.649505	0.519701	1.690229
H361	H	0.899520	-0.662321	0.247499
H362	H	1.149520	-0.412321	0.497499
H363	H	1.399520	-0.162321	0.747499
H364	H	1.649520	0.087679	0.997499
H365	H	0.899463	-0.543050	0.247477
H366	H	1.149463	-0.293050	0.497477
H367	H	1.399463	-0.043050	0.747477
H368	H	1.649463	0.206950	0.997477
H369	H	1.056570	-0.943695	0.404755
H370	H	1.306570	-0.693695	0.654755
H371	H	1.556570	-0.443695	0.904755
H372	H	1.806570	-0.193695	1.154755
