data_functionalizedCrystal
_audit_creation_method	'MofGen! by Chris Wilmer'
_symmetry_space_group_name_H-M	'P1'
_symmetry_Int_Tables_number	1
_symmetry_cell_setting	triclinic
loop_
_symmetry_equiv_pos_as_xyz
  x,y,z
_cell_length_a	15.625950
_cell_length_b	15.538191
_cell_length_c	9.130307
_cell_angle_alpha	90.000534
_cell_angle_beta	108.071888
_cell_angle_gamma	66.741480
loop_
_atom_site_label
_atom_site_type_symbol
_atom_site_fract_x
_atom_site_fract_y
_atom_site_fract_z
O1	O	1.155831	0.123017	0.491902
O2	O	0.888597	0.137642	0.350013
O3	O	1.074233	-0.006728	0.448570
O4	O	0.970195	0.267387	0.393345
O5	O	1.074229	-0.006729	0.692167
O6	O	0.888593	0.137641	0.593610
O7	O	1.155827	0.123016	0.735498
Cu8	Cu	1.022209	0.130328	0.686797
Cu9	Cu	1.022214	0.130330	0.398715
O10	O	0.970191	0.267386	0.636941
C11	C	0.855229	0.136976	0.454095
C12	C	0.755812	0.134980	0.401309
C13	C	0.428719	0.128464	0.891435
C14	C	0.335293	0.126608	0.841762
C15	C	0.335344	0.126610	0.576227
C16	C	0.428770	0.128471	0.625877
C17	C	0.475451	0.129397	0.783483
C18	C	0.475501	0.129404	0.517924
C19	C	0.568921	0.131260	0.567572
C20	C	0.615610	0.132184	0.725172
C21	C	0.568871	0.131253	0.833130
C22	C	0.428822	0.128472	0.360321
C23	C	0.475553	0.129405	0.252369
C24	C	0.568972	0.131268	0.302014
C25	C	0.615660	0.132191	0.459614
C26	C	0.615711	0.132198	0.194055
C27	C	0.709131	0.134054	0.243703
C28	C	0.709080	0.134047	0.509261
C29	C	1.085116	-0.041809	0.576143
C30	C	1.117540	-0.146338	0.593344
C31	C	0.795423	-0.434573	0.422346
C32	C	0.825912	-0.532797	0.438538
C33	C	0.997407	-0.555003	0.529593
C34	C	0.966932	-0.456779	0.513402
C35	C	0.865939	-0.396572	0.459780
C36	C	1.037449	-0.418778	0.550835
C37	C	1.006976	-0.320563	0.534653
C38	C	0.905987	-0.260349	0.481037
C39	C	0.835466	-0.298357	0.443597
C40	C	1.138442	-0.478987	0.604468
C41	C	1.208958	-0.440985	0.641901
C42	C	1.178485	-0.342769	0.625709
C43	C	1.077496	-0.282555	0.572093
C44	C	1.249006	-0.304761	0.663149
C45	C	1.218533	-0.206546	0.646966
C46	C	1.047023	-0.184340	0.555911
C47	C	1.189195	0.123682	0.631413
C48	C	1.288612	0.125678	0.684190
C49	C	0.959308	0.302467	0.509365
C50	C	0.926884	0.406996	0.492155
N51	N	1.022213	0.130326	0.889421
N52	N	1.022220	0.130324	0.196096
C53	C	1.186631	0.002524	0.976703
C54	C	1.268845	-0.061375	1.097014
C55	C	1.268855	-0.061376	1.250352
C56	C	1.186640	0.002527	1.283378
C57	C	1.104425	0.066426	1.163068
C58	C	1.104426	0.066422	1.009731
C59	C	0.940006	0.194223	1.075785
C60	C	0.939998	0.194230	0.922447
C61	C	0.857791	0.258126	1.108811
C62	C	0.775578	0.322031	0.988501
C63	C	0.775573	0.322029	0.835155
C64	C	0.857784	0.258128	0.802137
H65	H	0.606874	0.132022	0.961465
H66	H	1.163249	-0.558960	0.617629
H67	H	0.437535	0.128646	0.124046
H68	H	1.335798	-0.113411	1.348312
H69	H	0.577694	0.131434	0.065735
F70	F	0.758869	0.135045	0.128809
H71	H	0.964784	-0.135314	0.512235
H72	H	1.186647	0.002515	1.408234
H73	H	0.857800	0.258119	1.233668
H74	H	1.186637	0.002525	0.851854
F75	F	0.285665	0.125599	0.408502
F76	F	1.316439	-0.505072	0.698980
F77	F	0.688085	0.390028	1.023658
H78	H	0.881177	-0.180376	0.467871
F79	F	1.356487	-0.368849	0.720240
H80	H	1.335783	-0.113406	1.070110
F81	F	0.727976	-0.234273	0.386512
H82	H	1.275955	-0.175605	0.677450
F83	F	0.285567	0.125601	0.956676
F84	F	0.687933	-0.370490	0.365261
F85	F	0.688064	0.390036	0.707119
H86	H	0.857789	0.258125	0.677287
H87	H	0.768481	-0.563733	0.408072
F88	F	0.758762	0.135043	0.677002
H89	H	0.691679	0.133694	0.765592
F90	F	1.104889	-0.619090	0.586672
F91	F	0.329406	0.126472	0.307490
H92	H	0.466723	0.129233	1.019770
