data_functionalizedCrystal
_audit_creation_method	'MofGen! by Chris Wilmer'
_symmetry_space_group_name_H-M	'P1'
_symmetry_Int_Tables_number	1
_symmetry_cell_setting	triclinic
loop_
_symmetry_equiv_pos_as_xyz
  x,y,z
_cell_length_a	16.625546
_cell_length_b	15.297475
_cell_length_c	15.298431
_cell_angle_alpha	91.630971
_cell_angle_beta	80.285225
_cell_angle_gamma	99.675296
loop_
_atom_site_label
_atom_site_type_symbol
_atom_site_fract_x
_atom_site_fract_y
_atom_site_fract_z
Zn1	Zn	-0.402743	-1.253533	-0.726640
Zn2	Zn	-0.564165	-1.278770	-0.580134
Zn3	Zn	-0.410583	-1.132380	-0.554865
Zn4	Zn	-0.518765	-1.107018	-0.701275
O5	O	-0.474064	-1.192925	-0.640729
O6	O	-0.439874	-1.379462	-0.728396
O7	O	-0.566074	-1.280527	-0.454196
O8	O	-0.296713	-1.148503	-0.577691
O9	O	-0.558471	-1.398004	-0.620758
O10	O	-0.290952	-1.237514	-0.703893
O11	O	-0.453238	-1.172975	-0.435631
O12	O	-0.409215	-1.006434	-0.553097
O13	O	-0.481093	-1.105277	-0.827227
O14	O	-0.488696	-0.987800	-0.660664
O15	O	-0.395852	-1.212921	-0.845862
O16	O	-0.670973	-1.255934	-0.596164
O17	O	-0.637618	-1.129749	-0.685166
C18	C	-0.444881	-0.965333	-0.601386
C19	C	-0.432412	-0.867964	-0.584576
C20	C	-0.683551	-1.192848	-0.640678
C21	C	-0.773175	-1.192891	-0.640699
C22	C	-0.432534	-1.153455	-0.869218
C23	C	-0.414836	-1.136635	-0.966587
C24	C	-1.101354	-1.193028	-0.640817
C25	C	-1.010044	-1.192986	-0.640786
C26	C	-0.937268	-1.192959	-0.640757
C27	C	-0.845952	-1.192919	-0.640728
C28	C	-0.263759	-1.193022	-0.640803
C29	C	-0.174139	-1.193064	-0.640835
C30	C	-0.503362	-1.421406	-0.680225
C31	C	-0.515847	-1.518771	-0.697056
C32	C	-0.563189	-0.554850	-0.760875
C33	C	-0.574910	-0.646333	-0.776666
C34	C	-0.539287	-0.701745	-0.728645
C35	C	-0.491939	-0.665666	-0.664830
C36	C	-0.480222	-0.574174	-0.649032
C37	C	-0.456319	-0.721069	-0.616803
C38	C	-0.408972	-0.684990	-0.552987
C39	C	-0.397256	-0.593507	-0.537193
C40	C	-0.432880	-0.538095	-0.585213
C41	C	-0.468037	-0.812561	-0.632600
C42	C	-0.385070	-0.831885	-0.520758
C43	C	-0.373348	-0.740402	-0.504966
C44	C	-0.347771	-1.072735	-1.002658
C45	C	-0.331142	-1.056920	-1.094138
C46	C	-0.381573	-1.105009	-1.149558
C47	C	-0.448636	-1.168915	-1.113488
C48	C	-0.465270	-1.184727	-1.021997
C49	C	-0.499073	-1.217001	-1.168897
C50	C	-0.566136	-1.280907	-1.132827
C51	C	-0.582767	-1.296716	-1.041345
C52	C	-0.532336	-1.248627	-0.985926
C53	C	-0.482439	-1.201190	-1.260388
C54	C	-0.599939	-1.313182	-1.279727
C55	C	-0.616567	-1.328996	-1.188246
C56	C	-0.515381	-1.232292	-0.413137
C57	C	-0.532874	-1.249282	-0.315798
H58	H	-0.548833	-0.776234	-0.741507
H59	H	-0.368030	-1.092130	-1.224045
O60	O	-0.327489	-0.705328	-0.442872
C61	C	-0.324723	-0.622390	-0.306817
C62	C	-0.376756	-0.662084	-0.377062
H63	H	-0.364529	-0.587402	-0.253602
H64	H	-0.301294	-0.677675	-0.275133
H65	H	-0.269799	-0.572652	-0.339754
H66	H	-0.431717	-0.711811	-0.344193
H67	H	-0.400122	-0.606752	-0.408741
O68	O	-0.350489	-0.885824	-0.474212
C69	C	-0.331814	-1.035337	-0.448945
C70	C	-0.371001	-0.974345	-0.501733
H71	H	-0.348398	-1.106921	-0.471162
H72	H	-0.261690	-1.014758	-0.461365
H73	H	-0.356394	-1.029486	-0.375172
H74	H	-0.346487	-0.980165	-0.575521
H75	H	-0.441122	-0.994941	-0.489238
O76	O	-0.681640	-1.391185	-1.153264
C77	C	-0.745012	-1.544994	-1.151060
C78	C	-0.671260	-1.474662	-1.190732
H79	H	-0.736654	-1.612497	-1.181349
H80	H	-0.748245	-1.548109	-1.076157
H81	H	-0.804772	-1.526422	-1.166347
H82	H	-0.611460	-1.493183	-1.175511
H83	H	-0.668101	-1.471560	-1.265624
O84	O	-0.648002	-1.358731	-1.006396
C85	C	-0.795699	-1.405999	-0.985670
C86	C	-0.721894	-1.335714	-1.025309
H87	H	-0.855460	-1.387406	-1.000930
H88	H	-0.787390	-1.473541	-1.015898
H89	H	-0.798886	-1.409055	-0.910771
H90	H	-0.718664	-1.332579	-1.100205
H91	H	-0.730233	-1.268208	-0.995012
O92	O	-0.597703	-0.500895	-0.807462
C93	C	-0.616466	-0.351393	-0.832640
C94	C	-0.577310	-0.412394	-0.779828
H95	H	-0.600008	-0.279830	-0.810305
H96	H	-0.591861	-0.357116	-0.906423
H97	H	-0.686576	-0.372090	-0.820247
H98	H	-0.507199	-0.391738	-0.792147
H99	H	-0.601981	-0.406664	-0.706063
H100	H	-0.427835	-1.149158	-1.289747
O101	O	-0.648823	-1.359857	-1.333683
C102	C	-0.675289	-1.385107	-1.483192
C103	C	-0.619857	-1.332204	-1.422184
H104	H	-0.651901	-1.362757	-1.554755
H105	H	-0.673443	-1.458863	-1.477488
H106	H	-0.741605	-1.372825	-1.462481
H107	H	-0.553516	-1.344412	-1.442855
H108	H	-0.621774	-1.258467	-1.427896
H109	H	-0.506587	-0.841927	-0.684560
O110	O	-0.265968	-0.994948	-1.129298
C111	C	-0.136808	-0.965351	-1.230564
C112	C	-0.210579	-1.035628	-1.190828
H113	H	-0.091999	-0.998218	-1.280305
H114	H	-0.160130	-0.912140	-1.265517
H115	H	-0.103654	-0.933671	-1.175229
H116	H	-0.243765	-1.067376	-1.246109
H117	H	-0.187207	-1.088784	-1.155851
O118	O	-0.421525	-0.449256	-0.569698
C119	C	-0.440614	-0.332474	-0.462997
C120	C	-0.453507	-0.433105	-0.480447
H121	H	-0.466480	-0.319383	-0.390844
H122	H	-0.371695	-0.304462	-0.476941
H123	H	-0.474175	-0.299073	-0.508316
H124	H	-0.419995	-0.466581	-0.435139
H125	H	-0.522440	-0.461050	-0.466531
O126	O	-0.620891	-0.681229	-0.838712
C127	C	-0.701990	-0.652409	-0.947936
C128	C	-0.649917	-0.612770	-0.877705
H129	H	-0.725487	-0.597081	-0.979469
H130	H	-0.662215	-0.687303	-1.001269
H131	H	-0.756872	-0.702207	-0.915013
H132	H	-0.595031	-0.562937	-0.910550
H133	H	-0.689750	-0.577932	-0.824380
H134	H	-0.545869	-1.261503	-0.911435
O135	O	-0.351222	-0.558328	-0.475286
C136	C	-0.231244	-0.457062	-0.445835
C137	C	-0.283294	-0.496821	-0.516042
H138	H	-0.176303	-0.407339	-0.478763
H139	H	-0.271028	-0.422087	-0.392585
H140	H	-0.207837	-0.512382	-0.414186
H141	H	-0.306711	-0.441554	-0.547759
H142	H	-0.243476	-0.531819	-0.569237
H143	H	-0.306721	-1.033582	-0.957527
