data_functionalizedCrystal
_audit_creation_method	'MofGen! by Chris Wilmer'
_symmetry_space_group_name_H-M	'P1'
_symmetry_Int_Tables_number	1
_symmetry_cell_setting	triclinic
loop_
_symmetry_equiv_pos_as_xyz
  x,y,z
_cell_length_a	14.044209
_cell_length_b	10.868271
_cell_length_c	11.792241
_cell_angle_alpha	90.001559
_cell_angle_beta	91.309316
_cell_angle_gamma	90.000974
loop_
_atom_site_label
_atom_site_type_symbol
_atom_site_fract_x
_atom_site_fract_y
_atom_site_fract_z
O1	O	-1.259115	0.102175	0.273752
O2	O	-0.759115	0.602175	0.773752
O3	O	-0.983095	0.102210	0.263876
O4	O	-0.483095	0.602210	0.763876
O5	O	-1.127803	0.102183	0.104272
O6	O	-0.627803	0.602183	0.604272
O7	O	-1.114407	0.102202	0.433356
O8	O	-0.614407	0.602202	0.933356
O9	O	-1.127790	-0.102462	0.104277
O10	O	-0.627790	0.397538	0.604277
O11	O	-0.983082	-0.102435	0.263880
O12	O	-0.483082	0.397565	0.763880
O13	O	-1.259102	-0.102470	0.273757
O14	O	-0.759102	0.397530	0.773757
Zn15	Zn	-1.121090	-0.134944	0.268819
Zn16	Zn	-0.621090	0.365056	0.768819
Zn17	Zn	-1.121107	0.134684	0.268813
Zn18	Zn	-0.621107	0.634684	0.768813
O19	O	-1.114394	-0.102443	0.433360
O20	O	-0.614394	0.397557	0.933360
C21	C	-0.947752	-0.000108	0.259554
C22	C	-0.447752	0.499892	0.759554
C23	C	-0.842459	-0.000095	0.246656
C24	C	-0.342459	0.499905	0.746656
N25	N	-1.121085	-0.318958	0.268823
N26	N	-0.621085	0.181042	0.768823
C27	C	-1.121092	-0.430296	0.268824
C28	C	-0.621092	0.069704	0.768824
C29	C	-1.121105	-0.569974	0.268815
C30	C	-0.621105	-0.069974	0.768815
C31	C	-0.649677	-0.000118	0.223076
C32	C	-0.149677	0.499882	0.723076
C33	C	-0.592514	-0.000117	0.314561
C34	C	-0.092514	0.499883	0.814561
C35	C	-0.485243	-0.000130	0.301441
C36	C	0.014757	0.499870	0.801441
C37	C	-0.756958	-0.000105	0.236194
C38	C	-0.256958	0.499895	0.736194
C39	C	-0.294445	-0.000146	0.278081
C40	C	0.205555	0.499854	0.778081
C41	C	-0.399736	-0.000140	0.290986
C42	C	0.100264	0.499860	0.790986
C43	C	-1.126955	-0.000139	0.061905
C44	C	-0.626955	0.499861	0.561905
C45	C	-1.124436	-0.000138	-0.064346
C46	C	-0.624436	0.499862	0.435654
N47	N	-1.121120	0.318698	0.268801
N48	N	-0.621120	0.818698	0.768801
C49	C	-1.119805	-0.000116	-0.295493
C50	C	-0.619805	0.499884	0.204507
C51	C	-1.122378	-0.000128	-0.166866
C52	C	-0.622378	0.499872	0.333134
C53	C	-1.115242	-0.000119	0.475728
C54	C	-0.615242	0.499881	0.975728
C55	C	-1.117760	-0.000112	0.601978
C56	C	-0.617760	0.499888	1.101978
H57	H	-0.624138	-0.000107	0.402738
H58	H	-0.124138	0.499893	0.902738
H59	H	-0.618054	-0.000129	0.134906
H60	H	-0.118054	0.499871	0.634906
