data_functionalizedCrystal
_audit_creation_method	'MofGen! by Chris Wilmer'
_symmetry_space_group_name_H-M	'P1'
_symmetry_Int_Tables_number	1
_symmetry_cell_setting	triclinic
loop_
_symmetry_equiv_pos_as_xyz
  x,y,z
_cell_length_a	14.971486
_cell_length_b	10.723024
_cell_length_c	14.048226
_cell_angle_alpha	89.994758
_cell_angle_beta	89.998499
_cell_angle_gamma	84.040999
loop_
_atom_site_label
_atom_site_type_symbol
_atom_site_fract_x
_atom_site_fract_y
_atom_site_fract_z
O1	O	1.187820	0.162616	-0.079049
O2	O	0.927525	0.182090	-0.079074
O3	O	1.063676	-0.009286	-0.079057
O4	O	1.051668	0.353992	-0.079066
O5	O	1.063660	-0.009297	0.079264
O6	O	0.927508	0.182079	0.079247
O7	O	1.187804	0.162605	0.079273
Zn8	Zn	1.057653	0.172340	0.104397
Zn9	Zn	1.057675	0.172355	-0.104198
O10	O	1.051652	0.353981	0.079256
C11	C	0.894187	0.181213	0.000083
C12	C	0.794876	0.178604	0.000073
C13	C	0.738254	0.291032	0.000072
C14	C	0.644941	0.288572	0.000086
C15	C	0.608252	0.173683	0.000095
C16	C	0.664881	0.061246	0.000099
C17	C	0.758192	0.063707	0.000092
C18	C	0.470391	0.056125	0.000112
C19	C	0.377074	0.053663	0.000118
C20	C	0.357141	0.280990	0.000107
C21	C	0.450452	0.283451	0.000100
C22	C	0.507074	0.171013	0.000102
C23	C	1.062794	-0.055782	0.000102
C24	C	1.060180	-0.194309	0.000099
C25	C	1.136363	-0.270088	0.000105
C26	C	1.133663	-0.413263	0.000101
C27	C	1.221141	0.163482	0.000113
C28	C	1.320452	0.166091	0.000117
C29	C	1.052534	0.400477	0.000094
C30	C	1.055148	0.539004	0.000092
N31	N	1.057645	0.172329	0.246758
N32	N	1.057690	0.172356	-0.246559
C33	C	1.117952	0.087623	0.296583
C34	C	1.117958	0.087622	0.396241
C35	C	1.057660	0.172335	0.446071
C36	C	0.997347	0.257045	0.396238
C37	C	0.997337	0.257039	0.296583
C38	C	0.997373	0.257054	0.603953
C39	C	0.997383	0.257062	0.703615
C40	C	1.117994	0.087638	0.703611
C41	C	1.117984	0.087631	0.603955
C42	C	1.057671	0.172344	0.554129
H43	H	0.804293	-0.027843	0.000092
N44	N	0.337502	-0.070251	0.000157
H45	H	0.269798	-0.054744	0.000163
H46	H	0.358158	-0.119478	-0.058523
H47	H	0.992957	-0.235428	0.000086
N48	N	1.183012	-0.003715	0.449993
H49	H	1.222892	0.044093	0.491327
H50	H	1.148442	-0.059024	0.491300
H51	H	0.948281	0.326043	0.744182
N52	N	0.932318	0.348414	0.550209
H53	H	0.894123	0.402084	0.596896
H54	H	0.966893	0.403656	0.508850
H55	H	0.516492	-0.035434	0.000116
N56	N	1.220057	-0.499505	0.000102
H57	H	1.272824	-0.447972	0.000108
H58	H	1.222529	-0.554156	0.058793
N59	N	0.777827	0.414946	0.000067
H60	H	0.816093	0.421039	-0.058627
H61	H	0.727747	0.485724	0.000107
H62	H	0.311034	0.372540	0.000109
N63	N	1.183018	-0.003728	0.550202
H64	H	1.246588	0.010791	0.567531
H65	H	1.172104	-0.092278	0.567573
H66	H	0.598843	0.380122	0.000084
H67	H	1.167057	0.018646	0.256018
N68	N	1.183049	-0.003730	0.757344
H69	H	1.173905	0.009121	0.828037
H70	H	1.172182	-0.092280	0.739933
N71	N	0.968754	-0.374753	0.000098
H72	H	0.966198	-0.320080	-0.058588
H73	H	0.916033	-0.426365	0.000130
N74	N	0.490027	0.407363	0.000072
H75	H	0.440000	0.478218	0.000071
H76	H	0.528315	0.413337	0.058757
H77	H	1.203586	-0.228968	0.000117
N78	N	0.625305	-0.062665	0.000120
H79	H	0.587032	-0.068753	-0.058567
H80	H	0.675382	-0.133447	0.000160
N81	N	0.932315	0.348412	0.449988
H82	H	0.943153	0.436999	0.432631
H83	H	0.868773	0.333784	0.432640
H84	H	0.948228	0.326013	0.256016
