data_functionalizedCrystal
_audit_creation_method	'MofGen! by Chris Wilmer'
_symmetry_space_group_name_H-M	'P1'
_symmetry_Int_Tables_number	1
_symmetry_cell_setting	triclinic
loop_
_symmetry_equiv_pos_as_xyz
  x,y,z
_cell_length_a	13.032831
_cell_length_b	16.959454
_cell_length_c	13.033109
_cell_angle_alpha	97.156051
_cell_angle_beta	76.665514
_cell_angle_gamma	82.825094
loop_
_atom_site_label
_atom_site_type_symbol
_atom_site_fract_x
_atom_site_fract_y
_atom_site_fract_z
Zn1	Zn	1.700086	-0.555675	-0.806431
Zn2	Zn	2.200086	-0.055675	-0.306431
Zn3	Zn	1.677413	-0.668626	-0.628819
Zn4	Zn	2.177413	-0.168626	-0.128819
Zn5	Zn	1.499912	-0.517229	-0.606323
Zn6	Zn	1.999912	-0.017229	-0.106323
Zn7	Zn	1.522428	-0.668557	-0.783863
Zn8	Zn	2.022428	-0.168557	-0.283863
O9	O	1.599960	-0.602522	-0.706359
O10	O	2.099960	-0.102522	-0.206359
O11	O	1.845714	-0.586777	-0.801730
O12	O	2.345714	-0.086777	-0.301730
O13	O	1.634955	-0.632483	-0.477202
O14	O	2.134955	-0.132483	0.022798
O15	O	1.526532	-0.411728	-0.632898
O16	O	2.026532	0.088272	-0.132898
O17	O	1.829056	-0.669762	-0.671239
O18	O	2.329056	-0.169762	-0.171239
O19	O	1.673599	-0.439973	-0.779917
O20	O	2.173599	0.060027	-0.279917
O21	O	1.504547	-0.521252	-0.460675
O22	O	2.004547	-0.021252	0.039325
O23	O	1.354264	-0.521184	-0.611014
O24	O	1.854264	-0.021184	-0.111014
O25	O	1.564906	-0.669643	-0.935489
O26	O	2.064906	-0.169643	-0.435489
O27	O	1.370806	-0.632364	-0.741452
O28	O	1.870806	-0.132364	-0.241452
O29	O	1.695431	-0.586710	-0.952070
O30	O	2.195431	-0.086710	-0.452070
O31	O	1.656787	-0.779219	-0.649356
O32	O	2.156787	-0.279219	-0.149356
O33	O	1.542920	-0.779168	-0.763266
O34	O	2.042920	-0.279168	-0.263266
C35	C	1.323995	-0.572595	-0.671344
C36	C	1.823995	-0.072595	-0.171344
C37	C	1.205940	-0.559814	-0.656389
C38	C	1.705940	-0.059814	-0.156389
C39	C	1.161507	-0.609192	-0.714164
C40	C	1.661507	-0.109192	-0.214164
C41	C	1.039490	-0.595984	-0.698709
C42	C	1.539490	-0.095984	-0.198709
C43	C	1.599869	-0.807877	-0.706330
C44	C	2.099869	-0.307877	-0.206330
C45	C	1.599931	-0.895742	-0.706365
C46	C	2.099931	-0.395742	-0.206365
C47	C	1.540767	-1.267233	-0.765677
C48	C	2.040767	-0.767233	-0.265677
C49	C	1.659462	-1.267251	-0.647186
C50	C	2.159462	-0.767251	-0.147186
C51	C	1.659424	-1.184700	-0.647172
C52	C	2.159424	-0.684700	-0.147172
C53	C	1.600055	-1.143412	-0.706410
C54	C	2.100055	-0.643412	-0.206410
C55	C	1.540724	-1.184674	-0.765662
C56	C	2.040724	-0.684674	-0.265662
C57	C	1.718745	-1.143429	-0.587912
C58	C	2.218745	-0.643429	-0.087912
C59	C	1.718708	-1.060873	-0.587894
C60	C	2.218708	-0.560873	-0.087894
C61	C	1.659344	-1.019585	-0.647139
C62	C	2.159344	-0.519585	-0.147139
C63	C	1.600012	-1.060853	-0.706395
C64	C	2.100012	-0.560853	-0.206395
C65	C	1.540643	-1.019564	-0.765632
C66	C	2.040643	-0.519564	-0.265632
C67	C	1.481316	-1.060832	-0.824895
C68	C	1.981316	-0.560832	-0.324895
C69	C	1.481361	-1.143386	-0.824907
C70	C	1.981361	-0.643386	-0.324907
C71	C	1.659300	-0.937031	-0.647127
C72	C	2.159300	-0.437031	-0.147127
C73	C	1.540600	-0.937005	-0.765617
C74	C	2.040600	-0.437005	-0.265617
C75	C	1.877002	-0.632566	-0.741511
C76	C	2.377002	-0.132566	-0.241511
C77	C	1.995061	-0.645369	-0.756491
C78	C	2.495061	-0.145369	-0.256491
C79	C	1.635209	-0.632457	-0.983396
C80	C	2.135209	-0.132457	-0.483396
C81	C	1.650231	-0.645214	-1.101452
C82	C	2.150231	-0.145214	-0.601452
C83	C	1.600083	-0.396371	-0.706415
C84	C	2.100083	0.103629	-0.206415
C85	C	1.600136	-0.308522	-0.706439
C86	C	2.100136	0.191478	-0.206439
C87	C	1.592404	-0.595866	-1.145908
C88	C	2.092404	-0.095866	-0.645908
C89	C	1.607928	-0.609050	-1.267926
C90	C	2.107928	-0.109050	-0.767926
C91	C	1.564908	-0.572652	-0.430408
C92	C	2.064908	-0.072652	0.069592
C93	C	1.550093	-0.559696	-0.312378
C94	C	2.050093	-0.059696	0.187622
H95	H	1.492259	-0.903394	-0.813861
H96	H	1.992259	-0.403394	-0.313861
H97	H	1.432972	-1.027205	-0.873121
H98	H	1.932972	-0.527205	-0.373121
F99	F	1.063401	-0.713403	-0.836118
F100	F	1.563401	-0.213403	-0.336118
F101	F	1.722424	-0.893112	-0.584049
F102	F	2.222424	-0.393112	-0.084049
F103	F	1.418225	-1.187311	-0.887971
F104	F	1.918225	-0.687311	-0.387971
F105	F	1.687661	-0.677037	-1.336241
F106	F	2.187661	-0.177037	-0.836241
H107	H	1.711230	-0.697223	-1.153725
H108	H	2.211230	-0.197223	-0.653725
H109	H	1.213799	-0.661243	-0.775072
H110	H	1.713799	-0.161243	-0.275072
H111	H	1.492468	-1.300838	-0.813931
H112	H	1.992468	-0.800838	-0.313931
H113	H	1.707791	-1.300871	-0.598951
H114	H	2.207791	-0.800871	-0.098951
H115	H	1.153649	-0.507759	-0.595490
H116	H	1.653649	-0.007759	-0.095490
H117	H	1.767016	-1.027278	-0.539641
H118	H	2.267016	-0.527278	-0.039641
F119	F	1.781929	-1.187376	-0.524876
F120	F	2.281929	-0.687376	-0.024876
F121	F	1.470333	-0.491725	-1.244061
F122	F	1.970333	0.008275	-0.744061
H123	H	0.987203	-0.543925	-0.637805
H124	H	1.487203	-0.043925	-0.137805
H125	H	1.531399	-0.543861	-1.093635
H126	H	2.031399	-0.043861	-0.593635
