data_functionalizedCrystal
_audit_creation_method	'MofGen! by Chris Wilmer'
_symmetry_space_group_name_H-M	'P1'
_symmetry_Int_Tables_number	1
_symmetry_cell_setting	triclinic
loop_
_symmetry_equiv_pos_as_xyz
  x,y,z
_cell_length_a	19.188905
_cell_length_b	19.188930
_cell_length_c	12.503572
_cell_angle_alpha	93.506241
_cell_angle_beta	86.486933
_cell_angle_gamma	83.139668
loop_
_atom_site_label
_atom_site_type_symbol
_atom_site_fract_x
_atom_site_fract_y
_atom_site_fract_z
O1	O	0.930203	0.083024	-0.089510
O2	O	1.263536	0.416357	0.243824
O3	O	1.596870	0.749691	0.577157
O4	O	0.726888	0.094778	-0.089475
O5	O	1.060221	0.428111	0.243859
O6	O	1.393554	0.761445	0.577192
O7	O	0.834412	-0.012754	-0.089472
O8	O	1.167745	0.320579	0.243861
O9	O	1.501078	0.653912	0.577194
O10	O	0.822679	0.190556	-0.089512
O11	O	1.156012	0.523890	0.243821
O12	O	1.489346	0.857223	0.577154
O13	O	0.826325	-0.004654	0.089169
O14	O	1.159659	0.328680	0.422503
O15	O	1.492992	0.662013	0.755836
O16	O	0.718801	0.102878	0.089167
O17	O	1.052135	0.436212	0.422500
O18	O	1.385468	0.769545	0.755834
O19	O	0.922117	0.091124	0.089132
O20	O	1.255450	0.424458	0.422465
O21	O	1.588783	0.757791	0.755799
Cu22	Cu	0.819721	0.097741	0.105461
Cu23	Cu	1.153054	0.431074	0.438794
Cu24	Cu	1.486387	0.764408	0.772128
Cu25	Cu	0.829284	0.088161	-0.105804
Cu26	Cu	1.162617	0.421495	0.227530
Cu27	Cu	1.495950	0.754828	0.560863
O28	O	0.814593	0.198657	0.089130
O29	O	1.147926	0.531990	0.422463
O30	O	1.481259	0.865323	0.755796
C31	C	0.696833	0.098451	-0.000149
C32	C	1.030166	0.431784	0.333184
C33	C	1.363500	0.765118	0.666518
C34	C	0.619327	0.097318	-0.000135
C35	C	0.952660	0.430651	0.333199
C36	C	1.285994	0.763984	0.666532
C37	C	0.587343	0.092358	-0.097515
C38	C	0.920677	0.425691	0.235818
C39	C	1.254010	0.759024	0.569152
C40	C	0.514520	0.091284	-0.097528
C41	C	0.847853	0.424617	0.235805
C42	C	1.181187	0.757951	0.569138
C43	C	0.473685	0.095157	-0.000155
C44	C	0.807019	0.428490	0.333178
C45	C	1.140352	0.761823	0.666511
C46	C	0.505677	0.100122	0.097238
C47	C	0.839010	0.433455	0.430571
C48	C	1.172343	0.766788	0.763904
C49	C	0.578497	0.101202	0.097248
C50	C	0.911831	0.434535	0.430581
C51	C	1.245164	0.767869	0.763915
N52	N	0.361384	0.057014	0.072318
N53	N	0.694718	0.390348	0.405651
N54	N	1.028051	0.723681	0.738984
N55	N	0.292208	0.055986	0.072301
N56	N	0.625541	0.389319	0.405635
N57	N	0.958875	0.722653	0.738968
C58	C	0.254280	0.091903	-0.000181
C59	C	0.587613	0.425236	0.333153
C60	C	0.920946	0.758570	0.666486
N61	N	0.288143	0.128877	-0.072662
N62	N	0.621476	0.462211	0.260671
N63	N	0.954809	0.795544	0.594005
N64	N	0.357326	0.129902	-0.072649
N65	N	0.690659	0.463236	0.260685
N66	N	1.023993	0.796569	0.594018
C67	C	0.394723	0.093986	-0.000156
C68	C	0.728056	0.427319	0.333178
C69	C	1.061389	0.760653	0.666511
C70	C	0.143333	0.085779	-0.097582
C71	C	0.476666	0.419113	0.235751
C72	C	0.810000	0.752446	0.569085
C73	C	0.070508	0.084710	-0.097591
C74	C	0.403841	0.418044	0.235742
C75	C	0.737175	0.751377	0.569076
C76	C	0.061667	0.093541	0.097178
C77	C	0.395000	0.426874	0.430511
C78	C	0.728333	0.760208	0.763844
C79	C	0.134490	0.094617	0.097184
C80	C	0.467823	0.427950	0.430517
C81	C	0.801156	0.761284	0.763851
C82	C	0.175319	0.090733	-0.000199
C83	C	0.508652	0.424066	0.333134
C84	C	0.841986	0.757399	0.666468
C85	C	0.829988	-0.034715	-0.000148
C86	C	1.163322	0.298618	0.333185
C87	C	1.496655	0.631952	0.666518
C88	C	0.828847	-0.112219	-0.000139
C89	C	1.162181	0.221114	0.333195
C90	C	1.495514	0.554448	0.666528
C91	C	0.891939	-0.157149	-0.000145
C92	C	1.225272	0.176185	0.333189
C93	C	1.558606	0.509518	0.666522
C94	C	0.890868	-0.229973	-0.000162
C95	C	1.224201	0.103360	0.333172
C96	C	1.557535	0.436693	0.666505
C97	C	0.826701	-0.257864	-0.000151
C98	C	1.160034	0.075470	0.333182
C99	C	1.493367	0.408803	0.666515
C100	C	0.763601	-0.212924	-0.000152
C101	C	1.096934	0.120409	0.333182
C102	C	1.430268	0.453743	0.666515
C103	C	0.764674	-0.140102	-0.000145
C104	C	1.098007	0.193232	0.333188
C105	C	1.431341	0.526565	0.666521
N106	N	0.774901	-0.363107	0.060652
N107	N	1.108234	-0.029774	0.393986
N108	N	1.441567	0.303560	0.727319
N109	N	0.773885	-0.432286	0.060649
N110	N	1.107219	-0.098952	0.393982
N111	N	1.440552	0.234381	0.727315
C112	C	0.823464	-0.477273	-0.000172
C113	C	1.156797	-0.143940	0.333161
C114	C	1.490130	0.189394	0.666494
N115	N	0.874106	-0.450469	-0.060976
N116	N	1.207439	-0.117135	0.272357
N117	N	1.540772	0.216198	0.605690
N118	N	0.875123	-0.381284	-0.060968
N119	N	1.208456	-0.047950	0.272365
N120	N	1.541789	0.285383	0.605699
C121	C	0.825530	-0.336826	-0.000159
C122	C	1.158863	-0.003493	0.333175
C123	C	1.492197	0.329840	0.666508
C124	C	0.885399	-0.601168	-0.000198
C125	C	1.218732	-0.267835	0.333135
C126	C	1.552065	0.065499	0.666468
C127	C	0.884325	-0.673994	-0.000222
C128	C	1.217659	-0.340660	0.333112
C129	C	1.550992	-0.007327	0.666445
C130	C	0.757056	-0.656943	-0.000201
C131	C	1.090389	-0.323609	0.333132
C132	C	1.423723	0.009724	0.666466
C133	C	0.758131	-0.584119	-0.000188
C134	C	1.091465	-0.250786	0.333145
C135	C	1.424798	0.082548	0.666478
C136	C	0.822305	-0.556236	-0.000182
C137	C	1.155638	-0.222903	0.333152
C138	C	1.488971	0.110431	0.666485
C139	C	0.952171	0.087452	-0.000196
C140	C	1.285505	0.420785	0.333137
C141	C	1.618838	0.754118	0.666471
C142	C	1.029678	0.088584	-0.000217
C143	C	1.363011	0.421918	0.333116
C144	C	1.696345	0.755251	0.666449
C145	C	0.819016	0.220617	-0.000197
C146	C	1.152349	0.553951	0.333136
C147	C	1.485683	0.887284	0.666470
C148	C	0.820158	0.298121	-0.000213
C149	C	1.153491	0.631454	0.333120
C150	C	1.486824	0.964788	0.666453
N151	N	0.812999	0.104478	0.254053
N152	N	1.146333	0.437812	0.587386
N153	N	1.479666	0.771145	0.920720
N154	N	0.836011	0.081418	-0.254396
N155	N	1.169344	0.414752	0.078938
N156	N	1.502677	0.748085	0.412271
C157	C	0.803112	0.114395	0.473168
C158	C	1.136446	0.447729	0.806501
C159	C	1.469779	0.781062	1.139835
C160	C	0.845895	0.071504	0.526496
C161	C	1.179229	0.404837	0.859829
C162	C	1.512562	0.738171	1.193163
C163	C	0.840394	0.077022	0.648419
C164	C	1.173727	0.410355	0.981753
C165	C	1.507061	0.743688	1.315086
C166	C	0.808613	0.108878	0.351234
C167	C	1.141946	0.442212	0.684567
C168	C	1.475279	0.775545	1.017901
H169	H	0.620582	0.089195	-0.176812
H170	H	0.953916	0.422528	0.156521
H171	H	1.287249	0.755861	0.489855
Br172	Br	0.969959	-0.734973	-0.000241
Br173	Br	1.303292	-0.401640	0.333092
Br174	Br	1.636625	-0.068307	0.666426
Br175	Br	0.676516	-0.250774	-0.000151
Br176	Br	1.009850	0.082560	0.333182
Br177	Br	1.343183	0.415893	0.666515
Br178	Br	0.471103	0.084553	-0.229697
Br179	Br	0.804436	0.417887	0.103637
Br180	Br	1.137769	0.751220	0.436970
H181	H	0.886655	0.030640	0.480584
H182	H	1.219988	0.363973	0.813918
H183	H	1.553322	0.697307	1.147251
Br184	Br	0.177900	0.101347	0.229351
Br185	Br	0.511233	0.434681	0.562684
Br186	Br	0.844566	0.768014	0.896017
Br187	Br	0.450259	0.105385	0.229388
Br188	Br	0.783592	0.438719	0.562721
Br189	Br	1.116926	0.772052	0.896054
Br190	Br	0.976499	-0.290962	-0.000174
Br191	Br	1.309832	0.042372	0.333159
Br192	Br	1.643166	0.375705	0.666493
H193	H	0.604537	0.105242	0.176549
H194	H	0.937871	0.438575	0.509883
H195	H	1.271204	0.771909	0.843216
Br196	Br	0.198748	0.080513	-0.229741
Br197	Br	0.532081	0.413846	0.103593
Br198	Br	0.865415	0.747179	0.436926
H199	H	0.762356	0.155258	0.519075
H200	H	1.095689	0.488591	0.852408
H201	H	1.429023	0.821924	1.185741
Br202	Br	0.679043	-0.079121	-0.000141
Br203	Br	1.012376	0.254212	0.333193
Br204	Br	1.345709	0.587546	0.666526
H205	H	0.044468	0.080675	-0.176893
H206	H	0.377802	0.414008	0.156440
H207	H	0.711135	0.747342	0.489773
Br208	Br	0.972488	-0.563322	-0.000178
Br209	Br	1.305821	-0.229988	0.333155
Br210	Br	1.639154	0.103345	0.666488
H211	H	0.944194	-0.134452	-0.000143
H212	H	1.277527	0.198882	0.333190
H213	H	1.610861	0.532215	0.666524
H214	H	0.704810	-0.679650	-0.000198
H215	H	1.038143	-0.346317	0.333135
H216	H	1.371477	-0.012984	0.666469
Br217	Br	0.672502	-0.523138	-0.000179
Br218	Br	1.005835	-0.189805	0.333154
Br219	Br	1.339168	0.143528	0.666487
H220	H	0.028419	0.096699	0.176460
H221	H	0.361752	0.430032	0.509794
H222	H	0.695086	0.763365	0.843127
