data_functionalizedCrystal
_audit_creation_method	'MofGen! by Chris Wilmer'
_symmetry_space_group_name_H-M	'P1'
_symmetry_Int_Tables_number	1
_symmetry_cell_setting	triclinic
loop_
_symmetry_equiv_pos_as_xyz
  x,y,z
_cell_length_a	8.597340
_cell_length_b	27.732048
_cell_length_c	7.088928
_cell_angle_alpha	83.863916
_cell_angle_beta	88.687738
_cell_angle_gamma	83.998371
loop_
_atom_site_label
_atom_site_type_symbol
_atom_site_fract_x
_atom_site_fract_y
_atom_site_fract_z
O1	O	2.062170	0.077679	-0.180686
O2	O	1.612684	0.080941	-0.106637
O3	O	1.851384	0.009085	-0.145997
O4	O	1.823471	0.149536	-0.141326
O5	O	1.819381	0.018677	-0.458695
O6	O	1.580681	0.090533	-0.419335
O7	O	2.030167	0.087271	-0.493384
Cu8	Cu	1.802502	0.089778	-0.484911
Cu9	Cu	1.840349	0.078434	-0.115110
O10	O	1.791468	0.159127	-0.454024
C11	C	1.539195	0.084853	-0.253516
C12	C	1.367901	0.082210	-0.225299
C13	C	1.834796	-0.004133	-0.302255
C14	C	1.833029	-0.057809	-0.301979
C15	C	1.962987	-0.395042	-0.323290
C16	C	1.956442	-0.596782	-0.322186
O17	O	2.075278	-0.626591	-0.341679
N18	N	1.814900	-0.617632	-0.298870
C19	C	1.674987	-0.588045	-0.275816
O20	O	1.554449	-0.610409	-0.255940
C21	C	1.681535	-0.386306	-0.276908
C22	C	1.823083	-0.365458	-0.300244
C23	C	2.104524	-0.374193	-0.346623
C24	C	2.106158	-0.323761	-0.346909
C25	C	1.966254	-0.294177	-0.323863
C26	C	1.824717	-0.315025	-0.300531
C27	C	1.541624	-0.356719	-0.253842
C28	C	1.543274	-0.306282	-0.254112
C29	C	1.684823	-0.285434	-0.277448
C30	C	1.686447	-0.235009	-0.277771
N31	N	1.827989	-0.214159	-0.301087
C32	C	1.967892	-0.243743	-0.324133
C33	C	1.671558	-0.693961	-0.275249
C34	C	1.669920	-0.744395	-0.274979
C35	C	1.951377	-0.753129	-0.321345
C36	C	1.953011	-0.702693	-0.321628
C37	C	1.813100	-0.673110	-0.298564
C38	C	1.971312	-0.137831	-0.324734
C39	C	1.972933	-0.087393	-0.325025
C40	C	1.691479	-0.078664	-0.278650
C41	C	1.689856	-0.129096	-0.278368
C42	C	1.829786	-0.158679	-0.301405
O43	O	1.567677	-0.205172	-0.258267
O44	O	2.088416	-0.221371	-0.343964
C45	C	1.961353	-0.445474	-0.323004
C46	C	1.819816	-0.466323	-0.299672
C47	C	1.679912	-0.436739	-0.276626
C48	C	1.818178	-0.516757	-0.299402
C49	C	1.958082	-0.546341	-0.322448
C50	C	2.099623	-0.525491	-0.345764
C51	C	2.101257	-0.475058	-0.346050
C52	C	1.538371	-0.457589	-0.253310
C53	C	1.536749	-0.508022	-0.253028
C54	C	1.676652	-0.537606	-0.276074
C55	C	2.103657	0.083360	-0.346500
C56	C	2.274953	0.086002	-0.374705
C57	C	1.808056	0.172345	-0.297762
C58	C	1.809824	0.226021	-0.298025
N59	N	1.866970	0.070453	0.144989
N60	N	1.775894	0.097756	-0.745012
H61	H	1.326422	0.091266	-0.524213
H62	H	1.316426	0.076942	-0.075782
H63	H	2.088203	-0.070421	-0.344034
H64	H	1.424442	-0.433506	-0.234539
H65	H	1.421473	-0.524990	-0.234040
C66	C	2.249683	-0.141383	-0.370619
C67	C	2.125123	-0.170342	-0.350073
H68	H	2.344633	-0.161455	-0.386283
H69	H	2.255624	-0.124872	-0.260724
H70	H	2.233275	-0.118188	-0.478810
H71	H	2.141525	-0.193535	-0.241874
H72	H	2.119183	-0.186862	-0.459980
H73	H	2.221422	-0.306792	-0.365904
H74	H	2.218458	-0.398276	-0.365384
H75	H	1.681512	0.126053	0.188905
C76	C	2.231048	-0.716404	-0.367417
C77	C	2.108607	-0.679781	-0.347250
H78	H	2.327110	-0.702261	-0.383218
H79	H	2.213394	-0.732549	-0.475392
H80	H	2.235691	-0.739238	-0.257297
H81	H	2.103957	-0.656949	-0.457376
H82	H	2.126265	-0.663628	-0.239264
C83	C	2.141096	0.043019	0.161998
C84	C	1.994328	0.032242	0.234297
H85	H	2.219698	0.019426	0.217158
H86	H	2.160160	0.074469	0.191595
H87	H	2.142970	0.042462	0.028208
H88	H	1.992450	0.032802	0.368086
H89	H	1.975258	0.000784	0.204714
C90	C	2.073819	-0.834324	-0.341471
C91	C	2.105165	-0.785655	-0.346650
H92	H	2.168760	-0.854406	-0.357068
H93	H	2.004596	-0.837451	-0.440956
H94	H	2.026863	-0.844125	-0.222857
H95	H	2.152111	-0.775854	-0.465270
H96	H	2.174414	-0.782527	-0.247158
H97	H	1.557618	-0.669878	-0.256467
C98	C	1.445978	-0.757395	-0.074620
C99	C	1.514326	-0.767308	-0.249343
H100	H	1.349923	-0.771543	-0.058784
H101	H	1.426945	-0.723128	-0.071503
H102	H	1.514707	-0.770801	0.024924
H103	H	1.445601	-0.753899	-0.348889
H104	H	1.533353	-0.801582	-0.252477
H105	H	1.426361	-0.373685	-0.234827
C106	C	1.320329	-0.288237	-0.053910
C107	C	1.389473	-0.273765	-0.228764
H108	H	1.225375	-0.268165	-0.038274
H109	H	1.389578	-0.285101	0.045537
H110	H	1.299117	-0.321259	-0.050427
H111	H	1.410695	-0.240744	-0.232242
H112	H	1.320208	-0.276897	-0.328237
C113	C	2.249963	-0.418493	-0.534013
C114	C	2.256855	-0.452147	-0.371688
H115	H	2.346033	-0.404355	-0.549841
H116	H	2.166901	-0.393654	-0.520320
H117	H	2.232306	-0.434651	-0.641973
H118	H	2.274500	-0.435989	-0.263726
H119	H	2.339942	-0.476991	-0.385368
C120	C	1.541196	-0.185671	-0.090404
C121	C	1.534271	-0.152018	-0.252735
H122	H	1.445147	-0.199822	-0.074577
H123	H	1.558832	-0.169512	0.017540
H124	H	1.624293	-0.210506	-0.104102
H125	H	1.451180	-0.127181	-0.239031
H126	H	1.516616	-0.168177	-0.360704
H127	H	1.577572	-0.054567	-0.259893
C128	C	2.222062	-0.606686	-0.365895
C129	C	2.253410	-0.558017	-0.371083
H130	H	2.317001	-0.626767	-0.381505
H131	H	2.152828	-0.609813	-0.465369
H132	H	2.175118	-0.616486	-0.247273
H133	H	2.300343	-0.548215	-0.489711
H134	H	2.322669	-0.554888	-0.271602
