data_functionalizedCrystal
_audit_creation_method	'MofGen! by Chris Wilmer'
_symmetry_space_group_name_H-M	'P1'
_symmetry_Int_Tables_number	1
_symmetry_cell_setting	triclinic
loop_
_symmetry_equiv_pos_as_xyz
  x,y,z
_cell_length_a	16.974800
_cell_length_b	10.489716
_cell_length_c	15.455313
_cell_angle_alpha	92.696181
_cell_angle_beta	90.973911
_cell_angle_gamma	83.958131
loop_
_atom_site_label
_atom_site_type_symbol
_atom_site_fract_x
_atom_site_fract_y
_atom_site_fract_z
O1	O	1.049988	0.162600	0.001611
O2	O	0.820665	0.182079	-0.014494
O3	O	0.940555	-0.013319	-0.006078
O4	O	0.930098	0.357999	-0.006806
O5	O	0.933699	-0.002192	0.137703
O6	O	0.813809	0.193207	0.129287
O7	O	1.043132	0.173728	0.145391
Cu8	Cu	0.927844	0.184483	0.150467
Cu9	Cu	0.935952	0.171324	-0.019570
O10	O	0.923242	0.369126	0.136975
C11	C	0.787872	0.186698	0.055334
C12	C	0.700375	0.183868	0.049189
C13	C	0.655536	0.188601	0.124679
C14	C	0.573324	0.185921	0.118908
C15	C	0.535952	0.178518	0.037645
C16	C	0.580797	0.173781	-0.037850
C17	C	0.663008	0.176451	-0.032078
C18	C	0.290479	0.169872	0.011977
C19	C	0.208262	0.167205	0.006211
C20	C	0.200794	0.179344	0.162969
C21	C	0.283006	0.182022	0.168734
C22	C	0.327845	0.177277	0.093239
N23	N	0.451918	0.175783	0.031744
N24	N	0.411878	0.180004	0.099141
C25	C	0.936341	-0.055279	0.065755
C26	C	0.933991	-0.196884	0.065582
C27	C	1.007511	-0.295387	0.070753
C28	C	0.972041	-0.377795	-0.002865
C29	C	0.965265	-0.366788	0.138891
C30	C	0.898555	-0.277432	-0.008092
C31	C	0.891786	-0.266415	0.133728
C32	C	0.856264	-0.348776	0.060089
C33	C	1.075925	0.169108	0.075561
C34	C	1.163423	0.171938	0.081701
C35	C	0.927456	0.411086	0.065141
C36	C	0.929806	0.552691	0.065308
N37	N	0.922147	0.193738	0.270063
N38	N	0.941656	0.162058	-0.139165
C39	C	0.973099	0.110757	0.319034
C40	C	0.968798	0.117768	0.409540
C41	C	0.913548	0.207768	0.451073
C42	C	0.862591	0.290753	0.402096
C43	C	0.866889	0.283735	0.311591
C44	C	0.894997	0.238026	0.721353
C45	C	0.890704	0.245040	0.811864
C46	C	0.996910	0.072053	0.819302
C47	C	1.001206	0.065048	0.728795
C48	C	0.950247	0.148028	0.679825
N49	N	0.909152	0.214939	0.543585
N50	N	0.954639	0.140850	0.587315
H51	H	0.326977	0.166005	-0.049496
H52	H	1.018092	0.037475	0.285224
O53	O	0.851385	-0.208747	0.202696
C54	C	0.821368	-0.302815	0.251370
H55	H	0.857991	-0.399096	0.238426
H56	H	0.824818	-0.274037	0.323277
H57	H	0.757023	-0.311378	0.231767
H58	H	0.550363	0.167744	-0.104016
H59	H	0.685957	0.194640	0.190851
O60	O	0.998775	-0.413432	0.213075
C61	C	0.957169	-0.354486	0.285030
H62	H	0.894585	-0.317370	0.263936
H63	H	0.954113	-0.427483	0.336915
H64	H	0.989165	-0.270942	0.312423
H65	H	1.046195	-0.008237	0.694981
O66	O	0.157335	0.183775	0.236363
C67	C	0.183451	0.077730	0.286022
H68	H	0.246974	0.041151	0.268118
H69	H	0.180979	0.108189	0.357791
H70	H	0.143518	-0.001898	0.272315
H71	H	1.071464	-0.271437	0.075172
H72	H	1.010286	0.050197	0.449412
O73	O	1.046371	-0.008743	0.866776
C74	C	1.033883	-0.136778	0.843734
H75	H	1.006632	-0.141845	0.775895
H76	H	1.092909	-0.199578	0.844765
H77	H	0.992012	-0.172445	0.891910
O78	O	0.808956	0.378343	0.442343
C79	C	0.823530	0.502958	0.421180
H80	H	0.857027	0.497842	0.357595
H81	H	0.764792	0.565260	0.413955
H82	H	0.860553	0.546537	0.474875
H83	H	0.177836	0.161180	-0.059966
O84	O	0.706445	0.171910	-0.105495
C85	C	0.655835	0.164775	-0.178458
H86	H	0.593099	0.204993	-0.159808
H87	H	0.677543	0.223175	-0.231932
H88	H	0.655938	0.060390	-0.202634
H89	H	0.825398	0.351306	0.271719
O90	O	0.836954	0.332495	0.852071
C91	C	0.792906	0.404248	0.789443
H92	H	0.794792	0.346951	0.724847
H93	H	0.728840	0.425425	0.811199
H94	H	0.819466	0.498386	0.781642
H95	H	0.853505	0.305594	0.681488
H96	H	0.536821	0.189754	0.180380
O97	O	0.865047	-0.231088	-0.082361
C98	C	0.907193	-0.289289	-0.154181
H99	H	0.939809	-0.384748	-0.135310
H100	H	0.864016	-0.306676	-0.209733
H101	H	0.951832	-0.223506	-0.175575
O102	O	0.319429	0.189250	0.247604
C103	C	0.401608	0.190556	0.236511
H104	H	0.413009	0.226062	0.169730
H105	H	0.425813	0.257303	0.288438
H106	H	0.432456	0.089361	0.242394
O107	O	1.012598	-0.435609	-0.071690
C108	C	1.092252	-0.408917	-0.065859
H109	H	1.107886	-0.383653	0.004456
H110	H	1.132455	-0.496917	-0.089899
H111	H	1.100827	-0.324601	-0.107416
H112	H	0.792267	-0.372487	0.055557
