data_functionalizedCrystal
_audit_creation_method	'MofGen! by Chris Wilmer'
_symmetry_space_group_name_H-M	'P1'
_symmetry_Int_Tables_number	1
_symmetry_cell_setting	triclinic
loop_
_symmetry_equiv_pos_as_xyz
  x,y,z
_cell_length_a	13.339070
_cell_length_b	19.188930
_cell_length_c	11.804365
_cell_angle_alpha	101.784974
_cell_angle_beta	74.875130
_cell_angle_gamma	99.387037
loop_
_atom_site_label
_atom_site_type_symbol
_atom_site_fract_x
_atom_site_fract_y
_atom_site_fract_z
O1	O	1.361237	0.339586	-0.099122
O2	O	1.861237	0.839586	0.400878
O3	O	1.066910	0.293684	-0.099108
O4	O	1.566910	0.793684	0.400892
O5	O	1.222562	0.216645	-0.099092
O6	O	1.722562	0.716645	0.400908
O7	O	1.205585	0.416625	-0.099138
O8	O	1.705585	0.916625	0.400862
O9	O	1.181585	0.236898	0.098959
O10	O	1.681585	0.736898	0.598959
O11	O	1.025933	0.313937	0.098944
O12	O	1.525933	0.813937	0.598944
O13	O	1.320260	0.359839	0.098929
O14	O	1.820260	0.859839	0.598929
Cu15	Cu	1.169355	0.338737	0.117020
Cu16	Cu	1.669355	0.838737	0.617020
Cu17	Cu	1.217815	0.314786	-0.117199
Cu18	Cu	1.717815	0.814786	0.382801
O19	O	1.164608	0.436878	0.098914
O20	O	1.664608	0.936878	0.598914
C21	C	1.008766	0.296057	-0.000080
C22	C	1.508766	0.796057	0.499920
C23	C	0.896565	0.272945	-0.000074
C24	C	1.396565	0.772945	0.499926
C25	C	1.201523	0.200653	-0.000063
C26	C	1.701523	0.700653	0.499937
C27	C	1.199870	0.122826	-0.000053
C28	C	1.699870	0.622826	0.499947
C29	C	0.530990	0.452652	-0.000134
C30	C	1.030990	0.952652	0.499866
C31	C	0.636408	0.474369	-0.000143
C32	C	1.136408	0.974369	0.499857
C33	C	0.701453	0.424015	-0.000126
C34	C	1.201453	0.924015	0.499874
C35	C	0.661068	0.351940	-0.000099
C36	C	1.161068	0.851940	0.499901
C37	C	0.555641	0.330220	-0.000098
C38	C	1.055641	0.830220	0.499902
C39	C	0.726104	0.301582	-0.000090
C40	C	1.226104	0.801582	0.499910
C41	C	0.685720	0.229508	-0.000064
C42	C	1.185720	0.729508	0.499936
C43	C	0.580303	0.207791	-0.000062
C44	C	1.080303	0.707791	0.499938
C45	C	0.515258	0.258146	-0.000080
C46	C	1.015258	0.758146	0.499920
C47	C	0.831531	0.323302	-0.000091
C48	C	1.331531	0.823302	0.499909
C49	C	0.856183	0.200870	-0.000056
C50	C	1.356183	0.700870	0.499944
C51	C	0.750764	0.179154	-0.000046
C52	C	1.250764	0.679154	0.499954
C53	C	1.291203	0.095789	-0.000051
C54	C	1.791203	0.595789	0.499949
C55	C	1.289655	0.022659	-0.000070
C56	C	1.789655	0.522659	0.499930
C57	C	1.196765	-0.023428	-0.000067
C58	C	1.696765	0.476572	0.499933
C59	C	1.105421	0.003617	-0.000075
C60	C	1.605421	0.503617	0.499925
C61	C	1.106973	0.076744	-0.000068
C62	C	1.606973	0.576744	0.499932
N63	N	1.111815	-0.138445	0.067337
N64	N	1.611815	0.361555	0.567337
N65	N	1.110346	-0.207912	0.067333
N66	N	1.610346	0.292088	0.567333
C67	C	1.192082	-0.243757	-0.000091
C68	C	1.692082	0.256243	0.499909
N69	N	1.275355	-0.207508	-0.067495
N70	N	1.775355	0.292492	0.432505
N71	N	1.276826	-0.138034	-0.067486
N72	N	1.776826	0.361966	0.432514
C73	C	1.195071	-0.102723	-0.000075
C74	C	1.695071	0.397277	0.499925
C75	C	1.281744	-0.350090	-0.000112
C76	C	1.781744	0.149910	0.499888
C77	C	1.280194	-0.423222	-0.000138
C78	C	1.780194	0.076778	0.499862
C79	C	1.095954	-0.442262	-0.000131
C80	C	1.595954	0.057738	0.499869
C81	C	1.097509	-0.369132	-0.000116
C82	C	1.597509	0.130868	0.499884
C83	C	1.190405	-0.323050	-0.000101
C84	C	1.690405	0.176950	0.499899
C85	C	1.378404	0.357466	-0.000101
C86	C	1.878404	0.857466	0.499899
C87	C	1.490607	0.380578	-0.000115
C88	C	1.990607	0.880578	0.499885
C89	C	1.185648	0.452870	-0.000118
C90	C	1.685648	0.952870	0.499882
C91	C	1.187303	0.530696	-0.000136
C92	C	1.687303	1.030696	0.499864
N93	N	1.135278	0.355585	0.281757
N94	N	1.635278	0.855585	0.781757
N95	N	1.251900	0.297935	-0.281936
N96	N	1.751900	0.797935	0.218064
C97	C	1.333731	0.257465	0.655726
C98	C	1.833731	0.757465	1.155726
C99	C	1.359509	0.244717	0.531067
C100	C	1.859509	0.744717	1.031067
C101	C	1.303453	0.272433	0.468734
C102	C	1.803453	0.772433	0.968734
C103	C	1.221616	0.312899	0.531071
C104	C	1.721616	0.812899	1.031071
C105	C	1.195840	0.325653	0.655743
C106	C	1.695840	0.825653	1.155743
C107	C	1.165562	0.340620	0.468750
C108	C	1.665562	0.840620	0.968750
C109	C	1.083725	0.381087	0.531088
C110	C	1.583725	0.881087	1.031088
C111	C	1.057953	0.393838	0.655747
C112	C	1.557953	0.893838	1.155747
C113	C	1.114009	0.366123	0.718080
C114	C	1.614009	0.866123	1.218080
C115	C	1.191338	0.327866	0.344079
C116	C	1.691338	0.827866	0.844079
C117	C	1.053447	0.396054	0.344095
C118	C	1.553447	0.896054	0.844095
C119	C	1.027669	0.408802	0.468754
C120	C	1.527669	0.908802	0.968754
H121	H	0.864400	0.381986	-0.000108
H122	H	1.364400	0.881986	0.499892
Br123	Br	0.442719	0.520978	-0.000183
Br124	Br	0.942719	1.020978	0.499817
H125	H	0.429417	0.240467	-0.000072
H126	H	0.929417	0.740467	0.499928
H127	H	1.379370	0.234907	0.706486
H128	H	1.879370	0.734907	1.206486
Br129	Br	0.695944	0.081340	-0.000007
Br130	Br	1.195944	0.581340	0.499993
H131	H	1.357387	-0.312568	-0.000105
H132	H	1.857387	0.187432	0.499895
H133	H	0.961035	0.441751	0.519525
H134	H	1.461035	0.941751	1.019525
H135	H	1.426142	0.211771	0.480316
H136	H	1.926142	0.711771	0.980316
H137	H	1.354573	-0.445234	-0.000144
H138	H	1.854573	0.054766	0.499856
H139	H	1.032596	0.098756	-0.000069
H140	H	1.532596	0.598756	0.499931
H141	H	1.023134	-0.347118	-0.000110
H142	H	1.523134	0.152882	0.499890
H143	H	1.324446	0.262051	0.367230
H144	H	1.824446	0.762051	0.867230
H145	H	0.669283	0.533051	-0.000174
H146	H	1.169283	1.033051	0.499826
H147	H	0.787289	0.441701	-0.000136
H148	H	1.287289	0.941701	0.499864
Br149	Br	0.969888	-0.504802	-0.000138
Br150	Br	1.469888	-0.004802	0.499862
Br151	Br	0.946903	0.448769	0.740351
Br152	Br	1.446903	0.948769	1.240351
H153	H	0.547428	0.149102	-0.000054
H154	H	1.047428	0.649102	0.499946
Br155	Br	1.079015	0.383419	0.887268
Br156	Br	1.579015	0.883419	1.387268
H157	H	1.257970	0.294919	0.293334
H158	H	1.757970	0.794919	0.793334
H159	H	1.007803	0.418625	0.293344
H160	H	1.507803	0.918625	0.793344
H161	H	0.909143	0.159867	-0.000046
H162	H	1.409143	0.659867	0.499954
H163	H	1.364033	0.000640	-0.000074
H164	H	1.864033	0.500640	0.499926
Br165	Br	1.417283	0.158323	-0.000064
Br166	Br	1.917283	0.658323	0.499936
Br167	Br	0.979356	-0.058930	-0.000085
Br168	Br	1.479356	0.441070	0.499915
