data_functionalizedCrystal
_audit_creation_method	'MofGen! by Chris Wilmer'
_symmetry_space_group_name_H-M	'P1'
_symmetry_Int_Tables_number	1
_symmetry_cell_setting	triclinic
loop_
_symmetry_equiv_pos_as_xyz
  x,y,z
_cell_length_a	10.654550
_cell_length_b	10.654550
_cell_length_c	9.730223
_cell_angle_alpha	90.000043
_cell_angle_beta	89.995747
_cell_angle_gamma	95.515069
loop_
_atom_site_label
_atom_site_type_symbol
_atom_site_fract_x
_atom_site_fract_y
_atom_site_fract_z
O1	O	0.176399	-1.667839	-0.114187
O2	O	0.193205	-1.302361	-0.114212
O3	O	0.002062	-1.493503	-0.114190
O4	O	0.367541	-1.476697	-0.114209
O5	O	0.002057	-1.493490	0.114390
O6	O	0.193199	-1.302348	0.114368
O7	O	0.176393	-1.667827	0.114393
Zn8	Zn	0.184796	-1.485085	0.150672
Zn9	Zn	0.184802	-1.485102	-0.150492
O10	O	0.367536	-1.476684	0.114371
C11	C	0.191968	-1.255556	0.000075
C12	C	0.188276	-1.116113	0.000065
C13	C	-0.044738	-1.492263	0.000099
C14	C	-0.184181	-1.488571	0.000096
N15	N	0.184790	-1.485083	0.356209
C16	C	-0.263667	-1.601112	0.000104
C17	C	-0.394688	-1.597636	0.000087
C18	C	-0.366725	-1.369066	0.000061
C19	C	-0.235706	-1.372544	0.000068
C20	C	0.414336	-1.477925	0.000079
C21	C	0.553779	-1.481617	0.000072
C22	C	0.177630	-1.714631	0.000103
C23	C	0.181322	-1.854074	0.000104
C24	C	0.300818	-1.036628	0.000064
C25	C	0.297341	-0.905607	0.000088
C26	C	0.068772	-0.933570	0.000109
C27	C	0.072250	-1.064588	0.000095
N28	N	0.184798	-1.485114	-0.356028
C29	C	0.100188	-1.569750	0.428144
C30	C	0.100189	-1.569763	0.572027
C31	C	0.269404	-1.400438	0.572026
C32	C	0.269396	-1.400420	0.428146
H33	H	-0.221720	-1.695588	0.000124
C34	C	-0.057283	-0.877794	-0.000090
C35	C	-0.125394	-0.918119	-0.117671
C36	C	-0.241530	-0.866780	-0.117898
H37	H	-0.043415	-0.788383	-0.000158
H38	H	-0.103741	-0.905050	0.079580
H39	H	-0.078947	-0.890856	-0.197321
H40	H	-0.139296	-1.007523	-0.117628
H41	H	-0.287988	-0.894035	-0.038228
H42	H	-0.227650	-0.777371	-0.117962
H43	H	-0.287762	-0.894142	-0.197668
H44	H	-0.019401	-1.129309	0.000100
H45	H	0.031295	-1.638687	0.369576
H46	H	0.338290	-1.331508	0.630612
C47	C	0.361397	-1.308436	0.350282
C48	C	0.435523	-1.234325	0.444073
C49	C	0.520290	-1.149589	0.372395
H50	H	0.315869	-1.255646	0.294165
H51	H	0.414164	-1.354027	0.294167
H52	H	0.382763	-1.188737	0.500165
H53	H	0.481078	-1.287081	0.500193
H54	H	0.573057	-1.195180	0.316280
H55	H	0.474752	-1.096807	0.316281
H56	H	0.570602	-1.099302	0.436021
H57	H	-0.170985	-1.280893	0.000058
H58	H	-0.408693	-1.274601	0.000041
C59	C	-0.480777	-1.719963	0.000169
C60	C	-0.407604	-1.822311	0.000229
C61	C	-0.486865	-1.935024	0.000321
H62	H	-0.532484	-1.723548	-0.079524
H63	H	-0.532460	-1.723418	0.079908
H64	H	-0.355943	-1.818858	-0.079501
H65	H	-0.355899	-1.818768	0.079917
H66	H	-0.538549	-1.938479	0.080060
H67	H	-0.538569	-1.938595	-0.079373
H68	H	-0.437230	-2.004480	0.000375
C69	C	0.008282	-1.661832	0.649880
C70	C	-0.065788	-1.735987	0.556079
C71	C	-0.150459	-1.820828	0.627746
H72	H	-0.044541	-1.616359	0.706025
H73	H	0.053921	-1.714573	0.705966
H74	H	-0.111424	-1.683253	0.500017
H75	H	-0.012999	-1.781487	0.499931
H76	H	-0.104820	-1.873569	0.683832
H77	H	-0.203274	-1.775344	0.683888
H78	H	-0.200718	-1.871160	0.564113
H79	H	0.395294	-1.078574	0.000049
H80	H	0.388984	-0.840894	0.000089
