data_functionalizedCrystal
_audit_creation_method	'MofGen! by Chris Wilmer'
_symmetry_space_group_name_H-M	'P1'
_symmetry_Int_Tables_number	1
_symmetry_cell_setting	triclinic
loop_
_symmetry_equiv_pos_as_xyz
  x,y,z
_cell_length_a	19.377625
_cell_length_b	18.760492
_cell_length_c	19.377372
_cell_angle_alpha	48.619626
_cell_angle_beta	75.978185
_cell_angle_gamma	52.467459
loop_
_atom_site_label
_atom_site_type_symbol
_atom_site_fract_x
_atom_site_fract_y
_atom_site_fract_z
Zr1	Zr	0.629416	0.894754	-0.313464
O2	O	0.497765	1.079153	-0.411099
O3	O	0.669771	0.735108	-0.283536
O4	O	0.638343	0.946692	-0.455554
O5	O	0.553988	0.817968	-0.103388
O6	O	0.749237	0.959503	-0.490619
O7	O	0.529193	0.867570	-0.239081
O8	O	0.805457	0.581018	-0.182910
O9	O	0.497768	1.196453	-0.411097
O10	O	0.769745	0.801166	-0.296938
O11	O	0.705490	0.754587	-0.169504
O12	O	0.668487	1.003700	-0.372033
O13	O	0.604232	0.957122	-0.244598
Zr14	Zr	0.845824	0.836078	-0.152975
Zr15	Zr	0.806279	0.915187	-0.369389
Zr16	Zr	0.668961	0.815645	-0.097050
Zr17	Zr	0.629422	1.081833	-0.313462
Zr18	Zr	0.845819	0.648999	-0.152978
O19	O	0.805469	0.995724	-0.182904
O20	O	0.749241	1.108206	-0.490617
O21	O	0.553993	0.966671	-0.103386
O22	O	0.977476	0.651678	-0.055340
O23	O	0.921248	0.764161	-0.363053
O24	O	0.725999	0.622625	0.024178
O25	O	0.921252	0.912864	-0.363051
O26	O	0.836898	0.784140	-0.010885
O27	O	0.726004	0.771328	0.024180
O28	O	0.946047	0.863262	-0.227359
O29	O	0.638351	1.212694	-0.455550
O30	O	0.836890	0.518137	-0.010889
O31	O	0.977472	0.534379	-0.055342
O32	O	0.946039	0.597260	-0.227362
O33	O	0.529201	1.133572	-0.239077
O34	O	0.669784	1.149813	-0.283530
O35	O	0.806753	0.727131	-0.094406
O36	O	0.871008	0.773710	-0.221841
O37	O	0.769750	0.976244	-0.296936
O38	O	0.705495	0.929666	-0.169501
C39	C	0.737613	0.631408	-0.233223
C40	C	0.737611	0.551989	-0.233224
C41	C	0.704067	0.490364	-0.166704
C42	C	0.771159	0.538979	-0.299741
C43	C	0.771162	0.464357	-0.299741
C44	C	0.737618	0.402732	-0.233221
C45	C	0.704071	0.415731	-0.166701
C46	C	0.804717	0.451343	-0.366255
C47	C	0.804722	0.376715	-0.366257
C48	C	0.771172	0.315096	-0.299741
C49	C	0.737622	0.328099	-0.233218
C50	C	0.704078	0.266475	-0.166698
C51	C	0.670522	0.279483	-0.100179
C52	C	0.670520	0.354112	-0.100184
C53	C	0.771174	0.240467	-0.299735
C54	C	0.704082	0.191842	-0.166694
C55	C	0.516391	0.839857	-0.163266
C56	C	0.441308	0.831183	-0.139525
C57	C	0.126074	0.939224	-0.435157
C58	C	0.055531	0.931054	-0.412817
C59	C	0.082870	0.876406	-0.263319
C60	C	0.153413	0.884577	-0.285648
C61	C	0.175010	0.915985	-0.371568
C62	C	0.202349	0.861338	-0.222058
C63	C	0.272889	0.869502	-0.244384
C64	C	0.294493	0.900905	-0.330298
C65	C	0.245550	0.924149	-0.393893
C66	C	0.180755	0.829921	-0.136136
C67	C	0.229691	0.806682	-0.072547
C68	C	0.300228	0.814855	-0.094874
C69	C	0.321832	0.846258	-0.180789
C70	C	0.349172	0.791611	-0.031280
C71	C	0.419712	0.799775	-0.053605
C72	C	0.392373	0.854422	-0.203114
C73	C	0.958849	0.890974	-0.303173
C74	C	1.033932	0.899648	-0.326915
C75	C	0.688155	0.964369	-0.503921
C76	C	0.671367	0.997953	-0.595794
C77	C	0.737627	1.099423	-0.233216
C78	C	0.737630	1.178843	-0.233215
C79	C	0.880404	0.579811	-0.701959
C80	C	0.864612	0.611396	-0.788298
C81	C	0.758906	0.822826	-0.866681
C82	C	0.774693	0.791260	-0.780349
C83	C	0.835442	0.669750	-0.697993
C84	C	0.729731	0.881199	-0.776383
C85	C	0.745514	0.849634	-0.690057
C86	C	0.806258	0.728130	-0.607697
C87	C	0.851225	0.638185	-0.611667
C88	C	0.668978	1.002707	-0.858739
C89	C	0.624016	1.092646	-0.854772
C90	C	0.639803	1.061083	-0.768447
C91	C	0.700547	0.939579	-0.686087
C92	C	0.594836	1.151027	-0.764477
C93	C	0.610618	1.119463	-0.678151
C94	C	0.716329	0.908014	-0.599761
C95	C	0.787085	0.766462	0.037482
C96	C	0.803873	0.732879	0.129355
C97	C	0.958842	0.656967	-0.303176
C98	C	1.033923	0.586221	-0.326919
C99	C	0.787078	0.532455	0.037478
C100	C	0.803864	0.419451	0.129351
C101	C	1.008307	0.558013	-0.032475
C102	C	1.100175	0.453684	0.035656
C103	C	0.466934	1.172818	-0.433964
C104	C	0.375065	1.277148	-0.502095
C105	C	0.516398	1.073865	-0.163263
C106	C	0.441318	1.144610	-0.139520
C107	C	0.688162	1.198376	-0.503917
C108	C	0.671377	1.311380	-0.595790
C109	C	1.016321	0.567333	-0.377278
C110	C	1.086857	0.500877	-0.399605
C111	C	1.174994	0.453303	-0.371566
C112	C	1.192594	0.472197	-0.321205
C113	C	1.122058	0.538659	-0.298885
C114	C	0.864606	0.352048	0.211704
C115	C	0.880376	0.245877	0.298037
C116	C	0.835408	0.207105	0.302013
C117	C	0.774658	0.274518	0.219652
C118	C	0.758884	0.380693	0.133322
C119	C	1.176866	0.429004	0.001129
C120	C	1.263191	0.330990	0.065135
C121	C	1.272824	0.257651	0.163667
C122	C	1.196126	0.282339	0.198194
C123	C	1.109802	0.380357	0.134189
C124	C	0.298375	1.301837	-0.467568
C125	C	0.212049	1.399874	-0.531574
C126	C	0.202416	1.473216	-0.630106
C127	C	0.279115	1.448524	-0.664634
C128	C	0.365438	1.350493	-0.600628
C129	C	0.458917	1.163509	-0.089170
C130	C	0.388377	1.229995	-0.066867
C131	C	0.300239	1.277573	-0.094909
C132	C	0.282640	1.258674	-0.145266
C133	C	0.353178	1.192196	-0.167574
C134	C	0.716360	1.350117	-0.599736
C135	C	0.700605	1.456285	-0.686057
C136	C	0.639863	1.523719	-0.768429
C137	C	0.594879	1.484974	-0.764480
C138	C	0.610639	1.378803	-0.678162
H139	H	0.676761	0.141675	-0.112528
H140	H	0.143651	0.964812	-0.505126
Cl141	Cl	0.092078	0.819651	-0.108071
H142	H	1.203983	0.222613	0.278427
H143	H	0.832034	0.501512	-0.420409
Cl144	Cl	0.855250	0.073622	0.410551
H145	H	0.212100	0.781105	-0.002589
Cl146	Cl	0.171833	1.318489	-0.180507
H147	H	0.242811	1.331701	-0.076738
H148	H	0.015690	0.949979	-0.464606
H149	H	0.530679	1.124772	-0.066325
H150	H	0.929877	0.480866	-0.634900
Cl151	Cl	1.013398	0.411362	0.177611
H152	H	0.331584	0.766027	0.038681
Cl153	Cl	0.620058	1.657193	-0.876936
Cl154	Cl	0.956753	0.161146	0.401562
Cl155	Cl	1.381353	0.134429	0.244120
H156	H	0.545422	1.539894	-0.831558
H157	H	0.901227	0.538147	-0.791516
Cl158	Cl	0.410523	1.253732	-0.003557
Cl159	Cl	0.628367	0.201991	-0.016548
Cl160	Cl	0.682533	0.975574	-0.970217
Cl161	Cl	1.303403	0.412374	-0.285958
H162	H	0.798476	0.589149	-0.353895
H163	H	0.574002	1.347276	-0.674960
Cl164	Cl	0.093887	1.596451	-0.710559
H165	H	0.574002	1.192700	-0.674923
H166	H	1.232422	0.399186	-0.389746
H167	H	1.169038	0.488706	-0.079098
H168	H	0.065279	0.850829	-0.193361
Cl169	Cl	1.144203	0.562384	-0.235566
H170	H	0.737239	1.487817	-0.689254
H171	H	0.545368	1.249959	-0.831540
H172	H	0.338836	1.176811	-0.208569
H173	H	0.901229	0.383601	0.208484
Cl174	Cl	0.682522	0.465412	0.029795
Cl175	Cl	0.628347	0.370464	-0.016563
H176	H	1.072510	0.485503	-0.440610
H177	H	0.271260	1.508252	-0.744866
Cl178	Cl	0.792728	1.265362	-0.496197
H179	H	0.676743	0.500963	-0.112548
Cl180	Cl	0.718135	0.225758	0.224665
H181	H	0.832044	0.366131	-0.420421
H182	H	0.765802	0.809069	-0.532701
Cl183	Cl	0.813371	0.224096	-0.383340
H184	H	0.409950	0.880010	-0.273083
H185	H	0.351935	0.907546	-0.348471
Cl186	Cl	0.927626	0.485431	-0.508136
H187	H	1.325633	0.310903	0.037005
H188	H	0.306202	1.242125	-0.387341
Cl189	Cl	0.272693	0.963653	-0.501916
Cl190	Cl	0.115643	1.430889	-0.488148
H191	H	0.819102	0.702432	-0.537405
Cl192	Cl	0.649136	1.042388	-0.967264
Cl193	Cl	0.481236	0.770554	0.026341
H194	H	0.574552	1.191579	-0.921836
H195	H	0.944559	0.606075	-0.400127
H196	H	0.427879	1.330397	-0.628753
