data_functionalizedCrystal
_audit_creation_method	'MofGen! by Chris Wilmer'
_symmetry_space_group_name_H-M	'P1'
_symmetry_Int_Tables_number	1
_symmetry_cell_setting	triclinic
loop_
_symmetry_equiv_pos_as_xyz
  x,y,z
_cell_length_a	16.625539
_cell_length_b	21.395362
_cell_length_c	21.395362
_cell_angle_alpha	89.954332
_cell_angle_beta	89.969394
_cell_angle_gamma	90.036465
loop_
_atom_site_label
_atom_site_type_symbol
_atom_site_fract_x
_atom_site_fract_y
_atom_site_fract_z
Zn1	Zn	-0.456304	-0.957817	-0.249183
Zn2	Zn	0.043696	-0.457817	0.250817
Zn3	Zn	-0.321461	-0.957735	-0.353962
Zn4	Zn	0.178539	-0.457735	0.146038
Zn5	Zn	-0.321439	-0.853046	-0.249231
Zn6	Zn	0.178561	-0.353046	0.250769
Zn7	Zn	-0.456205	-0.853003	-0.353956
Zn8	Zn	0.043795	-0.353003	0.146044
O9	O	-0.388852	-0.905400	-0.301583
O10	O	0.111148	-0.405400	0.198417
O11	O	-0.438467	-1.045484	-0.263065
O12	O	0.061533	-0.545484	0.236935
O13	O	-0.208626	-0.943831	-0.340091
O14	O	0.291374	-0.443831	0.159909
O15	O	-0.339360	-0.866996	-0.161547
O16	O	0.160640	-0.366996	0.338453
O17	O	-0.339399	-1.045424	-0.340045
O18	O	0.160601	-0.545424	0.159955
O19	O	-0.438445	-0.943971	-0.161512
O20	O	0.061555	-0.443971	0.338488
O21	O	-0.208609	-0.866917	-0.263146
O22	O	0.291391	-0.366917	0.236854
O23	O	-0.339265	-0.765362	-0.263141
O24	O	0.160735	-0.265362	0.236859
O25	O	-0.569051	-0.866923	-0.340036
O26	O	-0.069051	-0.366923	0.159964
O27	O	-0.438278	-0.765331	-0.340082
O28	O	0.061722	-0.265331	0.159918
O29	O	-0.569123	-0.943930	-0.263059
O30	O	-0.069123	-0.443930	0.236941
O31	O	-0.339303	-0.943790	-0.441639
O32	O	0.160697	-0.443790	0.058361
O33	O	-0.438299	-0.866844	-0.441635
O34	O	0.061701	-0.366844	0.058365
C35	C	-0.388759	-0.742613	-0.301616
C36	C	0.111241	-0.242613	0.198384
C37	C	-0.388738	-0.672971	-0.301645
C38	C	0.111262	-0.172971	0.198355
C39	C	-0.388811	-0.905320	-0.464371
C40	C	0.111189	-0.405320	0.035629
C41	C	-0.388820	-0.905343	-0.534012
C42	C	0.111180	-0.405343	-0.034012
C43	C	-0.599161	-0.905431	-0.301542
C44	C	-0.099161	-0.405431	0.198458
C45	C	-0.688782	-0.905444	-0.301524
C46	C	-0.188782	-0.405444	0.198476
C47	C	-0.761565	-0.905454	-0.301510
C48	C	-0.261565	-0.405454	0.198490
C49	C	-0.852873	-0.905469	-0.301487
C50	C	-0.352873	-0.405469	0.198513
C51	C	-0.925650	-0.905484	-0.301465
C52	C	-0.425650	-0.405484	0.198535
C53	C	-1.016964	-0.905499	-0.301442
C54	C	-0.516964	-0.405499	0.198558
C55	C	-0.179361	-0.905406	-0.301579
C56	C	0.320639	-0.405406	0.198421
C57	C	-0.089741	-0.905514	-0.301420
C58	C	0.410259	-0.405514	0.198580
C59	C	-0.388947	-1.068824	-0.301550
C60	C	0.111053	-0.568824	0.198450
C61	C	-0.388987	-1.138465	-0.301536
C62	C	0.111013	-0.638465	0.198464
C63	C	-0.440216	-0.640258	-0.341762
C64	C	0.059784	-0.140258	0.158238
C65	C	-0.440252	-0.574823	-0.341746
C66	C	0.059748	-0.074823	0.158254
C67	C	-0.388795	-0.542103	-0.301621
C68	C	0.111205	-0.042103	0.198379
C69	C	-0.337313	-0.574824	-0.261497
C70	C	0.162687	-0.074824	0.238503
C71	C	-0.337284	-0.640258	-0.261509
C72	C	0.162716	-0.140258	0.238491
C73	C	-0.316208	-0.438386	-0.296584
C74	C	0.183792	0.061614	0.203416
C75	C	-0.316235	-0.372953	-0.296576
C76	C	0.183765	0.127047	0.203424
C77	C	-0.388884	-0.340282	-0.301580
C78	C	0.111116	0.159718	0.198420
C79	C	-0.461508	-0.373053	-0.306606
C80	C	0.038492	0.126947	0.193394
C81	C	-0.461480	-0.438487	-0.306618
C82	C	0.038520	0.061513	0.193382
C83	C	-0.388821	-0.471151	-0.301603
C84	C	0.111179	0.028849	0.198397
C85	C	-0.440406	-0.236617	-0.341682
C86	C	0.059594	0.263383	0.158318
C87	C	-0.440443	-0.171180	-0.341662
C88	C	0.059557	0.328820	0.158338
C89	C	-0.337497	-0.171183	-0.261416
C90	C	0.162503	0.328817	0.238584
C91	C	-0.337467	-0.236618	-0.261433
C92	C	0.162533	0.263382	0.238567
C93	C	-0.388920	-0.269331	-0.301569
C94	C	0.111080	0.230669	0.198431
C95	C	-0.440450	-0.945401	-0.566650
C96	C	0.059550	-0.445401	-0.066650
C97	C	-0.440470	-0.945423	-0.632085
C98	C	0.059530	-0.445423	-0.132085
C99	C	-0.388845	-0.905394	-0.664880
C100	C	0.111155	-0.405394	-0.164880
C101	C	-0.337211	-0.865328	-0.632234
C102	C	0.162789	-0.365328	-0.132234
C103	C	-0.337199	-0.865303	-0.566800
C104	C	0.162801	-0.365303	-0.066800
C105	C	-0.316212	-0.900524	-0.768592
C106	C	0.183788	-0.400524	-0.268592
C107	C	-0.316223	-0.900554	-0.834025
C108	C	0.183777	-0.400554	-0.334025
C109	C	-0.388884	-0.905468	-0.866701
C110	C	0.111116	-0.405468	-0.366701
C111	C	-0.461536	-0.910366	-0.833936
C112	C	0.038464	-0.410366	-0.333936
C113	C	-0.461523	-0.910341	-0.768502
C114	C	0.038477	-0.410341	-0.268502
C115	C	-0.388853	-0.905417	-0.735833
C116	C	0.111147	-0.405417	-0.235833
C117	C	-0.440540	-0.945552	-0.970291
C118	C	0.059460	-0.445552	-0.470291
C119	C	-0.440561	-0.945570	-1.035728
C120	C	0.059439	-0.445570	-0.535728
C121	C	-0.337295	-0.865478	-1.035876
C122	C	0.162705	-0.365478	-0.535876
C123	C	-0.337281	-0.865457	-0.970440
C124	C	0.162719	-0.365457	-0.470440
C125	C	-0.388903	-0.905498	-0.937652
C126	C	0.111097	-0.405498	-0.437652
C127	C	-0.388911	-0.905498	-0.138160
C128	C	0.111089	-0.405498	0.361840
C129	C	-0.388937	-0.905539	-0.068518
C130	C	0.111063	-0.405539	0.431482
H131	H	-0.482115	-0.666889	-0.374443
H132	H	0.017885	-0.166889	0.125557
H133	H	-0.482523	-0.978038	-0.658664
H134	H	0.017477	-0.478038	-0.158664
C135	C	-0.541470	-0.915770	-0.869875
C136	C	-0.041470	-0.415770	-0.369875
N137	N	-0.601674	-0.919841	-0.896947
N138	N	-0.101674	-0.419841	-0.396947
C139	C	-0.280518	-0.821436	-1.071946
C140	C	0.219482	-0.321436	-0.571946
N141	N	-0.237756	-0.788259	-1.099118
N142	N	0.262244	-0.288259	-0.599118
C143	C	-0.497015	-0.272603	-0.385825
C144	C	0.002985	0.227397	0.114175
N145	N	-0.539655	-0.299707	-0.419073
N146	N	-0.039655	0.200293	0.080927
H147	H	-0.257066	-0.896570	-0.860697
H148	H	0.242934	-0.396570	-0.360697
H149	H	-0.295180	-0.832735	-0.658940
H150	H	0.204820	-0.332735	-0.158940
C151	C	-0.541439	-0.915723	-0.732463
C152	C	-0.041439	-0.415723	-0.232463
N153	N	-0.601633	-0.919774	-0.705319
N154	N	-0.101633	-0.419774	-0.205319
C155	C	-0.496882	-0.538831	-0.385881
C156	C	0.003118	-0.038831	0.114119
N157	N	-0.539535	-0.511724	-0.419125
N158	N	-0.039535	-0.011724	0.080875
H159	H	-0.295364	-0.666893	-0.228840
H160	H	0.204636	-0.166893	0.271160
C161	C	-0.497335	-0.989589	-0.934222
C162	C	0.002665	-0.489589	-0.434222
N163	N	-0.540116	-1.022755	-0.907057
N164	N	-0.040116	-0.522755	-0.407057
H165	H	-0.295154	-0.832682	-0.540226
H166	H	0.204846	-0.332682	-0.040226
H167	H	-0.295418	-0.548179	-0.228826
H168	H	0.204582	-0.048179	0.271174
C169	C	-0.236273	-0.895130	-0.732654
C170	C	0.263727	-0.395130	-0.232654
N171	N	-0.176064	-0.891071	-0.705587
N172	N	0.323936	-0.391071	-0.205587
C173	C	-0.541364	-0.474533	-0.312145
C174	C	-0.041364	0.025467	0.187855
N175	N	-0.601535	-0.501682	-0.316307
N176	N	-0.101535	-0.001682	0.183693
H177	H	-0.257044	-0.464980	-0.292506
H178	H	0.242956	0.035020	0.207494
H179	H	-0.482608	-0.978190	-1.062301
H180	H	0.017392	-0.478190	-0.562301
C181	C	-0.541429	-0.337121	-0.312108
C182	C	-0.041429	0.162879	0.187892
N183	N	-0.601624	-0.310054	-0.316253
N184	N	-0.101624	0.189946	0.183747
C185	C	-0.497070	-0.135196	-0.385801
C186	C	0.002930	0.364804	0.114199
N187	N	-0.539719	-0.108092	-0.419051
N188	N	-0.039719	0.391908	0.080949
C189	C	-0.280894	-0.135195	-0.217278
C190	C	0.219106	0.364805	0.282722
N191	N	-0.238260	-0.108085	-0.184030
N192	N	0.261740	0.391915	0.315970
C193	C	-0.280488	-0.821386	-0.934537
C194	C	0.219512	-0.321386	-0.434537
N195	N	-0.237713	-0.788186	-0.907495
N196	N	0.262287	-0.288186	-0.407495
H197	H	-0.295543	-0.263253	-0.228769
H198	H	0.204457	0.236747	0.271231
C199	C	-0.497231	-0.989451	-0.530587
C200	C	0.002769	-0.489451	-0.030587
N201	N	-0.539997	-1.022631	-0.503423
N202	N	-0.039997	-0.522631	-0.003423
H203	H	-0.257100	-0.346276	-0.292488
H204	H	0.242900	0.153724	0.207512
