data_functionalizedCrystal
_audit_creation_method	'MofGen! by Chris Wilmer'
_symmetry_space_group_name_H-M	'P1'
_symmetry_Int_Tables_number	1
_symmetry_cell_setting	triclinic
loop_
_symmetry_equiv_pos_as_xyz
  x,y,z
_cell_length_a	12.759401
_cell_length_b	17.640280
_cell_length_c	12.759401
_cell_angle_alpha	101.206122
_cell_angle_beta	90.006940
_cell_angle_gamma	78.802151
loop_
_atom_site_label
_atom_site_type_symbol
_atom_site_fract_x
_atom_site_fract_y
_atom_site_fract_z
Zn1	Zn	1.690734	-0.314748	0.509521
Zn2	Zn	2.190734	0.185252	1.009521
Zn3	Zn	1.726189	-0.446879	0.298369
Zn4	Zn	2.226189	0.053121	0.798369
Zn5	Zn	1.515073	-0.314738	0.333859
Zn6	Zn	2.015073	0.185262	0.833859
Zn7	Zn	1.550545	-0.446876	0.474007
Zn8	Zn	2.050545	0.053124	0.974007
O9	O	1.620635	-0.380810	0.403939
O10	O	2.120635	0.119190	0.903939
O11	O	1.842460	-0.332281	0.481521
O12	O	2.342460	0.167719	0.981521
O13	O	1.698177	-0.429347	0.156057
O14	O	2.198177	0.070653	0.656057
O15	O	1.508692	-0.204142	0.386877
O16	O	2.008692	0.295858	0.886877
O17	O	1.868508	-0.429357	0.326389
O18	O	2.368508	0.070643	0.826389
O19	O	1.637750	-0.204150	0.515935
O20	O	2.137750	0.295850	1.015935
O21	O	1.543071	-0.332264	0.182131
O22	O	2.043071	0.167736	0.682131
O23	O	1.372756	-0.332261	0.352440
O24	O	1.872756	0.167739	0.852440
O25	O	1.569148	-0.429352	0.625738
O26	O	2.069148	0.070648	1.125738
O27	O	1.398817	-0.429342	0.455406
O28	O	1.898817	0.070658	0.955406
O29	O	1.672145	-0.332278	0.651830
O30	O	2.172145	0.167722	1.151830
O31	O	1.732572	-0.557476	0.291952
O32	O	2.232572	-0.057476	0.791952
O33	O	1.603527	-0.557473	0.420993
O34	O	2.103527	-0.057473	0.920993
C35	C	1.347665	-0.380801	0.403921
C36	C	1.847665	0.119199	0.903921
C37	C	1.230893	-0.380816	0.403933
C38	C	1.730893	0.119184	0.903933
C39	C	1.189649	-0.431442	0.457421
C40	C	1.689649	0.068558	0.957421
C41	C	1.079925	-0.431445	0.457441
C42	C	1.579925	0.068555	0.957441
C43	C	1.052699	-0.330193	0.350476
C44	C	1.552699	0.169807	0.850476
C45	C	1.162420	-0.330186	0.350463
C46	C	1.662420	0.169814	0.850463
C47	C	1.675774	-0.586151	0.348790
C48	C	2.175774	-0.086151	0.848790
C49	C	1.699459	-0.673997	0.325233
C50	C	2.199459	-0.173997	0.825233
C51	C	1.441135	-0.963042	0.583286
C52	C	1.941135	-0.463042	1.083286
C53	C	1.463393	-1.045586	0.561117
C54	C	1.963393	-0.545586	1.061117
C55	C	1.597851	-1.045523	0.426883
C56	C	2.097851	-0.545523	0.926883
C57	C	1.575608	-0.962977	0.449044
C58	C	2.075608	-0.462977	0.949044
C59	C	1.497249	-0.921743	0.527246
C60	C	1.997249	-0.421743	1.027246
C61	C	1.631722	-0.921678	0.393005
C62	C	2.131722	-0.421678	0.893005
C63	C	1.609476	-0.839139	0.415161
C64	C	2.109476	-0.339139	0.915161
C65	C	1.531118	-0.797899	0.493357
C66	C	2.031118	-0.297899	0.993357
C67	C	1.475003	-0.839204	0.549403
C68	C	1.975003	-0.339204	1.049403
C69	C	1.710076	-0.962914	0.314798
C70	C	2.210076	-0.462914	0.814798
C71	C	1.766189	-0.921615	0.258758
C72	C	2.266189	-0.421615	0.758758
C73	C	1.743949	-0.839075	0.280920
C74	C	2.243949	-0.339075	0.780920
C75	C	1.665591	-0.797835	0.359116
C76	C	2.165591	-0.297835	0.859116
C77	C	1.800064	-0.797770	0.224874
C78	C	2.300064	-0.297770	0.724874
C79	C	1.777819	-0.715231	0.247031
C80	C	2.277819	-0.215231	0.747031
C81	C	1.643346	-0.715296	0.381272
C82	C	2.143346	-0.215296	0.881272
C83	C	1.894671	-0.380821	0.403958
C84	C	2.394671	0.119179	0.903958
C85	C	2.011449	-0.380825	0.403966
C86	C	2.511449	0.119175	0.903966
C87	C	1.620648	-0.380816	0.677971
C88	C	2.120648	0.119184	1.177971
C89	C	1.620654	-0.380818	0.794747
C90	C	2.120654	0.119182	1.294747
C91	C	1.565310	-0.174668	0.459326
C92	C	2.065310	0.325332	0.959326
C93	C	1.541733	-0.086822	0.482929
C94	C	2.041733	0.413178	0.982929
C95	C	1.674278	-0.330280	0.863194
C96	C	2.174278	0.169720	1.363194
C97	C	1.674269	-0.330279	0.972919
C98	C	2.174269	0.169721	1.472919
C99	C	1.567010	-0.431360	0.945737
C100	C	2.067010	0.068640	1.445737
C101	C	1.567013	-0.431357	0.836015
C102	C	2.067013	0.068643	1.336015
C103	C	1.620626	-0.380822	1.130968
C104	C	2.120626	0.119178	1.630968
C105	C	1.620641	-0.380820	1.014193
C106	C	2.120641	0.119180	1.514193
H107	H	1.245397	-0.472666	0.500962
H108	H	1.745397	0.027334	1.000962
H109	H	1.195999	-0.288955	0.306908
H110	H	1.695999	0.211045	0.806908
H111	H	1.523340	-0.472508	0.979351
H112	H	2.023340	0.027492	1.479351
H113	H	1.579545	-0.681721	0.444960
H114	H	2.079545	-0.181721	0.944960
H115	H	1.661648	-1.079107	0.363208
H116	H	2.161648	-0.579107	0.863208
H117	H	1.513000	-0.730691	0.511388
H118	H	2.013000	-0.230691	1.011388
H119	H	1.523339	-0.472510	0.780283
H120	H	2.023339	0.027490	1.280283
H121	H	1.717952	-0.289126	0.829598
H122	H	2.217952	0.210874	1.329598
H123	H	1.046351	-0.472670	0.500998
H124	H	1.546351	0.027330	1.000998
H125	H	1.829986	-0.955199	0.195083
H126	H	2.329986	-0.455199	0.695083
H127	H	0.996936	-0.288973	0.306941
H128	H	1.496936	0.211027	0.806941
H129	H	1.717933	-0.289124	1.028646
H130	H	2.217933	0.210876	1.528646
H131	H	1.411203	-0.805629	0.613091
H132	H	1.911203	-0.305629	1.113091
H133	H	1.377335	-0.929467	0.646974
H134	H	1.877335	-0.429467	1.146974
H135	H	1.417705	-1.079209	0.606769
H136	H	1.917705	-0.579209	1.106769
H137	H	1.728187	-1.030122	0.296764
H138	H	2.228187	-0.530122	0.796764
H139	H	1.823511	-0.681605	0.201396
H140	H	2.323511	-0.181605	0.701396
H141	H	1.863857	-0.831355	0.161195
H142	H	2.363857	-0.331355	0.661195
