data_functionalizedCrystal
_audit_creation_method	'MofGen! by Chris Wilmer'
_symmetry_space_group_name_H-M	'P1'
_symmetry_Int_Tables_number	1
_symmetry_cell_setting	triclinic
loop_
_symmetry_equiv_pos_as_xyz
  x,y,z
_cell_length_a	23.532407
_cell_length_b	9.016244
_cell_length_c	10.540539
_cell_angle_alpha	90.000067
_cell_angle_beta	96.312916
_cell_angle_gamma	89.998017
loop_
_atom_site_label
_atom_site_type_symbol
_atom_site_fract_x
_atom_site_fract_y
_atom_site_fract_z
O1	O	0.756280	-0.123149	-0.154076
O2	O	0.590564	-0.123191	-0.176370
O3	O	0.677203	-0.123167	0.019607
O4	O	0.669641	-0.123173	-0.350054
O5	O	0.677190	0.123514	0.019603
O6	O	0.590551	0.123490	-0.176375
O7	O	0.756267	0.123532	-0.154081
Cu8	Cu	0.673408	0.146035	-0.165228
Cu9	Cu	0.673423	-0.145694	-0.165223
O10	O	0.669628	0.123508	-0.350058
C11	C	0.569338	0.000144	-0.175805
C12	C	0.506109	0.000127	-0.174098
N13	N	0.673401	0.351221	-0.165231
N14	N	0.673434	-0.350880	-0.165210
C15	C	0.107702	0.000193	-0.279368
C16	C	0.048291	0.000202	-0.277782
O17	O	0.012191	0.000254	-0.375368
N18	N	0.024895	0.000201	-0.161273
C19	C	0.060914	0.000206	-0.046343
O20	O	0.035558	0.000208	0.052903
C21	C	0.120323	0.000208	-0.047930
C22	C	0.143715	0.000194	-0.164446
C23	C	0.131094	0.000180	-0.395874
C24	C	0.190501	0.000168	-0.397459
C25	C	0.226515	0.000169	-0.282538
C26	C	0.203122	0.000182	-0.166031
C27	C	0.156340	0.000224	0.066999
C28	C	0.215753	0.000227	0.065402
C29	C	0.239146	0.000212	-0.051114
C30	C	0.298542	0.000171	-0.052694
N31	N	0.321938	0.000171	-0.169203
C32	C	0.285924	0.000171	-0.284125
C33	C	-0.063851	0.000206	-0.043019
C34	C	-0.123259	0.000194	-0.041431
C35	C	-0.135878	0.000192	-0.272870
C36	C	-0.076468	0.000193	-0.274457
C37	C	-0.040455	0.000207	-0.159528
C38	C	0.410683	0.000144	-0.287445
C39	C	0.470095	0.000126	-0.289020
C40	C	0.482709	0.000136	-0.057581
C41	C	0.423302	0.000146	-0.056005
C42	C	0.387290	0.000155	-0.170947
O43	O	0.334677	0.000124	0.044840
O44	O	0.311288	0.000188	-0.383354
C45	C	0.777493	0.000194	-0.154646
C46	C	0.840722	0.000201	-0.156353
C47	C	0.676629	0.000170	0.066889
C48	C	0.674933	0.000162	0.207782
C49	C	0.626913	0.586241	-0.269725
C50	C	0.627016	0.414349	-0.270107
C51	C	0.732940	0.413574	-0.193411
C52	C	0.732686	0.585519	-0.194149
C53	C	0.660942	0.585763	-0.032202
C54	C	0.659576	0.413808	-0.033111
C55	C	0.670202	0.000167	-0.397340
C56	C	0.671898	0.000166	-0.538233
C57	C	0.609924	-0.000408	0.389075
C58	C	0.611644	0.000147	0.242514
C59	C	0.705383	0.141037	0.270436
C60	C	0.703223	0.141155	0.416910
C61	C	0.704525	-0.139367	0.417476
C62	C	0.705108	-0.141229	0.270513
H63	H	0.489138	0.000114	-0.383905
Br64	Br	0.792104	0.654853	-0.071894
Br65	Br	0.568293	0.166495	0.438660
H66	H	0.691214	0.370841	0.048248
H67	H	-0.034532	0.000203	0.050577
H68	H	0.582777	0.372194	-0.253427
H69	H	0.768404	0.372680	-0.119284
Br70	Br	0.750896	0.652349	-0.355785
H71	H	0.684047	-0.246140	0.448359
Br72	Br	0.552942	0.655169	-0.242378
H73	H	0.245073	0.000238	0.158995
H74	H	0.404255	0.000136	0.038872
Br75	Br	0.780716	-0.140930	0.498688
H76	H	0.137305	0.000237	0.161879
H77	H	0.682827	-0.245444	0.228925
Br78	Br	0.640372	0.345757	-0.434666
Br79	Br	0.665695	0.316649	0.462684
Br80	Br	0.779083	0.151845	0.499357
H81	H	0.381368	0.000156	-0.381042
Br82	Br	0.782850	0.149795	0.235728
H83	H	0.744109	0.370498	-0.289282
H84	H	0.587683	-0.100838	0.199126
H85	H	-0.142300	0.000182	0.053449
Br86	Br	0.670112	0.315755	0.198280
H87	H	0.512042	0.000131	0.035985
H88	H	0.751250	-0.149724	0.247806
H89	H	0.634838	0.629435	-0.367888
Br90	Br	0.586573	0.345891	0.002568
Br91	Br	0.082229	0.000179	-0.551862
Br92	Br	-0.044728	0.000175	-0.432591
Br93	Br	0.222238	0.000155	-0.555597
Br94	Br	0.590097	0.658107	0.013251
Br95	Br	-0.184765	0.000194	-0.428837
H96	H	0.694861	0.626424	0.045566
H97	H	0.584928	-0.101433	0.416857
H98	H	0.587505	0.101288	0.199964
