data_functionalizedCrystal
_audit_creation_method	'MofGen! by Chris Wilmer'
_symmetry_space_group_name_H-M	'P1'
_symmetry_Int_Tables_number	1
_symmetry_cell_setting	triclinic
loop_
_symmetry_equiv_pos_as_xyz
  x,y,z
_cell_length_a	6.817900
_cell_length_b	10.992421
_cell_length_c	16.305550
_cell_angle_alpha	93.823954
_cell_angle_beta	103.455250
_cell_angle_gamma	108.764763
loop_
_atom_site_label
_atom_site_type_symbol
_atom_site_fract_x
_atom_site_fract_y
_atom_site_fract_z
V1	V	-4.053422	-0.178845	-0.263020
O2	O	-4.012705	0.007478	-0.258025
O3	O	-4.031419	-0.353546	-0.261209
O4	O	-4.004484	-0.176583	-0.377737
O5	O	-4.039826	-0.170709	-0.140690
V6	V	-4.533699	-0.156501	-0.248389
O7	O	-4.321800	-0.227859	-0.295112
O8	O	-4.715518	-0.107487	-0.216297
O9	O	-4.332495	0.018201	-0.250200
O10	O	-4.691813	-0.342824	-0.253384
O11	O	-4.664691	-0.164636	-0.370719
O12	O	-4.359430	-0.158762	-0.133672
C13	C	-3.882859	-0.396119	-0.257057
C14	C	-3.946153	-0.538943	-0.256341
C15	C	-3.815151	-0.734207	-0.250572
C16	C	-3.748974	-0.585564	-0.250982
C17	C	-4.034956	-0.577254	-0.177670
C18	C	-4.099384	-0.725794	-0.176836
C19	C	-4.193593	-0.765041	-0.338109
C20	C	-4.124145	-0.616534	-0.339816
C21	C	-3.848500	-0.170384	-0.405698
C22	C	-3.889946	-0.169691	-0.499480
C23	C	-4.040625	-0.167006	-0.840226
C24	C	-3.803366	-0.159034	-0.799298
C25	C	-3.760362	-0.160286	-0.701803
C26	C	-3.965870	-0.168337	-0.671178
C27	C	-4.152184	-0.295225	-0.721796
C28	C	-4.193938	-0.294507	-0.819346
C29	C	-4.077465	-0.049105	-0.794390
C30	C	-4.029383	-0.048101	-0.696548
C31	C	-3.923635	-0.169094	-0.575640
C32	C	-4.082870	-0.166258	-0.935765
C33	C	-4.144398	0.060767	-0.254350
C34	C	-4.060343	0.203590	-0.255071
C35	C	-4.178757	-0.164966	-0.105706
C36	C	-4.116548	-0.165652	-0.011924
H37	H	-4.275624	-0.766677	-0.176712
H38	H	-3.620002	-0.069055	-0.666785
F39	F	-3.646420	-0.039124	-0.815353
F40	F	-4.354458	-0.308926	-0.697079
F41	F	-4.225031	-0.537739	-0.178851
H42	H	-3.971454	0.047037	-0.807764
H43	H	-3.706956	-0.245971	-0.685504
F44	F	-3.869880	-0.506031	-0.096893
F45	F	-4.167327	-0.830089	-0.415918
H46	H	-4.250246	-0.053817	-0.821206
F47	F	-3.852521	0.074575	-0.651627
H48	H	-4.061684	-0.592878	-0.398021
H49	H	-4.271894	-0.586363	-0.348602
F50	F	-4.097469	-0.411921	-0.699814
H51	H	-4.372489	-0.806175	-0.342232
F52	F	-3.761248	-0.269754	-0.840475
F53	F	-4.164424	-0.411168	-0.859051
H54	H	-4.176431	-0.046522	-0.675200
H55	H	-4.369466	-0.305635	-0.847337
H56	H	-3.678851	-0.560032	-0.307196
H57	H	-3.776409	-0.780857	-0.306437
H58	H	-3.713207	-0.754520	-0.190688
F59	F	-3.572750	-0.516689	-0.172645
F60	F	-3.973446	-0.748354	-0.095192
