data_functionalizedCrystal
_audit_creation_method	'MofGen! by Chris Wilmer'
_symmetry_space_group_name_H-M	'P1'
_symmetry_Int_Tables_number	1
_symmetry_cell_setting	triclinic
loop_
_symmetry_equiv_pos_as_xyz
  x,y,z
_cell_length_a	21.295417
_cell_length_b	21.295418
_cell_length_c	13.897441
_cell_angle_alpha	90.043064
_cell_angle_beta	89.964549
_cell_angle_gamma	89.951286
loop_
_atom_site_label
_atom_site_type_symbol
_atom_site_fract_x
_atom_site_fract_y
_atom_site_fract_z
Zn1	Zn	-0.250289	-0.962326	-0.545972
Zn2	Zn	-0.355566	-0.962237	-0.384657
Zn3	Zn	-0.250348	-0.857058	-0.384622
Zn4	Zn	-0.355558	-0.857019	-0.545841
O5	O	-0.302940	-0.909660	-0.465273
O6	O	-0.264233	-1.050404	-0.524643
O7	O	-0.341637	-0.948264	-0.249671
O8	O	-0.162251	-0.871076	-0.406065
O9	O	-0.341580	-1.050339	-0.406126
O10	O	-0.162208	-0.948416	-0.524609
O11	O	-0.264334	-0.870990	-0.249645
O12	O	-0.264326	-0.768963	-0.405938
O13	O	-0.341565	-0.871009	-0.680840
O14	O	-0.341623	-0.768935	-0.524385
O15	O	-0.264225	-0.948378	-0.680936
O16	O	-0.443655	-0.948226	-0.405998
O17	O	-0.443648	-0.870923	-0.524419
C18	C	-0.302980	-0.746108	-0.465144
C19	C	-0.303013	-0.676140	-0.465111
C20	C	-0.466492	-0.909578	-0.465219
C21	C	-0.536460	-0.909600	-0.465229
C22	C	-0.343316	-0.643275	-0.526691
C23	C	-0.343303	-0.577533	-0.526727
C24	C	-0.302994	-0.544658	-0.465166
C25	C	-0.262683	-0.577531	-0.403583
C26	C	-0.262692	-0.643272	-0.403555
N27	N	-0.298084	-0.441386	-0.380789
N28	N	-0.298079	-0.378935	-0.380818
C29	C	-0.302962	-0.346583	-0.465247
N30	N	-0.307863	-0.379042	-0.549648
N31	N	-0.307871	-0.441499	-0.549618
C32	C	-0.302979	-0.473372	-0.465190
C33	C	-0.343253	-0.242432	-0.526871
C34	C	-0.343236	-0.176689	-0.526908
C35	C	-0.262619	-0.176688	-0.403755
C36	C	-0.262633	-0.242431	-0.403726
C37	C	-0.302954	-0.275299	-0.465283
C38	C	-0.569309	-0.949888	-0.403630
C39	C	-0.635052	-0.949917	-0.403652
C40	C	-0.667943	-0.909648	-0.465262
C41	C	-0.635086	-0.869357	-0.526873
C42	C	-0.569345	-0.869333	-0.526856
N43	N	-0.771226	-0.854580	-0.472572
N44	N	-0.833677	-0.854605	-0.472582
C45	C	-0.866017	-0.909718	-0.465317
N46	N	-0.833547	-0.964807	-0.458023
N47	N	-0.771090	-0.964782	-0.458008
C48	C	-0.739228	-0.909669	-0.465287
C49	C	-0.970152	-0.950041	-0.403739
C50	C	-1.035896	-0.950072	-0.403768
C51	C	-1.035928	-0.869506	-0.526983
C52	C	-0.970186	-0.869481	-0.526960
C53	C	-0.937302	-0.909748	-0.465333
C54	C	-0.138750	-0.909760	-0.465348
C55	C	-0.068782	-0.909803	-0.465380
C56	C	-0.302888	-0.909699	-0.716866
C57	C	-0.302865	-0.909715	-0.824080
C58	C	-0.302911	-0.073850	-0.465375
C59	C	-0.302926	-0.143818	-0.465348
C60	C	-0.302847	-0.909728	-0.911150
C61	C	-0.302819	-0.909746	-1.020382
C62	C	-0.302948	-0.909658	-0.214659
C63	C	-0.302793	-0.909763	-0.107445
H64	H	-0.376147	-0.670032	-0.576816
H65	H	-1.062708	-0.836721	-0.577152
H66	H	-0.376082	-0.269195	-0.576999
H67	H	-0.376055	-0.149931	-0.577060
H68	H	-0.661803	-0.982727	-0.353491
H69	H	-0.229796	-0.149922	-0.353636
O70	O	-0.938343	-0.830369	-0.586922
C71	C	-0.918152	-0.799763	-0.750933
C72	C	-0.954263	-0.844087	-0.683129
H73	H	-0.931000	-0.810847	-0.828731
H74	H	-0.931162	-0.749006	-0.733970
H75	H	-0.865518	-0.806651	-0.740289
H76	H	-1.006904	-0.837256	-0.693735
H77	H	-0.941201	-0.894828	-0.700108
O78	O	-0.667102	-0.830326	-0.586767
C79	C	-0.741243	-0.821838	-0.717035
C80	C	-0.705036	-0.866110	-0.649244
H81	H	-0.771911	-0.850752	-0.767578
H82	H	-0.772125	-0.788959	-0.672743
H83	H	-0.706458	-0.793023	-0.761016
H84	H	-0.739776	-0.894965	-0.605248
H85	H	-0.674144	-0.898947	-0.693591
O86	O	-0.537529	-0.830134	-0.586724
C87	C	-0.544499	-0.750258	-0.708983
C88	C	-0.580610	-0.794609	-0.641217
H89	H	-0.579314	-0.721534	-0.753073
H90	H	-0.513803	-0.717305	-0.664668
H91	H	-0.513641	-0.779140	-0.759425
H92	H	-0.611502	-0.765778	-0.590762
H93	H	-0.611266	-0.827564	-0.685592
O94	O	-0.382512	-0.545695	-0.586583
C95	C	-0.462444	-0.552629	-0.708774
C96	C	-0.418086	-0.588759	-0.641017
H97	H	-0.491208	-0.587430	-0.752816
H98	H	-0.495360	-0.521803	-0.664455
H99	H	-0.433565	-0.521898	-0.759262
H100	H	-0.446914	-0.619525	-0.590516
H101	H	-0.385169	-0.619546	-0.685395
H102	H	-0.229871	-0.670031	-0.353409
O103	O	-0.938301	-0.989216	-0.343851
C104	C	-0.945205	-1.069097	-0.221596
C105	C	-0.981352	-1.024776	-0.289387
H106	H	-0.979996	-1.097849	-0.177529
H107	H	-0.914377	-1.102025	-0.265888
H108	H	-0.914475	-1.040190	-0.171132
H109	H	-1.012116	-1.053632	-0.339864
H110	H	-1.012140	-0.991846	-0.245034
O111	O	-1.067904	-0.989243	-0.344100
C112	C	-1.169166	-1.025082	-0.289668
C113	C	-1.132994	-0.980665	-0.357253
H114	H	-1.221798	-1.018153	-0.300264
H115	H	-1.156174	-1.075818	-0.306812
H116	H	-1.156299	-1.014127	-0.211835
H117	H	-1.145843	-0.991563	-0.435109
H118	H	-1.145990	-0.929942	-0.340026
H119	H	-0.229861	-0.550760	-0.353461
H120	H	-0.229817	-0.269190	-0.353577
O121	O	-0.537464	-0.989067	-0.343747
C122	C	-0.544372	-1.068954	-0.221501
C123	C	-0.580517	-1.024624	-0.289281
H124	H	-0.579165	-1.097704	-0.177434
H125	H	-0.513552	-1.101885	-0.265803
H126	H	-0.513635	-1.040054	-0.171038
H127	H	-0.611289	-1.053473	-0.339758
H128	H	-0.611298	-0.991692	-0.244920
