data_functionalizedCrystal
_audit_creation_method	'MofGen! by Chris Wilmer'
_symmetry_space_group_name_H-M	'P1'
_symmetry_Int_Tables_number	1
_symmetry_cell_setting	triclinic
loop_
_symmetry_equiv_pos_as_xyz
  x,y,z
_cell_length_a	19.288864
_cell_length_b	27.732048
_cell_length_c	17.766277
_cell_angle_alpha	89.988664
_cell_angle_beta	89.976791
_cell_angle_gamma	82.889449
loop_
_atom_site_label
_atom_site_type_symbol
_atom_site_fract_x
_atom_site_fract_y
_atom_site_fract_z
O1	O	0.920977	0.060300	-0.062844
O2	O	0.718666	0.068434	-0.062793
O3	O	0.826105	-0.006011	-0.062806
O4	O	0.813538	0.134745	-0.062831
O5	O	0.826086	-0.006014	0.062383
O6	O	0.718647	0.068430	0.062395
O7	O	0.920958	0.060296	0.062345
Cu8	Cu	0.819801	0.064363	0.073801
Cu9	Cu	0.819823	0.064367	-0.074249
O10	O	0.813519	0.134741	0.062357
C11	C	0.692781	0.068171	-0.000192
C12	C	0.615683	0.067385	-0.000172
C13	C	0.825831	-0.024020	-0.000209
C14	C	0.825037	-0.077678	-0.000203
C15	C	0.570714	0.111066	-0.000192
C16	C	0.498271	0.110328	-0.000200
C17	C	0.470801	0.065906	-0.000204
C18	C	0.515780	0.022219	-0.000180
C19	C	0.588220	0.022959	-0.000164
C20	C	0.362763	0.030987	-0.044082
C21	C	0.290324	0.030250	-0.044102
C22	C	0.247370	0.063624	-0.000249
C23	C	0.276863	0.097744	0.043615
C24	C	0.349304	0.098483	0.043631
C25	C	0.392252	0.065099	-0.000220
C26	C	0.123850	0.106507	-0.000277
C27	C	0.051406	0.105767	-0.000280
C28	C	0.068916	0.017658	-0.000267
C29	C	0.141358	0.018399	-0.000256
C30	C	0.168820	0.062825	-0.000264
C31	C	0.883526	-0.416316	-0.000256
C32	C	0.880579	-0.617985	-0.000266
O33	O	0.934063	-0.649079	-0.000312
N34	N	0.816872	-0.637301	-0.000249
C35	C	0.753897	-0.606196	-0.000235
O36	O	0.699643	-0.627253	-0.000229
C37	C	0.756845	-0.404529	-0.000231
C38	C	0.820556	-0.385216	-0.000240
C39	C	0.947232	-0.397002	-0.000266
C40	C	0.947968	-0.346588	-0.000259
C41	C	0.884998	-0.315488	-0.000243
C42	C	0.821292	-0.334801	-0.000233
C43	C	0.693871	-0.373425	-0.000222
C44	C	0.694614	-0.323006	-0.000223
C45	C	0.758325	-0.303693	-0.000232
C46	C	0.759059	-0.253287	-0.000210
N47	N	0.822766	-0.233971	-0.000227
C48	C	0.885735	-0.265071	-0.000243
C49	C	0.752354	-0.712075	-0.000236
C50	C	0.751617	-0.762492	-0.000236
C51	C	0.878299	-0.774276	-0.000268
C52	C	0.879035	-0.723859	-0.000263
C53	C	0.816061	-0.692759	-0.000253
C54	C	0.887276	-0.159197	-0.000229
C55	C	0.888007	-0.108778	-0.000219
C56	C	0.761325	-0.096998	-0.000191
C57	C	0.760595	-0.147412	-0.000197
C58	C	0.823576	-0.178511	-0.000218
O59	O	0.705603	-0.222164	-0.000172
O60	O	0.939982	-0.244005	-0.000266
C61	C	0.882790	-0.466730	-0.000263
C62	C	0.819084	-0.486044	-0.000253
C63	C	0.756114	-0.454943	-0.000236
C64	C	0.818347	-0.536461	-0.000253
C65	C	0.881317	-0.567561	-0.000269
C66	C	0.945023	-0.548245	-0.000285
C67	C	0.945760	-0.497831	-0.000279
C68	C	0.692407	-0.474260	-0.000220
C69	C	0.691676	-0.524674	-0.000226
C70	C	0.754646	-0.555775	-0.000242
C71	C	0.946842	0.060560	-0.000258
C72	C	1.023941	0.061345	-0.000282
C73	C	0.813792	0.152751	-0.000241
C74	C	0.814587	0.206408	-0.000252
N75	N	0.819790	0.064359	0.177931
N76	N	0.819839	0.064367	-0.178379
C77	C	0.867380	0.031411	0.217313
C78	C	0.867384	0.031409	0.296114
C79	C	0.819805	0.064363	0.335532
C80	C	0.772207	0.097314	0.296141
C81	C	0.772200	0.097312	0.217341
C82	C	0.810231	0.108406	0.460363
C83	C	0.810244	0.108408	0.539162
C84	C	0.819823	0.064369	0.578578
C85	C	0.829406	0.020325	0.539186
C86	C	0.829399	0.020323	0.460385
C87	C	0.819807	0.064369	0.420977
C88	C	0.867420	0.031416	0.703405
C89	C	0.867419	0.031413	0.782209
C90	C	0.772245	0.097322	0.782234
C91	C	0.772243	0.097321	0.703432
C92	C	0.819834	0.064368	0.664023
H93	H	0.593069	0.147241	-0.000200
H94	H	0.802418	0.144270	0.428277
H95	H	0.837207	-0.015536	0.571276
H96	H	0.929571	-0.799607	-0.000281
H97	H	0.014793	0.141339	-0.000292
H98	H	0.046551	-0.018511	-0.000317
H99	H	0.241891	0.124920	0.079325
O100	O	0.378043	0.131556	0.086290
C101	C	0.424846	0.107093	0.138606
H102	H	0.443310	0.068935	0.117083
H103	H	0.397331	0.104620	0.195026
C104	C	0.465521	0.182122	0.175047
C105	C	0.488203	0.135258	0.148609
H106	H	0.504601	0.199496	0.181220
H107	H	0.433987	0.198604	0.139803
H108	H	0.442591	0.180055	0.222060
H109	H	0.511125	0.137326	0.101592
H110	H	0.519743	0.118777	0.183845
H111	H	0.493409	-0.013949	-0.000193
O112	O	0.184946	-0.024078	-0.000279
C113	C	0.145169	-0.063445	-0.000264
H114	H	0.090978	-0.051057	-0.023978
H115	H	0.140124	-0.077071	0.059796
C116	C	0.248298	-0.119990	-0.020221
C117	C	0.181741	-0.104776	-0.049352
H118	H	0.270858	-0.145486	-0.050498
H119	H	0.275098	-0.093468	-0.020228
H120	H	0.244085	-0.131342	0.029828
H121	H	0.185956	-0.093419	-0.099397
H122	H	0.154943	-0.131297	-0.049355
O123	O	0.404551	-0.001367	-0.086731
C124	C	0.441524	0.023949	-0.139028
H125	H	0.444756	0.062328	-0.117502
H126	H	0.413204	0.025851	-0.195461
C127	C	0.511831	-0.049950	-0.175437
C128	C	0.515806	-0.002813	-0.148996
H129	H	0.557651	-0.066458	-0.181590
H130	H	0.486920	-0.067006	-0.140206
H131	H	0.488228	-0.048358	-0.222462
H132	H	0.539400	-0.004405	-0.101968
H133	H	0.540722	0.014243	-0.184220
O134	O	0.454677	0.152806	-0.000260
C135	C	0.494450	0.192175	-0.000244
H136	H	0.548671	0.179788	-0.023924
H137	H	0.499423	0.205804	0.059812
C138	C	0.391341	0.248715	-0.020280
C139	C	0.457934	0.233502	-0.049370
H140	H	0.368815	0.274209	-0.050580
H141	H	0.364544	0.222192	-0.020288
H142	H	0.395494	0.260070	0.029766
H143	H	0.453779	0.222143	-0.099411
H144	H	0.484729	0.260025	-0.049372
O145	O	1.007667	-0.479097	-0.000427
C146	C	1.046032	-0.495008	-0.065264
H147	H	1.008770	-0.505408	-0.110571
H148	H	1.085088	-0.527954	-0.050617
C149	C	1.131279	-0.441062	-0.039025
C150	C	1.085513	-0.453831	-0.094675
H151	H	1.155636	-0.415663	-0.057166
H152	H	1.105434	-0.430343	0.004659
H153	H	1.163820	-0.468520	-0.026825
H154	H	1.052968	-0.426375	-0.106868
H155	H	1.111354	-0.464545	-0.138362
H156	H	0.624835	-0.012613	-0.000148
H157	H	0.266316	0.002469	-0.079822
O158	O	1.006175	-0.578481	-0.000437
C159	C	1.009530	-0.607993	-0.065269
H160	H	0.973816	-0.589443	-0.110572
H161	H	0.991944	-0.644619	-0.050610
C162	C	1.129058	-0.638595	-0.039049
C163	C	1.085198	-0.615810	-0.094694
H164	H	1.175734	-0.643420	-0.057199
H165	H	1.126798	-0.618714	0.004631
H166	H	1.114395	-0.669115	-0.026839
H167	H	1.099856	-0.585289	-0.106897
H168	H	1.087463	-0.635687	-0.138377
H169	H	0.939890	-0.093056	-0.000224
H170	H	0.699737	-0.778212	-0.000215
H171	H	0.938562	-0.184513	-0.000249
O172	O	1.009919	-0.327911	-0.000308
C173	C	1.065331	-0.366180	-0.000306
H174	H	1.046231	-0.400385	-0.024002
H175	H	1.084721	-0.373364	0.059748
C176	C	1.148931	-0.310063	-0.020313
C177	C	1.125473	-0.352073	-0.049423
H178	H	1.186031	-0.301361	-0.050608
H179	H	1.111599	-0.284280	-0.020312
H180	H	1.165084	-0.316055	0.029731
H181	H	1.109313	-0.346078	-0.099462
H182	H	1.162804	-0.377855	-0.049434
H183	H	0.837199	-0.015539	0.428315
O184	O	1.008360	-0.427259	-0.000180
C185	C	1.011727	-0.456772	0.064666
H186	H	0.956621	-0.459217	0.086292
H187	H	1.043253	-0.440249	0.110061
C188	C	1.114941	-0.505023	0.018406
C189	C	1.047258	-0.508030	0.044964
H190	H	1.136861	-0.536641	0.006255
H191	H	1.112675	-0.485139	-0.025281
H192	H	1.141204	-0.491252	0.056240
H193	H	1.020994	-0.521795	0.007128
H194	H	1.049521	-0.527918	0.088644
O195	O	0.691113	-0.681936	-0.000186
C196	C	0.634734	-0.709803	-0.000188
H197	H	0.652785	-0.747472	0.023506
H198	H	0.615185	-0.713347	-0.060241
C199	C	0.552999	-0.638307	0.019827
C200	C	0.575169	-0.684571	0.048934
H201	H	0.516255	-0.622742	0.050124
H202	H	0.590983	-0.619532	0.019826
H203	H	0.536714	-0.641267	-0.030216
H204	H	0.591462	-0.681610	0.098972
H205	H	0.537187	-0.703345	0.048945
H206	H	0.641991	-0.389141	-0.000219
H207	H	0.733467	0.124145	0.328238
H208	H	0.906138	0.004578	0.328185
O209	O	0.150416	0.149703	-0.000243
C210	C	0.095187	0.188100	-0.000274
H211	H	0.046103	0.174657	0.023421
H212	H	0.084821	0.201569	-0.060336
C213	C	0.175451	0.246517	0.019718
C214	C	0.115166	0.230008	0.048826
H215	H	0.187775	0.272369	0.050002
H216	H	0.212660	0.220649	0.019735
H217	H	0.166804	0.257738	-0.030333
H218	H	0.123816	0.218781	0.098872
H219	H	0.077958	0.255875	0.048818
H220	H	0.643331	-0.297686	-0.000216
O221	O	0.725960	0.129353	0.820397
C222	C	0.683968	0.158445	0.768735
H223	H	0.683394	0.138627	0.712571
H224	H	0.706132	0.194314	0.760330
C225	C	0.609641	0.192882	0.868507
C226	C	0.608931	0.168540	0.799527
H227	H	0.563355	0.199111	0.887501
H228	H	0.637932	0.173284	0.903313
H229	H	0.628114	0.222770	0.861493
H230	H	0.590466	0.138650	0.806543
H231	H	0.580634	0.188133	0.764722
H232	H	0.930914	-0.708138	-0.000271
O233	O	0.629721	-0.543351	-0.000249
C234	C	0.574305	-0.505084	-0.000216
H235	H	0.593412	-0.470871	-0.023911
H236	H	0.554894	-0.497920	0.059847
C237	C	0.490718	-0.561199	-0.020205
C238	C	0.514183	-0.519178	-0.049314
H239	H	0.453630	-0.569893	-0.050488
H240	H	0.528052	-0.586981	-0.020225
H241	H	0.474547	-0.555223	0.029846
H242	H	0.530362	-0.525156	-0.099361
H243	H	0.476851	-0.493398	-0.049304
O244	O	0.698646	-0.166096	-0.000219
C245	C	0.643226	-0.127832	-0.000181
H246	H	0.662327	-0.093616	-0.023872
H247	H	0.623815	-0.120672	0.059883
C248	C	0.559647	-0.183952	-0.020175
C249	C	0.583106	-0.141928	-0.049279
H250	H	0.522560	-0.192647	-0.050458
H251	H	0.596983	-0.209731	-0.020198
H252	H	0.543476	-0.177980	0.029878
H253	H	0.599284	-0.147902	-0.099327
H254	H	0.545770	-0.116149	-0.049266
H255	H	0.641128	-0.448942	-0.000208
O256	O	0.725946	0.129368	0.179198
C257	C	0.683936	0.158446	0.230882
H258	H	0.712408	0.158942	0.287040
H259	H	0.632510	0.142841	0.239293
C260	C	0.634085	0.210007	0.131143
C261	C	0.669057	0.210620	0.200116
H262	H	0.624903	0.242190	0.112165
H263	H	0.662385	0.190416	0.096322
H264	H	0.591233	0.197001	0.138162
H265	H	0.711911	0.223620	0.193095
H266	H	0.640763	0.230214	0.234935
H267	H	0.710057	-0.071667	-0.000175
H268	H	0.906129	0.004578	0.185228
H269	H	0.906169	0.004582	0.671317
O270	O	0.913718	-0.000612	0.820350
C271	C	0.955708	-0.029702	0.768664
H272	H	0.956270	-0.009885	0.712485
H273	H	0.933551	-0.065574	0.760308
C274	C	1.030055	-0.064129	0.868382
C275	C	1.030751	-0.039788	0.799384
H276	H	1.076345	-0.070353	0.887332
H277	H	1.001765	-0.044532	0.903204
H278	H	1.011588	-0.094020	0.861409
H279	H	1.049209	-0.009896	0.806359
H280	H	1.059046	-0.059380	0.764563
H281	H	0.733494	0.124152	0.671365
O282	O	0.800897	0.151233	0.577308
C283	C	0.792447	0.190103	0.525623
H284	H	0.773504	0.176765	0.469468
H285	H	0.844604	0.204722	0.517205
C286	C	0.761618	0.247214	0.625364
C287	C	0.738345	0.230832	0.556395
H288	H	0.728247	0.272339	0.644346
H289	H	0.767313	0.221027	0.660185
H290	H	0.805082	0.259393	0.618339
H291	H	0.694886	0.218648	0.563422
H292	H	0.732641	0.257018	0.521575
