data_functionalizedCrystal
_audit_creation_method	'MofGen! by Chris Wilmer'
_symmetry_space_group_name_H-M	'P1'
_symmetry_Int_Tables_number	1
_symmetry_cell_setting	triclinic
loop_
_symmetry_equiv_pos_as_xyz
  x,y,z
_cell_length_a	18.215407
_cell_length_b	15.297327
_cell_length_c	18.215399
_cell_angle_alpha	99.648308
_cell_angle_beta	89.980167
_cell_angle_gamma	99.707397
loop_
_atom_site_label
_atom_site_type_symbol
_atom_site_fract_x
_atom_site_fract_y
_atom_site_fract_z
Zn1	Zn	1.074360	-0.359166	-0.466794
Zn2	Zn	1.052966	-0.510038	-0.365016
Zn3	Zn	0.951288	-0.359195	-0.343746
Zn4	Zn	0.929963	-0.509988	-0.488034
O5	O	1.002144	-0.434597	-0.415897
O6	O	1.174505	-0.379188	-0.453306
O7	O	1.039449	-0.490062	-0.259215
O8	O	0.985492	-0.232944	-0.342278
O9	O	1.158787	-0.490033	-0.378530
O10	O	1.075912	-0.232922	-0.432681
O11	O	0.964747	-0.379238	-0.243588
O12	O	0.845476	-0.379190	-0.362873
O13	O	0.949146	-0.489948	-0.588196
O14	O	0.829808	-0.489976	-0.468881
O15	O	1.055234	-0.379139	-0.572591
O16	O	1.018771	-0.636279	-0.399125
O17	O	0.928401	-0.636242	-0.489506
C18	C	0.810940	-0.434581	-0.415874
C19	C	0.729139	-0.434597	-0.415885
C20	C	0.532793	-0.492374	-0.471037
C21	C	0.455934	-0.492377	-0.471046
C22	C	0.472244	-0.376836	-0.360776
C23	C	0.549103	-0.376830	-0.360771
C24	C	0.579374	-0.434603	-0.415900
C25	C	0.425657	-0.434613	-0.415916
C26	C	0.342323	-0.434616	-0.415926
C27	C	0.662714	-0.434600	-0.415891
C28	C	0.968970	-0.668995	-0.448944
C29	C	0.954846	-0.769272	-0.463106
C30	C	1.103397	-1.051887	-0.314929
C31	C	1.116667	-0.957672	-0.301619
C32	C	1.076213	-0.910567	-0.341990
C33	C	1.022486	-0.957687	-0.395673
C34	C	1.009211	-1.051911	-0.408980
C35	C	0.982027	-0.910591	-0.436041
C36	C	0.928300	-0.957711	-0.489723
C37	C	0.915027	-1.051926	-0.503028
C38	C	0.955481	-1.099031	-0.462658
C39	C	0.995303	-0.816367	-0.422734
C40	C	0.901116	-0.816392	-0.516784
C41	C	0.887846	-0.910606	-0.530094
C42	C	1.194095	-0.434613	-0.415921
C43	C	1.275892	-0.434620	-0.415931
C44	C	1.002198	-0.434535	-0.607842
C45	C	1.002220	-0.434508	-0.689637
C46	C	1.035467	-0.199283	-0.382738
C47	C	1.049667	-0.099006	-0.368607
C48	C	1.057485	-0.376756	-0.869699
C49	C	1.057497	-0.376730	-0.946554
C50	C	0.947028	-0.492120	-0.962793
C51	C	0.947013	-0.492141	-0.885938
C52	C	1.002245	-0.434461	-0.839394
C53	C	1.002273	-0.434413	-0.993103
C54	C	1.002286	-0.434385	-1.076433
C55	C	1.002232	-0.434487	-0.756058
C56	C	1.002142	-0.434594	-0.224691
C57	C	1.002298	-0.434366	-0.142860
H58	H	1.039047	-0.778011	-0.379024
O59	O	0.862918	-1.097657	-0.555271
C60	C	0.823048	-1.126378	-0.684477
C61	C	0.882125	-1.074552	-0.625391
H62	H	0.838548	-1.107703	-0.741179
H63	H	0.820508	-1.201820	-0.687119
H64	H	0.766318	-1.107931	-0.668856
H65	H	0.938885	-1.092923	-0.640969
H66	H	0.884600	-0.999122	-0.622760
H67	H	0.418010	-0.539418	-0.515945
H68	H	0.868174	-0.778040	-0.549656
H69	H	1.102457	-0.329786	-0.831804
H70	H	0.557438	-0.539415	-0.515928
H71	H	1.102478	-0.329740	-0.971224
O72	O	0.835739	-0.956343	-0.582336
C73	C	0.795871	-0.985079	-0.711543
C74	C	0.854944	-0.933242	-0.652458
H75	H	0.811369	-0.966406	-0.768247
H76	H	0.793338	-1.060519	-0.714181
H77	H	0.739138	-0.966639	-0.695925
H78	H	0.911707	-0.951606	-0.668033
H79	H	0.857412	-0.857814	-0.649831
H80	H	1.087021	-0.833853	-0.331149
O81	O	1.168805	-0.911764	-0.249481
C82	C	1.231024	-0.766605	-0.187327
C83	C	1.171941	-0.818485	-0.246385
H84	H	1.233590	-0.691181	-0.184815
H85	H	1.215521	-0.785125	-0.130574
H86	H	1.287743	-0.785112	-0.202907
H87	H	1.115200	-0.800006	-0.230875
H88	H	1.187508	-0.799961	-0.303122
H89	H	1.136324	-1.090248	-0.282060
O90	O	0.893454	-0.548124	-1.008118
C91	C	0.844492	-0.599195	-1.133707
C92	C	0.905218	-0.535738	-1.082467
H93	H	0.853973	-0.589189	-1.193827
H94	H	0.847110	-0.671966	-1.128905
H95	H	0.787398	-0.583363	-1.116310
H96	H	0.962341	-0.551488	-1.099829
H97	H	0.902534	-0.462986	-1.087275
H98	H	0.447587	-0.329800	-0.315891
O99	O	0.893290	-0.548072	-0.856445
C100	C	0.792229	-0.560226	-0.771327
C101	C	0.853024	-0.496789	-0.804682
H102	H	0.759667	-0.518791	-0.729459
H103	H	0.752707	-0.601438	-0.817760
H104	H	0.819345	-0.607426	-0.742033
H105	H	0.825973	-0.449535	-0.833970
H106	H	0.892539	-0.455641	-0.758219
O107	O	0.594420	-0.320834	-0.307188
C108	C	0.682864	-0.308543	-0.206081
C109	C	0.631587	-0.372057	-0.266736
H110	H	0.712916	-0.349931	-0.173349
H111	H	0.725575	-0.261434	-0.233248
H112	H	0.648015	-0.267237	-0.166707
H113	H	0.666375	-0.413421	-0.306129
H114	H	0.588873	-0.419106	-0.239519
H115	H	0.944681	-1.175748	-0.473493
