data_functionalizedCrystal
_audit_creation_method	'MofGen! by Chris Wilmer'
_symmetry_space_group_name_H-M	'P1'
_symmetry_Int_Tables_number	1
_symmetry_cell_setting	triclinic
loop_
_symmetry_equiv_pos_as_xyz
  x,y,z
_cell_length_a	6.817900
_cell_length_b	19.452420
_cell_length_c	19.453114
_cell_angle_alpha	96.328802
_cell_angle_beta	101.709288
_cell_angle_gamma	101.696715
loop_
_atom_site_label
_atom_site_type_symbol
_atom_site_fract_x
_atom_site_fract_y
_atom_site_fract_z
V1	V	-3.997947	-0.097915	-0.219345
O2	O	-3.995100	0.003953	-0.214816
O3	O	-3.940917	-0.193426	-0.218185
O4	O	-3.940968	-0.096739	-0.314854
O5	O	-3.995048	-0.093403	-0.117478
V6	V	-4.483804	-0.085692	-0.207120
O7	O	-4.254084	-0.124729	-0.246163
O8	O	-4.677865	-0.058878	-0.180302
O9	O	-4.317628	0.009819	-0.208280
O10	O	-4.604048	-0.187560	-0.211649
O11	O	-4.604099	-0.090204	-0.308987
O12	O	-4.317576	-0.086868	-0.111611
C13	C	-3.784096	-0.216699	-0.214813
C14	C	-3.818697	-0.294782	-0.214501
C15	C	-3.801490	-0.321196	-0.149986
C16	C	-3.834075	-0.394562	-0.149672
C17	C	-3.883827	-0.441511	-0.213874
C18	C	-3.901045	-0.415090	-0.278397
C19	C	-3.868480	-0.341726	-0.278711
N20	N	-3.846563	-0.562110	-0.259091
N21	N	-3.877492	-0.631802	-0.258789
C22	C	-3.981949	-0.662553	-0.212935
N23	N	-4.054279	-0.620977	-0.167383
N24	N	-4.023337	-0.551278	-0.167682
C25	C	-3.919143	-0.521063	-0.213542
C26	C	-4.000075	-0.768518	-0.148075
C27	C	-4.032674	-0.841885	-0.147764
C28	C	-4.099624	-0.862412	-0.276491
C29	C	-4.067045	-0.789046	-0.276801
C30	C	-4.017262	-0.742102	-0.212591
C31	C	-3.784160	-0.093365	-0.338123
C32	C	-3.818800	-0.093035	-0.416204
C33	C	-4.016538	-0.096406	-0.456473
C34	C	-4.049086	-0.096097	-0.529838
C35	C	-3.883893	-0.092431	-0.562934
C36	C	-3.686126	-0.089055	-0.522655
C37	C	-3.653579	-0.089358	-0.449290
N38	N	-3.820798	-0.129525	-0.681855
N39	N	-3.851729	-0.129240	-0.751549
C40	C	-3.981942	-0.091517	-0.783979
N41	N	-4.080090	-0.054101	-0.744084
N42	N	-4.049164	-0.054390	-0.674384
C43	C	-3.919164	-0.092102	-0.642486
C44	C	-4.214984	-0.094552	-0.903800
C45	C	-4.247523	-0.094238	-0.977166
C46	C	-3.884560	-0.087203	-0.969983
C47	C	-3.852023	-0.087510	-0.896617
C48	C	-4.017244	-0.091188	-0.863531
C49	C	-4.137790	0.033088	-0.211650
C50	C	-4.082427	0.111171	-0.211967
C51	C	-4.137726	-0.090245	-0.088339
C52	C	-4.082325	-0.090570	-0.010257
H53	H	-3.959538	-0.730294	-0.095792
H54	H	-4.408546	-0.096978	-1.009952
H55	H	-4.140134	-0.900637	-0.328766
H56	H	-4.151076	-0.099398	-0.429538
O57	O	-3.660081	-0.084380	-0.857462
C58	C	-3.444533	-0.141918	-0.780318
C59	C	-3.662027	-0.145524	-0.824604
H60	H	-3.446024	-0.191353	-0.753753
H61	H	-3.394368	-0.092520	-0.737856
H62	H	-3.332144	-0.139228	-0.816606
H63	H	-3.774565	-0.148240	-0.788373
H64	H	-3.712019	-0.194913	-0.867072
O65	O	-4.241285	-0.099513	-0.568963
C66	C	-4.593221	-0.166618	-0.607276
C67	C	-4.375650	-0.162840	-0.562952
H68	H	-4.701924	-0.217806	-0.602419
H69	H	-4.588224	-0.165824	-0.665412
H70	H	-4.650614	-0.118986	-0.586768
H71	H	-4.318126	-0.210461	-0.583397
H72	H	-4.380773	-0.163599	-0.504822
O73	O	-4.015792	-0.867425	-0.085026
C74	C	-3.946032	-0.839322	0.042617
C75	C	-3.965039	-0.810301	-0.028382
H76	H	-3.905039	-0.793153	0.088431
H77	H	-3.820232	-0.870392	0.048727
H78	H	-4.098916	-0.875917	0.043247
H79	H	-3.812257	-0.773678	-0.029062
H80	H	-4.090935	-0.779272	-0.034464
H81	H	-3.760969	-0.282979	-0.097702
O82	O	-4.083725	-0.763500	-0.339532
C83	C	-4.153683	-0.791606	-0.467178
C84	C	-4.134801	-0.820629	-0.396182
H85	H	-4.195022	-0.837781	-0.512999
H86	H	-4.000795	-0.755059	-0.467889
H87	H	-4.279361	-0.760485	-0.473205
H88	H	-4.009209	-0.851783	-0.390110
H89	H	-4.287777	-0.857139	-0.395503
H90	H	-3.492552	-0.086607	-0.416502
O91	O	-3.525770	-0.085402	-0.554867
C92	C	-3.320026	-0.019789	-0.623752
C93	C	-3.501713	-0.023852	-0.587320
H94	H	-3.300491	0.029979	-0.649987
H95	H	-3.351831	-0.068849	-0.665832
H96	H	-3.173143	-0.017467	-0.582358
H97	H	-3.648674	-0.026152	-0.628662
H98	H	-3.469730	0.025207	-0.545226
O99	O	-3.724195	-0.083547	-1.002186
C100	C	-3.518432	-0.017927	-1.071062
C101	C	-3.700128	-0.021993	-1.034634
H102	H	-3.498888	0.031844	-1.097292
H103	H	-3.550232	-0.066984	-1.113145
H104	H	-3.371555	-0.015608	-1.029666
H105	H	-3.847082	-0.024290	-1.075977
H106	H	-3.668150	0.027063	-0.992537
H107	H	-4.349516	-0.097544	-0.876859
H108	H	-3.820059	-0.416072	-0.097135
H109	H	-3.882500	-0.320222	-0.331248
O110	O	-3.949646	-0.460768	-0.340723
C111	C	-4.197785	-0.558878	-0.418437
C112	C	-4.142963	-0.507203	-0.347822
H113	H	-4.354102	-0.596425	-0.424206
H114	H	-4.075508	-0.591048	-0.418820
H115	H	-4.204379	-0.527378	-0.464590
H116	H	-4.136396	-0.538648	-0.301630
H117	H	-4.265255	-0.475033	-0.347500
