data_functionalizedCrystal
_audit_creation_method	'MofGen! by Chris Wilmer'
_symmetry_space_group_name_H-M	'P1'
_symmetry_Int_Tables_number	1
_symmetry_cell_setting	triclinic
loop_
_symmetry_equiv_pos_as_xyz
  x,y,z
_cell_length_a	16.959455
_cell_length_b	13.897448
_cell_length_c	16.959447
_cell_angle_alpha	90.029368
_cell_angle_beta	90.014322
_cell_angle_gamma	90.014639
loop_
_atom_site_label
_atom_site_type_symbol
_atom_site_fract_x
_atom_site_fract_y
_atom_site_fract_z
Zn1	Zn	1.208397	-0.384074	0.446914
Zn2	Zn	1.208325	-0.545393	0.314738
Zn3	Zn	1.076225	-0.384105	0.314751
Zn4	Zn	1.076195	-0.545321	0.446876
O5	O	1.142286	-0.464723	0.380820
O6	O	1.318998	-0.405491	0.429390
O7	O	1.190784	-0.524040	0.204128
O8	O	1.093801	-0.249119	0.332305
O9	O	1.318945	-0.524011	0.332281
O10	O	1.190907	-0.249097	0.429404
O11	O	1.093731	-0.405543	0.204139
O12	O	0.965610	-0.405473	0.332268
O13	O	1.093750	-0.523888	0.557492
O14	O	0.965589	-0.523917	0.429340
O15	O	1.190878	-0.405421	0.557520
O16	O	1.190755	-0.680365	0.332244
O17	O	1.093680	-0.680312	0.429326
C18	C	0.936919	-0.464691	0.380802
C19	C	0.849063	-0.464701	0.380813
C20	C	0.477574	-0.402998	0.330380
C21	C	0.477600	-0.526527	0.431305
C22	C	0.560146	-0.526513	0.431300
C23	C	0.601410	-0.464742	0.380834
C24	C	0.560128	-0.402985	0.330372
C25	C	0.601434	-0.588276	0.481754
C26	C	0.683985	-0.588266	0.481751
C27	C	0.725251	-0.526489	0.431288
C28	C	0.683963	-0.464728	0.380825
C29	C	0.725227	-0.402957	0.330359
C30	C	0.683941	-0.341191	0.279900
C31	C	0.601393	-0.341208	0.279909
C32	C	0.807799	-0.526472	0.431279
C33	C	0.807781	-0.402944	0.330351
C34	C	1.142228	-0.715337	0.380797
C35	C	1.142276	-0.822551	0.380814
C36	C	1.142359	-1.018846	0.380863
C37	C	1.142310	-0.909614	0.380838
C38	C	1.348454	-0.464756	0.380838
C39	C	1.436310	-0.464770	0.380846
C40	C	1.142319	-0.464643	0.586988
C41	C	1.142333	-0.464609	0.674845
C42	C	1.142365	-0.213130	0.380860
C43	C	1.142399	-0.105916	0.380877
C44	C	1.142298	-0.464733	0.175454
C45	C	1.142437	-0.464495	0.087597
C46	C	1.091857	-0.526188	1.046309
C47	C	1.192997	-0.402827	1.046333
C48	C	1.192976	-0.402848	0.963787
C49	C	1.142395	-0.464540	0.922498
C50	C	1.091836	-0.526212	0.963755
C51	C	1.243540	-0.341184	0.922523
C52	C	1.243522	-0.341203	0.839972
C53	C	1.192937	-0.402891	0.798682
C54	C	1.142375	-0.464564	0.839944
C55	C	1.091794	-0.526257	0.798655
C56	C	1.041227	-0.587926	0.839916
C57	C	1.041251	-0.587900	0.922465
C58	C	1.192913	-0.402917	0.716134
C59	C	1.091773	-0.526281	0.716102
H60	H	0.443998	-0.576824	0.472387
H61	H	0.717549	-0.290901	0.238807
C62	C	1.299137	-0.273361	0.794591
C63	C	1.292720	-0.163703	0.805972
C64	C	1.348334	-0.095858	0.760590
C65	C	1.410365	-0.137672	0.703827
C66	C	1.416785	-0.247336	0.692443
C67	C	1.361171	-0.315181	0.737825
H68	H	1.246799	-0.132745	0.847994
H69	H	1.343582	-0.014677	0.769018
H70	H	1.451534	-0.087449	0.670233
H71	H	1.462706	-0.278294	0.650422
H72	H	1.365923	-0.396362	0.729398
C73	C	1.036132	-0.594145	0.670687
C74	C	1.070343	-0.669901	0.613922
C75	C	1.014703	-0.737764	0.568507
C76	C	0.924851	-0.729872	0.579857
C77	C	0.890635	-0.654113	0.636625
C78	C	0.946275	-0.586250	0.682040
H79	H	1.136861	-0.675746	0.605518
H80	H	1.040032	-0.793845	0.526484
H81	H	0.883662	-0.780108	0.546238
H82	H	0.824117	-0.648268	0.645029
H83	H	0.920946	-0.530168	0.724063
C84	C	0.556041	-0.656217	0.537264
C85	C	0.499261	-0.731893	0.502910
C86	C	0.453862	-0.799833	0.558424
C87	C	0.465243	-0.792097	0.648292
C88	C	0.522026	-0.716418	0.682650
C89	C	0.567425	-0.648478	0.627137
H90	H	0.490834	-0.737622	0.436381
H91	H	0.411828	-0.855855	0.532989
H92	H	0.431636	-0.842390	0.689386
H93	H	0.530453	-0.710689	0.749180
H94	H	0.609459	-0.592456	0.652572
C95	C	0.432163	-0.335059	0.274878
C96	C	0.375435	-0.259390	0.309246
C97	C	0.330022	-0.191450	0.253744
C98	C	0.341337	-0.199180	0.163874
C99	C	0.398067	-0.274853	0.129501
C100	C	0.443480	-0.342793	0.185003
H101	H	0.367057	-0.253664	0.375778
H102	H	0.288026	-0.135432	0.279190
H103	H	0.307719	-0.148887	0.122788
H104	H	0.406445	-0.280578	0.062969
H105	H	0.485476	-0.398811	0.159557
C106	C	0.985647	-0.655759	0.967842
C107	C	0.895786	-0.647907	0.956504
C108	C	0.840190	-0.715778	1.001881
C109	C	0.874454	-0.791502	1.058596
C110	C	0.964320	-0.799358	1.069936
C111	C	1.019916	-0.731486	1.024560
H112	H	0.870417	-0.591849	0.914518
H113	H	0.773665	-0.709962	0.993485
H114	H	0.833298	-0.841744	1.092186
H115	H	0.989688	-0.855416	1.111922
H116	H	1.086440	-0.737302	1.032955
H117	H	1.234086	-0.352709	0.682543
H118	H	0.567771	-0.290922	0.238827
H119	H	1.050685	-0.576395	1.079907
C120	C	0.985593	-0.655788	0.794491
C121	C	0.895739	-0.647902	0.805826
C122	C	0.840108	-0.715762	0.760395
C123	C	0.874332	-0.791508	0.703630
C124	C	0.964191	-0.799398	0.692292
C125	C	1.019821	-0.731538	0.737722
H126	H	0.870400	-0.591827	0.847850
H127	H	0.773588	-0.709921	0.768789
H128	H	0.833151	-0.841742	0.669999
H129	H	0.989529	-0.855472	0.650268
H130	H	1.086341	-0.737378	0.729329
H131	H	0.841372	-0.352635	0.289260
H132	H	0.717593	-0.638559	0.522839
H133	H	0.841410	-0.576764	0.472360
H134	H	1.234182	-0.352606	1.079955
H135	H	1.284725	-0.290963	0.956147
