data_functionalizedCrystal
_audit_creation_method	'MofGen! by Chris Wilmer'
_symmetry_space_group_name_H-M	'P1'
_symmetry_Int_Tables_number	1
_symmetry_cell_setting	triclinic
loop_
_symmetry_equiv_pos_as_xyz
  x,y,z
_cell_length_a	21.395362
_cell_length_b	10.685594
_cell_length_c	21.395355
_cell_angle_alpha	85.639830
_cell_angle_beta	90.043940
_cell_angle_gamma	94.402438
loop_
_atom_site_label
_atom_site_type_symbol
_atom_site_fract_x
_atom_site_fract_y
_atom_site_fract_z
Zn1	Zn	0.938832	-0.501991	0.373712
Zn2	Zn	0.930737	-0.712981	0.276974
Zn3	Zn	0.834045	-0.502050	0.268916
Zn4	Zn	0.826017	-0.713007	0.381679
O5	O	0.882408	-0.607507	0.325320
O6	O	1.025437	-0.529944	0.360918
O7	O	0.917882	-0.685015	0.188227
O8	O	0.854692	-0.325455	0.276110
O9	O	1.019490	-0.684958	0.289844
O10	O	0.931679	-0.325412	0.353104
O11	O	0.846843	-0.530044	0.182307
O12	O	0.745300	-0.530069	0.283836
O13	O	0.841011	-0.685002	0.468300
O14	O	0.739403	-0.685059	0.366683
O15	O	0.923895	-0.529969	0.462446
O16	O	0.910098	-0.889572	0.297570
O17	O	0.833162	-0.889591	0.374497
C18	C	0.719617	-0.607574	0.325250
C19	C	0.649974	-0.607633	0.325236
C20	C	0.614202	-0.688443	0.368319
C21	C	0.548768	-0.688412	0.368345
C22	C	0.519107	-0.607584	0.325279
C23	C	0.554888	-0.526759	0.282193
C24	C	0.620321	-0.526783	0.282172
C25	C	0.415768	-0.597419	0.268486
C26	C	0.350336	-0.597403	0.268507
C27	C	0.317290	-0.607502	0.325345
C28	C	0.349684	-0.617643	0.382165
C29	C	0.415117	-0.617667	0.382144
C30	C	0.448157	-0.607548	0.325298
C31	C	0.210567	-0.688283	0.368460
C32	C	0.145132	-0.688243	0.368487
C33	C	0.151252	-0.526596	0.282330
C34	C	0.216686	-0.526629	0.282308
C35	C	0.246340	-0.607479	0.325372
C36	C	0.869898	-0.935368	0.337786
C37	C	0.864603	-1.075629	0.343140
C38	C	1.045833	-0.607441	0.325391
C39	C	1.115476	-0.607413	0.325421
C40	C	0.882461	-0.607482	0.488743
C41	C	0.882483	-0.607471	0.558383
C42	C	0.894984	-0.278366	0.312820
C43	C	0.900343	-0.138106	0.307493
C44	C	0.882394	-0.607442	0.162530
C45	C	0.882507	-0.607097	0.092876
C46	C	0.925639	-0.526742	0.588050
C47	C	0.925641	-0.526688	0.653483
C48	C	0.882491	-0.607385	0.689249
C49	C	0.839327	-0.688120	0.659575
C50	C	0.839323	-0.688163	0.594142
C51	C	0.873209	-0.721010	0.797242
C52	C	0.873217	-0.720970	0.862673
C53	C	0.882500	-0.607252	0.891064
C54	C	0.891789	-0.493571	0.854016
C55	C	0.891785	-0.493614	0.788583
C56	C	0.882491	-0.607347	0.760200
C57	C	0.925660	-0.526457	0.991681
C58	C	0.925657	-0.526400	1.057115
C59	C	0.839346	-0.687844	1.063206
C60	C	0.839347	-0.687889	0.997772
C61	C	0.882507	-0.607197	0.962014
H62	H	0.638342	-0.754276	0.403386
H63	H	0.829954	-1.129449	0.377759
C64	C	0.509409	-0.777309	0.415734
H65	H	0.466192	-0.765708	0.409580
H66	H	0.516867	-0.862070	0.409712
H67	H	0.520880	-0.758971	0.457150
H68	H	0.934995	-1.084293	0.272881
C69	C	0.973124	-0.437681	0.952343
H70	H	0.998819	-0.389575	0.979384
H71	H	0.998581	-0.485948	0.928675
H72	H	0.951246	-0.382726	0.924707
C73	C	0.862998	-0.846010	0.903420
H74	H	0.857456	-0.913740	0.877141
H75	H	0.898482	-0.857084	0.929395
H76	H	0.826739	-0.844355	0.928855
C77	C	0.450751	-0.628816	0.444638
H78	H	0.494452	-0.627394	0.436482
H79	H	0.442692	-0.560249	0.468448
H80	H	0.437098	-0.705704	0.467534
H81	H	0.116007	-0.754046	0.403574
C82	C	0.313343	-0.628748	0.444690
H83	H	0.269734	-0.627266	0.436568
H84	H	0.321134	-0.705633	0.467583
H85	H	0.326732	-0.560176	0.468488
C86	C	0.973109	-0.437975	0.548718
H87	H	0.998808	-0.389880	0.575761
H88	H	0.998562	-0.486249	0.525050
H89	H	0.951237	-0.383010	0.521083
H90	H	0.530734	-0.460946	0.247129
C91	C	0.314709	-0.586247	0.206009
H92	H	0.343761	-0.580211	0.172155
H93	H	0.286401	-0.658538	0.203194
H94	H	0.291994	-0.513084	0.204115
C95	C	0.973119	-0.437892	0.686124
H96	H	0.998825	-0.389849	0.655456
H97	H	0.951259	-0.382900	0.709540
H98	H	0.998573	-0.486160	0.713505
H99	H	0.960799	-0.460654	1.081267
H100	H	0.804177	-0.753900	0.569989
H101	H	0.899349	-0.400971	0.877130
C102	C	0.243189	-0.777199	0.415834
H103	H	0.212511	-0.825310	0.441504
H104	H	0.266578	-0.832123	0.393903
H105	H	0.270596	-0.729008	0.441332
H106	H	0.865482	-0.813590	0.774131
C107	C	0.452115	-0.586240	0.205961
H108	H	0.423453	-0.580194	0.172126
H109	H	0.480439	-0.513089	0.204066
H110	H	0.474870	-0.658538	0.203115
H111	H	0.127104	-0.460779	0.247267
C112	C	0.791887	-0.776618	1.102541
H113	H	0.798073	-0.765039	1.145760
H114	H	0.750492	-0.758185	1.091085
H115	H	0.797825	-0.861409	1.095053
C116	C	0.256039	-0.437748	0.234913
H117	H	0.299257	-0.449332	0.241072
H118	H	0.244566	-0.456083	0.193501
H119	H	0.248581	-0.352981	0.240938
C120	C	0.659671	-0.437895	0.234776
H121	H	0.632637	-0.389754	0.209128
H122	H	0.687335	-0.382998	0.256690
H123	H	0.683312	-0.486107	0.209258
H124	H	0.899346	-0.401051	0.758421
C125	C	0.791881	-0.776701	0.965135
H126	H	0.798055	-0.765163	0.921044
H127	H	0.797810	-0.861476	0.979096
H128	H	0.750487	-0.758234	0.975124
H129	H	0.804193	-0.753820	0.688699
