data_functionalizedCrystal
_audit_creation_method	'MofGen! by Chris Wilmer'
_symmetry_space_group_name_H-M	'P1'
_symmetry_Int_Tables_number	1
_symmetry_cell_setting	triclinic
loop_
_symmetry_equiv_pos_as_xyz
  x,y,z
_cell_length_a	16.992694
_cell_length_b	16.992695
_cell_length_c	16.053802
_cell_angle_alpha	92.741074
_cell_angle_beta	87.249047
_cell_angle_gamma	90.668223
loop_
_atom_site_label
_atom_site_type_symbol
_atom_site_fract_x
_atom_site_fract_y
_atom_site_fract_z
O1	O	1.053959	0.163815	-0.069325
O2	O	1.553959	0.663815	0.430675
O3	O	0.825560	0.161983	-0.069350
O4	O	1.325560	0.661983	0.430650
O5	O	0.938844	0.048699	-0.069331
O6	O	1.438844	0.548699	0.430669
O7	O	0.940676	0.277099	-0.069344
O8	O	1.440676	0.777099	0.430656
O9	O	0.932607	0.054907	0.069527
O10	O	1.432607	0.554907	0.569527
O11	O	0.819323	0.168191	0.069508
O12	O	1.319323	0.668191	0.569508
O13	O	1.047722	0.170023	0.069533
O14	O	1.547722	0.670023	0.569533
Zn15	Zn	0.932532	0.170093	0.091567
Zn16	Zn	1.432532	0.670093	0.591567
Zn17	Zn	0.940750	0.161913	-0.091384
Zn18	Zn	1.440750	0.661913	0.408616
O19	O	0.934438	0.283307	0.069514
O20	O	1.434438	0.783307	0.569514
C21	C	0.793082	0.162731	0.000076
C22	C	1.293082	0.662731	0.500076
C23	C	0.705597	0.155702	0.000067
C24	C	1.205597	0.655702	0.500067
C25	C	0.659607	0.223520	0.000064
C26	C	1.159607	0.723520	0.500064
C27	C	0.577405	0.216911	0.000076
C28	C	1.077405	0.716911	0.500076
C29	C	0.541197	0.142484	0.000085
C30	C	1.041197	0.642484	0.500085
C31	C	0.587193	0.074661	0.000091
C32	C	1.087193	0.574661	0.500091
C33	C	0.669393	0.081270	0.000085
C34	C	1.169393	0.581270	0.500085
C35	C	0.295881	0.115090	0.000109
C36	C	0.795881	0.615090	0.500109
C37	C	0.213676	0.108486	0.000112
C38	C	0.713676	0.608486	0.500112
C39	C	0.203893	0.250737	0.000099
C40	C	0.703893	0.750737	0.500099
C41	C	0.286095	0.257339	0.000088
C42	C	0.786095	0.757339	0.500088
C43	C	0.332084	0.189517	0.000098
C44	C	0.832084	0.689517	0.500098
N45	N	0.457174	0.135727	0.000094
N46	N	0.957174	0.635727	0.500094
N47	N	0.416105	0.196275	0.000094
N48	N	0.916105	0.696275	0.500094
C49	C	0.933370	0.022443	0.000098
C50	C	1.433370	0.522443	0.500098
C51	C	0.926341	-0.065042	0.000097
C52	C	1.426341	0.434958	0.500097
C53	C	0.994158	-0.111032	0.000105
C54	C	1.494158	0.388968	0.500105
C55	C	0.987550	-0.193233	0.000096
C56	C	1.487550	0.306767	0.500096
C57	C	0.913123	-0.229442	0.000086
C58	C	1.413123	0.270558	0.500086
C59	C	0.845300	-0.183446	0.000075
C60	C	1.345300	0.316554	0.500075
C61	C	0.851910	-0.101246	0.000078
C62	C	1.351910	0.398754	0.500078
C63	C	0.885729	-0.474757	0.000071
C64	C	1.385729	0.025243	0.500071
C65	C	0.879124	-0.556962	0.000071
C66	C	1.379124	-0.056962	0.500071
C67	C	1.021375	-0.566745	0.000091
C68	C	1.521375	-0.066745	0.500091
C69	C	1.027978	-0.484543	0.000099
C70	C	1.527978	0.015457	0.500099
C71	C	0.960155	-0.438554	0.000083
C72	C	1.460155	0.061446	0.500083
N73	N	0.906366	-0.313465	0.000079
N74	N	1.406366	0.186535	0.500079
N75	N	0.966913	-0.354533	0.000084
N76	N	1.466913	0.145467	0.500084
C77	C	1.080201	0.169275	0.000105
C78	C	1.580201	0.669275	0.500105
C79	C	1.167685	0.176304	0.000109
C80	C	1.667685	0.676304	0.500109
C81	C	0.939913	0.309563	0.000084
C82	C	1.439913	0.809563	0.500084
C83	C	0.946942	0.397047	0.000079
C84	C	1.446942	0.897047	0.500079
N85	N	0.926930	0.175675	0.216427
N86	N	1.426930	0.675675	0.716427
N87	N	0.946358	0.156325	-0.216243
N88	N	1.446358	0.656325	0.283757
C89	C	0.975152	0.127492	0.260129
C90	C	1.475152	0.627492	0.760129
C91	C	0.971241	0.131404	0.347535
C92	C	1.471241	0.631404	0.847535
C93	C	0.919110	0.183504	0.391237
C94	C	1.419110	0.683504	0.891237
C95	C	0.870883	0.231689	0.347529
C96	C	1.370883	0.731689	0.847529
C97	C	0.874791	0.227772	0.260125
C98	C	1.374791	0.727772	0.760125
C99	C	0.902039	0.200593	0.652644
C100	C	1.402039	0.700593	1.152644
C101	C	0.898136	0.204508	0.740055
C102	C	1.398136	0.704508	1.240055
C103	C	0.998493	0.104222	0.740054
C104	C	1.498493	0.604222	1.240054
C105	C	1.002400	0.100313	0.652648
C106	C	1.502400	0.600313	1.152648
C107	C	0.954169	0.148494	0.608948
C108	C	1.454169	0.648494	1.108948
N109	N	0.915113	0.187507	0.480580
N110	N	1.415113	0.687507	0.980580
N111	N	0.958163	0.144487	0.519606
N112	N	1.458163	0.644487	1.019606
H113	H	0.315571	0.317945	0.000071
H114	H	0.815571	0.817945	0.500071
O115	O	1.052809	0.049624	0.609974
O116	O	1.552809	0.549624	1.109974
C117	C	1.106287	0.092286	0.559118
C118	C	1.606287	0.592286	1.059118
H119	H	1.110832	0.155593	0.585444
H120	H	1.610832	0.655593	1.085444
H121	H	1.166723	0.063699	0.557770
H122	H	1.666723	0.563699	1.057770
H123	H	1.084551	0.092062	0.493018
H124	H	1.584551	0.592062	0.993018
O125	O	0.786062	-0.056541	-0.000076
O126	O	1.286062	0.443459	0.499924
C127	C	0.788872	-0.011898	-0.071982
C128	C	1.288872	0.488102	0.428018
H129	H	0.829500	-0.041692	-0.122241
H130	H	1.329500	0.458308	0.377759
H131	H	0.727127	-0.007714	-0.096131
H132	H	1.227127	0.492286	0.403869
H133	H	0.812260	0.049810	-0.055720
H134	H	1.312260	0.549810	0.444280
H135	H	0.784700	-0.212933	0.000061
H136	H	1.284700	0.287067	0.500061
H137	H	0.166440	0.305954	0.000092
H138	H	0.666440	0.805954	0.500092
O139	O	0.820200	0.282192	0.390073
O140	O	1.320200	0.782192	0.890073
C141	C	0.766726	0.239227	0.440632
C142	C	1.266726	0.739227	0.940632
H143	H	0.793637	0.180198	0.453732
H144	H	1.293637	0.680198	0.953732
H145	H	0.753585	0.274050	0.502092
H146	H	1.253585	0.774050	1.002092
H147	H	0.709718	0.228689	0.406959
H148	H	1.209718	0.728689	0.906959
H149	H	0.706838	0.026046	0.000087
H150	H	1.206838	0.526046	0.500087
O151	O	1.018173	0.084578	0.389857
O152	O	1.518173	0.584578	0.889857
C153	C	1.065016	0.037748	0.332542
C154	C	1.565016	0.537748	0.832542
H155	H	1.070700	0.067285	0.270229
H156	H	1.570700	0.567285	0.770229
H157	H	1.126003	0.030862	0.357785
H158	H	1.626003	0.530862	0.857785
H159	H	1.036224	-0.022770	0.323264
H160	H	1.536224	0.477230	0.823264
H161	H	0.830503	-0.437322	0.000059
H162	H	1.330503	0.062678	0.500059
H163	H	0.862769	0.239826	0.617070
H164	H	1.362769	0.739826	1.117070
H165	H	1.042774	-0.230676	0.000105
H166	H	1.542774	0.269324	0.500105
O167	O	1.045256	0.057447	0.782635
O168	O	1.545256	0.557447	1.282635
C169	C	1.030646	0.072087	0.869151
C170	C	1.530646	0.572087	1.369151
H171	H	0.969372	0.098087	0.881095
H172	H	1.469372	0.598087	1.381095
H173	H	1.034185	0.014513	0.902377
H174	H	1.534185	0.514513	1.402377
H175	H	1.076567	0.115496	0.893942
H176	H	1.576567	0.615496	1.393942
O177	O	1.025667	0.076806	0.217606
O178	O	1.525667	0.576806	0.717606
C179	C	0.982698	0.023300	0.167105
C180	C	1.482698	0.523300	0.667105
H181	H	0.923669	0.050200	0.153994
H182	H	1.423669	0.550200	0.653994
H183	H	1.017519	0.010119	0.105649
H184	H	1.517519	0.510119	0.605649
H185	H	0.972162	-0.033684	0.200836
H186	H	1.472162	0.466316	0.700836
O187	O	0.847417	0.255131	0.782380
O188	O	1.347417	0.755131	1.282380
C189	C	0.805695	0.296829	0.725067
C190	C	1.305695	0.796829	1.225067
H191	H	0.805575	0.261710	0.662765
H192	H	1.305575	0.761710	1.162765
H193	H	0.742452	0.305979	0.750331
H194	H	1.242452	0.805979	1.250331
H195	H	0.835318	0.356514	0.715761
H196	H	1.335318	0.856514	1.215761
O197	O	0.340579	0.049241	0.000256
O198	O	0.840579	0.549241	0.500256
C199	C	0.385215	0.052028	0.072157
C200	C	0.885215	0.552028	0.572157
H201	H	0.355417	0.092641	0.122425
H202	H	0.855417	0.592641	0.622425
H203	H	0.389396	-0.009725	0.096296
H204	H	0.889396	0.490275	0.596296
H205	H	0.446926	0.075418	0.055893
H206	H	0.946926	0.575418	0.555893
O207	O	0.532849	0.282868	0.000034
O208	O	1.032849	0.782868	0.500034
C209	C	0.582433	0.349976	0.000041
C210	C	1.082433	0.849976	0.500041
H211	H	0.643638	0.332658	-0.026253
H212	H	1.143638	0.832658	0.473747
H213	H	0.557064	0.396007	-0.040275
H214	H	1.057064	0.896007	0.459725
H215	H	0.586693	0.375530	0.066655
H216	H	1.086693	0.875530	0.566655
H217	H	0.835522	0.267007	0.224543
H218	H	1.335522	0.767007	0.724543
H219	H	1.088584	-0.455068	0.000108
H220	H	1.588584	0.044932	0.500108
O221	O	1.087237	-0.611460	-0.000050
O222	O	1.587237	-0.111460	0.499950
C223	C	1.090889	-0.662522	-0.071958
C224	C	1.590889	-0.162522	0.428042
H225	H	1.054775	-0.637218	-0.122224
H226	H	1.554775	-0.137218	0.377776
H227	H	1.154803	-0.668859	-0.096093
H228	H	1.654803	-0.168859	0.403907
H229	H	1.066044	-0.722780	-0.055703
H230	H	1.566044	-0.222780	0.444297
O231	O	0.694905	0.295757	0.000015
O232	O	1.194905	0.795757	0.500015
C233	C	0.777318	0.287053	0.000029
C234	C	1.277318	0.787053	0.500029
H235	H	0.793928	0.225655	-0.026255
H236	H	1.293928	0.725655	0.473745
H237	H	0.807235	0.333185	-0.040293
H238	H	1.307235	0.833185	0.459707
H239	H	0.797432	0.295281	0.066643
H240	H	1.297432	0.795281	0.566643
O241	O	0.178626	0.036124	0.000157
O242	O	0.678626	0.536124	0.500157
C243	C	0.236844	-0.022323	0.000143
C244	C	0.736844	0.477677	0.500143
H245	H	0.292827	0.004410	0.026432
H246	H	0.792827	0.504410	0.526432
H247	H	0.214704	-0.072172	0.040460
H248	H	0.714704	0.427828	0.540460
H249	H	0.250077	-0.046468	-0.066473
H250	H	0.750077	0.453532	0.433527
O251	O	0.552054	0.002350	0.000246
O252	O	1.052054	0.502350	0.500246
C253	C	0.571912	-0.036097	0.072152
C254	C	1.071912	0.463903	0.572152
H255	H	0.589391	0.009583	0.122415
H256	H	1.089391	0.509583	0.622415
H257	H	0.518994	-0.071628	0.096293
H258	H	1.018994	0.428372	0.596293
H259	H	0.623406	-0.077333	0.055893
H260	H	1.123406	0.422667	0.555893
O261	O	1.066520	-0.075991	0.000076
O262	O	1.566520	0.424009	0.500076
C263	C	1.124959	-0.134213	0.000100
C264	C	1.624959	0.365787	0.500100
H265	H	1.100574	-0.192547	-0.026191
H266	H	1.600574	0.307453	0.473809
H267	H	1.178421	-0.115688	-0.040212
H268	H	1.678421	0.384312	0.459788
H269	H	1.143135	-0.141486	0.066718
H270	H	1.643135	0.358514	0.566718
O271	O	0.806763	-0.592012	0.000014
O272	O	1.306763	-0.092012	0.500014
C273	C	0.748317	-0.533795	0.000019
C274	C	1.248317	-0.033795	0.500019
H275	H	0.775059	-0.477807	-0.026263
H276	H	1.275059	0.022193	0.473737
H277	H	0.698482	-0.555927	-0.040310
H278	H	1.198482	-0.055927	0.459690
H279	H	0.724147	-0.520576	0.066630
H280	H	1.224147	-0.020576	0.566630
