data_functionalizedCrystal
_audit_creation_method	'MofGen! by Chris Wilmer'
_symmetry_space_group_name_H-M	'P1'
_symmetry_Int_Tables_number	1
_symmetry_cell_setting	triclinic
loop_
_symmetry_equiv_pos_as_xyz
  x,y,z
_cell_length_a	14.908571
_cell_length_b	19.121063
_cell_length_c	14.908694
_cell_angle_alpha	95.839462
_cell_angle_beta	83.592472
_cell_angle_gamma	89.303906
loop_
_atom_site_label
_atom_site_type_symbol
_atom_site_fract_x
_atom_site_fract_y
_atom_site_fract_z
Zn1	Zn	1.394122	-0.369756	-0.610618
Zn2	Zn	1.894122	0.130244	-0.110618
Zn3	Zn	1.379559	-0.480018	-0.464952
Zn4	Zn	1.879559	0.019982	0.035048
Zn5	Zn	1.234771	-0.355390	-0.449811
Zn6	Zn	1.734771	0.144610	0.050189
Zn7	Zn	1.236993	-0.479963	-0.607548
Zn8	Zn	1.736993	0.020037	-0.107548
O9	O	1.311361	-0.421282	-0.533232
O10	O	1.811361	0.078718	-0.033232
O11	O	1.518543	-0.390417	-0.598917
O12	O	2.018543	0.109583	-0.098917
O13	O	1.353327	-0.457496	-0.335968
O14	O	1.853327	0.042504	0.164032
O15	O	1.261073	-0.259017	-0.466091
O16	O	1.761073	0.240983	0.033909
O17	O	1.507844	-0.471426	-0.491897
O18	O	2.007844	0.028574	0.008103
O19	O	1.378148	-0.269571	-0.584235
O20	O	1.878148	0.230429	-0.084235
O21	O	1.246952	-0.365933	-0.324844
O22	O	1.746952	0.134067	0.175156
O23	O	1.108712	-0.365880	-0.463113
O24	O	1.608712	0.134120	0.036887
O25	O	1.264862	-0.471333	-0.734930
O26	O	1.764862	0.028667	-0.234930
O27	O	1.110345	-0.457403	-0.579002
O28	O	1.610345	0.042597	-0.079002
O29	O	1.380303	-0.390364	-0.737186
O30	O	1.880303	0.109636	-0.237186
O31	O	1.355483	-0.578289	-0.488919
O32	O	1.855483	-0.078289	0.011081
O33	O	1.250741	-0.578249	-0.593683
O34	O	1.750741	-0.078249	-0.093683
C35	C	1.076767	-0.410078	-0.519082
C36	C	1.576767	0.089922	-0.019082
C37	C	0.976407	-0.405303	-0.513051
C38	C	1.476407	0.094697	-0.013051
C39	C	1.301798	-0.603754	-0.542632
C40	C	1.801798	-0.103754	-0.042632
C41	C	1.297791	-0.681822	-0.546689
C42	C	1.797791	-0.181822	-0.046689
C43	C	0.789552	-0.491764	-0.622243
C44	C	1.289552	0.008236	-0.122243
C45	C	0.695255	-0.487280	-0.616580
C46	C	1.195255	0.012720	-0.116580
C47	C	0.693513	-0.391847	-0.496065
C48	C	1.193513	0.108153	0.003935
C49	C	0.787811	-0.396331	-0.501729
C50	C	1.287811	0.103669	-0.001729
C51	C	0.835827	-0.446292	-0.564819
C52	C	1.335827	0.053708	-0.064819
C53	C	0.930125	-0.450779	-0.570478
C54	C	1.430125	0.049221	-0.070478
C55	C	0.928383	-0.355343	-0.449968
C56	C	1.428383	0.144657	0.050032
C57	C	0.834085	-0.350859	-0.444304
C58	C	1.334085	0.149141	0.055696
C59	C	1.350490	-0.718500	-0.494101
C60	C	1.850490	-0.218500	0.005899
C61	C	1.346727	-0.791854	-0.497922
C62	C	1.846727	-0.291854	0.002078
C63	C	1.290260	-0.828527	-0.554327
C64	C	1.790260	-0.328527	-0.054327
C65	C	1.237560	-0.791844	-0.606921
C66	C	1.737560	-0.291844	-0.106921
C67	C	1.241328	-0.718492	-0.603105
C68	C	1.741328	-0.218492	-0.103105
C69	C	1.276157	-1.050002	-0.568582
C70	C	1.776157	-0.550002	-0.068582
C71	C	1.272391	-1.123359	-0.572393
C72	C	1.772391	-0.623359	-0.072393
C73	C	1.381560	-1.123364	-0.463394
C74	C	1.881560	-0.623364	0.036606
C75	C	1.385319	-1.050011	-0.459578
C76	C	1.885319	-0.550011	0.040422
C77	C	1.332622	-1.013334	-0.512176
C78	C	1.832622	-0.513334	-0.012176
C79	C	1.286411	-0.903506	-0.558232
C80	C	1.786411	-0.403506	-0.058232
C81	C	1.336477	-0.938357	-0.508275
C82	C	1.836477	-0.438357	-0.008275
C83	C	1.546872	-0.432530	-0.547438
C84	C	2.046872	0.067470	-0.047438
C85	C	1.647232	-0.437323	-0.553492
C86	C	2.147232	0.062677	-0.053492
C87	C	1.324455	-0.432445	-0.769902
C88	C	1.824455	0.067555	-0.269902
C89	C	1.330035	-0.437202	-0.870756
C90	C	1.830035	0.062798	-0.370756
C91	C	1.320987	-0.238099	-0.523817
C92	C	1.820987	0.261901	-0.023817
C93	C	1.325089	-0.160037	-0.519804
C94	C	1.825089	0.339963	-0.019804
C95	C	1.229730	-0.350798	-1.048689
C96	C	1.729730	0.149202	-0.548689
C97	C	1.234970	-0.355265	-1.143451
C98	C	1.734970	0.144735	-0.643451
C99	C	1.345749	-0.450607	-1.155042
C100	C	1.845749	0.049393	-0.655042
C101	C	1.340509	-0.446140	-1.060281
C102	C	1.840509	0.053860	-0.560281
C103	C	1.282499	-0.396233	-1.007107
C104	C	1.782499	0.103767	-0.507107
C105	C	1.277264	-0.391762	-0.912344
C106	C	1.777264	0.108238	-0.412344
C107	C	1.388038	-0.487107	-0.923937
C108	C	1.888038	0.012893	-0.423937
C109	C	1.393278	-0.491575	-1.018699
C110	C	1.893278	0.008425	-0.518699
C111	C	1.298373	-0.410114	-0.297484
C112	C	1.798373	0.089886	0.202516
C113	C	1.292978	-0.405167	-0.196630
C114	C	1.792978	0.094833	0.303370
H115	H	0.969218	-0.491461	-0.621848
H116	H	1.469218	0.008539	-0.121848
H117	H	0.657582	-0.524307	-0.663343
H118	H	1.157582	-0.024307	-0.163343
H119	H	1.396467	-0.688645	-0.448165
H120	H	1.896467	-0.188645	0.051835
H121	H	1.198416	-0.688629	-0.645929
H122	H	1.698416	-0.188629	-0.145929
H123	H	0.966069	-0.318318	-0.403207
H124	H	1.466069	0.181682	0.096793
Br125	Br	1.471996	-0.559306	-1.090870
Br126	Br	1.971996	-0.059306	-0.590870
H127	H	1.182504	-0.310155	-1.005395
H128	H	1.682504	0.189845	-0.505395
H129	H	0.654403	-0.351166	-0.444706
H130	H	1.154403	0.148834	0.055294
H131	H	0.794978	-0.310180	-0.392940
H132	H	1.294978	0.189820	0.107060
Br133	Br	1.418256	-0.841630	-0.426554
Br134	Br	1.918256	-0.341630	0.073446
H135	H	1.431299	-1.020153	-0.413648
H136	H	1.931299	-0.520153	0.086352
Br137	Br	0.854720	-0.559575	-0.707851
Br138	Br	1.354720	-0.059575	-0.207851
Br139	Br	1.453078	-1.173143	-0.392020
Br140	Br	1.953078	-0.673143	0.107980
H141	H	1.192000	-0.318267	-1.177303
H142	H	1.692000	0.181733	-0.677303
Br143	Br	1.195736	-1.173129	-0.648932
Br144	Br	1.695736	-0.673129	-0.148932
Br145	Br	1.209780	-0.953283	-0.634782
Br146	Br	1.709780	-0.453283	-0.134782
Br147	Br	1.160933	-0.841615	-0.683481
Br148	Br	1.660933	-0.341615	-0.183481
Br149	Br	1.198542	-0.324030	-0.840181
Br150	Br	1.698542	0.175970	-0.340181
H151	H	1.233247	-1.020146	-0.611408
H152	H	1.733247	-0.520146	-0.111408
Br153	Br	1.459661	-0.548770	-0.867501
Br154	Br	1.959661	-0.048770	-0.367501
Br155	Br	1.424453	-0.518344	-1.227220
Br156	Br	1.924453	-0.018344	-0.727220
H157	H	1.382456	-0.908496	-0.462354
H158	H	1.882456	-0.408496	0.037646
