data_functionalizedCrystal
_audit_creation_method	'MofGen! by Chris Wilmer'
_symmetry_space_group_name_H-M	'P1'
_symmetry_Int_Tables_number	1
_symmetry_cell_setting	triclinic
loop_
_symmetry_equiv_pos_as_xyz
  x,y,z
_cell_length_a	10.654550
_cell_length_b	14.586319
_cell_length_c	16.109301
_cell_angle_alpha	89.994786
_cell_angle_beta	83.973192
_cell_angle_gamma	89.992968
loop_
_atom_site_label
_atom_site_type_symbol
_atom_site_fract_x
_atom_site_fract_y
_atom_site_fract_z
O1	O	1.666255	-0.076319	0.116773
O2	O	1.300626	-0.076305	0.127898
O3	O	1.493485	-0.076303	0.001364
O4	O	1.473397	-0.076321	0.243307
O5	O	1.493472	0.076178	0.001362
O6	O	1.300613	0.076176	0.127896
O7	O	1.666242	0.076162	0.116771
Cu8	Cu	1.483426	0.090092	0.122333
Cu9	Cu	1.483442	-0.090234	0.122336
O10	O	1.473383	0.076160	0.243305
C11	C	1.253832	-0.000062	0.127080
C12	C	1.114422	-0.000056	0.124636
N13	N	1.483424	0.216923	0.122331
N14	N	1.483454	-0.217066	0.122331
C15	C	1.033926	-0.000075	0.199138
C16	C	0.902936	-0.000091	0.196836
C17	C	0.932952	-0.000073	0.045526
C18	C	1.063939	-0.000050	0.047828
C19	C	1.084409	-0.000081	0.275946
C20	C	1.003911	-0.000101	0.350453
C21	C	0.872921	-0.000117	0.348152
C22	C	0.822430	-0.000113	0.271343
C23	C	1.713036	-0.000083	0.117589
C24	C	1.852446	-0.000094	0.120033
C25	C	1.492665	-0.000062	-0.029616
C26	C	1.490225	-0.000061	-0.121926
C27	C	1.568850	0.451931	0.066321
C28	C	1.568854	0.547912	0.066319
C29	C	1.398019	0.547920	0.178344
C30	C	1.398010	0.451940	0.178341
C31	C	1.483433	0.403948	0.122331
C32	C	1.483445	0.595909	0.122332
C33	C	1.483448	0.699976	0.122330
C34	C	1.483428	0.299874	0.122331
C35	C	1.598991	-0.000079	-0.343552
C36	C	1.596689	-0.000087	-0.430286
C37	C	1.367868	-0.000074	-0.411772
C38	C	1.370172	-0.000073	-0.325040
C39	C	1.485737	-0.000071	-0.290932
C40	C	1.481131	-0.000080	-0.464399
C41	C	1.478634	-0.000088	-0.558440
C42	C	1.488234	-0.000065	-0.196885
C43	C	1.474204	-0.000083	0.274286
C44	C	1.476643	-0.000090	0.366595
H45	H	1.191065	-0.000073	0.277828
H46	H	1.638407	0.586977	0.020710
O47	O	0.883699	-0.000117	-0.029010
C48	C	0.750825	-0.000120	-0.015065
H49	H	0.720055	-0.028995	0.049640
H50	H	0.714326	0.073025	-0.019306
C51	C	0.734342	-0.024463	-0.160982
C52	C	0.696549	-0.059935	-0.081513
H53	H	0.700861	-0.061355	-0.201972
H54	H	0.823862	-0.024458	-0.170378
H55	H	0.703924	0.036491	-0.164505
H56	H	0.726981	-0.120883	-0.077988
H57	H	0.607033	-0.059952	-0.072118
O58	O	1.314925	0.594399	0.232782
C59	C	1.239549	0.531463	0.282229
H60	H	1.238143	0.463051	0.248132
H61	H	1.280290	0.521242	0.344244
C62	C	1.105802	0.652964	0.340411
C63	C	1.104067	0.568940	0.298528
H64	H	1.022232	0.676081	0.350469
H65	H	1.156587	0.695366	0.307100
H66	H	1.139759	0.644434	0.392085
H67	H	1.070125	0.577472	0.246851
H68	H	1.053273	0.526540	0.331831
H69	H	1.045031	-0.000097	0.412988
O70	O	1.315205	0.405225	0.232792
C71	C	1.382434	0.349707	0.284507
H72	H	1.480710	0.335321	0.251993
H73	H	1.390942	0.386686	0.346008
C74	C	1.190916	0.276210	0.341773
C75	C	1.311617	0.258536	0.301836
H76	H	1.147231	0.219973	0.352466
H77	H	1.145621	0.313616	0.306934
H78	H	1.198023	0.307028	0.393019
H79	H	1.304508	0.227729	0.250586
H80	H	1.356909	0.221123	0.336667
H81	H	1.688912	-0.000095	-0.473126
H82	H	1.273779	-0.000074	-0.439553
O83	O	1.260033	-0.000024	-0.274038
C84	C	1.157539	-0.000041	-0.322738
H85	H	1.189429	0.028826	-0.387281
H86	H	1.122121	-0.073193	-0.329110
C87	C	1.011178	0.024304	-0.200870
C88	C	1.050343	0.059767	-0.280140
H89	H	0.945052	0.061193	-0.174593
H90	H	1.080229	0.024313	-0.168059
H91	H	0.981671	-0.036654	-0.206191
H92	H	1.079864	0.120720	-0.274818
H93	H	0.981294	0.059771	-0.312950
H94	H	0.807383	-0.000124	0.408819
H95	H	0.715768	-0.000111	0.269475
H96	H	1.693091	-0.000080	-0.315785
O97	O	1.651892	0.405249	0.012008
C98	C	1.729330	0.349666	0.056972
H99	H	1.731510	0.378579	0.122547
H100	H	1.689970	0.276945	0.061106
C101	C	1.861464	0.312618	-0.068619
C102	C	1.864150	0.348134	0.011920
H103	H	1.944626	0.311668	-0.096410
H104	H	1.809291	0.350062	-0.098913
H105	H	1.828658	0.252020	-0.065163
H106	H	1.896940	0.408734	0.008463
H107	H	1.916332	0.310700	0.042213
O108	O	1.141963	-0.000081	-0.024619
C109	C	1.069320	-0.000068	-0.092905
H110	H	0.971560	-0.028951	-0.072371
H111	H	1.059974	0.073084	-0.116416
C112	C	1.254725	-0.024380	-0.188700
C113	C	1.134657	-0.059862	-0.163480
H114	H	1.295029	-0.061260	-0.232235
H115	H	1.303667	-0.024385	-0.142694
H116	H	1.246919	0.036579	-0.208286
H117	H	1.142465	-0.120815	-0.143885
H118	H	1.085718	-0.059869	-0.209484
