data_functionalizedCrystal
_audit_creation_method	'MofGen! by Chris Wilmer'
_symmetry_space_group_name_H-M	'P1'
_symmetry_Int_Tables_number	1
_symmetry_cell_setting	triclinic
loop_
_symmetry_equiv_pos_as_xyz
  x,y,z
_cell_length_a	10.654550
_cell_length_b	11.792241
_cell_length_c	9.730223
_cell_angle_alpha	89.998500
_cell_angle_beta	89.996251
_cell_angle_gamma	84.339159
loop_
_atom_site_label
_atom_site_type_symbol
_atom_site_fract_x
_atom_site_fract_y
_atom_site_fract_z
O1	O	1.667383	0.159415	-0.114404
O2	O	1.301862	0.174603	-0.114382
O3	O	1.493493	0.001859	-0.114383
O4	O	1.475752	0.332159	-0.114402
O5	O	1.493490	0.001863	0.114196
O6	O	1.301859	0.174608	0.114198
O7	O	1.667381	0.159419	0.114176
Zn8	Zn	1.484620	0.167014	0.150479
Zn9	Zn	1.484623	0.167008	-0.150685
O10	O	1.475750	0.332163	0.114178
C11	C	1.255066	0.173490	-0.000089
C12	C	1.115632	0.170154	-0.000080
C13	C	1.035858	0.271863	-0.000106
C14	C	0.904847	0.268721	-0.000129
C15	C	0.933394	0.062152	-0.000107
C16	C	1.064404	0.065295	-0.000074
C17	C	1.019376	0.391124	-0.000124
C18	C	0.888364	0.387982	-0.000148
C19	C	1.492377	-0.040432	-0.000094
C20	C	1.489042	-0.166454	-0.000095
C21	C	1.482908	-0.397180	-0.000118
C22	C	1.486316	-0.268787	-0.000105
C23	C	1.714177	0.160532	-0.000120
C24	C	1.853611	0.163869	-0.000137
C25	C	1.476865	0.374455	-0.000114
C26	C	1.480201	0.500476	-0.000122
N27	N	1.484627	0.167017	0.356016
N28	N	1.484625	0.166996	-0.356221
C29	C	1.569503	0.090552	0.427941
C30	C	1.569500	0.090539	0.571824
C31	C	1.399740	0.243465	0.571844
C32	C	1.399739	0.243472	0.427963
C33	C	1.667516	0.002265	0.427931
C34	C	1.667513	0.002251	0.571814
H35	H	0.842589	0.424026	0.098534
O36	O	1.776303	0.035213	0.374898
C37	C	1.980653	0.097285	0.422634
C38	C	1.857532	0.059961	0.482878
H39	H	2.046350	0.117326	0.509906
H40	H	2.028548	0.025672	0.356733
H41	H	1.958166	0.176572	0.356645
H42	H	1.879910	-0.019301	0.548928
H43	H	1.809672	0.131641	0.548700
H44	H	1.048574	0.437768	0.095539
O45	O	1.782477	0.025589	0.618565
C46	C	1.899124	0.151832	0.751791
C47	C	1.768855	0.125520	0.698969
H48	H	1.888158	0.232639	0.816784
H49	H	1.942251	0.077619	0.816954
H50	H	1.963426	0.164754	0.660644
H51	H	1.704457	0.112620	0.790032
H52	H	1.725831	0.199746	0.633763
H53	H	0.891668	-0.023221	-0.000123
O54	O	1.317113	0.317617	0.641677
C55	C	1.099195	0.382320	0.685653
C56	C	1.192631	0.298260	0.606509
H57	H	0.998531	0.366716	0.657227
H58	H	1.113662	0.369177	0.800859
H59	H	1.116231	0.473364	0.657390
H60	H	1.175652	0.207183	0.634657
H61	H	1.178142	0.311502	0.491322
O62	O	1.631461	-0.096204	0.624833
C63	C	1.563555	-0.281136	0.577074
C64	C	1.604368	-0.169703	0.516844
H65	H	1.541614	-0.340581	0.489795
H66	H	1.642979	-0.324163	0.642945
H67	H	1.475762	-0.261121	0.643091
H68	H	1.692132	-0.189619	0.450766
H69	H	1.524869	-0.126707	0.451052
H70	H	1.330615	0.305726	0.369403
O71	O	1.061708	0.436622	-0.117776
C72	C	1.053160	0.600476	-0.266696
C73	C	1.005139	0.549104	-0.133402
H74	H	1.007424	0.691417	-0.279387
H75	H	1.159976	0.601087	-0.261267
H76	H	1.027564	0.546913	-0.358174
H77	H	1.030644	0.602624	-0.041855
H78	H	0.898331	0.548473	-0.138950
H79	H	1.129352	-0.017527	-0.000033
H80	H	0.846505	0.432916	-0.095818
H81	H	1.646320	-0.084976	0.388883
