data_functionalizedCrystal
_audit_creation_method	'MofGen! by Chris Wilmer'
_symmetry_space_group_name_H-M	'P1'
_symmetry_Int_Tables_number	1
_symmetry_cell_setting	triclinic
loop_
_symmetry_equiv_pos_as_xyz
  x,y,z
_cell_length_a	23.532361
_cell_length_b	23.532357
_cell_length_c	12.996460
_cell_angle_alpha	89.988323
_cell_angle_beta	89.998689
_cell_angle_gamma	82.828980
loop_
_atom_site_label
_atom_site_type_symbol
_atom_site_fract_x
_atom_site_fract_y
_atom_site_fract_z
O1	O	0.755265	0.069011	-0.085476
O2	O	0.589396	0.079042	-0.085502
O3	O	0.677347	-0.008908	-0.085467
O4	O	0.667314	0.156961	-0.085511
O5	O	0.677338	-0.008912	0.085667
O6	O	0.589387	0.079038	0.085631
O7	O	0.755256	0.069006	0.085658
Cu8	Cu	0.672321	0.074022	0.101271
Cu9	Cu	0.672331	0.074027	-0.101115
O10	O	0.667305	0.156957	0.085623
C11	C	0.568175	0.078789	0.000061
C12	C	0.504957	0.078034	0.000052
C13	C	0.231719	0.074733	-0.093226
C14	C	0.291118	0.075448	-0.093228
O15	O	0.321848	0.075800	-0.172562
N16	N	0.320819	0.075806	0.000057
C17	C	0.291118	0.075444	0.093351
O18	O	0.321835	0.075814	0.172697
C19	C	0.231720	0.074725	0.093353
C20	C	0.202021	0.074372	0.000061
C21	C	0.202020	0.074379	-0.186509
C22	C	0.142625	0.073665	-0.186506
C23	C	0.112927	0.073305	-0.093219
C24	C	0.142626	0.073658	0.000064
C25	C	0.202020	0.074359	0.186646
C26	C	0.142618	0.073639	0.186639
C27	C	0.112920	0.073286	0.093348
C28	C	0.053533	0.072584	0.093354
N29	N	0.023832	0.072225	0.000069
C30	C	0.053529	0.072586	-0.093218
C31	C	0.415858	0.076953	0.093341
C32	C	0.475254	0.077676	0.093340
C33	C	0.475251	0.077679	-0.093240
C34	C	0.415853	0.076960	-0.093238
C35	C	0.386157	0.076594	0.000055
C36	C	-0.071206	0.071087	-0.093204
C37	C	-0.130607	0.070376	-0.093193
C38	C	-0.130598	0.070370	0.093386
C39	C	-0.071203	0.071085	0.093376
C40	C	-0.041508	0.071441	0.000072
O41	O	0.022765	0.072229	0.172648
O42	O	0.022806	0.072208	-0.172551
C43	C	0.677092	-0.030127	0.000103
C44	C	0.676337	-0.093345	0.000112
C45	C	0.671605	-0.485353	-0.093229
C46	C	0.670888	-0.544752	-0.093235
O47	O	0.670502	-0.575466	-0.172570
N48	N	0.670527	-0.574466	0.000049
C49	C	0.670878	-0.544777	0.093345
O50	O	0.670505	-0.575505	0.172689
C51	C	0.671591	-0.485378	0.093349
C52	C	0.671958	-0.455668	0.000060
C53	C	0.671971	-0.455643	-0.186511
C54	C	0.672689	-0.396248	-0.186505
C55	C	0.673042	-0.366563	-0.093216
C56	C	0.672676	-0.396273	0.000066
C57	C	0.671938	-0.455689	0.186644
C58	C	0.672651	-0.396286	0.186641
C59	C	0.673017	-0.366576	0.093351
C60	C	0.673747	-0.307193	0.093361
N61	N	0.674108	-0.277479	0.000077
C62	C	0.673755	-0.307164	-0.093211
C63	C	0.669380	-0.669518	0.093327
C64	C	0.668671	-0.728916	0.093323
C65	C	0.668679	-0.728888	-0.093257
C66	C	0.669392	-0.669489	-0.093252
C67	C	0.669740	-0.639804	0.000043
C68	C	0.675264	-0.182430	-0.093191
C69	C	0.675985	-0.123030	-0.093176
C70	C	0.675973	-0.123063	0.093403
C71	C	0.675255	-0.182459	0.093389
C72	C	0.674899	-0.212140	0.000084
O73	O	0.674131	-0.276441	0.172656
O74	O	0.674121	-0.276428	-0.172542
C75	C	0.776477	0.069260	0.000092
C76	C	0.839695	0.070015	0.000094
C77	C	0.667560	0.178176	0.000050
C78	C	0.668315	0.241394	0.000034
N79	N	0.672317	0.074017	0.243618
N80	N	0.672339	0.074027	-0.243462
C81	C	0.672331	0.074028	0.663432
C82	C	0.672325	0.074027	0.546627
C83	C	0.672324	0.074023	0.453528
C84	C	0.672318	0.074021	0.336716
H85	H	0.391682	0.076663	0.169316
F86	F	0.668300	-0.760491	-0.192543
H87	H	0.499428	0.077973	0.169307
F88	F	0.671595	-0.487227	-0.285811
H89	H	0.674971	-0.206589	-0.169169
H90	H	0.118450	0.073376	-0.262474
F91	F	0.668291	-0.760531	0.192615
F92	F	0.674876	-0.214081	0.192678
F93	F	0.233614	0.074734	0.285941
F94	F	0.673075	-0.364635	-0.285798
H95	H	0.669690	-0.645303	-0.169217
F96	F	0.669754	-0.637931	0.192631
H97	H	0.672926	-0.372119	0.262615
H98	H	-0.154789	0.070079	0.169338
F99	F	0.676349	-0.091460	0.192682
F100	F	-0.162211	0.070002	-0.192491
F101	F	-0.039611	0.071467	-0.192508
H102	H	-0.047023	0.071383	0.169341
F103	F	0.233618	0.074761	-0.285807
F104	F	0.384251	0.076583	-0.192531
H105	H	0.499441	0.077972	-0.169199
F106	F	0.676376	-0.091414	-0.192472
F107	F	0.671546	-0.487295	0.285938
H108	H	0.118442	0.073347	0.262612
