data_functionalizedCrystal
_audit_creation_method	'MofGen! by Chris Wilmer'
_symmetry_space_group_name_H-M	'P1'
_symmetry_Int_Tables_number	1
_symmetry_cell_setting	triclinic
loop_
_symmetry_equiv_pos_as_xyz
  x,y,z
_cell_length_a	10.654550
_cell_length_b	14.971494
_cell_length_c	9.730223
_cell_angle_alpha	89.997316
_cell_angle_beta	89.999957
_cell_angle_gamma	84.051244
loop_
_atom_site_label
_atom_site_type_symbol
_atom_site_fract_x
_atom_site_fract_y
_atom_site_fract_z
O1	O	1.666497	0.125631	-0.114182
O2	O	2.166497	0.625631	0.385818
O3	O	1.300890	0.137600	-0.114206
O4	O	1.800890	0.637600	0.385794
O5	O	1.493487	0.001469	-0.114190
O6	O	1.993487	0.501469	0.385810
O7	O	1.473900	0.261761	-0.114198
O8	O	1.973900	0.761761	0.385802
O9	O	1.493475	0.001465	0.114390
O10	O	1.993475	0.501465	0.614390
O11	O	1.300878	0.137596	0.114374
O12	O	1.800878	0.637596	0.614374
O13	O	1.666484	0.125627	0.114398
O14	O	2.166484	0.625627	0.614398
Zn15	Zn	1.483679	0.131611	0.150678
Zn16	Zn	1.983679	0.631611	0.650678
Zn17	Zn	1.483695	0.131616	-0.150486
Zn18	Zn	1.983695	0.631616	0.349514
O19	O	1.473887	0.261758	0.114382
O20	O	1.973887	0.761758	0.614382
C21	C	1.254095	0.136719	0.000080
C22	C	1.754095	0.636719	0.500080
C23	C	1.114680	0.134090	0.000071
C24	C	1.614680	0.634090	0.500071
C25	C	1.034338	0.214241	0.000073
C26	C	1.534338	0.714241	0.500073
C27	C	0.903344	0.211765	0.000097
C28	C	1.403344	0.711765	0.500097
C29	C	0.933047	0.048979	0.000112
C30	C	1.433047	0.548979	0.500112
C31	C	1.064038	0.051456	0.000097
C32	C	1.564038	0.551456	0.500097
C33	C	1.492603	-0.031862	0.000098
C34	C	1.992603	0.468138	0.500098
C35	C	1.489972	-0.131173	0.000091
C36	C	1.989972	0.368827	0.500091
C37	C	1.488746	-0.177823	-0.124510
C38	C	1.988746	0.322177	0.375490
C39	C	1.486266	-0.271135	-0.124511
C40	C	1.986266	0.228865	0.375489
C41	C	1.485022	-0.317798	0.000089
C42	C	1.985022	0.182202	0.500089
C43	C	1.486244	-0.271141	0.124699
C44	C	1.986244	0.228859	0.624699
C45	C	1.488715	-0.177830	0.124699
C46	C	1.988715	0.322170	0.624699
C47	C	1.481097	-0.465632	0.124689
C48	C	1.981097	0.034368	0.624689
C49	C	1.478628	-0.558951	0.124690
C50	C	1.978628	-0.058951	0.624690
C51	C	1.478648	-0.558938	-0.124521
C52	C	1.978648	-0.058938	0.375479
C53	C	1.481119	-0.465626	-0.124521
C54	C	1.981119	0.034374	0.375479
C55	C	1.482344	-0.418977	0.000090
C56	C	1.982344	0.081023	0.500090
C57	C	1.713279	0.126507	0.000109
C58	C	2.213279	0.626507	0.500109
C59	C	1.852694	0.129137	0.000109
C60	C	2.352694	0.629137	0.500109
C61	C	1.474771	0.295089	0.000091
C62	C	1.974771	0.795089	0.500091
C63	C	1.477402	0.394400	0.000089
C64	C	1.977402	0.894400	0.500089
N65	N	1.483677	0.131607	0.356214
N66	N	1.983677	0.631607	0.856214
N67	N	1.483707	0.131613	-0.356022
N68	N	1.983707	0.631613	0.143978
C69	C	1.568988	0.071354	0.428147
C70	C	2.068988	0.571354	0.928147
C71	C	1.569000	0.071354	0.572030
C72	C	2.069000	0.571354	1.072030
C73	C	1.398387	0.191869	0.572035
C74	C	1.898387	0.691869	1.072035
C75	C	1.398370	0.191863	0.428154
C76	C	1.898370	0.691863	0.928154
H77	H	0.891797	-0.018299	0.000141
H78	H	1.391797	0.481701	0.500141
Br79	Br	1.282573	0.273634	0.330519
Br80	Br	1.782573	0.773634	0.830519
Br81	Br	1.490448	-0.114506	-0.293620
Br82	Br	1.990448	0.385494	0.206380
H83	H	1.638449	0.022288	0.369577
H84	H	2.138449	0.522288	0.869577
H85	H	1.129457	-0.013817	0.000100
H86	H	1.629457	0.486183	0.500100
H87	H	1.482142	-0.427637	-0.225982
H88	H	1.982142	0.072363	0.274018
H89	H	1.485223	-0.309140	0.226151
H90	H	1.985223	0.190860	0.726151
H91	H	1.482067	-0.427651	0.226161
H92	H	1.982067	0.072349	0.726161
Br93	Br	0.794312	0.320548	0.000106
Br94	Br	1.294312	0.820548	0.500106
H95	H	1.485273	-0.309114	-0.225974
H96	H	1.985273	0.190886	0.274026
Br97	Br	1.103063	0.326386	0.000041
Br98	Br	1.603063	0.826386	0.500041
Br99	Br	1.684778	-0.010425	0.669651
Br100	Br	2.184778	0.489575	1.169651
Br101	Br	1.476945	-0.622279	0.293791
Br102	Br	1.976945	-0.122279	0.793791
Br103	Br	1.476980	-0.622246	-0.293637
Br104	Br	1.976980	-0.122246	0.206363
Br105	Br	1.490372	-0.114518	0.293807
Br106	Br	1.990372	0.385482	0.793807
Br107	Br	1.282620	0.273644	0.669672
Br108	Br	1.782620	0.773644	1.169672
