data_functionalizedCrystal
_audit_creation_method	'MofGen! by Chris Wilmer'
_symmetry_space_group_name_H-M	'P1'
_symmetry_Int_Tables_number	1
_symmetry_cell_setting	triclinic
loop_
_symmetry_equiv_pos_as_xyz
  x,y,z
_cell_length_a	10.654558
_cell_length_b	10.540539
_cell_length_c	9.730223
_cell_angle_alpha	90.003163
_cell_angle_beta	90.000053
_cell_angle_gamma	84.506904
loop_
_atom_site_label
_atom_site_type_symbol
_atom_site_fract_x
_atom_site_fract_y
_atom_site_fract_z
O1	O	1.667891	0.178353	0.114264
O2	O	1.302420	0.195329	0.114270
O3	O	1.493493	0.002132	0.114265
O4	O	1.476817	0.371550	0.114269
O5	O	1.493491	0.002122	-0.114315
O6	O	1.302417	0.195319	-0.114310
O7	O	1.667888	0.178343	-0.114316
Zn8	Zn	1.485152	0.186830	-0.150605
Zn9	Zn	1.485156	0.186842	0.150559
O10	O	1.476815	0.371541	-0.114311
C11	C	1.255620	0.194076	-0.000019
C12	C	1.116176	0.190340	-0.000017
C13	C	0.919637	0.185093	0.124583
C14	C	1.050661	0.188592	0.124584
C15	C	1.050662	0.188575	-0.124626
C16	C	0.919642	0.185067	-0.124626
C17	C	0.854127	0.183359	0.249191
C18	C	0.919632	0.185121	0.373802
C19	C	1.050656	0.188620	0.373803
C20	C	1.116175	0.190357	0.249194
C21	C	1.492241	-0.045176	-0.000022
C22	C	1.488500	-0.186123	-0.000015
C23	C	1.345129	-0.369502	0.000500
C24	C	1.348922	-0.222885	-0.000014
C25	C	1.555670	-0.247808	-0.130547
C26	C	1.550906	-0.394351	-0.130656
C27	C	1.553748	-0.394859	0.129282
C28	C	1.555033	-0.247878	0.131007
C29	C	1.714688	0.179597	-0.000024
C30	C	1.854132	0.183333	-0.000018
C31	C	1.478067	0.418848	-0.000021
C32	C	1.481808	0.559795	-0.000019
N33	N	1.485159	0.186842	0.356095
N34	N	1.485159	0.186820	-0.356141
C35	C	1.569925	0.101462	0.428019
C36	C	1.569929	0.101454	0.571902
C37	C	1.400389	0.272209	0.571925
C38	C	1.400392	0.272222	0.428044
C39	C	1.654692	0.016081	0.356070
C40	C	1.739464	-0.069306	0.427994
C41	C	1.739468	-0.069314	0.571877
C42	C	1.654699	0.016065	0.643836
H43	H	0.866280	0.183698	0.475254
C44	C	0.847579	0.183135	-0.261688
C45	C	0.770779	0.070681	-0.295958
C46	C	0.698718	0.068744	-0.433024
C47	C	0.703457	0.179260	-0.535820
C48	C	0.780260	0.291722	-0.501553
C49	C	0.852321	0.293660	-0.364487
H50	H	0.767269	-0.011137	-0.219860
H51	H	0.641864	-0.014509	-0.458390
H52	H	0.650114	0.177825	-0.637284
H53	H	0.783771	0.373540	-0.577651
H54	H	0.909175	0.376912	-0.339121
H55	H	1.656796	-0.223689	0.138888
H56	H	1.808501	-0.138831	0.630436
H57	H	1.501262	-0.422538	-0.228230
H58	H	1.808487	-0.138812	0.369398
H59	H	1.654718	0.016060	0.760995
H60	H	1.289993	-0.398080	0.094107
C61	C	1.488740	-0.192547	0.261470
C62	C	1.374729	-0.091765	0.249152
C63	C	1.308434	-0.036425	0.379612
C64	C	1.356150	-0.081866	0.522390
C65	C	1.470168	-0.182654	0.534714
C66	C	1.536462	-0.237994	0.404254
H67	H	1.339401	-0.058122	0.143454
H68	H	1.224031	0.038185	0.370488
H69	H	1.307075	-0.040900	0.618964
H70	H	1.505495	-0.216297	0.640412
H71	H	1.620865	-0.312604	0.413378
H72	H	1.331368	0.341748	0.369483
C73	C	1.686511	-0.459203	-0.138682
C74	C	1.737890	-0.549460	-0.023035
C75	C	1.873493	-0.614303	-0.031071
C76	C	1.957716	-0.588888	-0.154753
C77	C	1.906339	-0.498626	-0.270408
C78	C	1.770736	-0.433784	-0.262373
H79	H	1.675541	-0.568278	0.068529
H80	H	1.911525	-0.681120	0.054546
H81	H	2.058098	-0.636888	-0.160701
H82	H	1.968687	-0.479809	-0.361973
H83	H	1.732703	-0.366966	-0.347989
H84	H	1.222864	0.193199	0.249205
H85	H	1.296069	-0.180261	0.093556
H86	H	1.331372	0.341721	0.630523
C87	C	1.492724	-0.437447	0.262942
C88	C	1.570416	-0.524989	0.364728
C89	C	1.509378	-0.567575	0.498380
C90	C	1.370647	-0.522619	0.530247
C91	C	1.292947	-0.435073	0.428459
C92	C	1.353986	-0.392487	0.294807
H93	H	1.673120	-0.558272	0.341140
H94	H	1.566897	-0.632383	0.573729
H95	H	1.325463	-0.554144	0.629184
H96	H	1.190243	-0.401790	0.452046
H97	H	1.296466	-0.327679	0.219457
H98	H	1.103988	0.190043	0.475267
H99	H	1.654564	-0.442118	0.130158
C100	C	1.270943	-0.410276	-0.125250
C101	C	1.219209	-0.310046	-0.231200
C102	C	1.145030	-0.350822	-0.356954
C103	C	1.122584	-0.491829	-0.376759
C104	C	1.174320	-0.592068	-0.270807
C105	C	1.248499	-0.551292	-0.145052
H106	H	1.235823	-0.205656	-0.216542
H107	H	1.106732	-0.276617	-0.435387
H108	H	1.067672	-0.522014	-0.469850
H109	H	1.157705	-0.696458	-0.285465
H110	H	1.286796	-0.625496	-0.066619
H111	H	0.747441	0.180514	0.249204
H112	H	1.654694	0.016078	0.238913
H113	H	1.295697	-0.181116	-0.093738
C114	C	1.694132	-0.217621	-0.137124
C115	C	1.741109	-0.144314	-0.260864
C116	C	1.879566	-0.114109	-0.267439
C117	C	1.971047	-0.157210	-0.150274
C118	C	1.924072	-0.230521	-0.026525
C119	C	1.785614	-0.260727	-0.019949
H120	H	1.673388	-0.112404	-0.347605
H121	H	1.914340	-0.059839	-0.359047
H122	H	2.073541	-0.134850	-0.155141
H123	H	1.991792	-0.262432	0.060216
H124	H	1.750841	-0.314997	0.071659
H125	H	1.104018	0.189992	-0.226077
H126	H	1.509008	-0.205197	-0.227682
