data_functionalizedCrystal
_audit_creation_method	'MofGen! by Chris Wilmer'
_symmetry_space_group_name_H-M	'P1'
_symmetry_Int_Tables_number	1
_symmetry_cell_setting	triclinic
loop_
_symmetry_equiv_pos_as_xyz
  x,y,z
_cell_length_a	8.597340
_cell_length_b	8.634740
_cell_length_c	7.681459
_cell_angle_alpha	83.367599
_cell_angle_beta	103.474216
_cell_angle_gamma	92.880213
loop_
_atom_site_label
_atom_site_type_symbol
_atom_site_fract_x
_atom_site_fract_y
_atom_site_fract_z
O1	O	2.132595	0.213251	0.177131
O2	O	2.632595	0.713251	0.677131
O3	O	1.672308	0.237820	0.107294
O4	O	2.172308	0.737820	0.607294
O5	O	1.880664	0.001061	0.138911
O6	O	2.380664	0.501061	0.638911
O7	O	1.924240	0.450011	0.145514
O8	O	2.424240	0.950011	0.645514
O9	O	1.906295	-0.028143	0.435658
O10	O	2.406295	0.471857	0.935658
O11	O	1.697940	0.208617	0.404042
O12	O	2.197940	0.708617	0.904042
O13	O	2.158227	0.184048	0.473878
O14	O	2.658227	0.684048	0.973878
Zn15	Zn	1.932153	0.191696	0.486075
Zn16	Zn	2.432153	0.691696	0.986075
Zn17	Zn	1.898382	0.230172	0.095098
Zn18	Zn	2.398382	0.730172	0.595098
O19	O	1.949871	0.420808	0.442262
O20	O	2.449871	0.920808	0.942262
C21	C	1.625585	0.222207	0.246635
C22	C	2.125585	0.722207	0.746635
C23	C	1.448176	0.219174	0.219717
C24	C	1.948176	0.719174	0.719717
C25	C	1.883608	-0.070991	0.285784
C26	C	2.383608	0.429009	0.785784
C27	C	1.854173	-0.242172	0.281310
C28	C	2.354173	0.257828	0.781310
C29	C	2.204949	0.199662	0.334534
C30	C	2.704949	0.699662	0.834534
C31	C	2.382358	0.202696	0.361440
C32	C	2.882358	0.702696	0.861440
C33	C	1.946927	0.492859	0.295385
C34	C	2.446927	0.992859	0.795385
C35	C	1.976361	0.664041	0.299847
C36	C	2.476361	1.164041	0.799847
N37	N	1.955212	0.165435	0.752908
N38	N	2.455212	0.665435	1.252908
N39	N	1.875323	0.256433	0.828264
N40	N	2.375323	0.756433	1.328264
H41	H	1.461733	0.190897	0.503375
H42	H	1.961733	0.690897	1.003375
H43	H	1.368792	0.230962	0.077773
H44	H	1.868792	0.730962	0.577773
Cl45	Cl	2.172642	-0.257743	0.329618
Cl46	Cl	2.672642	0.242257	0.829618
H47	H	1.727036	-0.292841	0.262009
H48	H	2.227036	0.207159	0.762009
Cl49	Cl	1.749410	0.399835	0.693062
Cl50	Cl	2.249410	0.899835	1.193062
H51	H	2.036782	0.072561	0.840492
H52	H	2.536782	0.572561	1.340492
