data_functionalizedCrystal
_audit_creation_method	'MofGen! by Chris Wilmer'
_symmetry_space_group_name_H-M	'P1'
_symmetry_Int_Tables_number	1
_symmetry_cell_setting	triclinic
loop_
_symmetry_equiv_pos_as_xyz
  x,y,z
_cell_length_a	14.908742
_cell_length_b	14.908178
_cell_length_c	17.077396
_cell_angle_alpha	93.326565
_cell_angle_beta	86.716548
_cell_angle_gamma	90.210560
loop_
_atom_site_label
_atom_site_type_symbol
_atom_site_fract_x
_atom_site_fract_y
_atom_site_fract_z
Zn1	Zn	1.353940	-0.437273	0.353739
Zn2	Zn	1.687274	-0.103939	0.687072
Zn3	Zn	2.020607	0.229394	1.020406
Zn4	Zn	1.345170	-0.587650	0.215359
Zn5	Zn	1.678503	-0.254317	0.548693
Zn6	Zn	2.011836	0.079017	0.882026
Zn7	Zn	1.203581	-0.428632	0.230488
Zn8	Zn	1.536915	-0.095299	0.563821
Zn9	Zn	1.870248	0.238035	0.897154
Zn10	Zn	1.194885	-0.578929	0.354584
Zn11	Zn	1.528219	-0.245595	0.687917
Zn12	Zn	1.861552	0.087738	1.021251
O13	O	1.274394	-0.508121	0.288542
O14	O	1.607728	-0.174788	0.621876
O15	O	1.941061	0.158546	0.955209
O16	O	1.478597	-0.464487	0.328698
O17	O	1.811930	-0.131153	0.662031
O18	O	2.145264	0.202180	0.995364
O19	O	1.326357	-0.566590	0.107519
O20	O	1.659690	-0.233257	0.440852
O21	O	1.993023	0.100077	0.774186
O22	O	1.230837	-0.303945	0.252815
O23	O	1.564170	0.029388	0.586148
O24	O	1.897503	0.362721	0.919482
O25	O	1.472153	-0.574968	0.227031
O26	O	1.805487	-0.241635	0.560364
O27	O	2.138820	0.091698	0.893697
O28	O	1.341305	-0.310293	0.343367
O29	O	1.674638	0.023040	0.676700
O30	O	2.007971	0.356373	1.010034
O31	O	1.222332	-0.449760	0.118634
O32	O	1.555666	-0.116427	0.451967
O33	O	1.888999	0.216907	0.785300
O34	O	1.076608	-0.441303	0.253634
O35	O	1.409941	-0.107970	0.586967
O36	O	1.743274	0.225363	0.920301
O37	O	1.216016	-0.560104	0.464319
O38	O	1.549349	-0.226770	0.797652
O39	O	1.882682	0.106563	1.130986
O40	O	1.070219	-0.551725	0.344807
O41	O	1.403552	-0.218392	0.678140
O42	O	1.736885	0.114941	1.011474
O43	O	1.332873	-0.456030	0.463698
O44	O	1.666206	-0.122696	0.797031
O45	O	1.999539	0.210637	1.130365
O46	O	1.317924	-0.712326	0.227850
O47	O	1.651258	-0.378993	0.561183
O48	O	1.984591	-0.045660	0.894517
O49	O	1.207511	-0.705919	0.330138
O50	O	1.540844	-0.372585	0.663471
O51	O	1.874178	-0.039252	0.996804
C52	C	1.040789	-0.494631	0.300954
C53	C	1.374123	-0.161298	0.634288
C54	C	1.707456	0.172036	0.967621
C55	C	0.940851	-0.488882	0.306282
C56	C	1.274184	-0.155548	0.639615
C57	C	1.607518	0.177785	0.972948
C58	C	0.803337	-0.423358	0.366790
C59	C	1.136671	-0.090025	0.700124
C60	C	1.470004	0.243309	1.033457
C61	C	0.897239	-0.428752	0.361789
C62	C	1.230572	-0.095419	0.695123
C63	C	1.563906	0.237914	1.028456
C64	C	0.890554	-0.543622	0.255773
C65	C	1.223888	-0.210289	0.589107
C66	C	1.557221	0.123044	0.922440
C67	C	0.796653	-0.538228	0.260775
C68	C	1.129986	-0.204895	0.594108
C69	C	1.463320	0.128439	0.927441
C70	C	0.753048	-0.478093	0.316284
C71	C	1.086381	-0.144760	0.649618
C72	C	1.419715	0.188574	0.982951
C73	C	0.659145	-0.472695	0.321281
C74	C	0.992478	-0.139361	0.654615
C75	C	1.325812	0.193972	0.987948
C76	C	0.652462	-0.587569	0.215270
C77	C	0.985795	-0.254235	0.548603
C78	C	1.319129	0.079098	0.881936
C79	C	0.746364	-0.592963	0.210268
C80	C	1.079697	-0.259630	0.543602
C81	C	1.413030	0.073704	0.876935
C82	C	1.260847	-0.741751	0.277460
C83	C	1.594180	-0.408418	0.610793
C84	C	1.927513	-0.075084	0.944126
C85	C	1.255133	-0.841704	0.272740
C86	C	1.588467	-0.508370	0.606074
C87	C	1.921800	-0.175037	0.939407
C88	C	1.359341	-1.035981	0.358277
C89	C	1.692674	-0.702647	0.691610
C90	C	2.026007	-0.369314	1.024943
C91	C	1.353975	-1.129895	0.353845
C92	C	1.687309	-0.796562	0.687178
C93	C	2.020642	-0.463228	1.020512
C94	C	1.239034	-1.123449	0.259450
C95	C	1.572367	-0.790115	0.592783
C96	C	1.905701	-0.456782	0.926116
C97	C	1.244399	-1.029534	0.263882
C98	C	1.577733	-0.696201	0.597215
C99	C	1.911066	-0.362867	0.930548
C100	C	1.304555	-0.985804	0.313296
C101	C	1.637889	-0.652470	0.646629
C102	C	1.971222	-0.319137	0.979962
C103	C	1.309924	-0.891887	0.317723
C104	C	1.643258	-0.558554	0.651056
C105	C	1.976591	-0.225221	0.984390
C106	C	1.194979	-0.885443	0.223332
C107	C	1.528313	-0.552109	0.556666
C108	C	1.861646	-0.218776	0.889999
C109	C	1.189614	-0.979357	0.218901
C110	C	1.522947	-0.646024	0.552234
C111	C	1.856281	-0.312691	0.885567
C112	C	1.508911	-0.521664	0.276083
C113	C	1.842245	-0.188331	0.609416
C114	C	2.175578	0.145003	0.942749
C115	C	1.608848	-0.527435	0.270773
C116	C	1.942182	-0.194102	0.604106
C117	C	2.275515	0.139231	0.937440
C118	C	1.274452	-0.508058	0.493287
C119	C	1.607786	-0.174724	0.826620
C120	C	1.941119	0.158609	1.159954
C121	C	1.274477	-0.508031	0.580537
C122	C	1.607811	-0.174698	0.913870
C123	C	1.941144	0.158636	1.247204
C124	C	1.288019	-0.273580	0.299684
C125	C	1.621352	0.059753	0.633018
C126	C	1.954686	0.393087	0.966351
C127	C	1.293825	-0.173633	0.304432
C128	C	1.627159	0.159701	0.637766
C129	C	1.960492	0.493034	0.971099
C130	C	1.274392	-0.508122	0.084595
C131	C	1.607725	-0.174789	0.417928
C132	C	1.941058	0.158545	0.751261
C133	C	1.274556	-0.507905	-0.002652
C134	C	1.607889	-0.174572	0.330681
C135	C	1.941222	0.158761	0.664015
C136	C	1.335327	-0.453835	0.621205
C137	C	1.668660	-0.120502	0.954539
C138	C	2.001994	0.212832	1.287872
C139	C	1.335340	-0.453806	0.703187
C140	C	1.668673	-0.120472	1.036520
C141	C	2.002006	0.212861	1.369853
C142	C	1.274506	-0.507978	0.744498
C143	C	1.607839	-0.174644	1.077831
C144	C	1.941173	0.158689	1.411164
C145	C	1.213650	-0.562176	0.703824
C146	C	1.546983	-0.228843	1.037157
C147	C	1.880316	0.104491	1.370491
C148	C	1.213634	-0.562200	0.621844
C149	C	1.546967	-0.228866	0.955178
C150	C	1.880300	0.104467	1.288511
C151	C	1.213689	-0.562124	0.874695
C152	C	1.547022	-0.228791	1.208028
C153	C	1.880356	0.104543	1.541361
C154	C	1.213706	-0.562101	0.956680
C155	C	1.547039	-0.228768	1.290013
C156	C	1.880373	0.104565	1.623346
C157	C	1.335395	-0.453730	0.956037
C158	C	1.668728	-0.120396	1.289370
C159	C	2.002062	0.212937	1.622704
C160	C	1.335379	-0.453754	0.874057
C161	C	1.668712	-0.120420	1.207391
C162	C	2.002046	0.212913	1.540724
C163	C	1.274524	-0.507953	0.833389
C164	C	1.607857	-0.174620	1.166722
C165	C	1.941190	0.158713	1.500056
H166	H	0.623643	-0.423726	0.366477
H167	H	0.956977	-0.090392	0.699810
H168	H	1.290310	0.242941	1.033143
H169	H	0.938181	-0.384182	0.402917
H170	H	1.271515	-0.050848	0.736250
H171	H	1.604848	0.282485	1.069583
F172	F	1.148902	-0.619826	0.747793
F173	F	1.482236	-0.286493	1.081126
F174	F	1.815569	0.046840	1.414459
F175	F	1.412283	-1.183294	0.401722
F176	F	1.745617	-0.849961	0.735055
F177	F	2.078950	-0.516627	1.068388
F178	F	1.148867	-0.619880	0.578563
F179	F	1.482200	-0.286547	0.911896
F180	F	1.815533	0.046787	1.245230
H181	H	0.767834	-0.374385	0.411981
H182	H	1.101167	-0.041052	0.745315
H183	H	1.434501	0.292282	1.078648
F184	F	1.400130	-0.396103	0.830092
F185	F	1.733463	-0.062770	1.163425
F186	F	2.066796	0.270563	1.496759
F187	F	0.936977	-0.607625	0.196707
F188	F	1.270310	-0.274291	0.530041
F189	F	1.603644	0.059042	0.863374
H190	H	1.190054	-1.159070	0.219223
H191	H	1.523387	-0.825737	0.552556
H192	H	1.856721	-0.492404	0.885890
F193	F	0.792781	-0.656962	0.151196
F194	F	1.126114	-0.323628	0.484530
F195	F	1.459448	0.009705	0.817863
F196	F	1.125589	-1.025908	0.166319
F197	F	1.458923	-0.692575	0.499652
F198	F	1.792256	-0.359241	0.832986
H199	H	1.164168	-0.606211	0.990313
H200	H	1.497501	-0.272878	1.323646
H201	H	1.830835	0.060456	1.656980
H202	H	1.150372	-0.844578	0.186703
H203	H	1.483705	-0.511244	0.520037
H204	H	1.817039	-0.177911	0.853370
F205	F	0.598934	-0.645821	0.161510
F206	F	0.932267	-0.312488	0.494844
F207	F	1.265600	0.020846	0.828177
F208	F	1.373950	-0.845347	0.370311
F209	F	1.707283	-0.512014	0.703644
F210	F	2.040616	-0.178681	1.036977
F211	F	1.423371	-0.989438	0.410858
F212	F	1.756704	-0.656104	0.744191
F213	F	2.090038	-0.322771	1.077524
H214	H	1.384868	-0.409725	0.587575
H215	H	1.718201	-0.076391	0.920909
H216	H	2.051534	0.256942	1.254242
H217	H	1.384892	-0.409676	0.736295
H218	H	1.718225	-0.076343	1.069628
H219	H	2.051558	0.256991	1.402962
H220	H	1.384944	-0.409597	0.989153
H221	H	1.718278	-0.076263	1.322486
H222	H	2.051611	0.257070	1.655820
H223	H	1.164121	-0.606244	0.841586
H224	H	1.497454	-0.272911	1.174920
H225	H	1.830787	0.060423	1.508253
