data_functionalizedCrystal
_audit_creation_method	'MofGen! by Chris Wilmer'
_symmetry_space_group_name_H-M	'P1'
_symmetry_Int_Tables_number	1
_symmetry_cell_setting	triclinic
loop_
_symmetry_equiv_pos_as_xyz
  x,y,z
_cell_length_a	9.482900
_cell_length_b	11.026607
_cell_length_c	13.185408
_cell_angle_alpha	80.279758
_cell_angle_beta	83.888230
_cell_angle_gamma	101.381932
loop_
_atom_site_label
_atom_site_type_symbol
_atom_site_fract_x
_atom_site_fract_y
_atom_site_fract_z
O1	O	-0.120908	-1.493053	-0.416622
O2	O	-0.120908	-1.155706	-0.367756
O3	O	-0.120897	-1.382175	-0.244787
O4	O	-0.120918	-1.266585	-0.539590
O5	O	0.120893	-1.336083	-0.269817
O6	O	0.120882	-1.109614	-0.392786
O7	O	0.120883	-1.446962	-0.441652
Cu8	Cu	0.142960	-1.274079	-0.419504
Cu9	Cu	-0.142985	-1.328588	-0.389903
O10	O	0.120872	-1.220493	-0.564620
C11	C	-0.000013	-1.090394	-0.371256
C12	C	-0.000013	-0.964456	-0.344382
N13	N	0.344078	-1.235749	-0.440325
N14	N	-0.344104	-1.366930	-0.369076
C15	C	-0.000002	-1.370848	-0.218974
C16	C	-0.000004	-1.405753	-0.104766
C17	C	0.583693	-1.285403	-0.413364
C18	C	0.416277	-1.317289	-0.396031
C19	C	-0.000016	-1.512275	-0.438152
C20	C	-0.000025	-1.638214	-0.465025
C21	C	-0.000019	-0.866418	-0.418585
C22	C	-0.000019	-0.736254	-0.390811
C23	C	-0.000026	-1.231820	-0.590433
C24	C	-0.000035	-1.196917	-0.704640
C25	C	-0.000000	-1.530031	-0.059293
C26	C	-0.000013	-1.562832	0.048012
C27	C	-0.000018	-1.471356	0.109854
C28	C	-0.000011	-1.347074	0.064380
C29	C	-0.000009	-1.314271	-0.042934
C30	C	-0.000027	-1.255597	0.126213
C31	C	-0.000020	-1.131314	0.080740
C32	C	-0.000017	-1.098517	-0.026565
C33	C	-0.000013	-1.189993	-0.088407
C34	C	-0.000029	-1.288399	0.233528
C35	C	-0.000038	-1.072639	0.249887
C36	C	-0.000025	-1.039838	0.142582
H37	H	0.645817	-1.191995	-0.464108
H38	H	0.593771	-1.460332	-0.318323
Cl39	Cl	-0.000024	-0.885596	-0.548417
H40	H	-0.000050	-0.723839	-0.306712
Cl41	Cl	-0.000014	-0.657377	-0.594865
Cl42	Cl	0.439980	-1.091525	-0.518676
Cl43	Cl	0.320376	-1.461504	-0.317667
Cl44	Cl	0.000007	-0.945276	-0.214551
H45	H	-0.000038	-1.389591	0.270542
H46	H	-0.000045	-0.998152	0.300240
H47	H	-0.000029	-0.997322	-0.063584
H48	H	-0.000029	-1.498071	0.197226
H49	H	-0.000018	-1.664023	0.085028
H50	H	0.000022	-1.604494	-0.109656
H51	H	0.000003	-1.163292	-0.175785
H52	H	-0.000019	-0.938645	0.105542
