data_functionalizedCrystal
_audit_creation_method	'MofGen! by Chris Wilmer'
_symmetry_space_group_name_H-M	'P1'
_symmetry_Int_Tables_number	1
_symmetry_cell_setting	triclinic
loop_
_symmetry_equiv_pos_as_xyz
  x,y,z
_cell_length_a	18.101398
_cell_length_b	18.101395
_cell_length_c	13.032268
_cell_angle_alpha	97.146252
_cell_angle_beta	97.167161
_cell_angle_gamma	90.029256
loop_
_atom_site_label
_atom_site_type_symbol
_atom_site_fract_x
_atom_site_fract_y
_atom_site_fract_z
Zn1	Zn	1.078926	-0.348003	-0.590736
Zn2	Zn	1.094557	-0.456134	-0.415994
Zn3	Zn	0.970817	-0.332309	-0.416024
Zn4	Zn	0.955039	-0.471800	-0.590697
O5	O	1.024835	-0.402061	-0.503363
O6	O	1.184632	-0.362359	-0.567561
O7	O	1.091288	-0.426584	-0.269767
O8	O	0.985220	-0.230761	-0.439229
O9	O	1.196116	-0.441802	-0.439179
O10	O	1.064647	-0.242291	-0.567589
O11	O	1.000377	-0.335610	-0.269788
O12	O	0.865092	-0.350801	-0.439190
O13	O	0.958328	-0.468502	-0.736934
O14	O	0.853500	-0.453284	-0.567522
O15	O	1.049347	-0.377549	-0.736963
O16	O	1.075988	-0.561842	-0.439140
O17	O	0.973485	-0.573352	-0.567493
C18	C	0.832425	-0.402040	-0.503356
C19	C	0.750109	-0.402052	-0.503377
C20	C	0.599401	-0.402065	-0.503376
C21	C	0.560789	-0.466622	-0.583993
C22	C	0.475193	-0.466832	-0.583755
C23	C	0.451018	-0.402079	-0.503376
C24	C	0.492000	-0.412988	-0.393114
C25	C	0.577603	-0.413438	-0.393581
C26	C	0.565297	-0.326370	-0.532057
C27	C	0.479428	-0.327018	-0.534485
C28	C	0.367159	-0.402085	-0.503369
C29	C	0.683260	-0.402060	-0.503375
C30	C	1.024739	-0.594469	-0.503332
C31	C	1.024762	-0.676785	-0.503354
C32	C	1.024919	-0.975881	-0.503410
C33	C	0.960542	-0.951847	-0.584367
C34	C	0.960293	-0.866206	-0.584114
C35	C	1.024841	-0.827496	-0.503383
C36	C	1.013629	-0.848741	-0.393254
C37	C	1.013217	-0.934430	-0.393738
C38	C	1.100721	-0.946764	-0.531613
C39	C	1.100043	-0.861331	-0.534029
C40	C	1.024799	-0.743635	-0.503361
C41	C	1.024961	-1.059742	-0.503425
C42	C	1.217996	-0.402083	-0.503371
C43	C	1.300310	-0.402092	-0.503374
C44	C	1.000334	-0.426524	-0.775924
C45	C	0.989893	-0.436948	-0.892074
C46	C	1.024950	-0.208904	-0.503417
C47	C	1.024999	-0.126592	-0.503439
C48	C	1.030273	-0.396594	-0.943871
C49	C	1.019482	-0.407367	-1.063918
C50	C	1.049283	-0.377641	-0.231862
C51	C	1.059868	-0.367008	-0.115713
H52	H	0.446837	-0.461192	-0.665498
Br53	Br	0.918950	-0.507822	-0.966280
H54	H	0.579805	-0.314452	-0.611104
H55	H	0.574026	-0.461156	-0.665991
Br56	Br	1.090050	-0.805506	-0.289971
H57	H	1.072829	-0.354067	-0.899343
Br58	Br	0.621502	-0.337556	-0.290002
Br59	Br	0.607899	-0.246413	-0.434197
Br60	Br	0.443834	-0.560668	-0.552075
Br61	Br	1.130818	-0.296134	-1.041514
Br62	Br	0.599427	-0.559930	-0.552674
H63	H	0.472740	-0.467355	-0.368461
Br64	Br	0.614481	-0.505160	-0.353202
Br65	Br	0.433430	-0.312993	-0.669736
Br66	Br	1.180464	-0.971694	-0.433354
Br67	Br	0.467355	-0.336303	-0.290244
H68	H	0.976916	-0.449890	-1.108442
H69	H	1.058611	-0.949538	-0.331363
Br70	Br	0.451946	-0.243939	-0.443843
H71	H	0.966159	-0.852487	-0.665774
H72	H	0.966253	-0.979764	-0.666292
H73	H	0.959158	-0.825167	-0.368933
H74	H	1.108678	-0.848258	-0.615078
Br75	Br	0.866309	-0.829356	-0.552986
Br76	Br	0.867113	-0.985078	-0.553652
Br77	Br	0.921355	-0.964255	-0.353915
H78	H	1.112877	-0.975413	-0.610551
H79	H	1.149749	-0.835002	-0.479361
