data_functionalizedCrystal
_audit_creation_method	'MofGen! by Chris Wilmer'
_symmetry_space_group_name_H-M	'P1'
_symmetry_Int_Tables_number	1
_symmetry_cell_setting	triclinic
loop_
_symmetry_equiv_pos_as_xyz
  x,y,z
_cell_length_a	18.426585
_cell_length_b	14.560438
_cell_length_c	14.560438
_cell_angle_alpha	60.001099
_cell_angle_beta	59.998545
_cell_angle_gamma	90.000540
loop_
_atom_site_label
_atom_site_type_symbol
_atom_site_fract_x
_atom_site_fract_y
_atom_site_fract_z
Zr1	Zr	0.699062	-0.120565	1.005361
O2	O	0.583176	-0.267211	1.196962
O3	O	0.734594	-0.075608	0.813753
O4	O	0.734584	-0.267212	1.005360
O5	O	0.583186	0.075532	1.005358
O6	O	0.854009	-0.267216	1.005366
O7	O	0.583186	-0.075606	1.005355
O8	O	0.854027	0.075529	0.662616
O9	O	0.583168	-0.267214	1.348108
O10	O	0.838866	-0.056440	0.892571
O11	O	0.749740	0.056356	0.892568
O12	O	0.749728	-0.169234	1.118161
O13	O	0.660603	-0.056438	1.118158
Zr14	Zr	0.889533	0.120477	1.005375
Zr15	Zr	0.889532	-0.120571	1.005371
Zr16	Zr	0.699063	0.120483	1.005365
Zr17	Zr	0.699050	-0.120570	1.246420
Zr18	Zr	0.889545	0.120481	0.764315
O19	O	0.854002	0.075520	1.196982
O20	O	0.854000	-0.267220	1.196977
O21	O	0.583177	0.075528	1.196968
O22	O	1.005419	0.267123	0.813773
O23	O	1.005418	-0.075617	0.813767
O24	O	0.734595	0.267132	0.813759
O25	O	1.005409	-0.075620	1.005378
O26	O	0.854012	0.267124	1.005375
O27	O	0.734586	0.267128	1.005369
O28	O	1.005409	0.075518	1.005380
O29	O	0.734567	-0.267219	1.348116
O30	O	0.854028	0.267130	0.662620
O31	O	1.005427	0.267126	0.662628
O32	O	1.005426	0.075525	0.662624
O33	O	0.583169	-0.075613	1.348111
O34	O	0.734568	-0.075618	1.348119
O35	O	0.838867	0.169146	0.892575
O36	O	0.927993	0.056350	0.892578
O37	O	0.838855	-0.056444	1.118167
O38	O	0.749729	0.056352	1.118164
C39	C	0.556048	-0.000036	1.005355
C40	C	0.475188	-0.000034	1.005351
C41	C	0.794312	-0.000039	0.703839
C42	C	0.794317	-0.000037	0.601503
C43	C	0.794299	0.301470	1.005373
C44	C	0.794299	0.403801	1.005374
C45	C	0.179074	-0.000054	1.005390
C46	C	0.261460	-0.000051	1.005384
C47	C	0.327128	-0.000045	1.005370
C48	C	0.409520	-0.000040	1.005364
C49	C	1.032547	-0.000052	1.005380
C50	C	1.113407	-0.000054	1.005385
C51	C	0.794296	-0.301559	1.005363
C52	C	0.794296	-0.403890	1.005361
C53	C	0.747772	0.393002	1.123128
C54	C	0.747767	0.489157	1.123122
C55	C	0.840825	0.606907	0.887598
C56	C	0.840824	0.510753	0.887606
C57	C	0.860086	0.083217	0.374016
C58	C	0.860108	0.083223	0.470151
C59	C	0.728506	-0.083314	0.636720
C60	C	0.728488	-0.083323	0.540585
C61	C	0.794283	-0.000050	1.306897
C62	C	0.794278	-0.000052	1.409233
C63	C	1.032562	-0.000046	0.703852
C64	C	1.113426	-0.000047	0.601520
C65	C	0.794313	0.301476	0.703844
C66	C	0.794319	0.403809	0.601509
C67	C	1.032563	0.301468	0.703857
C68	C	1.113428	0.403799	0.601527
C69	C	0.556032	-0.301556	1.306879
C70	C	0.475167	-0.403887	1.409209
C71	C	0.556034	-0.000042	1.306884
C72	C	0.475169	-0.000041	1.409216
C73	C	0.794282	-0.301564	1.306892
C74	C	0.794276	-0.403897	1.409226
C75	C	1.104878	-0.058933	0.553460
C76	C	1.180852	-0.058956	0.457322
C77	C	1.265373	-0.000086	0.409238
C78	C	1.273919	0.058801	0.457307
C79	C	1.197946	0.058817	0.553451
C80	C	1.197934	0.392976	0.553473
C81	C	1.273922	0.489117	0.457336
C82	C	1.265403	0.596080	0.409249
C83	C	1.180889	0.606900	0.457312
C84	C	1.104902	0.510760	0.553453
C85	C	0.390661	-0.393064	1.457274
C86	C	0.314673	-0.489205	1.553441
C87	C	0.323192	-0.596168	1.601533
C88	C	0.407707	-0.606989	1.553464
C89	C	0.483693	-0.510849	1.457306
C90	C	0.483717	0.058834	1.457285
C91	C	0.407744	0.058831	1.553450
C92	C	0.323222	-0.000042	1.601537
C93	C	0.314676	-0.058925	1.553463
C94	C	0.390649	-0.058928	1.457307
C95	C	0.840844	0.510760	0.553434
C96	C	0.840838	0.606909	0.457289
C97	C	0.747782	0.489142	0.457299
C98	C	0.747783	0.392995	0.553449
H99	H	0.709886	0.305921	1.219023
Cl100	Cl	0.227656	-0.717021	1.722417
H101	H	0.414720	0.106785	1.592575
Cl102	Cl	1.380181	0.132810	0.396840
H103	H	0.913696	0.151027	0.441464
H104	H	0.245849	-0.106858	1.592631
Cl105	Cl	0.899313	0.741363	0.739555
H106	H	0.878712	0.519555	0.791711
H107	H	0.878733	0.519572	0.592566
H108	H	0.878722	0.693991	0.418152
H109	H	0.709896	0.480351	0.418155
Cl110	Cl	0.208437	-0.475577	1.613846
H111	H	1.204887	0.305890	0.592612
Cl112	Cl	0.379886	-0.132942	1.396879
Cl113	Cl	0.418401	-0.741465	1.613932
H114	H	0.709892	0.305904	0.592596
Cl115	Cl	0.379928	-0.258608	1.396834
Cl116	Cl	1.208709	0.132862	0.613848
H117	H	0.709878	0.480355	1.219008
H118	H	0.913657	0.151021	0.267066
H119	H	0.261368	-0.000031	1.679834
H120	H	0.674941	-0.151109	0.743675
H121	H	1.036096	0.519588	0.592566
Cl122	Cl	0.645754	-0.188016	0.584862
Cl123	Cl	1.170087	-0.132986	0.396907
H124	H	1.342731	0.480287	0.418213
H125	H	1.036063	-0.106885	0.592609
Cl126	Cl	1.170194	0.741377	0.396843
Cl127	Cl	1.360874	-0.000115	0.288368
Cl128	Cl	1.360939	0.716933	0.288381
H129	H	0.552500	-0.519674	1.418172
H130	H	0.552532	0.106783	1.418140
