data_functionalizedCrystal
_audit_creation_method	'MofGen! by Chris Wilmer'
_symmetry_space_group_name_H-M	'P1'
_symmetry_Int_Tables_number	1
_symmetry_cell_setting	triclinic
loop_
_symmetry_equiv_pos_as_xyz
  x,y,z
_cell_length_a	13.635800
_cell_length_b	27.692587
_cell_length_c	27.924008
_cell_angle_alpha	80.129321
_cell_angle_beta	81.026294
_cell_angle_gamma	84.888440
loop_
_atom_site_label
_atom_site_type_symbol
_atom_site_fract_x
_atom_site_fract_y
_atom_site_fract_z
V1	V	1.871001	-0.067819	0.151582
O2	O	1.888641	0.002547	0.148378
O3	O	1.827370	-0.133789	0.150851
O4	O	1.793994	-0.067088	0.217552
O5	O	1.922247	-0.064616	0.081215
V6	V	2.122175	-0.059366	0.143128
O7	O	1.980982	-0.086363	0.170125
O8	O	2.237293	-0.040822	0.124585
O9	O	2.054204	0.006604	0.143859
O10	O	2.163233	-0.129732	0.146332
O11	O	2.129627	-0.062569	0.213495
O12	O	2.087579	-0.060096	0.077158
V13	V	2.371001	-0.067819	0.151582
O14	O	2.388641	0.002547	0.148378
O15	O	2.327370	-0.133789	0.150851
O16	O	2.293994	-0.067088	0.217552
O17	O	2.422247	-0.064616	0.081215
V18	V	2.622175	-0.059366	0.143128
O19	O	2.480982	-0.086363	0.170125
O20	O	2.737293	-0.040822	0.124585
O21	O	2.554204	0.006604	0.143859
O22	O	2.663233	-0.129732	0.146332
O23	O	2.629627	-0.062569	0.213495
O24	O	2.587579	-0.060096	0.077158
C25	C	1.966393	0.022674	0.146170
C26	C	1.951392	0.076607	0.146331
C27	C	1.746851	-0.149861	0.148539
C28	C	1.751469	-0.203795	0.148381
C29	C	1.947492	0.413541	0.144841
C30	C	1.891170	0.616247	0.145421
O31	O	1.959585	0.644572	0.143407
N32	N	1.795120	0.639110	0.147928
C33	C	1.713147	0.611294	0.150287
O34	O	1.630159	0.635393	0.152427
C35	C	1.769470	0.408590	0.149703
C36	C	1.865524	0.385729	0.147201
C37	C	2.043538	0.390679	0.142339
C38	C	2.057617	0.340005	0.142196
C39	C	1.975649	0.312193	0.144556
C40	C	1.879602	0.335055	0.147059
C41	C	1.687498	0.380776	0.152058
C42	C	1.701588	0.330097	0.151911
C43	C	1.797642	0.307235	0.149409
C44	C	1.811712	0.256568	0.149276
N45	N	1.907762	0.233705	0.146770
C46	C	1.989730	0.261517	0.144410
C47	C	1.683582	0.717717	0.150594
C48	C	1.669501	0.768393	0.150741
C49	C	1.847525	0.773342	0.145874
C50	C	1.861605	0.722665	0.145731
C51	C	1.779631	0.694854	0.148087
C52	C	2.019289	0.155098	0.144111
C53	C	2.033360	0.104419	0.143971
C54	C	1.855335	0.099475	0.148835
C55	C	1.841264	0.150149	0.148978
C56	C	1.923249	0.177960	0.146614
O57	O	1.743347	0.228214	0.151284
O58	O	2.072710	0.237411	0.142259
C59	C	1.933414	0.464215	0.144983
C60	C	1.837367	0.487076	0.147486
C61	C	1.755399	0.459264	0.149846
C62	C	1.823286	0.537752	0.147633
C63	C	1.905254	0.565564	0.145273
C64	C	2.001303	0.542701	0.142766
C65	C	2.015382	0.492027	0.142623
C66	C	1.659350	0.482127	0.152353
C67	C	1.645279	0.532802	0.152495
C68	C	1.727247	0.560614	0.150135
C69	C	1.704278	-0.064777	0.233622
C70	C	1.681830	-0.064616	0.287556
C71	C	1.759620	-0.066971	0.315367
C72	C	1.738541	-0.066813	0.366043
C73	C	1.639672	-0.064305	0.388906
C74	C	1.561878	-0.061948	0.361090
C75	C	1.582957	-0.062102	0.310415
C76	C	2.008967	-0.062409	0.061085
C77	C	2.021036	-0.062567	0.007152
C78	C	2.006725	-0.065941	-0.324819
C79	C	2.052025	-0.066521	-0.527525
O80	O	1.982162	-0.068642	-0.551630
N81	N	2.146721	-0.064164	-0.555350
C82	C	2.230096	-0.061659	-0.532496
O83	O	2.311679	-0.059663	-0.560815
C84	C	2.184795	-0.061076	-0.329792
C85	C	2.090095	-0.063438	-0.301968
C86	C	1.912032	-0.068302	-0.296996
C87	C	1.900709	-0.068160	-0.246322
C88	C	1.984079	-0.065656	-0.223472
C89	C	2.078772	-0.063295	-0.251295
C90	C	2.268169	-0.058567	-0.306939
C91	C	2.256834	-0.058420	-0.256260
C92	C	2.162134	-0.060782	-0.228437
C93	C	2.150819	-0.060650	-0.177770
N94	N	2.056123	-0.063006	-0.149945
C95	C	1.972753	-0.065510	-0.172796
C96	C	2.253875	-0.061966	-0.638918
C97	C	2.265200	-0.062113	-0.689594
C98	C	2.087127	-0.066974	-0.684619
C99	C	2.075803	-0.066831	-0.633942
C100	C	2.159179	-0.064323	-0.611093
C101	C	1.948981	-0.065211	-0.066378
C102	C	1.937666	-0.065071	-0.015699
C103	C	2.115739	-0.060207	-0.020679
C104	C	2.127054	-0.060350	-0.071352
C105	C	2.043667	-0.062851	-0.094200
O106	O	2.220634	-0.058524	-0.153633
O107	O	1.891177	-0.067495	-0.144470
C108	C	2.018047	-0.066083	-0.375493
C109	C	2.112740	-0.063722	-0.403316
C110	C	2.196110	-0.061219	-0.380465
C111	C	2.124066	-0.063869	-0.453992
C112	C	2.040696	-0.066372	-0.476842
C113	C	1.946000	-0.068729	-0.449017
C114	C	1.934677	-0.068587	-0.398344
C115	C	2.290806	-0.058862	-0.408290
C116	C	2.302122	-0.059005	-0.458964
C117	C	2.218752	-0.061509	-0.481814
C118	C	2.204278	-0.064777	0.233622
C119	C	2.181830	-0.064616	0.287556
C120	C	2.246851	-0.149861	0.148539
C121	C	2.251469	-0.203795	0.148381
C122	C	2.466393	0.022674	0.146170
C123	C	2.451392	0.076607	0.146331
C124	C	2.508967	-0.062409	0.061085
C125	C	2.521036	-0.062567	0.007152
C126	C	2.341994	-0.231607	0.150742
C127	C	2.346343	-0.282285	0.150601
C128	C	2.260169	-0.305148	0.148095
C129	C	2.169636	-0.277332	0.145735
C130	C	2.165286	-0.226656	0.145880
C131	C	2.533360	0.104419	0.143971
C132	C	2.519280	0.155097	0.144115
C133	C	2.423231	0.177960	0.146621
C134	C	2.341257	0.150144	0.148980
C135	C	2.355338	0.099468	0.148833
C136	C	2.437666	-0.065071	-0.015699
C137	C	2.448990	-0.065214	-0.066376
C138	C	2.543686	-0.062857	-0.094201
C139	C	2.627062	-0.060352	-0.071347
C140	C	2.615736	-0.060206	-0.020672
H141	H	2.111580	0.085808	0.141935
H142	H	2.412173	-0.212998	0.152779
Br143	Br	2.335827	-0.068617	-0.097381
H144	H	1.481378	-0.059906	0.379713
Br145	Br	2.403968	-0.055471	-0.377286
H146	H	1.801897	-0.068734	0.388684
Br147	Br	1.611082	-0.064097	0.457681
Br148	Br	2.244081	0.061729	0.152037
Br149	Br	1.548093	0.444391	0.155550
Br150	Br	2.559039	-0.063058	-0.162976
Br151	Br	2.663724	0.073402	0.140570
Br152	Br	2.154801	0.428416	0.139132
H153	H	2.093597	0.473418	0.140586
Br154	Br	2.210910	0.181181	0.152378
H155	H	2.420067	-0.304926	0.152522
H156	H	2.091570	-0.204014	0.143954
H157	H	2.068042	0.565354	0.140846
H158	H	2.704162	-0.058432	-0.094010
H159	H	1.519606	-0.060186	0.287775
H160	H	2.099476	-0.295956	0.143695
Br161	Br	1.947279	-0.070036	-0.596187
H162	H	2.263724	-0.346413	0.147978
H163	H	2.019246	-0.069013	-0.703233
H164	H	2.586038	0.177737	0.142194
H165	H	2.683630	-0.058170	-0.002071
Br166	Br	1.572318	0.679981	0.153788
H167	H	2.411779	0.219224	0.146740
H168	H	2.086052	0.177736	0.142184
Br169	Br	1.991966	0.691644	0.142335
Br170	Br	2.187980	0.308988	0.138796
Br171	Br	1.958765	0.811097	0.142672
Br172	Br	1.809138	-0.068280	0.022059
Br173	Br	1.835810	-0.068603	-0.097378
H174	H	2.360552	-0.066990	0.006950
H175	H	1.823596	-0.070082	-0.223673
Br176	Br	1.539137	0.799411	0.154148
Br177	Br	1.798868	-0.071702	-0.327997
H178	H	1.634830	0.307454	0.153839
Br179	Br	1.744101	0.061720	0.152039
Br180	Br	1.710903	0.181175	0.152384
H181	H	1.609284	0.399381	0.154095
H182	H	1.567056	0.551410	0.154537
H183	H	1.840130	-0.069015	0.296759
H184	H	2.183615	-0.058171	-0.002064
Br185	Br	2.393728	-0.058920	-0.727346
Br186	Br	2.255578	-0.057153	-0.109112
H187	H	2.321775	-0.059924	-0.620319
H188	H	2.345281	-0.056643	-0.329585
H189	H	2.324732	-0.056379	-0.237659
H190	H	1.878119	-0.070770	-0.467631
H191	H	1.857564	-0.070510	-0.375694
Br192	Br	2.430655	-0.055804	-0.496717
