data_functionalizedCrystal
_audit_creation_method	'MofGen! by Chris Wilmer'
_symmetry_space_group_name_H-M	'P1'
_symmetry_Int_Tables_number	1
_symmetry_cell_setting	triclinic
loop_
_symmetry_equiv_pos_as_xyz
  x,y,z
_cell_length_a	23.532407
_cell_length_b	23.532407
_cell_length_c	15.186229
_cell_angle_alpha	89.999328
_cell_angle_beta	89.996194
_cell_angle_gamma	97.151289
loop_
_atom_site_label
_atom_site_type_symbol
_atom_site_fract_x
_atom_site_fract_y
_atom_site_fract_z
O1	O	-0.069135	0.755259	-0.073159
O2	O	0.430865	1.255259	0.426841
O3	O	-0.079138	0.589395	-0.073171
O4	O	0.420862	1.089395	0.426829
O5	O	0.008796	0.677329	-0.073176
O6	O	0.508796	1.177329	0.426824
O7	O	-0.157068	0.667325	-0.073154
O8	O	0.342932	1.167325	0.426846
O9	O	0.008797	0.677323	0.073281
O10	O	0.508797	1.177323	0.573281
O11	O	-0.079136	0.589389	0.073286
O12	O	0.420864	1.089389	0.573286
O13	O	-0.069133	0.755253	0.073298
O14	O	0.430867	1.255253	0.573298
Zn15	Zn	-0.074135	0.672320	0.096545
Zn16	Zn	0.425865	1.172320	0.596545
Zn17	Zn	-0.074136	0.672328	-0.096418
Zn18	Zn	0.425864	1.172328	0.403582
O19	O	-0.157067	0.667319	0.073303
O20	O	0.342933	1.167319	0.573303
C21	C	-0.078882	0.568176	0.000056
C22	C	0.421118	1.068176	0.500056
C23	C	-0.078116	0.504959	0.000051
C24	C	0.421884	1.004959	0.500051
C25	C	-0.022921	0.238792	0.000067
C26	C	0.477079	0.738792	0.500067
C27	C	-0.023632	0.298192	0.000067
C28	C	0.476368	0.798192	0.500067
O29	O	0.020153	0.334937	0.000092
O30	O	0.520153	0.834937	0.500092
N31	N	-0.075909	0.320818	0.000068
N32	N	0.424091	0.820818	0.500068
C33	C	-0.127477	0.284041	0.000078
C34	C	0.372523	0.784041	0.500078
O35	O	-0.172007	0.308740	0.000079
O36	O	0.327993	0.808740	0.500079
C37	C	-0.126765	0.224642	0.000084
C38	C	0.373235	0.724642	0.500084
C39	C	-0.074485	0.202019	0.000075
C40	C	0.425515	0.702019	0.500075
C41	C	0.029354	0.216169	0.000059
C42	C	0.529354	0.716169	0.500059
C43	C	0.030066	0.156772	0.000057
C44	C	0.530066	0.656772	0.500057
C45	C	-0.021499	0.119999	0.000064
C46	C	0.478501	0.619999	0.500064
C47	C	-0.073774	0.142623	0.000073
C48	C	0.426226	0.642623	0.500073
C49	C	-0.178333	0.187865	0.000101
C50	C	0.321667	0.687865	0.500101
C51	C	-0.177616	0.128463	0.000108
C52	C	0.322384	0.628463	0.500108
C53	C	-0.125336	0.105840	0.000098
C54	C	0.374664	0.605840	0.500098
C55	C	-0.124627	0.046454	0.000079
C56	C	0.375373	0.546454	0.500079
N57	N	-0.072351	0.023828	0.000078
N58	N	0.427649	0.523828	0.500078
C59	C	-0.020787	0.060600	0.000071
C60	C	0.479213	0.560600	0.500071
C61	C	-0.128968	0.408783	0.000066
C62	C	0.371032	0.908783	0.500066
C63	C	-0.129681	0.468181	0.000053
C64	C	0.370319	0.968181	0.500053
C65	C	-0.025836	0.482328	0.000044
C66	C	0.474164	0.982328	0.500044
C67	C	-0.025124	0.422929	0.000051
C68	C	0.474876	0.922929	0.500051
C69	C	-0.076692	0.386157	0.000065
C70	C	0.423308	0.886157	0.500065
C71	C	-0.019297	-0.064136	0.000067
C72	C	0.480703	0.435864	0.500067
C73	C	-0.018590	-0.123538	0.000062
C74	C	0.481410	0.376462	0.500062
C75	C	-0.122435	-0.137680	0.000075
C76	C	0.377565	0.362320	0.500075
C77	C	-0.123142	-0.078284	0.000076
C78	C	0.376858	0.421716	0.500076
C79	C	-0.071568	-0.041512	0.000075
C80	C	0.428432	0.458488	0.500075
O81	O	-0.168390	0.009675	0.000058
O82	O	0.331610	0.509675	0.500058
O83	O	0.023737	0.035892	0.000081
O84	O	0.523737	0.535892	0.500081
C85	C	-0.178283	0.667577	0.000077
C86	C	0.321717	1.167577	0.500077
C87	C	-0.241500	0.668343	0.000086
C88	C	0.258500	1.168343	0.500086
C89	C	-0.640603	0.621110	0.000037
C90	C	-0.140603	1.121110	0.500037
C91	C	-0.700004	0.621821	0.000031
C92	C	-0.200004	1.121821	0.500031
O93	O	-0.736748	0.578035	-0.000005
O94	O	-0.236748	1.078035	0.499995
N95	N	-0.722630	0.674097	0.000036
N96	N	-0.222630	1.174097	0.500036
C97	C	-0.685852	0.725666	0.000038
C98	C	-0.185852	1.225666	0.500038
O99	O	-0.710552	0.770196	0.000041
O100	O	-0.210552	1.270196	0.500041
C101	C	-0.626453	0.724953	0.000038
C102	C	-0.126453	1.224953	0.500038
C103	C	-0.603830	0.672674	0.000042
C104	C	-0.103830	1.172674	0.500042
C105	C	-0.617980	0.568834	0.000040
C106	C	-0.117980	1.068834	0.500040
C107	C	-0.558584	0.568123	0.000048
C108	C	-0.058584	1.068123	0.500048
C109	C	-0.521811	0.619687	0.000053
C110	C	-0.021811	1.119687	0.500053
C111	C	-0.544434	0.671963	0.000050
C112	C	-0.044434	1.171963	0.500050
C113	C	-0.589677	0.776521	0.000033
C114	C	-0.089677	1.276521	0.500033
C115	C	-0.530274	0.775804	0.000033
C116	C	-0.030274	1.275804	0.500033
C117	C	-0.507652	0.723525	0.000037
C118	C	-0.007652	1.223525	0.500037
C119	C	-0.448265	0.722816	0.000062
C120	C	0.051735	1.222816	0.500062
N121	N	-0.425639	0.670539	0.000057
N122	N	0.074361	1.170539	0.500057
C123	C	-0.462412	0.618975	0.000052
C124	C	0.037588	1.118975	0.500052
C125	C	-0.810595	0.727157	0.000037
C126	C	-0.310595	1.227157	0.500037
C127	C	-0.869993	0.727870	0.000043
C128	C	-0.369993	1.227870	0.500043
C129	C	-0.884140	0.624025	0.000035
C130	C	-0.384140	1.124025	0.500035
C131	C	-0.824741	0.623313	0.000034
C132	C	-0.324741	1.123313	0.500034
C133	C	-0.787969	0.674881	0.000032
C134	C	-0.287969	1.174881	0.500032
C135	C	-0.337675	0.617485	0.000069
C136	C	0.162325	1.117485	0.500069
C137	C	-0.278273	0.616779	0.000081
C138	C	0.221727	1.116779	0.500081
C139	C	-0.264131	0.720623	0.000085
C140	C	0.235869	1.220623	0.500085
C141	C	-0.323528	0.721330	0.000078
C142	C	0.176472	1.221330	0.500078
C143	C	-0.360299	0.669757	0.000067
C144	C	0.139701	1.169757	0.500067
O145	O	-0.411486	0.766578	0.000094
O146	O	0.088514	1.266578	0.500094
O147	O	-0.437704	0.574452	0.000038
O148	O	0.062296	1.074452	0.500038
C149	C	0.030012	0.677071	0.000048
C150	C	0.530012	1.177071	0.500048
C151	C	0.093229	0.676305	0.000034
C152	C	0.593229	1.176305	0.500034
C153	C	-0.069389	0.776472	0.000069
C154	C	0.430611	1.276472	0.500069
C155	C	-0.070155	0.839689	0.000069
C156	C	0.429845	1.339689	0.500069
N157	N	-0.074133	0.672319	0.228238
N158	N	0.425867	1.172319	0.728238
N159	N	-0.074133	0.672333	-0.228111
N160	N	0.425867	1.172333	0.271889
C161	C	-0.035209	0.711269	0.453959
C162	C	0.464791	1.211269	0.953959
C163	C	-0.035208	0.711271	0.546149
C164	C	0.464792	1.211271	1.046149
C165	C	-0.113059	0.633379	0.546162
C166	C	0.386941	1.133379	1.046162
C167	C	-0.113057	0.633375	0.453974
C168	C	0.386943	1.133375	0.953974
C169	C	-0.074133	0.672323	0.407875
C170	C	0.425867	1.172323	0.907875
C171	C	-0.074133	0.672329	0.592252
C172	C	0.425867	1.172329	1.092252
C173	C	-0.074132	0.672331	0.692209
C174	C	0.425868	1.172331	1.192209
C175	C	-0.074133	0.672321	0.307912
C176	C	0.425867	1.172321	0.807912
H177	H	0.023984	-0.141954	0.000051
H178	H	0.523984	0.358046	0.500051
H179	H	-0.170964	0.378846	0.000071
H180	H	0.329036	0.878846	0.500071
C181	C	0.087572	0.131892	0.000050
C182	C	0.587572	0.631892	0.500050
H183	H	0.080619	0.091249	0.000045
H184	H	0.580619	0.591249	0.500045
H185	H	0.108789	0.144538	0.051119
H186	H	0.608789	0.644538	0.551119
H187	H	0.108785	0.144537	-0.051033
H188	H	0.608785	0.644537	0.448967
C189	C	-0.234341	0.088014	0.000121
C190	C	0.265659	0.588014	0.500121
H191	H	-0.226434	0.049396	0.000127
H192	H	0.273566	0.549396	0.500127
H193	H	-0.255793	0.094843	-0.050947
H194	H	0.244207	0.594843	0.449053
H195	H	-0.255787	0.094843	0.051206
H196	H	0.244213	0.594843	0.551206
H197	H	-0.144754	0.601658	0.416450
H198	H	0.355246	1.101658	0.916450
H199	H	-0.367608	0.575489	0.000060
H200	H	0.132392	1.075489	0.500060
H201	H	-0.888406	0.770441	0.000054
H202	H	-0.388406	1.270441	0.500054
H203	H	-0.172252	0.486595	0.000049
H204	H	0.327748	0.986595	0.500049
H205	H	-0.003514	0.742982	0.416427
H206	H	0.496486	1.242982	0.916427
C207	C	0.007607	0.754110	0.596842
C208	C	0.507607	1.254110	1.096842
H209	H	0.002037	0.748532	0.658348
H210	H	0.502037	1.248532	1.158348
H211	H	0.001617	0.792082	0.581732
H212	H	0.501617	1.292082	1.081732
H213	H	0.045587	0.748136	0.581728
H214	H	0.545587	1.248136	1.081728
C215	C	-0.155860	0.590526	0.596870
C216	C	0.344140	1.090526	1.096870
H217	H	-0.179033	0.567323	0.556217
H218	H	0.320967	1.067323	1.056217
H219	H	-0.179471	0.610862	0.632844
H220	H	0.320529	1.110862	1.132844
H221	H	-0.135475	0.566943	0.632819
H222	H	0.364525	1.066943	1.132819
H223	H	0.022699	-0.034204	0.000066
H224	H	0.522699	0.465796	0.500066
C225	C	-0.253392	0.559269	0.000078
C226	C	0.246608	1.059269	0.500078
H227	H	-0.283803	0.528663	0.000064
H228	H	0.216197	1.028663	0.500064
H229	H	-0.230518	0.556827	0.051152
H230	H	0.269482	1.056827	0.551152
H231	H	-0.230511	0.556836	-0.051000
H232	H	0.269489	1.056836	0.449000
H233	H	-0.220904	0.206274	0.000104
H234	H	0.279096	0.706274	0.500104
C235	C	0.086080	0.256610	0.000043
C236	C	0.586080	0.756610	0.500043
H237	H	0.117310	0.234621	0.000032
H238	H	0.617310	0.734621	0.500032
H239	H	0.087972	0.280082	0.051109
H240	H	0.587972	0.780082	0.551109
H241	H	0.087961	0.280070	-0.051043
H242	H	0.587961	0.780070	0.448957
H243	H	-0.164417	-0.167631	0.000077
H244	H	0.335583	0.332369	0.500077
C245	C	0.032383	0.398050	0.000049
C246	C	0.532383	0.898050	0.500049
H247	H	0.062988	0.428462	0.000048
H248	H	0.562988	0.928462	0.500048
H249	H	0.034823	0.375169	-0.051019
H250	H	0.534823	0.875169	0.448981
H251	H	0.034821	0.375177	0.051133
H252	H	0.534821	0.875177	0.551133
C253	C	-0.658422	0.512108	0.000042
C254	C	-0.158422	1.012108	0.500042
H255	H	-0.636432	0.480878	0.000051
H256	H	-0.136432	0.980878	0.500051
H257	H	-0.681889	0.510219	-0.051027
H258	H	-0.181889	1.010219	0.448973
H259	H	-0.681886	0.510225	0.051125
H260	H	-0.181886	1.010225	0.551125
C261	C	0.030884	0.522786	0.000045
C262	C	0.530884	1.022786	0.500045
H263	H	0.022968	0.561401	0.000052
H264	H	0.522968	1.061401	0.500052
H265	H	0.052339	0.515963	-0.051027
H266	H	0.552339	1.015963	0.448973
H267	H	0.052332	0.515961	0.051125
H268	H	0.552332	1.015961	0.551125
H269	H	-0.806326	0.580742	0.000041
H270	H	-0.306326	1.080742	0.500041
H271	H	-0.341948	0.763900	0.000087
H272	H	0.158052	1.263900	0.500087
C273	C	-0.533706	0.510615	0.000040
C274	C	-0.033706	1.010615	0.500040
H275	H	-0.564121	0.480011	0.000027
H276	H	-0.064121	0.980011	0.500027
H277	H	-0.510832	0.508169	0.051111
H278	H	-0.010832	1.008169	0.551111
H279	H	-0.510829	0.508180	-0.051041
H280	H	-0.010829	1.008180	0.448959
H281	H	-0.165712	-0.059864	0.000083
H282	H	0.334288	0.440136	0.500083
C283	C	-0.770150	0.783885	0.000051
C284	C	-0.270150	1.283885	0.500051
H285	H	-0.792137	0.815117	0.000062
H286	H	-0.292137	1.315117	0.500062
H287	H	-0.746678	0.785775	-0.051019
H288	H	-0.246678	1.285775	0.448981
H289	H	-0.746689	0.785764	0.051133
H290	H	-0.246689	1.285764	0.551133
C291	C	-0.924595	0.567303	0.000023
C292	C	-0.424595	1.067303	0.500023
H293	H	-0.902618	0.536063	0.000028
H294	H	-0.402618	1.036063	0.500028
H295	H	-0.948057	0.565428	-0.051051
H296	H	-0.448057	1.065428	0.448949
H297	H	-0.948064	0.565422	0.051101
H298	H	-0.448064	1.065422	0.551101
H299	H	-0.234180	0.762605	0.000093
H300	H	0.265820	1.262605	0.500093
C301	C	-0.614549	0.834030	0.000017
C302	C	-0.114549	1.334030	0.500017
H303	H	-0.584133	0.864632	0.000006
H304	H	-0.084133	1.364632	0.500006
H305	H	-0.637431	0.836477	0.051084
H306	H	-0.137431	1.336477	0.551084
H307	H	-0.637418	0.836465	-0.051069
H308	H	-0.137418	1.336465	0.448931
H309	H	-0.500336	0.817798	0.000026
H310	H	-0.000336	1.317798	0.500026
