data_functionalizedCrystal
_audit_creation_method	'MofGen! by Chris Wilmer'
_symmetry_space_group_name_H-M	'P1'
_symmetry_Int_Tables_number	1
_symmetry_cell_setting	triclinic
loop_
_symmetry_equiv_pos_as_xyz
  x,y,z
_cell_length_a	14.908742
_cell_length_b	14.908178
_cell_length_c	12.827885
_cell_angle_alpha	93.331370
_cell_angle_beta	86.718487
_cell_angle_gamma	90.210560
loop_
_atom_site_label
_atom_site_type_symbol
_atom_site_fract_x
_atom_site_fract_y
_atom_site_fract_z
Zn1	Zn	1.353954	-0.437239	0.470924
Zn2	Zn	1.853954	0.062761	0.970924
Zn3	Zn	1.345178	-0.587629	0.286702
Zn4	Zn	1.845178	-0.087629	0.786702
Zn5	Zn	1.203590	-0.428610	0.306842
Zn6	Zn	1.703590	0.071390	0.806842
Zn7	Zn	1.194899	-0.578894	0.472049
Zn8	Zn	1.694899	-0.078894	0.972049
O9	O	1.274405	-0.508093	0.384129
O10	O	1.774405	-0.008093	0.884129
O11	O	1.478610	-0.464455	0.437587
O12	O	1.978610	0.035545	0.937587
O13	O	1.326361	-0.566580	0.143137
O14	O	1.826361	-0.066580	0.643137
O15	O	1.230847	-0.303921	0.336566
O16	O	1.730847	0.196079	0.836566
O17	O	1.472162	-0.574946	0.302240
O18	O	1.972162	-0.074946	0.802240
O19	O	1.341318	-0.310260	0.457116
O20	O	1.841318	0.189740	0.957116
O21	O	1.222337	-0.449749	0.157934
O22	O	1.722337	0.050251	0.657934
O23	O	1.076617	-0.441279	0.337657
O24	O	1.576617	0.058721	0.837657
O25	O	1.216034	-0.560059	0.618136
O26	O	1.716034	-0.060059	1.118136
O27	O	1.070232	-0.551692	0.459033
O28	O	1.570232	-0.051692	0.959033
O29	O	1.332891	-0.455985	0.617310
O30	O	1.832891	0.044015	1.117310
O31	O	1.317933	-0.712304	0.303331
O32	O	1.817933	-0.212304	0.803331
O33	O	1.207524	-0.705887	0.439504
O34	O	1.707524	-0.205887	0.939504
C35	C	1.040801	-0.494602	0.400653
C36	C	1.540801	0.005398	0.900653
C37	C	0.940863	-0.488852	0.407745
C38	C	1.440863	0.011148	0.907745
C39	C	0.803352	-0.423323	0.488299
C40	C	1.303352	0.076677	0.988299
C41	C	0.897253	-0.428718	0.481641
C42	C	1.397253	0.071282	0.981641
C43	C	0.890564	-0.543598	0.340505
C44	C	1.390564	-0.043598	0.840505
C45	C	0.796663	-0.538203	0.347163
C46	C	1.296663	-0.038203	0.847163
C47	C	0.753060	-0.478062	0.421061
C48	C	1.253060	0.021938	0.921061
C49	C	0.659157	-0.472664	0.427714
C50	C	1.159157	0.027336	0.927714
C51	C	0.652470	-0.587548	0.286583
C52	C	1.152470	-0.087548	0.786583
C53	C	0.746372	-0.592943	0.279925
C54	C	1.246372	-0.092943	0.779925
C55	C	1.260858	-0.741724	0.369375
C56	C	1.760858	-0.241724	0.869375
C57	C	1.255144	-0.841677	0.363093
C58	C	1.755144	-0.341677	0.863093
C59	C	1.359354	-1.035946	0.476965
C60	C	1.859354	-0.535946	0.976965
C61	C	1.353989	-1.129861	0.471065
C62	C	1.853989	-0.629861	0.971065
C63	C	1.239044	-1.123424	0.345399
C64	C	1.739044	-0.623424	0.845399
C65	C	1.244409	-1.029509	0.351299
C66	C	1.744409	-0.529509	0.851299
C67	C	1.304568	-0.985773	0.417083
C68	C	1.804568	-0.485773	0.917083
C69	C	1.309937	-0.891857	0.422977
C70	C	1.809937	-0.391857	0.922977
C71	C	1.194988	-0.885421	0.297317
C72	C	1.694988	-0.385421	0.797317
C73	C	1.189623	-0.979336	0.291417
C74	C	1.689623	-0.479336	0.791417
C75	C	1.508922	-0.521638	0.367542
C76	C	2.008922	-0.021638	0.867542
C77	C	1.608859	-0.527409	0.360473
C78	C	2.108859	-0.027409	0.860473
C79	C	1.274472	-0.508010	0.656701
C80	C	1.774472	-0.008010	1.156701
C81	C	1.274500	-0.507975	0.772855
C82	C	1.774500	-0.007975	1.272855
C83	C	1.288031	-0.273551	0.398962
C84	C	1.788031	0.226449	0.898962
C85	C	1.293837	-0.173603	0.405283
C86	C	1.793837	0.326397	0.905283
C87	C	1.274395	-0.508114	0.112619
C88	C	1.774395	-0.008114	0.612619
C89	C	1.274556	-0.507906	-0.003531
C90	C	1.774556	-0.007906	0.496469
C91	C	1.332331	-0.456466	0.824231
C92	C	1.832331	0.043534	1.324231
C93	C	1.332361	-0.456428	0.944282
C94	C	1.832361	0.043572	1.444282
H95	H	0.938197	-0.384143	0.536393
H96	H	1.438197	0.115857	1.036393
H97	H	1.358923	-0.856249	0.476538
H98	H	1.858923	-0.356249	0.976538
H99	H	0.767850	-0.374345	0.548461
H100	H	1.267850	0.125655	1.048461
Cl101	Cl	1.422865	-1.192933	0.546351
Cl102	Cl	1.922865	-0.692933	1.046351
Cl103	Cl	0.589242	-0.656363	0.202045
Cl104	Cl	1.089242	-0.156363	0.702045
H105	H	1.150379	-0.844560	0.248554
H106	H	1.650379	-0.344560	0.748554
Cl107	Cl	0.945395	-0.619205	0.247621
Cl108	Cl	1.445395	-0.119205	0.747621
Cl109	Cl	1.434990	-0.980962	0.559649
Cl110	Cl	1.934990	-0.480962	1.059649
Cl111	Cl	1.163402	-1.178420	0.262734
Cl112	Cl	1.663402	-0.678420	0.762734
H113	H	1.381817	-0.412391	0.779339
H114	H	1.881817	0.087609	1.279339
Cl115	Cl	1.113993	-1.034326	0.208730
Cl116	Cl	1.613993	-0.534326	0.708730
H117	H	1.381876	-0.412332	0.988465
H118	H	1.881876	0.087668	1.488465
H119	H	0.781886	-0.641909	0.219761
H120	H	1.281886	-0.141909	0.719761
Cl121	Cl	1.198112	-0.576003	0.928265
Cl122	Cl	1.698112	-0.076003	1.428265
H123	H	0.623658	-0.423690	0.487881
H124	H	1.123658	0.076310	0.987881
Cl125	Cl	1.198084	-0.576016	0.842156
Cl126	Cl	1.698084	-0.076016	1.342156
