data_functionalizedCrystal
_audit_creation_method	'MofGen! by Chris Wilmer'
_symmetry_space_group_name_H-M	'P1'
_symmetry_Int_Tables_number	1
_symmetry_cell_setting	triclinic
loop_
_symmetry_equiv_pos_as_xyz
  x,y,z
_cell_length_a	16.109301
_cell_length_b	16.992695
_cell_length_c	14.586319
_cell_angle_alpha	89.995905
_cell_angle_beta	89.999213
_cell_angle_gamma	87.064852
loop_
_atom_site_label
_atom_site_type_symbol
_atom_site_fract_x
_atom_site_fract_y
_atom_site_fract_z
O1	O	1.109856	0.100784	-0.076183
O2	O	0.868631	0.113326	-0.076198
O3	O	0.988277	-0.007087	-0.076183
O4	O	0.990211	0.221197	-0.076198
O5	O	0.988268	-0.007089	0.076298
O6	O	0.868622	0.113324	0.076283
O7	O	1.109847	0.100782	0.076298
Cu8	Cu	0.989234	0.107053	0.090213
Cu9	Cu	0.989244	0.107055	-0.090113
O10	O	0.990202	0.221196	0.076283
C11	C	0.837618	0.112817	0.000041
C12	C	0.745221	0.111294	0.000035
C13	C	0.985784	-0.036300	0.000057
C14	C	0.978361	-0.123343	0.000056
C15	C	0.527480	0.179203	0.000042
C16	C	0.440664	0.177766	0.000048
C17	C	0.451005	0.034899	0.000053
C18	C	0.537819	0.036337	0.000054
C19	C	0.576055	0.108492	0.000043
C20	C	0.402424	0.105616	0.000049
C21	C	0.308294	0.104057	0.000055
C22	C	0.670191	0.110051	0.000039
C23	C	1.049987	-0.173601	0.000062
C24	C	1.043007	-0.255386	0.000052
C25	C	0.964400	-0.286911	0.000045
C26	C	0.892768	-0.236645	0.000037
C27	C	0.899749	-0.154862	0.000039
C28	C	0.935467	-0.530501	0.000030
C29	C	0.928491	-0.612291	0.000030
C30	C	1.078731	-0.631026	0.000045
C31	C	1.085704	-0.549240	0.000053
C32	C	1.014073	-0.498982	0.000040
N33	N	0.957263	-0.370508	0.000038
N34	N	1.021210	-0.415387	0.000040
C35	C	1.140860	0.101291	0.000057
C36	C	1.233257	0.102814	0.000057
C37	C	0.992694	0.250408	0.000041
C38	C	1.000118	0.337451	0.000036
N39	N	0.989232	0.107051	0.217045
N40	N	0.989252	0.107051	-0.216945
C41	C	1.042231	0.053750	0.452058
C42	C	1.042233	0.053748	0.548039
C43	C	0.936247	0.160355	0.548036
C44	C	0.936241	0.160352	0.452056
C45	C	0.989238	0.107051	0.404070
C46	C	0.989246	0.107051	0.596030
C47	C	0.989248	0.107050	0.700098
C48	C	0.989235	0.107051	0.299996
H49	H	0.558608	0.237956	0.000040
H50	H	0.841423	-0.113942	0.000035
C51	C	0.641458	-0.044922	-0.078328
C52	C	0.591221	-0.041394	0.000053
H53	H	0.674429	-0.092905	-0.078321
H54	H	0.607377	-0.042517	-0.131492
H55	H	0.676649	-0.001740	-0.078318
H56	H	0.556026	-0.084573	0.000040
H57	H	0.625306	-0.043806	0.053231
H58	H	1.085384	0.010345	0.587108
C59	C	0.831481	0.265739	0.461686
C60	C	0.877989	0.218947	0.399300
H61	H	0.795523	0.301913	0.429114
H62	H	0.799410	0.233096	0.499126
H63	H	0.867971	0.293953	0.499116
H64	H	0.841499	0.190729	0.361874
H65	H	0.910062	0.251595	0.361844
H66	H	0.893100	0.203753	0.587116
H67	H	0.419863	-0.023846	0.000067
C68	C	1.180190	-0.164385	-0.078321
C69	C	1.136393	-0.138951	0.000065
H70	H	1.233532	-0.142989	-0.078323
H71	H	1.186282	-0.220278	-0.078314
H72	H	1.150461	-0.147123	-0.131488
H73	H	1.166119	-0.156218	0.053232
H74	H	1.130304	-0.083046	0.000067
H75	H	1.101332	-0.296304	0.000059
H76	H	0.401118	0.235347	0.000048
H77	H	1.137048	-0.671954	0.000053
C78	C	1.233509	-0.575977	0.000065
C79	C	1.172112	-0.514591	0.000063
H80	H	1.286852	-0.554585	0.000071
H81	H	1.227655	-0.607490	0.053232
H82	H	1.227664	-0.607481	-0.053115
H83	H	1.177953	-0.483091	0.053247
H84	H	1.177969	-0.483065	-0.053109
H85	H	0.864477	-0.637954	0.000039
H86	H	0.828765	-0.262319	0.000024
C87	C	0.786264	-0.520209	0.000037
C88	C	0.856730	-0.475264	0.000034
H89	H	0.737654	-0.486104	0.000048
H90	H	0.786667	-0.552489	-0.053135
H91	H	0.786676	-0.552506	0.053212
H92	H	0.856321	-0.442972	-0.053145
H93	H	0.856327	-0.442971	0.053211
C94	C	1.146986	-0.051633	0.461705
C95	C	1.100476	-0.004846	0.399310
H96	H	1.182939	-0.087812	0.429141
H97	H	1.179062	-0.018987	0.499131
H98	H	1.110497	-0.079840	0.499150
H99	H	1.136965	0.023366	0.361870
H100	H	1.068397	-0.037496	0.361869
