data_functionalizedCrystal
_audit_creation_method	'MofGen! by Chris Wilmer'
_symmetry_space_group_name_H-M	'P1'
_symmetry_Int_Tables_number	1
_symmetry_cell_setting	triclinic
loop_
_symmetry_equiv_pos_as_xyz
  x,y,z
_cell_length_a	17.077404
_cell_length_b	19.077432
_cell_length_c	17.077396
_cell_angle_alpha	92.327207
_cell_angle_beta	90.019501
_cell_angle_gamma	87.727210
loop_
_atom_site_label
_atom_site_type_symbol
_atom_site_fract_x
_atom_site_fract_y
_atom_site_fract_z
Zn1	Zn	1.212589	-0.280193	0.431292
Zn2	Zn	1.712589	0.219807	0.931292
Zn3	Zn	1.217762	-0.397895	0.294754
Zn4	Zn	1.717762	0.102105	0.794754
Zn5	Zn	1.081322	-0.280218	0.300039
Zn6	Zn	1.581322	0.219782	0.800039
Zn7	Zn	1.086553	-0.397853	0.425980
Zn8	Zn	1.586553	0.102147	0.925980
O9	O	1.149557	-0.339040	0.363016
O10	O	1.649557	0.160960	0.863016
O11	O	1.323123	-0.295813	0.413192
O12	O	1.823123	0.204187	0.913192
O13	O	1.199639	-0.382312	0.185607
O14	O	1.699639	0.117688	0.685607
O15	O	1.094381	-0.181725	0.321885
O16	O	1.594381	0.318275	0.821885
O17	O	1.326923	-0.382289	0.312878
O18	O	1.826923	0.117711	0.812878
O19	O	1.190823	-0.181707	0.418316
O20	O	1.690823	0.318293	0.918316
O21	O	1.099397	-0.295855	0.189490
O22	O	1.599397	0.204145	0.689490
O23	O	0.972169	-0.295815	0.316734
O24	O	1.472169	0.204185	0.816734
O25	O	1.103296	-0.382217	0.536533
O26	O	1.603296	0.117783	1.036533
O27	O	0.976012	-0.382241	0.409262
O28	O	1.476012	0.117759	0.909262
O29	O	1.195895	-0.295773	0.540436
O30	O	1.695895	0.204227	1.040436
O31	O	1.204711	-0.496379	0.307726
O32	O	1.704711	0.003621	0.807726
O33	O	1.108312	-0.496348	0.404137
O34	O	1.608312	0.003652	0.904137
C35	C	0.945608	-0.339027	0.362995
C36	C	1.445608	0.160973	0.862995
C37	C	0.858359	-0.339038	0.363004
C38	C	1.358359	0.160962	0.863004
C39	C	0.819393	-0.384108	0.411100
C40	C	1.319393	0.115892	0.911100
C41	C	0.737413	-0.384110	0.411112
C42	C	1.237413	0.115890	0.911112
C43	C	0.694400	-0.339044	0.363024
C44	C	1.194400	0.160956	0.863024
C45	C	0.733371	-0.293969	0.314927
C46	C	1.233371	0.206031	0.814927
C47	C	0.815350	-0.293965	0.314919
C48	C	1.315350	0.206035	0.814919
C49	C	0.562502	-0.293983	0.314945
C50	C	1.062502	0.206017	0.814945
C51	C	0.480517	-0.293988	0.314951
C52	C	0.980517	0.206012	0.814951
C53	C	0.484565	-0.384128	0.411138
C54	C	0.984565	0.115872	0.911138
C55	C	0.566544	-0.384124	0.411130
C56	C	1.066544	0.115876	0.911130
C57	C	0.605509	-0.339049	0.363031
C58	C	1.105509	0.160951	0.863031
C59	C	1.157661	-0.521901	0.354799
C60	C	1.657661	-0.021901	0.854799
C61	C	1.161201	-0.600130	0.351310
C62	C	1.661201	-0.100130	0.851310
C63	C	1.112639	-0.636891	0.399825
C64	C	1.612639	-0.136891	0.899825
C65	C	1.115968	-0.710395	0.396543
C66	C	1.615968	-0.210395	0.896543
C67	C	1.167862	-0.747137	0.344750
C68	C	1.667862	-0.247137	0.844750
C69	C	1.216426	-0.710370	0.296229
C70	C	1.716426	-0.210370	0.796229
C71	C	1.213093	-0.636867	0.299507
C72	C	1.713093	-0.136867	0.799507
C73	C	1.183214	-0.966966	0.329563
C74	C	1.683214	-0.466966	0.829563
C75	C	1.186545	-1.040474	0.326291
C76	C	1.686545	-0.540474	0.826291
C77	C	1.086085	-1.040494	0.426604
C78	C	1.586085	-0.540494	0.926604
C79	C	1.082760	-0.966990	0.429881
C80	C	1.582760	-0.466990	0.929881
C81	C	1.131321	-0.930230	0.381358
C82	C	1.631321	-0.430230	0.881358
N83	N	1.171268	-0.822270	0.341396
N84	N	1.671268	-0.322270	0.841396
N85	N	1.127911	-0.855098	0.384708
N86	N	1.627911	-0.355098	0.884708
C87	C	1.354302	-0.339053	0.363038
C88	C	1.854302	0.160947	0.863038
C89	C	1.441552	-0.339059	0.363047
C90	C	1.941552	0.160941	0.863047
C91	C	1.149602	-0.338988	0.567763
C92	C	1.649602	0.161012	1.067763
C93	C	1.149621	-0.338966	0.655014
C94	C	1.649621	0.161034	1.155014
C95	C	1.141442	-0.155464	0.371283
C96	C	1.641442	0.344536	0.871283
C97	C	1.137984	-0.077236	0.374806
C98	C	1.637984	0.422764	0.874806
C99	C	1.149555	-0.339040	0.159068
C100	C	1.649555	0.160960	0.659068
C101	C	1.149679	-0.338864	0.071827
C102	C	1.649679	0.161136	0.571827
C103	C	1.197839	-0.293950	0.698038
C104	C	1.697839	0.206050	1.198038
C105	C	1.197847	-0.293927	0.780019
C106	C	1.697847	0.206073	1.280019
C107	C	1.149641	-0.338923	0.818975
C108	C	1.649641	0.161077	1.318975
C109	C	1.101418	-0.383940	0.775945
C110	C	1.601418	0.116060	1.275945
C111	C	1.101406	-0.383960	0.693966
C112	C	1.601406	0.116040	1.193966
C113	C	1.101448	-0.383898	0.946817
C114	C	1.601448	0.116102	1.446817
C115	C	1.101461	-0.383880	1.028803
C116	C	1.601461	0.116120	1.528803
C117	C	1.197889	-0.293865	1.032871
C118	C	1.697889	0.206135	1.532871
C119	C	1.197877	-0.293884	0.950891
C120	C	1.697877	0.206116	1.450891
C121	C	1.149655	-0.338903	0.907867
C122	C	1.649655	0.161097	1.407867
H123	H	0.601563	-0.420824	0.450283
H124	H	1.101563	0.079176	0.950283
H125	H	1.258676	-0.740290	0.254054
H126	H	1.758676	-0.240290	0.754054
H127	H	1.062165	-0.420574	0.807670
H128	H	1.562165	0.079426	1.307670
H129	H	0.452835	-0.420827	0.450305
H130	H	0.952835	0.079173	0.950305
H131	H	0.445497	-0.257284	0.275804
H132	H	0.945497	0.242716	0.775804
H133	H	1.237096	-0.257311	0.666326
H134	H	1.737096	0.242689	1.166326
H135	H	1.046549	-1.070433	0.466108
H136	H	1.546549	-0.570433	0.966108
H137	H	0.594224	-0.257273	0.275785
H138	H	1.094224	0.242727	0.775785
H139	H	1.228809	-1.070387	0.284114
H140	H	1.728809	-0.570387	0.784114
H141	H	1.237135	-0.257249	0.919176
H142	H	1.737135	0.242751	1.419176
H143	H	1.252635	-0.606936	0.260000
H144	H	1.752635	-0.106936	0.760000
H145	H	1.062134	-0.420609	0.658937
H146	H	1.562134	0.079391	1.158937
H147	H	0.705691	-0.420811	0.450276
H148	H	1.205691	0.079189	0.950276
H149	H	0.698343	-0.257273	0.275776
H150	H	1.198343	0.242727	0.775776
H151	H	1.237113	-0.257272	0.815046
H152	H	1.737113	0.242728	1.315046
H153	H	1.222755	-0.937041	0.290055
H154	H	1.722755	-0.437041	0.790055
H155	H	0.854409	-0.420808	0.450256
H156	H	1.354409	0.079192	0.950256
H157	H	1.237152	-0.257208	1.067906
H158	H	1.737152	0.242792	1.567906
H159	H	1.062168	-0.420546	0.911790
H160	H	1.562168	0.079454	1.411790
H161	H	0.847074	-0.257260	0.275759
H162	H	1.347074	0.242740	0.775759
H163	H	1.070384	-0.606981	0.442004
H164	H	1.570384	-0.106981	0.942004
H165	H	1.076417	-0.740324	0.436042
H166	H	1.576417	-0.240324	0.936042
H167	H	1.040503	-0.937077	0.472055
H168	H	1.540503	-0.437077	0.972055
H169	H	1.062206	-0.420518	1.060518
H170	H	1.562206	0.079482	1.560518
