data_functionalizedCrystal
_audit_creation_method	'MofGen! by Chris Wilmer'
_symmetry_space_group_name_H-M	'P1'
_symmetry_Int_Tables_number	1
_symmetry_cell_setting	triclinic
loop_
_symmetry_equiv_pos_as_xyz
  x,y,z
_cell_length_a	17.639929
_cell_length_b	13.033293
_cell_length_c	13.032268
_cell_angle_alpha	89.079182
_cell_angle_beta	87.287135
_cell_angle_gamma	84.523024
loop_
_atom_site_label
_atom_site_type_symbol
_atom_site_fract_x
_atom_site_fract_y
_atom_site_fract_z
Zn1	Zn	-0.234094	1.567876	-0.727777
Zn2	Zn	-0.342223	1.621681	-0.530998
Zn3	Zn	-0.230120	1.416558	-0.534865
Zn4	Zn	-0.373590	1.437233	-0.673842
O5	O	-0.295007	1.510837	-0.616870
O6	O	-0.236973	1.715532	-0.722628
O7	O	-0.312562	1.608336	-0.390995
O8	O	-0.125352	1.405460	-0.584646
O9	O	-0.316415	1.755063	-0.578055
O10	O	-0.128271	1.516633	-0.726378
O11	O	-0.230201	1.457633	-0.393836
O12	O	-0.260616	1.278781	-0.532346
O13	O	-0.369875	1.440697	-0.821512
O14	O	-0.366022	1.293971	-0.634452
O15	O	-0.267388	1.536680	-0.861138
O16	O	-0.451679	1.628384	-0.525756
O17	O	-0.474724	1.492870	-0.630702
C18	C	-0.316292	1.249941	-0.577967
C19	C	-0.325419	1.138331	-0.561343
C20	C	-0.290262	1.069025	-0.625542
C21	C	-0.299694	0.953670	-0.608362
C22	C	-0.490503	1.568734	-0.571983
C23	C	-0.574134	1.593592	-0.552827
C24	C	-0.679986	1.699215	-0.471259
C25	C	-0.601404	1.675849	-0.489265
C26	C	-0.625442	1.534670	-0.598412
C27	C	-0.704028	1.558027	-0.580419
C28	C	-0.731293	1.640300	-0.516841
C29	C	-0.755334	1.499112	-0.626001
C30	C	-0.833913	1.522464	-0.608005
C31	C	-0.861185	1.604731	-0.544428
C32	C	-0.809872	1.663652	-0.498845
C33	C	-0.728067	1.416835	-0.689573
C34	C	-0.779374	1.357920	-0.735155
C35	C	-0.857955	1.381276	-0.717165
C36	C	-0.885227	1.463543	-0.653588
C37	C	-0.909268	1.322355	-0.762748
C38	C	-0.987847	1.345707	-0.744752
C39	C	-0.963805	1.486895	-0.635592
C40	C	-0.098747	1.452738	-0.661959
C41	C	-0.015112	1.427980	-0.681174
C42	C	-0.322574	1.484993	-0.878778
C43	C	-0.334321	1.473980	-0.990387
C44	C	-0.273639	1.772752	-0.655927
C45	C	-0.264533	1.884364	-0.672570
C46	C	-0.288850	1.516561	-1.059752
C47	C	-0.300990	1.505179	-1.175107
C48	C	-0.267488	1.536621	-0.356003
C49	C	-0.255513	1.547766	-0.244472
H50	H	-0.925170	1.623744	-0.529777
C51	C	-0.139715	0.874281	-0.755807
C52	C	-0.214468	0.919533	-0.763945
H53	H	-0.108808	0.896001	-0.812214
H54	H	-0.139491	0.801385	-0.756254
H55	H	-0.120145	0.894785	-0.693438
H56	H	-0.234040	0.899023	-0.826311
H57	H	-0.214694	0.992445	-0.763507
H58	H	-0.362499	1.112266	-0.493660
C59	C	-1.088777	1.235544	-0.718200
C60	C	-1.044247	1.280948	-0.794857
H61	H	-1.123592	1.195557	-0.749134
H62	H	-1.116260	1.287880	-0.677771
H63	H	-1.056676	1.192389	-0.675717
H64	H	-1.076348	1.324109	-0.837336
H65	H	-1.016762	1.228605	-0.835304
C66	C	-0.269076	1.073974	-0.808831
C67	C	-0.240204	1.104199	-0.716916
H68	H	-0.238169	1.095684	-0.865242
H69	H	-0.319786	1.104670	-0.814330
H70	H	-0.268843	1.001067	-0.809262
H71	H	-0.240442	1.177108	-0.716482
H72	H	-0.189482	1.073508	-0.711416
H73	H	-0.240930	1.561437	-1.033738
H74	H	-0.382234	1.429092	-1.016401
C75	C	-0.777053	1.284923	-0.903386
C76	C	-0.749398	1.267495	-0.805048
H77	H	-0.758550	1.229097	-0.946535
H78	H	-0.760171	1.347080	-0.931134
H79	H	-0.831195	1.290396	-0.899179
H80	H	-0.695256	1.262030	-0.809253
H81	H	-0.766275	1.205321	-0.777293
C82	C	-0.415686	1.509630	-1.267865
C83	C	-0.365688	1.444591	-1.210202
H84	H	-0.455629	1.472227	-1.289525
H85	H	-0.388731	1.534856	-1.326327
H86	H	-0.436616	1.565908	-1.226839
H87	H	-0.344753	1.388317	-1.251231
H88	H	-0.392647	1.419350	-1.151732
C89	C	-0.408989	0.866957	-0.553497
C90	C	-0.349761	0.918505	-0.516987
H91	H	-0.439899	0.845253	-0.497086
H92	H	-0.388152	0.808532	-0.591537
H93	H	-0.439092	0.912135	-0.596617
H94	H	-0.319654	0.873323	-0.473874
H95	H	-0.370599	0.976937	-0.478931
H96	H	-0.986006	1.553899	-0.583831
C97	C	-0.120712	1.562131	-1.248566
C98	C	-0.190812	1.608354	-1.209385
H99	H	-0.080769	1.599532	-1.226902
H100	H	-0.120397	1.562434	-1.321471
H101	H	-0.113424	1.493084	-1.223881
H102	H	-0.198103	1.677399	-1.234076
H103	H	-0.191128	1.608062	-1.136465
C104	C	-0.906939	1.249340	-0.930974
C105	C	-0.879290	1.231924	-0.832631
H106	H	-0.888435	1.193508	-0.974115
H107	H	-0.890056	1.311493	-0.958728
H108	H	-0.961081	1.254814	-0.926772
H109	H	-0.825148	1.226458	-0.836832
H110	H	-0.896169	1.169754	-0.804870
H111	H	-0.603233	1.467680	-0.650175
C112	C	-0.778224	1.800881	-0.392753
C113	C	-0.839850	1.754092	-0.428962
H114	H	-0.796734	1.856707	-0.349607
H115	H	-0.749016	1.825817	-0.449282
H116	H	-0.747135	1.751852	-0.354797
H117	H	-0.870937	1.803120	-0.466924
H118	H	-0.869071	1.729157	-0.372424
C119	C	-0.585536	1.817755	-0.379550
C120	C	-0.545005	1.740615	-0.439154
H121	H	-0.550716	1.857737	-0.348617
H122	H	-0.615747	1.786944	-0.327566
H123	H	-0.617622	1.860911	-0.422051
H124	H	-0.512923	1.697455	-0.396651
H125	H	-0.514781	1.771427	-0.491144
H126	H	-0.702187	1.766219	-0.419499
H127	H	-0.664082	1.397816	-0.704212
