data_functionalizedCrystal
_audit_creation_method	'MofGen! by Chris Wilmer'
_symmetry_space_group_name_H-M	'P1'
_symmetry_Int_Tables_number	1
_symmetry_cell_setting	triclinic
loop_
_symmetry_equiv_pos_as_xyz
  x,y,z
_cell_length_a	13.897449
_cell_length_b	16.120484
_cell_length_c	16.120297
_cell_angle_alpha	95.614431
_cell_angle_beta	92.879352
_cell_angle_gamma	92.926780
loop_
_atom_site_label
_atom_site_type_symbol
_atom_site_fract_x
_atom_site_fract_y
_atom_site_fract_z
Zn1	Zn	1.424987	-0.356719	-0.489429
Zn2	Zn	1.758320	-0.023386	-0.156096
Zn3	Zn	2.091654	0.309947	0.177237
Zn4	Zn	1.424865	-0.489409	-0.356740
Zn5	Zn	1.758199	-0.156076	-0.023407
Zn6	Zn	2.091532	0.177258	0.309927
Zn7	Zn	1.272296	-0.349658	-0.349678
Zn8	Zn	1.605629	-0.016325	-0.016345
Zn9	Zn	1.938962	0.317008	0.316989
Zn10	Zn	1.255025	-0.496454	-0.496465
Zn11	Zn	1.588359	-0.163120	-0.163132
Zn12	Zn	1.921692	0.170213	0.170201
O13	O	1.344293	-0.423060	-0.423078
O14	O	1.677627	-0.089727	-0.089745
O15	O	2.010960	0.243607	0.243588
O16	O	1.559951	-0.374328	-0.471839
O17	O	1.893285	-0.040994	-0.138505
O18	O	2.226618	0.292339	0.194828
O19	O	1.411804	-0.464968	-0.238841
O20	O	1.745137	-0.131634	0.094492
O21	O	2.078470	0.201699	0.427825
O22	O	1.299829	-0.233630	-0.362316
O23	O	1.633162	0.099704	-0.028983
O24	O	1.966496	0.433037	0.304350
O25	O	1.559862	-0.471814	-0.374352
O26	O	1.893195	-0.138481	-0.041019
O27	O	2.226529	0.194852	0.292314
O28	O	1.412011	-0.238817	-0.464991
O29	O	1.745344	0.094516	-0.131658
O30	O	2.078677	0.427849	0.201675
O31	O	1.299711	-0.362293	-0.233653
O32	O	1.633045	-0.028960	0.099680
O33	O	1.966378	0.304373	0.433014
O34	O	1.135024	-0.369124	-0.369139
O35	O	1.468357	-0.035791	-0.035806
O36	O	1.801691	0.297542	0.297528
O37	O	1.270394	-0.483821	-0.612494
O38	O	1.603727	-0.150487	-0.279161
O39	O	1.937061	0.182846	0.054173
O40	O	1.122336	-0.476974	-0.476983
O41	O	1.455669	-0.143641	-0.143650
O42	O	1.789002	0.189693	0.189684
O43	O	1.395264	-0.381159	-0.607325
O44	O	1.728598	-0.047825	-0.273991
O45	O	2.061931	0.285508	0.059342
O46	O	1.395057	-0.607309	-0.381175
O47	O	1.728390	-0.273976	-0.047841
O48	O	2.061724	0.059358	0.285492
O49	O	1.270276	-0.612484	-0.483830
O50	O	1.603610	-0.279151	-0.150497
O51	O	1.936943	0.054182	0.182836
C52	C	1.093681	-0.423048	-0.423059
C53	C	1.427014	-0.089715	-0.089725
C54	C	1.760348	0.243619	0.243608
C55	C	0.986465	-0.423064	-0.423071
C56	C	1.319799	-0.089731	-0.089738
C57	C	1.653132	0.243603	0.243596
C58	C	1.330804	-0.640225	-0.434051
C59	C	1.664138	-0.306892	-0.100717
C60	C	1.997471	0.026441	0.232616
C61	C	1.325120	-0.733131	-0.438773
C62	C	1.658454	-0.399798	-0.105439
C63	C	1.991787	-0.066464	0.227894
C64	C	0.790169	-0.423068	-0.423093
C65	C	1.123502	-0.089735	-0.089760
C66	C	1.456835	0.243599	0.243574
C67	C	0.899402	-0.423063	-0.423078
C68	C	1.232736	-0.089730	-0.089745
C69	C	1.566069	0.243604	0.243588
C70	C	1.314747	-0.903231	-0.447411
C71	C	1.648081	-0.569898	-0.114077
C72	C	1.981414	-0.236565	0.219256
C73	C	1.374011	-0.942049	-0.398759
C74	C	1.707345	-0.608716	-0.065426
C75	C	2.040678	-0.275382	0.267907
C76	C	1.368240	-1.036699	-0.403566
C77	C	1.701573	-0.703365	-0.070232
C78	C	2.034906	-0.370032	0.263101
C79	C	1.320518	-0.808573	-0.442606
C80	C	1.653851	-0.475240	-0.109272
C81	C	1.987184	-0.141907	0.224061
C82	C	1.595884	-0.423073	-0.423098
C83	C	1.929218	-0.089740	-0.089765
C84	C	2.262551	0.243594	0.243568
C85	C	1.703097	-0.423078	-0.423107
C86	C	2.036431	-0.089745	-0.089774
C87	C	2.369764	0.243588	0.243560
C88	C	1.330916	-0.434063	-0.641084
C89	C	1.664250	-0.100730	-0.307751
C90	C	1.997583	0.232604	0.025582
C91	C	1.325216	-0.438752	-0.733985
C92	C	1.658549	-0.105419	-0.400652
C93	C	1.991882	0.227915	-0.067319
C94	C	1.357860	-0.205048	-0.412081
C95	C	1.691193	0.128286	-0.078748
C96	C	2.024527	0.461619	0.254585
C97	C	1.363641	-0.112144	-0.407395
C98	C	1.696975	0.221190	-0.074062
C99	C	2.030308	0.554523	0.259272
C100	C	1.314774	-0.447294	-0.904076
C101	C	1.648107	-0.113961	-0.570742
C102	C	1.981441	0.219373	-0.237409
C103	C	1.374018	-0.398576	-0.942920
C104	C	1.707352	-0.065242	-0.609586
C105	C	2.040685	0.268091	-0.276253
C106	C	1.368208	-0.403329	-1.037564
C107	C	1.701542	-0.069995	-0.704230
C108	C	2.034875	0.263338	-0.370897
C109	C	1.320583	-0.442542	-0.809423
C110	C	1.653916	-0.109209	-0.476090
C111	C	1.987249	0.224124	-0.142757
C112	C	1.357678	-0.412040	-0.205917
C113	C	1.691011	-0.078706	0.127416
C114	C	2.024344	0.254627	0.460749
C115	C	1.363579	-0.407115	-0.113005
C116	C	1.696913	-0.073782	0.220329
C117	C	2.030246	0.259551	0.553662
H118	H	1.429083	-0.904197	-0.353497
H119	H	1.762416	-0.570864	-0.020164
H120	H	2.095749	-0.237531	0.313169
H121	H	1.429101	-0.353296	-0.905095
H122	H	1.762435	-0.019963	-0.571762
H123	H	2.095768	0.313370	-0.238428
C124	C	1.241344	-0.953840	-0.507670
C125	C	1.574678	-0.620507	-0.174337
C126	C	1.908011	-0.287173	0.158997
C127	C	1.250121	-1.039014	-0.500488
C128	C	1.583454	-0.705681	-0.167155
C129	C	1.916788	-0.372348	0.166179
C130	C	1.182508	-1.085670	-0.555973
C131	C	1.515842	-0.752337	-0.222640
C132	C	1.849175	-0.419003	0.110693
H133	H	1.252736	-0.942490	-0.563170
H134	H	1.586070	-0.609157	-0.229837
H135	H	1.919403	-0.275823	0.103497
H136	H	1.178126	-0.939069	-0.494668
H137	H	1.511460	-0.605736	-0.161334
H138	H	1.844793	-0.272403	0.171999
H139	H	1.313324	-1.053780	-0.513496
H140	H	1.646657	-0.720446	-0.180162
H141	H	1.979991	-0.387113	0.153171
H142	H	1.238720	-1.050390	-0.445000
H143	H	1.572053	-0.717057	-0.111667
H144	H	1.905387	-0.383723	0.221666
H145	H	1.119290	-1.070899	-0.542971
H146	H	1.452624	-0.737566	-0.209638
H147	H	1.785957	-0.404233	0.123696
H148	H	1.193906	-1.074313	-0.611470
H149	H	1.527239	-0.740980	-0.278136
H150	H	1.860573	-0.407646	0.055197
H151	H	1.188448	-1.143465	-0.551102
H152	H	1.521781	-0.810132	-0.217769
H153	H	1.855115	-0.476799	0.115564
H154	H	1.259695	-0.492569	-0.941898
H155	H	1.593028	-0.159236	-0.608565
H156	H	1.926362	0.174097	-0.275231
