data_functionalizedCrystal
_audit_creation_method	'MofGen! by Chris Wilmer'
_symmetry_space_group_name_H-M	'P1'
_symmetry_Int_Tables_number	1
_symmetry_cell_setting	triclinic
loop_
_symmetry_equiv_pos_as_xyz
  x,y,z
_cell_length_a	17.699083
_cell_length_b	9.065215
_cell_length_c	16.776229
_cell_angle_alpha	89.996805
_cell_angle_beta	90.005210
_cell_angle_gamma	84.148856
loop_
_atom_site_label
_atom_site_type_symbol
_atom_site_fract_x
_atom_site_fract_y
_atom_site_fract_z
O1	O	0.110952	1.957116	-0.066281
O2	O	0.120056	1.527561	-0.066285
O3	O	0.005409	1.754475	-0.066276
O4	O	0.225599	1.730203	-0.066290
O5	O	0.005429	1.754454	0.066301
O6	O	0.120077	1.527540	0.066292
O7	O	0.110972	1.957095	0.066296
Zn8	Zn	0.115527	1.742314	0.087343
Zn9	Zn	0.115501	1.742342	-0.087332
O10	O	0.225619	1.730182	0.066287
C11	C	0.119192	1.472590	0.000003
C12	C	0.116577	1.308824	0.000002
C13	C	-0.022784	1.753594	0.000013
C14	C	-0.106823	1.750985	0.000013
C15	C	-0.154406	1.884179	0.000015
C16	C	-0.233368	1.881718	0.000008
C17	C	-0.264746	1.746063	0.000005
C18	C	-0.217157	1.612859	-0.000000
C19	C	-0.138196	1.615321	0.000001
C20	C	-0.535598	1.602928	-0.000007
C21	C	-0.614565	1.600476	-0.000006
C22	C	-0.630770	1.869325	0.000000
C23	C	-0.551809	1.871787	0.000002
C24	C	-0.504227	1.738584	-0.000007
C25	C	-0.418607	1.741253	-0.000001
C26	C	-0.350365	1.743392	0.000004
C27	C	0.253812	1.731062	-0.000003
C28	C	0.337851	1.733671	-0.000009
C29	C	0.111836	2.012066	0.000006
C30	C	0.114451	2.175832	0.000002
N31	N	0.115545	1.742306	0.206554
N32	N	0.115477	1.742362	-0.206543
C33	C	0.068940	1.653055	0.751729
C34	C	0.068947	1.653052	0.668276
C35	C	0.115494	1.742348	0.626554
C36	C	0.162033	1.831665	0.668288
C37	C	0.162022	1.831675	0.751738
C38	C	0.162077	1.831627	0.331741
C39	C	0.162086	1.831606	0.248284
C40	C	0.069002	1.653003	0.248278
C41	C	0.068991	1.653013	0.331729
C42	C	0.115526	1.742335	0.373456
C43	C	0.115518	1.742340	0.463944
C44	C	0.115507	1.742336	0.536067
H45	H	-0.128864	1.994645	0.000023
O46	O	0.207171	1.918558	0.372299
C47	C	0.161738	2.019379	0.420564
H48	H	0.101628	2.035428	0.395404
H49	H	0.186718	2.130415	0.421499
H50	H	0.160131	1.973825	0.483816
H51	H	-0.526265	1.982251	0.000009
O52	O	-0.676961	1.998763	0.000140
C53	C	-0.662579	2.081144	0.068796
H54	H	-0.636131	2.003153	0.116787
H55	H	-0.718181	2.140503	0.091841
H56	H	-0.621797	2.166390	0.053277
H57	H	-0.099454	1.506861	-0.000001
O58	O	0.023793	1.566349	0.792376
C59	C	0.033745	1.585528	0.874982
H60	H	0.091369	1.627368	0.886394
H61	H	0.031040	1.474972	0.906701
H62	H	-0.013127	1.669748	0.898647
O63	O	-0.644921	1.468563	-0.000051
C64	C	-0.585993	1.351521	-0.000041
H65	H	-0.532084	1.392685	-0.025139
H66	H	-0.603148	1.256811	-0.038539
H67	H	-0.575097	1.310423	0.063559
H68	H	-0.272108	1.990178	0.000012
O69	O	-0.247760	1.481211	0.000031
C70	C	-0.327657	1.507595	0.000013
H71	H	-0.345405	1.622784	0.025115
H72	H	-0.352485	1.420801	0.038504
H73	H	-0.349687	1.500535	-0.063590
O74	O	0.023722	1.566157	0.627866
C75	C	-0.017374	1.487365	0.682585
H76	H	0.013891	1.478651	0.742078
H77	H	-0.022893	1.371378	0.658479
H78	H	-0.076351	1.548350	0.691446
H79	H	-0.496865	1.494465	-0.000014
O80	O	0.023704	1.566234	0.372136
C81	C	-0.017359	1.487377	0.317412
H82	H	-0.021332	1.548447	0.257919
H83	H	-0.076942	1.478456	0.341513
H84	H	0.012992	1.371466	0.308554
O85	O	0.207195	1.918444	0.207664
C86	C	0.161766	2.019275	0.159387
H87	H	0.105283	1.973562	0.146880
H88	H	0.192314	2.035580	0.100708
H89	H	0.150965	2.130216	0.191533
H90	H	0.031108	1.580277	0.214295
O91	O	0.207335	1.918188	0.627724
C92	C	0.258330	1.828043	0.579457
H93	H	0.265615	1.710633	0.604616
H94	H	0.315680	1.874977	0.578521
H95	H	0.234934	1.825627	0.516206
H96	H	0.199917	1.904399	0.785712
