data_functionalizedCrystal
_audit_creation_method	'MofGen! by Chris Wilmer'
_symmetry_space_group_name_H-M	'P1'
_symmetry_Int_Tables_number	1
_symmetry_cell_setting	triclinic
loop_
_symmetry_equiv_pos_as_xyz
  x,y,z
_cell_length_a	10.723023
_cell_length_b	16.109301
_cell_length_c	14.586319
_cell_angle_alpha	90.005214
_cell_angle_beta	89.996956
_cell_angle_gamma	96.035486
loop_
_atom_site_label
_atom_site_type_symbol
_atom_site_fract_x
_atom_site_fract_y
_atom_site_fract_z
O1	O	1.655642	-0.116605	-0.076234
O2	O	1.292341	-0.127767	-0.076238
O3	O	1.483972	-0.001214	-0.076227
O4	O	1.464011	-0.243158	-0.076246
O5	O	1.483958	-0.001212	0.076254
O6	O	1.292328	-0.127765	0.076242
O7	O	1.655628	-0.116603	0.076247
Cu8	Cu	1.473977	-0.122184	0.090167
Cu9	Cu	1.473993	-0.122186	-0.090159
O10	O	1.463998	-0.243156	0.076235
C11	C	1.245846	-0.126954	0.000002
C12	C	1.107324	-0.124524	0.000000
C13	C	1.045559	-0.123440	0.078989
C14	C	0.902389	-0.120928	0.078990
C15	C	1.483157	0.029767	0.000014
C16	C	1.480733	0.122076	0.000015
C17	C	1.702124	-0.117416	0.000005
C18	C	1.840646	-0.119846	-0.000000
C19	C	1.464813	-0.274137	-0.000008
C20	C	1.467237	-0.366447	-0.000015
N21	N	1.473975	-0.122182	0.216999
C22	C	1.588806	0.343713	0.000002
C23	C	1.586518	0.430447	-0.000006
C24	C	1.359155	0.411910	-0.000005
C25	C	1.361444	0.325178	-0.000004
C26	C	1.476273	0.291082	0.000004
C27	C	1.471697	0.464548	-0.000004
C28	C	1.469216	0.558588	-0.000012
C29	C	1.478755	0.197035	0.000011
N30	N	1.474005	-0.122182	-0.216991
C31	C	1.558857	-0.066163	0.452010
C32	C	1.558861	-0.066161	0.547992
C33	C	1.389114	-0.178203	0.547991
C34	C	1.389105	-0.178201	0.452011
C35	C	1.473984	-0.122182	0.404024
C36	C	1.473996	-0.122182	0.595984
C37	C	1.473999	-0.122180	0.700052
C38	C	1.473979	-0.122182	0.299950
H39	H	0.893753	-0.120784	-0.067629
O40	O	0.839194	-0.119706	0.159730
C41	C	0.813230	-0.047070	0.301759
C42	C	0.884918	-0.048363	0.210360
H43	H	0.850152	0.010614	0.342711
H44	H	0.827339	-0.105560	0.342833
H45	H	0.709051	-0.045284	0.287364
H46	H	0.989119	-0.050120	0.224672
H47	H	0.870705	0.010123	0.169315
H48	H	1.269801	0.282323	-0.000004
H49	H	1.054210	-0.123591	-0.067625
H50	H	1.682307	0.315955	0.000007
O51	O	1.695949	0.481453	0.000036
C52	C	1.921703	0.490680	-0.000016
C53	C	1.797861	0.432821	-0.000039
H54	H	2.004131	0.451384	-0.000096
H55	H	1.926398	0.531742	0.063810
H56	H	1.926253	0.531759	-0.063816
H57	H	1.793228	0.391691	0.063718
H58	H	1.793217	0.391816	-0.063907
H59	H	1.627969	-0.020548	0.412941
H60	H	1.265666	0.439682	-0.000009
H61	H	1.627971	-0.020545	0.587060
O62	O	1.109072	-0.124441	0.159611
C63	C	1.270295	-0.055092	0.255980
C64	C	1.198488	-0.053865	0.164632
H65	H	1.342585	0.001972	0.260077
H66	H	1.319888	-0.114204	0.260085
H67	H	1.201495	-0.053926	0.315439
H68	H	1.267204	-0.055000	0.105121
H69	H	1.148876	0.005243	0.160607
H70	H	1.320009	-0.223814	0.587072
O71	O	1.306608	-0.232701	0.405533
C72	C	1.138191	-0.343797	0.415653
C73	C	1.231568	-0.282141	0.468403
H74	H	1.077479	-0.383774	0.466460
H75	H	1.191975	-0.385713	0.370730
H76	H	1.075929	-0.307503	0.370704
H77	H	1.293853	-0.318368	0.513401
H78	H	1.177706	-0.240225	0.513268
