data_functionalizedCrystal
_audit_creation_method	'MofGen! by Chris Wilmer'
_symmetry_space_group_name_H-M	'P1'
_symmetry_Int_Tables_number	1
_symmetry_cell_setting	triclinic
loop_
_symmetry_equiv_pos_as_xyz
  x,y,z
_cell_length_a	19.188930
_cell_length_b	11.792254
_cell_length_c	10.268362
_cell_angle_alpha	89.994545
_cell_angle_beta	89.981535
_cell_angle_gamma	83.671689
loop_
_atom_site_label
_atom_site_type_symbol
_atom_site_fract_x
_atom_site_fract_y
_atom_site_fract_z
O1	O	0.926951	0.141694	-0.108720
O2	O	0.723749	0.160768	-0.108631
O3	O	0.830277	-0.014013	-0.108668
O4	O	0.820423	0.316474	-0.108682
O5	O	0.830267	-0.014020	0.107932
O6	O	0.723739	0.160761	0.107970
O7	O	0.926942	0.141687	0.107881
Cu8	Cu	0.825340	0.151223	0.127703
Cu9	Cu	0.825351	0.151231	-0.128453
O10	O	0.820414	0.316467	0.107918
C11	C	0.697729	0.160147	-0.000319
C12	C	0.620214	0.158292	-0.000285
C13	C	0.829651	-0.056298	-0.000368
C14	C	0.827793	-0.182283	-0.000368
C15	C	0.826284	-0.284597	-0.000372
C16	C	0.824396	-0.412955	-0.000384
C17	C	0.575874	0.260848	-0.000309
C18	C	0.503040	0.259106	-0.000324
C19	C	0.474550	0.154803	-0.000339
C20	C	0.518900	0.052234	-0.000307
C21	C	0.591732	0.053979	-0.000280
N22	N	0.366119	0.075078	-0.074107
N23	N	0.296931	0.073428	-0.074136
C24	C	0.255112	0.149539	-0.000419
N25	N	0.285092	0.227381	0.073312
N26	N	0.354286	0.229035	0.073335
C27	C	0.395577	0.152899	-0.000368
C28	C	0.131796	0.250213	-0.000457
C29	C	0.058962	0.248466	-0.000463
C30	C	0.074823	0.041591	-0.000460
C31	C	0.147656	0.043340	-0.000440
C32	C	0.176138	0.147654	-0.000445
C33	C	0.952961	0.142308	-0.000434
C34	C	1.030476	0.144162	-0.000477
C35	C	0.821039	0.358752	-0.000385
C36	C	0.822897	0.484737	-0.000393
N37	N	0.825337	0.151216	0.307869
N38	N	0.825359	0.151229	-0.308618
C39	C	0.825347	0.151229	0.573539
C40	C	0.825339	0.151225	0.425701
H41	H	0.466932	0.342621	-0.000340
C42	C	0.163136	0.364950	-0.000456
C43	C	0.211004	0.394592	0.112024
C44	C	0.242343	0.509327	0.112021
C45	C	0.225815	0.594421	-0.000460
C46	C	0.177945	0.564781	-0.112948
C47	C	0.146606	0.450045	-0.112946
H48	H	0.223241	0.331598	0.195297
H49	H	0.277779	0.531268	0.195293
H50	H	0.249014	0.679355	-0.000462
H51	H	0.165708	0.627775	-0.196222
H52	H	0.111169	0.428105	-0.196217
C53	C	0.487565	-0.062502	-0.000328
C54	C	0.407453	-0.064427	-0.000367
C55	C	0.376118	-0.179167	-0.000381
C56	C	0.424896	-0.291982	-0.000355
C57	C	0.505013	-0.290061	-0.000316
C58	C	0.536347	-0.175321	-0.000302
H59	H	0.371340	0.019089	-0.000386
H60	H	0.316810	-0.180588	-0.000410
H61	H	0.401700	-0.376919	-0.000365
H62	H	0.541125	-0.373577	-0.000297
H63	H	0.595655	-0.173900	-0.000273
H64	H	0.627835	-0.029537	-0.000260
C65	C	0.010182	0.361284	-0.000490
C66	C	-0.042097	0.388537	0.111969
C67	C	-0.090879	0.501355	0.111942
C68	C	-0.087381	0.586921	-0.000544
C69	C	-0.035100	0.559670	-0.113011
C70	C	0.013682	0.446851	-0.112984
H71	H	-0.044688	0.325194	0.195246
H72	H	-0.129580	0.521528	0.195198
H73	H	-0.123492	0.670435	-0.000564
H74	H	-0.032509	0.623012	-0.196287
H75	H	0.052384	0.426679	-0.196240
H76	H	0.051627	-0.043335	-0.000553
H77	H	0.599059	0.345788	-0.000316
H78	H	0.183759	-0.040172	-0.000427
