data_functionalizedCrystal
_audit_creation_method	'MofGen! by Chris Wilmer'
_symmetry_space_group_name_H-M	'P1'
_symmetry_Int_Tables_number	1
_symmetry_cell_setting	triclinic
loop_
_symmetry_equiv_pos_as_xyz
  x,y,z
_cell_length_a	9.065218
_cell_length_b	10.654550
_cell_length_c	9.730223
_cell_angle_alpha	90.000193
_cell_angle_beta	89.999690
_cell_angle_gamma	95.249606
loop_
_atom_site_label
_atom_site_type_symbol
_atom_site_fract_x
_atom_site_fract_y
_atom_site_fract_z
O1	O	1.959386	-0.184154	-0.114290
O2	O	1.530019	-0.199259	-0.114291
O3	O	1.754575	-0.009007	-0.114285
O4	O	1.734831	-0.374407	-0.114296
O5	O	1.754572	-0.009011	0.114295
O6	O	1.530016	-0.199264	0.114289
O7	O	1.959384	-0.184159	0.114290
Zn8	Zn	1.744700	-0.191712	0.150581
Zn9	Zn	1.744703	-0.191706	-0.150582
O10	O	1.734828	-0.374412	0.114284
C11	C	1.475039	-0.197810	-0.000001
C12	C	1.311220	-0.193469	-0.000002
C13	C	1.753124	0.037795	0.000003
C14	C	1.748786	0.177255	-0.000002
C15	C	2.014364	-0.185608	-0.000002
C16	C	2.178183	-0.189949	-0.000011
C17	C	1.736279	-0.421213	-0.000007
C18	C	1.740616	-0.560673	-0.000011
N19	N	1.744708	-0.191716	0.356118
C20	C	1.881001	0.256217	0.000003
C21	C	1.876917	0.387254	-0.000007
C22	C	1.608391	0.360354	-0.000020
C23	C	1.612477	0.229320	-0.000020
C24	C	2.036032	0.271749	0.000016
C25	C	2.031948	0.402786	0.000007
N26	N	1.744706	-0.191692	-0.356119
C27	C	1.844167	-0.107501	0.428047
C28	C	1.844163	-0.107486	0.571930
C29	C	1.645236	-0.275911	0.571942
C30	C	1.645234	-0.275920	0.428062
C31	C	1.959020	-0.010265	0.428040
C32	C	1.959016	-0.010250	0.571923
H33	H	1.504815	0.165033	-0.000043
C34	C	2.101753	0.223714	0.131538
C35	C	2.102368	0.092509	0.124511
C36	C	2.162877	0.048213	0.245652
H37	H	2.200339	0.260992	0.142206
H38	H	2.043769	0.245374	0.207816
H39	H	2.160353	0.070861	0.048255
H40	H	2.003800	0.055198	0.113864
H41	H	2.104893	0.069872	0.321930
H42	H	2.261460	0.085499	0.256309
H43	H	2.163290	-0.040815	0.240906
C44	C	1.460510	0.417058	-0.000247
C45	C	1.450343	0.491520	-0.117833
C46	C	1.314142	0.543785	-0.118078
H47	H	1.382222	0.351393	-0.000319
H48	H	1.453315	0.467690	0.079420
H49	H	1.457523	0.440890	-0.197479
H50	H	1.528598	0.557205	-0.117786
H51	H	1.306947	0.594417	-0.038411
H52	H	1.235865	0.478112	-0.118146
H53	H	1.307231	0.594322	-0.197851
C54	C	2.116623	0.232320	-0.127693
C55	C	2.041879	0.268784	-0.244968
C56	C	2.116059	0.232469	-0.362636
H57	H	2.214884	0.271862	-0.127890
H58	H	2.119357	0.143393	-0.127775
H59	H	2.039161	0.357694	-0.244887
H60	H	1.943622	0.229246	-0.244817
H61	H	2.118794	0.143543	-0.362717
H62	H	2.214318	0.272015	-0.362818
H63	H	2.065350	0.257194	-0.442220
H64	H	2.078802	0.448245	-0.098688
C65	C	2.110045	0.458272	0.127398
C66	C	2.229526	0.543193	0.087878
C67	C	2.301500	0.594321	0.205190
H68	H	2.042541	0.501142	0.180608
H69	H	2.145349	0.392473	0.180566
H70	H	2.194221	0.608982	0.034733
H71	H	2.297062	0.500354	0.034684
H72	H	2.336804	0.528522	0.258358
H73	H	2.233986	0.637184	0.258393
H74	H	2.382584	0.651936	0.178392
C75	C	1.537409	-0.367553	0.350045
C76	C	1.562600	-0.491260	0.385030
C77	C	1.463308	-0.575709	0.313177
H78	H	1.438745	-0.352899	0.373570
H79	H	1.551653	-0.355589	0.254036
H80	H	1.548345	-0.503218	0.481017
H81	H	1.661245	-0.505953	0.361501
H82	H	1.477552	-0.563745	0.217168
H83	H	1.364651	-0.561044	0.336707
H84	H	1.480396	-0.659654	0.336894
H85	H	1.923170	0.081115	0.616541
C86	C	1.925110	0.118522	0.376043
C87	C	1.785804	0.145188	0.424161
C88	C	1.754504	0.263804	0.376278
H89	H	1.998441	0.180860	0.408550
H90	H	1.925019	0.118549	0.278403
H91	H	1.785907	0.145172	0.521780
H92	H	1.712444	0.082882	0.391658
H93	H	1.754413	0.263831	0.278638
H94	H	1.827843	0.326132	0.408788
H95	H	1.659978	0.281907	0.408908
C96	C	2.110270	-0.039612	0.623737
C97	C	2.202793	-0.057589	0.511588
C98	C	2.342126	-0.084651	0.559265
H99	H	2.152438	0.028651	0.677931
H100	H	2.099856	-0.114060	0.677946
H101	H	2.213212	0.016850	0.457402
H102	H	2.160672	-0.125855	0.457383
H103	H	2.331711	-0.159099	0.613474
H104	H	2.384279	-0.016385	0.613460
H105	H	2.404915	-0.096863	0.483181
H106	H	1.564247	-0.344467	0.630535
H107	H	2.066144	-0.041278	0.383414
