data_functionalizedCrystal
_audit_creation_method	'MofGen! by Chris Wilmer'
_symmetry_space_group_name_H-M	'P1'
_symmetry_Int_Tables_number	1
_symmetry_cell_setting	triclinic
loop_
_symmetry_equiv_pos_as_xyz
  x,y,z
_cell_length_a	17.699083
_cell_length_b	17.699104
_cell_length_c	15.186229
_cell_angle_alpha	89.993511
_cell_angle_beta	90.001174
_cell_angle_gamma	96.712734
loop_
_atom_site_label
_atom_site_type_symbol
_atom_site_fract_x
_atom_site_fract_y
_atom_site_fract_z
O1	O	0.095781	-1.004068	0.073248
O2	O	0.595781	-0.504068	0.573248
O3	O	0.108217	-0.783691	0.073246
O4	O	0.608217	-0.283691	0.573246
O5	O	-0.008190	-0.900106	0.073239
O6	O	0.491810	-0.400106	0.573239
O7	O	0.212188	-0.887653	0.073255
O8	O	0.712188	-0.387653	0.573255
O9	O	-0.008183	-0.900092	-0.073218
O10	O	0.491817	-0.400092	0.426782
O11	O	0.108224	-0.783678	-0.073211
O12	O	0.608224	-0.283678	0.426789
O13	O	0.095788	-1.004054	-0.073209
O14	O	0.595788	-0.504054	0.426791
Zn15	Zn	0.102007	-0.893864	-0.096463
Zn16	Zn	0.602007	-0.393864	0.403537
Zn17	Zn	0.101998	-0.893882	0.096500
Zn18	Zn	0.601998	-0.393882	0.596500
O19	O	0.212194	-0.887640	-0.073202
O20	O	0.712194	-0.387640	0.426798
C21	C	-0.036383	-0.899653	0.000011
C22	C	0.463617	-0.399653	0.500011
C23	C	-0.120402	-0.898314	0.000010
C24	C	0.379598	-0.398314	0.500010
C25	C	0.107772	-0.755488	0.000017
C26	C	0.607772	-0.255488	0.500017
C27	C	0.106427	-0.671471	0.000016
C28	C	0.606427	-0.171471	0.500016
C29	C	0.096233	-1.032258	0.000022
C30	C	0.596233	-0.532258	0.500022
C31	C	0.097578	-1.116275	0.000028
C32	C	0.597578	-0.616275	0.500028
C33	C	-0.169017	-0.966647	0.000010
C34	C	0.330983	-0.466647	0.500010
C35	C	-0.247961	-0.965385	0.000017
C36	C	0.252039	-0.465385	0.500017
C37	C	-0.278287	-0.895789	0.000020
C38	C	0.221713	-0.395789	0.500020
C39	C	-0.229665	-0.827451	0.000023
C40	C	0.270335	-0.327451	0.500023
C41	C	-0.150723	-0.828714	0.000021
C42	C	0.349277	-0.328714	0.500021
C43	C	-0.548028	-0.822356	0.000030
C44	C	-0.048028	-0.322356	0.500030
C45	C	-0.626976	-0.821098	0.000029
C46	C	-0.126976	-0.321098	0.500029
C47	C	-0.645266	-0.959026	0.000026
C48	C	-0.145266	-0.459026	0.500026
C49	C	-0.566324	-0.960289	0.000025
C50	C	-0.066324	-0.460289	0.500025
C51	C	-0.517709	-0.891952	0.000032
C52	C	-0.017709	-0.391952	0.500032
C53	C	-0.432110	-0.893321	0.000026
C54	C	0.067890	-0.393321	0.500026
C55	C	-0.363885	-0.894419	0.000020
C56	C	0.136115	-0.394419	0.500020
C57	C	0.240388	-0.888093	0.000028
C58	C	0.740388	-0.388093	0.500028
C59	C	0.324406	-0.889431	0.000034
C60	C	0.824406	-0.389431	0.500034
C61	C	0.167171	-0.146600	0.000030
C62	C	0.667171	0.353400	0.500030
C63	C	0.168430	-0.225543	0.000032
C64	C	0.668430	0.274457	0.500032
C65	C	0.100095	-0.274161	0.000027
C66	C	0.600095	0.225839	0.500027
C67	C	0.030496	-0.243831	0.000029
C68	C	0.530496	0.256169	0.500029
C69	C	0.029238	-0.164889	0.000032
C70	C	0.529238	0.335111	0.500032
C71	C	0.035569	-0.562197	0.000015
C72	C	0.535569	-0.062197	0.500015
C73	C	0.036833	-0.641144	0.000009
C74	C	0.536833	-0.141144	0.500009
C75	C	0.174762	-0.622852	0.000015
C76	C	0.674762	-0.122852	0.500015
C77	C	0.173503	-0.543909	0.000019
C78	C	0.673503	-0.043909	0.500019
C79	C	0.103905	-0.513587	0.000025
C80	C	0.603905	-0.013587	0.500025
C81	C	0.102541	-0.427987	0.000024
C82	C	0.602541	0.072013	0.500024
C83	C	0.101459	-0.359759	0.000022
C84	C	0.601459	0.140241	0.500022
N85	N	0.102012	-0.893857	-0.228156
N86	N	0.602012	-0.393857	0.271844
C87	C	0.147851	-0.939688	-0.453875
C88	C	0.647851	-0.439688	0.046125
C89	C	0.147845	-0.939696	-0.546065
C90	C	0.647845	-0.439696	-0.046065
C91	C	0.056143	-0.848062	-0.546082
C92	C	0.556143	-0.348062	-0.046082
C93	C	0.056145	-0.848058	-0.453894
C94	C	0.556145	-0.348058	0.046106
C95	C	0.102003	-0.893870	-0.407793
C96	C	0.602003	-0.393870	0.092207
C97	C	0.101996	-0.893882	-0.592170
C98	C	0.601996	-0.393882	-0.092170
C99	C	0.101990	-0.893890	-0.692126
C100	C	0.601990	-0.393890	-0.192126
C101	C	0.102008	-0.893862	-0.307830
C102	C	0.602008	-0.393862	0.192170
N103	N	0.101987	-0.893894	0.228193
N104	N	0.601987	-0.393894	0.728193
H105	H	-0.144333	-1.023320	0.000003
H106	H	0.355667	-0.523320	0.500003
N107	N	0.197276	-0.989132	-0.595769
N108	N	0.697276	-0.489132	-0.095769
H109	H	0.226319	-1.018157	-0.552572
H110	H	0.726319	-0.518157	-0.052572
H111	H	0.234319	-0.956084	-0.634038
H112	H	0.734319	-0.456084	-0.134038
H113	H	-0.508455	-0.766711	0.000036
H114	H	-0.008455	-0.266711	0.500036
N115	N	-0.697704	-1.032735	0.000034
N116	N	-0.197704	-0.532735	0.500034
H117	H	-0.666512	-1.077014	0.000029
H118	H	-0.166512	-0.577014	0.500029
H119	H	-0.730859	-1.035210	-0.054257
H120	H	-0.230859	-0.535210	0.445743
N121	N	0.243498	-0.258240	0.000028
N122	N	0.743498	0.241760	0.500028
H123	H	0.247098	-0.290580	-0.054263
H124	H	0.747098	0.209420	0.445737
H125	H	0.247056	-0.290551	0.054356
H126	H	0.747056	0.209449	0.554356
H127	H	-0.651664	-0.764421	0.000029
H128	H	-0.151664	-0.264421	0.500029
H129	H	0.222818	-0.107020	0.000027
H130	H	0.722818	0.392980	0.500027
N131	N	0.197306	-0.989098	-0.404150
N132	N	0.697306	-0.489098	0.095850
H133	H	0.226348	-1.018126	-0.447335
H134	H	0.726348	-0.518126	0.052665
H135	H	0.164261	-1.026155	-0.365894
H136	H	0.664261	-0.526155	0.134106
N137	N	0.006696	-0.798634	-0.404186
N138	N	0.506696	-0.298634	0.095814
H139	H	0.013654	-0.805586	-0.338790
H140	H	0.513654	-0.305586	0.161210
H141	H	-0.048370	-0.813690	-0.420297
H142	H	0.451630	-0.313690	0.079703
H143	H	-0.025143	-0.283422	0.000030
H144	H	0.474857	0.216578	0.500030
N145	N	-0.039494	-0.529497	0.000014
N146	N	0.460506	-0.029497	0.500014
H147	H	-0.082590	-0.572277	0.000005
H148	H	0.417410	-0.072277	0.500005
H149	H	-0.043017	-0.497134	-0.054278
H150	H	0.456983	0.002866	0.445722
H151	H	0.018808	-0.810763	-0.583628
H152	H	0.518808	-0.310763	-0.083628
N153	N	-0.262372	-0.752387	0.000017
N154	N	0.237628	-0.252387	0.500017
H155	H	-0.219593	-0.709290	0.000018
H156	H	0.280407	-0.209290	0.500018
H157	H	-0.294728	-0.748862	0.054309
H158	H	0.205272	-0.248862	0.554309
N159	N	-0.300398	-1.039085	0.000009
N160	N	0.199602	-0.539085	0.500009
H161	H	-0.290656	-1.069467	0.054295
H162	H	0.209344	-0.569467	0.554295
H163	H	-0.290634	-1.069383	-0.054325
H164	H	0.209366	-0.569383	0.445675
N165	N	-0.533621	-1.035356	0.000017
N166	N	-0.033621	-0.535356	0.500017
H167	H	-0.551356	-1.065291	0.054310
H168	H	-0.051356	-0.565291	0.554310
H169	H	-0.476240	-1.025725	-0.000019
H170	H	0.023760	-0.525725	0.499981
N171	N	-0.098283	-0.755013	0.000027
N172	N	0.401717	-0.255013	0.500027
H173	H	-0.129472	-0.710732	0.000028
H174	H	0.370528	-0.210732	0.500028
H175	H	-0.065130	-0.752525	-0.054265
H176	H	0.434870	-0.252525	0.445735
N177	N	-0.045820	-0.132171	0.000029
N178	N	0.454180	0.367829	0.500029
H179	H	-0.075754	-0.149914	0.054318
H180	H	0.424246	0.350086	0.554318
H181	H	-0.075691	-0.149904	-0.054301
H182	H	0.424309	0.350096	0.445699
N183	N	0.247207	-0.491472	-0.000030
N184	N	0.747207	0.008528	0.499970
H185	H	0.291487	-0.522662	-0.000043
H186	H	0.791487	-0.022662	0.499957
H187	H	0.249714	-0.458307	0.054249
H188	H	0.749714	0.041693	0.554249
H189	H	-0.018817	-0.680728	0.000007
H190	H	0.481183	-0.180728	0.500007
N191	N	0.249832	-0.655557	0.000013
N192	N	0.749832	-0.155557	0.500013
H193	H	0.240264	-0.712943	0.000013
H194	H	0.740264	-0.212943	0.500013
H195	H	0.279727	-0.637769	0.054306
H196	H	0.779727	-0.137769	0.554306
