data_functionalizedCrystal
_audit_creation_method	'MofGen! by Chris Wilmer'
_symmetry_space_group_name_H-M	'P1'
_symmetry_Int_Tables_number	1
_symmetry_cell_setting	triclinic
loop_
_symmetry_equiv_pos_as_xyz
  x,y,z
_cell_length_a	10.654550
_cell_length_b	12.503572
_cell_length_c	10.654550
_cell_angle_alpha	86.441476
_cell_angle_beta	84.484903
_cell_angle_gamma	93.555982
loop_
_atom_site_label
_atom_site_type_symbol
_atom_site_fract_x
_atom_site_fract_y
_atom_site_fract_z
O1	O	1.675027	0.089407	0.169189
O2	O	1.309547	0.089389	0.185997
O3	O	1.500690	0.089394	-0.005146
O4	O	1.483884	0.089401	0.360332
O5	O	1.486315	-0.089248	0.009253
O6	O	1.295172	-0.089253	0.200396
O7	O	1.660652	-0.089236	0.183588
Cu8	Cu	1.476600	-0.105556	0.193307
Cu9	Cu	1.493600	0.105709	0.176278
O10	O	1.469510	-0.089241	0.374731
C11	C	1.255562	0.000066	0.191962
C12	C	1.116118	0.000059	0.188271
N13	N	1.464652	-0.254149	0.205283
C14	C	1.036634	0.000077	0.300811
C15	C	0.905614	0.000095	0.297333
C16	C	0.933577	0.000083	0.068765
C17	C	1.064593	0.000056	0.072245
C18	C	1.020489	0.000089	0.432773
C19	C	0.889470	0.000107	0.429295
C20	C	1.447077	-0.473264	0.222911
C21	C	1.523129	-0.526589	0.146668
C22	C	1.513350	-0.648513	0.156477
C23	C	1.456854	-0.351330	0.213104
C24	C	1.714638	0.000090	0.177622
C25	C	1.854082	0.000104	0.181313
C26	C	1.492269	0.000074	-0.044745
C27	C	1.488577	0.000078	-0.184188
N28	N	1.505557	0.254302	0.164292
C29	C	1.601119	0.000080	-0.263674
C30	C	1.597643	0.000087	-0.394695
C31	C	1.369073	0.000086	-0.366732
C32	C	1.372551	0.000086	-0.235714
C33	C	1.733081	0.000076	-0.279819
C34	C	1.729605	0.000084	-0.410841
C35	C	1.477931	0.000081	0.414329
C36	C	1.481623	0.000085	0.553772
H37	H	0.891610	0.000097	-0.025702
C38	C	1.276394	0.000111	-0.022460
C39	C	1.248845	0.000104	-0.148341
H40	H	1.200019	0.000131	0.031477
H41	H	1.318882	-0.062188	-0.001713
H42	H	1.328950	0.062406	-0.011772
H43	H	1.196296	-0.062196	-0.159032
H44	H	1.206337	0.062408	-0.169095
H45	H	0.837592	-0.077017	0.475392
C46	C	1.611431	-0.354078	0.057348
C47	C	1.620670	-0.464615	0.048333
H48	H	1.671571	-0.315818	-0.003434
H49	H	1.528798	-0.335862	0.041905
H50	H	1.627681	-0.335590	0.139685
H51	H	1.604412	-0.483105	-0.034001
H52	H	1.703323	-0.482839	0.063766
H53	H	1.768896	-0.077056	-0.237975
H54	H	0.853753	0.074876	0.472990
H55	H	1.043804	-0.074676	0.490410
H56	H	1.374628	-0.519174	0.295548
H57	H	1.775693	0.077218	-0.462701
C58	C	1.262251	0.000088	-0.555158
C59	C	1.241541	0.000086	-0.423373
H60	H	1.183514	0.000080	-0.590121
H61	H	1.313643	0.062382	-0.587383
H62	H	1.303625	-0.062211	-0.577345
H63	H	1.200176	0.062389	-0.401186
H64	H	1.190129	-0.062215	-0.391137
C65	C	1.079065	0.000032	-0.154031
C66	C	1.151963	0.000025	-0.051462
H67	H	1.133007	0.000018	-0.230404
H68	H	1.022350	-0.062248	-0.145602
H69	H	1.032416	0.062345	-0.155657
H70	H	1.198605	-0.062292	-0.049830
H71	H	1.208701	0.062313	-0.059892
C72	C	1.854562	0.162215	-0.360240
C73	C	1.810867	0.100999	-0.248307
H74	H	1.902574	0.224522	-0.340782
H75	H	1.906179	0.120683	-0.413156
H76	H	1.784561	0.182972	-0.402685
H77	H	1.880869	0.080236	-0.205867
H78	H	1.759248	0.142539	-0.195371
H79	H	1.773312	-0.074674	-0.446575
H80	H	1.062351	0.077217	0.468575
