data_functionalizedCrystal
_audit_creation_method	'MofGen! by Chris Wilmer'
_symmetry_space_group_name_H-M	'P1'
_symmetry_Int_Tables_number	1
_symmetry_cell_setting	triclinic
loop_
_symmetry_equiv_pos_as_xyz
  x,y,z
_cell_length_a	10.723024
_cell_length_b	15.021413
_cell_length_c	10.723023
_cell_angle_alpha	90.005385
_cell_angle_beta	84.467709
_cell_angle_gamma	89.992288
loop_
_atom_site_label
_atom_site_type_symbol
_atom_site_fract_x
_atom_site_fract_y
_atom_site_fract_z
O1	O	-1.657195	0.074036	-0.175011
O2	O	-1.294042	0.074036	-0.191764
O3	O	-1.483996	0.074033	-0.001811
O4	O	-1.467241	0.074039	-0.364964
O5	O	-1.483966	-0.074031	-0.001838
O6	O	-1.294012	-0.074028	-0.191791
O7	O	-1.657165	-0.074028	-0.175038
Zn8	Zn	-1.475584	-0.097536	-0.183419
Zn9	Zn	-1.475623	0.097545	-0.183383
O10	O	-1.467211	-0.074025	-0.364991
C11	C	-1.247528	0.000004	-0.190558
C12	C	-1.108973	0.000004	-0.186911
C13	C	-1.033991	0.000006	-0.293198
C14	C	-0.890787	0.000006	-0.289431
N15	N	-1.475565	-0.230674	-0.183442
C16	C	-1.387717	-0.470356	-0.271235
C17	C	-1.500686	-0.529690	-0.296421
C18	C	-1.475597	-0.412281	-0.183412
C19	C	-1.362659	-0.529688	-0.158254
C20	C	-1.475618	-0.587705	-0.183384
C21	C	-1.588624	-0.470308	-0.208654
C22	C	-1.450522	-0.470302	-0.070437
C23	C	-1.563572	-0.529609	-0.095576
C24	C	-1.475584	-0.311223	-0.183430
C25	C	-1.475644	-0.688760	-0.183365
C26	C	-0.703679	0.000004	-0.176243
C27	C	-0.842234	0.000004	-0.179891
C28	C	-1.482762	0.000003	0.044675
C29	C	-1.479114	0.000006	0.183229
N30	N	-1.475651	0.230682	-0.183350
C31	C	-1.468445	0.000008	-0.411477
C32	C	-1.472093	0.000010	-0.550031
C33	C	-1.473735	0.076711	0.388205
C34	C	-1.477504	0.076709	0.245002
H35	H	-1.075812	0.000003	-0.386984
H36	H	-0.826354	0.000011	-0.380421
O37	O	-0.919211	0.000122	-0.071412
C38	C	-0.995335	0.076818	-0.066666
H39	H	-1.002645	0.102386	-0.165791
H40	H	-0.952111	0.130513	-0.009235
C41	C	-1.118025	0.022123	0.116583
C42	C	-1.127012	0.053521	-0.005164
H43	H	-1.199248	0.007755	0.154526
H44	H	-1.066736	-0.029547	0.113390
H45	H	-1.081999	0.066874	0.164427
H46	H	-1.163021	0.008767	-0.053010
H47	H	-1.178309	0.105184	-0.001977
O48	O	-1.525836	-0.560925	-0.410377
C49	C	-1.425013	-0.613869	-0.461573
H50	H	-1.370589	-0.639887	-0.382919
H51	H	-1.360291	-0.572123	-0.528900
C52	C	-1.542671	-0.660990	-0.629400
C53	C	-1.475833	-0.692952	-0.532795
H54	H	-1.574016	-0.709770	-0.673338
H55	H	-1.610596	-0.625319	-0.594912
H56	H	-1.488725	-0.626202	-0.685493
H57	H	-1.529782	-0.727730	-0.476696
H58	H	-1.407918	-0.728631	-0.567275
O59	O	-1.425230	-0.438998	0.043431
C60	C	-1.426685	-0.345148	0.042122
H61	H	-1.485542	-0.320957	-0.034191
H62	H	-1.326844	-0.319147	0.022504
C63	C	-1.411350	-0.340144	0.264009
C64	C	-1.483648	-0.310432	0.170287
H65	H	-1.446482	-0.318728	0.343068
H66	H	-1.410365	-0.403373	0.264891
H67	H	-1.328154	-0.318474	0.247644
H68	H	-1.566838	-0.332111	0.186644
H69	H	-1.484649	-0.247206	0.169410
H70	H	-1.067152	0.000025	-0.093125
H71	H	-1.684164	-0.444335	-0.230035
O72	O	-1.478989	0.155003	0.181502
C73	C	-1.373046	0.159759	0.093029
H74	H	-1.337605	0.089657	0.069227
H75	H	-1.296179	0.199607	0.133918
C76	C	-1.452563	0.291920	0.002540
C77	C	-1.409039	0.205820	-0.026703
H78	H	-1.474761	0.320336	-0.071315
H79	H	-1.523936	0.288718	0.062148
H80	H	-1.388498	0.325115	0.036616
H81	H	-1.473107	0.172622	-0.060763
H82	H	-1.337676	0.209017	-0.086320
O83	O	-1.248607	-0.560697	-0.133020
C84	C	-1.156243	-0.530524	-0.225880
H85	H	-1.191083	-0.468039	-0.271896
H86	H	-1.136284	-0.584597	-0.299722
C87	C	-0.992455	-0.585669	-0.108890
C88	C	-1.035242	-0.508920	-0.165400
H89	H	-0.917813	-0.572347	-0.071586
H90	H	-1.054681	-0.606001	-0.046330
H91	H	-0.975832	-0.630724	-0.170435
H92	H	-1.051879	-0.463872	-0.103853
H93	H	-0.973015	-0.488581	-0.227949
O94	O	-1.473957	-0.078359	0.386672
C95	C	-1.580978	-0.127506	0.431618
H96	H	-1.655460	-0.080317	0.476723
H97	H	-1.554584	-0.177896	0.504105
C98	C	-1.541446	-0.234825	0.266468
C99	C	-1.632929	-0.176865	0.321857
H100	H	-1.573489	-0.265276	0.198764
H101	H	-1.469340	-0.201716	0.236189
H102	H	-1.519458	-0.276809	0.326886
H103	H	-1.654903	-0.134876	0.261444
H104	H	-1.705040	-0.209968	0.352124
H105	H	-1.477695	-0.065663	0.236336
H106	H	-1.637980	-0.555462	-0.021291
O107	O	-1.299284	-0.439348	-0.360068
C108	C	-1.326201	-0.469629	-0.479014
H109	H	-1.430146	-0.486263	-0.476383
H110	H	-1.268432	-0.531746	-0.505249
C111	C	-1.165562	-0.375898	-0.580292
C112	C	-1.293231	-0.396320	-0.577063
H113	H	-1.145220	-0.330680	-0.640775
H114	H	-1.147424	-0.355499	-0.500155
H115	H	-1.117437	-0.427668	-0.602150
H116	H	-1.341354	-0.344554	-0.555190
H117	H	-1.311377	-0.416708	-0.657198
H118	H	-1.472356	0.142378	0.441345
