data_functionalizedCrystal
_audit_creation_method	'MofGen! by Chris Wilmer'
_symmetry_space_group_name_H-M	'P1'
_symmetry_Int_Tables_number	1
_symmetry_cell_setting	triclinic
loop_
_symmetry_equiv_pos_as_xyz
  x,y,z
_cell_length_a	12.837943
_cell_length_b	9.065215
_cell_length_c	8.140239
_cell_angle_alpha	89.997785
_cell_angle_beta	89.999586
_cell_angle_gamma	89.921819
loop_
_atom_site_label
_atom_site_type_symbol
_atom_site_fract_x
_atom_site_fract_y
_atom_site_fract_z
O1	O	1.379052	0.384028	-0.136578
O2	O	1.879052	0.884028	0.363422
O3	O	1.077069	0.365057	-0.136588
O4	O	1.577069	0.865057	0.363412
O5	O	1.234304	0.160659	-0.136576
O6	O	1.734304	0.660659	0.363424
O7	O	1.221817	0.588426	-0.136590
O8	O	1.721817	1.088426	0.363410
O9	O	1.234299	0.160657	0.136651
O10	O	1.734299	0.660657	0.636651
O11	O	1.077064	0.365055	0.136639
O12	O	1.577064	0.865055	0.636639
O13	O	1.379047	0.384026	0.136649
O14	O	1.879047	0.884026	0.636649
Zn15	Zn	1.228055	0.374540	0.180025
Zn16	Zn	1.728055	0.874540	0.680025
Zn17	Zn	1.228061	0.374543	-0.179964
Zn18	Zn	1.728061	0.874543	0.320036
O19	O	1.221812	0.588424	0.136637
O20	O	1.721812	1.088424	0.636637
C21	C	1.038385	0.358648	0.000024
C22	C	1.538385	0.858648	0.500024
C23	C	0.923129	0.339534	0.000021
C24	C	1.423129	0.839534	0.500021
C25	C	1.233102	0.105525	0.000036
C26	C	1.733102	0.605525	0.500036
C27	C	1.229516	-0.058754	0.000031
C28	C	1.729516	0.441246	0.500031
C29	C	0.684326	0.569311	0.000036
C30	C	1.184326	1.069311	0.500036
C31	C	0.576032	0.551359	0.000034
C32	C	1.076032	1.051359	0.500034
C33	C	0.598244	0.285680	0.000026
C34	C	1.098244	0.785680	0.500026
C35	C	0.706538	0.303632	0.000028
C36	C	1.206538	0.803632	0.500028
C37	C	0.749575	0.445452	0.000031
C38	C	1.249575	0.945452	0.500031
C39	C	0.857872	0.463402	0.000021
C40	C	1.357872	0.963402	0.500021
C41	C	0.880082	0.197725	0.000025
C42	C	1.380082	0.697725	0.500025
C43	C	0.771787	0.179773	0.000022
C44	C	1.271787	0.679773	0.500022
C45	C	1.417730	0.390435	0.000033
C46	C	1.917730	0.890435	0.500033
C47	C	1.532987	0.409548	0.000026
C48	C	2.032987	0.909548	0.500026
C49	C	1.223014	0.643557	0.000022
C50	C	1.723014	1.143557	0.500022
C51	C	1.226600	0.807837	0.000016
C52	C	1.726600	1.307837	0.500016
N53	N	1.228058	0.374538	0.425708
N54	N	1.728058	0.874538	0.925708
N55	N	1.228066	0.374534	-0.425646
N56	N	1.728066	0.874534	0.074354
H57	H	0.892910	0.578879	0.000027
H58	H	1.392910	1.078879	0.500027
H59	H	0.563184	0.170217	0.000159
H60	H	1.063184	0.670217	0.500159
H61	H	0.933220	0.096870	0.000009
H62	H	1.433220	0.596870	0.500009
F63	F	0.730132	0.720244	0.000019
F64	F	1.230132	1.220244	0.500019
H65	H	0.522909	0.652219	0.000043
H66	H	1.022909	1.152219	0.500043
H67	H	0.736732	0.064307	0.000039
H68	H	1.236732	0.564307	0.500039
