data_functionalizedCrystal
_audit_creation_method	'MofGen! by Chris Wilmer'
_symmetry_space_group_name_H-M	'P1'
_symmetry_Int_Tables_number	1
_symmetry_cell_setting	triclinic
loop_
_symmetry_equiv_pos_as_xyz
  x,y,z
_cell_length_a	12.759400
_cell_length_b	12.759401
_cell_length_c	12.759393
_cell_angle_alpha	89.980198
_cell_angle_beta	89.970195
_cell_angle_gamma	90.013730
loop_
_atom_site_label
_atom_site_type_symbol
_atom_site_fract_x
_atom_site_fract_y
_atom_site_fract_z
Zn1	Zn	-0.418241	1.606267	-0.593993
Zn2	Zn	-0.593957	1.606158	-0.418316
Zn3	Zn	-0.418290	1.430565	-0.418332
Zn4	Zn	-0.593876	1.430558	-0.593956
O5	O	-0.506091	1.518387	-0.506149
O6	O	-0.441564	1.753273	-0.570698
O7	O	-0.570708	1.582823	-0.271297
O8	O	-0.271262	1.453921	-0.441656
O9	O	-0.570661	1.753193	-0.441628
O10	O	-0.271226	1.583008	-0.570714
O11	O	-0.441646	1.453816	-0.271309
O12	O	-0.441568	1.283543	-0.441620
O13	O	-0.570523	1.453908	-0.740982
O14	O	-0.570570	1.283538	-0.570651
O15	O	-0.441485	1.583001	-0.741009
O16	O	-0.740967	1.582815	-0.441592
O17	O	-0.740908	1.453802	-0.570635
C18	C	-0.506066	1.245420	-0.506134
C19	C	-0.506081	1.128643	-0.506152
C20	C	-0.439006	0.964086	-0.573470
C21	C	-0.438985	1.073810	-0.573463
C22	C	-0.573210	1.073746	-0.438852
C23	C	-0.573235	0.964024	-0.438865
C24	C	-0.779058	1.518325	-0.506131
C25	C	-0.895835	1.518394	-0.506158
C26	C	-0.950588	1.585581	-0.573415
C27	C	-1.060312	1.585640	-0.573444
C28	C	-1.060520	1.451323	-0.438948
C29	C	-0.950798	1.451260	-0.438926
C30	C	-0.232057	1.518478	-0.506191
C31	C	-0.115281	1.518517	-0.506209
C32	C	-0.506116	1.792420	-0.506165
C33	C	-0.506127	1.909197	-0.506172
C34	C	-0.505990	1.518466	-0.780183
C35	C	-0.505947	1.518499	-0.896959
C36	C	-0.438746	1.585723	-0.951837
C37	C	-0.438701	1.585740	-1.061561
C38	C	-0.573066	1.451308	-1.061520
C39	C	-0.573105	1.451286	-0.951798
C40	C	-0.506115	1.518369	-0.233182
C41	C	-0.505862	1.518539	-0.116406
H42	H	-0.627844	1.118400	-0.384050
O43	O	-0.897719	1.385845	-0.373638
C44	C	-0.924578	1.281136	-0.396534
H45	H	-1.004219	1.278983	-0.436931
H46	H	-0.862817	1.245689	-0.450511
C47	C	-0.831951	1.220192	-0.244442
C48	C	-0.929771	1.217547	-0.294051
H49	H	-0.835150	1.180966	-0.181228
H50	H	-0.813851	1.290737	-0.229019
H51	H	-0.780494	1.190655	-0.289434
H52	H	-0.981223	1.247096	-0.249065
H53	H	-0.947879	1.147006	-0.309465
O54	O	-0.897034	1.650751	-0.638630
C55	C	-0.788449	1.636274	-0.624210
H56	H	-0.773547	1.601902	-0.543096
H57	H	-0.757313	1.580273	-0.686471
C58	C	-0.750326	1.784755	-0.733548
C59	C	-0.732023	1.742547	-0.633920
H60	H	-0.715518	1.850307	-0.739542
H61	H	-0.823482	1.794507	-0.743267
H62	H	-0.724379	1.738077	-0.785422
H63	H	-0.757981	1.789218	-0.582049
H64	H	-0.658870	1.732805	-0.624192
O65	O	-1.113337	1.651005	-0.638810
C66	C	-1.041292	1.710221	-0.698161
H67	H	-0.963109	1.713836	-0.655111
H68	H	-1.029592	1.671703	-0.777919
C69	C	-1.180039	1.817616	-0.766282
C70	C	-1.084016	1.822063	-0.713403
H71	H	-1.206393	1.886604	-0.775689
H72	H	-1.228578	1.777719	-0.726300
H73	H	-1.170275	1.785513	-0.832742
H74	H	-1.093783	1.854154	-0.646940
H75	H	-1.035479	1.861968	-0.753375
O76	O	-1.114029	1.386068	-0.373781
C77	C	-1.177493	1.318200	-0.433549
H78	H	-1.193843	1.355222	-0.513205
H79	H	-1.135266	1.240310	-0.445015
C80	C	-1.261694	1.253804	-0.277911
C81	C	-1.281783	1.299278	-0.375743
H82	H	-1.326023	1.242126	-0.242253
H83	H	-1.218935	1.299524	-0.237644
H84	H	-1.226502	1.188900	-0.287480
H85	H	-1.316962	1.364186	-0.366172
H86	H	-1.324551	1.253567	-0.416008
H87	H	-0.384058	1.640449	-0.907191
O88	O	-0.638490	1.385949	-0.898645
C89	C	-0.697746	1.326618	-0.970573
H90	H	-0.701365	1.369663	-1.048793
H91	H	-0.659259	1.246841	-0.982236
C92	C	-0.805129	1.258560	-0.831651
C93	C	-0.809582	1.311433	-0.927721
H94	H	-0.874114	1.249188	-0.805218
H95	H	-0.765205	1.298529	-0.783191
H96	H	-0.773052	1.192085	-0.841384
H97	H	-0.841646	1.377911	-0.917985
H98	H	-0.849514	1.271474	-0.976179
H99	H	-0.627747	1.396588	-1.106183
H100	H	-0.384362	0.919449	-0.628276
O101	O	-0.373391	1.651143	-1.114707
C102	C	-0.314108	1.710438	-1.042772
H103	H	-0.357173	1.714044	-0.964554
H104	H	-0.234314	1.671993	-1.031106
C105	C	-0.246071	1.817840	-1.181682
C106	C	-0.298969	1.822277	-1.085615
H107	H	-0.236728	1.886827	-1.208111
H108	H	-0.286008	1.777890	-1.230147
H109	H	-0.179582	1.785799	-1.171947
H110	H	-0.365462	1.854306	-1.095354
H111	H	-0.259043	1.862235	-1.037153
H112	H	-0.627899	0.919332	-0.384062
H113	H	-0.384330	1.118496	-0.628264
