data_functionalizedCrystal
_audit_creation_method	'MofGen! by Chris Wilmer'
_symmetry_space_group_name_H-M	'P1'
_symmetry_Int_Tables_number	1
_symmetry_cell_setting	triclinic
loop_
_symmetry_equiv_pos_as_xyz
  x,y,z
_cell_length_a	12.837942
_cell_length_b	10.654550
_cell_length_c	9.130313
_cell_angle_alpha	90.000276
_cell_angle_beta	89.996012
_cell_angle_gamma	90.343065
loop_
_atom_site_label
_atom_site_type_symbol
_atom_site_fract_x
_atom_site_fract_y
_atom_site_fract_z
O1	O	0.145723	-1.683741	-0.121688
O2	O	0.159606	-1.319778	-0.121715
O3	O	0.001704	-1.493689	-0.121693
O4	O	0.303626	-1.509830	-0.121710
O5	O	0.001699	-1.493675	0.121906
O6	O	0.159602	-1.319764	0.121884
O7	O	0.145718	-1.683728	0.121911
Cu8	Cu	0.152660	-1.501745	0.144140
Cu9	Cu	0.152665	-1.501761	-0.143944
O10	O	0.303621	-1.509816	0.121889
C11	C	0.158585	-1.272862	0.000081
C12	C	0.155535	-1.133086	0.000071
C13	C	-0.036958	-1.488230	0.000105
C14	C	-0.152152	-1.471967	0.000101
N15	N	0.152655	-1.501742	0.346762
C16	C	-0.391705	-1.667472	0.000085
C17	C	-0.499941	-1.652197	0.000082
C18	C	-0.476861	-1.426146	0.000080
C19	C	-0.368626	-1.441420	0.000084
C20	C	-0.326052	-1.562087	0.000088
C21	C	-0.217814	-1.577360	0.000103
C22	C	-0.194737	-1.351309	0.000091
C23	C	-0.302972	-1.336035	0.000087
C24	C	0.342283	-1.515276	0.000087
C25	C	0.457477	-1.531538	0.000081
C26	C	0.146740	-1.730644	0.000111
C27	C	0.149790	-1.870420	0.000112
C28	C	0.248505	-1.063746	0.000070
C29	C	0.245633	-0.932411	0.000096
C30	C	0.056812	-0.939770	0.000117
C31	C	0.059685	-1.071101	0.000102
N32	N	0.152661	-1.501772	-0.346567
C33	C	0.082766	-1.578782	0.423424
C34	C	0.082766	-1.578794	0.576761
C35	C	0.222554	-1.424723	0.576761
C36	C	0.222548	-1.424706	0.423427
H37	H	-0.183153	-1.675613	0.000112
C38	C	0.299433	-1.339961	0.339093
H39	H	0.341070	-1.294097	0.406710
H40	H	0.261705	-1.283172	0.279292
H41	H	0.342970	-1.390344	0.279264
C42	C	0.347898	-0.856136	0.000087
H43	H	0.332464	-0.769042	0.000116
H44	H	0.387158	-0.876140	-0.084870
H45	H	0.387160	-0.876159	0.085038
H46	H	0.326552	-1.114209	0.000056
C47	C	-0.048613	-0.871582	0.000132
H48	H	-0.037011	-0.783434	0.000125
H49	H	-0.086937	-0.894621	0.085079
H50	H	-0.086928	-0.894614	-0.084828
H51	H	-0.016027	-1.127560	0.000107
H52	H	0.279461	-1.362004	0.639197
C53	C	-0.344870	-1.800195	0.000102
H54	H	-0.399474	-1.860773	0.000096
H55	H	-0.303131	-1.810843	0.085051
H56	H	-0.303123	-1.810857	-0.084856
H57	H	-0.553393	-1.738013	0.000074
H58	H	-0.511544	-1.327904	0.000061
C59	C	-0.349810	-1.203313	0.000091
H60	H	-0.423675	-1.209308	0.000098
H61	H	-0.327324	-1.159369	-0.084850
H62	H	-0.327337	-1.159386	0.085057
C63	C	0.005878	-1.663506	0.339097
H64	H	-0.035752	-1.709380	0.406721
H65	H	0.043595	-1.720286	0.279263
H66	H	-0.037665	-1.613109	0.279302
C67	C	-0.122516	-1.235381	0.000082
H68	H	-0.051956	-1.261756	0.000075
H69	H	-0.135518	-1.186431	0.085025
H70	H	-0.135508	-1.186447	-0.084883
H71	H	0.025854	-1.641526	0.639174
