data_functionalizedCrystal
_audit_creation_method	'MofGen! by Chris Wilmer'
_symmetry_space_group_name_H-M	'P1'
_symmetry_Int_Tables_number	1
_symmetry_cell_setting	triclinic
loop_
_symmetry_equiv_pos_as_xyz
  x,y,z
_cell_length_a	6.817900
_cell_length_b	16.418049
_cell_length_c	17.110486
_cell_angle_alpha	96.329277
_cell_angle_beta	99.060439
_cell_angle_gamma	103.389670
loop_
_atom_site_label
_atom_site_type_symbol
_atom_site_fract_x
_atom_site_fract_y
_atom_site_fract_z
V1	V	-3.976398	-0.115636	-0.246998
O2	O	-3.965399	0.005813	-0.242010
O3	O	-3.927750	-0.229534	-0.245585
O4	O	-3.906264	-0.113745	-0.354597
O5	O	-3.987034	-0.110777	-0.132243
V6	V	-4.462874	-0.101123	-0.233239
O7	O	-4.231178	-0.147473	-0.277180
O8	O	-4.658291	-0.069286	-0.203057
O9	O	-4.288315	0.012775	-0.234653
O10	O	-4.591270	-0.222573	-0.238228
O11	O	-4.569634	-0.105982	-0.347994
O12	O	-4.309801	-0.103014	-0.125640
C13	C	-3.773394	-0.257304	-0.241759
C14	C	-3.814761	-0.350416	-0.241321
C15	C	-4.091195	-0.568902	-0.244285
C16	C	-4.130051	-0.656392	-0.243880
C17	C	-3.767434	-0.647856	-0.235957
C18	C	-3.728583	-0.560369	-0.236368
C19	C	-3.890469	-0.520894	-0.240528
C20	C	-3.968176	-0.695871	-0.239712
C21	C	-4.010303	-0.790731	-0.239273
C22	C	-3.848340	-0.426028	-0.240969
C23	C	-3.745985	-0.109602	-0.380814
C24	C	-3.769925	-0.108809	-0.468778
C25	C	-3.962449	-0.112617	-0.514145
C26	C	-3.984931	-0.111872	-0.596797
C27	C	-3.814889	-0.107324	-0.634081
C28	C	-3.622347	-0.103514	-0.588707
C29	C	-3.599865	-0.104253	-0.506056
C30	C	-3.873698	-0.104877	-0.883430
C31	C	-3.896197	-0.104141	-0.966087
C32	C	-4.258780	-0.112497	-0.974171
C33	C	-4.236283	-0.113241	-0.891519
C34	C	-4.043742	-0.109426	-0.846152
C35	C	-3.837865	-0.106565	-0.718564
C36	C	-4.020765	-0.110179	-0.761669
C37	C	-4.106013	0.040540	-0.238476
C38	C	-4.043883	0.133651	-0.238919
C39	C	-4.133423	-0.107160	-0.099419
C40	C	-4.088722	-0.107949	-0.011454
H41	H	-3.565121	-0.521279	-0.233311
C42	C	-4.233789	-0.464262	-0.180974
C43	C	-4.269136	-0.525510	-0.248863
H44	H	-4.343655	-0.437480	-0.183802
H45	H	-4.108700	-0.423152	-0.178801
H46	H	-4.225074	-0.490622	-0.134279
H47	H	-4.277836	-0.499150	-0.295559
H48	H	-4.394260	-0.566627	-0.251045
H49	H	-3.757716	-0.100435	-0.996440
C50	C	-4.300018	-0.192289	-0.506427
C51	C	-4.149373	-0.117616	-0.473169
H52	H	-4.415422	-0.195369	-0.481133
H53	H	-4.245884	-0.239748	-0.498559
H54	H	-4.340935	-0.192383	-0.562143
H55	H	-4.108444	-0.117525	-0.417453
H56	H	-4.203515	-0.070144	-0.481030
H57	H	-3.716938	-0.101801	-0.846506
C58	C	-4.408213	-0.770937	-0.316371
C59	C	-4.350689	-0.709165	-0.248000
H60	H	-4.544435	-0.803513	-0.318914
H61	H	-4.317374	-0.806963	-0.313831
H62	H	-4.401875	-0.744225	-0.362740
H63	H	-4.357013	-0.735877	-0.201631
H64	H	-4.441553	-0.673134	-0.250534
H65	H	-3.635637	-0.680007	-0.232569
C66	C	-4.256010	-0.188208	-0.705263
C67	C	-4.196566	-0.116058	-0.646660
H68	H	-4.386666	-0.190786	-0.736046
H69	H	-4.263734	-0.237379	-0.680198
H70	H	-4.157953	-0.185382	-0.739296
H71	H	-4.294615	-0.118887	-0.612623
H72	H	-4.188855	-0.066875	-0.671725
C73	C	-4.385896	-0.046603	-0.792422
C74	C	-4.423190	-0.118243	-0.850532
H75	H	-4.501282	-0.049700	-0.767115
H76	H	-4.363128	0.002914	-0.817151
H77	H	-4.268001	-0.044449	-0.753582
H78	H	-4.541077	-0.120394	-0.889375
H79	H	-4.445983	-0.167773	-0.825802
C80	C	-4.529827	-0.188837	-1.082643
C81	C	-4.470402	-0.116684	-1.024044
H82	H	-4.660472	-0.191415	-1.113436
H83	H	-4.537570	-0.238005	-1.057575
H84	H	-4.431752	-0.186015	-1.116668
H85	H	-4.568470	-0.119509	-0.990016
H86	H	-4.462674	-0.067503	-1.049114
H87	H	-3.483895	-0.099806	-0.619069
H88	H	-3.443083	-0.101132	-0.469116
H89	H	-4.159210	-0.113879	-0.731309
H90	H	-3.699422	-0.102866	-0.748930
