data_functionalizedCrystal
_audit_creation_method	'MofGen! by Chris Wilmer'
_symmetry_space_group_name_H-M	'P1'
_symmetry_Int_Tables_number	1
_symmetry_cell_setting	triclinic
loop_
_symmetry_equiv_pos_as_xyz
  x,y,z
_cell_length_a	21.295418
_cell_length_b	21.295417
_cell_length_c	21.295412
_cell_angle_alpha	89.970379
_cell_angle_beta	89.957310
_cell_angle_gamma	90.045515
loop_
_atom_site_label
_atom_site_type_symbol
_atom_site_fract_x
_atom_site_fract_y
_atom_site_fract_z
Zn1	Zn	0.962353	-0.250359	-0.356238
Zn2	Zn	1.295686	0.082974	-0.022905
Zn3	Zn	1.629020	0.416308	0.310428
Zn4	Zn	0.962259	-0.355628	-0.250965
Zn5	Zn	1.295592	-0.022294	0.082368
Zn6	Zn	1.628925	0.311039	0.415701
Zn7	Zn	0.857078	-0.250405	-0.250948
Zn8	Zn	1.190411	0.082928	0.082385
Zn9	Zn	1.523745	0.416261	0.415719
Zn10	Zn	0.857047	-0.355623	-0.356162
Zn11	Zn	1.190380	-0.022290	-0.022829
Zn12	Zn	1.523714	0.311043	0.310505
O13	O	0.909684	-0.303004	-0.303578
O14	O	1.243017	0.030329	0.029755
O15	O	1.576351	0.363663	0.363088
O16	O	1.050430	-0.264306	-0.342313
O17	O	1.383763	0.069028	-0.008979
O18	O	1.717096	0.402361	0.324354
O19	O	0.948280	-0.341691	-0.162874
O20	O	1.281613	-0.008357	0.170460
O21	O	1.614946	0.324976	0.503793
O22	O	0.871095	-0.162310	-0.264940
O23	O	1.204429	0.171024	0.068394
O24	O	1.537762	0.504357	0.401727
O25	O	1.050361	-0.341646	-0.264969
O26	O	1.383694	-0.008313	0.068364
O27	O	1.717027	0.325021	0.401697
O28	O	0.948440	-0.162276	-0.342296
O29	O	1.281774	0.171058	-0.008962
O30	O	1.615107	0.504391	0.324371
O31	O	0.871004	-0.264384	-0.162861
O32	O	1.204337	0.068949	0.170472
O33	O	1.537671	0.402282	0.503806
O34	O	0.768984	-0.264380	-0.264866
O35	O	1.102318	0.068953	0.068468
O36	O	1.435651	0.402286	0.401801
O37	O	0.871042	-0.341639	-0.444262
O38	O	1.204376	-0.008306	-0.110928
O39	O	1.537709	0.325028	0.222405
O40	O	0.768962	-0.341684	-0.342166
O41	O	1.102295	-0.008350	-0.008833
O42	O	1.435628	0.324983	0.324501
O43	O	0.948410	-0.264302	-0.444318
O44	O	1.281744	0.069032	-0.110984
O45	O	1.615077	0.402365	0.222349
O46	O	0.948250	-0.443716	-0.264895
O47	O	1.281583	-0.110383	0.068438
O48	O	1.614916	0.222950	0.401771
O49	O	0.870951	-0.443713	-0.342183
O50	O	1.204284	-0.110380	-0.008850
O51	O	1.537618	0.222953	0.324484
C52	C	0.746132	-0.303037	-0.303506
C53	C	1.079466	0.030296	0.029827
C54	C	1.412799	0.363630	0.363161
C55	C	0.676164	-0.303066	-0.303490
C56	C	1.009498	0.030267	0.029843
C57	C	1.342831	0.363600	0.363177
C58	C	0.643302	-0.343371	-0.343680
C59	C	0.976636	-0.010038	-0.010347
C60	C	1.309969	0.323295	0.322987
C61	C	0.577560	-0.343356	-0.343708
C62	C	0.910893	-0.010023	-0.010375
C63	C	1.244226	0.323311	0.322958
C64	C	0.544682	-0.303042	-0.303535
C65	C	0.878015	0.030291	0.029798
C66	C	1.211348	0.363625	0.363131
C67	C	0.577552	-0.262729	-0.263342
C68	C	0.910885	0.070604	0.069991
C69	C	1.244218	0.403938	0.403324
C70	C	0.643293	-0.262741	-0.263320
C71	C	0.976626	0.070592	0.070014
C72	C	1.309960	0.403926	0.403347
N73	N	0.441407	-0.298123	-0.248477
N74	N	0.774740	0.035210	0.084856
N75	N	1.108073	0.368543	0.418189
N76	N	0.378955	-0.298116	-0.248501
N77	N	0.712289	0.035218	0.084833
N78	N	1.045622	0.368551	0.418166
C79	C	0.346607	-0.303002	-0.303602
C80	C	0.679940	0.030332	0.029731
C81	C	1.013274	0.363665	0.363065
N82	N	0.379070	-0.307908	-0.358680
N83	N	0.712403	0.025425	-0.025347
N84	N	1.045736	0.358758	0.307987
N85	N	0.441527	-0.307920	-0.358656
N86	N	0.774860	0.025414	-0.025323
N87	N	1.108193	0.358747	0.308011
C88	C	0.473396	-0.303024	-0.303556
C89	C	0.806730	0.030309	0.029778
C90	C	1.140063	0.363643	0.363111
C91	C	0.242460	-0.343292	-0.343826
C92	C	0.575793	-0.009959	-0.010493
C93	C	0.909126	0.323374	0.322841
C94	C	0.176716	-0.343272	-0.343855
C95	C	0.510049	-0.009939	-0.010522
C96	C	0.843383	0.323394	0.322811
C97	C	0.176709	-0.262649	-0.263484
C98	C	0.510043	0.070685	0.069849
C99	C	0.843376	0.404018	0.403183
C100	C	0.242452	-0.262665	-0.263460
C101	C	0.575785	0.070668	0.069873
C102	C	0.909118	0.404002	0.403207
C103	C	0.275323	-0.302990	-0.303630
C104	C	0.608656	0.030343	0.029703
C105	C	0.941990	0.363676	0.363036
C106	C	0.909604	-0.466556	-0.303547
C107	C	1.242937	-0.133222	0.029787
C108	C	1.576271	0.200111	0.363120
C109	C	0.909627	-0.536524	-0.303554
C110	C	1.242960	-0.203190	0.029779
C111	C	1.576294	0.130143	0.363113
C112	C	0.949878	-0.569315	-0.343862
C113	C	1.283211	-0.235982	-0.010529
C114	C	1.616544	0.097351	0.322805
C115	C	0.949900	-0.635058	-0.343878
C116	C	1.283233	-0.301725	-0.010544
C117	C	1.616567	0.031609	0.322789
C118	C	0.909678	-0.668006	-0.303574
C119	C	1.243011	-0.334673	0.029760
C120	C	1.576345	-0.001339	0.363093
C121	C	0.869420	-0.635206	-0.263263
C122	C	1.202753	-0.301873	0.070071
C123	C	1.536086	0.031460	0.403404
C124	C	0.869394	-0.569465	-0.263253
C125	C	1.202728	-0.236132	0.070080
C126	C	1.536061	0.097202	0.403414
N127	N	0.904920	-0.771268	-0.248481
N128	N	1.238253	-0.437935	0.084852
N129	N	1.571586	-0.104602	0.418186
N130	N	0.904948	-0.833720	-0.248492
N131	N	1.238281	-0.500386	0.084841
N132	N	1.571614	-0.167053	0.418174
C133	C	0.909752	-0.866081	-0.303602
C134	C	1.243085	-0.532747	0.029731
C135	C	1.576418	-0.199414	0.363064
N136	N	0.914539	-0.833631	-0.358702
N137	N	1.247872	-0.500298	-0.025368
N138	N	1.581206	-0.166964	0.307965
N139	N	0.914514	-0.771174	-0.358690
N140	N	1.247848	-0.437840	-0.025356
N141	N	1.581181	-0.104507	0.307977
C142	C	0.909701	-0.739291	-0.303580
C143	C	1.243034	-0.405958	0.029753
C144	C	1.576368	-0.072625	0.363086
C145	C	0.950028	-0.970158	-0.343931
C146	C	1.283362	-0.636825	-0.010597
C147	C	1.616695	-0.303491	0.322736
C148	C	0.950046	-1.035902	-0.343947
C149	C	1.283380	-0.702568	-0.010614
C150	C	1.616713	-0.369235	0.322719
C151	C	0.869570	-1.036049	-0.263327
C152	C	1.202903	-0.702716	0.070007
C153	C	1.536236	-0.369382	0.403340
C154	C	0.869548	-0.970306	-0.263316
C155	C	1.202882	-0.636973	0.070018
C156	C	1.536215	-0.303640	0.403351
C157	C	0.909781	-0.937365	-0.303617
C158	C	1.243115	-0.604032	0.029716
C159	C	1.576448	-0.270698	0.363050
C160	C	1.073874	-0.302971	-0.303652
C161	C	1.407208	0.030362	0.029682
C162	C	1.740541	0.363696	0.363015
C163	C	1.143843	-0.302957	-0.303683
C164	C	1.477176	0.030376	0.029651
C165	C	1.810509	0.363710	0.362984
C166	C	0.909733	-0.302965	-0.467769
C167	C	1.243067	0.030369	-0.134435
C168	C	1.576400	0.363702	0.198898
C169	C	0.909754	-0.302948	-0.537737
C170	C	1.243088	0.030385	-0.204404
C171	C	1.576421	0.363719	0.128930
C172	C	0.909782	-0.138814	-0.303624
C173	C	1.243115	0.194520	0.029709
C174	C	1.576448	0.527853	0.363042
C175	C	0.909823	-0.068845	-0.303644
C176	C	1.243157	0.264488	0.029690
C177	C	1.576490	0.597821	0.363023
C178	C	0.869528	-0.262690	-0.570587
C179	C	1.202861	0.070643	-0.237254
C180	C	1.536194	0.403977	0.096080
C181	C	0.869525	-0.262678	-0.636330
C182	C	1.202859	0.070655	-0.302996
C183	C	1.536192	0.403988	0.030337
C184	C	0.909761	-0.302918	-0.669219
C185	C	1.243094	0.030415	-0.335886
C186	C	1.576428	0.363749	-0.002553
C187	C	0.949991	-0.343184	-0.636361
C188	C	1.283324	-0.009850	-0.303028
C189	C	1.616657	0.323483	0.030305
C190	C	0.949987	-0.343199	-0.570620
C191	C	1.283321	-0.009865	-0.237287
C192	C	1.616654	0.323468	0.096046
N193	N	0.964866	-0.307710	-0.772476
N194	N	1.298199	0.025623	-0.439143
N195	N	1.631532	0.358956	-0.105810
N196	N	0.964867	-0.307692	-0.834928
N197	N	1.298200	0.025641	-0.501594
N198	N	1.631534	0.358974	-0.168261
C199	C	0.909773	-0.302876	-0.867294
C200	C	1.243106	0.030457	-0.533961
C201	C	1.576439	0.363791	-0.200628
N202	N	0.854676	-0.298066	-0.834850
N203	N	1.188009	0.035267	-0.501517
N204	N	1.521342	0.368601	-0.168183
N205	N	0.854675	-0.298081	-0.772393
N206	N	1.188008	0.035253	-0.439060
N207	N	1.521342	0.368586	-0.105726
C208	C	0.909769	-0.302906	-0.740505
C209	C	1.243102	0.030427	-0.407172
C210	C	1.576436	0.363760	-0.073838
C211	C	0.869540	-0.262603	-0.971430
C212	C	1.202873	0.070730	-0.638097
C213	C	1.536207	0.404063	-0.304763
C214	C	0.869537	-0.262596	-1.037174
C215	C	1.202870	0.070737	-0.703840
C216	C	1.536203	0.404071	-0.370507
C217	C	0.950008	-0.343098	-1.037204
C218	C	1.283341	-0.009765	-0.703871
C219	C	1.616674	0.323569	-0.370538
C220	C	0.950006	-0.343109	-0.971462
C221	C	1.283339	-0.009775	-0.638129
C222	C	1.616672	0.323558	-0.304795
C223	C	0.909773	-0.302858	-0.938579
C224	C	1.243106	0.030475	-0.605245
C225	C	1.576439	0.363809	-0.271912
C226	C	0.909671	-0.302997	-0.140027
C227	C	1.243005	0.030336	0.193306
C228	C	1.576338	0.363669	0.526640
C229	C	0.909772	-0.302837	-0.070059
C230	C	1.243106	0.030497	0.263274
C231	C	1.576439	0.363830	0.596608
H232	H	0.149941	-0.229821	-0.230777
H233	H	0.483274	0.103512	0.102556
H234	H	0.816607	0.436846	0.435890
H235	H	0.550778	-0.229904	-0.230634
H236	H	0.884112	0.103430	0.102699
H237	H	1.217445	0.436763	0.436032
N238	N	0.678742	-0.219263	-0.219975
N239	N	1.012075	0.114071	0.113358
N240	N	1.345409	0.447404	0.446692
H241	H	0.647941	-0.193717	-0.194531
H242	H	0.981274	0.139616	0.138802
H243	H	1.314607	0.472950	0.472135
H244	H	0.705962	-0.244850	-0.190784
H245	H	1.039296	0.088484	0.142549
H246	H	1.372629	0.421817	0.475882
H247	H	0.269225	-0.376124	-0.376538
H248	H	0.602558	-0.042791	-0.043205
H249	H	0.935891	0.290542	0.290128
H250	H	0.982823	-1.062600	-0.376774
H251	H	1.316156	-0.729266	-0.043441
H252	H	1.649490	-0.395933	0.289893
H253	H	0.836775	-0.229815	-1.063919
H254	H	1.170108	0.103518	-0.730586
H255	H	1.503441	0.436852	-0.397252
N256	N	0.826143	-0.219272	-0.535120
N257	N	1.159476	0.114062	-0.201787
N258	N	1.492809	0.447395	0.131547
H259	H	0.800661	-0.193764	-0.565910
H260	H	1.133994	0.139569	-0.232577
H261	H	1.467327	0.472903	0.100756
H262	H	0.796989	-0.244898	-0.507812
H263	H	1.130323	0.088436	-0.174479
H264	H	1.463656	0.421769	0.158855
N265	N	0.277891	-0.219195	-0.220102
N266	N	0.611225	0.114138	0.113231
N267	N	0.944558	0.447472	0.446564
H268	H	0.305111	-0.244742	-0.190873
H269	H	0.638444	0.088592	0.142460
H270	H	0.971778	0.421925	0.475794
H271	H	0.305187	-0.190068	-0.245770
H272	H	0.638521	0.143266	0.087563
H273	H	0.971854	0.476599	0.420896
N274	N	0.826136	-0.219257	-0.671772
N275	N	1.159469	0.114077	-0.338438
N276	N	1.492802	0.447410	-0.005105
H277	H	0.800648	-0.193761	-0.640964
H278	H	1.133981	0.139572	-0.307631
H279	H	1.467314	0.472905	0.025702
H280	H	0.851784	-0.190117	-0.699073
H281	H	1.185117	0.143216	-0.365740
H282	H	1.518450	0.476549	-0.032407
H283	H	0.149961	-0.376092	-0.376587
H284	H	0.483294	-0.042759	-0.043254
H285	H	0.816627	0.290574	0.290080
H286	H	0.982636	-0.542496	-0.376679
H287	H	1.315969	-0.209163	-0.043346
H288	H	1.649303	0.124170	0.289988
H289	H	0.836670	-0.662037	-0.230449
H290	H	1.170003	-0.328704	0.102885
H291	H	1.503336	0.004630	0.436218
H292	H	0.982671	-0.661762	-0.376709
H293	H	1.316005	-0.328429	-0.043375
H294	H	1.649338	0.004904	0.289958
N295	N	0.826140	-0.219197	-0.935962
N296	N	1.159473	0.114136	-0.602629
N297	N	1.492807	0.447469	-0.269296
H298	H	0.796954	-0.244792	-0.908656
H299	H	1.130288	0.088542	-0.575323
H300	H	1.463621	0.421875	-0.241989
H301	H	0.851782	-0.190032	-0.908751
H302	H	1.185115	0.143301	-0.575418
H303	H	1.518449	0.476635	-0.242085
H304	H	0.836617	-0.542765	-0.230429
H305	H	1.169950	-0.209432	0.102905
H306	H	1.503283	0.123901	0.436238
N307	N	0.993418	-0.934622	-0.387397
N308	N	1.326751	-0.601289	-0.054063
N309	N	1.660084	-0.267956	0.279270
H310	H	1.018917	-0.965375	-0.412939
H311	H	1.352250	-0.632041	-0.079606
H312	H	1.685584	-0.298708	0.253728
H313	H	0.967769	-0.907354	-0.416490
H314	H	1.301103	-0.574020	-0.083157
H315	H	1.634436	-0.240687	0.250177
N316	N	0.993383	-0.386591	-0.671831
N317	N	1.326717	-0.053258	-0.338498
N318	N	1.660050	0.280076	-0.005164
H319	H	0.987282	-0.380473	-0.718463
H320	H	1.320615	-0.047140	-0.385130
H321	H	1.653949	0.286194	-0.051796
H322	H	1.038347	-0.376792	-0.660374
H323	H	1.371681	-0.043459	-0.327041
H324	H	1.705014	0.289875	0.006293
H325	H	0.982770	-0.375861	-1.063983
H326	H	1.316103	-0.042527	-0.730649
H327	H	1.649437	0.290806	-0.397316
N328	N	0.993376	-0.386623	-0.535185
N329	N	1.326709	-0.053289	-0.201852
N330	N	1.660043	0.280044	0.131482
H331	H	1.018864	-0.412115	-0.565995
H332	H	1.352198	-0.078782	-0.232661
H333	H	1.685531	0.254552	0.100672
H334	H	1.022523	-0.360999	-0.507938
H335	H	1.355856	-0.027666	-0.174605
H336	H	1.689190	0.305668	0.158729
H337	H	0.836816	-1.062875	-0.230515
H338	H	1.170150	-0.729541	0.102819
H339	H	1.503483	-0.396208	0.436152
N340	N	0.993399	-0.386528	-0.936030
N341	N	1.326733	-0.053194	-0.602697
N342	N	1.660066	0.280139	-0.269363
H343	H	1.038382	-0.376738	-0.947505
H344	H	1.371715	-0.043404	-0.614172
H345	H	1.705049	0.289929	-0.280839
H346	H	0.987240	-0.380412	-0.889404
H347	H	1.320573	-0.047079	-0.556071
H348	H	1.653906	0.286254	-0.222737
N349	N	0.678756	-0.386863	-0.387005
N350	N	1.012089	-0.053529	-0.053671
N351	N	1.345423	0.279804	0.279662
H352	H	0.647958	-0.412394	-0.412470
H353	H	0.981291	-0.079061	-0.079136
H354	H	1.314625	0.254273	0.254197
H355	H	0.706089	-0.361285	-0.416176
H356	H	1.039423	-0.027951	-0.082843
H357	H	1.372756	0.305382	0.250491
H358	H	0.836775	-0.943606	-0.230490
H359	H	1.170109	-0.610272	0.102843
H360	H	1.503442	-0.276939	0.436176
N361	N	0.542105	-0.386828	-0.387059
N362	N	0.875438	-0.053495	-0.053725
N363	N	1.208771	0.279838	0.279608
H364	H	0.572904	-0.412374	-0.412503
H365	H	0.906238	-0.079041	-0.079170
H366	H	1.239571	0.254292	0.254163
H367	H	0.514773	-0.415917	-0.361386
H368	H	0.848106	-0.082584	-0.028053
H369	H	1.181439	0.250749	0.305281
