data_functionalizedCrystal
_audit_creation_method	'MofGen! by Chris Wilmer'
_symmetry_space_group_name_H-M	'P1'
_symmetry_Int_Tables_number	1
_symmetry_cell_setting	triclinic
loop_
_symmetry_equiv_pos_as_xyz
  x,y,z
_cell_length_a	14.853567
_cell_length_b	14.853567
_cell_length_c	13.930277
_cell_angle_alpha	89.999243
_cell_angle_beta	89.995755
_cell_angle_gamma	83.634930
loop_
_atom_site_label
_atom_site_type_symbol
_atom_site_fract_x
_atom_site_fract_y
_atom_site_fract_z
O1	O	1.196368	0.117704	-0.079756
O2	O	1.696368	0.617704	0.420244
O3	O	0.933909	0.131725	-0.079772
O4	O	1.433909	0.631725	0.420228
O5	O	1.072149	-0.006516	-0.079767
O6	O	1.572149	0.493484	0.420233
O7	O	1.058128	0.255944	-0.079762
O8	O	1.558128	0.755944	0.420238
O9	O	1.072130	-0.006519	0.079895
O10	O	1.572130	0.493481	0.579895
O11	O	0.933890	0.131722	0.079890
O12	O	1.433890	0.631722	0.579890
O13	O	1.196349	0.117701	0.079905
O14	O	1.696349	0.617701	0.579905
Zn15	Zn	1.065116	0.124711	0.105247
Zn16	Zn	1.565116	0.624711	0.605247
Zn17	Zn	1.065142	0.124715	-0.105114
Zn18	Zn	1.565142	0.624715	0.394886
O19	O	1.058109	0.255941	0.079900
O20	O	1.558109	0.755941	0.579900
C21	C	0.900311	0.131088	0.000057
C22	C	1.400311	0.631088	0.500057
C23	C	0.800227	0.129184	0.000051
C24	C	1.300227	0.629184	0.500051
C25	C	1.071504	-0.040106	0.000061
C26	C	1.571504	0.459894	0.500061
C27	C	1.069601	-0.140189	0.000053
C28	C	1.569601	0.359811	0.500053
C29	C	0.387693	0.039019	0.000070
C30	C	0.887693	0.539019	0.500070
C31	C	0.366412	0.203251	0.000073
C32	C	0.866412	0.703251	0.500073
C33	C	0.460446	0.205042	0.000070
C34	C	0.960446	0.705042	0.500070
C35	C	0.518108	0.123819	0.000066
C36	C	1.018108	0.623819	0.500066
C37	C	0.481736	0.040806	0.000065
C38	C	0.981736	0.540806	0.500065
C39	C	0.496825	0.288053	0.000061
C40	C	0.996825	0.788053	0.500061
C41	C	0.590864	0.289846	0.000057
C42	C	1.090864	0.789846	0.500057
C43	C	0.648528	0.208623	0.000060
C44	C	1.148528	0.708623	0.500060
C45	C	0.612150	0.125607	0.000060
C46	C	1.112150	0.625607	0.500060
C47	C	0.669812	0.044384	0.000056
C48	C	1.169812	0.544384	0.500056
C49	C	0.633437	-0.038633	0.000063
C50	C	1.133437	0.461367	0.500063
C51	C	0.539399	-0.040417	0.000067
C52	C	1.039399	0.459583	0.500067
C53	C	0.742565	0.210407	0.000055
C54	C	1.242565	0.710407	0.500055
C55	C	0.763855	0.046172	0.000050
C56	C	1.263855	0.546172	0.500050
C57	C	0.979435	-0.552723	0.000066
C58	C	1.479435	-0.052723	0.500066
C59	C	1.143668	-0.574004	0.000076
C60	C	1.643668	-0.074004	0.500076
C61	C	1.145458	-0.479971	0.000070
C62	C	1.645458	0.020029	0.500070
C63	C	1.064235	-0.422309	0.000064
C64	C	1.564235	0.077691	0.500064
C65	C	0.981223	-0.458680	0.000063
C66	C	1.481223	0.041320	0.500063
C67	C	1.228469	-0.443591	0.000080
C68	C	1.728469	0.056409	0.500080
C69	C	1.230262	-0.349552	0.000076
C70	C	1.730262	0.150448	0.500076
C71	C	1.149039	-0.291889	0.000063
C72	C	1.649039	0.208111	0.500063
C73	C	1.066023	-0.328266	0.000061
C74	C	1.566023	0.171734	0.500061
C75	C	0.984800	-0.270604	0.000055
C76	C	1.484800	0.229396	0.500055
C77	C	0.901783	-0.306979	0.000047
C78	C	1.401783	0.193021	0.500047
C79	C	0.899999	-0.401017	0.000050
C80	C	1.399999	0.098983	0.500050
C81	C	1.150823	-0.197851	0.000059
C82	C	1.650823	0.302149	0.500059
C83	C	0.986588	-0.176561	0.000052
C84	C	1.486588	0.323439	0.500052
C85	C	1.229947	0.118337	0.000075
C86	C	1.729947	0.618337	0.500075
C87	C	1.330031	0.120241	0.000075
C88	C	1.830031	0.620241	0.500075
C89	C	1.058754	0.289531	0.000070
C90	C	1.558754	0.789531	0.500070
C91	C	1.060657	0.389615	0.000072
C92	C	1.560657	0.889615	0.500072
N93	N	1.065106	0.124708	0.248814
N94	N	1.565106	0.624708	0.748814
N95	N	1.065160	0.124711	-0.248680
N96	N	1.565160	0.624711	0.251320
C97	C	1.003926	0.185904	0.701081
C98	C	1.503926	0.685904	1.201081
C99	C	1.126382	0.063519	0.701055
C100	C	1.626382	0.563519	1.201055
C101	C	1.126371	0.063516	0.600559
C102	C	1.626371	0.563516	1.100559
C103	C	1.065138	0.124709	0.550319
C104	C	1.565138	0.624709	1.050319
C105	C	1.003916	0.185904	0.600576
C106	C	1.503916	0.685904	1.100576
C107	C	1.187598	0.002328	0.550295
C108	C	1.687598	0.502328	1.050295
C109	C	1.187591	0.002323	0.449793
C110	C	1.687591	0.502323	0.949793
C111	C	1.126353	0.063512	0.399552
C112	C	1.626353	0.563512	0.899552
C113	C	1.065127	0.124710	0.449814
C114	C	1.565127	0.624710	0.949814
C115	C	1.003894	0.185902	0.399575
C116	C	1.503894	0.685902	0.899575
C117	C	0.942664	0.247096	0.449835
C118	C	1.442664	0.747096	0.949835
C119	C	0.942677	0.247094	0.550334
C120	C	1.442677	0.747094	1.050334
C121	C	1.126339	0.063515	0.299053
C122	C	1.626339	0.563515	0.799053
C123	C	1.003883	0.185903	0.299070
C124	C	1.503883	0.685903	0.799070
H125	H	0.680397	-0.104764	0.000053
H126	H	1.180397	0.395236	0.500053
H127	H	0.954071	0.235724	0.742005
H128	H	1.454071	0.735724	1.242005
H129	H	0.911844	-0.582344	0.000055
H130	H	1.411844	-0.082344	0.500055
O131	O	0.898979	-0.114373	0.000056
O132	O	1.398979	0.385627	0.500056
H133	H	0.859263	-0.127321	-0.065017
H134	H	1.359263	0.372679	0.434983
O135	O	1.192430	-0.002472	0.755237
O136	O	1.692430	0.497528	1.255237
H137	H	1.180863	-0.072776	0.735952
H138	H	1.680863	0.427224	1.235952
O139	O	0.781796	0.299938	0.000046
O140	O	1.281796	0.799938	0.500046
H141	H	0.856873	0.287537	0.000038
H142	H	1.356873	0.787537	0.500038
H143	H	1.297860	-0.319944	0.000082
H144	H	1.797860	0.180056	0.500082
H145	H	0.954016	0.235731	0.258171
H146	H	1.454016	0.735731	0.758171
H147	H	1.176196	0.013696	0.258136
H148	H	1.676196	0.513696	0.758136
H149	H	0.892811	0.296924	0.408919
H150	H	1.392811	0.796924	0.908919
O151	O	0.630089	0.379384	0.000072
O152	O	1.130089	0.879384	0.500072
H153	H	0.606936	0.418429	-0.064994
H154	H	1.106936	0.918429	0.435006
H155	H	0.509774	-0.108005	0.000096
H156	H	1.009774	0.391995	0.500096
O157	O	1.253618	-0.063684	0.395584
O158	O	1.753618	0.436316	0.895584
H159	H	1.296192	-0.106239	0.447405
H160	H	1.796192	0.393761	0.947405
O161	O	1.231270	-0.636189	0.000092
O162	O	1.731270	-0.136189	0.500092
H163	H	1.216081	-0.707690	0.000092
H164	H	1.716081	-0.207690	0.500092
H165	H	0.835652	-0.260019	0.000048
H166	H	1.335652	0.239981	0.500048
O167	O	1.240352	-0.158616	0.000071
O168	O	1.740352	0.341384	0.500071
H169	H	1.245102	-0.116281	-0.065003
H170	H	1.745102	0.383719	0.434997
O171	O	0.810464	-0.440247	0.000062
O172	O	1.310464	0.059753	0.500062
H173	H	0.822869	-0.515324	0.000081
H174	H	1.322869	-0.015324	0.500081
H175	H	1.237457	-0.047489	0.591203
H176	H	1.737457	0.452511	1.091203
O177	O	0.826041	-0.041438	0.000047
O178	O	1.326041	0.458562	0.500047
H179	H	0.869388	-0.044554	0.065124
H180	H	1.369388	0.455446	0.565124
O181	O	0.434631	0.375650	0.000057
O182	O	0.934631	0.875650	0.500057
H183	H	0.475721	0.433675	0.000039
H184	H	0.975721	0.933675	0.500039
O185	O	0.348470	-0.050520	0.000079
O186	O	0.848470	0.449480	0.500079
H187	H	0.273392	-0.038124	0.000081
H188	H	0.773392	0.461876	0.500081
O189	O	0.304220	0.290850	0.000087
O190	O	0.804220	0.790850	0.500087
H191	H	0.260862	0.293965	-0.064981
H192	H	0.760862	0.793965	0.435019
H193	H	0.892827	0.296916	0.591263
H194	H	1.392827	0.796916	1.091263
O195	O	1.316070	-0.505778	0.000101
O196	O	1.816070	-0.005778	0.500101
H197	H	1.300878	-0.577279	0.000093
H198	H	1.800878	-0.077279	0.500093
