data_functionalizedCrystal
_audit_creation_method	'MofGen! by Chris Wilmer'
_symmetry_space_group_name_H-M	'P1'
_symmetry_Int_Tables_number	1
_symmetry_cell_setting	triclinic
loop_
_symmetry_equiv_pos_as_xyz
  x,y,z
_cell_length_a	27.731993
_cell_length_b	12.837942
_cell_length_c	11.295483
_cell_angle_alpha	85.469583
_cell_angle_beta	85.941258
_cell_angle_gamma	91.275334
loop_
_atom_site_label
_atom_site_type_symbol
_atom_site_fract_x
_atom_site_fract_y
_atom_site_fract_z
O1	O	0.649960	-0.115975	-0.098700
O2	O	0.510097	-0.134770	-0.098772
O3	O	0.576927	0.025479	-0.098730
O4	O	0.583130	-0.276224	-0.098742
O5	O	0.571056	0.011425	0.099317
O6	O	0.504226	-0.148823	0.099275
O7	O	0.644090	-0.130029	0.099347
Cu8	Cu	0.573622	-0.140709	0.117394
Cu9	Cu	0.580565	-0.124089	-0.116819
O10	O	0.577259	-0.290277	0.099305
C11	C	0.489135	-0.141410	0.000242
C12	C	0.435422	-0.140246	0.000215
C13	C	0.055043	-0.124167	-0.107683
C14	C	0.256921	-0.128594	-0.107715
O15	O	0.285742	-0.122610	-0.199530
N16	N	0.278968	-0.136808	0.000238
C17	C	0.250543	-0.143910	0.108207
O18	O	0.273929	-0.150988	0.200026
C19	C	0.048667	-0.139475	0.108238
C20	C	0.026622	-0.131271	0.000278
C21	C	0.032998	-0.115962	-0.215634
C22	C	-0.017469	-0.114861	-0.215625
C23	C	-0.045890	-0.121965	-0.107664
C24	C	-0.023845	-0.130170	0.000287
C25	C	0.020243	-0.146569	0.216205
C26	C	-0.030229	-0.145457	0.216204
C27	C	-0.052274	-0.137253	0.108243
C28	C	-0.102733	-0.136173	0.108257
N29	N	-0.124780	-0.127958	0.000304
C30	C	-0.096359	-0.120854	-0.107657
C31	C	0.356532	-0.146239	0.108183
C32	C	0.407001	-0.147350	0.108175
C33	C	0.413375	-0.132032	-0.107747
C34	C	0.362905	-0.130929	-0.107739
C35	C	0.334484	-0.138025	0.000230
C36	C	-0.202343	-0.118544	-0.107629
C37	C	-0.252814	-0.117448	-0.107611
C38	C	-0.259184	-0.132760	0.108311
C39	C	-0.208717	-0.133862	0.108293
C40	C	-0.180297	-0.126749	0.000313
O41	O	-0.131583	-0.142141	0.200023
O42	O	-0.119753	-0.113754	-0.199463
C43	C	0.105509	-0.125268	-0.107692
C44	C	0.127555	-0.133473	0.000259
C45	C	0.099133	-0.140577	0.108220
C46	C	0.178024	-0.134583	0.000252
C47	C	0.206445	-0.127479	-0.107709
C48	C	0.184397	-0.119264	-0.215662
C49	C	0.133931	-0.118163	-0.215653
C50	C	0.121181	-0.148791	0.216173
C51	C	0.171648	-0.149893	0.216155
C52	C	0.200069	-0.142789	0.108194
C53	C	0.571896	0.057038	0.000291
C54	C	0.565647	0.172013	0.000286
C55	C	0.665051	-0.123388	0.000330
C56	C	0.718765	-0.124552	0.000350
C57	C	0.582290	-0.321837	0.000281
C58	C	0.588540	-0.436811	0.000278
N59	N	0.568742	-0.152398	0.282127
C60	C	0.640776	0.414206	0.000300
C61	C	0.634907	0.522235	0.000295
C62	C	0.548039	0.496105	0.000263
C63	C	0.553909	0.388075	0.000268
C64	C	0.600278	0.347130	0.000288
C65	C	0.606147	0.239097	0.000302
C66	C	0.519281	0.212970	0.000261
C67	C	0.513411	0.320999	0.000256
N68	N	0.585448	-0.112392	-0.281553
C69	C	0.620573	-0.028192	0.531449
C70	C	0.616889	-0.037032	0.656111
C71	C	0.557688	-0.178914	0.656114
C72	C	0.561372	-0.170074	0.531452
C73	C	0.592816	-0.094711	0.469125
C74	C	0.596502	-0.085876	0.344461
C75	C	0.537299	-0.227752	0.344466
C76	C	0.533615	-0.236593	0.469128
H77	H	-0.179209	-0.112753	-0.195557
H78	H	0.424945	-0.154048	0.196087
C79	C	0.647422	0.036148	0.724664
N80	N	0.670420	0.091272	0.776297
H81	H	0.508012	-0.297949	0.519889
H82	H	0.514698	-0.281919	0.293707
C83	C	0.195891	-0.158918	0.334928
N84	N	0.214150	-0.165706	0.424386
C85	C	-0.277060	-0.108414	-0.226380
N86	N	-0.295320	-0.101605	-0.315835
H87	H	0.532083	-0.240266	0.706877
H88	H	-0.035413	-0.108175	-0.303537
C89	C	0.064254	-0.108144	-0.334410
N90	N	0.087793	-0.102261	-0.423880
H91	H	-0.190767	-0.140563	0.196203
C92	C	0.655163	0.054702	0.462886
N93	N	0.681217	0.117141	0.411246
H94	H	-0.282333	-0.138548	0.196210
H95	H	0.510287	0.529463	0.000233
H96	H	0.207547	-0.113486	-0.303567
C97	C	0.338660	-0.121892	-0.226502
N98	N	0.320402	-0.115081	-0.315960
H99	H	0.678532	0.380867	0.000328
H100	H	0.643904	0.205762	0.000323
C101	C	0.679457	0.596015	0.000317
N102	N	0.713014	0.651587	0.000334
C103	C	0.462406	0.366052	0.000247
N104	N	0.423988	0.399983	0.000249
H105	H	0.436524	-0.126251	-0.195653
C106	C	0.474730	0.139177	0.000249
N107	N	0.441176	0.083594	0.000242
C108	C	0.325275	-0.154068	0.226964
N109	N	0.301734	-0.159976	0.316431
C110	C	-0.061489	-0.153269	0.334980
N111	N	-0.085033	-0.159159	0.424443
C112	C	0.089924	-0.156625	0.334945
N113	N	0.066382	-0.162538	0.424412
H114	H	0.038183	-0.153247	0.304118
C115	C	0.631089	-0.002973	0.275902
N116	N	0.657140	0.059474	0.224267
H117	H	0.115987	-0.111483	-0.303565
