data_functionalizedCrystal
_audit_creation_method	'MofGen! by Chris Wilmer'
_symmetry_space_group_name_H-M	'P1'
_symmetry_Int_Tables_number	1
_symmetry_cell_setting	triclinic
loop_
_symmetry_equiv_pos_as_xyz
  x,y,z
_cell_length_a	17.699083
_cell_length_b	16.992695
_cell_length_c	16.176319
_cell_angle_alpha	89.993125
_cell_angle_beta	89.998611
_cell_angle_gamma	86.975619
loop_
_atom_site_label
_atom_site_type_symbol
_atom_site_fract_x
_atom_site_fract_y
_atom_site_fract_z
O1	O	1.010252	0.099146	-0.068631
O2	O	0.790676	0.112045	-0.068658
O3	O	0.899584	-0.008546	-0.068638
O4	O	0.901344	0.219736	-0.068651
O5	O	0.899567	-0.008553	0.068855
O6	O	0.790660	0.112037	0.068835
O7	O	1.010235	0.099138	0.068862
Cu8	Cu	0.900446	0.105587	0.081403
Cu9	Cu	0.900465	0.105596	-0.081199
O10	O	0.901328	0.219729	0.068842
C11	C	0.762442	0.111579	0.000085
C12	C	0.678338	0.110192	0.000075
C13	C	0.634124	0.180976	0.000071
C14	C	0.555099	0.179669	0.000082
C15	C	0.520290	0.107576	0.000091
C16	C	0.564510	0.036787	0.000097
C17	C	0.643533	0.038095	0.000092
C18	C	0.245818	0.031509	0.000118
C19	C	0.166789	0.030206	0.000120
C20	C	0.157384	0.173082	0.000108
C21	C	0.236408	0.174391	0.000103
C22	C	0.280621	0.103602	0.000113
C23	C	0.366308	0.105020	0.000103
C24	C	0.434604	0.106157	0.000095
C25	C	0.897311	-0.037758	0.000108
C26	C	0.890554	-0.124789	0.000107
C27	C	0.955751	-0.175154	0.000116
C28	C	0.949398	-0.256928	0.000107
C29	C	0.877846	-0.288336	0.000096
C30	C	0.812643	-0.237965	0.000084
C31	C	0.818998	-0.156192	0.000087
C32	C	0.851510	-0.531884	0.000081
C33	C	0.845160	-0.613663	0.000081
C34	C	0.981915	-0.632621	0.000102
C35	C	0.988263	-0.550845	0.000110
C36	C	0.923061	-0.500481	0.000094
N37	N	0.871350	-0.371923	0.000090
N38	N	0.929558	-0.416897	0.000095
C39	C	1.038469	0.099604	0.000117
C40	C	1.122574	0.100991	0.000122
C41	C	0.903601	0.248941	0.000094
C42	C	0.910358	0.335972	0.000090
N43	N	0.900438	0.105580	0.195768
N44	N	0.900479	0.105597	-0.195564
C45	C	0.948679	0.052204	0.239041
C46	C	0.948683	0.052203	0.325588
C47	C	0.900449	0.105583	0.368861
C48	C	0.852202	0.158961	0.325582
C49	C	0.852195	0.158957	0.239036
C50	C	0.852229	0.158976	0.674610
C51	C	0.852242	0.158977	0.761161
C52	C	0.948717	0.052222	0.761162
C53	C	0.948709	0.052218	0.674617
C54	C	0.900461	0.105593	0.631345
C55	C	0.900456	0.105593	0.537501
C56	C	0.900457	0.105588	0.462703
H57	H	0.662460	0.239682	0.000064
C58	C	1.044068	-0.053300	0.316896
C59	C	1.001723	-0.006457	0.373154
H60	H	1.076819	-0.089510	0.346263
H61	H	1.010866	-0.081472	0.283155
H62	H	1.073246	-0.020685	0.283125
H63	H	0.972541	-0.039072	0.406921
H64	H	1.034929	0.021717	0.406909
C65	C	1.021607	-0.359865	-0.070572
C66	C	1.021068	-0.312285	0.000114
H67	H	1.065859	-0.394035	-0.070571
H68	H	0.978093	-0.390275	-0.070575
H69	H	1.021246	-0.327552	-0.118509
H70	H	1.021423	-0.344599	0.048052
H71	H	1.064594	-0.281873	0.000125
C72	C	1.044069	-0.053315	0.683312
C73	C	1.001727	-0.006460	0.627052
H74	H	1.076794	-0.089545	0.653947
H75	H	1.073267	-0.020715	0.717055
H76	H	1.010858	-0.081471	0.717081
H77	H	1.034938	0.021700	0.593288
H78	H	0.972527	-0.039064	0.593295
C79	C	0.758660	-0.694625	0.070748
C80	C	0.766502	-0.648184	0.000066
H81	H	0.710100	-0.715931	0.070741
H82	H	0.796575	-0.736320	0.070751
H83	H	0.763973	-0.663112	0.118688
H84	H	0.761194	-0.679698	-0.047875
H85	H	0.728576	-0.606483	0.000055
H86	H	0.754384	-0.263544	0.000070
C87	C	0.737865	-0.043316	-0.070586
C88	C	0.692139	-0.039711	0.000093
H89	H	0.767875	-0.091350	-0.070578
H90	H	0.706841	-0.040861	-0.118523
H91	H	0.769899	-0.000188	-0.070582
H92	H	0.660101	-0.082836	0.000086
H93	H	0.723167	-0.042174	0.048043
C94	C	0.460773	0.261085	-0.070607
C95	C	0.506500	0.257478	0.000069
H96	H	0.430769	0.309122	-0.070612
H97	H	0.491796	0.258623	-0.118546
H98	H	0.428734	0.217961	-0.070587
H99	H	0.538544	0.300599	0.000045
H100	H	0.475475	0.259948	0.048020
H101	H	0.987960	0.008740	0.203814
H102	H	0.765906	-0.115186	0.000080
C103	C	1.096513	-0.673969	0.070796
C104	C	1.053583	-0.687982	0.000111
H105	H	1.140757	-0.708151	0.070799
H106	H	1.110534	-0.620780	0.070794
H107	H	1.067365	-0.683487	0.118734
H108	H	1.082729	-0.678459	-0.047828
H109	H	1.039563	-0.741184	0.000106
H110	H	0.988001	0.008758	0.796403
H111	H	0.812961	0.202446	0.796393
C112	C	0.756873	0.264506	0.683315
C113	C	0.799201	0.217651	0.627053
H114	H	0.724139	0.300735	0.653951
H115	H	0.727685	0.231907	0.717079
H116	H	0.790092	0.292664	0.717062
H117	H	0.765982	0.189488	0.593310
H118	H	0.828391	0.250255	0.593275
C119	C	0.809380	0.206376	0.458248
C120	C	0.799184	0.217639	0.373145
H121	H	0.776652	0.242608	0.487608
H122	H	0.797998	0.154069	0.472439
H123	H	0.860405	0.214827	0.472412
H124	H	0.748160	0.209183	0.358979
H125	H	0.810560	0.269958	0.358948
C126	C	0.756838	0.264491	0.247723
C127	C	0.799171	0.217633	0.191467
H128	H	0.724105	0.300717	0.218355
H129	H	0.727649	0.231892	0.281486
H130	H	0.790054	0.292651	0.281471
H131	H	0.765955	0.189468	0.157723
H132	H	0.828363	0.250236	0.157689
C133	C	0.184019	-0.110903	0.000152
C134	C	0.128525	-0.049044	0.000138
H135	H	0.160394	-0.159824	0.000167
H136	H	0.214644	-0.107427	-0.047794
H137	H	0.214647	-0.107415	0.048100
H138	H	0.097901	-0.052529	-0.047814
H139	H	0.097887	-0.052522	0.048088
H140	H	1.046528	-0.525279	0.000120
C141	C	0.736904	-0.490560	-0.070606
C142	C	0.779836	-0.476536	0.000075
H143	H	0.692651	-0.456391	-0.070603
H144	H	0.766041	-0.481039	-0.118542
H145	H	0.722894	-0.543761	-0.070599
H146	H	0.793851	-0.423336	0.000065
H147	H	0.750694	-0.486051	0.048024
C148	C	0.252705	0.296584	-0.070588
C149	C	0.274663	0.253640	0.000092
H150	H	0.276317	0.345513	-0.070588
H151	H	0.267594	0.267450	-0.118524
H152	H	0.199312	0.305925	-0.070576
H153	H	0.328055	0.244295	0.000077
H154	H	0.259779	0.282781	0.048041
H155	H	0.281807	-0.026132	0.000127
C156	C	0.447550	-0.028662	0.000102
C157	C	0.526249	-0.042460	0.000105
H158	H	0.423933	-0.077588	0.000100
H159	H	0.432671	0.000468	0.048045
H160	H	0.432675	0.000480	-0.047849
H161	H	0.541126	-0.071597	0.048060
H162	H	0.541135	-0.071602	-0.047843
C163	C	1.074273	-0.166127	-0.070555
C164	C	1.034403	-0.140631	0.000124
H165	H	1.122828	-0.144810	-0.070553
H166	H	1.079819	-0.222029	-0.070548
H167	H	1.047215	-0.148819	-0.118497
H168	H	1.061458	-0.157944	0.048067
H169	H	1.028860	-0.084717	0.000126
C170	C	0.063051	0.254508	-0.070569
C171	C	0.108781	0.250897	0.000105
H172	H	0.033045	0.302544	-0.070568
H173	H	0.094072	0.252051	-0.118509
H174	H	0.031014	0.211382	-0.070551
H175	H	0.140823	0.294019	0.000084
H176	H	0.077757	0.253361	0.048058
