data_functionalizedCrystal
_audit_creation_method	'MofGen! by Chris Wilmer'
_symmetry_space_group_name_H-M	'P1'
_symmetry_Int_Tables_number	1
_symmetry_cell_setting	triclinic
loop_
_symmetry_equiv_pos_as_xyz
  x,y,z
_cell_length_a	29.839135
_cell_length_b	29.839131
_cell_length_c	29.839125
_cell_angle_alpha	90.017709
_cell_angle_beta	90.015488
_cell_angle_gamma	90.043950
loop_
_atom_site_label
_atom_site_type_symbol
_atom_site_fract_x
_atom_site_fract_y
_atom_site_fract_z
Zn1	Zn	0.686720	-0.178886	0.254047
Zn2	Zn	0.936720	0.071114	0.504047
Zn3	Zn	1.186720	0.321114	0.754047
Zn4	Zn	1.436720	0.571114	1.004047
Zn5	Zn	0.686652	-0.253998	0.178917
Zn6	Zn	0.936652	-0.003998	0.428917
Zn7	Zn	1.186652	0.246002	0.678917
Zn8	Zn	1.436652	0.496002	0.928917
Zn9	Zn	0.611602	-0.178886	0.178925
Zn10	Zn	0.861602	0.071114	0.428925
Zn11	Zn	1.111602	0.321114	0.678925
Zn12	Zn	1.361602	0.571114	0.928925
Zn13	Zn	0.611550	-0.253993	0.254014
Zn14	Zn	0.861550	-0.003993	0.504014
Zn15	Zn	1.111550	0.246007	0.754014
Zn16	Zn	1.361550	0.496007	1.004014
O17	O	0.649131	-0.216441	0.216476
O18	O	0.899131	0.033559	0.466476
O19	O	1.149131	0.283559	0.716476
O20	O	1.399131	0.533559	0.966476
O21	O	0.749578	-0.188852	0.244092
O22	O	0.999578	0.061148	0.494092
O23	O	1.249578	0.311148	0.744092
O24	O	1.499578	0.561148	0.994092
O25	O	0.676690	-0.244036	0.116051
O26	O	0.926690	0.005964	0.366051
O27	O	1.176690	0.255964	0.616051
O28	O	1.426690	0.505964	0.866051
O29	O	0.621617	-0.116019	0.188908
O30	O	0.871617	0.133981	0.438908
O31	O	1.121617	0.383981	0.688908
O32	O	1.371617	0.633981	0.938908
O33	O	0.749528	-0.244036	0.188894
O34	O	0.999528	0.005964	0.438894
O35	O	1.249528	0.255964	0.688894
O36	O	1.499528	0.505964	0.938894
O37	O	0.676805	-0.116019	0.244099
O38	O	0.926805	0.133981	0.494099
O39	O	1.176805	0.383981	0.744099
O40	O	1.426805	0.633981	0.994099
O41	O	0.621551	-0.188852	0.116057
O42	O	0.871551	0.061148	0.366057
O43	O	1.121551	0.311148	0.616057
O44	O	1.371551	0.561148	0.866057
O45	O	0.548728	-0.188847	0.188876
O46	O	0.798728	0.061153	0.438876
O47	O	1.048728	0.311153	0.688876
O48	O	1.298728	0.561153	0.938876
O49	O	0.621528	-0.244028	0.316886
O50	O	0.871528	0.005972	0.566886
O51	O	1.121528	0.255972	0.816886
O52	O	1.371528	0.505972	1.066886
O53	O	0.548690	-0.244028	0.244043
O54	O	0.798690	0.005972	0.494043
O55	O	1.048690	0.255972	0.744043
O56	O	1.298690	0.505972	0.994043
O57	O	0.676755	-0.188847	0.316910
O58	O	0.926755	0.061153	0.566910
O59	O	1.176755	0.311153	0.816910
O60	O	1.426755	0.561153	1.066910
O61	O	0.676639	-0.316865	0.188862
O62	O	0.926639	-0.066865	0.438862
O63	O	1.176639	0.183135	0.688862
O64	O	1.426639	0.433135	0.938862
O65	O	0.621462	-0.316861	0.244035
O66	O	0.871462	-0.066861	0.494035
O67	O	1.121462	0.183139	0.744035
O68	O	1.371462	0.433139	0.994035
C69	C	0.532408	-0.216437	0.216457
C70	C	0.782408	0.033563	0.466457
C71	C	1.032408	0.283563	0.716457
C72	C	1.282408	0.533563	0.966457
C73	C	0.482474	-0.216447	0.216459
C74	C	0.732474	0.033553	0.466459
C75	C	0.982474	0.283553	0.716459
C76	C	1.232474	0.533553	0.966459
C77	C	0.172854	-0.187750	0.245260
C78	C	0.422854	0.062250	0.495260
C79	C	0.672854	0.312250	0.745260
C80	C	0.922854	0.562250	0.995260
C81	C	-0.014819	-0.187753	0.245273
C82	C	0.235181	0.062247	0.495273
C83	C	0.485181	0.312247	0.745273
C84	C	0.735181	0.562247	0.995273
O85	O	-0.039065	-0.163344	0.269738
O86	O	0.210935	0.086656	0.519738
O87	O	0.460935	0.336656	0.769738
O88	O	0.710935	0.586656	1.019738
N89	N	-0.038311	-0.216441	0.216492
N90	N	0.211689	0.033559	0.466492
N91	N	0.461689	0.283559	0.716492
N92	N	0.711689	0.533559	0.966492
C93	C	-0.014882	-0.245129	0.187705
C94	C	0.235118	0.004871	0.437705
C95	C	0.485118	0.254871	0.687705
C96	C	0.735118	0.504871	0.937705
O97	O	-0.039169	-0.269527	0.163223
O98	O	0.210831	-0.019527	0.413223
O99	O	0.460831	0.230473	0.663223
O100	O	0.710831	0.480473	0.913223
C101	C	0.172791	-0.245123	0.187690
C102	C	0.422791	0.004877	0.437690
C103	C	0.672791	0.254877	0.687690
C104	C	0.922791	0.504877	0.937690
C105	C	0.196280	-0.216436	0.216475
C106	C	0.446280	0.033564	0.466475
C107	C	0.696280	0.283564	0.716475
C108	C	0.946280	0.533564	0.966475
C109	C	0.196343	-0.159065	0.274042
C110	C	0.446343	0.090935	0.524042
C111	C	0.696343	0.340935	0.774042
C112	C	0.946343	0.590935	1.024042
C113	C	0.243258	-0.159066	0.274040
C114	C	0.493258	0.090934	0.524040
C115	C	0.743258	0.340934	0.774040
C116	C	0.993258	0.590934	1.024040
C117	C	0.266684	-0.187752	0.245256
C118	C	0.516684	0.062248	0.495256
C119	C	0.766684	0.312248	0.745256
C120	C	1.016684	0.562248	0.995256
C121	C	0.243195	-0.216437	0.216474
C122	C	0.493195	0.033563	0.466474
C123	C	0.743195	0.283563	0.716474
C124	C	0.993195	0.533563	0.966474
C125	C	0.196219	-0.273808	0.158901
C126	C	0.446219	-0.023808	0.408901
C127	C	0.696219	0.226192	0.658901
C128	C	0.946219	0.476192	0.908901
C129	C	0.243140	-0.273803	0.158899
C130	C	0.493140	-0.023803	0.408899
C131	C	0.743140	0.226197	0.658899
C132	C	0.993140	0.476197	0.908899
C133	C	0.266630	-0.245116	0.187684
C134	C	0.516630	0.004884	0.437684
C135	C	0.766630	0.254884	0.687684
C136	C	1.016630	0.504884	0.937684
C137	C	0.313537	-0.245125	0.187688
C138	C	0.563537	0.004875	0.437688
C139	C	0.813537	0.254875	0.687688
C140	C	1.063537	0.504875	0.937688
N141	N	0.337029	-0.216437	0.216468
N142	N	0.587029	0.033563	0.466468
N143	N	0.837029	0.283563	0.716468
N144	N	1.087029	0.533563	0.966468
C145	C	0.313602	-0.187750	0.245252
C146	C	0.563602	0.062250	0.495252
C147	C	0.813602	0.312250	0.745252
C148	C	1.063602	0.562250	0.995252
C149	C	-0.113412	-0.245130	0.187715
C150	C	0.136588	0.004870	0.437715
C151	C	0.386588	0.254870	0.687715
C152	C	0.636588	0.504870	0.937715
C153	C	-0.160330	-0.245133	0.187720
C154	C	0.089670	0.004867	0.437720
C155	C	0.339670	0.254867	0.687720
C156	C	0.589670	0.504867	0.937720
C157	C	-0.160265	-0.187756	0.245287
C158	C	0.089735	0.062244	0.495287
C159	C	0.339735	0.312244	0.745287
C160	C	0.589735	0.562244	0.995287
C161	C	-0.113346	-0.187756	0.245284
C162	C	0.136654	0.062244	0.495284
C163	C	0.386654	0.312244	0.745284
C164	C	0.636654	0.562244	0.995284
C165	C	-0.089921	-0.216442	0.216495
C166	C	0.160079	0.033558	0.466495
C167	C	0.410079	0.283558	0.716495
C168	C	0.660079	0.533558	0.966495
C169	C	0.412128	-0.187755	0.245246
C170	C	0.662128	0.062245	0.495246
C171	C	0.912128	0.312245	0.745246
C172	C	1.162128	0.562245	0.995246
C173	C	0.459048	-0.187760	0.245243
C174	C	0.709048	0.062240	0.495243
C175	C	0.959048	0.312240	0.745243
C176	C	1.209048	0.562240	0.995243
C177	C	0.458978	-0.245135	0.187675
C178	C	0.708978	0.004865	0.437675
C179	C	0.958978	0.254865	0.687675
C180	C	1.208978	0.504865	0.937675
C181	C	0.412063	-0.245132	0.187679
C182	C	0.662063	0.004868	0.437679
C183	C	0.912063	0.254868	0.687679
C184	C	1.162063	0.504868	0.937679
C185	C	0.388639	-0.216438	0.216467
C186	C	0.638639	0.033562	0.466467
C187	C	0.888639	0.283562	0.716467
C188	C	1.138639	0.533562	0.966467
O189	O	0.337811	-0.269518	0.163231
O190	O	0.587811	-0.019518	0.413231
O191	O	0.837811	0.230482	0.663231
O192	O	1.087811	0.480482	0.913231
O193	O	0.337898	-0.163349	0.269724
O194	O	0.587898	0.086651	0.519724
O195	O	0.837898	0.336651	0.769724
O196	O	1.087898	0.586651	1.019724
C197	C	0.125938	-0.187749	0.245262
C198	C	0.375938	0.062251	0.495262
C199	C	0.625938	0.312251	0.745262
C200	C	0.875938	0.562251	0.995262
C201	C	0.102449	-0.216434	0.216479
C202	C	0.352449	0.033566	0.466479
C203	C	0.602449	0.283566	0.716479
C204	C	0.852449	0.533566	0.966479
C205	C	0.125875	-0.245120	0.187695
C206	C	0.375875	0.004880	0.437695
C207	C	0.625875	0.254880	0.687695
C208	C	0.875875	0.504880	0.937695
C209	C	0.055531	-0.216436	0.216483
C210	C	0.305531	0.033564	0.466483
C211	C	0.555531	0.283564	0.716483
C212	C	0.805531	0.533564	0.966483
C213	C	0.032105	-0.187749	0.245267
C214	C	0.282105	0.062251	0.495267
C215	C	0.532105	0.312251	0.745267
C216	C	0.782105	0.562251	0.995267
C217	C	0.055596	-0.159061	0.274048
C218	C	0.305596	0.090939	0.524048
C219	C	0.555596	0.340939	0.774048
C220	C	0.805596	0.590939	1.024048
C221	C	0.102512	-0.159062	0.274046
C222	C	0.352512	0.090938	0.524046
C223	C	0.602512	0.340938	0.774046
C224	C	0.852512	0.590938	1.024046
C225	C	0.102384	-0.273808	0.158915
C226	C	0.352384	-0.023808	0.408915
C227	C	0.602384	0.226192	0.658915
C228	C	0.852384	0.476192	0.908915
C229	C	0.055468	-0.273805	0.158919
C230	C	0.305468	-0.023805	0.408919
C231	C	0.555468	0.226195	0.658919
C232	C	0.805468	0.476195	0.908919
C233	C	0.032042	-0.245119	0.187703
C234	C	0.282042	0.004881	0.437703
C235	C	0.532042	0.254881	0.687703
C236	C	0.782042	0.504881	0.937703
C237	C	0.649050	-0.333163	0.216454
C238	C	0.899050	-0.083163	0.466454
C239	C	1.149050	0.166837	0.716454
C240	C	1.399050	0.416837	0.966454
C241	C	0.649056	-0.383098	0.216459
C242	C	0.899056	-0.133098	0.466459
C243	C	1.149056	0.116902	0.716459
C244	C	1.399056	0.366902	0.966459
C245	C	0.677914	-0.692730	0.187789
C246	C	0.927914	-0.442730	0.437789
C247	C	1.177914	-0.192730	0.687789
C248	C	1.427914	0.057270	0.937789
C249	C	0.677969	-0.880403	0.187807
C250	C	0.927969	-0.630403	0.437807
C251	C	1.177969	-0.380403	0.687807
C252	C	1.427969	-0.130403	0.937807
O253	O	0.702441	-0.904659	0.163413
O254	O	0.952441	-0.654659	0.413413
O255	O	1.202441	-0.404659	0.663413
O256	O	1.452441	-0.154659	0.913413
N257	N	0.649224	-0.903883	0.216510
N258	N	0.899224	-0.653883	0.466510
N259	N	1.149224	-0.403883	0.716510
N260	N	1.399224	-0.153883	0.966510
C261	C	0.620465	-0.880441	0.245213
C262	C	0.870465	-0.630441	0.495213
C263	C	1.120465	-0.380441	0.745213
C264	C	1.370465	-0.130441	0.995213
O265	O	0.596020	-0.904718	0.269630
O266	O	0.846020	-0.654718	0.519630
O267	O	1.096020	-0.404718	0.769630
O268	O	1.346020	-0.154718	1.019630
C269	C	0.620412	-0.692769	0.245197
C270	C	0.870412	-0.442769	0.495197
C271	C	1.120412	-0.192769	0.745197
C272	C	1.370412	0.057231	0.995197
C273	C	0.649156	-0.669292	0.216489
C274	C	0.899156	-0.419292	0.466489
C275	C	1.149156	-0.169292	0.716489
C276	C	1.399156	0.080708	0.966489
C277	C	0.706656	-0.669253	0.159084
C278	C	0.956656	-0.419253	0.409084
C279	C	1.206656	-0.169253	0.659084
C280	C	1.456656	0.080747	0.909084
C281	C	0.706640	-0.622338	0.159078
C282	C	0.956640	-0.372338	0.409078
C283	C	1.206640	-0.122338	0.659078
C284	C	1.456640	0.127662	0.909078
C285	C	0.677882	-0.598900	0.187778
C286	C	0.927882	-0.348900	0.437778
C287	C	1.177882	-0.098900	0.687778
C288	C	1.427882	0.151100	0.937778
C289	C	0.649140	-0.622377	0.216483
C290	C	0.899140	-0.372377	0.466483
C291	C	1.149140	-0.122377	0.716483
C292	C	1.399140	0.127623	0.966483
C293	C	0.591656	-0.669328	0.273902
C294	C	0.841656	-0.419328	0.523902
C295	C	1.091656	-0.169328	0.773902
C296	C	1.341656	0.080672	1.023902
C297	C	0.591646	-0.622407	0.273897
C298	C	0.841646	-0.372407	0.523897
C299	C	1.091646	-0.122407	0.773897
C300	C	1.341646	0.127593	1.023897
C301	C	0.620390	-0.598930	0.245188
C302	C	0.870390	-0.348930	0.495188
C303	C	1.120390	-0.098930	0.745188
C304	C	1.370390	0.151070	0.995188
C305	C	0.620367	-0.552023	0.245177
C306	C	0.870367	-0.302023	0.495177
C307	C	1.120367	-0.052023	0.745177
C308	C	1.370367	0.197977	0.995177
N309	N	0.649112	-0.528543	0.216474
N310	N	0.899112	-0.278543	0.466474
N311	N	1.149112	-0.028543	0.716474
N312	N	1.399112	0.221457	0.966474
C313	C	0.677869	-0.551982	0.187774
C314	C	0.927869	-0.301982	0.437774
C315	C	1.177869	-0.051982	0.687774
C316	C	1.427869	0.198018	0.937774
C317	C	0.620494	-0.978972	0.245218
C318	C	0.870494	-0.728972	0.495218
C319	C	1.120494	-0.478972	0.745218
C320	C	1.370494	-0.228972	0.995218
C321	C	0.620507	-1.025889	0.245222
C322	C	0.870507	-0.775889	0.495222
C323	C	1.120507	-0.525889	0.745222
C324	C	1.370507	-0.275889	0.995222
C325	C	0.678012	-1.025849	0.187816
C326	C	0.928012	-0.775849	0.437816
C327	C	1.178012	-0.525849	0.687816
C328	C	1.428012	-0.275849	0.937816
C329	C	0.677997	-0.978930	0.187811
C330	C	0.927997	-0.728930	0.437811
C331	C	1.177997	-0.478930	0.687811
C332	C	1.427997	-0.228930	0.937811
C333	C	0.649239	-0.955492	0.216515
C334	C	0.899239	-0.705492	0.466515
C335	C	1.149239	-0.455492	0.716515
C336	C	1.399239	-0.205492	0.966515
C337	C	0.677834	-0.453456	0.187764
C338	C	0.927834	-0.203456	0.437764
C339	C	1.177834	0.046544	0.687764
C340	C	1.427834	0.296544	0.937764
C341	C	0.677814	-0.406536	0.187759
C342	C	0.927814	-0.156536	0.437759
C343	C	1.177814	0.093464	0.687759
C344	C	1.427814	0.343464	0.937759
C345	C	0.620311	-0.406581	0.245167
C346	C	0.870311	-0.156581	0.495167
C347	C	1.120311	0.093419	0.745167
C348	C	1.370311	0.343419	0.995167
C349	C	0.620329	-0.453497	0.245170
C350	C	0.870329	-0.203497	0.495170
C351	C	1.120329	0.046503	0.745170
C352	C	1.370329	0.296503	0.995170
C353	C	0.649094	-0.476933	0.216467
C354	C	0.899094	-0.226933	0.466467
C355	C	1.149094	0.023067	0.716467
C356	C	1.399094	0.273067	0.966467
O357	O	0.595912	-0.527738	0.269561
O358	O	0.845912	-0.277738	0.519561
O359	O	1.095912	-0.027738	0.769561
O360	O	1.345912	0.222262	1.019561
O361	O	0.702318	-0.527697	0.163367
O362	O	0.952318	-0.277697	0.413367
O363	O	1.202318	-0.027697	0.663367
O364	O	1.452318	0.222303	0.913367
C365	C	0.677930	-0.739646	0.187795
C366	C	0.927930	-0.489646	0.437795
C367	C	1.177930	-0.239646	0.687795
C368	C	1.427930	0.010354	0.937795
C369	C	0.649188	-0.763123	0.216501
C370	C	0.899188	-0.513123	0.466501
C371	C	1.149188	-0.263123	0.716501
C372	C	1.399188	-0.013123	0.966501
C373	C	0.620430	-0.739684	0.245200
C374	C	0.870430	-0.489684	0.495200
C375	C	1.120430	-0.239684	0.745200
C376	C	1.370430	0.010316	0.995200
C377	C	0.649200	-0.810041	0.216504
C378	C	0.899200	-0.560041	0.466504
C379	C	1.149200	-0.310041	0.716504
C380	C	1.399200	-0.060041	0.966504
C381	C	0.677958	-0.833479	0.187804
C382	C	0.927958	-0.583479	0.437804
C383	C	1.177958	-0.333479	0.687804
C384	C	1.427958	-0.083479	0.937804
C385	C	0.706703	-0.810000	0.159101
C386	C	0.956703	-0.560000	0.409101
C387	C	1.206703	-0.310000	0.659101
C388	C	1.456703	-0.060000	0.909101
C389	C	0.706687	-0.763084	0.159095
C390	C	0.956687	-0.513084	0.409095
C391	C	1.206687	-0.263084	0.659095
C392	C	1.456687	-0.013084	0.909095
C393	C	0.591685	-0.763164	0.273904
C394	C	0.841685	-0.513164	0.523904
C395	C	1.091685	-0.263164	0.773904
C396	C	1.341685	-0.013164	1.023904
C397	C	0.591703	-0.810079	0.273907
C398	C	0.841703	-0.560079	0.523907
C399	C	1.091703	-0.310079	0.773907
C400	C	1.341703	-0.060079	1.023907
C401	C	0.620461	-0.833518	0.245207
C402	C	0.870461	-0.583518	0.495207
C403	C	1.120461	-0.333518	0.745207
C404	C	1.370461	-0.083518	0.995207
C405	C	0.766309	-0.216445	0.216495
C406	C	1.016309	0.033555	0.466495
C407	C	1.266309	0.283555	0.716495
C408	C	1.516309	0.533555	0.966495
C409	C	0.816244	-0.216446	0.216504
C410	C	1.066244	0.033554	0.466504
C411	C	1.316244	0.283554	0.716504
C412	C	1.566244	0.533554	0.966504
C413	C	0.649143	-0.216437	0.333654
C414	C	0.899143	0.033563	0.583654
C415	C	1.149143	0.283563	0.833654
C416	C	1.399143	0.533563	1.083654
C417	C	0.649148	-0.216435	0.383589
C418	C	0.899148	0.033565	0.633589
C419	C	1.149148	0.283565	0.883589
C420	C	1.399148	0.533565	1.133589
C421	C	0.649225	-0.099262	0.216508
C422	C	0.899225	0.150738	0.466508
C423	C	1.149225	0.400738	0.716508
C424	C	1.399225	0.650738	0.966508
C425	C	0.649265	-0.049328	0.216522
C426	C	0.899265	0.200672	0.466522
C427	C	1.149265	0.450672	0.716522
C428	C	1.399265	0.700672	0.966522
C429	C	0.649145	-0.216412	0.099753
C430	C	0.899145	0.033588	0.349753
C431	C	1.149145	0.283588	0.599753
C432	C	1.399145	0.533588	0.849753
C433	C	0.649227	-0.216288	0.049819
C434	C	0.899227	0.033712	0.299819
C435	C	1.149227	0.283712	0.549819
C436	C	1.399227	0.533712	0.799819
C437	C	0.677935	-0.187627	0.693248
C438	C	0.927935	0.062373	0.943248
C439	C	1.177935	0.312373	1.193248
C440	C	1.427935	0.562373	1.443248
C441	C	0.677957	-0.187589	0.880921
C442	C	0.927957	0.062411	1.130921
C443	C	1.177957	0.312411	1.380921
C444	C	1.427957	0.562411	1.630921
O445	O	0.702400	-0.163138	0.905199
O446	O	0.952400	0.086862	1.155199
O447	O	1.202400	0.336862	1.405199
O448	O	1.452400	0.586862	1.655199
N449	N	0.649208	-0.216315	0.904374
N450	N	0.899208	0.033685	1.154374
N451	N	1.149208	0.283685	1.404374
N452	N	1.399208	0.533685	1.654374
C453	C	0.620449	-0.245050	0.880906
C454	C	0.870449	0.004950	1.130906
C455	C	1.120449	0.254950	1.380906
C456	C	1.370449	0.504950	1.630906
O457	O	0.595993	-0.269479	0.905160
O458	O	0.845993	-0.019479	1.155160
O459	O	1.095993	0.230521	1.405160
O460	O	1.345993	0.480521	1.655160
C461	C	0.620425	-0.245086	0.693234
C462	C	0.870425	0.004914	0.943234
C463	C	1.120425	0.254914	1.193234
C464	C	1.370425	0.504914	1.443234
C465	C	0.649179	-0.216361	0.669783
C466	C	0.899179	0.033639	0.919783
C467	C	1.149179	0.283639	1.169783
C468	C	1.399179	0.533639	1.419783
C469	C	0.706687	-0.158905	0.669797
C470	C	0.956687	0.091095	0.919797
C471	C	1.206687	0.341095	1.169797
C472	C	1.456687	0.591095	1.419797
C473	C	0.706683	-0.158916	0.622882
C474	C	0.956683	0.091084	0.872882
C475	C	1.206683	0.341084	1.122882
C476	C	1.456683	0.591084	1.372882
C477	C	0.677927	-0.187650	0.599417
C478	C	0.927927	0.062350	0.849417
C479	C	1.177927	0.312350	1.099417
C480	C	1.427927	0.562350	1.349417
C481	C	0.649175	-0.216373	0.622868
C482	C	0.899175	0.033627	0.872868
C483	C	1.149175	0.283627	1.122868
C484	C	1.399175	0.533627	1.372868
C485	C	0.591663	-0.273819	0.669766
C486	C	0.841663	-0.023819	0.919766
C487	C	1.091663	0.226181	1.169766
C488	C	1.341663	0.476181	1.419766
C489	C	0.591659	-0.273824	0.622845
C490	C	0.841659	-0.023824	0.872845
C491	C	1.091659	0.226176	1.122845
C492	C	1.341659	0.476176	1.372845
C493	C	0.620414	-0.245100	0.599395
C494	C	0.870414	0.004900	0.849395
C495	C	1.120414	0.254900	1.099395
C496	C	1.370414	0.504900	1.349395
C497	C	0.620415	-0.245119	0.552487
C498	C	0.870415	0.004881	0.802487
C499	C	1.120415	0.254881	1.052487
C500	C	1.370415	0.504881	1.302487
N501	N	0.649164	-0.216393	0.529034
N502	N	0.899164	0.033607	0.779034
N503	N	1.149164	0.283607	1.029034
N504	N	1.399164	0.533607	1.279034
C505	C	0.677920	-0.187659	0.552499
C506	C	0.927920	0.062341	0.802499
C507	C	1.177920	0.312341	1.052499
C508	C	1.427920	0.562341	1.302499
C509	C	0.620464	-0.245030	0.979437
C510	C	0.870464	0.004970	1.229437
C511	C	1.120464	0.254970	1.479437
C512	C	1.370464	0.504970	1.729437
C513	C	0.620471	-0.245022	1.026354
C514	C	0.870471	0.004978	1.276354
C515	C	1.120471	0.254978	1.526354
C516	C	1.370471	0.504978	1.776354
C517	C	0.677979	-0.187560	1.026366
C518	C	0.927979	0.062440	1.276366
C519	C	1.177979	0.312440	1.526366
C520	C	1.427979	0.562440	1.776366
C521	C	0.677974	-0.187571	0.979448
C522	C	0.927974	0.062429	1.229448
C523	C	1.177974	0.312429	1.479448
C524	C	1.427974	0.562429	1.729448
C525	C	0.649214	-0.216304	0.955984
C526	C	0.899214	0.033696	1.205984
C527	C	1.149214	0.283696	1.455984
C528	C	1.399214	0.533696	1.705984
C529	C	0.677910	-0.187685	0.453973
C530	C	0.927910	0.062315	0.703973
C531	C	1.177910	0.312315	0.953973
C532	C	1.427910	0.562315	1.203973
C533	C	0.677904	-0.187701	0.407054
C534	C	0.927904	0.062299	0.657054
C535	C	1.177904	0.312299	0.907054
C536	C	1.427904	0.562299	1.157054
C537	C	0.620395	-0.245161	0.407046
C538	C	0.870395	0.004839	0.657046
C539	C	1.120395	0.254839	0.907046
C540	C	1.370395	0.504839	1.157046
C541	C	0.620402	-0.245147	0.453961
C542	C	0.870402	0.004853	0.703961
C543	C	1.120402	0.254853	0.953961
C544	C	1.370402	0.504853	1.203961
C545	C	0.649161	-0.216406	0.477424
C546	C	0.899161	0.033594	0.727424
C547	C	1.149161	0.283594	0.977424
C548	C	1.399161	0.533594	1.227424
O549	O	0.595982	-0.269553	0.528180
O550	O	0.845982	-0.019553	0.778180
O551	O	1.095982	0.230447	1.028180
O552	O	1.345982	0.480447	1.278180
O553	O	0.702366	-0.163226	0.528237
O554	O	0.952366	0.086774	0.778237
O555	O	1.202366	0.336774	1.028237
O556	O	1.452366	0.586774	1.278237
C557	C	0.677939	-0.187616	0.740163
C558	C	0.927939	0.062384	0.990163
C559	C	1.177939	0.312384	1.240163
C560	C	1.427939	0.562384	1.490163
C561	C	0.649187	-0.216338	0.763614
C562	C	0.899187	0.033662	1.013614
C563	C	1.149187	0.283662	1.263614
C564	C	1.399187	0.533662	1.513614
C565	C	0.620431	-0.245072	0.740149
C566	C	0.870431	0.004928	0.990149
C567	C	1.120431	0.254928	1.240149
C568	C	1.370431	0.504928	1.490149
C569	C	0.649194	-0.216330	0.810532
C570	C	0.899194	0.033670	1.060532
C571	C	1.149194	0.283670	1.310532
C572	C	1.399194	0.533670	1.560532
C573	C	0.677950	-0.187596	0.833997
C574	C	0.927950	0.062404	1.083997
C575	C	1.177950	0.312404	1.333997
C576	C	1.427950	0.562404	1.583997
C577	C	0.706699	-0.158870	0.810544
C578	C	0.956699	0.091130	1.060544
C579	C	1.206699	0.341130	1.310544
C580	C	1.456699	0.591130	1.560544
C581	C	0.706695	-0.158881	0.763628
C582	C	0.956695	0.091119	1.013628
C583	C	1.206695	0.341119	1.263628
C584	C	1.456695	0.591119	1.513628
C585	C	0.591682	-0.273798	0.763602
C586	C	0.841682	-0.023798	1.013602
C587	C	1.091682	0.226202	1.263602
C588	C	1.341682	0.476202	1.513602
C589	C	0.591689	-0.273785	0.810518
C590	C	0.841689	-0.023785	1.060518
C591	C	1.091689	0.226215	1.310518
C592	C	1.341689	0.476215	1.560518
C593	C	0.620445	-0.245050	0.833983
C594	C	0.870445	0.004950	1.083983
C595	C	1.120445	0.254950	1.333983
C596	C	1.370445	0.504950	1.583983
H597	H	0.121633	-0.135702	0.297485
H598	H	0.371633	0.114298	0.547485
H599	H	0.621633	0.364298	0.797485
H600	H	0.871633	0.614298	1.047485
H601	H	0.036515	-0.135705	0.297486
H602	H	0.286515	0.114295	0.547486
H603	H	0.536515	0.364295	0.797486
H604	H	0.786515	0.614295	1.047486
H605	H	0.036347	-0.297170	0.135480
H606	H	0.286347	-0.047170	0.385480
H607	H	0.536347	0.202830	0.635480
H608	H	0.786347	0.452830	0.885480
H609	H	0.730104	-0.135503	0.688898
H610	H	0.980104	0.114497	0.938898
H611	H	1.230104	0.364497	1.188898
H612	H	1.480104	0.614497	1.438898
H613	H	0.568265	-0.297198	0.744502
H614	H	0.818265	-0.047198	0.994502
H615	H	1.068265	0.202802	1.244502
H616	H	1.318265	0.452802	1.494502
H617	H	0.597097	-1.045000	0.268595
H618	H	0.847097	-0.795000	0.518595
H619	H	1.097097	-0.545000	0.768595
H620	H	1.347097	-0.295000	1.018595
H621	H	0.597061	-0.268417	1.045444
H622	H	0.847061	-0.018417	1.295444
H623	H	1.097061	0.231583	1.545444
H624	H	1.347061	0.481583	1.795444
H625	H	0.701258	-0.472532	0.164392
H626	H	0.951258	-0.222532	0.414392
H627	H	1.201258	0.027468	0.664392
H628	H	1.451258	0.277468	0.914392
O629	O	0.127648	-0.304749	0.127867
O630	O	0.377648	-0.054749	0.377867
O631	O	0.627648	0.195251	0.627867
O632	O	0.877648	0.445251	0.877867
H633	H	0.103426	-0.324697	0.107859
H634	H	0.353426	-0.074697	0.357859
H635	H	0.603426	0.175303	0.607859
H636	H	0.853426	0.425303	0.857859
O637	O	0.560656	-0.694643	0.304869
O638	O	0.810656	-0.444643	0.554869
O639	O	1.060656	-0.194643	0.804869
O640	O	1.310656	0.055357	1.054869
H641	H	0.540665	-0.670455	0.324827
H642	H	0.790665	-0.420455	0.574827
H643	H	1.040665	-0.170455	0.824827
H644	H	1.290665	0.079545	1.074827
H645	H	0.701388	-0.164180	0.960357
H646	H	0.951388	0.085820	1.210357
H647	H	1.201388	0.335820	1.460357
H648	H	1.451388	0.585820	1.710357
H649	H	0.177102	-0.297168	0.135460
H650	H	0.427102	-0.047168	0.385460
H651	H	0.677102	0.202832	0.635460
H652	H	0.927102	0.452832	0.885460
H653	H	0.596925	-0.472613	0.268548
H654	H	0.846925	-0.222613	0.518548
H655	H	1.096925	0.027387	0.768548
H656	H	1.346925	0.277387	1.018548
O657	O	0.708820	-0.381214	0.156798
O658	O	0.958820	-0.131214	0.406798
O659	O	1.208820	0.118786	0.656798
O660	O	1.458820	0.368786	0.906798
H661	H	0.728823	-0.405397	0.136847
H662	H	0.978823	-0.155397	0.386847
H663	H	1.228823	0.094603	0.636847
H664	H	1.478823	0.344603	0.886847
O665	O	0.589375	-0.276147	0.381733
O666	O	0.839375	-0.026147	0.631733
O667	O	1.089375	0.223853	0.881733
O668	O	1.339375	0.473853	1.131733
H669	H	0.609458	-0.299008	0.360353
H670	H	0.859458	-0.049008	0.610353
H671	H	1.109458	0.200992	0.860353
H672	H	1.359458	0.450992	1.110353
O673	O	0.737649	-0.597019	0.128120
O674	O	0.987649	-0.347019	0.378120
O675	O	1.237649	-0.097019	0.628120
O676	O	1.487649	0.152981	0.878120
H677	H	0.757650	-0.621205	0.108172
H678	H	1.007650	-0.371205	0.358172
H679	H	1.257650	-0.121205	0.608172
H680	H	1.507650	0.128795	0.858172
O681	O	0.737672	-0.694530	0.128123
O682	O	0.987672	-0.444530	0.378123
O683	O	1.237672	-0.194530	0.628123
O684	O	1.487672	0.055470	0.878123
H685	H	0.757650	-0.670316	0.108163
H686	H	1.007650	-0.420316	0.358163
H687	H	1.257650	-0.170316	0.608163
H688	H	1.507650	0.079684	0.858163
H689	H	0.177274	-0.135702	0.297482
H690	H	0.427274	0.114298	0.547482
H691	H	0.677274	0.364298	0.797482
H692	H	0.927274	0.614298	1.047482
O693	O	0.709003	-0.953609	0.156852
O694	O	0.959003	-0.703609	0.406852
O695	O	1.209003	-0.453609	0.656852
O696	O	1.459003	-0.203609	0.906852
H697	H	0.729002	-0.977794	0.136900
H698	H	0.979002	-0.727794	0.386900
H699	H	1.229002	-0.477794	0.636900
H700	H	1.479002	-0.227794	0.886900
H701	H	0.262211	-0.297163	0.135454
H702	H	0.512211	-0.047163	0.385454
H703	H	0.762211	0.202837	0.635454
H704	H	1.012211	0.452837	0.885454
H705	H	-0.179451	-0.268497	0.164285
H706	H	0.070549	-0.018497	0.414285
H707	H	0.320549	0.231503	0.664285
H708	H	0.570549	0.481503	0.914285
O709	O	0.560698	-0.835400	0.304871
O710	O	0.810698	-0.585400	0.554871
O711	O	1.060698	-0.335400	0.804871
O712	O	1.310698	-0.085400	1.054871
H713	H	0.568380	-0.826372	0.340135
H714	H	0.818380	-0.576372	0.590135
H715	H	1.068380	-0.326372	0.840135
H716	H	1.318380	-0.076372	1.090135
H717	H	0.392937	-0.268496	0.164245
H718	H	0.642937	-0.018496	0.414245
H719	H	0.892937	0.231504	0.664245
H720	H	1.142937	0.481504	0.914245
H721	H	0.701427	-1.044940	0.164447
H722	H	0.951427	-0.794940	0.414447
H723	H	1.201427	-0.544940	0.664447
H724	H	1.451427	-0.294940	0.914447
O725	O	0.484249	-0.276071	0.156625
O726	O	0.734249	-0.026071	0.406625
O727	O	0.984249	0.223929	0.656625
O728	O	1.234249	0.473929	0.906625
H729	H	0.520819	-0.271244	0.161458
H730	H	0.770819	-0.021244	0.411458
H731	H	1.020819	0.228756	0.661458
H732	H	1.270819	0.478756	0.911458
H733	H	-0.094224	-0.164396	0.268723
H734	H	0.155776	0.085604	0.518723
H735	H	0.405776	0.335604	0.768723
H736	H	0.655776	0.585604	1.018723
H737	H	0.597044	-0.268431	0.960336
H738	H	0.847044	-0.018431	1.210336
H739	H	1.097044	0.231569	1.460336
H740	H	1.347044	0.481569	1.710336
O741	O	0.589296	-0.381297	0.276123
O742	O	0.839296	-0.131297	0.526123
O743	O	1.089296	0.118703	0.776123
O744	O	1.339296	0.368703	1.026123
H745	H	0.594122	-0.344729	0.271298
H746	H	0.844122	-0.094729	0.521298
H747	H	1.094122	0.155271	0.771298
H748	H	1.344122	0.405271	1.021298
O749	O	0.737694	-0.737765	0.128136
O750	O	0.987694	-0.487765	0.378136
O751	O	1.237694	-0.237765	0.628136
O752	O	1.487694	0.012235	0.878136
H753	H	0.757694	-0.761952	0.108186
H754	H	1.007694	-0.511952	0.358186
H755	H	1.257694	-0.261952	0.608186
H756	H	1.507694	-0.011952	0.858186
H757	H	-0.094343	-0.268491	0.164271
H758	H	0.155657	-0.018491	0.414271
H759	H	0.405657	0.231509	0.664271
H760	H	0.655657	0.481509	0.914271
H761	H	0.596991	-0.268541	0.473056
H762	H	0.846991	-0.018541	0.723056
H763	H	1.096991	0.231459	0.973056
H764	H	1.346991	0.481459	1.223056
O765	O	0.708987	-0.156558	1.051678
O766	O	0.958987	0.093442	1.301678
O767	O	1.208987	0.343442	1.551678
O768	O	1.458987	0.593442	1.801678
H769	H	0.704153	-0.161376	1.088242
H770	H	0.954153	0.088624	1.338242
H771	H	1.204153	0.338624	1.588242
H772	H	1.454153	0.588624	1.838242
H773	H	0.568248	-0.297209	0.688852
H774	H	0.818248	-0.047209	0.938852
H775	H	1.068248	0.202791	1.188852
H776	H	1.318248	0.452791	1.438852
O777	O	0.737731	-0.835284	0.128154
O778	O	0.987731	-0.585284	0.378154
O779	O	1.237731	-0.335284	0.628154
O780	O	1.487731	-0.085284	0.878154
H781	H	0.732914	-0.871852	0.132990
H782	H	0.982914	-0.621852	0.382990
H783	H	1.232914	-0.371852	0.632990
H784	H	1.482914	-0.121852	0.882990
H785	H	0.568233	-0.297218	0.603743
H786	H	0.818233	-0.047218	0.853743
H787	H	1.068233	0.202782	1.103743
H788	H	1.318233	0.452782	1.353743
H789	H	0.730110	-0.135491	0.744539
H790	H	0.980110	0.114509	0.994539
H791	H	1.230110	0.364509	1.244539
H792	H	1.480110	0.614509	1.494539
H793	H	0.478171	-0.164399	0.268685
H794	H	0.728171	0.085601	0.518685
H795	H	0.978171	0.335601	0.768685
H796	H	1.228171	0.585601	1.018685
O797	O	0.589465	-0.953694	0.276169
O798	O	0.839465	-0.703694	0.526169
O799	O	1.089465	-0.453694	0.776169
O800	O	1.339465	-0.203694	1.026169
H801	H	0.569476	-0.977908	0.296120
H802	H	0.819476	-0.727908	0.546120
H803	H	1.069476	-0.477908	0.796120
H804	H	1.319476	-0.227908	1.046120
H805	H	0.568229	-0.603326	0.297273
H806	H	0.818229	-0.353326	0.547273
H807	H	1.068229	-0.103326	0.797273
H808	H	1.318229	0.146674	1.047273
H809	H	0.730115	-0.135475	0.829657
H810	H	0.980115	0.114525	1.079657
H811	H	1.230115	0.364525	1.329657
H812	H	1.480115	0.614525	1.579657
O813	O	0.560657	-0.737886	0.304850
O814	O	0.810657	-0.487886	0.554850
O815	O	1.060657	-0.237886	0.804850
O816	O	1.310657	0.012114	1.054850
H817	H	0.540669	-0.762099	0.324803
H818	H	0.790669	-0.512099	0.574803
H819	H	1.040669	-0.262099	0.824803
H820	H	1.290669	-0.012099	1.074803
O821	O	0.708919	-0.156718	0.381759
O822	O	0.958919	0.093282	0.631759
O823	O	1.208919	0.343282	0.881759
O824	O	1.458919	0.593282	1.131759
H825	H	0.728911	-0.136733	0.405961
H826	H	0.978911	0.113267	0.655961
H827	H	1.228911	0.363267	0.905961
H828	H	1.478911	0.613267	1.155961
O829	O	0.708931	-0.156691	0.479277
O830	O	0.958931	0.093309	0.729277
O831	O	1.208931	0.343309	0.979277
O832	O	1.458931	0.593309	1.229277
H833	H	0.728924	-0.136726	0.455082
H834	H	0.978924	0.113274	0.705082
H835	H	1.228924	0.363274	0.955082
H836	H	1.478924	0.613274	1.205082
H837	H	0.730097	-0.135525	0.603793
H838	H	0.980097	0.114475	0.853793
H839	H	1.230097	0.364475	1.103793
H840	H	1.480097	0.614475	1.353793
O841	O	0.386871	-0.156808	0.276298
O842	O	0.636871	0.093192	0.526298
O843	O	0.886871	0.343192	0.776298
O844	O	1.136871	0.593192	1.026298
H845	H	0.365510	-0.133914	0.256237
H846	H	0.615510	0.116086	0.506237
H847	H	0.865510	0.366086	0.756237
H848	H	1.115510	0.616086	1.006237
H849	H	0.568274	-0.297180	0.829607
H850	H	0.818274	-0.047180	1.079607
H851	H	1.068274	0.202820	1.329607
H852	H	1.318274	0.452820	1.579607
H853	H	0.262379	-0.135705	0.297480
H854	H	0.512379	0.114295	0.547480
H855	H	0.762379	0.364295	0.797480
H856	H	1.012379	0.614295	1.047480
O857	O	-0.185535	-0.156809	0.276329
O858	O	0.064465	0.093191	0.526329
O859	O	0.314465	0.343191	0.776329
O860	O	0.564465	0.593191	1.026329
H861	H	-0.222105	-0.161630	0.271490
H862	H	0.027895	0.088370	0.521490
H863	H	0.277895	0.338370	0.771490
H864	H	0.527895	0.588370	1.021490
