data_functionalizedCrystal
_audit_creation_method	'MofGen! by Chris Wilmer'
_symmetry_space_group_name_H-M	'P1'
_symmetry_Int_Tables_number	1
_symmetry_cell_setting	triclinic
loop_
_symmetry_equiv_pos_as_xyz
  x,y,z
_cell_length_a	14.519709
_cell_length_b	16.098538
_cell_length_c	14.519731
_cell_angle_alpha	87.272855
_cell_angle_beta	83.684499
_cell_angle_gamma	92.738106
loop_
_atom_site_label
_atom_site_type_symbol
_atom_site_fract_x
_atom_site_fract_y
_atom_site_fract_z
O1	O	1.227993	0.069149	0.116782
O2	O	1.727993	0.569149	0.616782
O3	O	0.959518	0.069175	0.131017
O4	O	1.459518	0.569175	0.631017
O5	O	1.100863	0.069154	-0.010337
O6	O	1.600863	0.569154	0.489663
O7	O	1.086648	0.069170	0.258136
O8	O	1.586648	0.569170	0.758136
O9	O	1.092606	-0.069358	-0.002113
O10	O	1.592606	0.430642	0.497887
O11	O	0.951262	-0.069337	0.139241
O12	O	1.451262	0.430663	0.639241
O13	O	1.219736	-0.069362	0.125007
O14	O	1.719736	0.430638	0.625007
Zn15	Zn	1.084188	-0.091341	0.133430
Zn16	Zn	1.584188	0.408659	0.633430
Zn17	Zn	1.095066	0.091154	0.122593
Zn18	Zn	1.595066	0.591154	0.622593
O19	O	1.078391	-0.069341	0.266361
O20	O	1.578391	0.430659	0.766361
C21	C	0.921030	-0.000078	0.134465
C22	C	1.421030	0.499922	0.634465
C23	C	0.818650	-0.000068	0.132477
C24	C	1.318650	0.499932	0.632477
N25	N	1.076770	-0.215889	0.140825
N26	N	1.576770	0.284111	0.640825
C27	C	0.443751	-0.000106	0.125159
C28	C	0.943751	0.499894	0.625159
C29	C	0.548060	-0.000096	0.127191
C30	C	1.048060	0.499904	0.627191
C31	C	0.631197	-0.000087	0.128818
C32	C	1.131197	0.499913	0.628818
C33	C	0.735512	-0.000077	0.130850
C34	C	1.235512	0.499923	0.630850
C35	C	1.136785	-0.259483	0.080850
C36	C	1.636785	0.240517	0.580850
C37	C	1.131604	-0.346672	0.086032
C38	C	1.631604	0.153328	0.586032
C39	C	1.066413	-0.390264	0.151194
C40	C	1.566413	0.109736	0.651194
C41	C	1.006392	-0.346664	0.211172
C42	C	1.506392	0.153336	0.711172
C43	C	1.011569	-0.259477	0.205985
C44	C	1.511569	0.240523	0.705985
C45	C	1.047647	-0.653511	0.169982
C46	C	1.547647	-0.153511	0.669982
C47	C	1.042477	-0.740704	0.175166
C48	C	1.542477	-0.240704	0.675166
C49	C	1.167688	-0.740706	0.050025
C50	C	1.667688	-0.240706	0.550025
C51	C	1.172863	-0.653517	0.044847
C52	C	1.672863	-0.153517	0.544847
C53	C	1.112839	-0.609925	0.104821
C54	C	1.612839	-0.109925	0.604821
C55	C	1.061118	-0.479385	0.156494
C56	C	1.561118	0.020615	0.656494
C57	C	1.118130	-0.520806	0.099516
C58	C	1.618130	-0.020806	0.599516
C59	C	1.258224	-0.000108	0.121558
C60	C	1.758224	0.499892	0.621558
C61	C	1.360605	-0.000112	0.123546
C62	C	1.860605	0.499888	0.623546
C63	C	1.096069	-0.000102	-0.040584
C64	C	1.596069	0.499898	0.459416
C65	C	1.094072	-0.000102	-0.142965
C66	C	1.594072	0.499898	0.357035
N67	N	1.102491	0.215702	0.115191
N68	N	1.602491	0.715702	0.615191
C69	C	1.092451	-0.000100	-0.226109
C70	C	1.592451	0.499900	0.273891
C71	C	1.090424	-0.000094	-0.330418
C72	C	1.590424	0.499906	0.169582
C73	C	1.088816	-0.000088	-0.413557
C74	C	1.588816	0.499912	0.086443
C75	C	1.086790	-0.000083	-0.517873
C76	C	1.586790	0.499917	-0.017873
C77	C	1.083186	-0.000084	0.296608
C78	C	1.583186	0.499916	0.796608
C79	C	1.085182	-0.000078	0.398987
C80	C	1.585182	0.499922	0.898987
H81	H	1.189874	-0.223996	0.027792
H82	H	1.689874	0.276004	0.527792
H83	H	0.998775	-0.618025	0.218817
H84	H	1.498775	-0.118025	0.718817
H85	H	1.180472	-0.382165	0.037195
H86	H	1.680472	0.117835	0.537195
Cl87	Cl	0.960516	-0.795501	0.257094
Cl88	Cl	1.460516	-0.295501	0.757094
H89	H	1.225946	-0.618026	-0.008213
H90	H	1.725946	-0.118026	0.491787
H91	H	1.216556	-0.776207	0.001195
H92	H	1.716556	-0.276207	0.501195
H93	H	0.953308	-0.382162	0.264225
H94	H	1.453308	0.117838	0.764225
H95	H	0.962698	-0.223984	0.254821
H96	H	1.462698	0.276016	0.754821
Cl97	Cl	1.200078	-0.466003	0.017598
Cl98	Cl	1.700078	0.033997	0.517598
H99	H	1.008040	-0.514885	0.209552
H100	H	1.508040	-0.014885	0.709552
