data_functionalizedCrystal
_audit_creation_method	'MofGen! by Chris Wilmer'
_symmetry_space_group_name_H-M	'P1'
_symmetry_Int_Tables_number	1
_symmetry_cell_setting	triclinic
loop_
_symmetry_equiv_pos_as_xyz
  x,y,z
_cell_length_a	10.654541
_cell_length_b	11.792241
_cell_length_c	9.130307
_cell_angle_alpha	89.996545
_cell_angle_beta	89.999822
_cell_angle_gamma	84.338672
loop_
_atom_site_label
_atom_site_type_symbol
_atom_site_fract_x
_atom_site_fract_y
_atom_site_fract_z
O1	O	1.667388	0.159405	-0.121755
O2	O	1.301866	0.174596	-0.121768
O3	O	1.493497	0.001851	-0.121751
O4	O	1.475757	0.332151	-0.121772
O5	O	1.493491	0.001849	0.121848
O6	O	1.301859	0.174595	0.121831
O7	O	1.667382	0.159403	0.121844
Cu8	Cu	1.484620	0.166999	0.144080
Cu9	Cu	1.484627	0.167001	-0.144004
O10	O	1.475750	0.332149	0.121827
C11	C	1.255068	0.173481	0.000030
C12	C	1.115634	0.170145	0.000025
C13	C	1.087078	0.376710	-0.000006
C14	C	1.007297	0.478420	-0.000028
C15	C	0.876287	0.475279	-0.000029
C16	C	0.825059	0.370416	-0.000004
C17	C	0.904841	0.268706	0.000017
C18	C	1.035851	0.271858	0.000014
C19	C	0.933396	0.062144	0.000059
C20	C	1.064405	0.065282	0.000050
C21	C	0.882167	-0.042719	0.000084
C22	C	0.961949	-0.144432	0.000095
C23	C	1.092966	-0.141286	0.000095
C24	C	1.144187	-0.036428	0.000072
C25	C	1.492380	-0.040444	0.000048
C26	C	1.489044	-0.166465	0.000046
C27	C	1.482911	-0.397192	0.000022
C28	C	1.486319	-0.268799	0.000035
C29	C	1.714180	0.160519	0.000043
C30	C	1.853614	0.163854	0.000038
C31	C	1.476868	0.374443	0.000025
C32	C	1.480203	0.500465	0.000017
N33	N	1.484624	0.166997	0.346703
N34	N	1.484633	0.166994	-0.346627
C35	C	1.654383	0.014075	0.346708
C36	C	1.739271	-0.062382	0.423377
C37	C	1.739283	-0.062383	0.576710
C38	C	1.654396	0.014080	0.653378
C39	C	1.569509	0.090537	0.576709
C40	C	1.569508	0.090532	0.423372
C41	C	1.399746	0.243451	0.576704
C42	C	1.399737	0.243459	0.423370
C43	C	1.314859	0.319914	0.653372
C44	C	1.229975	0.396379	0.576702
C45	C	1.229967	0.396377	0.423360
C46	C	1.314849	0.319917	0.346701
H47	H	0.775491	-0.045269	0.000091
O48	O	1.314712	0.320100	0.197754
C49	C	1.221565	0.403954	0.146516
H50	H	1.200108	0.471389	0.234869
H51	H	1.257212	0.445605	0.043925
H52	H	1.132054	0.362677	0.119321
H53	H	1.808383	-0.124640	0.360941
O54	O	0.911979	-0.246187	0.000057
C55	C	0.779240	-0.227148	0.000105
H56	H	0.749080	-0.138817	-0.046026
H57	H	0.738557	-0.294306	-0.070602
H58	H	0.742747	-0.232928	0.116977
O59	O	1.057123	0.580250	-0.000310
C60	C	1.132079	0.588230	-0.126454
H61	H	1.100700	0.528668	-0.214625
H62	H	1.120941	0.679611	-0.168817
H63	H	1.235202	0.562865	-0.097924
H64	H	1.157918	-0.224112	0.000118
O65	O	1.147471	0.470488	0.651338
C66	C	1.069575	0.409035	0.740005
H67	H	1.119002	0.320637	0.762967
H68	H	1.050030	0.456233	0.847835
H69	H	0.976707	0.400543	0.680917
O70	O	0.798653	0.574001	-0.000246
C71	C	0.722044	0.578360	-0.126430
H72	H	0.714825	0.488211	-0.168475
H73	H	0.623871	0.619855	-0.098068
H74	H	0.765486	0.630539	-0.214782
O75	O	1.821855	-0.136700	0.650967
C76	C	1.896746	-0.204215	0.550429
H77	H	1.898483	-0.157671	0.441121
H78	H	1.996920	-0.220689	0.594737
H79	H	1.855399	-0.288876	0.534133
H80	H	1.654401	0.014065	0.778230
H81	H	1.314867	0.319905	0.778224
O82	O	1.147458	0.470759	0.349115
C83	C	1.072523	0.538217	0.449670
H84	H	1.124026	0.539933	0.558967
H85	H	1.053959	0.628704	0.405367
H86	H	0.978991	0.500566	0.465986
H87	H	0.718383	0.367868	0.000012
O88	O	1.271456	-0.033431	-0.000188
C89	C	1.323068	-0.089070	-0.126315
H90	H	1.247323	-0.089074	-0.214499
H91	H	1.404563	-0.042466	-0.168672
H92	H	1.359055	-0.180658	-0.097767
H93	H	1.193752	0.379277	-0.000038
H94	H	1.654392	0.014077	0.221856
