data_functionalizedCrystal
_audit_creation_method	'MofGen! by Chris Wilmer'
_symmetry_space_group_name_H-M	'P1'
_symmetry_Int_Tables_number	1
_symmetry_cell_setting	triclinic
loop_
_symmetry_equiv_pos_as_xyz
  x,y,z
_cell_length_a	12.759401
_cell_length_b	25.639240
_cell_length_c	12.759393
_cell_angle_alpha	89.969660
_cell_angle_beta	89.981995
_cell_angle_gamma	90.032485
loop_
_atom_site_label
_atom_site_type_symbol
_atom_site_fract_x
_atom_site_fract_y
_atom_site_fract_z
Zn1	Zn	1.606122	-0.208123	-0.593981
Zn2	Zn	1.605965	-0.295567	-0.418300
Zn3	Zn	1.430426	-0.208148	-0.418320
Zn4	Zn	1.430360	-0.295530	-0.593941
O5	O	1.518218	-0.251842	-0.506136
O6	O	1.753122	-0.219727	-0.570685
O7	O	1.582642	-0.283997	-0.271282
O8	O	1.453826	-0.134979	-0.441647
O9	O	1.753007	-0.283972	-0.441613
O10	O	1.582909	-0.134961	-0.570705
O11	O	1.453674	-0.219770	-0.271296
O12	O	1.283396	-0.219734	-0.441608
O13	O	1.453713	-0.283909	-0.740968
O14	O	1.283348	-0.283933	-0.570636
O15	O	1.582845	-0.219691	-0.740997
O16	O	1.582577	-0.368727	-0.441574
O17	O	1.453561	-0.368700	-0.570617
C18	C	1.245251	-0.251833	-0.506121
C19	C	1.128474	-0.251842	-0.506139
C20	C	1.518073	-0.387684	-0.506111
C21	C	1.518107	-0.445798	-0.506136
C22	C	1.073673	-0.218450	-0.573451
C23	C	0.963949	-0.218455	-0.573458
C24	C	0.963837	-0.285249	-0.438839
C25	C	1.073559	-0.285240	-0.438827
C26	C	0.814066	-0.156827	-0.611227
C27	C	0.759261	-0.123440	-0.678555
C28	C	0.794921	-0.115472	-0.781094
C29	C	0.885385	-0.140899	-0.816325
C30	C	0.940184	-0.174290	-0.749003
C31	C	0.904526	-0.182248	-0.646450
C32	C	1.223444	-0.346869	-0.401069
C33	C	1.278246	-0.380263	-0.333751
C34	C	1.242587	-0.388236	-0.231210
C35	C	1.152120	-0.362819	-0.195983
C36	C	1.097319	-0.329425	-0.263301
C37	C	1.132985	-0.321450	-0.365840
C38	C	1.585426	-0.696931	-0.573405
C39	C	1.585394	-0.642327	-0.573397
O40	O	1.642510	-0.614038	-0.630555
N41	N	1.518222	-0.615072	-0.506149
C42	C	1.451085	-0.642425	-0.438898
O43	O	1.393947	-0.614229	-0.381698
C44	C	1.451122	-0.697028	-0.438902
C45	C	1.518292	-0.724280	-0.506161
C46	C	1.652590	-0.724182	-0.640657
C47	C	1.652620	-0.778783	-0.640666
C48	C	1.585486	-0.806132	-0.573423
C49	C	1.518321	-0.778880	-0.506170
C50	C	1.383991	-0.724380	-0.371646
C51	C	1.384035	-0.778987	-0.371655
C52	C	1.451204	-0.806239	-0.438914
C53	C	1.451217	-0.860830	-0.438935
N54	N	1.518389	-0.888084	-0.506182
C55	C	1.585523	-0.860735	-0.573426
C56	C	1.451012	-0.527754	-0.438895
C57	C	1.450968	-0.473152	-0.438896
C58	C	1.585280	-0.473057	-0.573393
C59	C	1.585317	-0.527661	-0.573397
C60	C	1.518184	-0.555009	-0.506142
C61	C	1.585581	-0.975400	-0.573441
C62	C	1.585601	-1.030006	-0.573447
C63	C	1.451295	-1.030096	-0.438946
C64	C	1.451269	-0.975495	-0.438943
C65	C	1.518421	-0.948149	-0.506194
O66	O	1.394133	-0.889153	-0.381803
O67	O	1.642661	-0.888938	-0.630607
C68	C	1.792252	-0.251851	-0.506151
C69	C	1.909028	-0.251855	-0.506158
C70	C	1.518289	-0.251793	-0.780169
C71	C	1.518319	-0.251772	-0.896946
C72	C	1.518393	-0.115469	-0.506183
C73	C	1.518467	-0.057355	-0.506203
C74	C	1.451135	-0.285172	-1.061525
C75	C	1.451101	-0.285194	-0.951801
C76	C	1.585569	-0.218323	-0.951820
C77	C	1.585597	-0.218298	-1.061542
C78	C	1.327132	-0.303903	-0.801841
C79	C	1.259895	-0.337357	-0.746970
C80	C	1.243707	-0.388365	-0.782571
C81	C	1.294772	-0.405929	-0.873041
C82	C	1.362017	-0.372478	-0.927906
C83	C	1.378185	-0.321462	-0.892307
C84	C	1.709567	-0.199595	-1.211505
C85	C	1.776818	-0.166146	-1.266372
C86	C	1.793017	-0.115137	-1.230773
C87	C	1.741971	-0.097575	-1.140299
C88	C	1.674719	-0.131024	-1.085432
C89	C	1.658519	-0.182032	-1.121039
C90	C	1.518208	-0.251853	-0.233168
C91	C	1.518382	-0.251726	-0.116392
H92	H	1.013842	-0.194989	-0.777686
O93	O	1.858217	-0.082574	-1.284057
C94	C	1.801731	-0.038459	-1.318090
H95	H	1.729662	-0.033003	-1.266425
H96	H	1.776101	-0.044296	-1.402864
C97	C	1.960518	0.003543	-1.373995
C98	C	1.872007	0.010246	-1.310533
H99	H	2.003868	0.033587	-1.369339
H100	H	1.998575	-0.026178	-1.351070
H101	H	1.939147	-0.001322	-1.444635
H102	H	1.893379	0.015105	-1.239894
H103	H	1.833956	0.039970	-1.333446
H104	H	1.351919	-0.400952	-0.362437
H105	H	1.396262	-0.450968	-0.384139
O106	O	1.624960	-0.114003	-0.997612
C107	C	1.515632	-0.117146	-1.012368
H108	H	1.497557	-0.147209	-1.075637
H109	H	1.484361	-0.077434	-1.037592
C110	C	1.485064	-0.096692	-0.831241
C111	C	1.462864	-0.133619	-0.908943
H112	H	1.452513	-0.106851	-0.767443
H113	H	1.558720	-0.094572	-0.821299
H114	H	1.459005	-0.063601	-0.852274
H115	H	1.488935	-0.166707	-0.887915
H116	H	1.389211	-0.135745	-0.918878
H117	H	1.707264	-0.701920	-0.695415
O118	O	1.318666	-0.805529	-0.306436
C119	C	1.213936	-0.792211	-0.329285
H120	H	1.208576	-0.777179	-0.413211
H121	H	1.186492	-0.760543	-0.272930
C122	C	1.150432	-0.859210	-0.213918
C123	C	1.143846	-0.840752	-0.317001
H124	H	1.107195	-0.889151	-0.206337
H125	H	1.220990	-0.868181	-0.198521
H126	H	1.127564	-0.832815	-0.166968
H127	H	1.166726	-0.867144	-0.363948
H128	H	1.073290	-0.831786	-0.332406
H129	H	1.403595	-0.386778	-1.001564
O130	O	1.693950	-0.249132	-1.246229
C131	C	1.753397	-0.257454	-1.337868
H132	H	1.821618	-0.228745	-1.340113
H133	H	1.701636	-0.251315	-1.409630
C134	C	1.712311	-0.348879	-1.335242
C135	C	1.796106	-0.313621	-1.337994
H136	H	1.738653	-0.383526	-1.335323
H137	H	1.672257	-0.343273	-1.273505
H138	H	1.669184	-0.343757	-1.395045
H139	H	1.839224	-0.318739	-1.278186
H140	H	1.836169	-0.319230	-1.399721
H141	H	1.396564	-0.953306	-0.384186
H142	H	1.755164	-0.056040	-1.111310
H143	H	0.785030	-0.163306	-0.527729
H144	H	1.118382	-0.191253	-0.628257
O145	O	1.178300	-0.420885	-0.729443
C146	C	1.095996	-0.436717	-0.795940
H147	H	1.121801	-0.432751	-0.881119
H148	H	1.024462	-0.411075	-0.781558
C149	C	1.036172	-0.498879	-0.668327
C150	C	1.067869	-0.494012	-0.772945
H151	H	1.018817	-0.534220	-0.654140
H152	H	1.091619	-0.488212	-0.623524
H153	H	0.976564	-0.477507	-0.656354
H154	H	1.127483	-0.515378	-0.784912
H155	H	1.012431	-0.504684	-0.817749
H156	H	1.281595	-0.447467	-0.902014
H157	H	1.640263	-0.953141	-0.628201
H158	H	1.639946	-0.450780	-0.628145
O159	O	0.919901	-0.133086	-0.915956
C160	C	0.852121	-0.098173	-0.967830
H161	H	0.808823	-0.073475	-0.907491
H162	H	0.792984	-0.121131	-1.016377
C163	C	0.969634	-0.092720	-1.114532
C164	C	0.916461	-0.062383	-1.040423
H165	H	1.009319	-0.070644	-1.159314
H166	H	1.015297	-0.116243	-1.079586
H167	H	0.920343	-0.111850	-1.154976
H168	H	0.965751	-0.043258	-0.999971
H169	H	0.870807	-0.038855	-1.075364
O170	O	1.385684	-0.554238	-0.373537
C171	C	1.326413	-0.518468	-0.314172
H172	H	1.322738	-0.479536	-0.357206
H173	H	1.364922	-0.512665	-0.234410
C174	C	1.219124	-0.587642	-0.246083
C175	C	1.214604	-0.539826	-0.298942
H176	H	1.150157	-0.600817	-0.236684
H177	H	1.259059	-0.611741	-0.286075
H178	H	1.251220	-0.582800	-0.179620
H179	H	1.182520	-0.544670	-0.365408
H180	H	1.174661	-0.515728	-0.258961
O181	O	1.342658	-0.254340	-0.767235
C182	C	1.246234	-0.227519	-0.765755
H183	H	1.179238	-0.256844	-0.760598
H184	H	1.237903	-0.203544	-0.840562
C185	C	1.324944	-0.154974	-0.676389
C186	C	1.242658	-0.190992	-0.670046
H187	H	1.322739	-0.132441	-0.617354
H188	H	1.389908	-0.173043	-0.677389
H189	H	1.317993	-0.135001	-0.738732
H190	H	1.249618	-0.210969	-0.607711
H191	H	1.177695	-0.172925	-0.669033
H192	H	1.640008	-0.549845	-0.628170
H193	H	1.123082	-0.369314	-0.112488
H194	H	1.218317	-0.323051	-0.673309
O195	O	1.717929	-0.805311	-0.705844
C196	C	1.785857	-0.836870	-0.646083
H197	H	1.748844	-0.845093	-0.566437
H198	H	1.863702	-0.815791	-0.634594
C199	C	1.850361	-0.878612	-0.801733
C200	C	1.804896	-0.888715	-0.703914
H201	H	1.862110	-0.910591	-0.837406
H202	H	1.804600	-0.857348	-0.841996
H203	H	1.915227	-0.861045	-0.792145
H204	H	1.740027	-0.906275	-0.713503
H205	H	1.850647	-0.909982	-0.663653
H206	H	0.919112	-0.312441	-0.384037
H207	H	1.640295	-0.191108	-0.907148
H208	H	1.818387	-0.180450	-1.340038
H209	H	1.329297	-0.702200	-0.316877
H210	H	1.396633	-1.052373	-0.384201
H211	H	1.287197	-0.415443	-0.176413
O212	O	1.009484	-0.304754	-0.228900
C213	C	0.989740	-0.318962	-0.123967
H214	H	1.065667	-0.332687	-0.085837
H215	H	0.929610	-0.351851	-0.121818
C216	C	0.853580	-0.254656	-0.110586
C217	C	0.946837	-0.271510	-0.063752
H218	H	0.827111	-0.225387	-0.073442
H219	H	0.866879	-0.245085	-0.181282
H220	H	0.803484	-0.282069	-0.108792
H221	H	0.996936	-0.244100	-0.065558
H222	H	0.933546	-0.281075	0.006946
H223	H	1.396403	-0.312390	-1.106181
H224	H	0.685605	-0.102738	-0.649860
H225	H	1.252492	-0.340375	-0.484563
H226	H	1.640297	-1.052191	-0.628224
H227	H	0.750291	-0.088287	-0.835913
