data_functionalizedCrystal
_audit_creation_method	'MofGen! by Chris Wilmer'
_symmetry_space_group_name_H-M	'P1'
_symmetry_Int_Tables_number	1
_symmetry_cell_setting	triclinic
loop_
_symmetry_equiv_pos_as_xyz
  x,y,z
_cell_length_a	19.188933
_cell_length_b	17.666332
_cell_length_c	19.288862
_cell_angle_alpha	89.986024
_cell_angle_beta	96.859573
_cell_angle_gamma	90.007939
loop_
_atom_site_label
_atom_site_type_symbol
_atom_site_fract_x
_atom_site_fract_y
_atom_site_fract_z
O1	O	0.926141	0.062935	-0.086724
O2	O	0.722829	0.062944	-0.098397
O3	O	0.830361	0.062920	0.008569
O4	O	0.818610	0.062959	-0.193690
O5	O	0.830342	-0.062976	0.008575
O6	O	0.722811	-0.062953	-0.098391
O7	O	0.926123	-0.062961	-0.086719
Cu8	Cu	0.824465	-0.074452	-0.092554
Cu9	Cu	0.824487	0.074435	-0.092561
O10	O	0.818591	-0.062937	-0.193685
C11	C	0.696809	-0.000003	-0.098016
C12	C	0.619305	-0.000001	-0.096880
N13	N	0.824454	-0.179172	-0.092549
C14	C	0.066060	0.068616	-0.088780
C15	C	0.138884	0.068619	-0.089843
C16	C	0.175291	-0.000007	-0.090374
C17	C	0.138870	-0.068641	-0.089825
C18	C	0.066048	-0.068643	-0.088756
N19	N	0.284300	-0.051081	-0.131576
N20	N	0.353477	-0.051075	-0.132594
C21	C	0.394699	-0.000008	-0.093595
N22	N	0.364129	0.051065	-0.053550
N23	N	0.294945	0.051061	-0.052535
C24	C	0.254254	-0.000014	-0.091534
C25	C	0.510077	0.068625	-0.095292
C26	C	0.582903	0.068626	-0.096350
C27	C	0.582886	-0.068636	-0.096339
C28	C	0.510062	-0.068635	-0.095274
C29	C	0.473662	-0.000002	-0.094754
C30	C	0.872085	-0.218792	-0.045208
C31	C	0.872089	-0.298040	-0.045204
C32	C	0.824469	-0.337664	-0.092554
C33	C	0.776830	-0.298034	-0.139900
C34	C	0.776822	-0.218788	-0.139897
N35	N	0.815388	-0.462070	-0.154042
N36	N	0.815399	-0.537351	-0.154042
C37	C	0.824487	-0.576428	-0.092564
N38	N	0.833578	-0.537381	-0.031084
N39	N	0.833571	-0.462093	-0.031084
C40	C	0.824472	-0.423593	-0.092562
C41	C	0.872125	-0.701978	-0.045215
C42	C	0.872124	-0.781227	-0.045211
C43	C	0.776868	-0.781219	-0.139912
C44	C	0.776866	-0.701972	-0.139910
C45	C	0.824498	-0.662356	-0.092563
C46	C	0.952143	-0.000012	-0.087100
C47	C	1.029647	-0.000009	-0.088235
C48	C	0.829974	-0.000031	0.034449
C49	C	0.828840	-0.000041	0.111553
N50	N	0.824503	0.179155	-0.092561
C51	C	0.891934	-0.000050	0.156244
C52	C	0.890868	-0.000041	0.228691
C53	C	0.826705	-0.000039	0.256444
C54	C	0.763602	-0.000026	0.211743
C55	C	0.764669	-0.000028	0.139297
C56	C	0.776259	-0.044140	0.364737
C57	C	0.775194	-0.044144	0.437182
C58	C	0.823410	-0.000031	0.479890
C59	C	0.872703	0.044075	0.450146
C60	C	0.873770	0.044073	0.377700
C61	C	0.825540	-0.000037	0.334998
C62	C	0.885353	-0.000029	0.603137
C63	C	0.884285	-0.000015	0.675585
C64	C	0.757017	-0.000009	0.658636
C65	C	0.758087	-0.000015	0.586189
C66	C	0.822257	-0.000028	0.558444
C67	C	0.818980	0.000005	0.780436
C68	C	0.820121	-0.000012	0.703333
H69	H	0.036428	0.124502	-0.088354
C70	C	0.924522	-0.824809	0.006866
H71	H	0.952891	-0.789862	0.035058
H72	H	0.899507	-0.855738	0.035723
H73	H	0.953505	-0.855707	-0.018059
H74	H	0.911964	0.079995	0.484917
C75	C	0.622925	-0.144124	-0.096923
H76	H	0.671510	-0.134296	-0.097642
H77	H	0.616439	-0.172330	-0.056251
H78	H	0.605534	-0.172314	-0.137248
H79	H	0.910908	-0.669721	-0.006660
C80	C	0.622957	0.144117	-0.096950
H81	H	0.590845	0.184989	-0.096494
H82	H	0.656817	0.146971	-0.056872
H83	H	0.645912	0.146971	-0.137868
H84	H	0.168537	0.124503	-0.090291
H85	H	0.738093	-0.813481	-0.178463
H86	H	0.736994	-0.080066	0.329970
C87	C	0.025968	-0.144131	-0.088313
H88	H	-0.022621	-0.134302	-0.087644
H89	H	0.032498	-0.172219	-0.129027
H90	H	0.043288	-0.172440	-0.048029
C91	C	0.178914	-0.144128	-0.090413
H92	H	0.227498	-0.134299	-0.091135
H93	H	0.172432	-0.172334	-0.049740
H94	H	0.161520	-0.172318	-0.130736
H95	H	0.944186	-0.000058	0.133659
H96	H	0.738035	-0.186528	-0.178449
C97	C	0.470005	-0.144123	-0.094686
H98	H	0.502114	-0.184995	-0.095161
H99	H	0.447047	-0.146986	-0.053775
H100	H	0.436145	-0.146967	-0.134771
C101	C	0.470033	0.144117	-0.094722
H102	H	0.502153	0.184990	-0.095192
H103	H	0.436177	0.146969	-0.134805
H104	H	0.447073	0.146969	-0.053809
H105	H	0.711359	-0.000023	0.234344
C106	C	0.924470	-0.175218	0.006880
H107	H	0.952833	-0.210170	0.035080
H108	H	0.953450	-0.144285	-0.018031
H109	H	0.899439	-0.144325	0.035738
C110	C	0.695262	-0.000026	0.090135
H111	H	0.656894	-0.000027	0.117036
H112	H	0.693040	0.043874	0.061508
H113	H	0.693029	-0.043938	0.061536
C114	C	0.724479	-0.658387	-0.191994
H115	H	0.696123	-0.693334	-0.220199
H116	H	0.695494	-0.627487	-0.167080
H117	H	0.749505	-0.627461	-0.220848
H118	H	0.942249	-0.000044	0.265086
C119	C	0.924485	-0.341631	0.006872
H120	H	0.952853	-0.306687	0.035068
H121	H	0.899469	-0.372563	0.035724
H122	H	0.953469	-0.372527	-0.018054
C123	C	0.724452	-0.341617	-0.191985
H124	H	0.731282	-0.394488	-0.185212
H125	H	0.677879	-0.328647	-0.184556
H126	H	0.731889	-0.328611	-0.238326
C127	C	0.927980	0.092594	0.344982
H128	H	0.956542	0.118872	0.380788
H129	H	0.956583	0.060796	0.320479
H130	H	0.904253	0.128062	0.313501
C131	C	0.955936	-0.000035	0.572615
H132	H	0.993362	-0.000028	0.609610
H133	H	0.958992	-0.043940	0.544718
H134	H	0.959003	0.043871	0.544695
H135	H	0.935667	-0.000018	0.711973
C136	C	0.686438	-0.000004	0.689155
H137	H	0.694838	-0.000008	0.738702
H138	H	0.660474	0.043900	0.673789
H139	H	0.660462	-0.043912	0.673812
H140	H	0.706708	-0.000012	0.549800
H141	H	0.735054	-0.080053	0.461393
