data_functionalizedCrystal
_audit_creation_method	'MofGen! by Chris Wilmer'
_symmetry_space_group_name_H-M	'P1'
_symmetry_Int_Tables_number	1
_symmetry_cell_setting	triclinic
loop_
_symmetry_equiv_pos_as_xyz
  x,y,z
_cell_length_a	16.956984
_cell_length_b	16.974813
_cell_length_c	16.776229
_cell_angle_alpha	86.338786
_cell_angle_beta	89.992291
_cell_angle_gamma	79.731954
loop_
_atom_site_label
_atom_site_type_symbol
_atom_site_fract_x
_atom_site_fract_y
_atom_site_fract_z
O1	O	1.058006	0.032765	-0.068405
O2	O	1.558006	0.532765	0.431595
O3	O	0.825818	0.060528	-0.070196
O4	O	1.325818	0.560528	0.429804
O5	O	0.948385	-0.068881	-0.061845
O6	O	1.448385	0.431119	0.438155
O7	O	0.935440	0.162173	-0.076757
O8	O	1.435440	0.662173	0.423243
O9	O	0.948369	-0.068887	0.070732
O10	O	1.448369	0.431113	0.570732
O11	O	0.825802	0.060521	0.062381
O12	O	1.325802	0.560521	0.562381
O13	O	1.057990	0.032758	0.064172
O14	O	1.557990	0.532758	0.564172
Zn15	Zn	0.941894	0.046639	0.084326
Zn16	Zn	1.441894	0.546639	0.584326
Zn17	Zn	0.941915	0.046647	-0.090350
Zn18	Zn	1.441915	0.546647	0.409650
O19	O	0.935424	0.162167	0.055820
O20	O	1.435424	0.662167	0.555820
C21	C	0.796101	0.061946	-0.004000
C22	C	1.296101	0.561946	0.496000
C23	C	0.707575	0.066173	-0.004272
C24	C	1.207575	0.566173	0.495728
C25	C	0.675568	-0.004496	0.000290
C26	C	1.175568	0.495504	0.500290
C27	C	0.592389	-0.000520	0.000028
C28	C	1.092389	0.499480	0.500028
C29	C	0.541218	0.074126	-0.004792
C30	C	1.041218	0.574126	0.495208
C31	C	0.573230	0.144800	-0.009357
C32	C	1.073230	0.644800	0.490643
C33	C	0.656408	0.140823	-0.009100
C34	C	1.156408	0.640823	0.490900
C35	C	0.291424	0.093811	-0.006068
C36	C	0.791424	0.593811	0.493932
C37	C	0.208240	0.097782	-0.006321
C38	C	0.708240	0.597782	0.493679
C39	C	0.227405	-0.047538	0.003061
C40	C	0.727405	0.452462	0.503061
C41	C	0.310584	-0.051508	0.003322
C42	C	0.810584	0.448492	0.503322
C43	C	0.342589	0.019166	-0.001247
C44	C	0.842589	0.519166	0.498753
N45	N	0.456195	0.078192	-0.005057
N46	N	0.956195	0.578192	0.494943
N47	N	0.427611	0.015099	-0.000987
N48	N	0.927611	0.515099	0.499013
C49	C	0.947884	-0.098310	0.006341
C50	C	1.447884	0.401690	0.506341
C51	C	0.946407	-0.185991	0.011995
C52	C	1.446407	0.314009	0.511995
C53	C	0.945724	-0.227175	-0.057616
C54	C	1.445724	0.272825	0.442384
C55	C	0.944330	-0.309559	-0.052301
C56	C	1.444330	0.190441	0.447699
C57	C	0.943626	-0.350758	0.022626
C58	C	1.443626	0.149242	0.522626
C59	C	0.944307	-0.309568	0.092242
C60	C	1.444307	0.190432	0.592242
C61	C	0.945695	-0.227184	0.086926
C62	C	1.445695	0.272816	0.586926
C63	C	0.939470	-0.597149	0.046273
C64	C	1.439470	-0.097149	0.546273
C65	C	0.938085	-0.679539	0.051584
C66	C	1.438085	-0.179539	0.551584
C67	C	0.938107	-0.679525	-0.092959
C68	C	1.438107	-0.179525	0.407041
C69	C	0.939499	-0.597140	-0.098268
C70	C	1.439499	-0.097140	0.401732
C71	C	0.940176	-0.555956	-0.028652
C72	C	1.440176	-0.055956	0.471348
N73	N	0.942205	-0.434969	0.028061
N74	N	1.442205	0.065031	0.528061
N75	N	0.941592	-0.471746	-0.034088
N76	N	1.441592	0.028254	0.465912
C77	C	1.087708	0.031340	-0.002027
C78	C	1.587708	0.531340	0.497973
C79	C	1.176233	0.027113	-0.001759
C80	C	1.676233	0.527113	0.498241
C81	C	0.935924	0.191596	-0.012368
C82	C	1.435924	0.691596	0.487632
C83	C	0.937402	0.279277	-0.018027
C84	C	1.437402	0.779277	0.481973
N85	N	0.941885	0.046632	0.203537
N86	N	1.441885	0.546632	0.703537
N87	N	0.941930	0.046647	-0.209561
N88	N	1.441930	0.546647	0.290439
C89	C	0.996174	-0.010649	0.248951
C90	C	1.496174	0.489351	0.748951
C91	C	0.996178	-0.010650	0.332404
C92	C	1.496178	0.489350	0.832404
C93	C	0.941897	0.046634	0.370440
C94	C	1.441897	0.546634	0.870440
C95	C	0.887602	0.103918	0.325020
C96	C	1.387602	0.603918	0.825020
C97	C	0.887595	0.103915	0.241570
C98	C	1.387595	0.603915	0.741570
C99	C	0.887631	0.103932	0.661566
C100	C	1.387631	0.603932	1.161566
C101	C	0.887644	0.103932	0.745023
C102	C	1.387644	0.603932	1.245023
C103	C	0.996215	-0.010633	0.752400
C104	C	1.496215	0.489367	1.252400
C105	C	0.996207	-0.010636	0.668950
C106	C	1.496207	0.489364	1.168950
C107	C	0.941910	0.046645	0.623537
C108	C	1.441910	0.546645	1.123537
C109	C	0.941905	0.046644	0.533049
C110	C	1.441905	0.546644	1.033049
C111	C	0.941905	0.046639	0.460927
C112	C	1.441905	0.546639	0.960927
H113	H	0.317471	0.151358	-0.009794
H114	H	0.817471	0.651358	0.490206
H115	H	1.040424	-0.057276	0.789384
H116	H	1.540424	0.442724	1.289384
H117	H	0.531560	0.205578	-0.013286
H118	H	1.031560	0.705578	0.486714
C119	C	0.840607	0.243847	0.341668
C120	C	1.340607	0.743847	0.841668
C121	C	0.827929	0.166886	0.366823
C122	C	1.327929	0.666886	0.866823
H123	H	0.803762	0.282721	0.367470
H124	H	1.303762	0.782721	0.867470
H125	H	0.893809	0.248988	0.355006
H126	H	1.393809	0.748988	0.855006
H127	H	0.832834	0.252029	0.285467
H128	H	1.332834	0.752029	0.785467
H129	H	0.835708	0.158701	0.423024
H130	H	1.335708	0.658701	0.923024
H131	H	0.774714	0.161743	0.353491
H132	H	1.274714	0.661743	0.853491
C133	C	0.877637	-0.188448	-0.183307
C134	C	1.377637	0.311552	0.316693
C135	C	0.946490	-0.181897	-0.139981
C136	C	1.446490	0.318103	0.360019
H137	H	0.878106	-0.160493	-0.234157
H138	H	1.378106	0.339507	0.265843
H139	H	0.876720	-0.243403	-0.190094
H140	H	1.376720	0.256597	0.309906
H141	H	0.831388	-0.165875	-0.155058
H142	H	1.331388	0.334125	0.344942
H143	H	0.992739	-0.204475	-0.168228
H144	H	1.492739	0.295525	0.331772
H145	H	0.947415	-0.126931	-0.133198
H146	H	1.447415	0.373069	0.366802
C147	C	0.869149	-0.691507	-0.215365
C148	C	1.369149	-0.191507	0.284635
C149	C	0.937335	-0.724798	-0.169474
C150	C	1.437335	-0.224798	0.330526
H151	H	0.868669	-0.719456	-0.262604
H152	H	1.368669	-0.219456	0.237396
H153	H	0.822453	-0.695939	-0.185369
H154	H	1.322453	-0.195939	0.314631
H155	H	0.870091	-0.636549	-0.229254
H156	H	1.370091	-0.136549	0.270746
H157	H	0.936390	-0.779755	-0.155579
H158	H	1.436390	-0.279755	0.344421
H159	H	0.984043	-0.720374	-0.199475
H160	H	1.484043	-0.220374	0.300525
H161	H	0.843439	0.150582	0.775990
H162	H	1.343439	0.650582	1.275990
C163	C	0.870157	0.212649	0.140689
C164	C	1.370157	0.712649	0.640689
C165	C	0.827921	0.166880	0.191645
C166	C	1.327921	0.666880	0.691645
H167	H	0.833313	0.251517	0.109865
H168	H	1.333313	0.751517	0.609865
H169	H	0.903311	0.238946	0.171535
H170	H	1.403311	0.738946	0.671535
H171	H	0.902481	0.178522	0.106099
H172	H	1.402481	0.678522	0.606099
H173	H	0.795601	0.201007	0.226239
H174	H	1.295601	0.701007	0.726239
H175	H	0.794753	0.140582	0.160796
H176	H	1.294753	0.640582	0.660796
C177	C	0.321169	-0.194752	0.012568
C178	C	0.821169	0.305248	0.512568
C179	C	0.366829	-0.133561	0.008619
C180	C	0.866829	0.366439	0.508619
H181	H	0.355894	-0.245408	0.015837
H182	H	0.855894	0.254592	0.515837
H183	H	0.288322	-0.190179	0.058501
H184	H	0.788322	0.309821	0.558501
H185	H	0.288334	-0.190174	-0.033965
H186	H	0.788334	0.309826	0.466035
H187	H	0.399660	-0.138136	0.055155
H188	H	0.899660	0.361864	0.555155
H189	H	0.399690	-0.138137	-0.037318
H190	H	0.899690	0.361863	0.462682
H191	H	0.566333	-0.058066	0.003742
H192	H	1.066333	0.441934	0.503742
C193	C	0.686148	-0.147737	0.009526
C194	C	1.186148	0.352263	0.509526
C195	C	0.731812	-0.086550	0.005583
C196	C	1.231812	0.413450	0.505583
H197	H	0.720871	-0.198395	0.012786
H198	H	1.220871	0.301605	0.512786
H199	H	0.653305	-0.143169	0.055462
H200	H	1.153305	0.356831	0.555462
H201	H	0.653309	-0.143151	-0.037005
H202	H	1.153309	0.356849	0.462995
H203	H	0.764647	-0.091133	0.052116
H204	H	1.264647	0.408867	0.552116
H205	H	0.764669	-0.091120	-0.040358
H206	H	1.264669	0.408880	0.459642
C207	C	1.044199	-0.061698	0.544315
C208	C	1.544199	0.438302	1.044315
C209	C	1.055733	-0.073735	0.627149
C210	C	1.555733	0.426265	1.127149
H211	H	1.080909	-0.100691	0.518514
H212	H	1.580909	0.399309	1.018514
H213	H	0.990935	-0.066692	0.531059
H214	H	1.490935	0.433308	1.031059
H215	H	1.052945	-0.009550	0.527194
H216	H	1.552945	0.490450	1.027194
H217	H	1.046981	-0.125881	0.644270
H218	H	1.546981	0.374119	1.144270
H219	H	1.109009	-0.068748	0.640410
H220	H	1.609009	0.431252	1.140410
C221	C	0.877576	-0.188460	0.207617
C222	C	1.377576	0.311540	0.707617
C223	C	0.946439	-0.181906	0.163443
C224	C	1.446439	0.318094	0.663443
H225	H	0.878035	-0.160509	0.254857
H226	H	1.378035	0.339491	0.754857
H227	H	0.831339	-0.165895	0.176459
H228	H	1.331339	0.334105	0.676459
H229	H	0.876662	-0.243424	0.221505
H230	H	1.376662	0.256576	0.721505
H231	H	0.947350	-0.126942	0.149550
H232	H	1.447350	0.373058	0.649550
H233	H	0.992689	-0.204468	0.194607
H234	H	1.492689	0.295532	0.694607
H235	H	0.682466	0.198369	-0.012812
H236	H	1.182466	0.698369	0.487188
C237	C	0.108409	-0.105970	0.006826
C238	C	0.608409	0.394030	0.506826
C239	C	0.192223	-0.125219	0.008073
C240	C	0.692223	0.374781	0.508073
H241	H	0.086692	-0.153931	0.009913
H242	H	0.586692	0.346069	0.509913
H243	H	0.090839	-0.075476	0.051089
H244	H	0.590839	0.424524	0.551089
H245	H	0.090855	-0.075460	-0.041377
H246	H	0.590855	0.424540	0.458623
H247	H	0.209777	-0.155725	0.056279
H248	H	0.709777	0.344275	0.556279
H249	H	0.209800	-0.155727	-0.036194
H250	H	0.709800	0.344273	0.463806
H251	H	0.943777	-0.343089	-0.108985
H252	H	1.443777	0.156911	0.391015
C253	C	0.939354	-0.605459	0.189680
C254	C	1.439354	-0.105459	0.689680
C255	C	0.940247	-0.551892	0.122795
C256	C	1.440247	-0.051892	0.622795
H257	H	0.939846	-0.577517	0.236923
H258	H	1.439846	-0.077517	0.736923
H259	H	0.892329	-0.628513	0.188176
H260	H	1.392329	-0.128513	0.688176
H261	H	0.985290	-0.646667	0.189307
H262	H	1.485290	-0.146667	0.689307
H263	H	0.894307	-0.510687	0.123165
H264	H	1.394307	-0.010687	0.623165
H265	H	0.987277	-0.528825	0.124300
H266	H	1.487277	-0.028825	0.624300
C267	C	1.104680	-0.034893	0.156604
C268	C	1.604680	0.465107	0.656604
C269	C	1.055805	-0.073635	0.207126
C270	C	1.555805	0.426365	0.707126
H271	H	1.141485	-0.073787	0.130783
H272	H	1.641485	0.426213	0.630783
H273	H	1.072347	-0.000767	0.117630
H274	H	1.572347	0.499233	0.617630
H275	H	1.133366	-0.003860	0.187139
H276	H	1.633366	0.496140	0.687139
H277	H	1.027115	-0.104663	0.176589
H278	H	1.527115	0.395337	0.676589
H279	H	1.088143	-0.107775	0.246104
H280	H	1.588143	0.392225	0.746104
C281	C	0.872328	-0.491236	-0.188918
C282	C	1.372328	0.008764	0.311082
C283	C	0.940116	-0.551898	-0.180670
C284	C	1.440116	-0.051898	0.319330
H285	H	0.872670	-0.463317	-0.239800
H286	H	1.372670	0.036683	0.260200
H287	H	0.825360	-0.514370	-0.184284
H288	H	1.325360	-0.014370	0.315716
H289	H	0.872990	-0.454872	-0.148271
H290	H	1.372990	0.045128	0.351729
H291	H	0.939450	-0.588266	-0.221314
H292	H	1.439450	-0.088266	0.278686
H293	H	0.987096	-0.528764	-0.185312
H294	H	1.487096	-0.028764	0.314688
H295	H	0.166578	0.158571	-0.010242
H296	H	0.666578	0.658571	0.489758
C297	C	0.942186	-0.435864	0.164572
C298	C	1.442186	0.064136	0.664572
C299	C	0.943540	-0.354853	0.174604
C300	C	1.443540	0.145147	0.674604
H301	H	0.941721	-0.463820	0.215421
H302	H	1.441721	0.036180	0.715421
H303	H	0.895483	-0.440295	0.135173
H304	H	1.395483	0.059705	0.635173
H305	H	0.988445	-0.458419	0.136328
H306	H	1.488445	0.041581	0.636328
H307	H	0.897278	-0.332297	0.202842
H308	H	1.397278	0.167703	0.702842
H309	H	0.990248	-0.350417	0.204015
H310	H	1.490248	0.149583	0.704015
C311	C	1.103519	-0.123875	0.331312
C312	C	1.603519	0.376125	0.831312
C313	C	1.055867	-0.073604	0.382322
C314	C	1.555867	0.426396	0.882322
H315	H	1.140374	-0.162736	0.362131
H316	H	1.640374	0.337264	0.862131
H317	H	1.070362	-0.150180	0.300478
H318	H	1.570362	0.349820	0.800478
H319	H	1.132147	-0.092800	0.296742
H320	H	1.632147	0.407200	0.796742
H321	H	1.027234	-0.104678	0.416888
H322	H	1.527234	0.395322	0.916888
H323	H	1.089027	-0.047296	0.413170
H324	H	1.589027	0.452704	0.913170
H325	H	0.843422	0.150573	0.624598
H326	H	1.343422	0.650573	1.124598
H327	H	0.937508	-0.713080	0.112601
H328	H	1.437508	-0.213080	0.612601
