data_functionalizedCrystal
_audit_creation_method	'MofGen! by Chris Wilmer'
_symmetry_space_group_name_H-M	'P1'
_symmetry_Int_Tables_number	1
_symmetry_cell_setting	triclinic
loop_
_symmetry_equiv_pos_as_xyz
  x,y,z
_cell_length_a	10.489716
_cell_length_b	19.188930
_cell_length_c	17.666332
_cell_angle_alpha	90.011603
_cell_angle_beta	90.008963
_cell_angle_gamma	83.836959
loop_
_atom_site_label
_atom_site_type_symbol
_atom_site_fract_x
_atom_site_fract_y
_atom_site_fract_z
O1	O	1.691880	0.098422	0.062952
O2	O	2.191880	0.598422	0.562952
O3	O	1.320473	0.107686	0.062956
O4	O	1.820473	0.607686	0.562956
O5	O	1.516894	0.001470	0.062939
O6	O	2.016894	0.501470	0.562939
O7	O	1.495458	0.204638	0.062969
O8	O	1.995458	0.704638	0.562969
O9	O	1.516860	0.001464	-0.062958
O10	O	2.016860	0.501464	0.437042
O11	O	1.320439	0.107680	-0.062941
O12	O	1.820439	0.607680	0.437059
O13	O	1.691845	0.098416	-0.062945
O14	O	2.191845	0.598416	0.437055
Cu15	Cu	1.506139	0.103048	-0.074438
Cu16	Cu	2.006139	0.603048	0.425562
Cu17	Cu	1.506180	0.103055	0.074449
Cu18	Cu	2.006180	0.603055	0.574449
O19	O	1.495424	0.204633	-0.062928
O20	O	1.995424	0.704633	0.437072
C21	C	1.272939	0.106987	0.000007
C22	C	1.772939	0.606987	0.500007
C23	C	1.131355	0.104905	0.000008
C24	C	1.631355	0.604905	0.500008
C25	C	1.032224	0.170040	0.000020
C26	C	1.532224	0.670040	0.500020
C27	C	0.955631	0.135618	-0.062063
C28	C	1.455631	0.635618	0.437937
C29	C	0.955672	0.135608	0.062062
C30	C	1.455672	0.635608	0.562062
C31	C	1.056626	0.070510	-0.062125
C32	C	1.556626	0.570510	0.437875
C33	C	1.056672	0.070510	0.062055
C34	C	1.556672	0.570510	0.562055
C35	C	0.980129	0.036041	-0.000042
C36	C	1.480129	0.536041	0.499958
C37	C	1.516183	-0.024549	-0.000012
C38	C	2.016183	0.475451	0.499988
C39	C	1.514099	-0.102067	-0.000018
C40	C	2.014099	0.397933	0.499982
C41	C	1.629353	-0.146225	-0.000023
C42	C	2.129353	0.353775	0.499977
C43	C	1.627395	-0.219061	-0.000011
C44	C	2.127395	0.280939	0.499989
C45	C	1.510177	-0.247738	-0.000009
C46	C	2.010177	0.252262	0.499991
C47	C	1.394908	-0.203571	-0.000000
C48	C	1.894908	0.296429	0.500000
C49	C	1.396869	-0.130735	-0.000005
C50	C	1.896869	0.369265	0.499995
N51	N	1.420566	-0.356341	-0.042853
N52	N	1.920566	0.143659	0.457147
N53	N	1.418712	-0.425531	-0.042851
N54	N	1.918712	0.074469	0.457149
C55	C	1.504262	-0.467186	0.000006
C56	C	2.004262	0.032814	0.500006
N57	N	1.591757	-0.437036	0.042851
N58	N	2.091757	0.062964	0.542851
N59	N	1.593616	-0.367839	0.042845
N60	N	2.093616	0.132161	0.542845
C61	C	1.508038	-0.326714	-0.000004
C62	C	2.008038	0.173286	0.499996
C63	C	1.617401	-0.590321	0.000016
C64	C	2.117401	-0.090321	0.500016
C65	C	1.615438	-0.663159	0.000033
C66	C	2.115438	-0.163159	0.500033
C67	C	1.382948	-0.647667	0.000036
C68	C	1.882948	-0.147667	0.500036
C69	C	1.384914	-0.574831	0.000026
C70	C	1.884914	-0.074831	0.500026
C71	C	1.502144	-0.546163	0.000013
C72	C	2.002144	-0.046163	0.500013
C73	C	1.739379	0.099115	0.000005
C74	C	2.239379	0.599115	0.500005
C75	C	1.880964	0.101198	0.000009
C76	C	2.380964	0.601198	0.500009
C77	C	1.496135	0.230651	0.000024
C78	C	1.996135	0.730651	0.500024
C79	C	1.498219	0.308170	0.000036
C80	C	1.998219	0.808170	0.500036
N81	N	1.506120	0.103042	-0.179158
N82	N	2.006120	0.603042	0.320842
C83	C	1.593123	0.056033	-0.218775
C84	C	2.093123	0.556033	0.281225
C85	C	1.593131	0.056030	-0.298023
C86	C	2.093131	0.556030	0.201977
C87	C	1.506147	0.103048	-0.337650
C88	C	2.006147	0.603048	0.162350
C89	C	1.419127	0.150061	-0.298023
C90	C	1.919127	0.650061	0.201977
C91	C	1.419113	0.150058	-0.218777
C92	C	1.919113	0.650058	0.281223
N93	N	1.489566	0.164745	-0.462060
N94	N	1.989566	0.664745	0.037940
N95	N	1.489587	0.164745	-0.537340
N96	N	1.989587	0.664745	-0.037340
C97	C	1.506180	0.103058	-0.576414
C98	C	2.006180	0.603058	-0.076414
N99	N	1.522778	0.041368	-0.537364
N100	N	2.022778	0.541368	-0.037364
N101	N	1.522764	0.041368	-0.462076
N102	N	2.022764	0.541368	0.037924
C103	C	1.506151	0.103056	-0.423579
C104	C	2.006151	0.603056	0.076421
C105	C	1.593197	0.056041	-0.701961
C106	C	2.093197	0.556041	-0.201961
C107	C	1.593195	0.056037	-0.781210
C108	C	2.093195	0.556037	-0.281210
C109	C	1.419198	0.150074	-0.781209
C110	C	1.919198	0.650074	-0.281209
C111	C	1.419193	0.150072	-0.701961
C112	C	1.919193	0.650072	-0.201961
C113	C	1.506199	0.103056	-0.662342
C114	C	2.006199	0.603056	-0.162342
N115	N	1.506209	0.103054	0.179168
N116	N	2.006209	0.603054	0.679168
H117	H	1.724810	-0.122888	-0.000031
H118	H	2.224810	0.377112	0.499969
H119	H	0.911587	0.163120	0.114539
H120	H	1.411587	0.663120	0.614539
H121	H	1.712856	-0.566979	0.000008
H122	H	2.212856	-0.066979	0.500008
H123	H	1.663966	0.017749	-0.186519
H124	H	2.163966	0.517749	0.313481
H125	H	1.348369	0.188354	-0.813473
H126	H	1.848369	0.688354	-0.313473
H127	H	1.055627	0.226697	-0.000030
H128	H	1.555627	0.726697	0.499970
O129	O	1.284789	-0.087937	-0.000038
O130	O	1.784789	0.412063	0.499962
C131	C	1.180904	-0.128862	-0.000010
C132	C	1.680904	0.371138	0.499990
H133	H	1.213573	-0.183059	-0.023839
H134	H	1.713573	0.316941	0.476161
H135	H	1.100162	-0.102409	-0.036561
H136	H	1.600162	0.397591	0.463439
H137	H	1.144973	-0.134209	0.060391
H138	H	1.644973	0.365791	0.560391
O139	O	1.739475	-0.261866	-0.000051
O140	O	2.239475	0.238134	0.499949
C141	C	1.843363	-0.220944	-0.000042
C142	C	2.343363	0.279056	0.499958
H143	H	1.810680	-0.166757	-0.023876
H144	H	2.310680	0.333243	0.476124
H145	H	1.924075	-0.247415	-0.036599
H146	H	2.424075	0.252585	0.463401
H147	H	1.879341	-0.215569	0.060354
H148	H	2.379341	0.284431	0.560354
O149	O	0.902826	0.168480	-0.124584
O150	O	1.402826	0.668480	0.375416
C151	C	0.813216	0.224786	-0.102290
C152	C	1.313216	0.724786	0.397710
H153	H	0.778331	0.215106	-0.042483
H154	H	1.278331	0.715106	0.457517
H155	H	0.728252	0.229247	-0.142892
H156	H	1.228252	0.729247	0.357108
H157	H	0.860602	0.275533	-0.103469
H158	H	1.360602	0.775533	0.396531
O159	O	1.108838	0.037792	-0.124886
O160	O	1.608838	0.537792	0.375114
C161	C	1.056081	0.071976	-0.190147
C162	C	1.556081	0.571976	0.309853
H163	H	0.959055	0.101571	-0.175684
H164	H	1.459055	0.601571	0.324316
H165	H	1.043142	0.031508	-0.235987
H166	H	1.543142	0.531508	0.264013
H167	H	1.123385	0.110490	-0.211541
H168	H	1.623385	0.610490	0.288459
H169	H	1.299469	-0.226923	0.000003
H170	H	1.799469	0.273077	0.500003
O171	O	1.677767	0.010334	-0.336400
O172	O	2.177767	0.510334	0.163600
C173	C	1.754527	-0.031179	-0.284438
C174	C	2.254527	0.468821	0.215562
H175	H	1.755805	-0.002549	-0.227940
H176	H	2.255805	0.497451	0.272060
H177	H	1.856442	-0.041291	-0.307327
H178	H	2.356442	0.458709	0.192673
H179	H	1.713406	-0.083264	-0.276029
H180	H	2.213406	0.416736	0.223971
O181	O	0.952666	-0.031630	0.000008
O182	O	1.452666	0.468370	0.500008
C183	C	1.006368	-0.066076	0.064883
C184	C	1.506368	0.433924	0.564883
H185	H	1.089393	-0.037716	0.086315
H186	H	1.589393	0.462284	0.586315
H187	H	1.042998	-0.122476	0.049898
H188	H	1.542998	0.377524	0.549898
H189	H	0.930141	-0.065891	0.110894
H190	H	1.430141	0.434109	0.610894
H191	H	1.100797	0.043037	0.114534
H192	H	1.600797	0.543037	0.614534
H193	H	1.348301	0.188342	-0.330292
H194	H	1.848301	0.688342	0.169708
H195	H	1.709296	-0.699112	0.000033
H196	H	2.209296	-0.199112	0.500033
O197	O	1.269193	-0.675629	0.000008
O198	O	1.769193	-0.175629	0.500008
C199	C	1.292173	-0.749385	0.000035
C200	C	1.792173	-0.249385	0.500035
H201	H	1.391795	-0.765996	-0.023804
H202	H	1.891795	-0.265996	0.476196
H203	H	1.217176	-0.772130	-0.036509
H204	H	1.717176	-0.272130	0.463491
H205	H	1.286129	-0.769671	0.060437
H206	H	1.786129	-0.269671	0.560437
H207	H	1.291062	-0.538877	0.000026
H208	H	1.791062	-0.038877	0.500026
H209	H	1.348263	0.188339	-0.186520
H210	H	1.848263	0.688339	0.313480
H211	H	1.348352	0.188354	-0.669703
H212	H	1.848352	0.688354	-0.169703
H213	H	1.664039	0.017756	-0.669701
H214	H	2.164039	0.517756	-0.169701
O215	O	1.677766	0.010465	-0.819781
O216	O	2.177766	0.510465	-0.319781
C217	C	1.756253	0.048279	-0.865587
C218	C	2.256253	0.548279	-0.365587
H219	H	1.705137	0.102642	-0.877452
H220	H	2.205137	0.602642	-0.377452
H221	H	1.776603	0.019246	-0.921318
H222	H	2.276603	0.519246	-0.421318
H223	H	1.850483	0.053527	-0.835034
H224	H	2.350483	0.553527	-0.335034
