data_functionalizedCrystal
_audit_creation_method	'MofGen! by Chris Wilmer'
_symmetry_space_group_name_H-M	'P1'
_symmetry_Int_Tables_number	1
_symmetry_cell_setting	triclinic
loop_
_symmetry_equiv_pos_as_xyz
  x,y,z
_cell_length_a	16.974800
_cell_length_b	17.666332
_cell_length_c	16.992695
_cell_angle_alpha	89.993578
_cell_angle_beta	92.978326
_cell_angle_gamma	86.352538
loop_
_atom_site_label
_atom_site_type_symbol
_atom_site_fract_x
_atom_site_fract_y
_atom_site_fract_z
O1	O	1.055459	-0.001733	-0.099873
O2	O	0.826059	0.012327	-0.112614
O3	O	0.939839	0.005347	0.007898
O4	O	0.941679	0.005246	-0.220385
O5	O	0.939818	-0.120548	0.007904
O6	O	0.826037	-0.113569	-0.112608
O7	O	1.055437	-0.127629	-0.099867
Cu8	Cu	0.940735	-0.132094	-0.106237
Cu9	Cu	0.940761	0.016792	-0.106244
O10	O	0.941657	-0.120649	-0.220379
C11	C	0.796559	-0.048813	-0.112128
C12	C	0.708691	-0.043428	-0.110681
C13	C	0.667404	-0.109525	-0.109996
C14	C	0.584843	-0.104468	-0.108623
C15	C	0.543572	-0.033312	-0.107942
C16	C	0.584865	0.032791	-0.108625
C17	C	0.667425	0.027732	-0.109992
C18	C	0.296658	-0.010823	-0.103850
C19	C	0.214093	-0.005770	-0.102485
C20	C	0.214076	-0.143029	-0.102482
C21	C	0.296637	-0.148081	-0.103854
C22	C	0.337923	-0.081979	-0.104532
N23	N	0.459182	-0.028140	-0.106542
N24	N	0.422312	-0.087151	-0.105927
N25	N	0.940723	-0.236813	-0.106231
C26	C	0.991124	-0.279514	-0.052894
C27	C	0.991128	-0.358762	-0.052890
C28	C	0.940740	-0.395306	-0.106237
C29	C	0.890329	-0.352594	-0.159577
C30	C	0.890321	-0.273347	-0.159575
N31	N	0.935060	-0.519373	-0.175624
N32	N	0.935072	-0.594654	-0.175624
C33	C	0.940762	-0.634071	-0.106248
N34	N	0.946453	-0.595364	-0.036869
N35	N	0.946444	-0.520076	-0.036869
C36	C	0.940743	-0.481235	-0.106246
C37	C	0.991170	-0.762702	-0.052903
C38	C	0.991169	-0.841951	-0.052898
C39	C	0.890374	-0.835782	-0.159592
C40	C	0.890371	-0.756535	-0.159590
C41	C	0.940773	-0.720000	-0.106246
C42	C	1.084937	-0.066487	-0.100353
C43	C	1.172805	-0.071867	-0.101800
C44	C	0.937462	-0.057455	0.037111
C45	C	0.930403	-0.057023	0.124147
N46	N	0.940779	0.121510	-0.106244
C47	C	0.944034	-0.057845	-0.249592
C48	C	0.951093	-0.058273	-0.336628
C49	C	0.998518	-0.061198	0.174465
C50	C	0.991880	-0.060784	0.256244
C51	C	0.917126	-0.056200	0.287704
C52	C	0.849006	-0.052022	0.237380
C53	C	0.855645	-0.052430	0.155602
C54	C	0.889612	-0.054503	0.531270
C55	C	0.882978	-0.054097	0.613054
C56	C	1.025853	-0.062858	0.631913
C57	C	1.032485	-0.063271	0.550133
C58	C	0.964365	-0.059089	0.499816
N59	N	0.910340	-0.055779	0.371295
N60	N	0.971152	-0.059504	0.416227
H61	H	0.330235	-0.206024	-0.104405
H62	H	0.822102	-0.050376	0.638665
N63	N	0.835954	-0.227285	-0.217101
H64	H	0.804030	-0.262457	-0.250895
H65	H	0.868406	-0.196381	-0.251748
H66	H	1.032163	-0.249770	-0.009457
N67	N	0.768379	-0.047084	0.271310
H68	H	0.726236	-0.044500	0.227022
H69	H	0.762519	-0.000055	0.304825
N70	N	1.045527	-0.723289	0.004630
H71	H	1.077453	-0.762369	0.038425
H72	H	1.013068	-0.688430	0.039275
H73	H	1.032172	-0.393536	-0.009456
N74	N	0.835976	-0.392003	-0.217112
H75	H	0.843630	-0.448686	-0.209022
H76	H	0.848616	-0.378914	-0.272729
N77	N	0.169546	-0.214321	-0.101749
H78	H	0.110917	-0.200322	-0.101861
H79	H	0.186537	-0.244880	-0.052859
H80	H	1.093357	-0.067004	0.524525
H81	H	0.834143	-0.051098	0.490312
N82	N	1.045547	-0.888013	0.004619
H83	H	1.077480	-0.852841	0.038403
H84	H	1.082386	-0.923130	-0.025401
N85	N	0.782179	-0.047922	0.101327
H86	H	0.733815	-0.044957	0.133664
H87	H	0.781810	-0.094570	0.066989
H88	H	0.701001	-0.167468	-0.110557
H89	H	0.849343	-0.865535	-0.203024
H90	H	0.551232	-0.158291	-0.108052
H91	H	0.180491	0.052177	-0.101933
N92	N	1.065347	-0.065297	0.310516
H93	H	1.065793	-0.018653	0.344859
H94	H	1.113668	-0.068295	0.278121
H95	H	0.849333	-0.721765	-0.203025
H96	H	0.330263	0.043002	-0.104400
H97	H	0.701040	0.081556	-0.110551
H98	H	0.551256	0.090727	-0.108065
H99	H	1.059390	-0.064936	0.148857
N100	N	1.099322	-0.067370	0.686182
H101	H	1.083777	-0.066416	0.742762
H102	H	1.131686	-0.022683	0.676000
