data_functionalizedCrystal
_audit_creation_method	'MofGen! by Chris Wilmer'
_symmetry_space_group_name_H-M	'P1'
_symmetry_Int_Tables_number	1
_symmetry_cell_setting	triclinic
loop_
_symmetry_equiv_pos_as_xyz
  x,y,z
_cell_length_a	17.699083
_cell_length_b	27.732048
_cell_length_c	16.776229
_cell_angle_alpha	89.988391
_cell_angle_beta	89.998886
_cell_angle_gamma	82.962835
loop_
_atom_site_label
_atom_site_type_symbol
_atom_site_fract_x
_atom_site_fract_y
_atom_site_fract_z
O1	O	1.003540	0.061127	-0.066185
O2	O	0.783091	0.069080	-0.066212
O3	O	0.900162	-0.005269	-0.066183
O4	O	0.886469	0.135475	-0.066215
O5	O	0.900147	-0.005273	0.066394
O6	O	0.783076	0.069075	0.066364
O7	O	1.003524	0.061122	0.066391
Zn8	Zn	0.893298	0.065098	0.087427
Zn9	Zn	0.893318	0.065104	-0.087248
O10	O	0.886453	0.135471	0.066362
C11	C	0.754889	0.068792	0.000073
C12	C	0.670878	0.067938	0.000063
C13	C	0.621873	0.111579	0.000053
C14	C	0.542936	0.110772	0.000064
C15	C	0.513007	0.066325	0.000078
C16	C	0.562019	0.022680	0.000090
C17	C	0.640954	0.023487	0.000085
C18	C	0.243685	0.019426	0.000111
C19	C	0.164744	0.018623	0.000113
C20	C	0.145667	0.106712	0.000089
C21	C	0.224602	0.107518	0.000084
C22	C	0.273607	0.063874	0.000100
C23	C	0.359199	0.064749	0.000090
C24	C	0.427418	0.065450	0.000082
C25	C	0.899867	-0.023279	0.000108
C26	C	0.899001	-0.076937	0.000114
C27	C	0.962734	-0.415523	0.000081
C28	C	0.959522	-0.617194	0.000070
O29	O	1.017801	-0.648240	0.000042
N30	N	0.890104	-0.636567	0.000062
C31	C	0.821484	-0.605520	0.000051
O32	O	0.762366	-0.626625	0.000036
C33	C	0.824696	-0.403849	0.000057
C34	C	0.894119	-0.384479	0.000073
C35	C	1.032151	-0.396152	0.000096
C36	C	1.032953	-0.345737	0.000103
C37	C	0.964338	-0.314693	0.000095
C38	C	0.894921	-0.334064	0.000080
C39	C	0.756076	-0.372802	0.000041
C40	C	0.756886	-0.322382	0.000041
C41	C	0.826308	-0.303012	0.000057
C42	C	0.827108	-0.252605	0.000080
N43	N	0.896526	-0.233232	0.000088
C44	C	0.965141	-0.264276	0.000095
C45	C	0.819802	-0.711400	0.000050
C46	C	0.818999	-0.761817	0.000050
C47	C	0.957038	-0.773488	0.000067
C48	C	0.957840	-0.723070	0.000072
C49	C	0.889220	-0.692026	0.000058
C50	C	0.966820	-0.158401	0.000111
C51	C	0.967616	-0.107981	0.000122
C52	C	0.829578	-0.096314	0.000101
C53	C	0.828781	-0.146730	0.000095
C54	C	0.897409	-0.177772	0.000097
O55	O	0.768860	-0.221531	0.000099
O56	O	1.024251	-0.243161	0.000093
C57	C	0.961931	-0.465938	0.000074
C58	C	0.892514	-0.485309	0.000059
C59	C	0.823899	-0.454265	0.000051
C60	C	0.891711	-0.535726	0.000059
C61	C	0.960326	-0.566770	0.000067
C62	C	1.029744	-0.547397	0.000074
C63	C	1.030546	-0.496982	0.000082
C64	C	0.754481	-0.473638	0.000043
C65	C	0.753685	-0.524053	0.000037
C66	C	0.822300	-0.555097	0.000045
C67	C	1.031726	0.061410	0.000105
C68	C	1.115737	0.062264	0.000109
C69	C	0.886748	0.153481	0.000069
C70	C	0.887614	0.207139	0.000058
N71	N	0.893289	0.065094	0.206638
N72	N	0.893332	0.065105	-0.206459
C73	C	0.945144	0.032186	0.248368
C74	C	0.945148	0.032185	0.331821
C75	C	0.893301	0.065095	0.373541
C76	C	0.841441	0.098005	0.331805
C77	C	0.841433	0.098003	0.248354
C78	C	0.841468	0.098015	0.668352
C79	C	0.841481	0.098015	0.751809
C80	C	0.945182	0.032197	0.751819
C81	C	0.945175	0.032195	0.668368
C82	C	0.893313	0.065102	0.626639
C83	C	0.893308	0.065102	0.536151
C84	C	0.893309	0.065099	0.464028
H85	H	1.022703	-0.183670	0.000110
H86	H	0.799257	0.124816	0.785776
H87	H	0.248965	0.143712	0.000069
C88	C	0.785112	0.133659	0.377203
C89	C	0.739106	0.107947	0.425147
C90	C	0.687216	0.140777	0.466986
H91	H	0.754152	0.153272	0.340490
H92	H	0.812084	0.153753	0.409791
H93	H	0.712136	0.087862	0.392562
H94	H	0.770045	0.088337	0.461875
H95	H	0.714188	0.160871	0.499573
H96	H	0.656261	0.160388	0.430267
H97	H	0.655999	0.123336	0.499526
C98	C	0.529572	-0.025593	0.000268
C99	C	0.554514	-0.051967	0.068491
C100	C	0.524634	-0.096437	0.068684
H101	H	0.546410	-0.043614	-0.045906
H102	H	0.475540	-0.019845	0.000310
H103	H	0.608535	-0.057717	0.068443
H104	H	0.537677	-0.033961	0.114677
H105	H	0.470601	-0.090689	0.068725
H106	H	0.541473	-0.114454	0.022507
H107	H	0.541546	-0.114336	0.114976
H108	H	0.105758	0.142249	0.000080
H109	H	0.987371	0.005389	0.365797
C110	C	0.694128	-0.023910	-0.000073
C111	C	0.680696	-0.050672	-0.068283
C112	C	0.729672	-0.094334	-0.068458
H113	H	0.685159	-0.042199	0.046110
H114	H	0.745436	-0.017084	-0.000119
H115	H	0.629400	-0.057499	-0.068229
H116	H	0.689670	-0.032397	-0.114477
H117	H	0.780980	-0.087508	-0.068505
H118	H	0.720699	-0.112619	-0.022272
H119	H	0.720570	-0.112495	-0.114741
C120	C	1.043072	-0.087045	0.000095
C121	C	1.102987	-0.125027	0.000076
C122	C	1.172505	-0.105761	0.000038
H123	H	1.046361	-0.067635	0.046317
H124	H	1.046301	-0.067627	-0.046154
H125	H	1.099760	-0.144437	0.046319
H126	H	1.099724	-0.144441	-0.046143
H127	H	1.175734	-0.086343	-0.046211
H128	H	1.175786	-0.086351	0.046261
H129	H	1.213166	-0.131529	0.000018
C130	C	0.785049	0.133656	0.203002
C131	C	0.739006	0.107941	0.155127
C132	C	0.687046	0.140768	0.113347
H133	H	0.811944	0.153768	0.170370
H134	H	0.754129	0.153250	0.239775
H135	H	0.769923	0.088355	0.118359
H136	H	0.712095	0.087831	0.187740
H137	H	0.656126	0.160362	0.150119
H138	H	0.713947	0.160878	0.080719
H139	H	0.655796	0.123326	0.080864
H140	H	1.085613	-0.572682	0.000084
C141	C	1.108406	-0.324805	0.000072
C142	C	1.168315	-0.362790	0.000055
C143	C	1.237837	-0.343530	0.000014
H144	H	1.111699	-0.305393	0.046292
H145	H	1.111638	-0.305389	-0.046178
H146	H	1.165085	-0.382198	0.046301
H147	H	1.165047	-0.382205	-0.046161
H148	H	1.241069	-0.324114	-0.046237
H149	H	1.241123	-0.324119	0.046235
H150	H	1.278494	-0.369300	-0.000005
H151	H	0.762468	-0.777584	0.000051
H152	H	0.140380	-0.017574	0.000126
H153	H	0.799241	0.124810	0.634383
H154	H	0.283576	-0.016112	0.000125
C155	C	0.678227	-0.544986	-0.000021
C156	C	0.618314	-0.507003	-0.000049
C157	C	0.548795	-0.526266	-0.000121
H158	H	0.674922	-0.564413	0.046193
H159	H	0.675010	-0.564388	-0.046278
H160	H	0.621529	-0.487609	0.046203
H161	H	0.621594	-0.487573	-0.046260
H162	H	0.545578	-0.545667	-0.046378
H163	H	0.545497	-0.545692	0.046094
H164	H	0.508136	-0.500497	-0.000147
H165	H	0.698605	-0.448366	0.000035
H166	H	0.503039	0.146309	0.000055
H167	H	0.987367	0.005388	0.214405
H168	H	1.088028	-0.421424	0.000099
H169	H	0.987409	0.005400	0.785803
C170	C	1.033292	-0.702135	0.000039
C171	C	1.093204	-0.740119	0.000028
C172	C	1.162724	-0.720856	-0.000017
H173	H	1.036583	-0.682721	0.046257
H174	H	1.036522	-0.682721	-0.046214
H175	H	1.089975	-0.759525	0.046276
H176	H	1.089938	-0.759536	-0.046187
H177	H	1.165954	-0.701442	-0.046270
H178	H	1.166007	-0.701442	0.046202
H179	H	1.203383	-0.746625	-0.000032
H180	H	1.012907	-0.798773	0.000073
C181	C	1.001379	-0.003657	0.623192
C182	C	0.989579	-0.051119	0.643591
C183	C	1.041332	-0.084178	0.602020
H184	H	1.051864	0.001473	0.636848
H185	H	0.993994	0.000979	0.567493
H186	H	0.996971	-0.055752	0.699278
H187	H	0.939105	-0.056264	0.629933
H188	H	1.033946	-0.079543	0.546320
H189	H	1.091813	-0.079044	0.615679
H190	H	1.033328	-0.116385	0.615849
C191	C	0.745214	-0.677779	0.000084
C192	C	0.684257	-0.705543	0.000101
C193	C	0.615535	-0.674592	0.000147
H194	H	0.742545	-0.657851	-0.046135
H195	H	0.742609	-0.657882	0.046336
H196	H	0.686860	-0.725432	-0.046147
H197	H	0.686900	-0.725470	0.046316
H198	H	0.612931	-0.654695	0.046399
H199	H	0.612874	-0.654665	-0.046072
H200	H	0.574168	-0.693425	0.000166
C201	C	0.680623	-0.393730	-0.000021
C202	C	0.620715	-0.355743	-0.000054
C203	C	0.551192	-0.375002	-0.000124
H204	H	0.677314	-0.413154	0.046195
H205	H	0.677404	-0.413134	-0.046275
H206	H	0.623932	-0.336348	0.046196
H207	H	0.623999	-0.336316	-0.046267
H208	H	0.547973	-0.394405	-0.046378
H209	H	0.547891	-0.394426	0.046094
H210	H	0.510536	-0.349231	-0.000153
C211	C	0.654257	0.159873	-0.000088
C212	C	0.629279	0.186257	-0.068290
C213	C	0.659085	0.230752	-0.068439
H214	H	0.708283	0.154174	-0.000132
H215	H	0.637380	0.177862	0.046118
H216	H	0.646161	0.168271	-0.114483
H217	H	0.575257	0.191968	-0.068260
H218	H	0.642207	0.248741	-0.022233
H219	H	0.713110	0.225048	-0.068481
H220	H	0.642135	0.248660	-0.114709
H221	H	0.701006	-0.297108	0.000028
H222	H	0.772252	-0.162502	0.000104
C223	C	1.106000	-0.476049	0.000052
C224	C	1.165909	-0.514035	0.000036
C225	C	1.235431	-0.494775	-0.000005
H226	H	1.109292	-0.456638	0.046272
H227	H	1.109232	-0.456633	-0.046198
H228	H	1.162678	-0.533443	0.046281
H229	H	1.162642	-0.533449	-0.046182
H230	H	1.238664	-0.475358	-0.046255
H231	H	1.238716	-0.475364	0.046217
H232	H	1.276088	-0.520545	-0.000023
H233	H	0.773714	-0.071029	0.000098
