data_functionalizedCrystal
_audit_creation_method	'MofGen! by Chris Wilmer'
_symmetry_space_group_name_H-M	'P1'
_symmetry_Int_Tables_number	1
_symmetry_cell_setting	triclinic
loop_
_symmetry_equiv_pos_as_xyz
  x,y,z
_cell_length_a	11.792241
_cell_length_b	15.944551
_cell_length_c	10.868271
_cell_angle_alpha	89.993912
_cell_angle_beta	89.999893
_cell_angle_gamma	83.846077
loop_
_atom_site_label
_atom_site_type_symbol
_atom_site_fract_x
_atom_site_fract_y
_atom_site_fract_z
O1	O	1.505960	0.115128	-0.102206
O2	O	1.839293	0.448461	0.231128
O3	O	2.172626	0.781795	0.564461
O4	O	1.175521	0.126993	-0.102235
O5	O	1.508854	0.460327	0.231099
O6	O	1.842188	0.793660	0.564432
O7	O	1.349764	-0.001173	-0.102208
O8	O	1.683097	0.332160	0.231125
O9	O	2.016431	0.665493	0.564458
O10	O	1.331717	0.243295	-0.102232
O11	O	1.665050	0.576628	0.231101
O12	O	1.998384	0.909961	0.564435
O13	O	1.349750	-0.001178	0.102436
O14	O	1.683083	0.332155	0.435770
O15	O	2.016416	0.665488	0.769103
O16	O	1.175507	0.126988	0.102410
O17	O	1.508840	0.460322	0.435743
O18	O	1.842173	0.793655	0.769077
O19	O	1.505946	0.115123	0.102439
O20	O	1.839279	0.448456	0.435772
O21	O	2.172612	0.781790	0.769106
Zn22	Zn	1.340724	0.121055	0.134916
Zn23	Zn	1.674057	0.454388	0.468250
Zn24	Zn	2.007391	0.787722	0.801583
Zn25	Zn	1.340743	0.121062	-0.134712
Zn26	Zn	1.674076	0.454395	0.198621
Zn27	Zn	2.007409	0.787728	0.531955
O28	O	1.331703	0.243290	0.102413
O29	O	1.665036	0.576623	0.435746
O30	O	1.998369	0.909956	0.769079
C31	C	1.133229	0.126245	0.000084
C32	C	1.466562	0.459579	0.333417
C33	C	1.799896	0.792912	0.666751
C34	C	1.007234	0.124015	0.000073
C35	C	1.340567	0.457348	0.333407
C36	C	1.673900	0.790681	0.666740
C37	C	1.349008	-0.032473	0.000114
C38	C	1.682341	0.300860	0.333448
C39	C	2.015674	0.634193	0.666781
C40	C	1.346761	-0.125729	0.000115
C41	C	1.680095	0.207604	0.333448
C42	C	2.013428	0.540937	0.666781
C43	C	0.776555	0.119913	0.000109
C44	C	1.109889	0.453246	0.333442
C45	C	1.443222	0.786579	0.666776
C46	C	0.904922	0.122192	0.000090
C47	C	1.238255	0.455525	0.333423
C48	C	1.571588	0.788858	0.666756
C49	C	1.233389	-0.341098	0.000088
C50	C	1.566722	-0.007764	0.333421
C51	C	1.900055	0.325569	0.666754
C52	C	1.286028	-0.401880	0.100995
C53	C	1.619362	-0.068547	0.434328
C54	C	1.952695	0.264787	0.767661
C55	C	1.342698	-0.296474	0.000105
C56	C	1.676031	0.036860	0.333438
C57	C	2.009365	0.370193	0.666772
C58	C	1.286068	-0.401858	-0.100769
C59	C	1.619401	-0.068525	0.232564
C60	C	1.952735	0.264808	0.565898
C61	C	1.338765	-0.461404	0.000090
C62	C	1.672098	-0.128071	0.333423
C63	C	2.005432	0.205263	0.666757
C64	C	1.395368	-0.356028	0.101095
C65	C	1.728701	-0.022694	0.434428
C66	C	2.062034	0.310639	0.767762
C67	C	1.395392	-0.356000	-0.100759
C68	C	1.728725	-0.022666	0.232574
C69	C	2.062059	0.310667	0.565907
C70	C	1.448111	-0.416764	0.000172
C71	C	1.781444	-0.083430	0.333506
C72	C	2.114778	0.249903	0.666839
C73	C	1.344961	-0.201461	0.000114
C74	C	1.678294	0.131872	0.333448
C75	C	2.011627	0.465206	0.666781
C76	C	1.336511	-0.556415	0.000089
C77	C	1.669844	-0.223082	0.333423
C78	C	2.003177	0.110251	0.666756
C79	C	1.548237	0.115871	0.000118
C80	C	1.881571	0.449204	0.333451
C81	C	2.214904	0.782538	0.666784
C82	C	1.674233	0.118102	0.000120
C83	C	2.007566	0.451435	0.333454
C84	C	2.340899	0.784768	0.666787
C85	C	1.332459	0.274590	0.000087
C86	C	1.665792	0.607923	0.333421
C87	C	1.999126	0.941256	0.666754
C88	C	1.334705	0.367846	0.000079
C89	C	1.668038	0.701179	0.333412
C90	C	2.001372	1.034512	0.666746
N91	N	1.340719	0.121050	0.318930
N92	N	1.674053	0.454383	0.652264
N93	N	2.007386	0.787716	0.985597
N94	N	1.340756	0.121060	-0.318726
N95	N	1.674090	0.454393	0.014607
N96	N	2.007423	0.787727	0.347941
C97	C	1.340737	0.121060	0.569936
C98	C	1.674070	0.454393	0.903270
C99	C	2.007403	0.787726	1.236603
C100	C	1.340723	0.121057	0.430259
C101	C	1.674057	0.454390	0.763592
C102	C	2.007390	0.787723	1.096926
H103	H	1.142657	-0.308200	0.000181
H104	H	1.475990	0.025134	0.333514
H105	H	1.809324	0.358467	0.666847
C106	C	1.223593	-0.429272	-0.216015
C107	C	1.556926	-0.095939	0.117319
C108	C	1.890260	0.237394	0.450652
N109	N	1.176529	-0.449916	-0.302814
N110	N	1.509863	-0.116583	0.030520
N111	N	1.843196	0.216750	0.363853
H112	H	1.538922	-0.449513	0.000237
H113	H	1.872256	-0.116179	0.333570
H114	H	2.205589	0.217154	0.666904
H115	H	1.239789	-0.422199	0.186295
H116	H	1.573122	-0.088866	0.519629
H117	H	1.906455	0.244468	0.852962
C118	C	1.457762	-0.328745	0.216474
C119	C	1.791096	0.004588	0.549807
C120	C	2.124429	0.337922	0.883141
N121	N	1.504752	-0.308193	0.303379
N122	N	1.838085	0.025140	0.636712
N123	N	2.171419	0.358473	0.970045
H124	H	1.441592	-0.335659	-0.186064
H125	H	1.774925	-0.002325	0.147269
H126	H	2.108258	0.331008	0.480602
