data_functionalizedCrystal
_audit_creation_method	'MofGen! by Chris Wilmer'
_symmetry_space_group_name_H-M	'P1'
_symmetry_Int_Tables_number	1
_symmetry_cell_setting	triclinic
loop_
_symmetry_equiv_pos_as_xyz
  x,y,z
_cell_length_a	23.196402
_cell_length_b	18.426585
_cell_length_c	23.196402
_cell_angle_alpha	89.999462
_cell_angle_beta	59.999836
_cell_angle_gamma	59.999898
loop_
_atom_site_label
_atom_site_type_symbol
_atom_site_fract_x
_atom_site_fract_y
_atom_site_fract_z
Zr1	Zr	0.631047	0.699093	-0.075656
O2	O	0.751316	0.583212	-0.167704
O3	O	0.510777	0.734619	-0.047440
O4	O	0.631052	0.734613	-0.167710
O5	O	0.631038	0.583219	0.047438
O6	O	0.631056	0.854039	-0.167712
O7	O	0.631041	0.583217	-0.047435
O8	O	0.415907	0.854049	0.047428
O9	O	0.846187	0.583209	-0.167702
O10	O	0.560249	0.838894	-0.035406
O11	O	0.560243	0.749769	0.035398
O12	O	0.701850	0.749763	-0.106204
O13	O	0.701844	0.660638	-0.035400
Zr14	Zr	0.631047	0.889566	0.075651
Zr15	Zr	0.631053	0.889563	-0.075660
Zr16	Zr	0.631040	0.699096	0.075654
Zr17	Zr	0.782354	0.699089	-0.075653
Zr18	Zr	0.479739	0.889570	0.075647
O19	O	0.751316	0.854040	0.047435
O20	O	0.751325	0.854036	-0.167710
O21	O	0.751307	0.583216	0.047440
O22	O	0.510777	1.005448	0.167699
O23	O	0.510786	1.005443	-0.047446
O24	O	0.510768	0.734623	0.167704
O25	O	0.631056	1.005440	-0.047443
O26	O	0.631042	0.854046	0.167704
O27	O	0.631038	0.734620	0.167707
O28	O	0.631052	1.005442	0.047429
O29	O	0.846192	0.734608	-0.167705
O30	O	0.415902	0.854051	0.167700
O31	O	0.415907	1.005450	0.167697
O32	O	0.415912	1.005448	0.047425
O33	O	0.846182	0.583212	-0.047430
O34	O	0.846187	0.734610	-0.047434
O35	O	0.560243	0.838897	0.106198
O36	O	0.560249	0.928021	0.035394
O37	O	0.701850	0.838890	-0.035403
O38	O	0.701845	0.749765	0.035401
C39	C	0.441784	0.794335	-0.000007
C40	C	0.377550	0.794336	-0.000008
C41	C	-0.085290	0.840854	-0.036950
C42	C	-0.024932	0.840852	-0.036956
C43	C	0.005247	0.794331	0.000003
C44	C	-0.024923	0.747790	0.036957
C45	C	-0.085275	0.747786	0.036956
C46	C	0.067272	0.800979	0.061909
C47	C	0.127619	0.800989	0.061912
C48	C	0.191396	0.794337	0.000004
C49	C	0.194809	0.787693	-0.061906
C50	C	0.134457	0.787689	-0.061907
C51	C	0.070689	0.794329	0.000008
C52	C	0.287010	0.840867	-0.036958
C53	C	0.347374	0.840859	-0.036967
C54	C	0.347376	0.747803	0.036953
C55	C	0.287019	0.747806	0.036954
C56	C	0.256837	0.794343	0.000000
C57	C	0.631039	0.556080	0.000002
C58	C	0.631036	0.475220	0.000004
C59	C	0.631060	0.179106	-0.000009
C60	C	0.631057	0.261492	-0.000007
C61	C	0.631048	0.327160	-0.000003
C62	C	0.631045	0.409552	-0.000000
C63	C	0.820309	0.794325	0.000001
C64	C	0.884544	0.794323	0.000002
C65	C	0.631054	0.794326	-0.189270
C66	C	0.631057	0.794325	-0.253505
C67	C	0.631055	1.032579	-0.000008
C68	C	0.631057	1.113439	-0.000009
C69	C	0.704950	0.747818	-0.753286
C70	C	0.704955	0.747811	-0.692934
C71	C	0.631041	0.794337	-0.625796
C72	C	0.557117	0.840855	-0.619013
C73	C	0.557115	0.840854	-0.679365
C74	C	0.574417	0.872268	-0.501866
C75	C	0.574422	0.872271	-0.441516
C76	C	0.631046	0.794338	-0.439647
C77	C	0.687677	0.716403	-0.498143
C78	C	0.687675	0.716402	-0.558495
C79	C	0.631036	0.794342	-0.560350
C80	C	0.704970	0.747810	-0.380994
C81	C	0.704972	0.747799	-0.320639
C82	C	0.557132	0.840853	-0.246718
C83	C	0.557132	0.840854	-0.307073
C84	C	0.631054	0.794335	-0.374209
C85	C	0.631039	0.794333	0.189264
C86	C	0.631036	0.794335	0.253499
C87	C	0.441792	1.032584	-0.000012
C88	C	0.377560	1.113445	-0.000015
C89	C	0.441776	0.794338	0.189260
C90	C	0.377539	0.794341	0.253494
C91	C	0.441784	1.032588	0.189255
C92	C	0.377550	1.113450	0.253488
C93	C	0.820309	0.556072	-0.189261
C94	C	0.884543	0.475209	-0.253493
C95	C	0.820301	0.556075	0.000006
C96	C	0.884533	0.475214	0.000009
C97	C	0.820317	0.794321	-0.189266
C98	C	0.884554	0.794318	-0.253500
C99	C	0.347397	1.104895	-0.036980
C100	C	0.287053	1.180866	-0.036996
C101	C	0.256870	1.265386	-0.000044
C102	C	0.287039	1.273934	0.036922
C103	C	0.347386	1.197965	0.036934
C104	C	0.347373	0.840866	0.320623
C105	C	0.287024	0.840866	0.380983
C106	C	0.256839	0.794345	0.374214
C107	C	0.287011	0.747814	0.307078
C108	C	0.347362	0.747810	0.246719
C109	C	0.347388	1.197955	0.246693
C110	C	0.287042	1.273941	0.307040
C111	C	0.256854	1.265421	0.374182
C112	C	0.287022	1.180908	0.380975
C113	C	0.347371	1.104924	0.320628
C114	C	0.914713	0.390705	-0.246699
C115	C	0.975078	0.314718	-0.307046
C116	C	1.005268	0.323238	-0.374188
C117	C	0.975096	0.407751	-0.380981
C118	C	0.914737	0.483736	-0.320634
C119	C	0.914703	0.483764	0.036967
C120	C	0.975063	0.407794	0.036968
C121	C	1.005249	0.323274	0.000013
C122	C	0.975076	0.314725	-0.036950
C123	C	0.914721	0.390695	-0.036954
C124	C	0.914721	0.840848	-0.246708
C125	C	0.975070	0.840863	-0.307057
C126	C	1.005256	0.794342	-0.374197
C127	C	0.975083	0.747810	-0.380988
C128	C	0.914731	0.747801	-0.320640
H129	H	0.262438	0.878758	-0.067051
O130	O	1.004297	0.702606	-0.446157
C131	C	0.964751	0.661509	-0.439223
H132	H	0.903569	0.697990	-0.385372
H133	H	0.954367	0.664011	-0.482519
H134	H	1.004337	0.589297	-0.444170
H135	H	1.054417	0.261360	-0.423320
O136	O	0.257681	1.172708	-0.072888
C137	C	0.197931	1.257878	-0.064968
H138	H	0.207841	1.308247	-0.051373
H139	H	0.202837	1.257016	-0.116412
H140	H	0.134802	1.277242	-0.020717
H141	H	0.371939	0.878746	-0.067062
H142	H	0.371971	1.036082	-0.067079
H143	H	0.262465	0.878760	0.435642
H144	H	0.207714	1.327300	0.423314
H145	H	0.371958	1.204909	0.192028
H146	H	0.262456	1.342761	0.067007
O147	O	0.885271	0.382459	-0.181468
C148	C	0.800699	0.423630	-0.144334
H149	H	0.784175	0.427133	-0.183492
H150	H	0.783357	0.383335	-0.110964
H151	H	0.766180	0.493710	-0.108520
O152	O	1.004259	0.232696	-0.300312
C153	C	0.964670	0.241480	-0.228109
H154	H	0.903499	0.309284	-0.195939
H155	H	0.954260	0.186997	-0.219691
H156	H	1.004237	0.235263	-0.210312
H157	H	0.262485	1.342748	0.301496
O158	O	0.257575	1.172798	0.446251
C159	C	0.197854	1.257991	0.498050
H160	H	0.171481	1.308339	0.474510
H161	H	0.147062	1.257177	0.544593
H162	H	0.226724	1.277345	0.516932
H163	H	0.371938	1.204939	0.067040
H164	H	0.999685	0.414678	-0.435655
O165	O	0.485311	0.886190	-0.300450
C166	C	0.440333	0.977004	-0.263205
H167	H	0.483582	0.993476	-0.268239
H168	H	0.406805	1.019089	-0.286133
H169	H	0.394243	0.991882	-0.205128
O170	O	1.063981	0.249457	-0.000102
C171	C	1.133804	0.198538	-0.070031
H172	H	1.133728	0.243133	-0.104095
H173	H	1.190843	0.167778	-0.070768
H174	H	1.133302	0.143528	-0.091775
H175	H	-0.000346	0.709910	0.067048
H176	H	0.371921	1.036119	0.326171
O177	O	0.885576	0.565770	-0.327337
C178	C	0.949989	0.575500	-0.364559
H179	H	1.010362	0.507100	-0.397846
H180	H	0.940909	0.615432	-0.400458
H181	H	0.950782	0.611836	-0.325471
H182	H	0.999662	0.245899	-0.067038
O183	O	0.885502	0.565795	0.072880
C184	C	0.925071	0.557032	0.105510
H185	H	0.986245	0.489233	0.076519
H186	H	0.935471	0.611523	0.103520
H187	H	0.885493	0.563254	0.162874
O188	O	1.004342	0.416000	0.072936
C189	C	0.989575	0.374856	0.124818
H190	H	0.982084	0.323060	0.109275
H191	H	1.043172	0.341142	0.129308
H192	H	0.931528	0.427092	0.177825
H193	H	0.371943	0.878749	0.326148
O194	O	1.063909	0.794412	-0.432743
C195	C	1.084042	0.845477	-0.412342
H196	H	1.067404	0.848966	-0.356631
H197	H	1.152256	0.813270	-0.450464
H198	H	1.048749	0.915486	-0.413435
H199	H	0.890176	0.709907	-0.326180
O200	O	0.257668	0.702696	0.300414
C201	C	0.222732	0.736933	0.263204
H202	H	0.250008	0.770990	0.229884
H203	H	0.235946	0.680320	0.227337
H204	H	0.153994	0.787170	0.302301
O205	O	0.885334	0.382335	-0.072759
C206	C	0.850454	0.335436	-0.045585
H207	H	0.832336	0.341789	0.010750
H208	H	0.794096	0.364277	-0.045681
H209	H	0.896722	0.262323	-0.079849
H210	H	0.371951	0.709920	0.067042
H211	H	0.733785	0.652944	-0.606120
O212	O	0.885468	0.886122	-0.181545
C213	C	0.925056	0.927173	-0.188506
H214	H	0.949927	0.936380	-0.242365
H215	H	0.879779	0.994759	-0.145222
H216	H	0.977474	0.883578	-0.183558
H217	H	-0.109861	0.878744	-0.067042
H218	H	-0.000366	0.878743	-0.067048
H219	H	0.137242	0.782277	-0.112316
H220	H	0.207696	0.794355	0.423368
H221	H	0.999630	0.878753	-0.301514
O222	O	0.198166	1.339243	0.000075
C223	C	0.128328	1.390137	0.070001
H224	H	0.146545	1.373540	0.108144
H225	H	0.099108	1.463839	0.076995
H226	H	0.082859	1.374189	0.081407
H227	H	0.246739	0.782274	-0.112318
H228	H	0.262454	0.709920	0.067048
H229	H	0.124829	0.806407	0.112324
H230	H	0.015347	0.806391	0.112325
O231	O	0.485369	0.885921	-0.553761
C232	C	0.480941	0.826189	-0.516643
H233	H	0.545120	0.764956	-0.539691
H234	H	0.449657	0.859940	-0.458561
H235	H	0.444467	0.805369	-0.521664
H236	H	0.765143	0.709937	-0.807947
O237	O	-0.114649	0.702603	0.072796
C238	C	-0.174406	0.712600	0.064888
H239	H	-0.164498	0.729735	0.014974
H240	H	-0.169509	0.647845	0.060656
H241	H	-0.237532	0.768302	0.112641
O242	O	0.776810	0.702498	-0.699607
C243	C	0.821781	0.611675	-0.736823
H244	H	0.800770	0.604050	-0.770138
H245	H	0.889399	0.583182	-0.772695
H246	H	0.811538	0.574350	-0.697731
H247	H	0.733786	0.652943	-0.496625
H248	H	0.765161	0.709926	-0.435660
H249	H	0.765164	0.709915	-0.326171
O250	O	0.376641	0.702752	0.181474
C251	C	0.361865	0.762487	0.144362
H252	H	0.354367	0.823716	0.167397
H253	H	0.415461	0.728734	0.086274
H254	H	0.303820	0.783313	0.149402
H255	H	0.496950	0.878729	-0.192055
O256	O	0.519510	0.947973	-0.384709
C257	C	0.561231	0.972127	-0.370636
H258	H	0.624904	0.941567	-0.420664
H259	H	0.526262	1.047597	-0.352448
H260	H	0.566262	0.946752	-0.327418
O261	O	0.519289	0.947987	-0.503562
C262	C	0.439710	0.975884	-0.449031
H263	H	0.440770	0.947248	-0.405731
H264	H	0.398038	1.051559	-0.426148
H265	H	0.415970	0.951403	-0.471117
O266	O	0.485239	0.886124	-0.672650
C267	C	0.419996	0.927169	-0.600454
H268	H	0.441663	0.936381	-0.568264
H269	H	0.368299	0.994751	-0.592044
H270	H	0.397270	0.883565	-0.582673
