data_functionalizedCrystal
_audit_creation_method	'MofGen! by Chris Wilmer'
_symmetry_space_group_name_H-M	'P1'
_symmetry_Int_Tables_number	1
_symmetry_cell_setting	triclinic
loop_
_symmetry_equiv_pos_as_xyz
  x,y,z
_cell_length_a	14.044191
_cell_length_b	19.188924
_cell_length_c	13.101039
_cell_angle_alpha	93.348752
_cell_angle_beta	86.337551
_cell_angle_gamma	88.166870
loop_
_atom_site_label
_atom_site_type_symbol
_atom_site_fract_x
_atom_site_fract_y
_atom_site_fract_z
O1	O	1.262232	0.164780	-0.085173
O2	O	0.986288	0.158702	-0.085186
O3	O	1.132226	0.060600	-0.085167
O4	O	1.116294	0.262883	-0.085192
O5	O	1.121755	0.067652	0.085261
O6	O	0.975817	0.165754	0.085242
O7	O	1.251761	0.171832	0.085255
Zn8	Zn	1.112127	0.169912	0.112308
Zn9	Zn	1.125922	0.160622	-0.112239
O10	O	1.105823	0.269934	0.085236
C11	C	0.945750	0.159569	0.000027
C12	C	0.840557	0.151638	0.000022
C13	C	0.590096	0.193386	0.000027
C14	C	0.647959	0.137151	0.000033
C15	C	0.755130	0.145213	0.000027
C16	C	0.482915	0.185325	0.000033
C17	C	1.126475	0.038081	0.000048
C18	C	1.124930	-0.039523	0.000051
C19	C	1.129916	-0.079812	-0.092850
C20	C	1.128451	-0.152730	-0.092858
C21	C	1.122018	-0.185356	0.000040
C22	C	1.117026	-0.145057	0.092953
C23	C	1.118481	-0.072141	0.092958
N24	N	1.169410	-0.298825	0.069185
N25	N	1.168029	-0.368093	0.069173
C26	C	1.117629	-0.405049	0.000030
N27	N	1.068674	-0.370121	-0.069117
N28	N	1.070060	-0.300847	-0.069109
C29	C	1.120438	-0.264421	0.000045
C30	C	1.121026	-0.524404	-0.092886
C31	C	1.119554	-0.597322	-0.092890
C32	C	1.108139	-0.589649	0.092924
C33	C	1.109601	-0.516731	0.092926
C34	C	1.116049	-0.484113	0.000018
C35	C	1.292300	0.170965	0.000040
C36	C	1.397493	0.178896	0.000038
C37	C	1.111574	0.292452	0.000019
C38	C	1.113120	0.370057	0.000010
N39	N	1.102718	0.176253	0.265555
N40	N	1.135338	0.154276	-0.265486
C41	C	1.089918	0.184886	0.474596
C42	C	1.148136	0.145645	0.525479
C43	C	1.141013	0.150449	0.641797
C44	C	1.097039	0.180083	0.358268
H45	H	0.621043	0.247582	0.000018
H46	H	1.034731	0.222086	0.518386
C47	C	0.606160	0.063926	0.000034
C48	C	0.535905	0.045239	0.088530
C49	C	0.494102	-0.027983	0.088526
C50	C	0.522555	-0.082518	0.000025
C51	C	0.592814	-0.063832	-0.088478
C52	C	0.634617	0.009390	-0.088474
H53	H	0.514839	0.085610	0.154050
H54	H	0.442092	-0.041816	0.154043
H55	H	0.491610	-0.136721	0.000022
H56	H	0.613880	-0.104202	-0.153998
H57	H	0.686627	0.023223	-0.153990
C58	C	1.222704	0.095391	0.466322
C59	C	1.229770	0.090560	0.348322
C60	C	1.304337	0.040311	0.289158
C61	C	1.371838	-0.005107	0.347995
C62	C	1.364775	-0.000277	0.466002
C63	C	1.290207	0.049972	0.525165
H64	H	1.179799	0.124182	0.304761
H65	H	1.309566	0.036735	0.201802
H66	H	1.427038	-0.042304	0.304199
H67	H	1.414745	-0.033899	0.509562
H68	H	1.284979	0.053548	0.612522
H69	H	1.135164	-0.053259	-0.168503
H70	H	1.132506	-0.185539	-0.168512
H71	H	1.105548	-0.483927	0.168576
C72	C	1.109949	-0.180945	0.195141
C73	C	1.025112	-0.227218	0.220676
C74	C	1.018030	-0.263105	0.322867
C75	C	1.095785	-0.252719	0.399523
C76	C	1.180628	-0.206444	0.373990
C77	C	1.187710	-0.170557	0.271799
H78	H	0.967548	-0.234907	0.163929
H79	H	0.955223	-0.297361	0.341768
H80	H	1.090542	-0.279285	0.475171
H81	H	1.238192	-0.198755	0.430737
H82	H	1.250517	-0.136301	0.252898
C83	C	1.113004	-0.027819	0.195156
C84	C	1.030170	0.026172	0.220707
C85	C	1.024695	0.070496	0.322906
C86	C	1.102054	0.060828	0.399554
C87	C	1.184894	0.006835	0.374005
C88	C	1.190369	-0.037489	0.271806
H89	H	0.972898	0.033331	0.163966
H90	H	0.963371	0.110465	0.341818
H91	H	1.098001	0.093639	0.475207
H92	H	1.242165	-0.000324	0.430746
H93	H	1.251693	-0.077458	0.252894
C94	C	1.128111	-0.488518	-0.195080
C95	C	1.133583	-0.532839	-0.297274
C96	C	1.140669	-0.496956	-0.399468
C97	C	1.142283	-0.416751	-0.399467
C98	C	1.136810	-0.372425	-0.297269
C99	C	1.129724	-0.408309	-0.195075
H100	H	1.132389	-0.592216	-0.297278
H101	H	1.144721	-0.529769	-0.475122
H102	H	1.147529	-0.390188	-0.475118
H103	H	1.138005	-0.313049	-0.297265
H104	H	1.125673	-0.375495	-0.119421
H105	H	1.102894	-0.616212	0.168564
C106	C	1.125040	-0.641642	-0.195090
C107	C	1.212227	-0.637587	-0.271718
C108	C	1.217714	-0.681907	-0.373920
C109	C	1.136014	-0.730281	-0.399495
C110	C	1.048820	-0.734337	-0.322866
C111	C	1.043333	-0.690018	-0.220663
H112	H	1.272712	-0.601776	-0.252787
H113	H	1.282261	-0.678903	-0.430647
H114	H	1.140076	-0.763089	-0.475152
H115	H	0.988335	-0.770148	-0.341796
H116	H	0.978786	-0.693021	-0.163937
