data_functionalizedCrystal
_audit_creation_method	'MofGen! by Chris Wilmer'
_symmetry_space_group_name_H-M	'P1'
_symmetry_Int_Tables_number	1
_symmetry_cell_setting	triclinic
loop_
_symmetry_equiv_pos_as_xyz
  x,y,z
_cell_length_a	12.759401
_cell_length_b	10.686285
_cell_length_c	12.759393
_cell_angle_alpha	85.601997
_cell_angle_beta	89.981504
_cell_angle_gamma	85.631983
loop_
_atom_site_label
_atom_site_type_symbol
_atom_site_fract_x
_atom_site_fract_y
_atom_site_fract_z
Zn1	Zn	1.638392	-0.502271	-0.561964
Zn2	Zn	1.651790	-0.713314	-0.372831
Zn3	Zn	1.462698	-0.502337	-0.386299
Zn4	Zn	1.476180	-0.713217	-0.548479
O5	O	1.557265	-0.607785	-0.467393
O6	O	1.787191	-0.530279	-0.536882
O7	O	1.626671	-0.685396	-0.227592
O8	O	1.474756	-0.325751	-0.420881
O9	O	1.797034	-0.685332	-0.397927
O10	O	1.603837	-0.325703	-0.549942
O11	O	1.487747	-0.530392	-0.237487
O12	O	1.317465	-0.530298	-0.407805
O13	O	1.497733	-0.685167	-0.697293
O14	O	1.327370	-0.685231	-0.526958
O15	O	1.616910	-0.530185	-0.707200
O16	O	1.639744	-0.889878	-0.384851
O17	O	1.510724	-0.889807	-0.513898
C18	C	1.284296	-0.607762	-0.467380
C19	C	1.167521	-0.607782	-0.467398
C20	C	1.117852	-0.688585	-0.529321
C21	C	1.008129	-0.688601	-0.529332
C22	C	0.997753	-0.527008	-0.405486
C23	C	1.107474	-0.526986	-0.405482
C24	C	1.123842	-0.781883	-0.600819
C25	C	1.014119	-0.781899	-0.600829
C26	C	1.578179	-0.935627	-0.446473
C27	C	1.587222	-1.075879	-0.437558
C28	C	1.831300	-0.607809	-0.467406
C29	C	1.948077	-0.607819	-0.467412
C30	C	1.557331	-0.607658	-0.741435
C31	C	1.557358	-0.607603	-0.858215
C32	C	1.536298	-0.278662	-0.488418
C33	C	1.527363	-0.138410	-0.497378
C34	C	1.619422	-0.526897	-0.918238
C35	C	1.619445	-0.526851	-1.027965
C36	C	1.495336	-0.688230	-1.017635
C37	C	1.495309	-0.688268	-0.907911
C38	C	1.691079	-0.433730	-0.924202
C39	C	1.691101	-0.433684	-1.033929
C40	C	1.557255	-0.607821	-0.194423
C41	C	1.557407	-0.607519	-0.077666
H42	H	0.977889	-0.747016	-0.680405
H43	H	1.645384	-1.129647	-0.379512
C44	C	0.982300	-0.913878	-0.562774
C45	C	1.067506	-1.020257	-0.532078
C46	C	1.035687	-1.152228	-0.494020
C47	C	0.918661	-1.177822	-0.486659
C48	C	0.833447	-1.071440	-0.517356
C49	C	0.865266	-0.939469	-0.555413
H50	H	1.154143	-1.001314	-0.537526
H51	H	1.098769	-1.230979	-0.471297
H52	H	0.895106	-1.275515	-0.458487
H53	H	0.746810	-1.090383	-0.511907
H54	H	0.802185	-0.860718	-0.578137
C55	C	1.427018	-0.777036	-0.841898
C56	C	1.306931	-0.766690	-0.857663
C57	C	1.238630	-0.855461	-0.791657
C58	C	1.290415	-0.954577	-0.709886
C59	C	1.410508	-0.964927	-0.694118
C60	C	1.478809	-0.876157	-0.760124
H61	H	1.268591	-0.693315	-0.918199
H62	H	1.149729	-0.847799	-0.803331
H63	H	1.239854	-1.020291	-0.661025
H64	H	1.448848	-1.038303	-0.633583
H65	H	1.567710	-0.883819	-0.748450
C66	C	1.427090	-0.776963	-1.072304
C67	C	1.427113	-0.776923	-1.192996
C68	C	1.358865	-0.865659	-1.247662
C69	C	1.290595	-0.954436	-1.181634
C70	C	1.290570	-0.954479	-1.060935
C71	C	1.358817	-0.865743	-1.006269
H72	H	1.477652	-0.711202	-1.241880
H73	H	1.358885	-0.865627	-1.337012
H74	H	1.240075	-1.020124	-1.222101
H75	H	1.240030	-1.020200	-1.012051
H76	H	1.358798	-0.865775	-0.916919
C77	C	1.653218	-0.301724	-0.892407
C78	C	1.554431	-0.284074	-0.824137
C79	C	1.516570	-0.152074	-0.792341
C80	C	1.577496	-0.037723	-0.828814
C81	C	1.676289	-0.055369	-0.897087
C82	C	1.714150	-0.187370	-0.928884
H83	H	1.509325	-0.368727	-0.797134
H84	H	1.443437	-0.139011	-0.741800
H85	H	1.549469	0.059992	-0.805276
H86	H	1.721395	0.029284	-0.924091
H87	H	1.787283	-0.200432	-0.979425
C88	C	0.931701	-0.438138	-0.337379
C89	C	0.947386	-0.448254	-0.217282
C90	C	0.881337	-0.359382	-0.149172
C91	C	0.799603	-0.260393	-0.201160
C92	C	0.783913	-0.250273	-0.321263
C93	C	0.849962	-0.339145	-0.389373
H94	H	1.007894	-0.521535	-0.178791
H95	H	0.892952	-0.366874	-0.060263
H96	H	0.750709	-0.194605	-0.150741
H97	H	0.723405	-0.176992	-0.359753
H98	H	0.838348	-0.331653	-0.478282
C99	C	1.798495	-0.481042	-0.875194
C100	C	1.890565	-0.521546	-0.946248
C101	C	1.997979	-0.568862	-0.897239
C102	C	2.013324	-0.575674	-0.777175
C103	C	1.921251	-0.535169	-0.706114
C104	C	1.813836	-0.487853	-0.755123
H105	H	1.879209	-0.516504	-1.035133
H106	H	2.066138	-0.598847	-0.949844
H107	H	2.092839	-0.610701	-0.740896
H108	H	1.932607	-0.540211	-0.617229
H109	H	1.745678	-0.457869	-0.702518
H110	H	1.147909	-0.461181	-0.355066
H111	H	1.151983	-0.755822	-0.683887
H112	H	1.163793	-0.874665	-0.565620
H113	H	1.469198	-1.084650	-0.555414
H114	H	1.656047	-0.340834	-1.073896
H115	H	1.774146	-0.459858	-1.062039
