data_functionalizedCrystal
_audit_creation_method	'MofGen! by Chris Wilmer'
_symmetry_space_group_name_H-M	'P1'
_symmetry_Int_Tables_number	1
_symmetry_cell_setting	triclinic
loop_
_symmetry_equiv_pos_as_xyz
  x,y,z
_cell_length_a	18.050590
_cell_length_b	18.050589
_cell_length_c	18.050568
_cell_angle_alpha	89.906844
_cell_angle_beta	89.955174
_cell_angle_gamma	90.017386
loop_
_atom_site_label
_atom_site_type_symbol
_atom_site_fract_x
_atom_site_fract_y
_atom_site_fract_z
Zn1	Zn	1.135627	-0.295372	-0.419625
Zn2	Zn	1.135438	-0.419718	-0.295444
Zn3	Zn	1.011347	-0.295523	-0.295483
Zn4	Zn	1.011394	-0.419502	-0.419627
O5	O	1.073451	-0.357529	-0.357545
O6	O	1.239526	-0.311895	-0.403135
O7	O	1.118879	-0.403397	-0.191525
O8	O	1.027892	-0.191578	-0.311966
O9	O	1.239388	-0.403251	-0.311900
O10	O	1.119200	-0.191468	-0.403173
O11	O	1.027710	-0.312151	-0.191553
O12	O	0.907429	-0.311941	-0.311968
O13	O	1.027972	-0.402882	-0.523552
O14	O	0.907463	-0.403028	-0.403176
O15	O	1.119245	-0.311685	-0.523550
O16	O	1.118924	-0.523614	-0.311902
O17	O	1.027789	-0.523455	-0.403139
C18	C	0.880499	-0.357478	-0.357577
C19	C	0.797954	-0.357474	-0.357608
C20	C	0.598543	-0.407149	-0.407089
C21	C	0.549164	-0.339410	-0.425359
C22	C	0.646823	-0.357516	-0.357572
C23	C	0.549120	-0.425293	-0.339301
C24	C	0.500838	-0.357562	-0.357538
C25	C	0.598532	-0.289741	-0.375877
C26	C	0.598492	-0.375669	-0.289787
C27	C	0.549135	-0.307884	-0.308032
C28	C	0.730921	-0.357490	-0.357593
C29	C	0.416741	-0.357580	-0.357517
C30	C	1.073362	-0.550481	-0.357533
C31	C	1.073391	-0.633027	-0.357552
C32	C	1.023881	-0.832418	-0.407149
C33	C	1.005729	-0.881937	-0.339387
C34	C	1.073464	-0.784157	-0.357562
C35	C	1.091653	-0.881719	-0.425332
C36	C	1.073533	-0.930142	-0.357577
C37	C	1.055277	-0.832589	-0.289763
C38	C	1.141232	-0.832367	-0.375754
C39	C	1.123106	-0.881864	-0.307945
C40	C	1.073423	-0.700059	-0.357554
C41	C	1.073575	-1.014239	-0.357577
C42	C	1.267157	-0.357580	-0.357513
C43	C	1.349703	-0.357602	-0.357500
C44	C	1.073635	-0.357242	-0.551251
C45	C	1.073713	-0.357120	-0.633797
C46	C	1.073562	-0.163823	-0.357573
C47	C	1.073609	-0.081277	-0.357586
C48	C	1.073312	-0.357760	-0.164592
C49	C	1.073377	-0.357673	-0.082047
C50	C	1.123507	-0.406634	0.166832
C51	C	1.141185	-0.338815	0.117221
C52	C	1.073600	-0.357305	0.215073
C53	C	1.055847	-0.425302	0.117602
C54	C	1.073492	-0.357490	0.069088
C55	C	1.091313	-0.289449	0.166549
C56	C	1.005945	-0.375982	0.166935
C57	C	1.023596	-0.308117	0.117347
C58	C	1.073664	-0.357200	0.299171
C59	C	1.073428	-0.357587	-0.015008
H60	H	0.527496	-0.324071	-0.482669
H61	H	1.107009	-0.903303	-0.482639
C62	C	1.218588	-0.802926	-0.396562
H63	H	1.237573	-0.774031	-0.356936
H64	H	1.215038	-0.773150	-0.439853
H65	H	1.250883	-0.843441	-0.405725
C66	C	1.180622	-0.462807	0.196189
H67	H	1.228632	-0.449477	0.179161
H68	H	1.168521	-0.510919	0.178709
H69	H	1.179959	-0.462665	0.248815
H70	H	0.620145	-0.232424	-0.391381
H71	H	0.981341	-0.266433	0.095764
C72	C	0.520006	-0.251147	-0.251445
H73	H	0.537017	-0.203060	-0.264534
H74	H	0.537643	-0.263615	-0.203451
H75	H	0.467379	-0.251753	-0.251456
H76	H	0.948452	-0.903726	-0.324013
H77	H	1.198353	-0.323093	0.095389
C78	C	0.519788	-0.502695	-0.318447
H79	H	0.536712	-0.537879	-0.353694
H80	H	0.467167	-0.502037	-0.318146
H81	H	0.537403	-0.515925	-0.270643
C82	C	1.111632	-0.211850	0.195475
H83	H	1.111573	-0.212263	0.248106
H84	H	1.076365	-0.176845	0.178136
H85	H	1.159508	-0.198574	0.178039
C86	C	0.928740	-0.397248	0.196458
H87	H	0.916237	-0.445534	0.179735
H88	H	0.893128	-0.362765	0.178780
H89	H	0.929231	-0.396583	0.249080
H90	H	1.040877	-0.482728	0.096093
H91	H	0.620238	-0.449049	-0.449012
C92	C	0.627794	-0.396419	-0.212393
H93	H	0.610906	-0.444600	-0.199495
H94	H	0.610142	-0.361670	-0.177079
H95	H	0.680418	-0.395807	-0.212862
C96	C	1.034440	-0.803562	-0.212325
H97	H	1.025794	-0.844254	-0.180008
H98	H	0.990843	-0.774294	-0.215718
H99	H	1.073839	-0.774238	-0.193471
C100	C	0.967157	-0.803082	-0.463716
H101	H	0.919053	-0.820058	-0.450671
H102	H	0.979580	-0.820626	-0.511731
H103	H	0.967833	-0.750457	-0.463631
H104	H	1.165067	-0.903437	-0.265969
