data_functionalizedCrystal
_audit_creation_method	'MofGen! by Chris Wilmer'
_symmetry_space_group_name_H-M	'P1'
_symmetry_Int_Tables_number	1
_symmetry_cell_setting	triclinic
loop_
_symmetry_equiv_pos_as_xyz
  x,y,z
_cell_length_a	10.654547
_cell_length_b	16.974803
_cell_length_c	15.455313
_cell_angle_alpha	96.314868
_cell_angle_beta	87.292117
_cell_angle_gamma	83.937661
loop_
_atom_site_label
_atom_site_type_symbol
_atom_site_fract_x
_atom_site_fract_y
_atom_site_fract_z
O1	O	1.671037	0.107998	-0.064559
O2	O	1.305336	0.118612	-0.063812
O3	O	1.499006	-0.002128	-0.072289
O4	O	1.477366	0.228737	-0.056082
O5	O	1.487932	0.004748	0.072456
O6	O	1.294261	0.125487	0.080933
O7	O	1.659962	0.114873	0.080186
Cu8	Cu	1.476100	0.120808	0.093776
Cu9	Cu	1.489197	0.112677	-0.077402
O10	O	1.466291	0.235613	0.088663
C11	C	1.253017	0.121270	0.008506
C12	C	1.113623	0.118937	0.008343
C13	C	0.863770	0.107042	-0.149783
C14	C	0.935302	0.104392	-0.228606
C15	C	1.066273	0.106590	-0.228449
C16	C	1.125715	0.111437	-0.149461
C17	C	1.054183	0.114088	-0.070637
C18	C	0.923209	0.111891	-0.070802
C19	C	1.042091	0.121588	0.087166
C20	C	0.911118	0.119395	0.087012
C21	C	1.101533	0.126435	0.166155
C22	C	1.029999	0.129091	0.244981
C23	C	0.899020	0.126894	0.244821
C24	C	0.839586	0.122046	0.165836
C25	C	1.492854	-0.028251	-0.001994
C26	C	1.491007	-0.116335	-0.008182
C27	C	1.712281	0.112215	0.007866
C28	C	1.851676	0.114548	0.008023
N29	N	1.466898	0.126527	0.214173
C30	C	1.472444	0.261736	0.018366
C31	C	1.474291	0.349820	0.024549
C32	C	1.481198	0.387451	-0.051447
C33	C	1.482950	0.470213	-0.045637
C34	C	1.477787	0.515344	0.036169
C35	C	1.470884	0.477707	0.112171
C36	C	1.469141	0.394946	0.106360
C37	C	1.482361	0.763267	0.062009
C38	C	1.484101	0.846034	0.067814
C39	C	1.496169	0.838534	-0.089996
C40	C	1.494418	0.755772	-0.095799
C41	C	1.487522	0.718142	-0.019798
N42	N	1.479574	0.599941	0.042110
N43	N	1.485744	0.633545	-0.025739
N44	N	1.498410	0.106952	-0.197799
C45	C	1.549204	0.075252	0.255967
C46	C	1.542256	0.079584	0.347079
C47	C	1.453007	0.135196	0.396396
C48	C	1.370692	0.186473	0.354595
C49	C	1.377635	0.182137	0.263485
C50	C	1.423038	0.153893	0.669290
C51	C	1.416104	0.158227	0.760407
C52	C	1.587667	0.051336	0.752884
C53	C	1.594607	0.047008	0.661772
C54	C	1.512288	0.098282	0.619980
N55	N	1.445905	0.139627	0.489527
N56	N	1.519385	0.093847	0.526850
H57	H	0.886890	0.100442	-0.292917
N58	N	1.334276	0.209200	0.624212
H59	H	1.281773	0.176758	0.584274
H60	H	1.276768	0.245081	0.669330
H61	H	1.124515	0.104430	-0.292634
N62	N	0.698325	0.119674	0.165668
H63	H	0.658611	0.166763	0.138096
H64	H	0.679798	0.068550	0.131220
H65	H	1.463516	0.364308	0.168245
N66	N	1.690874	-0.012973	0.608587
H67	H	1.778717	-0.002553	0.625113
H68	H	1.675504	-0.068585	0.620515
H69	H	1.476747	0.732638	0.123895
N70	N	1.266981	0.113782	-0.149291
H71	H	1.303278	0.111358	-0.211211
H72	H	1.285542	0.164873	-0.114791
N73	N	1.242797	0.128791	0.166315
H74	H	1.266190	0.176939	0.138819
H75	H	1.269512	0.132230	0.228329
H76	H	1.343423	0.203516	0.800557
N77	N	1.274419	0.246450	0.407781
H78	H	1.282510	0.241419	0.471842
H79	H	1.289728	0.302058	0.395801
H80	H	1.310611	0.223889	0.229457
N81	N	1.094109	0.134314	0.330167
H82	H	1.187934	0.135299	0.318305
H83	H	1.058049	0.184664	0.368038
H84	H	1.609275	0.037831	0.381107
H85	H	0.840785	0.129055	0.309009
N86	N	0.722506	0.104686	-0.149950
H87	H	0.695703	0.101216	-0.211946
H88	H	0.699208	0.056539	-0.122416
H89	H	1.501784	0.869181	-0.151872
N90	N	1.465331	0.526378	0.200407
H91	H	1.467482	0.584518	0.192559
H92	H	1.384549	0.519553	0.234273
H93	H	1.498631	0.719031	-0.162415
N94	N	1.486793	0.338774	-0.139683
H95	H	1.491449	0.375174	-0.186944
H96	H	1.564188	0.298277	-0.145935
N97	N	1.645474	0.015275	0.202779
H98	H	1.696558	-0.016551	0.243084
H99	H	1.600536	-0.021880	0.162506
N100	N	1.490466	0.510814	-0.127592
H101	H	1.413646	0.551010	-0.128292
H102	H	1.569371	0.538912	-0.129027
N103	N	1.676445	-0.003963	0.797964
H104	H	1.625836	-0.037574	0.833292
H105	H	1.734019	-0.039799	0.752846
N106	N	1.478522	0.894715	0.156052
H107	H	1.473889	0.858319	0.203318
H108	H	1.556822	0.923217	0.161475
