data_functionalizedCrystal
_audit_creation_method	'MofGen! by Chris Wilmer'
_symmetry_space_group_name_H-M	'P1'
_symmetry_Int_Tables_number	1
_symmetry_cell_setting	triclinic
loop_
_symmetry_equiv_pos_as_xyz
  x,y,z
_cell_length_a	14.971482
_cell_length_b	10.654546
_cell_length_c	13.448316
_cell_angle_alpha	90.001295
_cell_angle_beta	89.993258
_cell_angle_gamma	95.951934
loop_
_atom_site_label
_atom_site_type_symbol
_atom_site_fract_x
_atom_site_fract_y
_atom_site_fract_z
O1	O	1.187839	-0.163636	-0.082668
O2	O	1.687839	0.336364	0.417332
O3	O	0.927545	-0.183240	-0.082671
O4	O	1.427545	0.316760	0.417329
O5	O	1.063678	0.009366	-0.082675
O6	O	1.563678	0.509366	0.417325
O7	O	1.051706	-0.356242	-0.082664
O8	O	1.551706	0.143758	0.417336
O9	O	1.063660	0.009376	0.082708
O10	O	1.563660	0.509376	0.582708
O11	O	0.927526	-0.183229	0.082712
O12	O	1.427526	0.316771	0.582712
O13	O	1.187820	-0.163626	0.082716
O14	O	1.687820	0.336374	0.582716
Cu15	Cu	1.057672	-0.173427	0.097815
Cu16	Cu	1.557672	0.326573	0.597815
Cu17	Cu	1.057694	-0.173439	-0.097770
Cu18	Cu	1.557694	0.326561	0.402230
O19	O	1.051687	-0.356232	0.082720
O20	O	1.551687	0.143768	0.582720
C21	C	0.894206	-0.182359	0.000020
C22	C	1.394206	0.317641	0.500020
C23	C	0.794895	-0.179734	0.000018
C24	C	1.294895	0.320266	0.500018
C25	C	0.748233	-0.178492	0.090170
C26	C	1.248233	0.321508	0.590170
C27	C	0.654921	-0.176006	0.090171
C28	C	1.154921	0.323994	0.590171
C29	C	0.608272	-0.174771	0.000019
C30	C	1.108272	0.325229	0.500019
C31	C	0.654940	-0.176009	-0.090140
C32	C	1.154940	0.323991	0.409860
C33	C	0.748251	-0.178486	-0.090140
C34	C	1.248251	0.321514	0.409860
C35	C	0.460450	-0.170849	-0.090133
C36	C	0.960450	0.329151	0.409867
C37	C	0.367132	-0.168374	-0.090134
C38	C	0.867132	0.331626	0.409866
C39	C	0.367120	-0.168369	0.090177
C40	C	0.867120	0.331631	0.590177
C41	C	0.460431	-0.170846	0.090177
C42	C	0.960431	0.329154	0.590177
C43	C	0.507093	-0.172086	0.000018
C44	C	1.007093	0.327914	0.500018
C45	C	1.062791	0.056159	0.000013
C46	C	1.562791	0.556159	0.500013
C47	C	1.060162	0.195575	0.000002
C48	C	1.560162	0.695575	0.500002
C49	C	1.140315	0.275922	0.000002
C50	C	1.640315	0.775922	0.500002
C51	C	1.137840	0.406916	-0.000011
C52	C	1.637840	0.906916	0.499989
C53	C	0.975053	0.377203	-0.000022
C54	C	1.475053	0.877203	0.499978
C55	C	0.977529	0.246212	-0.000015
C56	C	1.477529	0.746212	0.499985
C57	C	1.222949	0.225285	0.000019
C58	C	1.722949	0.725285	0.500019
C59	C	1.303108	0.305633	0.000021
C60	C	1.803108	0.805633	0.500021
C61	C	1.300634	0.436628	0.000007
C62	C	1.800634	0.936628	0.500007
C63	C	1.217999	0.487274	-0.000008
C64	C	1.717999	0.987274	0.499992
C65	C	1.221159	-0.164507	0.000022
C66	C	1.721159	0.335493	0.500022
C67	C	1.320471	-0.167132	0.000018
C68	C	1.820471	0.332868	0.500018
N69	N	1.057662	-0.173417	0.235379
N70	N	1.557662	0.326583	0.735379
C71	C	1.052577	0.596975	0.000016
C72	C	1.552577	1.096975	0.500016
C73	C	1.055212	0.457561	-0.000018
C74	C	1.555212	0.957561	0.499982
C75	C	1.117961	-0.088167	0.287418
C76	C	1.617961	0.411833	0.787418
C77	C	1.117966	-0.088167	0.391521
C78	C	1.617966	0.411833	0.891521
C79	C	1.057675	-0.173424	0.443584
C80	C	1.557675	0.326576	0.943584
C81	C	0.997370	-0.258678	0.391538
C82	C	1.497370	0.241322	0.891538
C83	C	0.997362	-0.258672	0.287437
C84	C	1.497362	0.241328	0.787437
C85	C	0.997393	-0.258689	0.608518
C86	C	1.497393	0.241311	1.108518
C87	C	0.997403	-0.258698	0.712627
C88	C	1.497403	0.241302	1.212627
C89	C	1.117997	-0.088185	0.712603
C90	C	1.617997	0.411815	1.212603
C91	C	1.117988	-0.088178	0.608501
C92	C	1.617988	0.411822	1.108501
C93	C	1.057684	-0.173434	0.556463
C94	C	1.557684	0.326566	1.056463
N95	N	1.057701	-0.173448	0.764665
N96	N	1.557701	0.326552	1.264665
H97	H	0.616935	-0.174974	0.163581
H98	H	1.116935	0.325026	0.663581
H99	H	0.498410	-0.171859	0.163587
H100	H	0.998410	0.328141	0.663587
N101	N	1.215327	0.628560	-0.000037
N102	N	1.715327	1.128560	0.499963
H103	H	1.278643	0.671779	-0.000040
H104	H	1.778643	1.171779	0.499960
H105	H	1.182727	0.654187	0.061268
H106	H	1.682727	1.154187	0.561268
N107	N	0.932331	-0.350629	0.231308
N108	N	1.432331	0.149371	0.731308
H109	H	0.941471	-0.337686	0.157461
H110	H	1.441471	0.162314	0.657461
H111	H	0.868793	-0.335973	0.249522
H112	H	1.368793	0.164027	0.749522
H113	H	1.365903	0.502045	-0.000002
H114	H	1.865903	1.002045	0.499998
H115	H	0.907776	0.418450	-0.000032
H116	H	1.407776	0.918450	0.499968
H117	H	1.370386	0.264388	0.000008
H118	H	1.870386	0.764388	0.500008
N119	N	0.932386	-0.350662	0.768784
N120	N	1.432386	0.149338	1.268784
H121	H	0.894180	-0.404668	0.720023
H122	H	1.394180	0.095332	1.220023
H123	H	0.892556	-0.302499	0.811997
H124	H	1.392556	0.197501	1.311997
N125	N	0.316794	-0.167035	0.187419
N126	N	0.816794	0.332965	0.687419
H127	H	0.250461	-0.167046	0.173744
H128	H	0.750461	0.332954	0.673744
H129	H	0.339004	-0.088782	0.226184
H130	H	0.839004	0.411218	0.726184
N131	N	0.316809	-0.167017	-0.187361
N132	N	0.816809	0.332983	0.312639
H133	H	0.271321	-0.243778	-0.191382
H134	H	0.771321	0.256222	0.308618
H135	H	0.360581	-0.168119	-0.244425
H136	H	0.860581	0.331881	0.255575
H137	H	0.498439	-0.171859	-0.163551
H138	H	0.998439	0.328141	0.336449
H139	H	1.224973	0.118624	0.000034
H140	H	1.724973	0.618624	0.500034
N141	N	0.604623	-0.174665	-0.187372
N142	N	1.104623	0.325335	0.312628
H143	H	0.559137	-0.251428	-0.191390
H144	H	1.059137	0.248572	0.308610
H145	H	0.648402	-0.175777	-0.244430
H146	H	1.148402	0.324223	0.255570
H147	H	0.786207	-0.179509	0.163582
H148	H	1.286207	0.320491	0.663582
H149	H	0.786242	-0.179500	-0.163551
H150	H	1.286242	0.320500	0.336449
H151	H	0.912261	0.180790	-0.000014
H152	H	1.412261	0.680790	0.499986
N153	N	1.182994	0.003782	0.231268
N154	N	1.682994	0.503782	0.731268
H155	H	1.221192	0.057789	0.280035
H156	H	1.721192	0.557789	0.780035
H157	H	1.148408	0.059385	0.188086
H158	H	1.648408	0.559385	0.688086
H159	H	1.167064	-0.018749	0.433891
H160	H	1.667064	0.481251	0.933891
H161	H	1.167085	-0.018761	0.566112
H162	H	1.667085	0.481239	1.066112
H163	H	1.167098	-0.018766	0.754979
H164	H	1.667098	0.481234	1.254979
N165	N	0.932349	-0.350636	0.552387
N166	N	1.432349	0.149364	1.052387
H167	H	0.894158	-0.404651	0.601163
H168	H	1.394158	0.095349	1.101163
H169	H	0.966930	-0.406231	0.509183
H170	H	1.466930	0.093769	1.009183
N171	N	0.932347	-0.350633	0.447696
N172	N	1.432347	0.149367	0.947696
H173	H	0.943194	-0.439788	0.429568
H174	H	1.443194	0.060212	0.929568
H175	H	0.868803	-0.335913	0.429578
H176	H	1.368803	0.164087	0.929578
