data_functionalizedCrystal
_audit_creation_method	'MofGen! by Chris Wilmer'
_symmetry_space_group_name_H-M	'P1'
_symmetry_Int_Tables_number	1
_symmetry_cell_setting	triclinic
loop_
_symmetry_equiv_pos_as_xyz
  x,y,z
_cell_length_a	12.759401
_cell_length_b	12.759399
_cell_length_c	12.759393
_cell_angle_alpha	89.967679
_cell_angle_beta	89.981665
_cell_angle_gamma	90.015277
loop_
_atom_site_label
_atom_site_type_symbol
_atom_site_fract_x
_atom_site_fract_y
_atom_site_fract_z
Zn1	Zn	1.606251	-0.418196	-0.593978
Zn2	Zn	1.606144	-0.593916	-0.418297
Zn3	Zn	1.430553	-0.418252	-0.418318
Zn4	Zn	1.430540	-0.593834	-0.593939
O5	O	1.518372	-0.506050	-0.506133
O6	O	1.753258	-0.441517	-0.570682
O7	O	1.582813	-0.570672	-0.271279
O8	O	1.453910	-0.271224	-0.441645
O9	O	1.753179	-0.570617	-0.441610
O10	O	1.582994	-0.271183	-0.570702
O11	O	1.453807	-0.441612	-0.271294
O12	O	1.283530	-0.441533	-0.441606
O13	O	1.453887	-0.570478	-0.740965
O14	O	1.283521	-0.570532	-0.570634
O15	O	1.582981	-0.441437	-0.740994
O16	O	1.582800	-0.740926	-0.441571
O17	O	1.453784	-0.740866	-0.570614
C18	C	1.245405	-0.506030	-0.506119
C19	C	1.128628	-0.506047	-0.506138
C20	C	1.073788	-0.573325	-0.573211
C21	C	0.964064	-0.573338	-0.573223
C22	C	0.964029	-0.438794	-0.439078
C23	C	1.073751	-0.438776	-0.439072
C24	C	1.073808	-0.651007	-0.650656
C25	C	0.964084	-0.651020	-0.650667
C26	C	1.518308	-0.779017	-0.506109
C27	C	1.518376	-0.895794	-0.506134
C28	C	1.585631	-0.950652	-0.439018
C29	C	1.585699	-1.060376	-0.439053
C30	C	1.451247	-1.060374	-0.573324
C31	C	1.451186	-0.950652	-0.573293
C32	C	1.709708	-1.210256	-0.401662
C33	C	1.776954	-1.265118	-0.334530
C34	C	1.793119	-1.229580	-0.232019
C35	C	1.742023	-1.139182	-0.196620
C36	C	1.674769	-1.084325	-0.263747
C37	C	1.658624	-1.119862	-0.366273
C38	C	1.327175	-0.800770	-0.610673
C39	C	1.259915	-0.745912	-0.677795
C40	C	1.243739	-0.781448	-0.780308
C41	C	1.294817	-0.871849	-0.815703
C42	C	1.362077	-0.926707	-0.748580
C43	C	1.378254	-0.891164	-0.646069
C44	C	1.792405	-0.506070	-0.506148
C45	C	1.909182	-0.506079	-0.506154
C46	C	1.518445	-0.505942	-0.780166
C47	C	1.518476	-0.505896	-0.896943
C48	C	1.518465	-0.232016	-0.506180
C49	C	1.518505	-0.115240	-0.506200
C50	C	1.451350	-0.438656	-1.061545
C51	C	1.451324	-0.438686	-0.951821
C52	C	1.585665	-0.573074	-0.951795
C53	C	1.585696	-0.573039	-1.061517
C54	C	1.373786	-0.361071	-1.061560
C55	C	1.373760	-0.361100	-0.951836
C56	C	1.518360	-0.506081	-0.233166
C57	C	1.518532	-0.505831	-0.116389
H58	H	0.919335	-0.384023	-0.384476
H59	H	1.640411	-0.627730	-1.106167
H60	H	1.395607	-0.279691	-1.091356
H61	H	1.292372	-0.382890	-0.922048
H62	H	1.103616	-0.629307	-0.732063
H63	H	1.118397	-0.383985	-0.384461
H64	H	1.640348	-0.627791	-0.907104
H65	H	1.218331	-0.672298	-0.648970
H66	H	1.296494	-0.390203	-1.095582
H67	H	1.107822	-0.728259	-0.621371
H68	H	0.930086	-0.621975	-0.728019
H69	H	0.934288	-0.732369	-0.628734
H70	H	1.633169	-1.010724	-0.234927
H71	H	1.640344	-0.905989	-0.384334
H72	H	1.188967	-0.736772	-0.834957
H73	H	1.340348	-0.771823	-0.527201
H74	H	1.847874	-1.274256	-0.177359
H75	H	1.755181	-1.110261	-0.113142
H76	H	1.818557	-1.338720	-0.363361
H77	H	1.396541	-1.105052	-0.628001
H78	H	1.696563	-1.239192	-0.485138
H79	H	1.403671	-1.000314	-0.777409
H80	H	1.281647	-0.900783	-0.899177
H81	H	1.402921	-0.283815	-0.917826
