data_functionalizedCrystal
_audit_creation_method	'MofGen! by Chris Wilmer'
_symmetry_space_group_name_H-M	'P1'
_symmetry_Int_Tables_number	1
_symmetry_cell_setting	triclinic
loop_
_symmetry_equiv_pos_as_xyz
  x,y,z
_cell_length_a	16.992701
_cell_length_b	16.992695
_cell_length_c	16.176319
_cell_angle_alpha	89.993125
_cell_angle_beta	89.992649
_cell_angle_gamma	90.667696
loop_
_atom_site_label
_atom_site_type_symbol
_atom_site_fract_x
_atom_site_fract_y
_atom_site_fract_z
O1	O	1.050853	0.166909	-0.068754
O2	O	1.550853	0.666909	0.431246
O3	O	0.822453	0.165080	-0.068755
O4	O	1.322453	0.665080	0.431245
O5	O	0.935738	0.051795	-0.068748
O6	O	1.435738	0.551795	0.431252
O7	O	0.937569	0.280195	-0.068761
O8	O	1.437569	0.780195	0.431239
O9	O	0.935721	0.051786	0.068745
O10	O	1.435721	0.551786	0.568745
O11	O	0.822436	0.165071	0.068739
O12	O	1.322436	0.665071	0.568739
O13	O	1.050836	0.166900	0.068739
O14	O	1.550836	0.666900	0.568739
Cu15	Cu	0.936635	0.165985	0.081293
Cu16	Cu	1.436635	0.665985	0.581293
Cu17	Cu	0.936655	0.165995	-0.081309
Cu18	Cu	1.436655	0.665995	0.418691
O19	O	0.937552	0.280186	0.068732
O20	O	1.437552	0.780186	0.568732
C21	C	0.793085	0.162720	-0.000008
C22	C	1.293085	0.662720	0.499992
C23	C	0.705600	0.155692	-0.000008
C24	C	1.205600	0.655692	0.499992
C25	C	0.933373	0.022430	-0.000001
C26	C	1.433373	0.522430	0.499999
C27	C	0.926345	-0.065055	-0.000002
C28	C	1.426345	0.434945	0.499998
C29	C	0.213682	0.108471	-0.000008
C30	C	0.713682	0.608471	0.499992
C31	C	0.295882	0.115080	-0.000004
C32	C	0.795882	0.615080	0.499996
C33	C	0.332089	0.189508	-0.000012
C34	C	0.832089	0.689508	0.499988
C35	C	0.286091	0.257331	-0.000016
C36	C	0.786091	0.757331	0.499984
C37	C	0.203892	0.250720	-0.000015
C38	C	0.703892	0.750720	0.499985
C39	C	0.577403	0.216905	-0.000011
C40	C	1.077403	0.716905	0.499989
C41	C	0.659608	0.223510	-0.000015
C42	C	1.159608	0.723510	0.499985
C43	C	0.669394	0.081258	-0.000001
C44	C	1.169394	0.581258	0.499999
C45	C	0.587192	0.074655	-0.000005
C46	C	1.087192	0.574655	0.499995
C47	C	0.541202	0.142477	-0.000004
C48	C	1.041202	0.642477	0.499996
N49	N	0.416111	0.196266	-0.000010
N50	N	0.916111	0.696266	0.499990
N51	N	0.457181	0.135719	-0.000001
N52	N	0.957181	0.635719	0.499999
C53	C	0.994163	-0.111046	-0.000001
C54	C	1.494163	0.388954	0.499999
C55	C	0.987554	-0.193247	-0.000008
C56	C	1.487554	0.306753	0.499992
C57	C	0.913126	-0.229454	-0.000011
C58	C	1.413126	0.270546	0.499989
C59	C	0.845303	-0.183457	-0.000015
C60	C	1.345303	0.316543	0.499985
C61	C	0.851913	-0.101258	-0.000013
C62	C	1.351913	0.398742	0.499987
C63	C	0.885732	-0.474768	-0.000023
C64	C	1.385732	0.025232	0.499977
C65	C	0.879127	-0.556974	-0.000022
C66	C	1.379127	-0.056974	0.499978
C67	C	1.021378	-0.566758	-0.000017
C68	C	1.521378	-0.066758	0.499983
C69	C	1.027981	-0.484557	-0.000011
C70	C	1.527981	0.015443	0.499989
C71	C	0.960158	-0.438566	-0.000018
C72	C	1.460158	0.061434	0.499982
N73	N	0.906369	-0.313476	-0.000017
N74	N	1.406369	0.186524	0.499983
N75	N	0.966916	-0.354546	-0.000019
N76	N	1.466916	0.145454	0.499981
C77	C	1.080205	0.169260	-0.000010
C78	C	1.580205	0.669260	0.499990
C79	C	1.167689	0.176288	-0.000015
C80	C	1.667689	0.676288	0.499985
C81	C	0.939916	0.309550	-0.000016
C82	C	1.439916	0.809550	0.499984
C83	C	0.946945	0.397035	-0.000021
C84	C	1.446945	0.897035	0.499979
N85	N	0.936626	0.165978	0.195658
N86	N	1.436626	0.665978	0.695658
N87	N	0.936669	0.165997	-0.195674
N88	N	1.436669	0.665997	0.304326
C89	C	0.986806	0.115838	0.238925
C90	C	1.486806	0.615838	0.738925
C91	C	0.986810	0.115837	0.325472
C92	C	1.486810	0.615837	0.825472
C93	C	0.936637	0.165981	0.368751
C94	C	1.436637	0.665981	0.868751
C95	C	0.886452	0.216123	0.325478
C96	C	1.386452	0.716123	0.825478
C97	C	0.886445	0.216119	0.238932
C98	C	1.386445	0.716119	0.738932
C99	C	0.886480	0.216140	0.674506
C100	C	1.386480	0.716140	1.174506
C101	C	0.886493	0.216141	0.761057
C102	C	1.386493	0.716141	1.261057
C103	C	0.986845	0.115858	0.761046
C104	C	1.486845	0.615858	1.261046
C105	C	0.986838	0.115854	0.674501
C106	C	1.486838	0.615854	1.174501
C107	C	0.936650	0.165992	0.631235
C108	C	1.436650	0.665992	1.131235
C109	C	0.936645	0.165991	0.537391
C110	C	1.436645	0.665991	1.037391
C111	C	0.936646	0.165987	0.462593
C112	C	1.436646	0.665987	0.962593
H113	H	0.184208	0.047863	-0.000007
H114	H	0.684208	0.547863	0.499993
H115	H	0.333326	0.059856	0.000005
H116	H	0.833326	0.559856	0.500005
Cl117	Cl	1.049888	0.052799	0.184527
Cl118	Cl	1.549888	0.552799	0.684527
Cl119	Cl	0.541681	-0.018916	-0.000024
Cl120	Cl	1.041681	0.481084	0.499976
Cl121	Cl	0.146073	0.335981	-0.000017
Cl122	Cl	0.646073	0.835981	0.499983
H123	H	1.076596	-0.604212	-0.000013
H124	H	1.576596	-0.104212	0.499987
Cl125	Cl	1.072815	-0.251061	-0.000005
Cl126	Cl	1.572815	0.248939	0.499995
H127	H	0.706848	0.026041	0.000000
H128	H	1.206848	0.526041	0.500000
H129	H	0.315577	0.317932	-0.000017
H130	H	0.815577	0.817932	0.499983
H131	H	1.054770	-0.081572	0.000007
H132	H	1.554770	0.418428	0.500007
H133	H	1.088588	-0.455083	-0.000008
H134	H	1.588588	0.044917	0.499992
Cl135	Cl	0.785554	-0.602490	-0.000021
Cl136	Cl	1.285554	-0.102490	0.499979
H137	H	1.027696	0.075025	0.639266
H138	H	1.527696	0.575025	1.139266
Cl139	Cl	0.705124	0.317083	-0.000024
Cl140	Cl	1.205124	0.817083	0.499976
H141	H	0.830505	-0.437333	-0.000029
H142	H	1.330505	0.062667	0.499971
Cl143	Cl	0.751736	-0.228975	-0.000029
Cl144	Cl	1.251736	0.271025	0.499971
H145	H	0.796688	-0.063812	-0.000014
H146	H	1.296688	0.436188	0.499986
H147	H	1.027709	0.075029	0.796282
H148	H	1.527709	0.575029	1.296282
Cl149	Cl	0.823392	0.279173	0.620120
Cl150	Cl	1.323392	0.779173	1.120120
H151	H	1.027669	0.075009	0.360700
H152	H	1.527669	0.575009	0.860700
Cl153	Cl	0.519596	0.302169	-0.000022
Cl154	Cl	1.019596	0.802169	0.499978
H155	H	0.845634	0.256976	0.796293
H156	H	1.345634	0.756976	1.296293
H157	H	0.845597	0.256948	0.360720
H158	H	1.345597	0.756948	0.860720
H159	H	0.845582	0.256947	0.203705
H160	H	1.345582	0.756947	0.703705
