data_functionalizedCrystal
_audit_creation_method	'MofGen! by Chris Wilmer'
_symmetry_space_group_name_H-M	'P1'
_symmetry_Int_Tables_number	1
_symmetry_cell_setting	triclinic
loop_
_symmetry_equiv_pos_as_xyz
  x,y,z
_cell_length_a	16.992701
_cell_length_b	16.992695
_cell_length_c	15.455313
_cell_angle_alpha	87.142836
_cell_angle_beta	87.139804
_cell_angle_gamma	89.332304
loop_
_atom_site_label
_atom_site_type_symbol
_atom_site_fract_x
_atom_site_fract_y
_atom_site_fract_z
O1	O	1.047609	-0.170134	0.072139
O2	O	0.819209	-0.168305	0.072140
O3	O	0.932493	-0.055019	0.072133
O4	O	0.934324	-0.283420	0.072146
O5	O	0.938965	-0.048561	-0.072130
O6	O	0.825680	-0.161847	-0.072123
O7	O	1.054080	-0.163676	-0.072123
Cu8	Cu	0.940471	-0.162172	-0.085295
Cu9	Cu	0.932818	-0.169809	0.085312
O10	O	0.940796	-0.276962	-0.072116
C11	C	0.793084	-0.162721	0.000008
C12	C	0.705600	-0.155693	0.000008
C13	C	0.213681	-0.108471	0.000009
C14	C	0.295882	-0.115080	0.000004
C15	C	0.332089	-0.189509	0.000012
C16	C	0.286090	-0.257331	0.000017
C17	C	0.203891	-0.250721	0.000015
C18	C	0.577402	-0.216905	0.000011
C19	C	0.659607	-0.223510	0.000015
C20	C	0.669394	-0.081259	0.000001
C21	C	0.587192	-0.074655	0.000005
C22	C	0.541201	-0.142478	0.000005
N23	N	0.416111	-0.196266	0.000010
N24	N	0.457181	-0.135719	0.000001
C25	C	0.933373	-0.022430	0.000001
C26	C	0.926345	0.065054	0.000002
C27	C	1.080204	-0.169261	0.000010
C28	C	1.167689	-0.176289	0.000016
N29	N	0.927435	-0.175175	0.205308
C30	C	0.939915	-0.309551	0.000017
C31	C	0.946944	-0.397036	0.000022
C32	C	0.994163	0.111046	0.000001
C33	C	0.987553	0.193246	0.000009
C34	C	0.913126	0.229454	0.000012
C35	C	0.845302	0.183456	0.000016
C36	C	0.851912	0.101257	0.000014
C37	C	0.885731	0.474767	0.000024
C38	C	0.879126	0.556973	0.000023
C39	C	1.021377	0.566757	0.000018
C40	C	1.027981	0.484556	0.000011
C41	C	0.960158	0.438566	0.000019
N42	N	0.906368	0.313476	0.000018
N43	N	0.966915	0.354545	0.000020
N44	N	0.945860	-0.156800	-0.205291
C45	C	0.975666	-0.127152	0.250699
C46	C	0.971593	-0.131209	0.341507
C47	C	0.919285	-0.183284	0.386922
C48	C	0.871052	-0.231312	0.341525
C49	C	0.875129	-0.227259	0.250718
C50	C	0.901704	-0.200775	0.658505
C51	C	0.897629	-0.204823	0.749318
C52	C	0.998172	-0.104720	0.749294
C53	C	1.002241	-0.100669	0.658485
C54	C	0.954011	-0.148699	0.613096
N55	N	0.915119	-0.187430	0.479743
N56	N	0.958181	-0.144557	0.520277
H57	H	0.557719	-0.014048	-0.000002
O58	O	0.854774	-0.247460	0.614555
C59	C	0.807746	-0.294303	0.674116
H60	H	0.801989	-0.264850	0.738835
H61	H	0.746796	-0.301056	0.647879
H62	H	0.836424	-0.354880	0.683795
O63	O	0.806799	0.592105	0.000188
C64	C	0.761792	0.565685	0.074898
H65	H	0.802885	0.543607	0.127114
H66	H	0.724069	0.616404	0.099981
H67	H	0.722028	0.515682	0.058013
H68	H	0.689084	-0.284121	0.000010
H69	H	0.184208	-0.047864	0.000007
H70	H	0.796687	0.063811	0.000015
H71	H	0.333326	-0.059855	-0.000005
H72	H	0.828464	-0.273717	0.378507
O73	O	0.846920	-0.255456	0.793534
C74	C	0.889667	-0.309119	0.846065
H75	H	0.948744	-0.282378	0.859657
H76	H	0.854706	-0.322275	0.909924
H77	H	0.900118	-0.366097	0.811092
H78	H	0.706848	-0.026041	-0.000000
H79	H	1.037440	-0.065617	0.786258
H80	H	0.539966	-0.272132	0.000016
H81	H	0.315576	-0.317933	0.000018
H82	H	0.835855	-0.266365	0.213762
H83	H	1.010867	-0.092105	0.378464
O84	O	0.159238	-0.316629	0.000180
C85	C	0.173006	-0.364864	0.074889
H86	H	0.196124	-0.327401	0.127107
H87	H	0.115602	-0.393900	0.099970
H88	H	0.218424	-0.412295	0.058004
O89	O	1.066521	0.076002	0.000038
C90	C	1.124962	0.134227	0.000021
H91	H	1.098171	0.190162	0.027331
H92	H	1.174735	0.112025	0.041907
H93	H	1.149236	0.147577	-0.069188
H94	H	1.042778	0.230690	0.000006
O95	O	1.100339	0.449512	0.000044
C96	C	1.158783	0.507734	0.000019
H97	H	1.132000	0.563668	0.027340
H98	H	1.208563	0.485526	0.041893
H99	H	1.183046	0.521087	-0.069193
O100	O	1.026543	-0.076543	0.206721
C101	C	1.068224	-0.035012	0.266261
H102	H	1.068170	-0.070240	0.330997
H103	H	1.131530	-0.025918	0.240024
H104	H	1.038678	0.024703	0.275909
O105	O	1.087175	0.611548	0.000057
C106	C	1.065387	0.691864	0.000038
H107	H	1.002133	0.697662	0.027348
H108	H	1.106419	0.724350	0.041923
H109	H	1.069990	0.718526	-0.069172
O110	O	0.819864	0.430062	0.000180
C111	C	0.816083	0.378861	0.074885
H112	H	0.852114	0.404065	0.127105
H113	H	0.752126	0.372485	0.099965
H114	H	0.840949	0.318632	0.057994
H115	H	0.784701	0.212942	0.000023
H116	H	1.044835	-0.058265	0.621510
