data_functionalizedCrystal
_audit_creation_method	'MofGen! by Chris Wilmer'
_symmetry_space_group_name_H-M	'P1'
_symmetry_Int_Tables_number	1
_symmetry_cell_setting	triclinic
loop_
_symmetry_equiv_pos_as_xyz
  x,y,z
_cell_length_a	13.897449
_cell_length_b	18.101397
_cell_length_c	13.897441
_cell_angle_alpha	89.965096
_cell_angle_beta	89.976606
_cell_angle_gamma	90.021292
loop_
_atom_site_label
_atom_site_type_symbol
_atom_site_fract_x
_atom_site_fract_y
_atom_site_fract_z
Zn1	Zn	1.474684	-0.294790	-0.545421
Zn2	Zn	1.724684	-0.044790	-0.295421
Zn3	Zn	1.974684	0.205210	-0.045421
Zn4	Zn	2.224684	0.455210	0.204579
Zn5	Zn	1.474570	-0.418645	-0.384110
Zn6	Zn	1.724570	-0.168645	-0.134110
Zn7	Zn	1.974570	0.081355	0.115890
Zn8	Zn	2.224570	0.331355	0.365890
Zn9	Zn	1.313373	-0.294824	-0.384132
Zn10	Zn	1.563373	-0.044824	-0.134132
Zn11	Zn	1.813373	0.205176	0.115868
Zn12	Zn	2.063373	0.455176	0.365868
Zn13	Zn	1.313347	-0.418596	-0.545355
Zn14	Zn	1.563347	-0.168596	-0.295355
Zn15	Zn	1.813347	0.081404	-0.045355
Zn16	Zn	2.063347	0.331404	0.204645
O17	O	1.393994	-0.356714	-0.464754
O18	O	1.643994	-0.106714	-0.214754
O19	O	1.893994	0.143286	0.035246
O20	O	2.143994	0.393286	0.285246
O21	O	1.609651	-0.311226	-0.524041
O22	O	1.859651	-0.061226	-0.274041
O23	O	2.109651	0.188774	-0.024041
O24	O	2.359651	0.438774	0.225959
O25	O	1.453150	-0.402255	-0.249131
O26	O	1.703150	-0.152255	0.000869
O27	O	1.953150	0.097745	0.250869
O28	O	2.203150	0.347745	0.500869
O29	O	1.334830	-0.191186	-0.405564
O30	O	1.584830	0.058814	-0.155564
O31	O	1.834830	0.308814	0.094436
O32	O	2.084830	0.558814	0.344436
O33	O	1.609567	-0.402222	-0.405527
O34	O	1.859567	-0.152222	-0.155527
O35	O	2.109567	0.097778	0.094473
O36	O	2.359567	0.347778	0.344473
O37	O	1.453344	-0.191161	-0.524062
O38	O	1.703344	0.058839	-0.274062
O39	O	1.953344	0.308839	-0.024062
O40	O	2.203344	0.558839	0.225938
O41	O	1.334720	-0.311284	-0.249147
O42	O	1.584720	-0.061284	0.000853
O43	O	1.834720	0.188716	0.250853
O44	O	2.084720	0.438716	0.500853
O45	O	1.178388	-0.311236	-0.405500
O46	O	1.428388	-0.061236	-0.155500
O47	O	1.678388	0.188764	0.094500
O48	O	1.928388	0.438764	0.344500
O49	O	1.334785	-0.402137	-0.680346
O50	O	1.584785	-0.152137	-0.430346
O51	O	1.834785	0.097863	-0.180346
O52	O	2.084785	0.347863	0.069654
O53	O	1.178369	-0.402171	-0.523950
O54	O	1.428369	-0.152171	-0.273950
O55	O	1.678369	0.097829	-0.023950
O56	O	1.928369	0.347829	0.226050
O57	O	1.453319	-0.311178	-0.680394
O58	O	1.703319	-0.061178	-0.430394
O59	O	1.953319	0.188822	-0.180394
O60	O	2.203319	0.438822	0.069606
O61	O	1.453125	-0.522272	-0.405463
O62	O	1.703125	-0.272272	-0.155463
O63	O	1.953125	-0.022272	0.094537
O64	O	2.203125	0.227728	0.344537
O65	O	1.334675	-0.522235	-0.523929
O66	O	1.584675	-0.272235	-0.273929
O67	O	1.834675	-0.022235	-0.023929
O68	O	2.084675	0.227765	0.226071
C69	C	1.143379	-0.356702	-0.464721
C70	C	1.393379	-0.106702	-0.214721
C71	C	1.643379	0.143298	0.035279
C72	C	1.893379	0.393298	0.285279
C73	C	1.036165	-0.356715	-0.464729
C74	C	1.286165	-0.106715	-0.214729
C75	C	1.536165	0.143285	0.035271
C76	C	1.786165	0.393285	0.285271
C77	C	0.949096	-0.356718	-0.464745
C78	C	1.199096	-0.106718	-0.214745
C79	C	1.449096	0.143282	0.035255
C80	C	1.699096	0.393282	0.285255
C81	C	0.839863	-0.356723	-0.464775
C82	C	1.089863	-0.106723	-0.214775
C83	C	1.339863	0.143277	0.035225
C84	C	1.589863	0.393277	0.285225
C85	C	1.393911	-0.549124	-0.464708
C86	C	1.643911	-0.299124	-0.214708
C87	C	1.893911	-0.049124	0.035292
C88	C	2.143911	0.200876	0.285292
C89	C	1.393964	-0.631438	-0.464720
C90	C	1.643964	-0.381438	-0.214720
C91	C	1.893964	-0.131438	0.035280
C92	C	2.143964	0.118562	0.285280
C93	C	1.394087	-0.930529	-0.464808
C94	C	1.644087	-0.680529	-0.214808
C95	C	1.894087	-0.430529	0.035192
C96	C	2.144087	-0.180529	0.285192
C97	C	1.468405	-0.899196	-0.390073
C98	C	1.718405	-0.649196	-0.140073
C99	C	1.968405	-0.399196	0.109927
C100	C	2.218405	-0.149196	0.359927
C101	C	1.468662	-0.813577	-0.390266
C102	C	1.718662	-0.563577	-0.140266
C103	C	1.968662	-0.313577	0.109734
C104	C	2.218662	-0.063577	0.359734
C105	C	1.394026	-0.782147	-0.464763
C106	C	1.644026	-0.532147	-0.214763
C107	C	1.894026	-0.282147	0.035237
C108	C	2.144026	-0.032147	0.285237
C109	C	1.421587	-0.813148	-0.566438
C110	C	1.671587	-0.563148	-0.316438
C111	C	1.921587	-0.313148	-0.066438
C112	C	2.171587	-0.063148	0.183562
C113	C	1.422162	-0.898793	-0.566031
C114	C	1.672162	-0.648793	-0.316031
C115	C	1.922162	-0.398793	-0.066031
C116	C	2.172162	-0.148793	0.183969
C117	C	1.292011	-0.899041	-0.438749
C118	C	1.542011	-0.649041	-0.188749
C119	C	1.792011	-0.399041	0.061251
C120	C	2.042011	-0.149041	0.311251
C121	C	1.292515	-0.813391	-0.436479
C122	C	1.542515	-0.563391	-0.186479
C123	C	1.792515	-0.313391	0.063521
C124	C	2.042515	-0.063391	0.313521
C125	C	1.393990	-0.698287	-0.464745
C126	C	1.643990	-0.448287	-0.214745
C127	C	1.893990	-0.198287	0.035255
C128	C	2.143990	0.051713	0.285255
C129	C	1.394126	-1.014389	-0.464834
C130	C	1.644126	-0.764389	-0.214834
C131	C	1.894126	-0.514389	0.035166
C132	C	2.144126	-0.264389	0.285166
C133	C	1.645587	-0.356726	-0.464789
C134	C	1.895587	-0.106726	-0.214789
C135	C	2.145587	0.143274	0.035211
C136	C	2.395587	0.393274	0.285211
C137	C	1.752800	-0.356731	-0.464803
C138	C	2.002800	-0.106731	-0.214803
C139	C	2.252800	0.143269	0.035197
C140	C	2.502800	0.393269	0.285197
C141	C	1.394062	-0.356648	-0.716348
C142	C	1.644062	-0.106648	-0.466348
C143	C	1.894062	0.143352	-0.216348
C144	C	2.144062	0.393352	0.033652
C145	C	1.394091	-0.356620	-0.823562
C146	C	1.644091	-0.106620	-0.573562
C147	C	1.894091	0.143380	-0.323562
C148	C	2.144091	0.393380	-0.073562
C149	C	1.394103	-0.163552	-0.464822
C150	C	1.644103	0.086448	-0.214822
C151	C	1.894103	0.336448	0.035178
C152	C	2.144103	0.586448	0.285178
C153	C	1.394149	-0.081238	-0.464851
C154	C	1.644149	0.168762	-0.214851
C155	C	1.894149	0.418762	0.035149
C156	C	2.144149	0.668762	0.285149
C157	C	1.394117	-0.356570	-1.019857
C158	C	1.644117	-0.106570	-0.769857
C159	C	1.894117	0.143430	-0.519857
C160	C	2.144117	0.393430	-0.269857
C161	C	1.394100	-0.356600	-0.910624
C162	C	1.644100	-0.106600	-0.660624
C163	C	1.894100	0.143400	-0.410624
C164	C	2.144100	0.393400	-0.160624
C165	C	1.393981	-0.356725	-0.214140
C166	C	1.643981	-0.106725	0.035860
C167	C	1.893981	0.143275	0.285860
C168	C	2.143981	0.393275	0.535860
C169	C	1.394139	-0.356545	-0.106927
C170	C	1.644139	-0.106545	0.143073
C171	C	1.894139	0.143455	0.393073
C172	C	2.144139	0.393455	0.643073
H173	H	1.451370	-0.919844	-0.314457
H174	H	1.701370	-0.669844	-0.064457
H175	H	1.951370	-0.419844	0.185543
H176	H	2.201370	-0.169844	0.435543
O177	O	1.218662	-0.925884	-0.510846
O178	O	1.468662	-0.675884	-0.260846
O179	O	1.718662	-0.425884	-0.010846
O180	O	1.968662	-0.175884	0.239154
H181	H	1.146796	-0.903415	-0.491967
H182	H	1.396796	-0.653415	-0.241967
H183	H	1.646796	-0.403415	0.008033
H184	H	1.896796	-0.153415	0.258033
O185	O	1.519495	-0.785042	-0.596197
O186	O	1.769495	-0.535042	-0.346197
O187	O	2.019495	-0.285042	-0.096197
O188	O	2.269495	-0.035042	0.153803
H189	H	1.512953	-0.753110	-0.664086
H190	H	1.762953	-0.503110	-0.414086
H191	H	2.012953	-0.253110	-0.164086
H192	H	2.262953	-0.003110	0.085914
O193	O	1.353573	-0.926240	-0.642307
O194	O	1.603573	-0.676240	-0.392307
O195	O	1.853573	-0.426240	-0.142307
O196	O	2.103573	-0.176240	0.107693
H197	H	1.296639	-0.960351	-0.608123
H198	H	1.546639	-0.710351	-0.358123
H199	H	1.796639	-0.460351	-0.108123
H200	H	2.046639	-0.210351	0.141877
H201	H	1.451419	-0.792620	-0.314876
H202	H	1.701419	-0.542620	-0.064876
H203	H	1.951419	-0.292620	0.185124
H204	H	2.201419	-0.042620	0.435124
H205	H	1.496775	-0.918710	-0.588105
H206	H	1.746775	-0.668710	-0.338105
H207	H	1.996775	-0.418710	-0.088105
H208	H	2.246775	-0.168710	0.161895
H209	H	1.369113	-0.792786	-0.623619
H210	H	1.619113	-0.542786	-0.373619
H211	H	1.869113	-0.292786	-0.123619
H212	H	2.119113	-0.042786	0.126381
H213	H	1.544275	-0.793032	-0.407508
H214	H	1.794275	-0.543032	-0.157508
H215	H	2.044275	-0.293032	0.092492
H216	H	2.294275	-0.043032	0.342492
H217	H	1.271733	-0.793137	-0.361655
H218	H	1.521733	-0.543137	-0.111655
H219	H	1.771733	-0.293137	0.138345
H220	H	2.021733	-0.043137	0.388345
O221	O	1.568017	-0.927626	-0.412648
O222	O	1.818017	-0.677626	-0.162648
O223	O	2.068017	-0.427626	0.087352
O224	O	2.318017	-0.177626	0.337352
H225	H	1.619912	-0.905181	-0.359469
H226	H	1.869912	-0.655181	-0.109469
H227	H	2.119912	-0.405181	0.140531
H228	H	2.369912	-0.155181	0.390531
H229	H	1.266939	-0.920706	-0.365893
H230	H	1.516939	-0.670706	-0.115893
H231	H	1.766939	-0.420706	0.134107
H232	H	2.016939	-0.170706	0.384107
H233	H	1.234164	-0.792004	-0.486926
H234	H	1.484164	-0.542004	-0.236926
H235	H	1.734164	-0.292004	0.013074
H236	H	1.984164	-0.042004	0.263074
