data_functionalizedCrystal
_audit_creation_method	'MofGen! by Chris Wilmer'
_symmetry_space_group_name_H-M	'P1'
_symmetry_Int_Tables_number	1
_symmetry_cell_setting	triclinic
loop_
_symmetry_equiv_pos_as_xyz
  x,y,z
_cell_length_a	9.065218
_cell_length_b	10.540539
_cell_length_c	7.540329
_cell_angle_alpha	89.998539
_cell_angle_beta	89.996962
_cell_angle_gamma	84.770688
loop_
_atom_site_label
_atom_site_type_symbol
_atom_site_fract_x
_atom_site_fract_y
_atom_site_fract_z
O1	O	1.959469	0.186143	-0.147478
O2	O	1.530108	0.201412	-0.147479
O3	O	1.754584	0.009107	-0.147476
O4	O	1.734993	0.378448	-0.147481
O5	O	1.754570	0.009105	0.147489
O6	O	1.530094	0.201409	0.147486
O7	O	1.959455	0.186141	0.147487
Cu8	Cu	1.744773	0.193775	0.174419
Cu9	Cu	1.744789	0.193778	-0.174411
O10	O	1.734979	0.378445	0.147484
C11	C	1.475122	0.199943	0.000003
C12	C	1.311301	0.195556	0.000002
C13	C	1.753108	-0.038202	0.000003
C14	C	1.748712	-0.179167	-0.000007
C15	C	1.580278	-0.363216	-0.000669
C16	C	1.584734	-0.216582	-0.000005
C17	C	1.827618	-0.240534	0.168433
C18	C	1.822022	-0.387099	0.168575
C19	C	1.825372	-0.387602	-0.166855
C20	C	1.826883	-0.240615	-0.169082
C21	C	2.014441	0.187610	0.000001
C22	C	2.178262	0.191997	-0.000009
C23	C	1.736455	0.425755	0.000001
C24	C	1.740851	0.566719	-0.000001
N25	N	1.744773	0.193772	0.419768
N26	N	1.744801	0.193771	-0.419760
H27	H	1.515508	-0.392055	-0.121460
O28	O	1.755163	-0.429690	-0.335998
H29	H	1.716985	-0.344735	-0.416321
O30	O	1.982257	-0.449581	-0.168384
H31	H	2.000019	-0.512620	-0.050953
H32	H	1.515761	-0.393663	0.119445
O33	O	1.501913	-0.161560	0.160201
H34	H	1.578150	-0.110996	0.244400
O35	O	1.744748	-0.424755	0.335342
H36	H	1.711714	-0.338316	0.415124
H37	H	1.939952	-0.434632	0.176217
H38	H	1.522646	-0.174207	-0.120750
O39	O	1.987126	-0.210328	0.176767
H40	H	2.011911	-0.151111	0.060667
O41	O	1.755013	-0.184378	0.334479
H42	H	1.636609	-0.203448	0.336147
O43	O	1.750528	-0.186674	-0.334158
H44	H	1.657297	-0.116386	-0.295966
O45	O	1.985249	-0.207957	-0.182570
H46	H	2.047635	-0.244150	-0.063515
