data_functionalizedCrystal
_audit_creation_method	'MofGen! by Chris Wilmer'
_symmetry_space_group_name_H-M	'P1'
_symmetry_Int_Tables_number	1
_symmetry_cell_setting	triclinic
loop_
_symmetry_equiv_pos_as_xyz
  x,y,z
_cell_length_a	17.019311
_cell_length_b	15.500227
_cell_length_c	15.995350
_cell_angle_alpha	87.169609
_cell_angle_beta	83.444786
_cell_angle_gamma	96.714751
loop_
_atom_site_label
_atom_site_type_symbol
_atom_site_fract_x
_atom_site_fract_y
_atom_site_fract_z
O1	O	1.054354	0.150489	0.098565
O2	O	0.823813	0.133315	0.113090
O3	O	0.945385	0.142370	-0.016093
O4	O	0.932782	0.141433	0.227748
O5	O	0.938008	-0.002068	-0.008284
O6	O	0.816436	-0.011124	0.120898
O7	O	1.046977	0.006050	0.106374
Cu8	Cu	0.931033	-0.015725	0.114349
Cu9	Cu	0.939757	0.155090	0.105115
O10	O	0.925404	-0.003005	0.235557
C11	C	0.790623	0.058898	0.116596
C12	C	0.702719	0.052350	0.115401
N13	N	0.924902	-0.135867	0.120844
C14	C	0.205346	0.011366	0.108881
C15	C	0.287941	0.017521	0.110004
C16	C	0.333261	0.099333	0.106303
C17	C	0.295981	0.174995	0.101487
C18	C	0.213386	0.168840	0.100370
C19	C	0.582844	0.121857	0.109468
C20	C	0.665445	0.128006	0.110583
C21	C	0.657399	-0.029469	0.119102
C22	C	0.574804	-0.035617	0.117979
C23	C	0.537530	0.040046	0.113167
C24	C	0.417687	0.105626	0.107448
C25	C	0.453105	0.033752	0.112028
C26	C	0.976434	-0.177305	0.066124
C27	C	0.971805	-0.268222	0.071044
C28	C	0.915647	-0.317700	0.130687
C29	C	0.864109	-0.276256	0.185409
C30	C	0.868735	-0.185340	0.180485
C31	C	0.898982	-0.592408	0.148411
C32	C	0.894362	-0.683330	0.153333
C33	C	1.002057	-0.675290	0.038966
C34	C	1.006682	-0.584373	0.034051
C35	C	0.955141	-0.542937	0.088770
C36	C	0.910915	-0.410632	0.135719
C37	C	0.959869	-0.450006	0.083734
C38	C	1.080167	0.080469	0.102867
C39	C	1.168071	0.087023	0.104063
C40	C	0.941176	0.070114	-0.043380
C41	C	0.939614	0.070003	-0.136323
N42	N	0.945894	0.275232	0.098614
C43	C	0.934004	0.069582	-0.474041
C44	C	0.847439	0.063456	-0.426175
C45	C	0.848984	0.063247	-0.329476
C46	C	0.936787	0.069791	-0.306495
C47	C	0.975279	-0.009508	-0.343335
C48	C	0.973100	-0.009739	-0.439956
C49	C	0.983278	0.154648	-0.449203
C50	C	0.983313	0.155736	-0.352317
C51	C	0.938364	0.069907	-0.211806
C52	C	0.932429	0.069460	-0.568731
C53	C	0.929614	0.069253	0.262844
C54	C	0.931176	0.069370	0.355787
H55	H	0.168451	-0.055254	0.111899
O56	O	0.404347	-0.054564	0.116125
H57	H	0.411347	-0.091525	0.175484
H58	H	0.183038	0.230447	0.096448
H59	H	1.036476	-0.008743	-0.472332
O60	O	0.797825	-0.017860	-0.447672
H61	H	0.745719	0.000391	-0.477275
H62	H	1.047143	0.159960	-0.481326
O63	O	1.060516	-0.007213	-0.324849
H64	H	1.067042	-0.067237	-0.286805
H65	H	0.332886	0.241608	0.098478
H66	H	1.022168	-0.137025	0.017560
O67	O	0.946142	0.233489	-0.320313
H68	H	0.991054	0.276873	-0.291918
H69	H	0.958164	0.215054	-0.472976
H70	H	1.005591	-0.409719	0.035169
O71	O	0.328143	-0.064080	0.115234
H72	H	0.282753	-0.122002	0.117622
H73	H	0.454596	0.172237	0.104432
O74	O	1.027400	-0.312919	0.012041
H75	H	1.067239	-0.263239	-0.030247
O76	O	1.067245	-0.531007	-0.030285
H77	H	1.102297	-0.575097	-0.067516
H78	H	1.044018	-0.709036	-0.005584
H79	H	1.047597	0.165489	-0.337557
O80	O	0.805599	0.138385	-0.454730
H81	H	0.789052	0.176653	-0.399986
O82	O	0.525957	-0.123858	0.121745
H83	H	0.462272	-0.115426	0.120066
O84	O	0.697597	-0.111074	0.124305
H85	H	0.762643	-0.093054	0.124469
H86	H	0.552506	0.183467	0.105547
O87	O	0.833779	-0.736702	0.217655
H88	H	0.798709	-0.692616	0.254870
O89	O	0.843398	-0.547725	0.207434
H90	H	0.878835	-0.503802	0.245728
O91	O	0.813146	-0.140635	0.239489
H92	H	0.848575	-0.096703	0.277784
H93	H	0.702342	0.194631	0.107575
H94	H	0.818380	-0.316546	0.233969
H95	H	0.812165	0.001504	-0.298234
O96	O	0.850355	-0.464000	0.200057
H97	H	0.809769	-0.508308	0.167232
H98	H	0.938810	-0.073716	-0.454763
O99	O	0.808503	0.138240	-0.295825
H100	H	0.840433	0.200429	-0.326237
H101	H	0.942483	-0.073098	-0.311482
