data_functionalizedCrystal
_audit_creation_method	'MofGen! by Chris Wilmer'
_symmetry_space_group_name_H-M	'P1'
_symmetry_Int_Tables_number	1
_symmetry_cell_setting	triclinic
loop_
_symmetry_equiv_pos_as_xyz
  x,y,z
_cell_length_a	10.540535
_cell_length_b	9.616153
_cell_length_c	10.540539
_cell_angle_alpha	89.999906
_cell_angle_beta	95.475433
_cell_angle_gamma	90.004501
loop_
_atom_site_label
_atom_site_type_symbol
_atom_site_fract_x
_atom_site_fract_y
_atom_site_fract_z
O1	O	1.685895	0.115562	-0.178868
O2	O	1.316482	0.115581	-0.195730
O3	O	1.509617	0.115570	-0.002592
O4	O	1.492761	0.115574	-0.372006
O5	O	1.509590	-0.115722	-0.002596
O6	O	1.316455	-0.115710	-0.195734
O7	O	1.685869	-0.115729	-0.178872
Zn8	Zn	1.501158	-0.152442	-0.187304
Zn9	Zn	1.501193	0.152294	-0.187298
O10	O	1.492734	-0.115717	-0.372010
C11	C	1.269165	-0.000062	-0.194469
C12	C	1.128217	-0.000055	-0.190689
N13	N	1.501143	-0.360417	-0.187307
C14	C	1.091546	-0.000062	-0.049675
C15	C	0.944946	-0.000601	-0.045698
C16	C	0.918866	-0.131892	-0.255062
C17	C	1.065631	-0.131989	-0.258062
C18	C	1.065545	0.131042	-0.260109
C19	C	0.919199	0.132760	-0.253588
C20	C	1.397513	-0.580780	-0.290276
C21	C	1.397741	-0.419613	-0.290661
C22	C	1.633867	-0.418872	-0.217438
C23	C	1.633302	-0.580090	-0.218167
C24	C	1.473371	-0.580328	-0.053868
C25	C	1.470324	-0.419101	-0.054733
C26	C	1.733185	-0.000083	-0.180133
C27	C	1.874134	-0.000081	-0.183913
C28	C	1.508339	-0.000073	0.044709
C29	C	1.504557	-0.000066	0.185657
N30	N	1.501218	0.360269	-0.187285
C31	C	1.494011	-0.000071	-0.419311
C32	C	1.497793	-0.000070	-0.560259
C33	C	1.359640	0.000461	0.369081
C34	C	1.363474	-0.000060	0.222463
C35	C	1.572438	-0.132148	0.247313
C36	C	1.567623	-0.132259	0.393858
C37	C	1.570523	0.130762	0.394380
C38	C	1.571822	0.132509	0.247399
H39	H	0.915619	0.093868	0.009945
H40	H	1.672427	0.131645	0.441608
H41	H	1.657657	-0.617679	-0.315504
H42	H	1.133526	0.094449	0.004477
F43	F	1.121055	0.261676	-0.202592
F44	F	1.148330	-0.123433	0.019920
H45	H	1.378634	-0.621060	-0.025190
F46	F	1.420616	-0.633691	-0.418927
H47	H	0.916482	-0.095648	0.009669
F48	F	1.421095	-0.369180	-0.420052
F49	F	1.286886	-0.122305	0.408989
H50	H	1.676045	-0.137064	0.224961
H51	H	1.309664	-0.094894	0.180705
F52	F	1.094497	0.132681	-0.395733
F53	F	0.881864	0.260223	-0.185891
H54	H	1.525262	-0.230434	0.204711
H55	H	1.522155	0.230219	0.206541
H56	H	0.870152	0.141131	-0.354461
F57	F	1.293659	0.123696	0.166775
F58	F	1.510846	0.261614	0.435609
F59	F	1.118127	-0.261271	-0.195263
F60	F	1.706269	0.142936	0.215736
H61	H	1.548983	-0.618448	0.022788
H62	H	1.658764	-0.378482	-0.313675
F63	F	1.268824	-0.367954	-0.267029
H64	H	1.712945	-0.619083	-0.146176
H65	H	1.517433	-0.230988	0.422055
F66	F	1.095738	-0.139335	-0.393178
H67	H	1.298588	-0.619587	-0.272424
H68	H	0.871509	-0.136421	-0.356827
F69	F	0.878464	-0.260607	-0.191264
H70	H	1.372686	-0.380896	-0.031894
H71	H	1.712922	-0.380525	-0.144473
F72	F	1.562517	-0.366454	0.050255
H73	H	1.303919	0.095179	0.397682
H74	H	1.669088	-0.138256	0.441828
