data_functionalizedCrystal
_audit_creation_method	'MofGen! by Chris Wilmer'
_symmetry_space_group_name_H-M	'P1'
_symmetry_Int_Tables_number	1
_symmetry_cell_setting	triclinic
loop_
_symmetry_equiv_pos_as_xyz
  x,y,z
_cell_length_a	12.811439
_cell_length_b	12.837943
_cell_length_c	11.892095
_cell_angle_alpha	94.305320
_cell_angle_beta	88.502246
_cell_angle_gamma	90.589200
loop_
_atom_site_label
_atom_site_type_symbol
_atom_site_fract_x
_atom_site_fract_y
_atom_site_fract_z
O1	O	-1.403419	0.143153	0.049861
O2	O	-0.903419	0.643153	0.549861
O3	O	-1.101351	0.156175	0.018896
O4	O	-0.601351	0.656175	0.518896
O5	O	-1.245687	-0.001316	0.033691
O6	O	-0.745687	0.498684	0.533691
O7	O	-1.259083	0.300644	0.035066
O8	O	-0.759083	0.800644	0.535066
O9	O	-1.233650	0.011795	0.220465
O10	O	-0.733650	0.511795	0.720465
O11	O	-1.089314	0.169286	0.205670
O12	O	-0.589314	0.669286	0.705670
O13	O	-1.391383	0.156264	0.236635
O14	O	-0.891383	0.656264	0.736635
Zn15	Zn	-1.238437	0.164857	0.250806
Zn16	Zn	-0.738437	0.664857	0.750806
Zn17	Zn	-1.254296	0.147582	0.004724
Zn18	Zn	-0.754296	0.647582	0.504724
O19	O	-1.247046	0.313755	0.221840
O20	O	-0.747046	0.813755	0.721840
C21	C	-1.056401	0.161600	0.108292
C22	C	-0.556401	0.661600	0.608292
C23	C	-0.940395	0.158219	0.096400
C24	C	-0.440395	0.658219	0.596400
C25	C	-0.709283	0.166141	0.277697
C26	C	-0.209283	0.666141	0.777697
C27	C	-0.600284	0.162964	0.266529
C28	C	-0.100284	0.662964	0.766529
C29	C	-0.613398	0.148681	0.062897
C30	C	-0.113398	0.648681	0.562897
C31	C	-0.722396	0.151858	0.074065
C32	C	-0.222396	0.651858	0.574065
C33	C	-0.770334	0.160589	0.181469
C34	C	-0.270334	0.660589	0.681469
C35	C	-0.879335	0.163774	0.192635
C36	C	-0.379335	0.663774	0.692635
C37	C	-0.892447	0.149483	-0.010995
C38	C	-0.392447	0.649483	0.489005
C39	C	-0.783448	0.146306	-0.022163
C40	C	-0.283448	0.646306	0.477837
C41	C	-1.235143	-0.033433	0.126611
C42	C	-0.735143	0.466567	0.626611
C43	C	-1.221647	-0.148666	0.125220
C44	C	-0.721647	0.351334	0.625220
C45	C	-0.436333	0.150843	0.147239
C46	C	0.063667	0.650843	0.647239
C47	C	-0.552338	0.154236	0.159133
C48	C	-0.052338	0.654236	0.659133
C49	C	-1.257590	0.345872	0.128917
C50	C	-0.757590	0.845872	0.628917
C51	C	-1.271087	0.461105	0.130301
C52	C	-0.771087	0.961105	0.630301
N53	N	-1.227622	0.176645	0.418752
N54	N	-0.727622	0.676645	0.918752
C55	C	-1.108831	0.700193	0.113648
C56	C	-0.608831	1.200193	0.613648
C57	C	-1.121508	0.808465	0.114947
C58	C	-0.621508	1.308465	0.614947
C59	C	-1.309116	0.785922	0.134191
C60	C	-0.809116	1.285922	0.634191
C61	C	-1.296440	0.677650	0.132891
C62	C	-0.796440	1.177650	0.632891
C63	C	-1.196294	0.634790	0.122621
C64	C	-0.696294	1.134790	0.622621
C65	C	-1.183617	0.526517	0.121330
C66	C	-0.683617	1.026517	0.621330
C67	C	-1.371226	0.503975	0.140566
C68	C	-0.871226	1.003975	0.640566
C69	C	-1.383903	0.612247	0.141865
C70	C	-0.883903	1.112247	0.641865
N71	N	-1.265119	0.135786	-0.163221
N72	N	-0.765119	0.635786	0.336779
C73	C	-1.340372	0.053696	0.666957
C74	C	-0.840372	0.553696	1.166957
C75	C	-1.332821	0.061944	0.784525
C76	C	-0.832821	0.561944	1.284525
C77	C	-1.204962	0.201383	0.771457
C78	C	-0.704962	0.701383	1.271457
C79	C	-1.212514	0.193135	0.653889
C80	C	-0.712514	0.693135	1.153889
C81	C	-1.280222	0.119290	0.601644
C82	C	-0.780222	0.619290	1.101644
C83	C	-1.287779	0.111048	0.484074
C84	C	-0.787779	0.611048	0.984074
C85	C	-1.159915	0.250481	0.471008
C86	C	-0.659915	0.750481	0.971008
C87	C	-1.152363	0.258729	0.588576
C88	C	-0.652363	0.758729	1.088576
H89	H	-0.550579	0.167490	0.344889
H90	H	-0.050579	0.667490	0.844889
Cl91	Cl	-1.481185	0.421747	0.151850
Cl92	Cl	-0.981185	0.921747	0.651850
Cl93	Cl	-1.067246	0.351556	0.654264
Cl94	Cl	-0.567246	0.851556	1.154264
Cl95	Cl	-0.553118	0.137605	-0.072112
Cl96	Cl	-0.053118	0.637605	0.427888
H97	H	-0.744402	0.139192	-0.109608
H98	H	-0.244402	0.639192	0.390392
Cl99	Cl	-0.969204	0.142522	-0.131976
Cl100	Cl	-0.469204	0.642522	0.368024
H101	H	-1.390646	0.820843	0.142623
H102	H	-0.890646	1.320843	0.642623
Cl103	Cl	-1.425501	-0.039124	0.601276
Cl104	Cl	-0.925501	0.460876	1.101276
H105	H	-1.110940	0.303895	0.417816
H106	H	-0.610940	0.803895	0.917816
Cl107	Cl	-1.057721	0.472637	0.108423
Cl108	Cl	-0.557721	0.972637	0.608423
H109	H	-1.342913	0.050923	0.441538
H110	H	-0.842913	0.550923	0.941538
Cl111	Cl	-1.408439	-0.020523	0.866630
Cl112	Cl	-0.908439	0.479477	1.366630
H113	H	-1.149828	0.261498	0.814010
H114	H	-0.649828	0.761498	1.314010
Cl115	Cl	-0.982936	0.646309	0.100755
Cl116	Cl	-0.482936	1.146309	0.600755
H117	H	-1.050286	0.861713	0.107639
H118	H	-0.550286	1.361713	0.607639
Cl119	Cl	-1.509794	0.666138	0.154771
Cl120	Cl	-1.009794	1.166138	0.654771
Cl121	Cl	-0.939598	0.174753	0.327655
Cl122	Cl	-0.439598	0.674753	0.827655
Cl123	Cl	-0.769551	0.177132	0.412714
Cl124	Cl	-0.269551	0.677132	0.912714
