data_functionalizedCrystal
_audit_creation_method	'MofGen! by Chris Wilmer'
_symmetry_space_group_name_H-M	'P1'
_symmetry_Int_Tables_number	1
_symmetry_cell_setting	triclinic
loop_
_symmetry_equiv_pos_as_xyz
  x,y,z
_cell_length_a	23.532407
_cell_length_b	23.532407
_cell_length_c	12.996460
_cell_angle_alpha	90.004951
_cell_angle_beta	90.000844
_cell_angle_gamma	82.848678
loop_
_atom_site_label
_atom_site_type_symbol
_atom_site_fract_x
_atom_site_fract_y
_atom_site_fract_z
O1	O	0.755261	0.069131	0.085449
O2	O	1.005261	0.319131	0.335449
O3	O	1.255261	0.569131	0.585449
O4	O	1.505261	0.819131	0.835449
O5	O	0.589398	0.079134	0.085480
O6	O	0.839398	0.329134	0.335480
O7	O	1.089398	0.579134	0.585480
O8	O	1.339398	0.829134	0.835480
O9	O	0.677331	-0.008799	0.085445
O10	O	0.927331	0.241201	0.335445
O11	O	1.177331	0.491201	0.585445
O12	O	1.427331	0.741201	0.835445
O13	O	0.667328	0.157064	0.085484
O14	O	0.917328	0.407064	0.335484
O15	O	1.167328	0.657064	0.585484
O16	O	1.417328	0.907064	0.835484
O17	O	0.677320	-0.008794	-0.085689
O18	O	0.927320	0.241206	0.164311
O19	O	1.177320	0.491206	0.414311
O20	O	1.427320	0.741206	0.664311
O21	O	0.589387	0.079139	-0.085653
O22	O	0.839387	0.329139	0.164347
O23	O	1.089387	0.579139	0.414347
O24	O	1.339387	0.829139	0.664347
O25	O	0.755250	0.069136	-0.085685
O26	O	1.005250	0.319136	0.164315
O27	O	1.255250	0.569136	0.414315
O28	O	1.505250	0.819136	0.664315
Cu29	Cu	0.672317	0.074138	-0.101295
Cu30	Cu	0.922317	0.324138	0.148705
Cu31	Cu	1.172317	0.574138	0.398705
Cu32	Cu	1.422317	0.824138	0.648705
Cu33	Cu	0.672331	0.074132	0.101091
Cu34	Cu	0.922331	0.324132	0.351091
Cu35	Cu	1.172331	0.574132	0.601091
Cu36	Cu	1.422331	0.824132	0.851091
O37	O	0.667317	0.157069	-0.085649
O38	O	0.917317	0.407069	0.164351
O39	O	1.167317	0.657069	0.414351
O40	O	1.417317	0.907069	0.664351
C41	C	0.568176	0.078882	-0.000083
C42	C	0.818176	0.328882	0.249917
C43	C	1.068176	0.578882	0.499917
C44	C	1.318176	0.828882	0.749917
C45	C	0.504959	0.078116	-0.000071
C46	C	0.754959	0.328116	0.249929
C47	C	1.004959	0.578116	0.499929
C48	C	1.254959	0.828116	0.749929
C49	C	0.105856	0.125350	-0.000107
C50	C	0.355856	0.375350	0.249893
C51	C	0.605856	0.625350	0.499893
C52	C	0.855856	0.875350	0.749893
C53	C	0.046456	0.124638	-0.000113
C54	C	0.296456	0.374638	0.249887
C55	C	0.546456	0.624638	0.499887
C56	C	0.796456	0.874638	0.749887
O57	O	0.009711	0.168424	-0.000140
O58	O	0.259711	0.418424	0.249860
O59	O	0.509711	0.668424	0.499860
O60	O	0.759711	0.918424	0.749860
N61	N	0.023830	0.072362	-0.000124
N62	N	0.273830	0.322362	0.249876
N63	N	0.523830	0.572362	0.499876
N64	N	0.773830	0.822362	0.749876
C65	C	0.060607	0.020794	-0.000139
C66	C	0.310607	0.270794	0.249861
C67	C	0.560607	0.520794	0.499861
C68	C	0.810607	0.770794	0.749861
O69	O	0.035908	-0.023737	-0.000149
O70	O	0.285908	0.226263	0.249851
O71	O	0.535908	0.476263	0.499851
O72	O	0.785908	0.726263	0.749851
C73	C	0.120006	0.021506	-0.000140
C74	C	0.370006	0.271506	0.249860
C75	C	0.620006	0.521506	0.499860
C76	C	0.870006	0.771506	0.749860
C77	C	0.142629	0.073785	-0.000118
C78	C	0.392629	0.323785	0.249882
C79	C	0.642629	0.573785	0.499882
C80	C	0.892629	0.823785	0.749882
C81	C	0.128479	0.177625	-0.000087
C82	C	0.378479	0.427625	0.249913
C83	C	0.628479	0.677625	0.499913
C84	C	0.878479	0.927625	0.749913
C85	C	0.187876	0.178336	-0.000078
C86	C	0.437876	0.428336	0.249922
C87	C	0.687876	0.678336	0.499922
C88	C	0.937876	0.928336	0.749922
C89	C	0.224649	0.126772	-0.000090
C90	C	0.474649	0.376772	0.249910
C91	C	0.724649	0.626772	0.499910
C92	C	0.974649	0.876772	0.749910
C93	C	0.202025	0.074497	-0.000110
C94	C	0.452025	0.324497	0.249890
C95	C	0.702025	0.574497	0.499890
C96	C	0.952025	0.824497	0.749890
C97	C	0.156783	-0.030062	-0.000162
C98	C	0.406783	0.219938	0.249838
C99	C	0.656783	0.469938	0.499838
C100	C	0.906783	0.719938	0.749838
C101	C	0.216185	-0.029345	-0.000163
C102	C	0.466185	0.220655	0.249837
C103	C	0.716185	0.470655	0.499837
C104	C	0.966185	0.720655	0.749837
C105	C	0.238808	0.022934	-0.000142
C106	C	0.488808	0.272934	0.249858
C107	C	0.738808	0.522934	0.499858
C108	C	0.988808	0.772934	0.749858
C109	C	0.298194	0.023643	-0.000113
C110	C	0.548194	0.273643	0.249887
C111	C	0.798194	0.523643	0.499887
C112	C	1.048194	0.773643	0.749887
N113	N	0.320820	0.075920	-0.000103
N114	N	0.570820	0.325920	0.249897
N115	N	0.820820	0.575920	0.499897
N116	N	1.070820	0.825920	0.749897
C117	C	0.284048	0.127484	-0.000091
C118	C	0.534048	0.377484	0.249909
C119	C	0.784048	0.627484	0.499909
C120	C	1.034048	0.877484	0.749909
C121	C	-0.064135	0.019302	-0.000139
C122	C	0.185865	0.269302	0.249861
C123	C	0.435865	0.519302	0.499861
C124	C	0.685865	0.769302	0.749861
C125	C	-0.123533	0.018589	-0.000130
C126	C	0.126467	0.268589	0.249870
C127	C	0.376467	0.518589	0.499870
C128	C	0.626467	0.768589	0.749870
C129	C	-0.137680	0.122434	-0.000107
C130	C	0.112320	0.372434	0.249893
C131	C	0.362320	0.622434	0.499893
C132	C	0.612320	0.872434	0.749893
C133	C	-0.078281	0.123146	-0.000108
C134	C	0.171719	0.373146	0.249892
C135	C	0.421719	0.623146	0.499892
C136	C	0.671719	0.873146	0.749892
C137	C	-0.041509	0.071578	-0.000128
C138	C	0.208491	0.321578	0.249872
C139	C	0.458491	0.571578	0.499872
C140	C	0.708491	0.821578	0.749872
C141	C	0.408784	0.128974	-0.000072
C142	C	0.658784	0.378974	0.249928
C143	C	0.908784	0.628974	0.499928
C144	C	1.158784	0.878974	0.749928
C145	C	0.468186	0.129680	-0.000060
C146	C	0.718186	0.379680	0.249940
C147	C	0.968186	0.629680	0.499940
C148	C	1.218186	0.879680	0.749940
C149	C	0.482329	0.025836	-0.000089
C150	C	0.732329	0.275836	0.249911
C151	C	0.982329	0.525836	0.499911
C152	C	1.232329	0.775836	0.749911
C153	C	0.422932	0.025129	-0.000096
C154	C	0.672932	0.275129	0.249904
C155	C	0.922932	0.525129	0.499904
C156	C	1.172932	0.775129	0.749904
C157	C	0.386160	0.076702	-0.000091
C158	C	0.636160	0.326702	0.249909
C159	C	0.886160	0.576702	0.499909
C160	C	1.136160	0.826702	0.749909
O161	O	0.334974	-0.020119	-0.000091
O162	O	0.584974	0.229881	0.249909
O163	O	0.834974	0.479881	0.499909
O164	O	1.084974	0.729881	0.749909
O165	O	0.308755	0.172007	-0.000094
O166	O	0.558755	0.422007	0.249906
O167	O	0.808755	0.672007	0.499906
O168	O	1.058755	0.922007	0.749906
C169	C	0.677071	-0.030013	-0.000125
C170	C	0.927071	0.219987	0.249875
C171	C	1.177071	0.469987	0.499875
C172	C	1.427071	0.719987	0.749875
C173	C	0.676305	-0.093230	-0.000132
C174	C	0.926305	0.156770	0.249868
C175	C	1.176305	0.406770	0.499868
C176	C	1.426305	0.656770	0.749868
C177	C	0.723539	-0.492333	-0.000085
C178	C	0.973539	-0.242333	0.249915
C179	C	1.223539	0.007667	0.499915
C180	C	1.473539	0.257667	0.749915
C181	C	0.722827	-0.551733	-0.000077
C182	C	0.972827	-0.301733	0.249923
C183	C	1.222827	-0.051733	0.499923
C184	C	1.472827	0.198267	0.749923
O185	O	0.766613	-0.588478	-0.000047
O186	O	1.016613	-0.338478	0.249953
O187	O	1.266613	-0.088478	0.499953
O188	O	1.516613	0.161522	0.749953
N189	N	0.670551	-0.574359	-0.000068
N190	N	0.920551	-0.324359	0.249932
N191	N	1.170551	-0.074359	0.499932
N192	N	1.420551	0.175641	0.749932
C193	C	0.618983	-0.537582	-0.000056
C194	C	0.868983	-0.287582	0.249944
C195	C	1.118983	-0.037582	0.499944
C196	C	1.368983	0.212418	0.749944
O197	O	0.574452	-0.562281	-0.000047
O198	O	0.824452	-0.312281	0.249953
O199	O	1.074452	-0.062281	0.499953
O200	O	1.324452	0.187719	0.749953
C201	C	0.619695	-0.478182	-0.000057
C202	C	0.869695	-0.228182	0.249943
C203	C	1.119695	0.021818	0.499943
C204	C	1.369695	0.271818	0.749943
C205	C	0.671974	-0.455560	-0.000076
C206	C	0.921974	-0.205560	0.249924
C207	C	1.171974	0.044440	0.499924
C208	C	1.421974	0.294440	0.749924
C209	C	0.775814	-0.469710	-0.000104
C210	C	1.025814	-0.219710	0.249896
C211	C	1.275814	0.030290	0.499896
C212	C	1.525814	0.280290	0.749896
C213	C	0.776525	-0.410313	-0.000113
C214	C	1.026525	-0.160313	0.249887
C215	C	1.276525	0.089687	0.499887
C216	C	1.526525	0.339687	0.749887
C217	C	0.724961	-0.373540	-0.000105
C218	C	0.974961	-0.123540	0.249895
C219	C	1.224961	0.126460	0.499895
C220	C	1.474961	0.376460	0.749895
C221	C	0.672685	-0.396164	-0.000086
C222	C	0.922685	-0.146164	0.249914
C223	C	1.172685	0.103836	0.499914
C224	C	1.422685	0.353836	0.749914
C225	C	0.568127	-0.441406	-0.000038
C226	C	0.818127	-0.191406	0.249962
C227	C	1.068127	0.058594	0.499962
C228	C	1.318127	0.308594	0.749962
C229	C	0.568844	-0.382004	-0.000037
C230	C	0.818844	-0.132004	0.249963
C231	C	1.068844	0.117996	0.499963
C232	C	1.318844	0.367996	0.749963
C233	C	0.621123	-0.359381	-0.000057
C234	C	0.871123	-0.109381	0.249943
C235	C	1.121123	0.140619	0.499943
C236	C	1.371123	0.390619	0.749943
C237	C	0.621832	-0.299995	-0.000087
C238	C	0.871832	-0.049995	0.249913
C239	C	1.121832	0.200005	0.499913
C240	C	1.371832	0.450005	0.749913
N241	N	0.674109	-0.277368	-0.000097
N242	N	0.924109	-0.027368	0.249903
N243	N	1.174109	0.222632	0.499903
N244	N	1.424109	0.472632	0.749903
C245	C	0.725673	-0.314141	-0.000105
C246	C	0.975673	-0.064141	0.249895
C247	C	1.225673	0.185859	0.499895
C248	C	1.475673	0.435859	0.749895
C249	C	0.617491	-0.662324	-0.000053
C250	C	0.867491	-0.412324	0.249947
C251	C	1.117491	-0.162324	0.499947
C252	C	1.367491	0.087676	0.749947
C253	C	0.616778	-0.721722	-0.000060
C254	C	0.866778	-0.471722	0.249940
C255	C	1.116778	-0.221722	0.499940
C256	C	1.366778	0.028278	0.749940
C257	C	0.720623	-0.735869	-0.000079
C258	C	0.970623	-0.485869	0.249921
C259	C	1.220623	-0.235869	0.499921
C260	C	1.470623	0.014131	0.749921
C261	C	0.721335	-0.676470	-0.000080
C262	C	0.971335	-0.426470	0.249920
C263	C	1.221335	-0.176470	0.499920
C264	C	1.471335	0.073530	0.749920
C265	C	0.669767	-0.639698	-0.000062
C266	C	0.919767	-0.389698	0.249938
C267	C	1.169767	-0.139698	0.499938
C268	C	1.419767	0.110302	0.749938
C269	C	0.727163	-0.189405	-0.000127
C270	C	0.977163	0.060595	0.249873
C271	C	1.227163	0.310595	0.499873
C272	C	1.477163	0.560595	0.749873
C273	C	0.727869	-0.130003	-0.000141
C274	C	0.977869	0.119997	0.249859
C275	C	1.227869	0.369997	0.499859
C276	C	1.477869	0.619997	0.749859
C277	C	0.624025	-0.115860	-0.000117
C278	C	0.874025	0.134140	0.249883
C279	C	1.124025	0.384140	0.499883
C280	C	1.374025	0.634140	0.749883
C281	C	0.623318	-0.175257	-0.000108
C282	C	0.873318	0.074743	0.249892
C283	C	1.123318	0.324743	0.499892
C284	C	1.373318	0.574743	0.749892
C285	C	0.674891	-0.212029	-0.000110
C286	C	0.924891	0.037971	0.249890
C287	C	1.174891	0.287971	0.499890
C288	C	1.424891	0.537971	0.749890
O289	O	0.578070	-0.263215	-0.000113
O290	O	0.828070	-0.013215	0.249887
O291	O	1.078070	0.236785	0.499887
O292	O	1.328070	0.486785	0.749887
O293	O	0.770196	-0.289433	-0.000101
O294	O	1.020196	-0.039433	0.249899
O295	O	1.270196	0.210567	0.499899
O296	O	1.520196	0.460567	0.749899
C297	C	0.776472	0.069388	-0.000120
C298	C	1.026472	0.319388	0.249880
C299	C	1.276472	0.569388	0.499880
C300	C	1.526472	0.819388	0.749880
C301	C	0.839689	0.070154	-0.000124
C302	C	1.089689	0.320154	0.249876
C303	C	1.339689	0.570154	0.499876
C304	C	1.589689	0.820154	0.749876
C305	C	0.667577	0.178283	-0.000078
C306	C	0.917577	0.428283	0.249922
C307	C	1.167577	0.678283	0.499922
C308	C	1.417577	0.928283	0.749922
C309	C	0.668343	0.241500	-0.000063
C310	C	0.918343	0.491500	0.249937
C311	C	1.168343	0.741500	0.499937
C312	C	1.418343	0.991500	0.749937
N313	N	0.672312	0.074142	-0.243642
N314	N	0.922312	0.324142	0.006358
N315	N	1.172312	0.574142	0.256358
N316	N	1.422312	0.824142	0.506358
C317	C	0.672315	0.074143	-0.336748
C318	C	0.922315	0.324143	-0.086748
C319	C	1.172315	0.574143	0.163252
C320	C	1.422315	0.824143	0.413252
C321	C	0.672320	0.074140	-0.453553
C322	C	0.922320	0.324140	-0.203553
C323	C	1.172320	0.574140	0.046447
C324	C	1.422320	0.824140	0.296447
C325	C	0.672327	0.074133	-0.546652
C326	C	0.922327	0.324133	-0.296652
C327	C	1.172327	0.574133	-0.046652
C328	C	1.422327	0.824133	0.203348
C329	C	0.672333	0.074130	-0.663464
C330	C	0.922333	0.324130	-0.413464
C331	C	1.172333	0.574130	-0.163464
C332	C	1.422333	0.824130	0.086536
N333	N	0.672340	0.074124	0.243438
N334	N	0.922340	0.324124	0.493438
N335	N	1.172340	0.574124	0.743438
N336	N	1.422340	0.824124	0.993438
H337	H	0.138375	-0.072634	-0.000180
H338	H	0.388375	0.177366	0.249820
H339	H	0.638375	0.427366	0.499820
H340	H	0.888375	0.677366	0.749820
N341	N	-0.146628	-0.034818	-0.000129
N342	N	0.103372	0.215182	0.249871
N343	N	0.353372	0.465182	0.499871
N344	N	0.603372	0.715182	0.749871
N345	N	-0.113782	-0.080851	-0.000134
N346	N	0.136218	0.169149	0.249866
N347	N	0.386218	0.419149	0.499866
N348	N	0.636218	0.669149	0.749866
H349	H	-0.130090	-0.118572	-0.000137
H350	H	0.119910	0.131428	0.249863
H351	H	0.369910	0.381428	0.499863
H352	H	0.619910	0.631428	0.749863
H353	H	0.526850	-0.352066	-0.000022
H354	H	0.776850	-0.102066	0.249978
H355	H	1.026850	0.147934	0.499978
H356	H	1.276850	0.397934	0.749978
N357	N	0.773303	-0.773429	-0.000089
N358	N	1.023303	-0.523429	0.249911
N359	N	1.273303	-0.273429	0.499911
N360	N	1.523303	-0.023429	0.749911
N361	N	0.808145	-0.771541	-0.072231
N362	N	1.058145	-0.521541	0.177769
N363	N	1.308145	-0.271541	0.427769
N364	N	1.558145	-0.021541	0.677769
H365	H	0.845349	-0.798067	-0.072239
H366	H	1.095349	-0.548067	0.177761
H367	H	1.345349	-0.298067	0.427761
H368	H	1.595349	-0.048067	0.677761
N369	N	0.563376	-0.744826	-0.000030
N370	N	0.813376	-0.494826	0.249970
N371	N	1.063376	-0.244826	0.499970
N372	N	1.313376	0.005174	0.749970
N373	N	0.551394	-0.776383	0.072117
N374	N	0.801394	-0.526383	0.322117
N375	N	1.051394	-0.276383	0.572117
N376	N	1.301394	-0.026383	0.822117
H377	H	0.513677	-0.792698	0.072145
H378	H	0.763677	-0.542698	0.322145
H379	H	1.013677	-0.292698	0.572145
H380	H	1.263677	-0.042698	0.822145
H381	H	0.769159	-0.219337	-0.000124
H382	H	1.019159	0.030663	0.249876
H383	H	1.269159	0.280663	0.499876
H384	H	1.519159	0.530663	0.749876
N385	N	0.090924	0.230303	-0.000094
N386	N	0.340924	0.480303	0.249906
N387	N	0.590924	0.730303	0.499906
N388	N	0.840924	0.980303	0.749906
N389	N	0.092828	0.265148	-0.072223
N390	N	0.342828	0.515148	0.177777
N391	N	0.592828	0.765148	0.427777
N392	N	0.842828	1.015148	0.677777
H393	H	0.066308	0.302356	-0.072224
H394	H	0.316308	0.552356	0.177776
H395	H	0.566308	0.802356	0.427776
H396	H	0.816308	1.052356	0.677776
N397	N	0.564807	-0.624772	-0.000039
N398	N	0.814807	-0.374772	0.249961
N399	N	1.064807	-0.124772	0.499961
N400	N	1.314807	0.125228	0.749961
N401	N	0.518139	-0.644987	-0.000029
N402	N	0.768139	-0.394987	0.249971
N403	N	1.018139	-0.144987	0.499971
N404	N	1.268139	0.105013	0.749971
H405	H	0.480930	-0.618469	-0.000017
H406	H	0.730930	-0.368469	0.249983
H407	H	0.980930	-0.118469	0.499983
H408	H	1.230930	0.131531	0.749983
N409	N	0.253739	-0.082028	-0.000195
N410	N	0.503739	0.167972	0.249805
N411	N	0.753739	0.417972	0.499805
N412	N	1.003739	0.667972	0.749805
N413	N	0.233527	-0.128698	-0.000219
N414	N	0.483527	0.121302	0.249781
N415	N	0.733527	0.371302	0.499781
N416	N	0.983527	0.621302	0.749781
H417	H	0.260047	-0.165905	-0.000241
H418	H	0.510047	0.084095	0.249759
H419	H	0.760047	0.334095	0.499759
H420	H	1.010047	0.584095	0.749759
H421	H	0.525555	-0.459814	-0.000015
H422	H	0.775555	-0.209814	0.249985
H423	H	1.025555	0.040186	0.499985
H424	H	1.275555	0.290186	0.749985
N425	N	0.781269	-0.106886	-0.000169
N426	N	1.031269	0.143114	0.249831
N427	N	1.281269	0.393114	0.499831
N428	N	1.531269	0.643114	0.749831
N429	N	0.793247	-0.075326	-0.072315
N430	N	1.043247	0.174674	0.177685
N431	N	1.293247	0.424674	0.427685
N432	N	1.543247	0.674674	0.677685
H433	H	0.830959	-0.059000	-0.072335
H434	H	1.080959	0.191000	0.177665
H435	H	1.330959	0.441000	0.427665
H436	H	1.580959	0.691000	0.677665
H437	H	0.404512	-0.017441	-0.000098
H438	H	0.654512	0.232559	0.249902
H439	H	0.904512	0.482559	0.499902
H440	H	1.154512	0.732559	0.749902
H441	H	0.580748	-0.193677	-0.000120
H442	H	0.830748	0.056323	0.249880
H443	H	1.080748	0.306323	0.499880
H444	H	1.330748	0.556323	0.749880
H445	H	0.819097	-0.391900	-0.000125
H446	H	1.069097	-0.141900	0.249875
H447	H	1.319097	0.108100	0.499875
H448	H	1.569097	0.358100	0.749875
H449	H	0.582043	-0.085909	-0.000113
H450	H	0.832043	0.164091	0.249887
H451	H	1.082043	0.414091	0.499887
H452	H	1.332043	0.664091	0.749887
N453	N	0.371221	0.181649	-0.000073
N454	N	0.621221	0.431649	0.249927
N455	N	0.871221	0.681649	0.499927
N456	N	1.121221	0.931649	0.749927
N457	N	0.336499	0.192846	-0.072209
N458	N	0.586499	0.442846	0.177791
N459	N	0.836499	0.692846	0.427791
N460	N	1.086499	0.942846	0.677791
H461	H	0.309969	0.230047	-0.072205
H462	H	0.559969	0.480047	0.177795
H463	H	0.809969	0.730047	0.427795
H464	H	1.059969	0.980047	0.677795
N465	N	0.491283	0.183091	-0.000053
N466	N	0.741283	0.433091	0.249947
N467	N	0.991283	0.683091	0.499947
N468	N	1.241283	0.933091	0.749947
N469	N	0.479909	0.217776	-0.072185
N470	N	0.729909	0.467776	0.177815
N471	N	0.979909	0.717776	0.427815
N472	N	1.229909	0.967776	0.677815
H473	H	0.496219	0.255497	-0.072183
H474	H	0.746219	0.505497	0.177817
H475	H	0.996219	0.755497	0.427817
H476	H	1.246219	1.005497	0.677817
N477	N	0.210970	0.231744	-0.000055
N478	N	0.460970	0.481744	0.249945
N479	N	0.710970	0.731744	0.499945
N480	N	0.960970	0.981744	0.749945
N481	N	0.178121	0.277775	-0.000046
N482	N	0.428121	0.527775	0.249954
N483	N	0.678121	0.777775	0.499954
N484	N	0.928121	1.027775	0.749954
H485	H	0.194427	0.315498	-0.000031
H486	H	0.444427	0.565498	0.249969
H487	H	0.694427	0.815498	0.499969
H488	H	0.944427	1.065498	0.749969
N489	N	0.774742	-0.653374	-0.000104
N490	N	1.024742	-0.403374	0.249896
N491	N	1.274742	-0.153374	0.499896
N492	N	1.524742	0.096626	0.749896
N493	N	0.820775	-0.686220	-0.000120
N494	N	1.070775	-0.436220	0.249880
N495	N	1.320775	-0.186220	0.499880
N496	N	1.570775	0.063780	0.749880
H497	H	0.858497	-0.669912	-0.000137
H498	H	1.108497	-0.419912	0.249863
H499	H	1.358497	-0.169912	0.499863
H500	H	1.608497	0.080088	0.749863
N501	N	-0.055185	0.176553	-0.000085
N502	N	0.194815	0.426553	0.249915
N503	N	0.444815	0.676553	0.499915
N504	N	0.694815	0.926553	0.749915
N505	N	-0.088031	0.222586	-0.000069
N506	N	0.161969	0.472586	0.249931
N507	N	0.411969	0.722586	0.499931
N508	N	0.661969	0.972586	0.749931
H509	H	-0.071723	0.260308	-0.000055
H510	H	0.178277	0.510308	0.249945
H511	H	0.428277	0.760308	0.499945
H512	H	0.678277	1.010308	0.749945
H513	H	-0.167632	0.164421	-0.000102
H514	H	0.082368	0.414421	0.249898
H515	H	0.332368	0.664421	0.499898
H516	H	0.582368	0.914421	0.749898
H517	H	-0.034198	-0.022693	-0.000146
H518	H	0.215802	0.227307	0.249854
H519	H	0.465802	0.477307	0.499854
H520	H	0.715802	0.727307	0.749854
N521	N	0.519899	-0.026832	-0.000130
N522	N	0.769899	0.223168	0.249870
N523	N	1.019899	0.473168	0.499870
N524	N	1.269899	0.723168	0.749870
N525	N	0.518006	-0.061667	-0.072289
N526	N	0.768006	0.188333	0.177711
N527	N	1.018006	0.438333	0.427711
N528	N	1.268006	0.688333	0.677711
H529	H	0.544542	-0.098864	-0.072328
H530	H	0.794542	0.151136	0.177672
H531	H	1.044542	0.401136	0.427672
H532	H	1.294542	0.651136	0.677672
N533	N	0.828496	-0.507259	-0.000105
N534	N	1.078496	-0.257259	0.249895
N535	N	1.328496	-0.007259	0.499895
N536	N	1.578496	0.242741	0.749895
N537	N	0.875162	-0.487040	-0.000118
N538	N	1.125162	-0.237040	0.249882
N539	N	1.375162	0.012960	0.499882
N540	N	1.625162	0.262960	0.749882
H541	H	0.912372	-0.513555	-0.000126
H542	H	1.162372	-0.263555	0.249874
H543	H	1.412372	-0.013555	0.499874
H544	H	1.662372	0.236445	0.749874
