data_functionalizedCrystal
_audit_creation_method	'MofGen! by Chris Wilmer'
_symmetry_space_group_name_H-M	'P1'
_symmetry_Int_Tables_number	1
_symmetry_cell_setting	triclinic
loop_
_symmetry_equiv_pos_as_xyz
  x,y,z
_cell_length_a	19.805407
_cell_length_b	16.959454
_cell_length_c	19.805399
_cell_angle_alpha	89.977613
_cell_angle_beta	89.980427
_cell_angle_gamma	90.020075
loop_
_atom_site_label
_atom_site_type_symbol
_atom_site_fract_x
_atom_site_fract_y
_atom_site_fract_z
Zn1	Zn	1.034765	-0.314700	-0.382744
Zn2	Zn	1.284765	-0.064700	-0.132744
Zn3	Zn	1.534765	0.185300	0.117256
Zn4	Zn	1.784765	0.435300	0.367256
Zn5	Zn	1.034693	-0.446882	-0.269566
Zn6	Zn	1.284693	-0.196882	-0.019566
Zn7	Zn	1.534693	0.053118	0.230434
Zn8	Zn	1.784693	0.303118	0.480434
Zn9	Zn	0.921580	-0.314722	-0.269569
Zn10	Zn	1.171580	-0.064722	-0.019569
Zn11	Zn	1.421580	0.185278	0.230431
Zn12	Zn	1.671580	0.435278	0.480431
Zn13	Zn	0.921556	-0.446840	-0.382713
Zn14	Zn	1.171556	-0.196840	-0.132713
Zn15	Zn	1.421556	0.053160	0.117287
Zn16	Zn	1.671556	0.303160	0.367287
O17	O	0.978149	-0.380786	-0.326148
O18	O	1.228149	-0.130786	-0.076148
O19	O	1.478149	0.119214	0.173852
O20	O	1.728149	0.369214	0.423852
O21	O	1.129472	-0.332243	-0.367743
O22	O	1.379472	-0.082243	-0.117743
O23	O	1.629472	0.167757	0.132257
O24	O	1.879472	0.417757	0.382257
O25	O	1.019668	-0.429378	-0.174850
O26	O	1.269668	-0.179378	0.075150
O27	O	1.519668	0.070622	0.325150
O28	O	1.769668	0.320622	0.575150
O29	O	0.936635	-0.204108	-0.284596
O30	O	1.186635	0.045892	-0.034596
O31	O	1.436635	0.295892	0.215404
O32	O	1.686635	0.545892	0.465404
O33	O	1.129419	-0.429356	-0.284591
O34	O	1.379419	-0.179356	-0.034591
O35	O	1.629419	0.070644	0.215409
O36	O	1.879419	0.320644	0.465409
O37	O	1.019792	-0.204092	-0.367745
O38	O	1.269792	0.045908	-0.117745
O39	O	1.519792	0.295908	0.132255
O40	O	1.769792	0.545908	0.382255
O41	O	0.936564	-0.332280	-0.174852
O42	O	1.186564	-0.082280	0.075148
O43	O	1.436564	0.167720	0.325148
O44	O	1.686564	0.417720	0.575148
O45	O	0.826860	-0.332239	-0.284565
O46	O	1.076860	-0.082239	-0.034565
O47	O	1.326860	0.167761	0.215435
O48	O	1.576860	0.417761	0.465435
O49	O	0.936594	-0.429285	-0.477434
O50	O	1.186594	-0.179285	-0.227434
O51	O	1.436594	0.070715	0.022566
O52	O	1.686594	0.320715	0.272566
O53	O	0.826843	-0.429306	-0.367692
O54	O	1.076843	-0.179306	-0.117692
O55	O	1.326843	0.070694	0.132308
O56	O	1.576843	0.320694	0.382308
O57	O	1.019768	-0.332202	-0.477457
O58	O	1.269768	-0.082202	-0.227457
O59	O	1.519768	0.167798	0.022543
O60	O	1.769768	0.417798	0.272543
O61	O	1.019645	-0.557488	-0.284561
O62	O	1.269645	-0.307488	-0.034561
O63	O	1.519645	-0.057488	0.215439
O64	O	1.769645	0.192512	0.465439
O65	O	0.936524	-0.557457	-0.367690
O66	O	1.186524	-0.307457	-0.117690
O67	O	1.436524	-0.057457	0.132310
O68	O	1.686524	0.192543	0.382310
C69	C	0.802293	-0.380771	-0.326126
C70	C	1.052293	-0.130771	-0.076126
C71	C	1.302293	0.119229	0.173874
C72	C	1.552293	0.369229	0.423874
C73	C	0.727061	-0.380783	-0.326133
C74	C	0.977061	-0.130783	-0.076133
C75	C	1.227061	0.119217	0.173867
C76	C	1.477061	0.369217	0.423867
C77	C	0.978092	-0.586152	-0.326136
C78	C	1.228092	-0.336152	-0.076136
C79	C	1.478092	-0.086152	0.173864
C80	C	1.728092	0.163848	0.423864
C81	C	0.978130	-0.674009	-0.326154
C82	C	1.228130	-0.424009	-0.076154
C83	C	1.478130	-0.174009	0.173846
C84	C	1.728130	0.075991	0.423846
C85	C	0.691725	-0.431402	-0.369347
C86	C	0.941725	-0.181402	-0.119347
C87	C	1.191725	0.068598	0.130653
C88	C	1.441725	0.318598	0.380653
C89	C	0.621037	-0.431404	-0.369356
C90	C	0.871037	-0.181404	-0.119356
C91	C	1.121037	0.068596	0.130644
C92	C	1.371037	0.318596	0.380644
C93	C	0.585685	-0.380790	-0.326148
C94	C	0.835685	-0.130790	-0.076148
C95	C	1.085685	0.119210	0.173852
C96	C	1.335685	0.369210	0.423852
C97	C	0.621026	-0.330165	-0.282932
C98	C	0.871026	-0.080165	-0.032932
C99	C	1.121026	0.169835	0.217068
C100	C	1.371026	0.419835	0.467068
C101	C	0.691713	-0.330160	-0.282926
C102	C	0.941713	-0.080160	-0.032926
C103	C	1.191713	0.169840	0.217074
C104	C	1.441713	0.419840	0.467074
C105	C	0.335952	-0.330183	-0.282954
C106	C	0.585952	-0.080183	-0.032954
C107	C	0.835952	0.169817	0.217046
C108	C	1.085952	0.419817	0.467046
C109	C	0.265260	-0.330193	-0.282962
C110	C	0.515260	-0.080193	-0.032962
C111	C	0.765260	0.169807	0.217038
C112	C	1.015260	0.419807	0.467038
C113	C	0.265276	-0.431426	-0.369384
C114	C	0.515276	-0.181426	-0.119384
C115	C	0.765276	0.068574	0.130616
C116	C	1.015276	0.318574	0.380616
C117	C	0.335963	-0.431421	-0.369379
C118	C	0.585963	-0.181421	-0.119379
C119	C	0.835963	0.068579	0.130621
C120	C	1.085963	0.318579	0.380621
C121	C	0.371298	-0.380794	-0.326166
C122	C	0.621298	-0.130794	-0.076166
C123	C	0.871298	0.119206	0.173834
C124	C	1.121298	0.369206	0.423834
C125	C	0.447946	-0.380792	-0.326157
C126	C	0.697946	-0.130792	-0.076157
C127	C	0.947946	0.119208	0.173843
C128	C	1.197946	0.369208	0.423843
C129	C	0.509038	-0.380795	-0.326153
C130	C	0.759038	-0.130795	-0.076153
C131	C	1.009038	0.119205	0.173847
C132	C	1.259038	0.369205	0.423847
C133	C	0.934930	-1.045498	-0.369428
C134	C	1.184930	-0.795498	-0.119428
C135	C	1.434930	-0.545498	0.130572
C136	C	1.684930	-0.295498	0.380572
C137	C	1.021555	-1.045470	-0.282937
C138	C	1.271555	-0.795470	-0.032937
C139	C	1.521555	-0.545470	0.217063
C140	C	1.771555	-0.295470	0.467063
C141	C	1.021532	-0.962925	-0.282930
C142	C	1.271532	-0.712925	-0.032930
C143	C	1.521532	-0.462925	0.217070
C144	C	1.771532	-0.212925	0.467070
C145	C	0.978206	-0.921662	-0.326173
C146	C	1.228206	-0.671662	-0.076173
C147	C	1.478206	-0.421662	0.173827
C148	C	1.728206	-0.171662	0.423827
C149	C	0.934904	-0.962945	-0.369422
C150	C	1.184904	-0.712945	-0.119422
C151	C	1.434904	-0.462945	0.130578
C152	C	1.684904	-0.212945	0.380578
C153	C	1.064828	-0.921635	-0.239677
C154	C	1.314828	-0.671635	0.010323
C155	C	1.564828	-0.421635	0.260323
C156	C	1.814828	-0.171635	0.510323
C157	C	1.064806	-0.839085	-0.239669
C158	C	1.314806	-0.589085	0.010331
C159	C	1.564806	-0.339085	0.260331
C160	C	1.814806	-0.089085	0.510331
C161	C	1.021483	-0.797820	-0.282915
C162	C	1.271483	-0.547820	-0.032915
C163	C	1.521483	-0.297820	0.217085
C164	C	1.771483	-0.047820	0.467085
C165	C	0.978180	-0.839108	-0.326167
C166	C	1.228180	-0.589108	-0.076167
C167	C	1.478180	-0.339108	0.173833
C168	C	1.728180	-0.089108	0.423833
C169	C	0.934854	-0.797845	-0.369409
C170	C	1.184854	-0.547845	-0.119409
C171	C	1.434854	-0.297845	0.130591
C172	C	1.684854	-0.047845	0.380591
C173	C	0.891553	-0.839132	-0.412665
C174	C	1.141553	-0.589132	-0.162665
C175	C	1.391553	-0.339132	0.087335
C176	C	1.641553	-0.089132	0.337335
C177	C	0.891581	-0.921680	-0.412669
C178	C	1.141581	-0.671680	-0.162669
C179	C	1.391581	-0.421680	0.087331
C180	C	1.641581	-0.171680	0.337331
C181	C	1.021455	-0.715272	-0.282911
C182	C	1.271455	-0.465272	-0.032911
C183	C	1.521455	-0.215272	0.217089
C184	C	1.771455	0.034728	0.467089
C185	C	0.934827	-0.715292	-0.369403
C186	C	1.184827	-0.465292	-0.119403
C187	C	1.434827	-0.215292	0.130597
C188	C	1.684827	0.034708	0.380597
C189	C	1.154691	-0.380802	-0.326170
C190	C	1.404691	-0.130802	-0.076170
C191	C	1.654691	0.119198	0.173830
C192	C	1.904691	0.369198	0.423830
C193	C	1.229923	-0.380808	-0.326180
C194	C	1.479923	-0.130808	-0.076180
C195	C	1.729923	0.119192	0.173820
C196	C	1.979923	0.369192	0.423820
C197	C	0.978187	-0.380736	-0.502691
C198	C	1.228187	-0.130736	-0.252691
C199	C	1.478187	0.119264	-0.002691
C200	C	1.728187	0.369264	0.247309
C201	C	0.978203	-0.380715	-0.577923
C202	C	1.228203	-0.130715	-0.327923
C203	C	1.478203	0.119285	-0.077923
C204	C	1.728203	0.369285	0.172077
C205	C	0.978224	-0.174618	-0.326174
C206	C	1.228224	0.075382	-0.076174
C207	C	1.478224	0.325382	0.173826
C208	C	1.728224	0.575382	0.423826
C209	C	0.978256	-0.086761	-0.326186
C210	C	1.228256	0.163239	-0.076186
C211	C	1.478256	0.413239	0.173814
C212	C	1.728256	0.663239	0.423814
C213	C	1.021513	-0.330161	-0.613280
C214	C	1.271513	-0.080161	-0.363280
C215	C	1.521513	0.169839	-0.113280
C216	C	1.771513	0.419839	0.136720
C217	C	1.021520	-0.330138	-0.683968
C218	C	1.271520	-0.080138	-0.433968
C219	C	1.521520	0.169862	-0.183968
C220	C	1.771520	0.419862	0.066032
C221	C	0.978220	-0.380674	-0.719298
C222	C	1.228220	-0.130674	-0.469298
C223	C	1.478220	0.119326	-0.219298
C224	C	1.728220	0.369326	0.030702
C225	C	0.934905	-0.431230	-0.683936
C226	C	1.184905	-0.181230	-0.433936
C227	C	1.434905	0.068770	-0.183936
C228	C	1.684905	0.318770	0.066064
C229	C	0.934895	-0.431248	-0.613249
C230	C	1.184895	-0.181248	-0.363249
C231	C	1.434895	0.068752	-0.113249
C232	C	1.684895	0.318752	0.136751
C233	C	0.934943	-0.431156	-0.969010
C234	C	1.184943	-0.181156	-0.719010
C235	C	1.434943	0.068844	-0.469010
C236	C	1.684943	0.318844	-0.219010
C237	C	0.934958	-0.431135	-1.039702
C238	C	1.184958	-0.181135	-0.789702
C239	C	1.434958	0.068865	-0.539702
C240	C	1.684958	0.318865	-0.289702
C241	C	1.021568	-0.330046	-1.039729
C242	C	1.271568	-0.080046	-0.789729
C243	C	1.521568	0.169954	-0.539729
C244	C	1.771568	0.419954	-0.289729
C245	C	1.021558	-0.330065	-0.969042
C246	C	1.271558	-0.080065	-0.719042
C247	C	1.521558	0.169935	-0.469042
C248	C	1.771558	0.419935	-0.219042
C249	C	0.978241	-0.380617	-0.933686
C250	C	1.228241	-0.130617	-0.683686
C251	C	1.478241	0.119383	-0.433686
C252	C	1.728241	0.369383	-0.183686
C253	C	0.978233	-0.380641	-0.857037
C254	C	1.228233	-0.130641	-0.607037
C255	C	1.478233	0.119359	-0.357037
C256	C	1.728233	0.369359	-0.107037
C257	C	0.978230	-0.380655	-0.795946
C258	C	1.228230	-0.130655	-0.545946
C259	C	1.478230	0.119345	-0.295946
C260	C	1.728230	0.369345	-0.045946
C261	C	0.978150	-0.380779	-0.150292
C262	C	1.228150	-0.130779	0.099708
C263	C	1.478150	0.119221	0.349708
C264	C	1.728150	0.369221	0.599708
C265	C	0.978265	-0.380577	-0.075060
C266	C	1.228265	-0.130577	0.174940
C267	C	1.478265	0.119423	0.424940
C268	C	1.728265	0.369423	0.674940
H269	H	0.720503	-0.472621	-0.404530
H270	H	0.970503	-0.222621	-0.154530
H271	H	1.220503	0.027379	0.095470
H272	H	1.470503	0.277379	0.345470
H273	H	0.899549	-0.681701	-0.404619
H274	H	1.149549	-0.431701	-0.154619
H275	H	1.399549	-0.181701	0.095381
H276	H	1.649549	0.068299	0.345381
H277	H	0.592269	-0.472623	-0.404545
H278	H	0.842269	-0.222623	-0.154545
H279	H	1.092269	0.027377	0.095455
H280	H	1.342269	0.277377	0.345455
H281	H	1.056825	-1.079072	-0.247726
H282	H	1.306825	-0.829072	0.002274
H283	H	1.556825	-0.579072	0.252274
H284	H	1.806825	-0.329072	0.502274
H285	H	0.899621	-0.472406	-0.584462
H286	H	1.149621	-0.222406	-0.334462
H287	H	1.399621	0.027594	-0.084462
H288	H	1.649621	0.277594	0.165538
H289	H	0.364743	-0.472639	-0.404561
H290	H	0.614743	-0.222639	-0.154561
H291	H	0.864743	0.027361	0.095439
H292	H	1.114743	0.277361	0.345439
H293	H	1.056775	-0.289012	-0.584519
H294	H	1.306775	-0.039012	-0.334519
H295	H	1.556775	0.210988	-0.084519
H296	H	1.806775	0.460988	0.165481
H297	H	1.056788	-0.288974	-0.712753
H298	H	1.306788	-0.038974	-0.462753
H299	H	1.556788	0.211026	-0.212753
H300	H	1.806788	0.461026	0.037247
H301	H	0.856274	-0.805526	-0.447870
H302	H	1.106274	-0.555526	-0.197870
H303	H	1.356274	-0.305526	0.052130
H304	H	1.606274	-0.055526	0.302130
H305	H	1.056819	-0.288916	-0.940280
H306	H	1.306819	-0.038916	-0.690280
H307	H	1.556819	0.211084	-0.440280
H308	H	1.806819	0.461084	-0.190280
H309	H	0.236479	-0.288972	-0.247776
H310	H	0.486479	-0.038972	0.002224
H311	H	0.736479	0.211028	0.252224
H312	H	0.986479	0.461028	0.502224
H313	H	0.899678	-1.079117	-0.404647
H314	H	1.149678	-0.829117	-0.154647
H315	H	1.399678	-0.579117	0.095353
H316	H	1.649678	-0.329117	0.345353
H317	H	0.236498	-0.472646	-0.404573
H318	H	0.486498	-0.222646	-0.154573
H319	H	0.736498	0.027354	0.095427
H320	H	0.986498	0.277354	0.345427
H321	H	0.856327	-0.955303	-0.447884
H322	H	1.106327	-0.705303	-0.197884
H323	H	1.356327	-0.455303	0.052116
H324	H	1.606327	-0.205303	0.302116
H325	H	0.364713	-0.288965	-0.247763
H326	H	0.614713	-0.038965	0.002237
H327	H	0.864713	0.211035	0.252237
H328	H	1.114713	0.461035	0.502237
H329	H	1.056707	-0.681660	-0.247691
H330	H	1.306707	-0.431660	0.002309
H331	H	1.556707	-0.181660	0.252309
H332	H	1.806707	0.068340	0.502309
H333	H	0.899682	-0.472330	-0.940231
H334	H	1.149682	-0.222330	-0.690231
H335	H	1.399682	0.027670	-0.440231
H336	H	1.649682	0.277670	-0.190231
H337	H	0.592237	-0.288951	-0.247754
H338	H	0.842237	-0.038951	0.002246
H339	H	1.092237	0.211049	0.252246
H340	H	1.342237	0.461049	0.502246
H341	H	1.100097	-0.955238	-0.204466
H342	H	1.350097	-0.705238	0.045534
H343	H	1.600097	-0.455238	0.295534
H344	H	1.850097	-0.205238	0.545534
H345	H	1.056836	-0.288881	-1.068524
H346	H	1.306836	-0.038881	-0.818524
H347	H	1.556836	0.211119	-0.568524
H348	H	1.806836	0.461119	-0.318524
H349	H	0.720482	-0.288937	-0.247741
H350	H	0.970482	-0.038937	0.002259
H351	H	1.220482	0.211063	0.252259
H352	H	1.470482	0.461063	0.502259
H353	H	1.100064	-0.805474	-0.204449
H354	H	1.350064	-0.555474	0.045551
H355	H	1.600064	-0.305474	0.295551
H356	H	1.850064	-0.055474	0.545551
H357	H	0.899695	-0.472289	-1.068466
H358	H	1.149695	-0.222289	-0.818466
H359	H	1.399695	0.027711	-0.568466
H360	H	1.649695	0.277711	-0.318466
H361	H	0.899647	-0.472373	-0.712708
H362	H	1.149647	-0.222373	-0.462708
H363	H	1.399647	0.027627	-0.212708
H364	H	1.649647	0.277627	0.037292
