data_functionalizedCrystal
_audit_creation_method	'MofGen! by Chris Wilmer'
_symmetry_space_group_name_H-M	'P1'
_symmetry_Int_Tables_number	1
_symmetry_cell_setting	triclinic
loop_
_symmetry_equiv_pos_as_xyz
  x,y,z
_cell_length_a	13.339070
_cell_length_b	15.944551
_cell_length_c	11.804365
_cell_angle_alpha	101.830656
_cell_angle_beta	74.875130
_cell_angle_gamma	99.564016
loop_
_atom_site_label
_atom_site_type_symbol
_atom_site_fract_x
_atom_site_fract_y
_atom_site_fract_z
O1	O	1.362759	0.408901	-0.099080
O2	O	1.068226	0.353629	-0.099072
O3	O	1.223533	0.260866	-0.099066
O4	O	1.207452	0.501664	-0.099087
O5	O	1.182647	0.285253	0.098989
O6	O	1.027340	0.378016	0.098982
O7	O	1.321872	0.433288	0.098974
Cu8	Cu	1.170873	0.407879	0.117062
Cu9	Cu	1.219226	0.379038	-0.117160
O10	O	1.166565	0.526051	0.098968
C11	C	1.010093	0.356486	-0.000044
C12	C	0.897788	0.328657	-0.000040
C13	C	1.202422	0.241610	-0.000038
C14	C	1.200420	0.147897	-0.000038
C15	C	0.533018	0.545045	-0.000078
C16	C	0.638534	0.571194	-0.000085
C17	C	0.703352	0.510562	-0.000073
C18	C	0.662645	0.423776	-0.000055
C19	C	0.557121	0.397622	-0.000058
C20	C	0.727455	0.363140	-0.000053
C21	C	0.686748	0.276354	-0.000035
C22	C	0.581234	0.250205	-0.000037
C23	C	0.516415	0.310837	-0.000048
C24	C	0.832980	0.389293	-0.000051
C25	C	0.857083	0.241871	-0.000031
C26	C	0.751567	0.215721	-0.000024
C27	C	1.099370	-0.090508	-0.000051
C28	C	1.126136	-0.128567	0.097600
C29	C	1.196800	-0.023674	-0.000047
C30	C	1.166470	-0.152588	-0.097666
C31	C	1.193297	-0.189405	-0.000060
C32	C	1.223576	-0.060489	0.097685
C33	C	1.263915	-0.084518	-0.097668
C34	C	1.290747	-0.122540	0.000007
C35	C	1.198815	0.071799	-0.000038
C36	C	1.191288	-0.284874	-0.000061
C37	C	1.380006	0.430430	-0.000057
C38	C	1.492312	0.458259	-0.000068
C39	C	1.187677	0.545307	-0.000062
C40	C	1.189681	0.639019	-0.000071
N41	N	1.136871	0.428165	0.281801
N42	N	1.253235	0.358748	-0.281899
C43	C	1.334885	0.310017	0.655758
C44	C	1.360606	0.294667	0.531097
C45	C	1.304674	0.328040	0.468767
C46	C	1.223018	0.376766	0.531110
C47	C	1.197300	0.392123	0.655783
C48	C	1.167089	0.410146	0.468792
C49	C	1.085432	0.458872	0.531135
C50	C	1.059718	0.474226	0.655795
C51	C	1.115650	0.440854	0.718126
C52	C	1.192807	0.394789	0.344119
C53	C	1.055221	0.476895	0.344144
C54	C	1.029500	0.492245	0.468805
H55	H	0.789268	0.531858	-0.000082
H56	H	0.718410	0.145057	-0.000019
C57	C	1.332690	0.311547	0.333420
C58	C	1.361642	0.390438	0.292154
C59	C	1.387473	0.375273	0.167475
H60	H	1.273913	0.281515	0.305085
H61	H	1.389368	0.277786	0.305172
H62	H	1.304970	0.424185	0.320391
H63	H	1.420425	0.420482	0.320457
H64	H	1.444150	0.341512	0.139227
H65	H	1.328692	0.345239	0.139152
H66	H	1.407129	0.428797	0.139461
C67	C	0.971002	0.527122	0.723269
C68	C	0.927505	0.553044	0.642007
C69	C	0.845771	0.601764	0.704117
H70	H	0.997245	0.576628	0.771890
H71	H	0.918808	0.493068	0.771892
H72	H	0.979690	0.587097	0.593404
H73	H	0.901241	0.503556	0.593383
H74	H	0.793577	0.567710	0.752740
H75	H	0.872023	0.651266	0.752736
H76	H	0.816242	0.619352	0.648991
C77	C	1.449072	0.241496	0.463706
C78	C	1.426153	0.158934	0.494294
C79	C	1.507598	0.109871	0.432327
H80	H	1.512412	0.268757	0.484139
H81	H	1.456513	0.236947	0.380478
H82	H	1.418724	0.163487	0.577504
H83	H	1.362827	0.131650	0.473858
H84	H	1.515039	0.105321	0.349099
H85	H	1.570933	0.137139	0.452765
H86	H	1.492054	0.053845	0.453064
H87	H	0.480236	0.594401	-0.000097
H88	H	1.009678	0.504072	0.293396
C89	C	1.255937	-0.007516	0.207790
C90	C	1.355778	-0.024021	0.207893
C91	C	1.385624	0.024771	0.309293
H92	H	1.207368	-0.022848	0.277139
H93	H	1.257044	0.052118	0.207143
H94	H	1.354664	-0.083641	0.208552
H95	H	1.404370	-0.008685	0.138567
H96	H	1.386731	0.084405	0.308646
H97	H	1.337049	0.009435	0.378634
H98	H	1.453372	0.013585	0.309371
C99	C	1.341693	-0.058521	-0.207713
C100	C	1.441440	-0.075767	-0.208472
C101	C	1.513106	-0.051841	-0.309845
H102	H	1.342987	0.001382	-0.206620
H103	H	1.321358	-0.090509	-0.277065
H104	H	1.461770	-0.043778	-0.139139
H105	H	1.440179	-0.135665	-0.209584
H106	H	1.492770	-0.083829	-0.379197
H107	H	1.514390	0.008061	-0.308743
H108	H	1.580789	-0.063546	-0.310379
H109	H	1.380423	0.282855	0.706515
H110	H	0.866112	0.459956	-0.000061
C111	C	1.134063	-0.205633	-0.207705
C112	C	1.033832	-0.189716	-0.207241
C113	C	1.003943	-0.238552	-0.308592
H114	H	1.133553	-0.265231	-0.207401
H115	H	1.182285	-0.189945	-0.277081
H116	H	0.985623	-0.205408	-0.137884
H117	H	1.034316	-0.130127	-0.207563
H118	H	1.052165	-0.222865	-0.377968
H119	H	1.003438	-0.298147	-0.308280
H120	H	0.935938	-0.227753	-0.308297
H121	H	1.371679	-0.136831	0.000060
H122	H	0.909859	0.192498	-0.000026
C123	C	0.537220	0.155947	0.000035
C124	C	0.616558	0.108448	0.000078
C125	C	0.576050	0.021618	0.000161
H126	H	0.510830	0.134061	-0.069012
H127	H	0.482321	0.151153	0.069129
H128	H	0.671438	0.113237	-0.069009
H129	H	0.642956	0.130307	0.069120
H130	H	0.521151	0.016824	0.069255
H131	H	0.549660	-0.000259	-0.068887
H132	H	0.629871	-0.010620	0.000202
H133	H	1.259292	0.355116	0.293371
H134	H	0.671672	0.641854	-0.000109
C135	C	0.991442	-0.071217	0.000320
C136	C	0.919739	-0.093230	0.102809
C137	C	0.820312	-0.075458	0.103205
H138	H	0.970518	-0.103977	-0.068266
H139	H	0.993558	-0.011460	-0.000325
H140	H	0.917620	-0.152976	0.103443
H141	H	0.940629	-0.060474	0.171411
H142	H	0.822428	-0.015701	0.102559
H143	H	0.799398	-0.108220	0.034614
H144	H	0.771651	-0.090384	0.172746
H145	H	0.430494	0.289550	-0.000042
H146	H	1.094705	0.453348	0.819635
H147	H	1.067883	-0.148112	0.180159
H148	H	0.963014	0.531919	0.519580
