data_functionalizedCrystal
_audit_creation_method	'MofGen! by Chris Wilmer'
_symmetry_space_group_name_H-M	'P1'
_symmetry_Int_Tables_number	1
_symmetry_cell_setting	triclinic
loop_
_symmetry_equiv_pos_as_xyz
  x,y,z
_cell_length_a	16.959455
_cell_length_b	18.050589
_cell_length_c	18.050582
_cell_angle_alpha	90.018912
_cell_angle_beta	90.014681
_cell_angle_gamma	90.025168
loop_
_atom_site_label
_atom_site_type_symbol
_atom_site_fract_x
_atom_site_fract_y
_atom_site_fract_z
Zn1	Zn	1.208342	-0.295762	0.419913
Zn2	Zn	1.708342	0.204238	0.919913
Zn3	Zn	1.208245	-0.419947	0.295732
Zn4	Zn	1.708245	0.080053	0.795732
Zn5	Zn	1.076169	-0.295768	0.295739
Zn6	Zn	1.576169	0.204232	0.795739
Zn7	Zn	1.076116	-0.419908	0.419883
Zn8	Zn	1.576116	0.080092	0.919883
O9	O	1.142218	-0.357846	0.357817
O10	O	1.642218	0.142154	0.857817
O11	O	1.318940	-0.312249	0.403449
O12	O	1.818940	0.187751	0.903449
O13	O	1.190706	-0.403493	0.191808
O14	O	1.690706	0.096507	0.691808
O15	O	1.093765	-0.191843	0.312226
O16	O	1.593765	0.308157	0.812226
O17	O	1.318868	-0.403487	0.312214
O18	O	1.818868	0.096513	0.812214
O19	O	1.190872	-0.191838	0.403456
O20	O	1.690872	0.308162	0.903456
O21	O	1.093671	-0.312260	0.191814
O22	O	1.593671	0.187740	0.691814
O23	O	0.965551	-0.312222	0.312198
O24	O	1.465551	0.187778	0.812198
O25	O	1.093674	-0.403421	0.523812
O26	O	1.593674	0.096579	1.023812
O27	O	0.965512	-0.403427	0.403406
O28	O	1.465512	0.096573	0.903406
O29	O	1.190820	-0.312211	0.523833
O30	O	1.690820	0.187789	1.023833
O31	O	1.190655	-0.523866	0.312186
O32	O	1.690655	-0.023866	0.812186
O33	O	1.093580	-0.523838	0.403399
O34	O	1.593580	-0.023838	0.903399
C35	C	0.936852	-0.357822	0.357800
C36	C	1.436852	0.142178	0.857800
C37	C	0.848995	-0.357829	0.357810
C38	C	1.348995	0.142171	0.857810
C39	C	0.477516	-0.310317	0.310424
C40	C	0.977516	0.189683	0.810424
C41	C	0.477524	-0.405437	0.405252
C42	C	0.977524	0.094563	0.905252
C43	C	0.560069	-0.405426	0.405247
C44	C	1.060069	0.094574	0.905247
C45	C	0.601342	-0.357861	0.357830
C46	C	1.101342	0.142139	0.857830
C47	C	0.560069	-0.310307	0.310416
C48	C	1.060069	0.189693	0.810416
C49	C	0.601349	-0.452985	0.452655
C50	C	1.101349	0.047015	0.952655
C51	C	0.683900	-0.452977	0.452651
C52	C	1.183900	0.047023	0.952651
C53	C	0.725174	-0.405407	0.405237
C54	C	1.225174	0.094593	0.905237
C55	C	0.683896	-0.357850	0.357822
C56	C	1.183896	0.142150	0.857822
C57	C	0.725168	-0.310285	0.310404
C58	C	1.225168	0.189715	0.810404
C59	C	0.683892	-0.262724	0.262993
C60	C	1.183892	0.237276	0.762993
C61	C	0.601343	-0.262737	0.263002
C62	C	1.101343	0.237263	0.763002
C63	C	0.807722	-0.405394	0.405228
C64	C	1.307722	0.094606	0.905228
C65	C	0.807722	-0.310275	0.310397
C66	C	1.307722	0.189725	0.810397
C67	C	1.142123	-0.550798	0.357804
C68	C	1.642123	-0.050798	0.857804
C69	C	1.142154	-0.633344	0.357824
C70	C	1.642154	-0.133344	0.857824
C71	C	1.089417	-0.832806	0.407408
C72	C	1.589417	-0.332806	0.907408
C73	C	1.070154	-0.882240	0.339641
C74	C	1.570154	-0.382240	0.839641
C75	C	1.142232	-0.784475	0.357834
C76	C	1.642232	-0.284475	0.857834
C77	C	1.161534	-0.882122	0.425608
C78	C	1.661534	-0.382122	0.925608
C79	C	1.142305	-0.930460	0.357849
C80	C	1.642305	-0.430460	0.857849
C81	C	1.122930	-0.832821	0.290031
C82	C	1.622930	-0.332821	0.790031
C83	C	1.214344	-0.832699	0.376043
C84	C	1.714344	-0.332699	0.876043
C85	C	1.195108	-0.882111	0.308230
C86	C	1.695108	-0.382111	0.808230
C87	C	1.142187	-0.700376	0.357826
C88	C	1.642187	-0.200376	0.857826
C89	C	1.142350	-1.014556	0.357849
C90	C	1.642350	-0.514556	0.857849
C91	C	1.348386	-0.357871	0.357834
C92	C	1.848386	0.142129	0.857834
C93	C	1.436243	-0.357882	0.357842
C94	C	1.936243	0.142118	0.857842
C95	C	1.142252	-0.357811	0.551522
C96	C	1.642252	0.142189	1.051522
C97	C	1.142267	-0.357796	0.634068
C98	C	1.642267	0.142204	1.134068
C99	C	1.142335	-0.164141	0.357845
C100	C	1.642335	0.335859	0.857845
C101	C	1.142385	-0.081595	0.357857
C102	C	1.642385	0.418405	0.857857
C103	C	1.142229	-0.357828	0.164865
C104	C	1.642229	0.142172	0.664865
C105	C	1.142368	-0.357634	0.082319
C106	C	1.642368	0.142366	0.582319
C107	C	1.089488	-0.407315	0.882882
C108	C	1.589488	0.092685	1.382882
C109	C	1.070181	-0.339577	0.833489
C110	C	1.570181	0.160423	1.333489
C111	C	1.142334	-0.357687	0.931189
C112	C	1.642334	0.142313	1.431189
C113	C	1.161571	-0.425475	0.833500
C114	C	1.661571	0.074525	1.333500
C115	C	1.142299	-0.357744	0.785204
C116	C	1.642299	0.142256	1.285204
C117	C	1.122989	-0.289912	0.882883
C118	C	1.622989	0.210088	1.382883
C119	C	1.214412	-0.375857	0.882898
C120	C	1.714412	0.124143	1.382898
C121	C	1.195132	-0.308071	0.833527
C122	C	1.695132	0.191929	1.333527
C123	C	1.142352	-0.357655	1.015287
C124	C	1.642352	0.142345	1.515287
C125	C	1.142281	-0.357768	0.701107
C126	C	1.642281	0.142232	1.201107
H127	H	0.841321	-0.271537	0.271787
H128	H	1.341321	0.228463	0.771787
H129	H	1.275365	-0.391225	0.904617
H130	H	1.775365	0.108775	1.404617
H131	H	1.239804	-0.903623	0.266264
H132	H	1.739804	-0.403623	0.766264
H133	H	1.044688	-0.811157	0.449273
H134	H	1.544688	-0.311157	0.949273
H135	H	1.275279	-0.810924	0.391464
H136	H	1.775279	-0.310924	0.891464
H137	H	1.106563	-0.811255	0.232705
H138	H	1.606563	-0.311255	0.732705
N139	N	0.993692	-0.320326	0.806270
N140	N	1.493692	0.179674	1.306270
N141	N	0.935444	-0.359712	0.822086
N142	N	1.435444	0.140288	1.322086
H143	H	0.881421	-0.346121	0.802865
H144	H	1.381421	0.153879	1.302865
H145	H	0.717500	-0.491703	0.491257
H146	H	1.217500	0.008297	0.991257
N147	N	0.435380	-0.454021	0.453694
N148	N	0.935380	0.045979	0.953694
N149	N	0.472242	-0.496474	0.496024
N150	N	0.972242	0.003526	0.996024
H151	H	0.442477	-0.530789	0.530240
H152	H	0.942477	-0.030789	1.030240
N153	N	1.102460	-0.218010	0.909987
N154	N	1.602460	0.281990	1.409987
N155	N	1.099129	-0.206390	0.978185
N156	N	1.599129	0.293610	1.478185
H157	H	1.084624	-0.155612	0.997330
H158	H	1.584624	0.344388	1.497330
H159	H	1.177857	-0.482779	0.811808
H160	H	1.677857	0.017221	1.311808
N161	N	1.181967	-0.909292	0.497504
N162	N	1.681967	-0.409292	0.997504
N163	N	1.139973	-0.893485	0.552164
N164	N	1.639973	-0.393485	1.052164
H165	H	1.154397	-0.912672	0.602942
H166	H	1.654397	-0.412672	1.102942
H167	H	0.717507	-0.224000	0.224382
H168	H	1.217507	0.276000	0.724382
H169	H	1.009205	-0.904017	0.324253
H170	H	1.509205	-0.404017	0.824253
H171	H	1.239807	-0.266079	0.811994
H172	H	1.739807	0.233921	1.311994
H173	H	1.044779	-0.449206	0.904553
H174	H	1.544779	0.050794	1.404553
H175	H	0.567728	-0.224016	0.224401
H176	H	1.067728	0.275984	0.724401
N177	N	0.849873	-0.453982	0.453648
N178	N	1.349873	0.046018	0.953648
N179	N	0.813013	-0.496454	0.495975
N180	N	1.313013	0.003546	0.995975
H181	H	0.842781	-0.530772	0.530175
H182	H	1.342781	-0.030772	1.030175
H183	H	0.567738	-0.491715	0.491254
H184	H	1.067738	0.008285	0.991254
N185	N	0.435346	-0.261736	0.262006
N186	N	0.935346	0.238264	0.762006
N187	N	0.361642	-0.261745	0.262020
N188	N	0.861642	0.238255	0.762020
H189	H	0.331858	-0.227434	0.227825
H190	H	0.831858	0.272566	0.727825
