data_functionalizedCrystal
_audit_creation_method	'MofGen! by Chris Wilmer'
_symmetry_space_group_name_H-M	'P1'
_symmetry_Int_Tables_number	1
_symmetry_cell_setting	triclinic
loop_
_symmetry_equiv_pos_as_xyz
  x,y,z
_cell_length_a	6.817900
_cell_length_b	16.417825
_cell_length_c	14.125465
_cell_angle_alpha	95.891451
_cell_angle_beta	100.398878
_cell_angle_gamma	103.385495
loop_
_atom_site_label
_atom_site_type_symbol
_atom_site_fract_x
_atom_site_fract_y
_atom_site_fract_z
V1	V	-3.990804	-0.115165	-0.300311
O2	O	-3.979536	0.006275	-0.294248
O3	O	-3.942053	-0.229065	-0.298591
O4	O	-3.926955	-0.113069	-0.431135
O5	O	-3.994738	-0.110525	-0.160786
V6	V	-4.476479	-0.100678	-0.283583
O7	O	-4.247341	-0.146944	-0.337008
O8	O	-4.670139	-0.068899	-0.246886
O9	O	-4.302024	0.013222	-0.285303
O10	O	-4.605144	-0.222117	-0.289646
O11	O	-4.589942	-0.105318	-0.423108
O12	O	-4.317121	-0.102774	-0.152759
C13	C	-3.787468	-0.256842	-0.293940
C14	C	-3.828792	-0.349954	-0.293405
C15	C	-3.894128	-0.552433	-0.204054
C16	C	-3.932978	-0.639923	-0.203559
C17	C	-3.992533	-0.663411	-0.379851
C18	C	-3.953698	-0.575922	-0.380345
C19	C	-3.904485	-0.520434	-0.292443
C20	C	-3.982171	-0.695414	-0.291454
C21	C	-4.024294	-0.790275	-0.290919
C22	C	-3.862363	-0.425567	-0.292978
C23	C	-3.768209	-0.108876	-0.463012
C24	C	-3.797287	-0.107915	-0.569963
C25	C	-3.850585	-0.106154	-0.765781
C26	C	-4.036067	-0.109687	-0.818113
C27	C	-4.065724	-0.108707	-0.927073
C28	C	-3.820919	-0.107134	-0.656811
C29	C	-4.119951	0.040994	-0.289952
C30	C	-4.057864	0.134106	-0.290492
C31	C	-4.139210	-0.106970	-0.120877
C32	C	-4.089371	-0.107926	-0.013925
H33	H	-3.924544	-0.665971	-0.131584
H34	H	-3.854057	-0.507256	-0.132479
H35	H	-4.032603	-0.708599	-0.451417
C36	C	-3.965082	-0.540722	-0.477584
N37	N	-3.973656	-0.514210	-0.550822
C38	C	-3.666126	-0.101004	-0.815791
N39	N	-3.527187	-0.097101	-0.853465
C40	C	-4.220510	-0.114778	-0.768092
N41	N	-4.359427	-0.118617	-0.730413
