data_functionalizedCrystal
_audit_creation_method	'MofGen! by Chris Wilmer'
_symmetry_space_group_name_H-M	'P1'
_symmetry_Int_Tables_number	1
_symmetry_cell_setting	triclinic
loop_
_symmetry_equiv_pos_as_xyz
  x,y,z
_cell_length_a	19.077409
_cell_length_b	21.295417
_cell_length_c	19.076919
_cell_angle_alpha	92.267699
_cell_angle_beta	94.476475
_cell_angle_gamma	92.331622
loop_
_atom_site_label
_atom_site_type_symbol
_atom_site_fract_x
_atom_site_fract_y
_atom_site_fract_z
Zn1	Zn	1.061651	-0.225214	-0.355434
Zn2	Zn	1.561651	0.274786	0.144566
Zn3	Zn	1.066295	-0.326080	-0.237548
Zn4	Zn	1.566295	0.173920	0.262452
Zn5	Zn	0.948506	-0.225235	-0.242283
Zn6	Zn	1.448506	0.274765	0.257717
Zn7	Zn	0.943723	-0.334858	-0.360109
Zn8	Zn	1.443723	0.165142	0.139891
O9	O	1.005044	-0.277847	-0.298843
O10	O	1.505044	0.222153	0.201157
O11	O	1.160915	-0.234911	-0.335858
O12	O	1.660915	0.265089	0.164142
O13	O	1.054616	-0.309037	-0.139529
O14	O	1.554616	0.190963	0.360471
O15	O	0.963572	-0.137141	-0.257318
O16	O	1.463572	0.362859	0.242682
O17	O	1.164328	-0.309017	-0.249247
O18	O	1.664328	0.190983	0.250753
O19	O	1.046699	-0.137126	-0.340449
O20	O	1.546699	0.362874	0.159551
O21	O	0.968076	-0.234947	-0.143008
O22	O	1.468076	0.265053	0.356992
O23	O	0.849223	-0.243459	-0.261851
O24	O	1.349223	0.256541	0.238149
O25	O	0.955421	-0.323979	-0.458136
O26	O	1.455421	0.176021	0.041864
O27	O	0.845710	-0.323999	-0.348417
O28	O	1.345710	0.176001	0.151583
O29	O	1.042062	-0.243423	-0.454701
O30	O	1.542062	0.256577	0.045299
O31	O	1.049978	-0.415335	-0.253780
O32	O	1.549978	0.084665	0.246220
O33	O	0.959925	-0.421784	-0.343826
O34	O	1.459925	0.078216	0.156174
C35	C	0.821888	-0.284684	-0.306156
C36	C	1.321888	0.215316	0.193844
C37	C	0.743532	-0.287625	-0.309300
C38	C	1.243532	0.212375	0.190700
C39	C	1.004955	-0.441400	-0.298811
C40	C	1.504955	0.058600	0.201189
C41	C	1.004981	-0.511368	-0.298819
C42	C	1.504981	-0.011368	0.201181
C43	C	0.302277	-0.308670	-0.331890
C44	C	0.802277	0.191330	0.168110
C45	C	0.375901	-0.305911	-0.328922
C46	C	0.875901	0.194089	0.171078
C47	C	0.414516	-0.262536	-0.282442
C48	C	0.914516	0.237464	0.217558
C49	C	0.379504	-0.221923	-0.238922
C50	C	0.879504	0.278077	0.261078
C51	C	0.305882	-0.224685	-0.241887
C52	C	0.805882	0.275315	0.258113
C53	C	0.634898	-0.249774	-0.268746
C54	C	1.134898	0.250226	0.231254
C55	C	0.708525	-0.247013	-0.265786
C56	C	1.208525	0.252987	0.234214
C57	C	0.704917	-0.331002	-0.355785
C58	C	1.204917	0.168998	0.144215
C59	C	0.631293	-0.333758	-0.358748
C60	C	1.131293	0.166242	0.141252
C61	C	0.596287	-0.293147	-0.315226
C62	C	1.096287	0.206853	0.184774
N63	N	0.489772	-0.259714	-0.279408
N64	N	0.989772	0.240286	0.220592
N65	N	0.521033	-0.295973	-0.318257
N66	N	1.021033	0.204027	0.181743
C67	C	1.048238	-0.544171	-0.342139
C68	C	1.548238	-0.044171	0.157861
C69	C	1.048262	-0.609914	-0.342155
C70	C	1.548262	-0.109914	0.157845
C71	C	1.005037	-0.642849	-0.298838
C72	C	1.505037	-0.142849	0.201162
C73	C	0.961772	-0.610038	-0.255516
C74	C	1.461772	-0.110038	0.244484
C75	C	0.961744	-0.544297	-0.255506
C76	C	1.461744	-0.044297	0.244494
N77	N	1.002194	-0.744003	-0.237357
N78	N	1.502194	-0.244003	0.262643
N79	N	1.002225	-0.806454	-0.237369
N80	N	1.502225	-0.306454	0.262631
C81	C	1.005118	-0.840922	-0.298867
C82	C	1.505118	-0.340922	0.201133
N83	N	1.007994	-0.810579	-0.360354
N84	N	1.507994	-0.310579	0.139646
N85	N	1.007966	-0.748122	-0.360342
N86	N	1.507966	-0.248122	0.139658
C87	C	1.005063	-0.714134	-0.298845
C88	C	1.505063	-0.214134	0.201155
C89	C	1.048404	-0.945011	-0.342208
C90	C	1.548404	-0.445011	0.157792
C91	C	1.048423	-1.010754	-0.342226
C92	C	1.548423	-0.510754	0.157774
C93	C	0.961936	-1.010877	-0.255580
C94	C	1.461936	-0.510877	0.244420
C95	C	0.961913	-0.945135	-0.255569
C96	C	1.461913	-0.445135	0.244431
C97	C	1.005151	-0.912205	-0.298882
C98	C	1.505151	-0.412205	0.201118
C99	C	1.188915	-0.270983	-0.291503
C100	C	1.688915	0.229017	0.208497
C101	C	1.267270	-0.268058	-0.288375
C102	C	1.767270	0.231942	0.211625
C103	C	0.997690	-0.284678	-0.482712
C104	C	1.497690	0.215322	0.017288
C105	C	0.994556	-0.287589	-0.561065
C106	C	1.494556	0.212411	-0.061065
C107	C	1.005151	-0.113654	-0.298890
C108	C	1.505151	0.386346	0.201110
C109	C	1.005197	-0.043685	-0.298910
C110	C	1.505197	0.456315	0.201090
C111	C	1.038191	-0.247018	-0.596089
C112	C	1.538191	0.252982	-0.096089
C113	C	1.035238	-0.249751	-0.669711
C114	C	1.535238	0.250249	-0.169711
C115	C	0.988653	-0.293059	-0.708308
C116	C	1.488653	0.206941	-0.208308
C117	C	0.945014	-0.333632	-0.673279
C118	C	1.445014	0.166368	-0.173279
C119	C	0.947964	-0.330895	-0.599658
C120	C	1.447964	0.169105	-0.099658
C121	C	0.974990	-0.305738	-0.928681
C122	C	1.474990	0.194262	-0.428681
C123	C	0.972045	-0.308473	-1.002307
C124	C	1.472045	0.191527	-0.502307
C125	C	1.062269	-0.224591	-0.998733
C126	C	1.562269	0.275409	-0.498733
C127	C	1.065217	-0.221860	-0.925111
C128	C	1.565217	0.278140	-0.425111
C129	C	1.021576	-0.262431	-0.890089
C130	C	1.521576	0.237569	-0.390089
N131	N	0.985635	-0.295855	-0.783561
N132	N	1.485635	0.204145	-0.283561
N133	N	1.024590	-0.259632	-0.814837
N134	N	1.524590	0.240368	-0.314837
C135	C	1.012410	-0.270995	-0.115689
C136	C	1.512410	0.229005	0.384311
C137	C	1.015680	-0.267902	-0.037330
C138	C	1.515680	0.232098	0.462670
H139	H	0.270841	-0.343986	-0.369743
H140	H	0.770841	0.156014	0.130257
H141	H	1.103153	-0.186596	-0.893691
H142	H	1.603153	0.313404	-0.393691
H143	H	0.926518	-0.517588	-0.220229
H144	H	1.426518	-0.017588	0.279771
H145	H	1.070772	-0.216715	-0.698224
H146	H	1.570772	0.283285	-0.198224
H147	H	0.739964	-0.211685	-0.227941
H148	H	1.239964	0.288315	0.272059
H149	H	1.097798	-0.191560	-1.027256
H150	H	1.597798	0.308440	-0.527256
H151	H	0.912425	-0.363926	-0.571144
H152	H	1.412425	0.136074	-0.071144
H153	H	1.083648	-1.037462	-0.377506
H154	H	1.583648	-0.537462	0.122494
H155	H	0.926576	-0.636858	-0.220249
H156	H	1.426576	-0.136858	0.279751
H157	H	1.083609	-0.918199	-0.377479
H158	H	1.583609	-0.418199	0.122521
H159	H	0.606405	-0.216708	-0.233304
H160	H	1.106405	0.283292	0.266696
H161	H	0.926737	-1.037692	-0.220316
H162	H	1.426737	-0.537692	0.279684
H163	H	0.733427	-0.364066	-0.391217
H164	H	1.233427	0.135934	0.108783
H165	H	0.404400	-0.338982	-0.364355
H166	H	0.904400	0.161018	0.135645
H167	H	0.599857	-0.369080	-0.396596
H168	H	1.099857	0.130920	0.103404
H169	H	0.934108	-0.343741	-1.033730
H170	H	1.434108	0.156259	-0.533730
H171	H	0.277380	-0.191613	-0.206455
H172	H	0.777380	0.308387	0.293545
H173	H	0.907081	-0.368892	-0.704710
H174	H	1.407081	0.131108	-0.204710
H175	H	0.410951	-0.186609	-0.201074
H176	H	0.910951	0.313391	0.298926
H177	H	1.083443	-0.517362	-0.377408
H178	H	1.583443	-0.017362	0.122592
H179	H	1.083481	-0.636628	-0.377440
H180	H	1.583481	-0.136628	0.122560
H181	H	0.926692	-0.918424	-0.220291
H182	H	1.426692	-0.418424	0.279709
H183	H	1.076127	-0.211753	-0.564668
H184	H	1.576127	0.288247	-0.064668
H185	H	0.939464	-0.338782	-0.900175
H186	H	1.439464	0.161218	-0.400175
