data_functionalizedCrystal
_audit_creation_method	'MofGen! by Chris Wilmer'
_symmetry_space_group_name_H-M	'P1'
_symmetry_Int_Tables_number	1
_symmetry_cell_setting	triclinic
loop_
_symmetry_equiv_pos_as_xyz
  x,y,z
_cell_length_a	15.995343
_cell_length_b	10.723024
_cell_length_c	9.198806
_cell_angle_alpha	89.997988
_cell_angle_beta	90.000377
_cell_angle_gamma	83.978527
loop_
_atom_site_label
_atom_site_type_symbol
_atom_site_fract_x
_atom_site_fract_y
_atom_site_fract_z
O1	O	1.111913	0.160793	-0.120743
O2	O	1.611913	0.660793	0.379257
O3	O	0.868251	0.180665	-0.120777
O4	O	1.368251	0.680665	0.379223
O5	O	0.995702	-0.010919	-0.120754
O6	O	1.495702	0.489081	0.379246
O7	O	0.984461	0.352377	-0.120766
O8	O	1.484461	0.852377	0.379234
O9	O	0.995692	-0.010920	0.121031
O10	O	1.495692	0.489080	0.621031
O11	O	0.868241	0.180664	0.121008
O12	O	1.368241	0.680664	0.621008
O13	O	1.111903	0.160792	0.121042
O14	O	1.611903	0.660792	0.621042
Cu15	Cu	0.990071	0.170728	0.143102
Cu16	Cu	1.490071	0.670728	0.643102
Cu17	Cu	0.990083	0.170729	-0.142837
Cu18	Cu	1.490083	0.670729	0.357163
O19	O	0.984451	0.352376	0.121019
O20	O	1.484451	0.852376	0.621019
C21	C	0.994879	-0.057409	0.000137
C22	C	1.494879	0.442591	0.500137
C23	C	0.992432	-0.195932	0.000131
C24	C	1.492432	0.304068	0.500131
C25	C	0.837046	0.179845	0.000111
C26	C	1.337046	0.679845	0.500111
C27	C	0.744081	0.177387	0.000098
C28	C	1.244081	0.677387	0.500098
C29	C	1.063747	-0.271827	0.000140
C30	C	1.563747	0.228173	0.500140
C31	C	1.061219	-0.414998	0.000134
C32	C	1.561219	0.085002	0.500134
C33	C	0.573869	0.172926	0.000117
C34	C	1.073869	0.672926	0.500117
C35	C	0.549729	0.034631	0.000122
C36	C	1.049729	0.534631	0.500122
C37	C	0.453036	0.032029	0.000679
C38	C	0.953036	0.532029	0.500679
C39	C	0.406284	0.168531	0.000135
C40	C	0.906284	0.668531	0.500135
C41	C	0.435769	0.238068	0.137929
C42	C	0.935769	0.738068	0.637929
C43	C	0.532571	0.239708	0.138036
C44	C	1.032571	0.739708	0.638036
C45	C	0.532505	0.241733	-0.136928
C46	C	1.032505	0.741733	0.363072
C47	C	0.435981	0.236628	-0.138731
C48	C	0.935981	0.736628	0.361269
C49	C	0.311572	0.166055	0.000150
C50	C	0.811572	0.666055	0.500150
C51	C	0.668581	0.175406	0.000112
C52	C	1.168581	0.675406	0.500112
C53	C	1.143107	0.161612	0.000151
C54	C	1.643107	0.661612	0.500151
C55	C	1.236072	0.164070	0.000155
C56	C	1.736072	0.664070	0.500155
C57	C	0.985274	0.398866	0.000125
C58	C	1.485274	0.898866	0.500125
C59	C	0.987722	0.537389	0.000121
C60	C	1.487722	1.037389	0.500121
N61	N	0.990068	0.170727	0.344216
N62	N	1.490068	0.670727	0.844216
N63	N	0.990092	0.170720	-0.343951
N64	N	1.490092	0.670720	0.156049
C65	C	1.043581	0.089935	0.416423
C66	C	1.543581	0.589935	0.916423
C67	C	1.043594	0.089930	0.583835
C68	C	1.543594	0.589930	1.083835
H69	H	1.122270	-0.480212	0.000147
H70	H	1.622270	0.019788	0.500147
O71	O	1.104237	-0.001728	0.334158
O72	O	1.604237	0.498272	0.834158
H73	H	1.094699	0.012647	0.215575
H74	H	1.594699	0.512647	0.715575
O75	O	0.909073	-0.250250	0.000132
O76	O	1.409073	0.249750	0.500132
H77	H	0.904435	-0.308858	-0.098410
H78	H	1.404435	0.191142	0.401590
O79	O	0.929408	0.262373	0.426493
O80	O	1.429408	0.762373	0.926493
H81	H	0.890208	0.321560	0.348134
H82	H	1.390208	0.821560	0.848134
H83	H	0.926667	-0.397405	0.000124
H84	H	1.426667	0.102595	0.500124
H85	H	0.433708	-0.022403	-0.098077
H86	H	0.933708	0.477597	0.401923
O87	O	0.586471	-0.036415	-0.130689
O88	O	1.086471	0.463585	0.369311
H89	H	0.622329	0.026077	-0.197112
H90	H	1.122329	0.526077	0.302888
H91	H	1.126674	-0.230810	0.000157
H92	H	1.626674	0.269190	0.500157
O93	O	0.587704	-0.035229	0.130823
O94	O	1.087704	0.464771	0.630823
H95	H	0.623694	0.028119	0.195783
H96	H	1.123694	0.528119	0.695783
O97	O	0.411013	0.169576	-0.273779
O98	O	0.911013	0.669576	0.226221
H99	H	0.378057	0.087627	-0.242130
H100	H	0.878057	0.587627	0.257870
H101	H	0.434284	-0.022149	0.100037
H102	H	0.934284	0.477851	0.600037
H103	H	0.547727	0.341123	0.143925
H104	H	1.047727	0.841123	0.643925
H105	H	0.403596	0.336228	-0.147481
H106	H	0.903596	0.836228	0.352519
O107	O	1.104291	-0.001686	0.666081
O108	O	1.604291	0.498314	1.166081
H109	H	1.143486	-0.060856	0.587707
H110	H	1.643486	0.439144	1.087707
H111	H	0.559079	0.192114	0.241435
H112	H	1.059079	0.692114	0.741435
H113	H	0.404500	0.338529	0.142663
H114	H	0.904500	0.838529	0.642663
H115	H	0.415399	0.190357	0.240868
H116	H	0.915399	0.690357	0.740868
H117	H	0.560529	0.198102	-0.241405
H118	H	1.060529	0.698102	0.258595
H119	H	0.547103	0.343527	-0.138260
H120	H	1.047103	0.843527	0.361740
H121	H	0.944277	0.239898	0.593964
H122	H	1.444277	0.739898	1.093964
