data_functionalizedCrystal
_audit_creation_method	'MofGen! by Chris Wilmer'
_symmetry_space_group_name_H-M	'P1'
_symmetry_Int_Tables_number	1
_symmetry_cell_setting	triclinic
loop_
_symmetry_equiv_pos_as_xyz
  x,y,z
_cell_length_a	10.654551
_cell_length_b	17.019294
_cell_length_c	9.730223
_cell_angle_alpha	86.119703
_cell_angle_beta	90.000351
_cell_angle_gamma	83.938528
loop_
_atom_site_label
_atom_site_type_symbol
_atom_site_fract_x
_atom_site_fract_y
_atom_site_fract_z
O1	O	1.666098	0.110794	-0.127382
O2	O	1.300454	0.121349	-0.128638
O3	O	1.493477	0.001295	-0.114420
O4	O	1.473075	0.230848	-0.141600
O5	O	1.493475	0.001298	0.114160
O6	O	1.300452	0.121352	0.099942
O7	O	1.666096	0.110797	0.101197
Zn8	Zn	1.483273	0.116075	0.136862
Zn9	Zn	1.483276	0.116071	-0.164302
O10	O	1.473073	0.230851	0.086979
C11	C	1.253667	0.120575	-0.014257
C12	C	1.114260	0.118256	-0.013985
C13	C	0.917779	0.114981	0.111003
C14	C	1.048765	0.117167	0.110745
C15	C	1.048761	0.117168	-0.138466
C16	C	0.917776	0.114987	-0.138206
C17	C	0.852291	0.113883	0.235742
C18	C	0.917781	0.114973	0.360223
C19	C	1.048767	0.117159	0.359965
C20	C	1.114264	0.118255	0.235226
C21	C	1.492702	-0.028097	0.003347
C22	C	1.490382	-0.115680	0.013709
C23	C	1.489297	-0.156823	-0.106021
C24	C	1.487109	-0.239116	-0.096281
C25	C	1.486015	-0.280264	0.033190
C26	C	1.487098	-0.239115	0.152929
C27	C	1.489277	-0.156823	0.143188
C28	C	1.479428	-0.528732	0.068836
C29	C	1.477253	-0.611030	0.078569
C30	C	1.477262	-0.611026	-0.170643
C31	C	1.479448	-0.528733	-0.180373
C32	C	1.480524	-0.487590	-0.060634
C33	C	1.483783	-0.364381	0.043149
C34	C	1.482747	-0.403474	-0.070594
C35	C	1.712882	0.111571	-0.013186
C36	C	1.852289	0.113890	-0.013467
C37	C	1.473847	0.260243	-0.030791
C38	C	1.476167	0.347826	-0.041161
N39	N	1.483280	0.116077	0.342398
N40	N	1.483279	0.116063	-0.369837
C41	C	1.568773	0.062936	0.420617
C42	C	1.568769	0.062926	0.564501
C43	C	1.397778	0.169207	0.551933
C44	C	1.397776	0.169212	0.408052
C45	C	1.654277	0.009801	0.354963
C46	C	1.739777	-0.043345	0.433183
C47	C	1.739774	-0.043354	0.577068
C48	C	1.654271	0.009782	0.642731
H49	H	1.102084	0.118055	0.461322
H50	H	1.809384	-0.086611	0.379713
H51	H	1.809383	-0.086632	0.640754
N52	N	1.490487	-0.112446	-0.245666
H53	H	1.489465	-0.151000	-0.320035
H54	H	1.413579	-0.072333	-0.255846
N55	N	1.476103	-0.655404	-0.299780
H56	H	1.477131	-0.616850	-0.383276
H57	H	1.553018	-0.695511	-0.300447
H58	H	0.864453	0.114101	-0.239562
H59	H	1.220919	0.120045	0.235024
N60	N	1.305567	0.226513	0.622757
H61	H	1.353488	0.261720	0.678288
H62	H	1.251425	0.260126	0.551293
N63	N	1.483940	-0.359096	-0.210232
H64	H	1.482927	-0.397645	-0.284612
H65	H	1.407032	-0.318984	-0.220413
N66	N	0.711015	0.111527	0.236034
H67	H	0.669188	0.159815	0.181402
H68	H	0.689845	0.062158	0.192980
H69	H	1.654267	0.009764	0.759893
H70	H	1.486230	-0.272612	-0.193778
H71	H	0.864444	0.114087	0.461780
N72	N	1.305565	0.226525	0.323674
H73	H	1.251405	0.260189	0.387095
H74	H	1.353572	0.261682	0.259817
N75	N	1.119398	0.118347	-0.272998
H76	H	1.212314	0.119891	-0.254273
H77	H	1.106769	0.069150	-0.321582
H78	H	1.486200	-0.272623	0.258348
N79	N	1.480631	-0.484354	-0.320016
H80	H	1.479610	-0.522906	-0.394390
H81	H	1.403724	-0.444241	-0.330195
H82	H	1.476357	-0.644530	0.184005
H83	H	1.480329	-0.495245	0.166337
N84	N	1.482627	-0.408765	0.182791
H85	H	1.560822	-0.400410	0.236267
H86	H	1.405151	-0.388457	0.234764
N87	N	1.490450	-0.112437	0.272318
H88	H	1.412261	-0.120790	0.327780
H89	H	1.567932	-0.132744	0.329092
H90	H	1.654290	0.009805	0.237806
