data_functionalizedCrystal
_audit_creation_method	'MofGen! by Chris Wilmer'
_symmetry_space_group_name_H-M	'P1'
_symmetry_Int_Tables_number	1
_symmetry_cell_setting	triclinic
loop_
_symmetry_equiv_pos_as_xyz
  x,y,z
_cell_length_a	16.992694
_cell_length_b	17.038272
_cell_length_c	16.053802
_cell_angle_alpha	92.751609
_cell_angle_beta	87.249047
_cell_angle_gamma	90.889890
loop_
_atom_site_label
_atom_site_type_symbol
_atom_site_fract_x
_atom_site_fract_y
_atom_site_fract_z
O1	O	1.054593	0.163385	-0.069325
O2	O	0.826187	0.161558	-0.069350
O3	O	0.939032	0.048571	-0.069331
O4	O	0.941748	0.276372	-0.069344
O5	O	0.932819	0.054763	0.069527
O6	O	0.819974	0.167750	0.069508
O7	O	1.048380	0.169577	0.069533
Zn8	Zn	0.933190	0.169646	0.091567
Zn9	Zn	0.941376	0.161489	-0.091384
O10	O	0.935535	0.282564	0.069514
C11	C	0.793711	0.162304	0.000076
C12	C	0.706200	0.155293	0.000067
C13	C	0.660472	0.222933	0.000064
C14	C	0.578245	0.216342	0.000076
C15	C	0.541748	0.142110	0.000085
C16	C	0.587482	0.074465	0.000091
C17	C	0.669707	0.081057	0.000085
C18	C	0.296327	0.114789	0.000109
C19	C	0.214096	0.108201	0.000112
C20	C	0.204864	0.250079	0.000099
C21	C	0.287091	0.256665	0.000088
C22	C	0.332818	0.189020	0.000098
N23	N	0.457699	0.135371	0.000094
N24	N	0.416865	0.195760	0.000095
C25	C	0.933456	0.022384	0.000098
C26	C	0.926089	-0.064871	0.000097
C27	C	0.993729	-0.110741	0.000105
C28	C	0.986802	-0.192727	0.000096
C29	C	0.912235	-0.228840	0.000085
C30	C	0.844590	-0.182964	0.000075
C31	C	0.851518	-0.100981	0.000077
C32	C	0.887761	-0.476135	0.000071
C33	C	0.880838	-0.558124	0.000071
C34	C	1.023051	-0.567881	0.000091
C35	C	1.029972	-0.485895	0.000099
C36	C	0.962328	-0.440026	0.000084
C37	C	0.905153	-0.312643	0.000079
C38	C	0.969410	-0.356226	0.000084
C39	C	1.080856	0.168831	0.000105
C40	C	1.168367	0.175841	0.000109
C41	C	0.941111	0.308751	0.000084
C42	C	0.948478	0.396006	0.000079
N43	N	0.927609	0.175214	0.216427
N44	N	0.946963	0.155915	-0.216243
C45	C	0.975645	0.127157	0.260129
C46	C	0.971749	0.131060	0.347535
C47	C	0.919820	0.183023	0.391237
C48	C	0.871779	0.231082	0.347529
C49	C	0.875672	0.227175	0.260125
C50	C	0.902815	0.200067	0.652644
C51	C	0.898928	0.203972	0.740055
C52	C	0.998897	0.103948	0.740054
C53	C	1.002788	0.100050	0.652648
C54	C	0.954744	0.148105	0.608948
N55	N	0.915838	0.187015	0.480580
N56	N	0.958723	0.144109	0.519606
H57	H	0.706939	0.025977	0.000087
H58	H	0.832680	-0.438798	0.000059
C59	C	0.173951	0.026543	0.000124
H60	H	0.212959	-0.012800	0.000136
H61	H	0.144228	0.018863	-0.048298
H62	H	0.139905	0.023188	0.048554
H63	H	0.557760	0.014024	0.000110
H64	H	1.041882	-0.230071	0.000105
C65	C	0.814633	0.288217	0.395596
H66	H	0.786569	0.316265	0.357048
H67	H	0.843592	0.324219	0.429696
H68	H	0.778462	0.259402	0.429688
H69	H	1.054449	-0.081343	0.000119
H70	H	0.863697	0.239197	0.617070
C71	C	0.327236	0.338318	0.000074
H72	H	0.382756	0.332555	0.000061
H73	H	0.309707	0.368551	0.048493
H74	H	0.314020	0.364217	-0.048359
C75	C	0.762568	-0.222687	0.000065
H76	H	0.768128	-0.278083	0.000074
H77	H	0.736652	-0.209404	-0.048360
H78	H	0.732324	-0.205088	0.048492
H79	H	1.090692	-0.456497	0.000108
H80	H	0.333548	0.059707	0.000118
C81	C	0.822836	0.280040	0.212053
H82	H	0.791357	0.311553	0.250597
H83	H	0.789696	0.248207	0.177965
H84	H	0.854863	0.312988	0.177948
H85	H	1.078123	-0.605236	0.000102
C86	C	0.798812	-0.597849	0.000045
H87	H	0.759517	-0.558790	0.000026
H88	H	0.790979	-0.627474	0.048464
H89	H	0.795334	-0.631782	-0.048387
C90	C	0.777114	-0.050524	0.000071
H91	H	0.731712	-0.083772	0.000071
H92	H	0.779029	-0.020495	-0.048352
H93	H	0.774693	-0.016183	0.048500
H94	H	0.690181	0.283381	0.000056
C95	C	0.154566	0.324484	0.000092
H96	H	0.188080	0.369636	0.000080
H97	H	0.120137	0.327024	0.048515
H98	H	0.124461	0.322700	-0.048336
C99	C	1.051431	-0.316507	0.000098
H100	H	1.090728	-0.355565	0.000099
H101	H	1.054915	-0.282570	0.048521
H102	H	1.059256	-0.286885	-0.048331
C103	C	1.051734	0.051083	0.788122
H104	H	1.083220	0.019580	0.749576
H105	H	1.019712	0.018139	0.822228
H106	H	1.084880	0.082919	0.822209
H107	H	0.844440	-0.342056	0.000072
C108	C	1.032766	0.069996	0.212063
H109	H	1.060810	0.041929	0.250612
H110	H	1.068944	0.098779	0.177956
H111	H	1.003775	0.034000	0.177979
C112	C	1.024596	0.078205	0.395603
H113	H	1.056089	0.046708	0.357057
H114	H	0.992584	0.045255	0.429712
H115	H	1.057736	0.110051	0.429687
H116	H	0.541016	0.271422	0.000072
H117	H	0.856639	0.246290	0.775633
C118	C	1.059904	0.042885	0.604581
H119	H	1.087951	0.014817	0.643128
H120	H	1.096081	0.071669	0.570473
H121	H	1.030913	0.006890	0.570497
