data_functionalizedCrystal
_audit_creation_method	'MofGen! by Chris Wilmer'
_symmetry_space_group_name_H-M	'P1'
_symmetry_Int_Tables_number	1
_symmetry_cell_setting	triclinic
loop_
_symmetry_equiv_pos_as_xyz
  x,y,z
_cell_length_a	15.944557
_cell_length_b	15.021413
_cell_length_c	14.853567
_cell_angle_alpha	89.992183
_cell_angle_beta	96.431850
_cell_angle_gamma	89.994532
loop_
_atom_site_label
_atom_site_type_symbol
_atom_site_fract_x
_atom_site_fract_y
_atom_site_fract_z
O1	O	-1.114655	0.073986	0.116289
O2	O	-0.614655	0.573986	0.616289
O3	O	-0.870122	0.073995	0.130618
O4	O	-0.370122	0.573995	0.630618
O5	O	-0.998920	0.073993	-0.007784
O6	O	-0.498920	0.573993	0.492216
O7	O	-0.985857	0.073988	0.254692
O8	O	-0.485857	0.573988	0.754692
O9	O	-0.998900	-0.074071	-0.007765
O10	O	-0.498900	0.425929	0.492235
O11	O	-0.870102	-0.074069	0.130638
O12	O	-0.370102	0.425931	0.630638
O13	O	-1.114635	-0.074078	0.116309
O14	O	-0.614635	0.425922	0.616309
Zn15	Zn	-0.992365	-0.097582	0.123476
Zn16	Zn	-0.492365	0.402418	0.623476
Zn17	Zn	-0.992392	0.097499	0.123450
Zn18	Zn	-0.492392	0.597499	0.623450
O19	O	-0.985836	-0.074076	0.254711
O20	O	-0.485836	0.425924	0.754711
C21	C	-0.838817	-0.000035	0.130032
C22	C	-0.338817	0.499965	0.630032
C23	C	-0.745570	-0.000032	0.128246
C24	C	-0.245570	0.499968	0.628246
N25	N	-0.992353	-0.230719	0.123494
N26	N	-0.492353	0.269281	0.623494
C27	C	-0.474837	-0.000044	0.037116
C28	C	0.025163	0.499956	0.537116
C29	C	-0.525457	-0.073049	0.081057
C30	C	-0.025457	0.426951	0.581057
C31	C	-0.409921	-0.000052	0.121875
C32	C	0.090079	0.499948	0.621875
C33	C	-0.525458	0.072930	0.081060
C34	C	-0.025458	0.572930	0.581060
C35	C	-0.574837	-0.000041	0.125000
C36	C	-0.074837	0.499959	0.625000
C37	C	-0.459313	-0.073118	0.165793
C38	C	0.040687	0.426882	0.665793
C39	C	-0.459310	0.072927	0.165784
C40	C	0.040690	0.572927	0.665784
C41	C	-0.509897	-0.000096	0.209788
C42	C	-0.009897	0.499904	0.709788
C43	C	-0.314917	-0.000060	0.120071
C44	C	0.185083	0.499940	0.620071
C45	C	-0.669837	-0.000040	0.126810
C46	C	-0.169837	0.499960	0.626810
C47	C	-0.932787	-0.470402	0.187461
C48	C	-0.432787	0.029598	0.687461
C49	C	-1.008707	-0.529740	0.204965
C50	C	-0.508707	-0.029740	0.704965
C51	C	-0.992374	-0.412326	0.123471
C52	C	-0.492374	0.087674	0.623471
C53	C	-0.916475	-0.529730	0.105987
C54	C	-0.416475	-0.029730	0.605987
C55	C	-0.992388	-0.587750	0.123451
C56	C	-0.492388	-0.087750	0.623451
C57	C	-1.068332	-0.470358	0.141016
C58	C	-0.568332	0.029642	0.641016
C59	C	-0.976050	-0.470343	0.042002
C60	C	-0.476050	0.029657	0.542002
C61	C	-1.052025	-0.529654	0.059472
C62	C	-0.552025	-0.029654	0.559472
C63	C	-0.992365	-0.311269	0.123485
C64	C	-0.492365	0.188731	0.623485
C65	C	-0.992406	-0.688806	0.123437
C66	C	-0.492406	-0.188806	0.623437
C67	C	-0.145941	-0.000050	0.116882
C68	C	0.354059	0.499950	0.616882
C69	C	-0.239193	-0.000061	0.118632
C70	C	0.260807	0.499939	0.618632
C71	C	-0.998318	-0.000036	-0.041363
C72	C	-0.498318	0.499964	0.458637
C73	C	-0.996544	-0.000028	-0.141444
C74	C	-0.496544	0.499972	0.358556
N75	N	-0.992411	0.230637	0.123426
N76	N	-0.492411	0.730637	0.623426
C77	C	-0.912537	-0.000042	-0.553872
C78	C	-0.412537	0.499958	-0.053872
C79	C	-1.065553	-0.000048	-0.575346
C80	C	-0.565553	0.499952	-0.075346
C81	C	-1.067220	-0.000043	-0.481314
C82	C	-0.567220	0.499957	0.018686
C83	C	-0.991546	-0.000039	-0.423557
C84	C	-0.491546	0.499961	0.076443
C85	C	-0.914203	-0.000040	-0.459831
C86	C	-0.414203	0.499960	0.040169
C87	C	-1.144562	-0.000051	-0.445032
C88	C	-0.644562	0.499949	0.054968
C89	C	-1.146233	-0.000047	-0.350995
C90	C	-0.646233	0.499953	0.149005
C91	C	-1.070557	-0.000036	-0.293236
C92	C	-0.570557	0.499964	0.206764
C93	C	-0.993211	-0.000036	-0.329516
C94	C	-0.493211	0.499964	0.170484
C95	C	-0.917536	-0.000032	-0.271759
C96	C	-0.417536	0.499968	0.228241
C97	C	-0.840189	-0.000026	-0.308037
C98	C	-0.340189	0.499974	0.191963
C99	C	-0.838527	-0.000029	-0.402072
C100	C	-0.338527	0.499971	0.097928
C101	C	-1.072219	-0.000033	-0.199201
C102	C	-0.572219	0.499967	0.300799
C103	C	-0.919202	-0.000030	-0.177718
C104	C	-0.419202	0.499970	0.322282
C105	C	-0.986438	-0.000044	0.288289
C106	C	-0.486438	0.499956	0.788289
C107	C	-0.988212	-0.000046	0.388371
C108	C	-0.488212	0.499954	0.888371
H109	H	-0.459102	-0.000114	-0.035883
H110	H	0.040898	0.499886	0.464117
H111	H	-0.849563	-0.000034	-0.583414
H112	H	-0.349563	0.499966	-0.083414
N113	N	-0.563729	-0.154796	0.033653
N114	N	-0.063729	0.345204	0.533653
H115	H	-0.593282	-0.191363	0.077665
H116	H	-0.093282	0.308637	0.577665
H117	H	-0.517681	-0.191557	0.010407
H118	H	-0.017681	0.308443	0.510407
N119	N	-0.866113	-0.435923	0.259195
N120	N	-0.366113	0.064077	0.759195
H121	H	-0.823882	-0.398916	0.229724
H122	H	-0.323882	0.101084	0.729724
H123	H	-0.836288	-0.487800	0.292099
H124	H	-0.336288	0.012200	0.792099
N125	N	-0.421016	0.154681	0.213140
N126	N	0.078984	0.654681	0.713140
H127	H	-0.379735	0.136081	0.266386
H128	H	0.120265	0.636081	0.766386
H129	H	-0.467183	0.192095	0.235276
H130	H	0.032817	0.692095	0.735276
H131	H	-0.430535	-0.134906	0.201571
H132	H	0.069465	0.365094	0.701571
N133	N	-1.118844	-0.563914	-0.012224
N134	N	-0.618844	-0.063914	0.487776
H135	H	-1.149379	-0.511984	-0.044277
H136	H	-0.649379	-0.011984	0.455723
H137	H	-1.160457	-0.601795	0.017200
H138	H	-0.660457	-0.101795	0.517200
N139	N	-0.530542	-0.000140	0.306550
N140	N	-0.030542	0.499860	0.806550
H141	H	-0.505405	0.054467	0.338798
H142	H	-0.005405	0.554467	0.838798
H143	H	-0.506245	-0.055341	0.338385
H144	H	-0.006245	0.444659	0.838385
N145	N	-0.563726	0.154682	0.033622
N146	N	-0.063726	0.654682	0.533622
H147	H	-0.551259	0.154614	-0.031562
H148	H	-0.051259	0.654614	0.468438
H149	H	-0.538715	0.209776	0.065025
H150	H	-0.038715	0.709776	0.565025
N151	N	-1.027020	-0.564300	0.296210
N152	N	-0.527020	-0.064300	0.796210
H153	H	-0.981974	-0.542753	0.344515
H154	H	-0.481974	-0.042753	0.844515
H155	H	-1.027453	-0.631527	0.295262
H156	H	-0.527453	-0.131527	0.795262
N157	N	-0.957723	-0.435756	-0.049221
N158	N	-0.457723	0.064244	0.450779
H159	H	-0.900340	-0.457316	-0.062366
H160	H	-0.400340	0.042684	0.437634
H161	H	-0.958452	-0.368529	-0.048649
H162	H	-0.458452	0.131471	0.451351
N163	N	-1.229649	-0.000038	-0.311865
N164	N	-0.729649	0.499962	0.188135
H165	H	-1.233746	-0.054922	-0.273314
H166	H	-0.733746	0.445078	0.226686
H167	H	-1.277288	-0.000007	-0.362771
H168	H	-0.777288	0.499993	0.137229
H169	H	-1.135194	-0.000044	-0.169668
H170	H	-0.635194	0.499956	0.330332
H171	H	-1.132538	-0.444388	0.155878
H172	H	-0.632538	0.055612	0.655878
H173	H	-0.852283	-0.555812	0.091208
H174	H	-0.352283	-0.055812	0.591208
N175	N	-0.837580	-0.000018	-0.115425
N176	N	-0.337580	0.499982	0.384575
H177	H	-0.788333	-0.000013	-0.152678
H178	H	-0.288333	0.499987	0.347322
H179	H	-0.834927	-0.054907	-0.075933
H180	H	-0.334927	0.445093	0.424067
H181	H	-0.778575	-0.000029	-0.260999
H182	H	-0.278575	0.499971	0.239001
H183	H	-0.775555	-0.000025	-0.431619
H184	H	-0.275555	0.499975	0.068381
H185	H	-1.127164	-0.000058	-0.622377
H186	H	-0.627164	0.499942	-0.122377
H187	H	-1.206172	-0.000062	-0.492064
H188	H	-0.706172	0.499938	0.007936
