data_functionalizedCrystal
_audit_creation_method	'MofGen! by Chris Wilmer'
_symmetry_space_group_name_H-M	'P1'
_symmetry_Int_Tables_number	1
_symmetry_cell_setting	triclinic
loop_
_symmetry_equiv_pos_as_xyz
  x,y,z
_cell_length_a	18.760490
_cell_length_b	14.560438
_cell_length_c	14.560438
_cell_angle_alpha	60.005799
_cell_angle_beta	90.018061
_cell_angle_gamma	60.023932
loop_
_atom_site_label
_atom_site_type_symbol
_atom_site_fract_x
_atom_site_fract_y
_atom_site_fract_z
Zr1	Zr	0.686571	1.005560	-0.120276
O2	O	0.572784	1.197086	-0.266914
O3	O	0.721449	0.813993	-0.075343
O4	O	0.721455	1.005581	-0.266920
O5	O	0.572779	1.005496	0.075803
O6	O	0.838733	1.005643	-0.266902
O7	O	0.572779	1.005498	-0.075338
O8	O	0.838723	0.662927	0.075793
O9	O	0.572789	1.348212	-0.266892
O10	O	0.823853	0.892849	-0.056144
O11	O	0.736329	0.892800	0.056638
O12	O	0.736336	1.118370	-0.168918
O13	O	0.648812	1.118322	-0.056137
Zr14	Zr	0.873617	1.005655	0.120804
Zr15	Zr	0.873617	1.005659	-0.120248
Zr16	Zr	0.686572	1.005556	0.120776
Zr17	Zr	0.686579	1.246587	-0.120241
Zr18	Zr	0.873610	0.764628	0.120769
O19	O	0.838740	1.197222	0.075871
O20	O	0.838739	1.197228	-0.266874
O21	O	0.572785	1.197080	0.075831
O22	O	0.987404	0.814129	0.267441
O23	O	0.987404	0.814135	-0.075304
O24	O	0.721449	0.813987	0.267402
O25	O	0.987410	1.005719	-0.075276
O26	O	0.838734	1.005634	0.267447
O27	O	0.721455	1.005572	0.267430
O28	O	0.987410	1.005717	0.075865
O29	O	0.721465	1.348291	-0.266869
O30	O	0.838723	0.662924	0.267397
O31	O	0.987400	0.663003	0.267419
O32	O	0.987399	0.663007	0.075815
O33	O	0.572789	1.348208	-0.075287
O34	O	0.721466	1.348288	-0.075265
O35	O	0.823853	0.892845	0.169446
O36	O	0.911376	0.892893	0.056664
O37	O	0.823860	1.118415	-0.056110
O38	O	0.736336	1.118366	0.056671
C39	C	0.780085	0.704119	0.000220
C40	C	0.780082	0.601796	0.000205
C41	C	0.715477	0.636890	-0.083027
C42	C	0.715491	0.540701	-0.082970
C43	C	0.844718	0.374326	0.083559
C44	C	0.844707	0.470514	0.083497
C45	C	0.640867	0.732944	-0.179168
C46	C	0.640881	0.636755	-0.179112
C47	C	0.546129	1.005483	0.000229
C48	C	0.466723	1.005440	0.000217
C49	C	0.130735	1.005742	-0.082968
C50	C	0.130851	1.005739	0.083570
C51	C	0.205498	1.005674	0.083552
C52	C	0.242767	1.005642	0.000273
C53	C	0.205390	1.005674	-0.082987
C54	C	0.242885	1.005629	0.166816
C55	C	0.317537	1.005563	0.166802
C56	C	0.354804	1.005540	0.083518
C57	C	0.317422	1.005573	0.000254
C58	C	0.354691	1.005541	-0.083024
C59	C	0.317307	1.005583	-0.166293
C60	C	0.242657	1.005650	-0.166270
C61	C	0.429453	1.005473	0.083495
C62	C	0.429346	1.005472	-0.083043
C63	C	1.014060	1.005732	0.000299
C64	C	1.093466	1.005775	0.000311
C65	C	0.780094	1.005613	-0.301256
C66	C	0.780094	1.005614	-0.403589
C67	C	0.780104	1.307096	0.000308
C68	C	0.780107	1.409419	0.000323
C69	C	0.734408	1.123332	-0.510532
C70	C	0.734410	1.123326	-0.606681
C71	C	0.825787	0.887874	-0.488929
C72	C	0.825789	0.887881	-0.392783
C73	C	0.681649	1.259269	-0.578516
C74	C	0.681652	1.259263	-0.674665
C75	C	0.780095	1.005602	0.301783
C76	C	0.780095	1.005601	0.404116
C77	C	1.014051	0.704243	0.000255
C78	C	1.093453	0.601963	0.000251
C79	C	0.780085	0.704114	0.301739
C80	C	0.780082	0.601789	0.404057
C81	C	1.014051	0.704238	0.301774
C82	C	1.093454	0.601956	0.404104
C83	C	0.546138	1.306977	-0.301246
C84	C	0.466735	1.409259	-0.403576
C85	C	0.546138	1.306972	0.000273
C86	C	0.466735	1.409252	0.000276
C87	C	0.780103	1.307101	-0.301211
C88	C	0.780107	1.409426	-0.403529
C89	C	1.085055	0.553908	-0.058645
C90	C	1.159655	0.457818	-0.058670
C91	C	1.242653	0.409779	0.000208
C92	C	1.251049	0.457844	0.059106
C93	C	1.176450	0.553938	0.059124
C94	C	1.176436	0.553949	0.393288
C95	C	1.251051	0.457858	0.489429
C96	C	1.242681	0.409769	0.596384
C97	C	1.159689	0.457786	0.607197
C98	C	1.085077	0.553882	0.511058
C99	C	0.383752	1.457278	-0.392760
C100	C	0.309138	1.553399	-0.488901
C101	C	0.317508	1.601493	-0.595856
C102	C	0.400499	1.553470	-0.606670
C103	C	0.475112	1.457357	-0.510530
C104	C	0.475134	1.457317	0.059162
C105	C	0.400533	1.553433	0.059161
C106	C	0.317536	1.601476	0.000280
C107	C	0.309140	1.553407	-0.058613
C108	C	0.383739	1.457299	-0.058618
C109	C	0.825768	0.553736	0.511011
C110	C	0.825759	0.457596	0.607145
C111	C	0.734375	0.457569	0.489359
C112	C	0.734380	0.553713	0.393227
C113	C	0.878531	0.553747	0.579015
C114	C	0.878521	0.457607	0.675149
H115	H	0.897321	0.441929	0.151263
H116	H	0.241570	1.592483	-0.480074
H117	H	0.897333	0.267427	0.151373
C118	C	0.587280	1.329721	-0.745182
N119	N	0.516203	1.382785	-0.798293
C120	C	0.649550	0.818024	-0.290117
N121	N	0.656093	0.882102	-0.373681
H122	H	0.376921	1.418125	-0.305681
C123	C	0.721299	1.329813	-0.578520
N124	N	0.751166	1.382943	-0.578521
C125	C	1.324766	0.304050	0.702130
N126	N	1.386595	0.224418	0.781774
C127	C	0.560693	0.813544	-0.156521
N128	N	0.500303	0.874258	-0.139468
C129	C	1.324706	0.304063	0.000185
N130	N	1.386506	0.224432	0.000169
H131	H	0.459892	1.005430	0.151296
C132	C	0.566391	1.404531	-0.522447
N133	N	0.635142	1.364745	-0.531430
H134	H	1.183268	0.593089	0.306209
H135	H	0.241553	1.592538	-0.106553
H136	H	0.863001	0.792024	-0.305707
C137	C	0.235423	1.707210	-0.701602
N138	N	0.173593	1.786831	-0.781246
H139	H	0.407304	1.592640	-0.693764
C140	C	0.838902	0.675314	0.579051
N141	N	0.809057	0.766876	0.579080
C142	C	0.658467	0.636738	-0.282413
N143	N	0.671705	0.636730	-0.360222
H144	H	0.212215	1.005683	-0.234065
C145	C	0.993765	0.606740	-0.123427
N146	N	0.925006	0.646534	-0.172231
C147	C	1.342355	0.404977	0.123876
N148	N	1.411128	0.365147	0.172668
H149	H	1.183300	0.593052	0.107091
C150	C	1.342333	0.405045	0.477509
N151	N	1.411084	0.365266	0.468527
H152	H	0.862990	0.792020	-0.480144
H153	H	1.152801	0.418696	-0.106632
C154	C	0.374486	1.404423	-0.123387
N155	N	0.367510	1.364599	-0.172172
C156	C	0.993797	0.606676	0.522974
N157	N	0.925046	0.646439	0.531958
H158	H	0.407387	1.592555	0.107123
H159	H	0.697165	0.418414	0.480555
H160	H	1.152887	0.418618	0.694293
C161	C	0.566424	1.404494	0.123935
N162	N	0.635182	1.364721	0.172719
H163	H	0.843717	0.493716	0.726073
C164	C	0.554811	0.651303	-0.167884
N165	N	0.489988	0.662255	-0.159423
H166	H	0.946077	0.517652	0.570291
H167	H	0.614103	1.301425	-0.569792
C168	C	0.235483	1.707192	0.000303
N169	N	0.173683	1.786814	0.000327
H170	H	0.697168	0.592848	0.306143
C171	C	0.972889	0.336044	0.745663
N172	N	1.043964	0.244484	0.798771
H173	H	0.459683	1.005453	-0.150862
H174	H	0.347663	1.005548	-0.234095
H175	H	0.100508	1.005756	0.151377
C176	C	0.089614	1.005785	-0.174558
N177	N	0.058641	1.005814	-0.243543
H178	H	0.716462	1.301470	-0.725577
C179	C	0.358662	1.005494	0.258411
N180	N	0.389640	1.005435	0.327415
C181	C	0.201929	1.005552	0.258473
N182	N	0.171091	1.005458	0.327529
