data_functionalizedCrystal
_audit_creation_method	'MofGen! by Chris Wilmer'
_symmetry_space_group_name_H-M	'P1'
_symmetry_Int_Tables_number	1
_symmetry_cell_setting	triclinic
loop_
_symmetry_equiv_pos_as_xyz
  x,y,z
_cell_length_a	14.044220
_cell_length_b	14.044209
_cell_length_c	12.503572
_cell_angle_alpha	93.841427
_cell_angle_beta	93.835250
_cell_angle_gamma	86.811584
loop_
_atom_site_label
_atom_site_type_symbol
_atom_site_fract_x
_atom_site_fract_y
_atom_site_fract_z
O1	O	1.282199	-0.225116	0.089218
O2	O	1.005529	-0.216809	0.089244
O3	O	1.139711	-0.082627	0.089216
O4	O	1.148016	-0.359297	0.089246
O5	O	1.129621	-0.092737	-0.089424
O6	O	0.995439	-0.226918	-0.089395
O7	O	1.272109	-0.235225	-0.089422
Cu8	Cu	1.132853	-0.231995	-0.105720
Cu9	Cu	1.144785	-0.220039	0.105542
O10	O	1.137927	-0.369407	-0.089394
C11	C	0.964862	-0.218228	-0.000072
C12	C	0.858720	-0.207382	-0.000063
C13	C	1.131031	-0.052060	-0.000105
C14	C	1.120187	0.054082	-0.000109
C15	C	0.664381	-0.187558	-0.000086
C16	C	0.613251	-0.264472	-0.000082
C17	C	0.505114	-0.253441	-0.000095
C18	C	0.772528	-0.198587	-0.000073
C19	C	1.100363	0.248421	-0.000098
C20	C	1.177277	0.299550	-0.000104
C21	C	1.166247	0.407687	-0.000098
C22	C	1.111392	0.140274	-0.000104
C23	C	1.312776	-0.233806	-0.000103
C24	C	1.418918	-0.244651	-0.000106
N25	N	1.124467	-0.240404	-0.254311
C26	C	1.146609	0.600026	-0.000079
C27	C	1.157458	0.493883	-0.000093
C28	C	1.112132	-0.252782	-0.473423
C29	C	1.165510	-0.199248	-0.526762
C30	C	1.158646	-0.206135	-0.648683
C31	C	1.118994	-0.245896	-0.351490
N32	N	1.153178	-0.211623	0.254133
H33	H	0.650690	-0.338604	-0.000069
C34	C	1.234222	-0.130355	-0.464753
N35	N	1.285979	-0.078473	-0.418043
H36	H	1.251414	0.262115	-0.000038
H37	H	1.026236	0.285858	-0.000089
H38	H	0.626944	-0.113431	-0.000100
H39	H	1.061284	-0.303783	-0.519320
