data_functionalizedCrystal
_audit_creation_method	'MofGen! by Chris Wilmer'
_symmetry_space_group_name_H-M	'P1'
_symmetry_Int_Tables_number	1
_symmetry_cell_setting	triclinic
loop_
_symmetry_equiv_pos_as_xyz
  x,y,z
_cell_length_a	16.974800
_cell_length_b	17.699083
_cell_length_c	16.176319
_cell_angle_alpha	89.992304
_cell_angle_beta	93.649398
_cell_angle_gamma	83.336669
loop_
_atom_site_label
_atom_site_type_symbol
_atom_site_fract_x
_atom_site_fract_y
_atom_site_fract_z
O1	O	1.048963	0.096411	0.001457
O2	O	0.818733	0.108710	-0.013953
O3	O	0.940353	-0.007624	-0.005805
O4	O	0.927344	0.212746	-0.006691
O5	O	0.940336	-0.007632	0.131687
O6	O	0.818717	0.108703	0.123539
O7	O	1.048946	0.096404	0.138950
Cu8	Cu	0.933830	0.102553	0.143798
Cu9	Cu	0.933850	0.102561	-0.018802
O10	O	0.927327	0.212738	0.130801
C11	C	0.939878	-0.035825	0.062910
C12	C	0.938480	-0.119844	0.062816
C13	C	0.789268	0.108241	0.052821
C14	C	0.701494	0.106844	0.046946
C15	C	1.009868	-0.168418	0.067596
C16	C	1.008549	-0.247362	0.067500
C17	C	0.935842	-0.277731	0.062631
C18	C	0.864448	-0.229151	0.057849
C19	C	0.865768	-0.150209	0.057938
C20	C	0.859125	-0.547518	0.057486
C21	C	0.857811	-0.626467	0.057399
C22	C	1.001907	-0.644671	0.067048
C23	C	1.003226	-0.565728	0.067137
C24	C	0.931833	-0.517156	0.062351
C25	C	0.933264	-0.431556	0.062453
C26	C	0.934410	-0.363330	0.062535
C27	C	0.660253	0.106182	0.119135
C28	C	0.577782	0.104857	0.113617
C29	C	0.536552	0.104200	0.035909
C30	C	0.577799	0.104860	-0.036285
C31	C	0.660269	0.106179	-0.030766
C32	C	0.289903	0.100249	0.011368
C33	C	0.207427	0.098932	0.005854
C34	C	0.207416	0.098928	0.155757
C35	C	0.289887	0.100252	0.161268
C36	C	0.331127	0.100908	0.089074
N37	N	0.452253	0.102848	0.030267
N38	N	0.415426	0.102254	0.094717
C39	C	1.078412	0.096873	0.072173
C40	C	1.166186	0.098270	0.078043
C41	C	0.927802	0.240939	0.062085
C42	C	0.929200	0.324958	0.062173
N43	N	0.933822	0.102546	0.258163
N44	N	0.933864	0.102562	-0.133166
C45	C	0.987691	0.051054	0.305036
C46	C	0.987695	0.051053	0.391583
C47	C	0.933833	0.102549	0.431256
C48	C	0.879958	0.154043	0.384377
C49	C	0.879951	0.154040	0.297831
C50	C	0.879985	0.154057	0.733407
C51	C	0.879998	0.154058	0.819959
C52	C	0.987729	0.051071	0.827160
C53	C	0.987722	0.051068	0.740614
C54	C	0.933845	0.102559	0.693741
C55	C	0.933840	0.102558	0.599897
C56	C	0.933841	0.102554	0.525099
H57	H	1.069075	-0.143698	0.071566
H58	H	1.031584	0.009138	0.708315
O59	O	0.537838	0.104254	0.183823
C60	C	0.591914	0.105104	0.253592
H61	H	0.647382	0.129995	0.235325
H62	H	0.609101	0.044554	0.277798
C63	C	0.484714	0.123629	0.344216
C64	C	0.552838	0.154207	0.321783
H65	H	0.460609	0.153915	0.386281
H66	H	0.448281	0.123054	0.297212
H67	H	0.499046	0.073172	0.364383
H68	H	0.538503	0.204659	0.301607
H69	H	0.589267	0.154792	0.368785
H70	H	0.807636	-0.110660	0.054046
O71	O	0.329830	0.100920	-0.058841
C72	C	0.275754	0.100039	-0.128607
H73	H	0.213645	0.123053	-0.110790
H74	H	0.275396	0.039208	-0.151667
C75	C	0.377351	0.121894	-0.219619
C76	C	0.301069	0.150167	-0.197737
H77	H	0.392967	0.152812	-0.262263
H78	H	0.413784	0.122484	-0.172617
H79	H	0.377042	0.071202	-0.238830
H80	H	0.301381	0.200854	-0.178516
H81	H	0.264636	0.149586	-0.244737
O82	O	0.167339	0.098148	0.225859
C83	C	0.128705	0.031876	0.227753
H84	H	0.159913	-0.013516	0.187310
H85	H	0.064150	0.045689	0.203299
C86	C	0.093224	0.057890	0.367162
C87	C	0.131557	0.002137	0.317494
H88	H	0.094979	0.039546	0.422519
H89	H	0.119249	0.102541	0.365885
H90	H	0.039431	0.069396	0.346774
H91	H	0.185351	-0.009362	0.337876
H92	H	0.105541	-0.042517	0.318776
O93	O	0.167318	0.098425	-0.069616
C94	C	0.110518	0.163173	-0.077893
H95	H	0.129025	0.209363	-0.034134
H96	H	0.050068	0.147365	-0.061789
C97	C	0.082397	0.136129	-0.221548
C98	C	0.105132	0.192863	-0.167807
H99	H	0.079071	0.154442	-0.277012
H100	H	0.120662	0.092506	-0.215971
H101	H	0.032025	0.122961	-0.208118
H102	H	0.155508	0.206024	-0.181231
H103	H	0.066875	0.236490	-0.173388
O104	O	1.071313	-0.691780	0.071581
C105	C	1.115468	-0.678028	0.003320
H106	H	1.095940	-0.618118	-0.021724
H107	H	1.104748	-0.721189	-0.047264
C108	C	1.228546	-0.759213	0.061679
C109	C	1.204566	-0.685629	0.030923
H110	H	1.283506	-0.763905	0.078704
H111	H	1.198797	-0.768481	0.107666
H112	H	1.219606	-0.795172	0.019520
H113	H	1.213497	-0.649672	0.073085
H114	H	1.234318	-0.676355	-0.015057
O115	O	0.700402	0.106719	0.194575
C116	C	0.757177	0.041954	0.202872
H117	H	0.772569	0.020314	0.138829
H118	H	0.731751	-0.004435	0.238158
C119	C	0.813846	0.089685	0.329439
C120	C	0.832756	0.063110	0.250780
H121	H	0.860465	0.102732	0.358995
H122	H	0.775593	0.133317	0.323852
H123	H	0.792657	0.051022	0.358834
H124	H	0.853935	0.101775	0.221383
H125	H	0.871014	0.019484	0.256364
O126	O	0.329818	0.100854	0.236820
C127	C	0.275729	0.100007	0.299354
H128	H	0.220266	0.075114	0.273676
H129	H	0.258537	0.160557	0.321241
C130	C	0.382912	0.081488	0.404325
C131	C	0.314794	0.050907	0.372788
H132	H	0.407009	0.051204	0.449624
H133	H	0.419353	0.082062	0.362195
H134	H	0.368576	0.131946	0.422557
H135	H	0.329133	0.000454	0.354547
H136	H	0.278356	0.050324	0.414917
H137	H	1.066681	-0.286908	0.071394
O138	O	1.073805	-0.536140	0.071752
C139	C	1.078893	-0.491029	0.000873
H140	H	1.016537	-0.471295	-0.027039
H141	H	1.113944	-0.525940	-0.046646
C142	C	1.197923	-0.445485	0.059623
C143	C	1.121336	-0.421243	0.025346
H144	H	1.224107	-0.402439	0.074717
H145	H	1.194498	-0.475879	0.107375
H146	H	1.227122	-0.474578	0.020019
H147	H	1.092135	-0.392158	0.064953
H148	H	1.124757	-0.390842	-0.022399
H149	H	0.544224	0.104320	-0.099556
H150	H	0.836099	0.195969	0.416683
O151	O	0.700206	0.106860	-0.100973
C152	C	0.646135	0.105980	-0.170743
H153	H	0.584023	0.128988	-0.152929
H154	H	0.645784	0.045151	-0.193810
C155	C	0.747736	0.127853	-0.261743
C156	C	0.671450	0.156117	-0.239864
H157	H	0.763352	0.158776	-0.304382
H158	H	0.784165	0.128442	-0.214738
H159	H	0.747433	0.077162	-0.280960
H160	H	0.671756	0.206803	-0.220638
H161	H	0.635021	0.155537	-0.286868
H162	H	0.798600	-0.651190	0.053435
O163	O	1.039936	0.000912	0.266552
C164	C	1.027224	-0.073993	0.286911
H165	H	0.963917	-0.074306	0.306467
H166	H	1.071080	-0.096235	0.340095
C167	C	1.117366	-0.124960	0.186872
C168	C	1.039609	-0.125346	0.210884
H169	H	1.125010	-0.156638	0.139977
H170	H	1.125933	-0.074496	0.173157
H171	H	1.153904	-0.143493	0.231198
H172	H	1.003074	-0.106804	0.166561
H173	H	1.031036	-0.175808	0.224589
H174	H	1.031597	0.009141	0.865332
H175	H	0.800992	-0.507979	0.053588
O176	O	0.793888	-0.258775	0.053159
C177	C	0.808030	-0.338868	0.054087
H178	H	0.869766	-0.357478	0.084250
H179	H	0.804248	-0.360833	-0.012128
C180	C	0.669362	-0.348691	0.066754
C181	C	0.745186	-0.371548	0.103808
H182	H	0.630596	-0.368851	0.097420
H183	H	0.659834	-0.294731	0.066126
H184	H	0.666222	-0.366997	0.011576
H185	H	0.748328	-0.353235	0.158980
H186	H	0.754714	-0.425506	0.104446
O187	O	1.039921	0.000961	0.437142
C188	C	0.997685	-0.045706	0.484409
H189	H	0.935330	-0.046957	0.454174
H190	H	0.993502	-0.022020	0.549719
C191	C	1.118014	-0.125455	0.525797
C192	C	1.041431	-0.126996	0.488658
H193	H	1.145000	-0.175597	0.528422
H194	H	1.146470	-0.094013	0.493955
H195	H	1.114517	-0.105713	0.580219
H196	H	1.044929	-0.146728	0.434234
H197	H	1.012976	-0.158443	0.520491
O198	O	0.827636	0.203976	0.858588
C199	C	0.778940	0.163460	0.905396
H200	H	0.810557	0.104220	0.920477
H201	H	0.720511	0.158342	0.868151
C202	C	0.723133	0.278900	0.967946
C203	C	0.761969	0.206142	0.986474
H204	H	0.712660	0.305229	1.017957
H205	H	0.755938	0.306197	0.936408
H206	H	0.674447	0.274625	0.936907
H207	H	0.810658	0.210419	1.017504
H208	H	0.729171	0.178847	1.018020
H209	H	0.836118	0.195984	0.695250
H210	H	0.836084	0.195969	0.259667
