data_functionalizedCrystal
_audit_creation_method	'MofGen! by Chris Wilmer'
_symmetry_space_group_name_H-M	'P1'
_symmetry_Int_Tables_number	1
_symmetry_cell_setting	triclinic
loop_
_symmetry_equiv_pos_as_xyz
  x,y,z
_cell_length_a	12.811457
_cell_length_b	14.044190
_cell_length_c	11.295483
_cell_angle_alpha	94.464886
_cell_angle_beta	91.289320
_cell_angle_gamma	88.597539
loop_
_atom_site_label
_atom_site_type_symbol
_atom_site_fract_x
_atom_site_fract_y
_atom_site_fract_z
O1	O	1.401200	0.131066	0.052280
O2	O	1.099054	0.142860	0.019646
O3	O	1.245587	-0.001070	0.035496
O4	O	1.254668	0.274996	0.036430
O5	O	1.232715	0.011552	0.232155
O6	O	1.086182	0.155482	0.216305
O7	O	1.388328	0.143688	0.248938
Cu8	Cu	1.236080	0.150737	0.250578
Cu9	Cu	1.251303	0.135810	0.018007
O10	O	1.241796	0.287618	0.233088
C11	C	1.053716	0.148123	0.113774
C12	C	0.937800	0.144990	0.101256
C13	C	0.705946	0.152847	0.292153
C14	C	0.597032	0.149903	0.280397
C15	C	0.611057	0.136152	0.065988
C16	C	0.719971	0.139096	0.077744
C17	C	0.767411	0.147445	0.190831
C18	C	0.876327	0.150395	0.202586
C19	C	0.890350	0.136638	-0.011822
C20	C	0.781436	0.133694	-0.023578
C21	C	1.235179	-0.030116	0.133400
C22	C	1.223332	-0.135471	0.132131
C23	C	1.285693	-0.385081	0.138819
C24	C	1.201695	-0.328367	0.129755
C25	C	1.213737	-0.221030	0.131077
C26	C	1.273653	-0.492428	0.137498
C27	C	1.433666	0.138424	0.154808
C28	C	1.549583	0.141557	0.167318
C29	C	1.252204	0.316664	0.135182
C30	C	1.264051	0.422018	0.136443
N31	N	1.225381	0.161236	0.414157
N32	N	1.262010	0.125305	-0.145572
C33	C	1.339024	0.049679	0.675739
C34	C	1.330947	0.057619	0.799529
C35	C	1.201143	0.185052	0.785529
C36	C	1.209221	0.177111	0.661739
C37	C	1.278165	0.109424	0.606848
C38	C	1.286247	0.101488	0.483057
C39	C	1.156439	0.228916	0.469058
C40	C	1.148361	0.236856	0.592848
H41	H	0.572412	0.129338	-0.026081
H42	H	1.106886	0.277567	0.412954
N43	N	0.730266	0.124680	-0.145544
H44	H	0.651942	0.123632	-0.137619
H45	H	0.749374	0.180884	-0.190631
N46	N	0.956643	0.130820	-0.121116
H47	H	1.032839	0.133956	-0.096512
H48	H	0.943661	0.068613	-0.169661
N49	N	1.094454	-0.370821	0.118162
H50	H	1.100937	-0.442593	0.118851
H51	H	1.050576	-0.344425	0.186849
N52	N	1.392925	-0.342625	0.150434
H53	H	1.386434	-0.270852	0.149756
H54	H	1.427243	-0.359698	0.227568
N55	N	1.360608	0.028490	0.423848
H56	H	1.397933	-0.008154	0.486279
H57	H	1.320144	-0.017204	0.367770
N58	N	1.413391	-0.023312	0.616527
H59	H	1.450726	-0.059953	0.678954
H60	H	1.372933	-0.069011	0.560449
H61	H	0.744572	0.159657	0.384233
H62	H	1.380503	0.008968	0.855616
N63	N	1.126784	0.258041	0.844758
H64	H	1.167182	0.303793	0.900833
H65	H	1.089463	0.294623	0.782271
N66	N	0.927499	0.159407	0.324550
H67	H	0.872030	0.162380	0.386953
H68	H	0.975373	0.102238	0.334427
N69	N	0.530737	0.155724	0.389681
H70	H	0.577353	0.160809	0.463099
H71	H	0.482749	0.213853	0.389555
N72	N	1.074003	0.309853	0.652064
H73	H	1.114401	0.355609	0.708135
H74	H	1.036691	0.346430	0.589565
