data_functionalizedCrystal
_audit_creation_method	'MofGen! by Chris Wilmer'
_symmetry_space_group_name_H-M	'P1'
_symmetry_Int_Tables_number	1
_symmetry_cell_setting	triclinic
loop_
_symmetry_equiv_pos_as_xyz
  x,y,z
_cell_length_a	8.634740
_cell_length_b	8.559649
_cell_length_c	8.140239
_cell_angle_alpha	89.998339
_cell_angle_beta	90.003385
_cell_angle_gamma	94.825514
loop_
_atom_site_label
_atom_site_type_symbol
_atom_site_fract_x
_atom_site_fract_y
_atom_site_fract_z
O1	O	-1.985468	0.511627	-0.136637
O2	O	-1.541596	0.468725	-0.136632
O3	O	-1.802637	0.263595	-0.136633
O4	O	-1.724427	0.716758	-0.136636
O5	O	-1.802625	0.263590	0.136594
O6	O	-1.541584	0.468720	0.136595
O7	O	-1.985455	0.511623	0.136591
Zn8	Zn	-1.763518	0.490171	0.179974
Zn9	Zn	-1.763534	0.490177	-0.180015
O10	O	-1.724414	0.716753	0.136592
C11	C	-1.485291	0.459004	-0.000018
C12	C	-1.317539	0.430026	-0.000016
C13	C	-1.808558	0.204975	-0.000023
C14	C	-1.826201	0.030311	-0.000032
C15	C	-1.041761	0.521344	-0.000022
C16	C	-1.209512	0.550322	-0.000017
C17	C	-1.718493	0.775373	-0.000022
C18	C	-1.700851	0.950037	-0.000024
N19	N	-1.763518	0.490167	0.425656
N20	N	-1.763548	0.490170	-0.425697
H21	H	-1.580036	0.014934	-0.000017
H22	H	-1.947023	-0.034594	-0.000020
C23	C	-1.269125	0.260934	-0.000016
C24	C	-1.170297	0.203792	0.141864
C25	C	-1.121871	0.034698	0.141864
C26	C	-1.172274	-0.077254	-0.000014
C27	C	-1.271107	-0.020114	-0.141904
C28	C	-1.319533	0.148980	-0.141905
H29	H	-1.132981	0.286668	0.246900
H30	H	-1.048708	-0.007601	0.246902
H31	H	-1.136427	-0.202428	-0.000014
H32	H	-1.308423	-0.102990	-0.246941
H33	H	-1.392696	0.191278	-0.246942
C34	C	-1.257931	0.719422	-0.000018
C35	C	-1.207525	0.831373	0.141861
C36	C	-1.255945	1.000470	0.141860
C37	C	-1.354771	1.057615	-0.000019
C38	C	-1.405182	0.945662	-0.141909
C39	C	-1.356763	0.776566	-0.141908
H40	H	-1.134364	0.789072	0.246898
H41	H	-1.218627	1.083344	0.246897
H42	H	-1.390614	1.182791	-0.000020
H43	H	-1.478344	0.987963	-0.246946
H44	H	-1.394081	0.693691	-0.246944
