data_functionalizedCrystal
_audit_creation_method	'MofGen! by Chris Wilmer'
_symmetry_space_group_name_H-M	'P1'
_symmetry_Int_Tables_number	1
_symmetry_cell_setting	triclinic
loop_
_symmetry_equiv_pos_as_xyz
  x,y,z
_cell_length_a	11.169416
_cell_length_b	12.759401
_cell_length_c	12.759393
_cell_angle_alpha	89.981433
_cell_angle_beta	89.970865
_cell_angle_gamma	90.009193
loop_
_atom_site_label
_atom_site_type_symbol
_atom_site_fract_x
_atom_site_fract_y
_atom_site_fract_z
Zn1	Zn	-0.477767	1.606289	-0.594001
Zn2	Zn	-0.678500	1.606197	-0.418329
Zn3	Zn	-0.477826	1.430591	-0.418340
Zn4	Zn	-0.678403	1.430593	-0.593970
O5	O	-0.578124	1.518417	-0.506160
O6	O	-0.504410	1.753297	-0.570706
O7	O	-0.651945	1.582863	-0.271309
O8	O	-0.309868	1.453935	-0.441660
O9	O	-0.651888	1.753230	-0.441640
O10	O	-0.309825	1.583019	-0.570717
O11	O	-0.504511	1.453846	-0.271318
O12	O	-0.504417	1.283570	-0.441630
O13	O	-0.651724	1.453939	-0.740995
O14	O	-0.651781	1.283572	-0.570664
O15	O	-0.504317	1.583022	-0.741018
O16	O	-0.846437	1.582865	-0.441610
O17	O	-0.846366	1.453850	-0.570653
C18	C	-0.578096	1.245450	-0.506145
C19	C	-0.578113	1.128673	-0.506164
C20	C	-0.501466	1.073839	-0.573473
C21	C	-0.501489	0.964115	-0.573479
C22	C	-0.654816	0.964069	-0.438866
C23	C	-0.654786	1.073791	-0.438855
C24	C	-0.412948	1.073865	-0.651194
C25	C	-0.412971	0.964141	-0.651201
C26	C	-0.889949	1.518377	-0.506150
C27	C	-1.023349	1.518455	-0.506180
C28	C	-0.265082	1.518487	-0.506193
C29	C	-0.131682	1.518516	-0.506208
C30	C	-0.578003	1.518491	-0.780193
C31	C	-0.577951	1.518522	-0.896970
C32	C	-0.578153	1.792451	-0.506175
C33	C	-0.578166	1.909227	-0.506182
C34	C	-0.501189	1.585745	-0.951846
C35	C	-0.501146	1.585770	-1.061570
C36	C	-0.654637	1.451347	-1.061533
C37	C	-0.654673	1.451317	-0.951811
C38	C	-0.412576	1.663356	-0.951868
C39	C	-0.412533	1.663381	-1.061592
C40	C	-0.578158	1.518404	-0.233193
C41	C	-0.577872	1.518577	-0.116416
H42	H	-0.717240	0.919370	-0.384065
H43	H	-0.717099	1.396628	-1.106198
N44	N	-0.456791	1.765736	-0.906892
H45	H	-0.391932	1.798205	-0.862338
H46	H	-0.530041	1.752399	-0.862402
N47	N	-0.289778	1.113300	-0.622509
H48	H	-0.234835	1.051756	-0.609709
H49	H	-0.295114	1.157276	-0.556873
H50	H	-0.319629	1.641581	-0.922109
N51	N	-0.295556	1.624816	-1.106702
H52	H	-0.239065	1.606166	-1.047795
H53	H	-0.258682	1.681727	-1.151291
N54	N	-0.457158	1.119001	-0.753509
H55	H	-0.455519	1.198055	-0.749767
H56	H	-0.541809	1.094516	-0.766701
H57	H	-0.437429	1.744754	-1.091372
N58	N	-0.737447	1.132942	-0.366258
H59	H	-0.688587	1.178441	-0.317644
H60	H	-0.786010	1.081462	-0.323692
H61	H	-0.324635	0.930094	-0.622198
H62	H	-0.717176	1.396574	-0.907135
N63	N	-0.446098	0.924730	-0.758934
H64	H	-0.460873	0.986284	-0.807003
H65	H	-0.521063	0.880723	-0.754070
