data_functionalizedCrystal
_audit_creation_method	'MofGen! by Chris Wilmer'
_symmetry_space_group_name_H-M	'P1'
_symmetry_Int_Tables_number	1
_symmetry_cell_setting	triclinic
loop_
_symmetry_equiv_pos_as_xyz
  x,y,z
_cell_length_a	12.784905
_cell_length_b	12.837942
_cell_length_c	11.892113
_cell_angle_alpha	93.960375
_cell_angle_beta	94.703417
_cell_angle_gamma	83.968130
loop_
_atom_site_label
_atom_site_type_symbol
_atom_site_fract_x
_atom_site_fract_y
_atom_site_fract_z
O1	O	1.417568	0.011754	0.094010
O2	O	1.112569	0.055746	0.094011
O3	O	1.258305	-0.116544	0.094004
O4	O	1.271832	0.184043	0.094018
O5	O	1.245089	-0.127182	-0.094004
O6	O	1.099353	0.045108	-0.093997
O7	O	1.404352	0.001116	-0.093997
Zn8	Zn	1.249754	0.021423	-0.123847
Zn9	Zn	1.267167	0.035439	0.123861
O10	O	1.258616	0.173405	-0.093990
C11	C	1.066651	0.053288	0.000007
C12	C	0.949520	0.061801	0.000007
C13	C	0.735570	-0.111641	0.000020
C14	C	0.625514	-0.103647	0.000020
C15	C	0.619352	0.085782	0.000016
C16	C	0.729408	0.077788	0.000016
C17	C	0.787512	-0.020927	0.000016
C18	C	0.897569	-0.028920	0.000008
C19	C	0.891406	0.160509	0.000012
C20	C	0.781350	0.168502	0.000012
C21	C	1.247128	-0.160072	0.000001
C22	C	1.233500	-0.273920	0.000002
C23	C	1.397333	-0.529645	0.000026
C24	C	1.384534	-0.636617	0.000028
C25	C	1.195103	-0.594838	0.000016
C26	C	1.207902	-0.487866	0.000014
C27	C	1.309021	-0.455274	0.000017
C28	C	1.321819	-0.348300	0.000007
C29	C	1.132389	-0.306523	0.000004
C30	C	1.119590	-0.413495	0.000006
C31	C	1.450270	0.003573	0.000009
C32	C	1.567402	-0.004939	0.000016
C33	C	1.269793	0.216933	0.000016
C34	C	1.283422	0.330782	0.000021
N35	N	1.237877	0.011856	-0.292902
C36	C	1.361687	0.111620	-0.529546
C37	C	1.353393	0.104923	-0.647888
C38	C	1.213001	-0.008240	-0.647931
C39	C	1.221295	-0.001543	-0.529588
C40	C	1.295639	0.058390	-0.470400
C41	C	1.303928	0.065092	-0.352056
C42	C	1.163541	-0.048076	-0.352101
C43	C	1.155247	-0.054773	-0.470443
N44	N	1.279051	0.044997	0.292916
H45	H	0.933709	0.234375	0.000003
C46	C	1.508554	-0.493789	0.000020
H47	H	1.559319	-0.553404	0.000028
H48	H	1.512872	-0.456640	-0.065543
H49	H	1.522094	-0.449216	0.065590
C50	C	1.481674	-0.718425	0.000038
H51	H	1.459572	-0.786803	0.000049
H52	H	1.518087	-0.713193	-0.065519
H53	H	1.527288	-0.705759	0.065614
C54	C	1.426040	0.163482	-0.712945
H55	H	1.471496	0.200139	-0.660741
H56	H	1.467016	0.114435	-0.759106
H57	H	1.384421	0.212020	-0.759111
C58	C	1.433042	-0.312448	0.000014
H59	H	1.483804	-0.372065	0.000031
H60	H	1.437373	-0.275301	-0.065547
H61	H	1.446575	-0.267874	0.065586
C62	C	1.008369	-0.449354	-0.000004
H63	H	1.013392	-0.523715	-0.000010
H64	H	0.976148	-0.419525	0.065550
H65	H	0.966952	-0.426957	-0.065583
H66	H	1.152483	-0.057046	-0.696142
H67	H	1.112778	-0.621393	0.000026
H68	H	1.060478	-0.245958	-0.000012
H69	H	0.572026	0.166151	0.000031
H70	H	1.364459	0.113897	-0.303866
C71	C	1.443462	0.177539	-0.464435
H72	H	1.481614	0.208279	-0.516611
H73	H	1.408326	0.231293	-0.418271
H74	H	1.490913	0.133701	-0.418268
C75	C	0.961488	-0.137498	0.000010
H76	H	1.034473	-0.129270	-0.000001
H77	H	0.949326	-0.171389	0.065574
H78	H	0.940106	-0.178816	-0.065559
C79	C	0.799492	-0.220217	0.000010
H80	H	0.872475	-0.211986	0.000000
H81	H	0.787332	-0.254119	0.065567
H82	H	0.778111	-0.261528	-0.065566
H83	H	0.583227	-0.177516	0.000025
H84	H	1.094721	-0.103572	-0.518650
C85	C	1.090850	-0.106590	-0.287039
H86	H	1.106427	-0.094010	-0.208081
H87	H	1.019370	-0.082112	-0.306474
H88	H	1.101914	-0.179739	-0.306410
H89	H	0.734027	0.248873	0.000017
