data_functionalizedCrystal
_audit_creation_method	'MofGen! by Chris Wilmer'
_symmetry_space_group_name_H-M	'P1'
_symmetry_Int_Tables_number	1
_symmetry_cell_setting	triclinic
loop_
_symmetry_equiv_pos_as_xyz
  x,y,z
_cell_length_a	10.723023
_cell_length_b	9.798715
_cell_length_c	10.723024
_cell_angle_alpha	90.001978
_cell_angle_beta	84.467709
_cell_angle_gamma	90.003551
loop_
_atom_site_label
_atom_site_type_symbol
_atom_site_fract_x
_atom_site_fract_y
_atom_site_fract_z
O1	O	1.657188	0.113483	0.175020
O2	O	1.294035	0.113487	0.191774
O3	O	1.483988	0.113480	0.001821
O4	O	1.467235	0.113490	0.364973
O5	O	1.483974	-0.113502	0.001820
O6	O	1.294021	-0.113495	0.191774
O7	O	1.657174	-0.113499	0.175019
Zn8	Zn	1.475595	-0.149535	0.183396
Zn9	Zn	1.475614	0.149523	0.183397
O10	O	1.467221	-0.113492	0.364973
C11	C	1.247529	-0.000004	0.190555
C12	C	1.108974	-0.000003	0.186908
C13	C	1.047210	0.117581	0.185282
C14	C	0.904007	0.117585	0.181512
N15	N	1.475591	-0.353635	0.183395
C16	C	1.555347	-0.421415	0.103288
C17	C	1.555367	-0.578578	0.103283
C18	C	1.703680	-0.000005	0.176239
C19	C	1.842235	0.000003	0.179886
C20	C	1.482762	-0.000009	-0.044679
C21	C	1.479114	-0.000005	-0.183233
N22	N	1.475627	0.353623	0.183388
C23	C	1.585402	-0.000004	-0.258216
C24	C	1.581634	0.000001	-0.401420
C25	C	1.468447	0.000001	0.411473
C26	C	1.472095	0.000005	0.550027
H27	H	0.895343	-0.100670	0.181278
C28	C	1.037206	-0.136001	0.185021
H29	H	1.094525	-0.209773	0.186539
H30	H	0.995304	-0.141077	0.111043
H31	H	0.977525	-0.141067	0.256341
C32	C	1.647572	-0.342638	0.010637
H33	H	1.635465	-0.247341	0.022799
H34	H	1.633100	-0.365995	-0.072732
H35	H	1.731060	-0.365967	0.024701
C36	C	1.647611	-0.657310	0.010627
H37	H	1.635517	-0.752612	0.022772
H38	H	1.731089	-0.633942	0.024677
H39	H	1.633118	-0.633965	-0.072744
H40	H	0.850892	0.218253	0.180111
H41	H	1.407346	-0.588098	0.251980
C42	C	1.383345	-0.432405	0.276029
H43	H	1.333293	-0.369501	0.326278
H44	H	1.428870	-0.488150	0.328202
H45	H	1.330934	-0.488144	0.230745
C46	C	1.712103	-0.000010	-0.201731
H47	H	1.698014	-0.000022	-0.112892
H48	H	1.758239	0.079141	-0.228718
H49	H	1.758219	-0.079176	-0.228725
H50	H	1.672625	-0.000004	-0.465852
C51	C	1.349161	0.000002	-0.362952
H52	H	1.279949	-0.000004	-0.411991
H53	H	1.345846	0.079152	-0.311584
H54	H	1.345838	-0.079166	-0.311600
C55	C	1.118984	0.253576	0.187167
H56	H	1.205819	0.235733	0.189443
H57	H	1.088820	0.304454	0.259248
H58	H	1.106607	0.304437	0.113950
H59	H	1.385328	0.000005	-0.225055
