data_functionalizedCrystal
_audit_creation_method	'MofGen! by Chris Wilmer'
_symmetry_space_group_name_H-M	'P1'
_symmetry_Int_Tables_number	1
_symmetry_cell_setting	triclinic
loop_
_symmetry_equiv_pos_as_xyz
  x,y,z
_cell_length_a	18.050591
_cell_length_b	18.050589
_cell_length_c	18.215399
_cell_angle_alpha	90.023603
_cell_angle_beta	90.024537
_cell_angle_gamma	90.024669
loop_
_atom_site_label
_atom_site_type_symbol
_atom_site_fract_x
_atom_site_fract_y
_atom_site_fract_z
Zn1	Zn	1.135328	-0.295737	0.416230
Zn2	Zn	1.635328	0.204263	0.916230
Zn3	Zn	1.135228	-0.419932	0.293173
Zn4	Zn	1.635228	0.080068	0.793173
Zn5	Zn	1.011136	-0.295753	0.293168
Zn6	Zn	1.511136	0.204247	0.793168
Zn7	Zn	1.011095	-0.419882	0.416188
Zn8	Zn	1.511095	0.080118	0.916188
O9	O	1.073197	-0.357826	0.354690
O10	O	1.573197	0.142174	0.854690
O11	O	1.239239	-0.312227	0.399927
O12	O	1.739239	0.187773	0.899927
O13	O	1.118743	-0.403487	0.190188
O14	O	1.618743	0.096513	0.690188
O15	O	1.027670	-0.191826	0.309507
O16	O	1.527670	0.308174	0.809507
O17	O	1.239166	-0.403472	0.309517
O18	O	1.739166	0.096528	0.809517
O19	O	1.118912	-0.191815	0.399921
O20	O	1.618912	0.308185	0.899921
O21	O	1.027573	-0.312253	0.190184
O22	O	1.527573	0.187747	0.690184
O23	O	0.907206	-0.312205	0.309467
O24	O	1.407206	0.187795	0.809467
O25	O	1.027599	-0.403387	0.519178
O26	O	1.527599	0.096613	1.019178
O27	O	0.907176	-0.403402	0.399849
O28	O	1.407176	0.096598	0.899849
O29	O	1.118872	-0.312178	0.519209
O30	O	1.618872	0.187822	1.019209
O31	O	1.118702	-0.523850	0.309476
O32	O	1.618702	-0.023850	0.809476
O33	O	1.027502	-0.523814	0.399855
O34	O	1.527502	-0.023814	0.899855
C35	C	0.880245	-0.357800	0.354653
C36	C	1.380245	0.142200	0.854653
C37	C	0.797699	-0.357807	0.354655
C38	C	1.297699	0.142193	0.854655
C39	C	0.548868	-0.308162	0.305621
C40	C	1.048868	0.191838	0.805621
C41	C	0.598306	-0.290075	0.372783
C42	C	1.098306	0.209925	0.872783
C43	C	0.500578	-0.357845	0.354715
C44	C	1.000578	0.142155	0.854715
C45	C	0.598222	-0.375879	0.287528
C46	C	1.098222	0.124121	0.787528
C47	C	0.646563	-0.357824	0.354682
C48	C	1.146563	0.142176	0.854682
C49	C	0.548929	-0.339722	0.421912
C50	C	1.048929	0.160278	0.921912
C51	C	0.548841	-0.425557	0.336612
C52	C	1.048841	0.074443	0.836612
C53	C	0.598256	-0.407496	0.403820
C54	C	1.098256	0.092504	0.903820
C55	C	0.416480	-0.357855	0.354733
C56	C	0.916480	0.142145	0.854733
C57	C	0.730660	-0.357815	0.354671
C58	C	1.230660	0.142185	0.854671
C59	C	1.073107	-0.550778	0.354678
C60	C	1.573107	-0.050778	0.854678
C61	C	1.073137	-0.633324	0.354697
C62	C	1.573137	-0.133324	0.854697
C63	C	1.023591	-0.832782	0.403828
C64	C	1.523591	-0.332782	0.903828
C65	C	1.005487	-0.882221	0.336672
C66	C	1.505487	-0.382221	0.836672
C67	C	1.073210	-0.784455	0.354707
C68	C	1.573210	-0.284455	0.854707
C69	C	1.091350	-0.882097	0.421870
C70	C	1.591350	-0.382097	0.921870
C71	C	1.073279	-0.930440	0.354722
C72	C	1.573279	-0.430440	0.854722
C73	C	1.055070	-0.832807	0.287515
C74	C	1.555070	-0.332807	0.787515
C75	C	1.140964	-0.832678	0.372759
C76	C	1.640964	-0.332678	0.872759
C77	C	1.122886	-0.882095	0.305557
C78	C	1.622886	-0.382095	0.805557
C79	C	1.073168	-0.700356	0.354699
C80	C	1.573168	-0.200356	0.854699
C81	C	1.073320	-1.014536	0.354722
C82	C	1.573320	-0.514536	0.854722
C83	C	1.266902	-0.357853	0.354727
C84	C	1.766902	0.142147	0.854727
C85	C	1.349448	-0.357865	0.354743
C86	C	1.849448	0.142135	0.854743
C87	C	1.073242	-0.357775	0.546643
C88	C	1.573242	0.142225	1.046643
C89	C	1.073261	-0.357753	0.628442
C90	C	1.573261	0.142247	1.128442
C91	C	1.073307	-0.164121	0.354718
C92	C	1.573307	0.335879	0.854718
C93	C	1.073354	-0.081575	0.354730
C94	C	1.573354	0.418425	0.854730
C95	C	1.073194	-0.357824	0.163484
C96	C	1.573194	0.142176	0.663484
C97	C	1.073319	-0.357636	0.081685
C98	C	1.573319	0.142364	0.581685
C99	C	1.120804	-0.310216	0.816653
C100	C	1.620804	0.189784	1.316653
C101	C	1.120813	-0.310195	0.893512
C102	C	1.620813	0.189805	1.393512
C103	C	1.025771	-0.405175	0.893469
C104	C	1.525771	0.094825	1.393469
C105	C	1.025759	-0.405193	0.816611
C106	C	1.525759	0.094807	1.316611
C107	C	1.073280	-0.357714	0.778205
C108	C	1.573280	0.142286	1.278205
C109	C	1.073301	-0.357675	0.931922
C110	C	1.573301	0.142325	1.431922
C111	C	1.073310	-0.357652	1.015255
C112	C	1.573310	0.142348	1.515255
C113	C	1.073270	-0.357736	0.694866
C114	C	1.573270	0.142264	1.194866
H115	H	0.527365	-0.324394	0.478734
H116	H	1.027365	0.175606	0.978734
H117	H	1.039689	-0.811245	0.230707
H118	H	1.539689	-0.311245	0.730707
Br119	Br	0.634319	-0.401316	0.192850
Br120	Br	1.134319	0.098684	0.692850
H121	H	1.159511	-0.271516	0.924813
H122	H	1.659511	0.228484	1.424813
H123	H	0.987082	-0.443832	0.924748
H124	H	1.487082	0.056168	1.424748
Br125	Br	1.116875	-0.918190	0.516527
Br126	Br	1.616875	-0.418190	1.016527
H127	H	0.987053	-0.443871	0.785306
H128	H	1.487053	0.056129	1.285306
Br129	Br	0.634172	-0.477513	0.473070
Br130	Br	1.134172	0.022487	0.973070
Br131	Br	0.512723	-0.238101	0.236531
Br132	Br	1.012723	0.261899	0.736531
Br133	Br	0.634510	-0.194618	0.398297
Br134	Br	1.134510	0.305382	0.898297
H135	H	0.948222	-0.903999	0.321417
H136	H	1.448222	-0.403999	0.821417
H137	H	1.164877	-0.903611	0.263975
H138	H	1.664877	-0.403611	0.763975
H139	H	0.981568	-0.811128	0.445309
H140	H	1.481568	-0.311128	0.945309
H141	H	1.198217	-0.810902	0.388046
H142	H	1.698217	-0.310902	0.888046
H143	H	0.527098	-0.482813	0.321290
H144	H	1.027098	0.017187	0.821290
H145	H	1.159497	-0.271555	0.785386
H146	H	1.659497	0.228445	1.285386
