data_functionalizedCrystal
_audit_creation_method	'MofGen! by Chris Wilmer'
_symmetry_space_group_name_H-M	'P1'
_symmetry_Int_Tables_number	1
_symmetry_cell_setting	triclinic
loop_
_symmetry_equiv_pos_as_xyz
  x,y,z
_cell_length_a	16.625548
_cell_length_b	13.032721
_cell_length_c	13.032268
_cell_angle_alpha	103.289627
_cell_angle_beta	82.837807
_cell_angle_gamma	82.794397
loop_
_atom_site_label
_atom_site_type_symbol
_atom_site_fract_x
_atom_site_fract_y
_atom_site_fract_z
Zn1	Zn	1.119641	0.499057	0.654215
Zn2	Zn	1.369641	0.749057	0.904215
Zn3	Zn	1.619641	0.999057	1.154215
Zn4	Zn	1.869641	1.249057	1.404215
Zn5	Zn	1.119553	0.654142	0.499163
Zn6	Zn	1.369553	0.904142	0.749163
Zn7	Zn	1.619553	1.154142	0.999163
Zn8	Zn	1.869553	1.404142	1.249163
Zn9	Zn	1.004420	0.476555	0.476634
Zn10	Zn	1.254420	0.726555	0.726634
Zn11	Zn	1.504420	0.976555	0.976634
Zn12	Zn	1.754420	1.226555	1.226634
Zn13	Zn	0.965173	0.676619	0.676703
Zn14	Zn	1.215173	0.926619	0.926703
Zn15	Zn	1.465173	1.176619	1.176703
Zn16	Zn	1.715173	1.426619	1.426703
O17	O	1.052197	0.576593	0.576679
O18	O	1.302197	0.826593	0.826679
O19	O	1.552197	1.076593	1.076679
O20	O	1.802197	1.326593	1.326679
O21	O	1.232459	0.519640	0.633665
O22	O	1.482459	0.769640	0.883665
O23	O	1.732459	1.019640	1.133665
O24	O	1.982459	1.269640	1.383665
O25	O	1.120669	0.611760	0.347555
O26	O	1.370669	0.861760	0.597555
O27	O	1.620669	1.111760	0.847555
O28	O	1.870669	1.361760	1.097555
O29	O	1.036166	0.330909	0.481350
O30	O	1.286166	0.580909	0.731350
O31	O	1.536166	0.830909	0.981350
O32	O	1.786166	1.080909	1.231350
O33	O	1.232395	0.633580	0.519749
O34	O	1.482395	0.883580	0.769749
O35	O	1.732395	1.133580	1.019749
O36	O	1.982395	1.383580	1.269749
O37	O	1.120819	0.347442	0.611819
O38	O	1.370819	0.597442	0.861819
O39	O	1.620819	0.847442	1.111819
O40	O	1.870819	1.097442	1.361819
O41	O	1.036081	0.481288	0.331002
O42	O	1.286081	0.731288	0.581002
O43	O	1.536081	0.981288	0.831002
O44	O	1.786081	1.231288	1.081002
O45	O	0.886384	0.503083	0.503156
O46	O	1.136384	0.753083	0.753156
O47	O	1.386384	1.003083	1.003156
O48	O	1.636384	1.253083	1.253156
O49	O	0.969275	0.671889	0.822340
O50	O	1.219275	0.921889	1.072340
O51	O	1.469275	1.171889	1.322340
O52	O	1.719275	1.421889	1.572340
O53	O	0.857549	0.650069	0.650146
O54	O	1.107549	0.900069	0.900146
O55	O	1.357549	1.150069	1.150146
O56	O	1.607549	1.400069	1.400146
O57	O	1.082763	0.541436	0.805818
O58	O	1.332763	0.791436	1.055818
O59	O	1.582763	1.041436	1.305818
O60	O	1.832763	1.291436	1.555818
O61	O	1.082613	0.805754	0.541554
O62	O	1.332613	1.055754	0.791554
O63	O	1.582613	1.305754	1.041554
O64	O	1.832613	1.555754	1.291554
O65	O	0.969190	0.822268	0.671992
O66	O	1.219190	1.072268	0.921992
O67	O	1.469190	1.322268	1.171992
O68	O	1.719190	1.572268	1.421992
C69	C	1.021652	0.852553	0.611681
C70	C	1.271652	1.102553	0.861681
C71	C	1.521652	1.352553	1.111681
C72	C	1.771652	1.602553	1.361681
C73	C	1.008655	0.970614	0.626691
C74	C	1.258655	1.220614	0.876691
C75	C	1.508655	1.470614	1.126691
C76	C	1.758655	1.720614	1.376691
C77	C	0.842711	0.576574	0.576647
C78	C	1.092711	0.826574	0.826647
C79	C	1.342711	1.076574	1.076647
C80	C	1.592711	1.326574	1.326647
C81	C	0.753086	0.576595	0.576662
C82	C	1.003086	0.826595	0.826662
C83	C	1.253086	1.076595	1.076662
C84	C	1.503086	1.326595	1.326662
C85	C	1.021651	0.611680	0.853692
C86	C	1.271651	0.861680	1.103692
C87	C	1.521651	1.111680	1.353692
C88	C	1.771651	1.361680	1.603692
C89	C	1.008634	0.626632	0.971738
C90	C	1.258634	0.876632	1.221738
C91	C	1.508634	1.126632	1.471738
C92	C	1.758634	1.376632	1.721738
C93	C	0.424905	0.576608	0.576708
C94	C	0.674905	0.826608	0.826708
C95	C	0.924905	1.076608	1.076708
C96	C	1.174905	1.326608	1.326708
C97	C	0.516216	0.576601	0.576692
C98	C	0.766216	0.826601	0.826692
C99	C	1.016216	1.076601	1.076692
C100	C	1.266216	1.326601	1.326692
C101	C	0.588993	0.576602	0.576684
C102	C	0.838993	0.826602	0.826684
C103	C	1.088993	1.076602	1.076684
C104	C	1.338993	1.326602	1.326684
C105	C	0.680309	0.576594	0.576669
C106	C	0.930309	0.826594	0.826669
C107	C	1.180309	1.076594	1.076669
C108	C	1.430309	1.326594	1.326669
C109	C	1.262501	0.576613	0.576711
C110	C	1.512501	0.826613	0.826711
C111	C	1.762501	1.076613	1.076711
C112	C	2.012501	1.326613	1.326711
C113	C	1.352119	0.576622	0.576725
C114	C	1.602119	0.826622	0.826725
C115	C	1.852119	1.076622	1.076725
C116	C	2.102119	1.326622	1.326725
C117	C	1.082880	0.299559	0.541563
C118	C	1.332880	0.549559	0.791563
C119	C	1.582880	0.799559	1.041563
C120	C	1.832880	1.049559	1.291563
C121	C	1.095956	0.181504	0.526599
C122	C	1.345956	0.431504	0.776599
C123	C	1.595956	0.681504	1.026599
C124	C	1.845956	0.931504	1.276599
C125	C	1.059018	1.015050	0.568893
C126	C	1.309018	1.265050	0.818893
C127	C	1.559018	1.515050	1.068893
C128	C	1.809018	1.765050	1.318893
C129	C	1.045586	1.137072	0.584405
C130	C	1.295586	1.387072	0.834405
C131	C	1.545586	1.637072	1.084405
C132	C	1.795586	1.887072	1.334405
C133	C	1.082679	0.541567	0.300734
C134	C	1.332679	0.791567	0.550734
C135	C	1.582679	1.041567	0.800734
C136	C	1.832679	1.291567	1.050734
C137	C	1.095885	0.526316	0.182650
C138	C	1.345885	0.776316	0.432650
C139	C	1.595885	1.026316	0.682650
C140	C	1.845885	1.276316	0.932650
C141	C	1.058982	0.568752	1.016192
C142	C	1.308982	0.818752	1.266192
C143	C	1.558982	1.068752	1.516192
C144	C	1.808982	1.318752	1.766192
C145	C	1.045530	0.584204	1.138199
C146	C	1.295530	0.834204	1.388199
C147	C	1.545530	1.084204	1.638199
C148	C	1.795530	1.334204	1.888199
H149	H	1.112083	0.962760	0.507929
H150	H	1.362083	1.212760	0.757929
H151	H	1.612083	1.462760	1.007929
H152	H	1.862083	1.712760	1.257929
N153	N	1.129279	0.487973	0.946963
N154	N	1.379279	0.737973	1.196963
N155	N	1.629279	0.987973	1.446963
N156	N	1.879279	1.237973	1.696963
H157	H	1.123067	0.414495	0.956573
H158	H	1.373067	0.664495	1.206573
H159	H	1.623067	0.914495	1.456573
H160	H	1.873067	1.164495	1.706573
H161	H	1.128880	0.488493	0.869652
H162	H	1.378880	0.738493	1.119652
H163	H	1.628880	0.988493	1.369652
H164	H	1.878880	1.238493	1.619652
N165	N	0.938361	1.039871	0.707442
N166	N	1.188361	1.289871	0.957442
N167	N	1.438361	1.539871	1.207442
N168	N	1.688361	1.789871	1.457442
H169	H	0.906596	0.993452	0.743881
H170	H	1.156596	1.243452	0.993881
H171	H	1.406596	1.493452	1.243881
H172	H	1.656596	1.743452	1.493881
H173	H	0.960700	1.092071	0.762436
H174	H	1.210700	1.342071	1.012436
H175	H	1.460700	1.592071	1.262436
H176	H	1.710700	1.842071	1.512436
N177	N	0.975224	0.664987	1.207414
N178	N	1.225224	0.914987	1.457414
N179	N	1.475224	1.164987	1.707414
N180	N	1.725224	1.414987	1.957414
H181	H	0.975575	0.664569	1.284759
H182	H	1.225575	0.914569	1.534759
H183	H	1.475575	1.164569	1.784759
H184	H	1.725575	1.414569	2.034759
H185	H	0.981479	0.738419	1.197708
H186	H	1.231479	0.988419	1.447708
H187	H	1.481479	1.238419	1.697708
H188	H	1.731479	1.488419	1.947708
H189	H	1.149024	1.129216	0.465631
H190	H	1.399024	1.379216	0.715631
H191	H	1.649024	1.629216	0.965631
H192	H	1.899024	1.879216	1.215631
H193	H	1.148949	0.465313	1.130388
H194	H	1.398949	0.715313	1.380388
H195	H	1.648949	0.965313	1.630388
H196	H	1.898949	1.215313	1.880388
H197	H	0.955566	0.687617	1.024004
H198	H	1.205566	0.937617	1.274004
H199	H	1.455566	1.187617	1.524004
H200	H	1.705566	1.437617	1.774004
H201	H	0.992523	1.189362	0.645380
H202	H	1.242523	1.439362	0.895380
H203	H	1.492523	1.689362	1.145380
H204	H	1.742523	1.939362	1.395380
