data_functionalizedCrystal
_audit_creation_method	'MofGen! by Chris Wilmer'
_symmetry_space_group_name_H-M	'P1'
_symmetry_Int_Tables_number	1
_symmetry_cell_setting	triclinic
loop_
_symmetry_equiv_pos_as_xyz
  x,y,z
_cell_length_a	14.971486
_cell_length_b	27.731993
_cell_length_c	26.809956
_cell_angle_alpha	89.997216
_cell_angle_beta	89.995860
_cell_angle_gamma	83.117261
loop_
_atom_site_label
_atom_site_type_symbol
_atom_site_fract_x
_atom_site_fract_y
_atom_site_fract_z
O1	O	0.106182	0.641438	0.041346
O2	O	0.439516	0.974772	0.374679
O3	O	0.772849	1.308105	0.708012
O4	O	0.122416	0.500716	0.041376
O5	O	0.455749	0.834049	0.374710
O6	O	0.789082	1.167383	0.708043
O7	O	-0.015962	0.574849	0.041357
O8	O	0.317371	0.908182	0.374690
O9	O	0.650705	1.241516	0.708023
O10	O	0.244560	0.567305	0.041365
O11	O	0.577893	0.900639	0.374699
O12	O	0.911227	1.233972	0.708032
O13	O	-0.015941	0.574835	-0.041603
O14	O	0.317392	0.908168	0.291731
O15	O	0.650726	1.241502	0.625064
O16	O	0.122437	0.500702	-0.041583
O17	O	0.455770	0.834035	0.291750
O18	O	0.789103	1.167369	0.625084
O19	O	0.106203	0.641424	-0.041614
O20	O	0.439537	0.974758	0.291720
O21	O	0.772870	1.308091	0.625053
Zn22	Zn	0.114323	0.571061	-0.054770
Zn23	Zn	0.447657	0.904394	0.278563
Zn24	Zn	0.780990	1.237728	0.611897
Zn25	Zn	0.114296	0.571079	0.054533
Zn26	Zn	0.447629	0.904413	0.387866
Zn27	Zn	0.780962	1.237746	0.721199
O28	O	0.244581	0.567291	-0.041594
O29	O	0.577914	0.900625	0.291739
O30	O	0.911248	1.233958	0.625073
C31	C	0.122093	0.482700	-0.000100
C32	C	0.455426	0.816033	0.333234
C33	C	0.788760	1.149367	0.666567
C34	C	0.121090	0.429039	-0.000088
C35	C	0.454423	0.762372	0.333245
C36	C	0.787756	1.095706	0.666579
C37	C	0.113805	0.045853	0.045109
C38	C	0.447138	0.379186	0.378442
C39	C	0.780472	0.712520	0.711775
C40	C	0.117630	0.247528	0.045122
C41	C	0.450963	0.580861	0.378456
C42	C	0.784296	0.914195	0.711789
O43	O	0.118079	0.273610	0.083582
O44	O	0.451412	0.606943	0.416915
O45	O	0.784745	0.940276	0.750249
N46	N	0.118120	0.272743	-0.000098
N47	N	0.451453	0.606076	0.333236
N48	N	0.784787	0.939410	0.666569
C49	C	0.117648	0.247536	-0.045324
C50	C	0.450981	0.580870	0.288009
C51	C	0.784314	0.914203	0.621342
O52	O	0.118143	0.273611	-0.083787
O53	O	0.451476	0.606945	0.249547
O54	O	0.784810	0.940278	0.582880
C55	C	0.113817	0.045863	-0.045338
C56	C	0.447150	0.379196	0.287996
C57	C	0.780483	0.712529	0.621329
C58	C	0.113336	0.020650	-0.000115
C59	C	0.446669	0.353983	0.333219
C60	C	0.780002	0.687316	0.666552
C61	C	0.113323	0.020640	0.090328
C62	C	0.446656	0.353973	0.423661
C63	C	0.779990	0.687307	0.756995
C64	C	0.112372	-0.029776	0.090324
C65	C	0.445705	0.303557	0.423657
C66	C	0.779039	0.636891	0.756991
C67	C	0.111903	-0.054979	0.045101
C68	C	0.445236	0.278354	0.378434
C69	C	0.778569	0.611687	0.711768
C70	C	0.112384	-0.029766	-0.000118
C71	C	0.445718	0.303567	0.333215
C72	C	0.779051	0.636900	0.666548
C73	C	0.113338	0.020657	-0.090564
C74	C	0.446671	0.353991	0.242770
C75	C	0.780005	0.687324	0.576103
C76	C	0.112378	-0.029764	-0.090563
C77	C	0.445711	0.303569	0.242770
C78	C	0.779045	0.636903	0.576104
C79	C	0.111897	-0.054977	-0.045340
C80	C	0.445230	0.278356	0.287993
C81	C	0.778564	0.611690	0.621327
C82	C	0.110964	-0.105386	-0.045346
C83	C	0.444297	0.227948	0.287988
C84	C	0.777631	0.561281	0.621321
N85	N	0.110474	-0.130600	-0.000125
N86	N	0.443807	0.202733	0.333208
N87	N	0.777141	0.536066	0.666541
C88	C	0.110943	-0.105397	0.045098
C89	C	0.444277	0.227936	0.378431
C90	C	0.777610	0.561269	0.711764
C91	C	0.119661	0.353418	-0.045314
C92	C	0.452994	0.686751	0.288019
C93	C	0.786328	1.020084	0.621352
C94	C	0.120620	0.403836	-0.045311
C95	C	0.453954	0.737169	0.288022
C96	C	0.787287	1.070503	0.621355
C97	C	0.120601	0.403824	0.045136
C98	C	0.453934	0.737158	0.378469
C99	C	0.787267	1.070491	0.711802
C100	C	0.119648	0.353405	0.045132
C101	C	0.452981	0.686738	0.378465
C102	C	0.786314	1.020071	0.711799
C103	C	0.119171	0.328203	-0.000094
C104	C	0.452504	0.661536	0.333239
C105	C	0.785838	0.994870	0.666572
C106	C	0.108946	-0.211275	0.045086
C107	C	0.442280	0.122059	0.378420
C108	C	0.775613	0.455392	0.711753
C109	C	0.107999	-0.261696	0.045078
C110	C	0.441332	0.071638	0.378412
C111	C	0.774665	0.404971	0.711745
C112	C	0.108014	-0.261679	-0.045368
C113	C	0.441347	0.071654	0.287965
C114	C	0.774680	0.404988	0.621298
C115	C	0.108966	-0.211263	-0.045361
C116	C	0.442299	0.122070	0.287973
C117	C	0.775633	0.455404	0.621306
C118	C	0.109429	-0.186062	-0.000129
C119	C	0.442763	0.147271	0.333204
C120	C	0.776096	0.480605	0.666537
O121	O	0.110504	-0.131498	-0.083785
O122	O	0.443838	0.201836	0.249548
O123	O	0.777171	0.535169	0.582882
O124	O	0.110428	-0.131480	0.083554
O125	O	0.443761	0.201854	0.416887
O126	O	0.777094	0.535187	0.750221
C127	C	0.114756	0.096269	0.045112
C128	C	0.448090	0.429602	0.378446
C129	C	0.781423	0.762936	0.711779
C130	C	0.115238	0.121482	-0.000107
C131	C	0.448571	0.454815	0.333226
C132	C	0.781905	0.788149	0.666560
C133	C	0.114769	0.096279	-0.045330
C134	C	0.448102	0.429612	0.288003
C135	C	0.781436	0.762945	0.621337
C136	C	0.116198	0.171900	-0.000104
C137	C	0.449531	0.505233	0.333230
C138	C	0.782864	0.838567	0.666563
C139	C	0.116667	0.197103	0.045119
C140	C	0.450000	0.530437	0.378453
C141	C	0.783334	0.863770	0.711786
C142	C	0.116177	0.171888	0.090340
C143	C	0.449510	0.505222	0.423673
C144	C	0.782843	0.838555	0.757006
C145	C	0.115226	0.121472	0.090336
C146	C	0.448559	0.454806	0.423669
C147	C	0.781892	0.788139	0.757002
C148	C	0.115259	0.121494	-0.090550
C149	C	0.448592	0.454827	0.242783
C150	C	0.781926	0.788160	0.576117
C151	C	0.116211	0.171910	-0.090543
C152	C	0.449544	0.505243	0.242791
C153	C	0.782878	0.838576	0.576124
C154	C	0.116680	0.197113	-0.045319
C155	C	0.450014	0.530446	0.288014
C156	C	0.783347	0.863780	0.621347
C157	C	-0.049271	0.574505	-0.000123
C158	C	0.284063	0.907838	0.333211
C159	C	0.617396	1.241171	0.666544
C160	C	-0.148551	0.573494	-0.000122
C161	C	0.184782	0.906827	0.333211
C162	C	0.518115	1.240160	0.666545
C163	C	-0.206481	0.617045	-0.000132
C164	C	0.126853	0.950378	0.333201
C165	C	0.460186	1.283711	0.666535
C166	C	-0.299765	0.616092	-0.000127
C167	C	0.033569	0.949425	0.333207
C168	C	0.366902	1.282759	0.666540
C169	C	-0.335118	0.571587	-0.000115
C170	C	-0.001784	0.904921	0.333218
C171	C	0.331549	1.238254	0.666551
C172	C	-0.277181	0.528033	-0.000104
C173	C	0.056152	0.861366	0.333229
C174	C	0.389486	1.194700	0.666563
C175	C	-0.183899	0.528986	-0.000106
C176	C	0.149434	0.862320	0.333228
C177	C	0.482768	1.195653	0.666561
C178	C	-0.471612	0.526049	-0.000102
C179	C	-0.138278	0.859383	0.333232
C180	C	0.195055	1.192716	0.666565
C181	C	-0.564900	0.525096	-0.000101
C182	C	-0.231567	0.858429	0.333232
C183	C	0.101766	1.191762	0.666566
C184	C	-0.587477	0.613155	-0.000123
C185	C	-0.254144	0.946488	0.333211
C186	C	0.079189	1.279821	0.666544
C187	C	-0.494195	0.614108	-0.000124
C188	C	-0.160862	0.947441	0.333209
C189	C	0.172471	1.280775	0.666542
C190	C	-0.436265	0.570553	-0.000114
C191	C	-0.102932	0.903887	0.333219
C192	C	0.230402	1.237220	0.666553
C193	C	0.277890	0.567636	-0.000113
C194	C	0.611223	0.900969	0.333220
C195	C	0.944557	1.234302	0.666553
C196	C	0.377171	0.568647	-0.000111
C197	C	0.710504	0.901980	0.333223
C198	C	1.043837	1.235313	0.666556
C199	C	0.106526	0.659440	-0.000137
C200	C	0.439859	0.992774	0.333197
C201	C	0.773193	1.326107	0.666530
C202	C	0.107529	0.713101	-0.000145
C203	C	0.440863	1.046435	0.333188
C204	C	0.774196	1.379768	0.666522
N205	N	0.114342	0.571052	-0.129366
N206	N	0.447675	0.904385	0.203968
N207	N	0.781009	1.237719	0.537301
C208	C	0.053037	0.603901	-0.474001
C209	C	0.386370	0.937235	-0.140667
C210	C	0.719704	1.270568	0.192666
C211	C	0.053023	0.603913	-0.682878
C212	C	0.386357	0.937246	-0.349545
C213	C	0.719690	1.270579	-0.016212
O214	O	0.000905	0.631823	-0.709889
O215	O	0.334239	0.965156	-0.376556
O216	O	0.667572	1.298489	-0.043223
N217	N	0.114276	0.571082	-0.708993
N218	N	0.447609	0.904415	-0.375660
N219	N	0.780943	1.237749	-0.042326
C220	C	0.175532	0.538244	-0.682885
C221	C	0.508866	0.871577	-0.349552
C222	C	0.842199	1.204911	-0.016218
O223	O	0.227625	0.510316	-0.709890
O224	O	0.560958	0.843650	-0.376557
O225	O	0.894292	1.176983	-0.043223
C226	C	0.175541	0.538231	-0.474008
C227	C	0.508875	0.871564	-0.140675
C228	C	0.842208	1.204897	0.192658
C229	C	0.114291	0.571067	-0.447896
C230	C	0.447624	0.904400	-0.114563
C231	C	0.780957	1.237733	0.218770
C232	C	-0.008209	0.636734	-0.447889
C233	C	0.325124	0.970068	-0.114555
C234	C	0.658457	1.303401	0.218778
C235	C	-0.008202	0.636733	-0.395672
C236	C	0.325131	0.970066	-0.062339
C237	C	0.658465	1.303400	0.270994
C238	C	0.053052	0.603898	-0.369568
C239	C	0.386385	0.937232	-0.036235
C240	C	0.719718	1.270565	0.297099
C241	C	0.114298	0.571065	-0.395680
C242	C	0.447631	0.904399	-0.062347
C243	C	0.780965	1.237732	0.270987
C244	C	0.236793	0.505391	-0.447901
C245	C	0.570126	0.838724	-0.114568
C246	C	0.903459	1.172057	0.218765
C247	C	0.236788	0.505389	-0.395679
C248	C	0.570121	0.838723	-0.062345
C249	C	0.903455	1.172056	0.270988
C250	C	0.175537	0.538226	-0.369567
C251	C	0.508871	0.871559	-0.036233
C252	C	0.842204	1.204892	0.297100
C253	C	0.175559	0.538229	-0.317359
C254	C	0.508892	0.871563	0.015974
C255	C	0.842225	1.204896	0.349307
N256	N	0.114306	0.571060	-0.291245
N257	N	0.447639	0.904393	0.042089
N258	N	0.780973	1.237727	0.375422
C259	C	0.053053	0.603895	-0.317349
C260	C	0.386386	0.937228	0.015984
C261	C	0.719719	1.270561	0.349318
C262	C	0.175525	0.538254	-0.792548
C263	C	0.508858	0.871587	-0.459215
C264	C	0.842191	1.204921	-0.125882
C265	C	0.175524	0.538258	-0.844767
C266	C	0.508857	0.871591	-0.511434
C267	C	0.842190	1.204924	-0.178101
C268	C	0.053013	0.603926	-0.844757
C269	C	0.386347	0.937259	-0.511424
C270	C	0.719680	1.270593	-0.178090
C271	C	0.053019	0.603924	-0.792537
C272	C	0.386352	0.937257	-0.459204
C273	C	0.719686	1.270591	-0.125870
C274	C	0.114272	0.571085	-0.766434
C275	C	0.447605	0.904418	-0.433100
C276	C	0.780939	1.237751	-0.099767
C277	C	0.053073	0.603889	-0.207691
C278	C	0.386406	0.937223	0.125642
C279	C	0.719740	1.270556	0.458976
C280	C	0.053088	0.603886	-0.155470
C281	C	0.386422	0.937220	0.177863
C282	C	0.719755	1.270553	0.511197
C283	C	0.175595	0.538217	-0.155485
C284	C	0.508929	0.871550	0.177848
C285	C	0.842262	1.204883	0.511182
C286	C	0.175584	0.538221	-0.207701
C287	C	0.508917	0.871554	0.125632
C288	C	0.842250	1.204888	0.458965
C289	C	0.114315	0.571059	-0.233803
C290	C	0.447648	0.904393	0.099530
C291	C	0.780982	1.237726	0.432864
O292	O	0.227643	0.510330	-0.290316
O293	O	0.560976	0.843664	0.043017
O294	O	0.894309	1.176997	0.376351
O295	O	0.000955	0.631811	-0.290335
O296	O	0.334288	0.965144	0.042998
O297	O	0.667621	1.298477	0.376332
C298	C	0.053030	0.603903	-0.526217
C299	C	0.386363	0.937236	-0.192884
C300	C	0.719696	1.270569	0.140450
C301	C	0.114276	0.571070	-0.552329
C302	C	0.447609	0.904403	-0.218996
C303	C	0.780943	1.237736	0.114338
C304	C	0.175530	0.538235	-0.526225
C305	C	0.508863	0.871568	-0.192891
C306	C	0.842196	1.204902	0.140442
C307	C	0.114275	0.571073	-0.604548
C308	C	0.447608	0.904407	-0.271214
C309	C	0.780942	1.237740	0.062119
C310	C	0.053022	0.603908	-0.630652
C311	C	0.386355	0.937241	-0.297319
C312	C	0.719688	1.270575	0.036015
C313	C	-0.008231	0.636739	-0.604537
C314	C	0.325102	0.970072	-0.271204
C315	C	0.658436	1.303405	0.062129
C316	C	-0.008224	0.636737	-0.552321
C317	C	0.325110	0.970070	-0.218988
C318	C	0.658443	1.303404	0.114346
C319	C	0.236782	0.505404	-0.552339
C320	C	0.570115	0.838738	-0.219006
C321	C	0.903449	1.172071	0.114327
C322	C	0.236771	0.505409	-0.604556
C323	C	0.570104	0.838742	-0.271222
C324	C	0.903437	1.172076	0.062111
C325	C	0.175517	0.538243	-0.630660
C326	C	0.508850	0.871577	-0.297327
C327	C	0.842184	1.204910	0.036007
N328	N	0.114270	0.571092	0.129129
N329	N	0.447603	0.904426	0.462462
N330	N	0.780937	1.237759	0.795795
H331	H	0.114834	0.100948	0.127161
H332	H	0.448167	0.434282	0.460494
H333	H	0.781501	0.767615	0.793828
H334	H	0.113702	0.041155	0.127156
H335	H	0.447036	0.374489	0.460489
H336	H	0.780369	0.707822	0.793823
Cl337	Cl	-0.372587	0.670844	-0.000140
Cl338	Cl	-0.039254	1.004178	0.333193
Cl339	Cl	0.294080	1.337511	0.666526
H340	H	-0.424446	0.490582	-0.000092
H341	H	-0.091113	0.823916	0.333241
H342	H	0.242220	1.157249	0.666575
Cl343	Cl	0.313782	0.464127	-0.637376
Cl344	Cl	0.647116	0.797460	-0.304043
Cl345	Cl	0.980449	1.130794	0.029290
Cl346	Cl	0.111773	-0.061443	-0.147423
Cl347	Cl	0.445107	0.271891	0.185911
Cl348	Cl	0.778440	0.605224	0.519244
H349	H	0.003139	0.630662	-0.866020
H350	H	0.336473	0.963995	-0.532686
H351	H	0.669806	1.297329	-0.199353
Cl352	Cl	0.113942	0.052341	-0.147419
Cl353	Cl	0.447275	0.385675	0.185914
Cl354	Cl	0.780609	0.719008	0.519247
H355	H	-0.465414	0.650347	-0.000137
H356	H	-0.132081	0.983681	0.333196
H357	H	0.201252	1.317014	0.666529
Cl358	Cl	-0.321625	0.472084	-0.000083
Cl359	Cl	0.011708	0.805418	0.333250
Cl360	Cl	0.345042	1.138751	0.666583
Cl361	Cl	-0.162047	0.672996	-0.000151
Cl362	Cl	0.171286	1.006330	0.333182
Cl363	Cl	0.504620	1.339663	0.666515
Cl364	Cl	0.107396	-0.293389	0.101934
Cl365	Cl	0.440730	0.039945	0.435268
Cl366	Cl	0.774063	0.373278	0.768601
H367	H	0.109375	-0.190735	-0.082185
H368	H	0.442709	0.142598	0.251148
H369	H	0.776042	0.475932	0.584482
Cl370	Cl	-0.660303	0.667909	-0.000133
Cl371	Cl	-0.326970	1.001242	0.333200
Cl372	Cl	0.006363	1.334576	0.666534
H373	H	-0.593681	0.488856	-0.000100
H374	H	-0.260348	0.822190	0.333234
H375	H	0.072986	1.155523	0.666567
Cl376	Cl	-0.111073	0.474234	-0.000091
Cl377	Cl	0.222261	0.807567	0.333242
Cl378	Cl	0.555594	1.140901	0.666575
Cl379	Cl	0.121192	0.435517	0.101987
Cl380	Cl	0.454525	0.768851	0.435321
Cl381	Cl	0.787859	1.102184	0.768654
Cl382	Cl	0.121243	0.435525	-0.102165
Cl383	Cl	0.454577	0.768858	0.231168
Cl384	Cl	0.787910	1.102191	0.564501
Cl385	Cl	-0.023917	0.645170	-0.122646
Cl386	Cl	0.309417	0.978503	0.210687
Cl387	Cl	0.642750	1.311836	0.544020
Cl388	Cl	0.111758	-0.061464	0.147179
Cl389	Cl	0.445091	0.271869	0.480512
Cl390	Cl	0.778425	0.605203	0.813846
Cl391	Cl	-0.023950	0.645173	-0.240496
Cl392	Cl	0.309383	0.978506	0.092837
Cl393	Cl	0.642716	1.311840	0.426171
H394	H	0.225468	0.511488	-0.228962
H395	H	0.558801	0.844821	0.104371
H396	H	0.892135	1.178154	0.437705
Cl397	Cl	0.119040	0.321714	0.101986
Cl398	Cl	0.452374	0.655047	0.435319
Cl399	Cl	0.785707	0.988381	0.768652
Cl400	Cl	0.107426	-0.293373	-0.102217
Cl401	Cl	0.440759	0.039961	0.231116
Cl402	Cl	0.774092	0.373294	0.564449
Cl403	Cl	-0.085230	0.678018	-0.519502
Cl404	Cl	0.248104	1.011352	-0.186168
Cl405	Cl	0.581437	1.344685	0.147165
Cl406	Cl	-0.085211	0.678011	-0.362851
Cl407	Cl	0.248122	1.011344	-0.029518
Cl408	Cl	0.581455	1.344678	0.303815
H409	H	-0.058093	0.663472	-0.469138
H410	H	0.275240	0.996805	-0.135805
H411	H	0.608573	1.330139	0.197529
H412	H	0.116564	0.192417	0.127162
H413	H	0.449897	0.525751	0.460495
H414	H	0.783231	0.859084	0.793829
Cl415	Cl	0.119075	0.321742	-0.102176
Cl416	Cl	0.452408	0.655075	0.231157
Cl417	Cl	0.785742	0.988408	0.564490
Cl418	Cl	0.114679	0.089817	-0.147408
Cl419	Cl	0.448012	0.423150	0.185925
Cl420	Cl	0.781346	0.756483	0.519258
Cl421	Cl	0.313796	0.464102	-0.362867
Cl422	Cl	0.647129	0.797435	-0.029534
Cl423	Cl	0.980462	1.130768	0.303800
H424	H	0.116610	0.192433	-0.127371
H425	H	0.449943	0.525766	0.205962
H426	H	0.783277	0.859100	0.539295
H427	H	0.003143	0.630662	-0.771280
H428	H	0.336477	0.963995	-0.437946
H429	H	0.669810	1.297328	-0.104613
H430	H	-0.058103	0.663476	-0.625800
H431	H	0.275230	0.996809	-0.292467
H432	H	0.608563	1.330142	0.040867
H433	H	0.225409	0.511525	-0.866024
H434	H	0.558742	0.844858	-0.532691
H435	H	0.892075	1.178191	-0.199357
Cl436	Cl	0.252538	0.496968	-0.759738
Cl437	Cl	0.585872	0.830301	-0.426405
Cl438	Cl	0.919205	1.163635	-0.093072
Cl439	Cl	0.109531	-0.179601	0.101949
Cl440	Cl	0.442864	0.153732	0.435282
Cl441	Cl	0.776198	0.487065	0.768616
H442	H	0.286661	0.478666	-0.531089
H443	H	0.619995	0.811999	-0.197756
H444	H	0.953328	1.145333	0.135577
Cl445	Cl	0.313795	0.464108	-0.480717
Cl446	Cl	0.647128	0.797441	-0.147384
Cl447	Cl	0.980461	1.130775	0.185949
H448	H	0.225470	0.511485	-0.134223
H449	H	0.558803	0.844818	0.199111
H450	H	0.892136	1.178151	0.532444
