data_functionalizedCrystal
_audit_creation_method	'MofGen! by Chris Wilmer'
_symmetry_space_group_name_H-M	'P1'
_symmetry_Int_Tables_number	1
_symmetry_cell_setting	triclinic
loop_
_symmetry_equiv_pos_as_xyz
  x,y,z
_cell_length_a	10.654550
_cell_length_b	10.723024
_cell_length_c	9.730223
_cell_angle_alpha	89.999810
_cell_angle_beta	89.996251
_cell_angle_gamma	84.476386
loop_
_atom_site_label
_atom_site_type_symbol
_atom_site_fract_x
_atom_site_fract_y
_atom_site_fract_z
O1	O	1.667808	0.175269	-0.114399
O2	O	1.302327	0.191968	-0.114377
O3	O	1.493497	0.002044	-0.114383
O4	O	1.476637	0.365194	-0.114393
O5	O	1.493495	0.002049	0.114197
O6	O	1.302324	0.191973	0.114203
O7	O	1.667805	0.175274	0.114181
Zn8	Zn	1.485065	0.183624	0.150484
Zn9	Zn	1.485067	0.183618	-0.150680
O10	O	1.476635	0.365199	0.114187
C11	C	1.255528	0.190745	-0.000084
C12	C	1.116085	0.187076	-0.000075
C13	C	1.036583	0.298901	-0.000098
C14	C	0.905562	0.295446	-0.000122
C15	C	0.933560	0.068333	-0.000106
C16	C	1.064578	0.071789	-0.000072
C17	C	1.020417	0.430023	-0.000114
C18	C	0.889397	0.426568	-0.000137
C19	C	1.492269	-0.044454	-0.000095
C20	C	1.488598	-0.183008	-0.000100
C21	C	1.595568	-0.257975	-0.000108
C22	C	1.591776	-0.401179	-0.000113
C23	C	1.714604	0.176498	-0.000115
C24	C	1.854047	0.180166	-0.000133
C25	C	1.477863	0.411696	-0.000104
C26	C	1.481534	0.550251	-0.000108
N27	N	1.485072	0.183628	0.356020
N28	N	1.485070	0.183605	-0.356216
C29	C	1.569744	0.099558	0.427943
C30	C	1.569741	0.099543	0.571826
C31	C	1.400389	0.267678	0.571850
C32	C	1.400387	0.267687	0.427970
C33	C	1.667522	0.002490	0.427931
C34	C	1.667519	0.002475	0.571814
H35	H	0.891606	-0.025530	-0.000124
H36	H	1.689955	-0.216139	-0.000105
H37	H	1.637019	-0.088167	0.616433
H38	H	0.847658	0.475971	-0.095806
H39	H	1.683350	-0.465598	-0.000114
H40	H	1.758701	0.032883	0.383298
H41	H	1.389955	-0.385338	-0.000092
H42	H	1.049740	0.481306	0.095551
O43	O	1.782704	0.028043	0.618174
C44	C	1.992628	0.074475	0.558088
C45	C	1.862238	0.045566	0.505399
H46	H	2.056976	0.088624	0.466937
H47	H	1.981998	0.163288	0.623142
H48	H	2.035467	-0.007183	0.623210
H49	H	1.819327	0.127146	0.440221
H50	H	1.872949	-0.043290	0.440420
H51	H	0.843719	0.466197	0.098546
O52	O	1.141627	-0.036954	-0.000094
C53	C	1.155565	-0.262584	0.000034
C54	C	1.068162	-0.139522	0.000022
H55	H	1.096204	-0.345542	0.000158
H56	H	1.217611	-0.266749	-0.095629
H57	H	1.217599	-0.266557	0.095692
H58	H	1.006050	-0.135467	-0.095570
H59	H	1.006201	-0.135408	0.095749
O60	O	1.318254	0.349520	0.358170
C61	C	1.246440	0.565830	0.314245
C62	C	1.339553	0.473288	0.393351
H63	H	1.263610	0.665916	0.342682
H64	H	1.260975	0.551513	0.199033
H65	H	1.145730	0.548557	0.342531
H66	H	1.440299	0.490504	0.365181
H67	H	1.324908	0.487627	0.508544
O68	O	1.062742	0.479913	-0.117900
C69	C	1.008080	0.569951	-0.339358
C70	C	0.959973	0.513508	-0.206019
H71	H	0.925019	0.597103	-0.410651
H72	H	1.057581	0.656683	-0.313743
H73	H	1.077282	0.497760	-0.392433
H74	H	0.890726	0.585605	-0.152879
H75	H	0.910547	0.426750	-0.231724
O76	O	1.641882	-0.111985	0.381563
C77	C	1.595334	-0.320626	0.441635
C78	C	1.624329	-0.191039	0.494333
H79	H	1.581160	-0.384585	0.532782
H80	H	1.505938	-0.310131	0.376605
H81	H	1.677535	-0.363125	0.376488
H82	H	1.542207	-0.148467	0.559537
H83	H	1.713768	-0.201615	0.559288
H84	H	1.394211	-0.224844	-0.000103
H85	H	1.331440	0.336116	0.630447
