data_functionalizedCrystal
_audit_creation_method	'MofGen! by Chris Wilmer'
_symmetry_space_group_name_H-M	'P1'
_symmetry_Int_Tables_number	1
_symmetry_cell_setting	triclinic
loop_
_symmetry_equiv_pos_as_xyz
  x,y,z
_cell_length_a	16.625547
_cell_length_b	25.639240
_cell_length_c	16.625539
_cell_angle_alpha	89.975626
_cell_angle_beta	89.978691
_cell_angle_gamma	90.031996
loop_
_atom_site_label
_atom_site_type_symbol
_atom_site_fract_x
_atom_site_fract_y
_atom_site_fract_z
Zn1	Zn	1.232599	-0.208160	-0.456012
Zn2	Zn	1.232488	-0.295595	-0.321184
Zn3	Zn	1.097769	-0.208176	-0.321183
Zn4	Zn	1.097708	-0.295566	-0.455964
O5	O	1.165141	-0.251874	-0.388586
O6	O	1.345416	-0.219764	-0.438148
O7	O	1.214596	-0.284017	-0.208352
O8	O	1.115726	-0.135008	-0.339088
O9	O	1.345335	-0.284003	-0.339090
O10	O	1.214785	-0.134997	-0.438146
O11	O	1.115618	-0.219791	-0.208351
O12	O	0.984928	-0.219763	-0.339041
O13	O	1.115623	-0.283953	-0.568803
O14	O	0.984884	-0.283968	-0.438065
O15	O	1.214727	-0.219736	-0.568838
O16	O	1.214537	-0.368757	-0.339044
O17	O	1.115515	-0.368735	-0.438066
C18	C	0.955650	-0.251864	-0.388548
C19	C	0.866029	-0.251873	-0.388551
C20	C	0.793247	-0.251874	-0.388561
C21	C	0.701938	-0.251876	-0.388581
C22	C	0.629162	-0.251881	-0.388601
C23	C	0.537847	-0.251885	-0.388621
C24	C	1.165030	-0.387717	-0.388567
C25	C	1.165056	-0.445831	-0.388586
C26	C	1.216716	-0.696967	-0.440219
C27	C	1.216692	-0.642363	-0.440212
O28	O	1.260523	-0.614078	-0.484085
N29	N	1.165144	-0.615105	-0.388597
C30	C	1.113622	-0.642454	-0.336978
O31	O	1.069775	-0.614255	-0.293073
C32	C	1.113651	-0.697057	-0.336980
C33	C	1.165197	-0.724313	-0.388605
C34	C	1.268259	-0.724223	-0.491839
C35	C	1.268282	-0.778823	-0.491846
C36	C	1.216762	-0.806168	-0.440232
C37	C	1.165220	-0.778913	-0.388612
C38	C	1.062134	-0.724405	-0.285358
C39	C	1.062168	-0.779012	-0.285365
C40	C	1.113714	-0.806268	-0.336990
C41	C	1.113724	-0.860859	-0.337006
N42	N	1.165272	-0.888117	-0.388622
C43	C	1.216791	-0.860772	-0.440235
C44	C	1.113567	-0.527783	-0.336975
C45	C	1.113533	-0.473181	-0.336976
C46	C	1.216604	-0.473094	-0.440210
C47	C	1.216633	-0.527697	-0.440212
C48	C	1.165115	-0.555041	-0.388591
C49	C	1.216835	-0.975437	-0.440246
C50	C	1.216851	-1.030042	-0.440251
C51	C	1.113783	-1.030125	-0.337014
C52	C	1.113764	-0.975524	-0.337012
C53	C	1.165296	-0.948181	-0.388631
O54	O	1.069917	-0.889179	-0.293154
O55	O	1.260639	-0.888977	-0.484125
C56	C	1.375450	-0.251885	-0.388625
C57	C	1.465071	-0.251889	-0.388641
C58	C	1.165181	-0.251840	-0.598895
C59	C	1.165197	-0.251825	-0.688516
C60	C	1.165275	-0.115501	-0.388622
C61	C	1.165332	-0.057387	-0.388638
C62	C	1.165211	-0.251814	-0.761299
C63	C	1.165229	-0.251794	-0.852607
C64	C	1.165248	-0.251776	-0.925384
C65	C	1.165268	-0.251757	-1.016698
C66	C	1.165148	-0.251871	-0.179095
C67	C	1.165287	-0.251738	-0.089475
H68	H	1.258798	-0.953181	-0.482278
O69	O	1.057986	-0.557270	-0.281298
H70	H	1.094108	-0.582134	-0.240301
O71	O	1.323881	-0.808217	-0.547523
H72	H	1.387165	-0.797704	-0.533747
H73	H	1.020162	-0.702222	-0.243320
O74	O	1.006597	-0.808506	-0.229690
H75	H	0.970749	-0.780377	-0.193801
H76	H	1.258555	-0.450819	-0.482235
O77	O	1.058169	-0.946122	-0.281335
H78	H	1.022351	-0.974312	-0.245445
O79	O	1.057927	-0.443790	-0.281300
H80	H	1.066555	-0.401226	-0.289965
O81	O	1.058233	-1.059628	-0.281338
H82	H	1.017204	-1.084525	-0.317379
O83	O	1.272447	-1.059441	-0.495935
H84	H	1.335734	-1.048935	-0.482163
O85	O	1.323843	-0.694737	-0.547505
H86	H	1.309979	-0.705208	-0.610773
O87	O	1.272233	-0.557094	-0.495886
H88	H	1.308053	-0.528900	-0.531770
