data_functionalizedCrystal
_audit_creation_method	'MofGen! by Chris Wilmer'
_symmetry_space_group_name_H-M	'P1'
_symmetry_Int_Tables_number	1
_symmetry_cell_setting	triclinic
loop_
_symmetry_equiv_pos_as_xyz
  x,y,z
_cell_length_a	10.654547
_cell_length_b	14.519709
_cell_length_c	13.596369
_cell_angle_alpha	89.993066
_cell_angle_beta	89.993970
_cell_angle_gamma	84.083100
loop_
_atom_site_label
_atom_site_type_symbol
_atom_site_fract_x
_atom_site_fract_y
_atom_site_fract_z
O1	O	1.666596	0.129546	-0.081811
O2	O	1.300999	0.141884	-0.081809
O3	O	1.493491	0.001527	-0.081801
O4	O	1.474104	0.269903	-0.081819
O5	O	1.493471	0.001520	0.081782
O6	O	1.300980	0.141877	0.081774
O7	O	1.666577	0.129539	0.081772
Zn8	Zn	1.483775	0.135706	0.107745
Zn9	Zn	1.483800	0.135716	-0.107782
O10	O	1.474085	0.269896	0.081764
C11	C	1.254200	0.140974	-0.000017
C12	C	1.114783	0.138262	-0.000017
C13	C	1.492577	-0.032841	-0.000009
C14	C	1.489870	-0.135236	-0.000009
C15	C	0.852833	0.133158	-0.178372
C16	C	0.918350	0.134438	-0.267541
C17	C	1.049342	0.136993	-0.267539
C18	C	1.114823	0.138266	-0.178358
C19	C	1.049306	0.136986	-0.089188
C20	C	0.918310	0.134434	-0.089200
C21	C	1.049267	0.136982	0.089153
C22	C	0.918273	0.134434	0.089152
C23	C	1.114747	0.138255	0.178334
C24	C	1.049229	0.136982	0.267506
C25	C	0.918228	0.134428	0.267499
C26	C	0.852756	0.133154	0.178322
C27	C	1.479903	-0.510184	-0.000034
C28	C	1.482671	-0.405862	-0.000027
C29	C	1.484886	-0.322714	-0.000021
C30	C	1.487655	-0.218385	-0.000015
C31	C	1.713375	0.130449	-0.000022
C32	C	1.852792	0.133161	-0.000029
C33	C	1.474998	0.304264	-0.000030
C34	C	1.477705	0.406659	-0.000037
N35	N	1.483767	0.135699	0.254837
N36	N	1.483818	0.135717	-0.254874
C37	C	1.483799	0.135717	0.656128
C38	C	1.483786	0.135715	0.544477
C39	C	1.483783	0.135709	0.455486
C40	C	1.483770	0.135706	0.343828
H41	H	0.865022	0.133397	-0.340151
H42	H	0.746170	0.131090	-0.178383
N43	N	0.847572	0.133039	0.363678
H44	H	0.909046	0.133590	0.420164
H45	H	0.783762	0.189381	0.367858
H46	H	1.102686	0.138034	-0.340148
H47	H	1.221486	0.140335	-0.178364
N48	N	1.256034	0.140995	0.178328
H49	H	1.277545	0.198678	0.143313
H50	H	1.287488	0.141566	0.248373
N51	N	1.119851	0.138350	0.363684
H52	H	1.212776	0.140157	0.350155
H53	H	1.086897	0.194977	0.402616
N54	N	0.711472	0.130397	0.178321
H55	H	0.669866	0.186850	0.143304
H56	H	0.690096	0.072678	0.143332
