data_functionalizedCrystal
_audit_creation_method	'MofGen! by Chris Wilmer'
_symmetry_space_group_name_H-M	'P1'
_symmetry_Int_Tables_number	1
_symmetry_cell_setting	triclinic
loop_
_symmetry_equiv_pos_as_xyz
  x,y,z
_cell_length_a	10.686220
_cell_length_b	12.759394
_cell_length_c	12.759387
_cell_angle_alpha	90.031660
_cell_angle_beta	85.651598
_cell_angle_gamma	94.396533
loop_
_atom_site_label
_atom_site_type_symbol
_atom_site_fract_x
_atom_site_fract_y
_atom_site_fract_z
Zn1	Zn	1.929131	-0.294839	0.470989
Zn2	Zn	1.928999	-0.470564	0.295315
Zn3	Zn	1.718112	-0.308387	0.308781
Zn4	Zn	1.718103	-0.483972	0.484402
O5	O	1.823586	-0.389441	0.389872
O6	O	2.105686	-0.306868	0.436437
O7	O	1.900973	-0.449110	0.150084
O8	O	1.746164	-0.159565	0.330321
O9	O	2.105589	-0.435973	0.307370
O10	O	1.901198	-0.149611	0.449494
O11	O	1.746036	-0.329958	0.159977
O12	O	1.541539	-0.342959	0.343327
O13	O	1.746147	-0.458825	0.629641
O14	O	1.541531	-0.471961	0.472355
O15	O	1.901188	-0.319869	0.619786
O16	O	1.900964	-0.619368	0.320376
O17	O	1.746019	-0.629219	0.459297
C18	C	1.495752	-0.410386	0.410758
C19	C	1.355503	-0.419372	0.419718
C20	C	1.823510	-0.662413	0.389852
C21	C	1.823593	-0.779184	0.389870
C22	C	1.985058	-0.768866	0.245305
C23	C	2.065823	-0.818565	0.173032
C24	C	2.065897	-0.928282	0.173056
C25	C	1.985200	-0.988302	0.245362
C26	C	1.904435	-0.938603	0.317635
C27	C	1.904367	-0.828883	0.317601
C28	C	1.742978	-0.948921	0.462204
C29	C	1.742896	-0.839205	0.462177
C30	C	1.662281	-1.008941	0.534510
C31	C	1.581508	-0.959242	0.606779
C32	C	1.581436	-0.849519	0.606752
C33	C	1.662131	-0.789505	0.534449
C34	C	2.152701	-0.368414	0.368905
C35	C	2.292950	-0.359454	0.359970
C36	C	1.823681	-0.389332	0.663900
C37	C	1.823722	-0.389285	0.780674
C38	C	1.823697	-0.115400	0.389914
C39	C	1.823744	0.001380	0.389931
C40	C	1.823564	-0.389469	0.116906
C41	C	1.823768	-0.389204	0.000117
C42	C	1.985178	-0.244599	0.770431
C43	C	2.065923	-0.172239	0.820170
C44	C	2.065954	-0.172199	0.929890
C45	C	1.985228	-0.244524	0.989874
C46	C	1.904482	-0.316884	0.940136
C47	C	1.904463	-0.316919	0.830413
C48	C	1.743022	-0.461564	0.950378
C49	C	1.742996	-0.461610	0.840658
C50	C	1.662296	-0.533889	1.010363
C51	C	1.581555	-0.606255	0.960624
C52	C	1.581529	-0.606294	0.850897
C53	C	1.662251	-0.533970	0.790920
H54	H	1.301756	-0.477555	0.477724
H55	H	1.662352	-1.098278	0.534528
H56	H	1.515763	-0.665208	0.810408
H57	H	1.346690	-0.301281	0.301962
O58	O	1.985514	-1.094865	0.245381
C59	C	2.106570	-1.244464	0.264849
C60	C	2.106396	-1.123771	0.264830
H61	H	2.204285	-1.267873	0.280595
H62	H	2.080539	-1.276068	0.185137
H63	H	2.034972	-1.278807	0.328909
H64	H	2.177994	-1.089339	0.200822
H65	H	2.132371	-1.092243	0.344584
H66	H	1.984990	-0.679529	0.245266
H67	H	1.662242	-0.533998	0.701579
H68	H	2.131529	-0.769687	0.114163
H69	H	1.662322	-0.533847	1.099702
H70	H	2.131670	-0.968746	0.114210
O71	O	1.503304	-1.017648	0.677051
C72	C	1.486356	-1.142454	0.820048
C73	C	1.575064	-1.076379	0.740506
H74	H	1.544339	-1.189937	0.871387
H75	H	1.420465	-1.198200	0.776043
H76	H	1.428581	-1.088073	0.871649
H77	H	1.632921	-1.130679	0.688884
H78	H	1.640872	-1.020622	0.784576
O79	O	1.502865	-0.801414	0.677004
C80	C	1.342796	-0.823237	0.820459
C81	C	1.431690	-0.877846	0.740936
H82	H	1.285247	-0.885006	0.872183
H83	H	1.276716	-0.776208	0.776438
H84	H	1.400691	-0.768052	0.871677
H85	H	1.373896	-0.933081	0.689697
H86	H	1.497773	-0.924809	0.785022
H87	H	1.985249	-0.244477	1.079214
H88	H	1.662072	-0.700168	0.534414
H89	H	1.985172	-0.244634	0.681091
O90	O	2.144303	-0.102092	0.761741
C91	C	2.215785	-0.037996	0.588174
C92	C	2.126977	-0.117508	0.654210
H93	H	2.201789	-0.050418	0.501224
H94	H	2.317550	-0.049955	0.603193
H95	H	2.193700	0.045309	0.611231
H96	H	2.148949	-0.200846	0.631193
H97	H	2.025239	-0.105458	0.639184
O98	O	2.144449	-0.102052	0.978323
C99	C	2.314888	-0.077012	1.091319
C100	C	2.226054	-0.156566	1.036549
H101	H	2.380905	-0.121055	1.138390
H102	H	2.257063	-0.025770	1.146452
H103	H	2.372518	-0.025304	1.029589
H104	H	2.168404	-0.208343	1.098204
H105	H	2.283951	-0.207734	0.981395
H106	H	1.515828	-0.665132	1.009472
