data_functionalizedCrystal
_audit_creation_method	'MofGen! by Chris Wilmer'
_symmetry_space_group_name_H-M	'P1'
_symmetry_Int_Tables_number	1
_symmetry_cell_setting	triclinic
loop_
_symmetry_equiv_pos_as_xyz
  x,y,z
_cell_length_a	12.759401
_cell_length_b	12.645330
_cell_length_c	12.759393
_cell_angle_alpha	89.972561
_cell_angle_beta	90.020459
_cell_angle_gamma	89.972289
loop_
_atom_site_label
_atom_site_type_symbol
_atom_site_fract_x
_atom_site_fract_y
_atom_site_fract_z
Zn1	Zn	1.606178	0.421952	0.594038
Zn2	Zn	1.606035	0.599250	0.418365
Zn3	Zn	1.430478	0.422006	0.418373
Zn4	Zn	1.430433	0.599178	0.594003
O5	O	1.518281	0.510597	0.506195
O6	O	1.753180	0.445478	0.570746
O7	O	1.582706	0.575791	0.271345
O8	O	1.453863	0.273652	0.441693
O9	O	1.753075	0.575739	0.441680
O10	O	1.582949	0.273612	0.570753
O11	O	1.453725	0.445571	0.271351
O12	O	1.283451	0.445501	0.441659
O13	O	1.453787	0.575616	0.741028
O14	O	1.283418	0.575669	0.570693
O15	O	1.582906	0.445408	0.741054
O16	O	1.582662	0.747588	0.441646
O17	O	1.453648	0.747535	0.570686
C18	C	1.245313	0.510584	0.506174
C19	C	1.128537	0.510604	0.506190
C20	C	1.073685	0.578485	0.573272
C21	C	0.963961	0.578489	0.573293
C22	C	0.963950	0.442727	0.439140
C23	C	1.073672	0.442719	0.439125
C24	C	1.518164	0.786026	0.506184
C25	C	1.518210	0.903856	0.506215
C26	C	1.437357	1.071431	0.587647
C27	C	1.436962	0.948872	0.587383
C28	C	1.488229	0.948458	0.395493
C29	C	1.487717	1.071056	0.395990
C30	C	1.629482	1.070941	0.534612
C31	C	1.628818	0.948334	0.537032
C32	C	1.792314	0.510610	0.506216
C33	C	1.909091	0.510616	0.506225
C34	C	1.518357	0.510498	0.780228
C35	C	1.518390	0.510456	0.897005
C36	C	1.518390	1.234091	0.506232
C37	C	1.518342	1.116261	0.506258
C38	C	1.518265	0.510618	0.233227
C39	C	1.518436	0.510362	0.116451
C40	C	1.585578	0.578183	1.061599
C41	C	1.585552	0.578233	0.951875
C42	C	1.451241	0.442632	0.951864
C43	C	1.451262	0.442588	1.061586
H44	H	1.118333	0.387435	0.384499
H45	H	0.919306	0.633763	0.627920
H46	H	1.544144	1.100716	0.333281
O47	O	1.650790	0.643921	1.115058
C48	C	1.710308	0.703998	1.284094
C49	C	1.636420	0.629475	1.223687
H50	H	1.698700	0.692360	1.371930
H51	H	1.795053	0.685394	1.262611
H52	H	1.691818	0.789474	1.262448
H53	H	1.654815	0.543974	1.245301
H54	H	1.551697	0.648169	1.245174
H55	H	1.640226	0.633460	0.907220
O56	O	1.339745	1.108471	0.565502
C57	C	1.229076	1.261650	0.545681
C58	C	1.339671	1.219844	0.570760
H59	H	1.228973	1.351698	0.549945
H60	H	1.205411	1.235541	0.463508
H61	H	1.170941	1.228644	0.605103
H62	H	1.397880	1.252831	0.511407
H63	H	1.363247	1.245943	0.652961
H64	H	1.455720	0.918712	0.669482
H65	H	1.406474	1.099751	0.371969
H66	H	1.455935	1.100837	0.670016
H67	H	1.354577	0.919640	0.568597
H68	H	0.919266	0.387459	0.384537
O69	O	1.556481	0.913871	0.321177
C70	C	1.683203	0.962009	0.189571
C71	C	1.605941	1.001311	0.273703
H72	H	1.723196	1.032684	0.151149
H73	H	1.744841	0.909151	0.227603
H74	H	1.638706	0.915087	0.127621
H75	H	1.650348	1.048277	0.335678
H76	H	1.544305	1.054114	0.235595
O77	O	1.392272	0.912139	0.366261
C78	C	1.215304	0.957089	0.317477
C79	C	1.323932	0.998360	0.350542
H80	H	1.160015	1.026776	0.304780
H81	H	1.222771	0.910183	0.241562
H82	H	1.182687	0.903736	0.381690
H83	H	1.356612	1.051755	0.286400
H84	H	1.316400	1.045206	0.426486
H85	H	1.656821	1.101779	0.613979
H86	H	1.651427	0.919178	0.618517
H87	H	1.692343	0.917685	0.482068
O88	O	1.701467	1.105706	0.463986
C89	C	1.786553	1.256371	0.385723
C90	C	1.705028	1.217134	0.465762
H91	H	1.789443	1.346464	0.387117
H92	H	1.866988	1.223285	0.406762
H93	H	1.763527	1.228401	0.303973
H94	H	1.727955	1.245089	0.547540
H95	H	1.624614	1.250211	0.444633
H96	H	1.396551	0.387451	0.907180
O97	O	1.385888	0.376753	1.114757
C98	C	1.207204	0.325321	1.148349
C99	C	1.281122	0.399919	1.088052
H100	H	1.122484	0.344039	1.126797
H101	H	1.225606	0.239832	1.126769
H102	H	1.218807	0.336916	1.236190
H103	H	1.269560	0.388419	1.000198
H104	H	1.262702	0.485381	1.109720
O105	O	1.126819	0.644451	0.638523
C106	C	1.115244	0.779145	0.771550
C107	C	1.054944	0.704476	0.697719
H108	H	1.057160	0.827710	0.819414
H109	H	1.166631	0.730586	0.826629
H110	H	1.166597	0.834470	0.723202
H111	H	1.003535	0.649136	0.745983
H112	H	1.003624	0.753101	0.642637
