data_functionalizedCrystal
_audit_creation_method	'MofGen! by Chris Wilmer'
_symmetry_space_group_name_H-M	'P1'
_symmetry_Int_Tables_number	1
_symmetry_cell_setting	triclinic
loop_
_symmetry_equiv_pos_as_xyz
  x,y,z
_cell_length_a	10.654550
_cell_length_b	9.065218
_cell_length_c	8.140239
_cell_angle_alpha	90.001686
_cell_angle_beta	89.997573
_cell_angle_gamma	95.249606
loop_
_atom_site_label
_atom_site_type_symbol
_atom_site_fract_x
_atom_site_fract_y
_atom_site_fract_z
O1	O	1.668659	-0.207232	-0.136596
O2	O	1.303259	-0.226976	-0.136601
O3	O	1.493512	-0.002421	-0.136595
O4	O	1.478406	-0.431788	-0.136602
O5	O	1.493501	-0.002418	0.136632
O6	O	1.303248	-0.226974	0.136626
O7	O	1.668648	-0.207230	0.136631
Zn8	Zn	1.485947	-0.217101	0.180010
Zn9	Zn	1.485961	-0.217105	-0.179979
O10	O	1.478395	-0.431786	0.136625
C11	C	1.256450	-0.225525	0.000012
C12	C	1.116989	-0.221188	0.000010
C13	C	1.492055	0.052559	0.000016
C14	C	1.487714	0.216378	0.000008
C15	C	1.715457	-0.208681	0.000015
C16	C	1.854918	-0.213018	0.000006
C17	C	1.933880	-0.080803	0.000002
C18	C	2.064917	-0.084888	0.000010
C19	C	2.038017	-0.353413	0.000019
C20	C	1.906983	-0.349327	0.000023
C21	C	1.881815	0.055506	-0.000015
C22	C	1.960778	0.187732	-0.000021
C23	C	2.091815	0.183647	-0.000013
C24	C	2.143889	0.047337	0.000001
C25	C	1.479852	-0.486766	0.000011
C26	C	1.484193	-0.650585	0.000008
N27	N	1.485946	-0.217098	0.425692
N28	N	1.485971	-0.217096	-0.425662
H29	H	1.918371	0.298710	-0.000046
C30	C	2.178675	0.329089	-0.000014
C31	C	2.171744	0.440428	0.141854
C32	C	2.258601	0.585875	0.141843
C33	C	2.352389	0.619984	-0.000035
C34	C	2.359325	0.508641	-0.141914
C35	C	2.272468	0.363194	-0.141903
H36	H	2.102312	0.415182	0.246890
H37	H	2.253466	0.668298	0.246872
H38	H	2.416686	0.727652	-0.000043
H39	H	2.428756	0.533888	-0.246950
H40	H	2.277602	0.280771	-0.246932
C41	C	1.820111	-0.494760	0.000016
C42	C	1.827022	-0.606088	-0.141867
C43	C	1.740149	-0.751522	-0.141868
C44	C	1.646363	-0.785629	0.000015
C45	C	1.639448	-0.674298	0.141909
C46	C	1.726322	-0.528864	0.141909
H47	H	1.896451	-0.580842	-0.246906
H48	H	1.745268	-0.833936	-0.246908
H49	H	1.582054	-0.893288	0.000014
H50	H	1.570019	-0.699544	0.246948
H51	H	1.721203	-0.446450	0.246949
H52	H	1.775120	0.058847	-0.000026
H53	H	2.250589	0.044022	0.000022
H54	H	2.080426	-0.464390	0.000029
