data_functionalizedCrystal
_audit_creation_method	'MofGen! by Chris Wilmer'
_symmetry_space_group_name_H-M	'P1'
_symmetry_Int_Tables_number	1
_symmetry_cell_setting	triclinic
loop_
_symmetry_equiv_pos_as_xyz
  x,y,z
_cell_length_a	13.032721
_cell_length_b	19.805407
_cell_length_c	19.805399
_cell_angle_alpha	90.016510
_cell_angle_beta	97.154168
_cell_angle_gamma	82.799202
loop_
_atom_site_label
_atom_site_type_symbol
_atom_site_fract_x
_atom_site_fract_y
_atom_site_fract_z
Zn1	Zn	-0.416156	-1.000508	-0.416944
Zn2	Zn	-0.590918	-0.986062	-0.318131
Zn3	Zn	-0.416177	-0.887326	-0.303771
Zn4	Zn	-0.590846	-0.872926	-0.431273
O5	O	-0.503524	-0.936705	-0.367530
O6	O	-0.439359	-1.093306	-0.403849
O7	O	-0.567777	-0.972945	-0.221513
O8	O	-0.269936	-0.914412	-0.306778
O9	O	-0.567756	-1.082693	-0.331252
O10	O	-0.269921	-0.997566	-0.389925
O11	O	-0.439396	-0.900404	-0.210963
O12	O	-0.439326	-0.790701	-0.320671
O13	O	-0.567634	-0.889869	-0.524085
O14	O	-0.567655	-0.780121	-0.414346
O15	O	-0.439290	-0.983603	-0.513558
O16	O	-0.737146	-0.958982	-0.345146
O17	O	-0.737094	-0.875861	-0.428270
C18	C	-0.503486	-0.760852	-0.367506
C19	C	-0.503495	-0.685620	-0.367514
C20	C	-0.436756	-0.655793	-0.405390
C21	C	-0.436759	-0.585104	-0.405391
C22	C	-0.503507	-0.544243	-0.367520
C23	C	-0.570249	-0.574075	-0.329639
C24	C	-0.570240	-0.644762	-0.329634
C25	C	-0.570287	-0.288998	-0.329656
C26	C	-0.570294	-0.218306	-0.329665
C27	C	-0.436806	-0.229340	-0.405413
C28	C	-0.436797	-0.300028	-0.405408
C29	C	-0.503535	-0.329854	-0.367525
C30	C	-0.503529	-0.406502	-0.367523
C31	C	-0.503519	-0.467595	-0.367525
C32	C	-0.775038	-0.914310	-0.389836
C33	C	-0.891193	-0.904790	-0.399401
C34	C	-0.942969	-0.941709	-0.362568
C35	C	-1.063021	-0.931872	-0.372453
C36	C	-0.230950	-0.959207	-0.345151
C37	C	-0.114796	-0.968796	-0.335615
C38	C	-0.503452	-0.936741	-0.544067
C39	C	-0.503421	-0.936756	-0.619296
C40	C	-0.503556	-0.113245	-0.367547
C41	C	-0.503549	-0.188478	-0.367538
C42	C	-0.436566	-0.898997	-0.649146
C43	C	-0.436546	-0.899008	-0.719833
C44	C	-0.503376	-0.936782	-0.760668
C45	C	-0.570237	-0.974543	-0.730814
C46	C	-0.570262	-0.974528	-0.660129
C47	C	-0.570140	-0.974605	-1.015879
C48	C	-0.570107	-0.974619	-1.086569
C49	C	-0.436424	-0.899085	-1.075583
C50	C	-0.436448	-0.899070	-1.004898
C51	C	-0.503314	-0.936827	-0.975050
C52	C	-0.503336	-0.936814	-0.898404
C53	C	-0.503349	-0.936800	-0.837313
C54	C	-0.503521	-0.936715	-0.191673
C55	C	-0.503258	-0.936855	-0.116420
H56	H	-0.624592	-0.540800	-0.298799
F57	F	-1.121242	-0.881038	-0.423244
H58	H	-0.382415	-0.560823	-0.436235
F59	F	-0.949417	-0.853960	-0.450189
H60	H	-0.898422	-0.980603	-0.323718
F61	F	-0.641298	-1.014794	-0.984122
H62	H	-0.382025	-0.868313	-0.971652
F63	F	-1.056577	-1.019636	-0.284830
F64	F	-0.641274	-0.676506	-0.289322
H65	H	-0.382140	-0.868241	-0.615901
F66	F	-0.365429	-0.858791	-0.751600
H67	H	-0.381982	-0.868339	-1.099893
H68	H	-0.624657	-1.005296	-0.764068
F69	F	-0.641242	-1.014824	-1.130028
H70	H	-0.624694	-1.005281	-0.635826
H71	H	-0.382447	-0.333294	-0.436250
F72	F	-0.365775	-0.197592	-0.445730
F73	F	-0.365716	-0.699274	-0.445702
F74	F	-0.641298	-0.320733	-0.289324
F75	F	-0.641338	-0.174819	-0.289353
