data_functionalizedCrystal
_audit_creation_method	'MofGen! by Chris Wilmer'
_symmetry_space_group_name_H-M	'P1'
_symmetry_Int_Tables_number	1
_symmetry_cell_setting	triclinic
loop_
_symmetry_equiv_pos_as_xyz
  x,y,z
_cell_length_a	10.686285
_cell_length_b	11.169417
_cell_length_c	11.169409
_cell_angle_alpha	90.022423
_cell_angle_beta	85.599661
_cell_angle_gamma	94.369367
loop_
_atom_site_label
_atom_site_type_symbol
_atom_site_fract_x
_atom_site_fract_y
_atom_site_fract_z
Zn1	Zn	-0.502287	-1.871646	-0.642015
Zn2	Zn	-0.713340	-1.886943	-0.425958
Zn3	Zn	-0.502357	-1.670934	-0.441338
Zn4	Zn	-0.713230	-1.686342	-0.626605
O5	O	-0.607803	-1.778966	-0.533979
O6	O	-0.530300	-2.041626	-0.613367
O7	O	-0.685427	-1.858243	-0.260043
O8	O	-0.325770	-1.684709	-0.480843
O9	O	-0.685360	-2.052865	-0.454631
O10	O	-0.325719	-1.832171	-0.628280
O11	O	-0.530419	-1.699542	-0.271342
O12	O	-0.530313	-1.505027	-0.465901
O13	O	-0.685173	-1.710969	-0.796604
O14	O	-0.685241	-1.516347	-0.602016
O15	O	-0.530194	-1.847111	-0.807926
O16	O	-0.889903	-1.873183	-0.439689
O17	O	-0.889822	-1.725802	-0.587103
C18	C	-0.607773	-1.467139	-0.533955
C19	C	-0.607791	-1.333741	-0.533972
C20	C	-0.935647	-1.802857	-0.510081
C21	C	-1.075900	-1.813187	-0.499897
C22	C	-0.278680	-1.755015	-0.557996
C23	C	-0.138427	-1.744809	-0.568231
C24	C	-0.607664	-1.779052	-0.847032
C25	C	-0.607604	-1.779089	-0.980436
C26	C	-0.607824	-1.092010	-0.533994
C27	C	-0.607806	-1.225409	-0.533978
C28	C	-0.607852	-1.778943	-0.222150
C29	C	-0.607556	-1.779113	-0.088773
H30	H	-1.084662	-1.678366	-0.634527
C31	C	-1.148539	-1.902946	-0.410319
N32	N	-1.203252	-1.970552	-0.342850
