data_functionalizedCrystal
_audit_creation_method	'MofGen! by Chris Wilmer'
_symmetry_space_group_name_H-M	'P1'
_symmetry_Int_Tables_number	1
_symmetry_cell_setting	triclinic
loop_
_symmetry_equiv_pos_as_xyz
  x,y,z
_cell_length_a	27.732064
_cell_length_b	26.210047
_cell_length_c	8.634740
_cell_angle_alpha	90.000457
_cell_angle_beta	91.609865
_cell_angle_gamma	90.008789
loop_
_atom_site_label
_atom_site_type_symbol
_atom_site_fract_x
_atom_site_fract_y
_atom_site_fract_z
O1	O	0.649901	0.042335	0.183397
O2	O	0.510471	0.042356	0.211238
O3	O	0.573586	0.042345	-0.027002
O4	O	0.586786	0.042346	0.421638
O5	O	0.573563	-0.042513	-0.027002
O6	O	0.510448	-0.042502	0.211238
O7	O	0.649878	-0.042523	0.183397
Cu8	Cu	0.580161	-0.050261	0.197318
Cu9	Cu	0.580188	0.050094	0.197318
O10	O	0.586763	-0.042512	0.421638
C11	C	0.492424	-0.000071	0.210650
C12	C	0.438683	-0.000063	0.208878
N13	N	0.580145	-0.120845	0.197317
C14	C	0.054133	-0.000092	0.056030
C15	C	0.256112	-0.000079	0.062550
O16	O	0.281563	-0.000098	-0.056056
N17	N	0.282150	-0.000076	0.203822
C18	C	0.257690	-0.000081	0.343474
O19	O	0.284472	-0.000083	0.463785
C20	C	0.055712	-0.000097	0.336952
C21	C	0.029677	-0.000095	0.195671
C22	C	0.028098	-0.000090	-0.085240
C23	C	-0.022394	-0.000090	-0.086869
C24	C	-0.046850	-0.000093	0.052773
C25	C	-0.020815	-0.000095	0.194042
C26	C	0.031253	-0.000105	0.476603
C27	C	-0.019245	-0.000111	0.474960
C28	C	-0.045280	-0.000108	0.333678
C29	C	-0.095763	-0.000099	0.332055
N30	N	-0.121801	-0.000101	0.190783
C31	C	-0.097345	-0.000098	0.051142
C32	C	0.363732	-0.000071	0.346889
C33	C	0.414226	-0.000066	0.348519
C34	C	0.412645	-0.000065	0.067595
C35	C	0.362149	-0.000066	0.065965
C36	C	0.337694	-0.000073	0.205616
C37	C	-0.203381	-0.000099	0.047732
C38	C	-0.253877	-0.000097	0.046116
C39	C	-0.252291	-0.000101	0.327040
C40	C	-0.201800	-0.000100	0.328657
C41	C	-0.177346	-0.000101	0.188991
O42	O	-0.121246	-0.000085	0.450597
O43	O	-0.124135	-0.000107	-0.069151
C44	C	0.104625	-0.000091	0.057658
C45	C	0.130660	-0.000094	0.198928
C46	C	0.106204	-0.000096	0.338569
C47	C	0.181155	-0.000089	0.200559
C48	C	0.205611	-0.000086	0.060918
C49	C	0.179573	-0.000088	-0.080354
C50	C	0.129081	-0.000089	-0.081983
C51	C	0.132242	-0.000094	0.479842
C52	C	0.182734	-0.000093	0.481459
C53	C	0.207190	-0.000090	0.341817
C54	C	0.613818	-0.473363	0.290085
C55	C	0.613832	-0.687022	0.290084
O56	O	0.642450	-0.714648	0.368942
N57	N	0.580199	-0.713739	0.197302
C58	C	0.546562	-0.687038	0.104506
O59	O	0.517959	-0.714664	0.025577
C60	C	0.546550	-0.473380	0.104500
C61	C	0.580183	-0.446666	0.197300
C62	C	0.647448	-0.446649	0.382876
C63	C	0.647442	-0.393238	0.382882
C64	C	0.613807	-0.366540	0.290097
C65	C	0.580177	-0.393255	0.197306
C66	C	0.512916	-0.446680	0.011697
C67	C	0.512917	-0.393262	0.011701
C68	C	0.546549	-0.366548	0.104501
C69	C	0.546536	-0.313146	0.104526
N70	N	0.580169	-0.286429	0.197308
C71	C	0.613804	-0.313126	0.290094
C72	C	0.546570	-0.799211	0.104518
C73	C	0.546572	-0.852625	0.104521
C74	C	0.613843	-0.852606	0.290097
C75	C	0.613838	-0.799191	0.290101
C76	C	0.580203	-0.772494	0.197300
C77	C	0.613790	-0.200958	0.290100
C78	C	0.613780	-0.147542	0.290102
C79	C	0.546511	-0.147566	0.104520
C80	C	0.546519	-0.200978	0.104523
C81	C	0.580163	-0.227673	0.197317
O82	O	0.517936	-0.285487	0.025696
O83	O	0.642410	-0.285490	0.368985
C84	C	0.613823	-0.526775	0.290080
C85	C	0.580194	-0.553489	0.197288
C86	C	0.546558	-0.526791	0.104503
C87	C	0.580196	-0.606903	0.197292
C88	C	0.613831	-0.633600	0.290077
C89	C	0.647464	-0.606884	0.382859
C90	C	0.647459	-0.553472	0.382865
C91	C	0.512925	-0.553508	0.011721
C92	C	0.512933	-0.606920	0.011724
C93	C	0.546569	-0.633617	0.104510
C94	C	0.667925	-0.000095	0.183986
C95	C	0.721666	-0.000100	0.185757
C96	C	0.570584	-0.000083	-0.084382
C97	C	0.561668	-0.000079	-0.255354
N98	N	0.580208	0.120678	0.197306
C99	C	0.589765	-0.000084	0.479017
C100	C	0.598681	-0.000084	0.649990
H101	H	-0.275073	-0.000094	-0.068937
Cl102	Cl	0.689737	-0.480202	0.499539
Cl103	Cl	0.470646	-0.640496	-0.104943
Cl104	Cl	0.504229	-0.113994	-0.012116
H105	H	0.641224	-0.777444	0.365668
H106	H	0.641168	-0.125794	0.365678
Cl107	Cl	0.215458	-0.000093	0.659089
H108	H	0.343825	-0.000076	0.460616
H109	H	0.340955	-0.000064	-0.049078
H110	H	0.637191	-0.000072	-0.300250
Cl111	Cl	0.470633	-0.359704	-0.104984
H112	H	0.052443	-0.000105	0.591649
H113	H	0.523156	-0.000070	-0.305121
H114	H	-0.183477	-0.000099	-0.065998
H115	H	-0.039154	-0.000119	0.588683
Cl116	Cl	0.101505	-0.000095	0.655410
H117	H	0.674849	-0.628630	0.458416
Cl118	Cl	0.470630	-0.519954	-0.104910
H119	H	-0.043588	-0.000090	-0.201914
Cl120	Cl	0.504234	-0.234562	-0.012126
H121	H	0.641186	-0.222687	0.365661
Cl122	Cl	0.656129	-0.886178	0.406735
Cl123	Cl	0.058834	-0.000087	-0.260814
H124	H	0.435420	-0.000061	0.463565
Cl125	Cl	0.443399	-0.000061	-0.107953
H126	H	0.199494	-0.000083	-0.194055
H127	H	-0.180600	-0.000101	0.443700
H128	H	-0.272213	-0.000101	0.440732
H129	H	0.107888	-0.000087	-0.197029
H130	H	0.674831	-0.371492	0.458443
Cl131	Cl	0.504284	-0.886202	-0.012123
Cl132	Cl	0.470633	-0.480250	-0.104974
Cl133	Cl	0.504273	-0.765657	-0.012128
H134	H	0.674846	-0.531726	0.458432
