data_functionalizedCrystal
_audit_creation_method	'MofGen! by Chris Wilmer'
_symmetry_space_group_name_H-M	'P1'
_symmetry_Int_Tables_number	1
_symmetry_cell_setting	triclinic
loop_
_symmetry_equiv_pos_as_xyz
  x,y,z
_cell_length_a	6.817900
_cell_length_b	11.353964
_cell_length_c	16.015572
_cell_angle_alpha	88.358030
_cell_angle_beta	104.485554
_cell_angle_gamma	107.526751
loop_
_atom_site_label
_atom_site_type_symbol
_atom_site_fract_x
_atom_site_fract_y
_atom_site_fract_z
V1	V	-4.001620	-0.049215	-0.276797
O2	O	-3.954274	0.125442	-0.245393
O3	O	-3.987296	-0.215956	-0.300039
O4	O	-3.926749	0.005546	-0.386050
O5	O	-4.015241	-0.097594	-0.158787
V6	V	-4.484263	-0.034705	-0.259629
O7	O	-4.264810	-0.081044	-0.314457
O8	O	-4.671271	-0.002876	-0.221968
O9	O	-4.275380	0.132036	-0.236386
O10	O	-4.649006	-0.209362	-0.291032
O11	O	-4.588040	0.013673	-0.377639
O12	O	-4.335928	-0.089466	-0.150375
C13	C	-3.841443	-0.258291	-0.302159
C14	C	-3.910842	-0.394257	-0.321890
C15	C	-3.764208	0.024257	-0.411873
C16	C	-3.784501	0.067927	-0.501353
C17	C	-3.988489	-0.612226	-0.278406
C18	C	-3.916764	-0.471699	-0.258014
C19	C	-4.152350	-0.319686	-0.937299
C20	C	-4.171415	-0.278612	-1.021369
C21	C	-4.050999	-0.066108	-0.964693
C22	C	-4.031913	-0.107164	-0.880616
C23	C	-4.082595	-0.233955	-0.866927
C24	C	-3.962158	-0.021433	-0.810244
C25	C	-3.943085	-0.062487	-0.726174
C26	C	-3.993767	-0.189272	-0.712478
C27	C	-4.063522	-0.275008	-0.782858
C28	C	-3.911491	0.105356	-0.823935
C29	C	-3.841736	0.191088	-0.753563
C30	C	-3.822648	0.150035	-0.669491
C31	C	-3.873330	0.023250	-0.655794
C32	C	-3.752892	0.235771	-0.599111
C33	C	-3.733819	0.194718	-0.515042
C34	C	-3.854257	-0.017804	-0.571725
C35	C	-4.084577	0.174363	-0.234266
C36	C	-3.994416	0.310330	-0.214540
C37	C	-4.161813	-0.108184	-0.124549
C38	C	-4.120757	-0.151848	-0.035067
H39	H	-4.036527	-0.649961	-0.348182
F40	F	-4.206252	-0.454631	-0.922726
H41	H	-4.228212	-0.348434	-1.078668
F42	F	-3.931659	-0.640356	-0.123337
F43	F	-3.908158	-0.152749	-0.557152
F44	F	-3.931809	0.149047	-0.913411
F45	F	-4.117424	-0.409953	-0.768284
F46	F	-3.973627	-0.443562	-0.413099
H47	H	-3.978240	-0.222696	-0.644022
F48	F	-3.854009	-0.422391	-0.166807
F49	F	-3.997068	0.068827	-0.979272
F50	F	-3.787805	0.326023	-0.768142
H51	H	-3.711653	0.339004	-0.610271
F52	F	-3.659647	0.285961	-0.440145
