data_functionalizedCrystal
_audit_creation_method	'MofGen! by Chris Wilmer'
_symmetry_space_group_name_H-M	'P1'
_symmetry_Int_Tables_number	1
_symmetry_cell_setting	triclinic
loop_
_symmetry_equiv_pos_as_xyz
  x,y,z
_cell_length_a	16.992694
_cell_length_b	16.992695
_cell_length_c	15.455313
_cell_angle_alpha	92.847427
_cell_angle_beta	87.142206
_cell_angle_gamma	90.668223
loop_
_atom_site_label
_atom_site_type_symbol
_atom_site_fract_x
_atom_site_fract_y
_atom_site_fract_z
O1	O	1.054080	0.163694	-0.072023
O2	O	0.825681	0.161862	-0.072048
O3	O	0.938965	0.048579	-0.072029
O4	O	0.940797	0.276978	-0.072042
O5	O	0.932485	0.055028	0.072232
O6	O	0.819202	0.168312	0.072213
O7	O	1.047601	0.170144	0.072238
Cu8	Cu	0.932809	0.169817	0.085398
Cu9	Cu	0.940473	0.162189	-0.085207
O10	O	0.934317	0.283428	0.072219
C11	C	0.793081	0.162731	0.000079
C12	C	0.705597	0.155702	0.000070
C13	C	0.659607	0.223520	0.000066
C14	C	0.577405	0.216911	0.000079
C15	C	0.541197	0.142484	0.000088
C16	C	0.587193	0.074661	0.000094
C17	C	0.669393	0.081271	0.000088
C18	C	0.295881	0.115091	0.000113
C19	C	0.213676	0.108486	0.000116
C20	C	0.203893	0.250737	0.000103
C21	C	0.286095	0.257340	0.000091
C22	C	0.332084	0.189517	0.000102
N23	N	0.457174	0.135727	0.000098
N24	N	0.416105	0.196275	0.000098
C25	C	0.933369	0.022443	0.000102
C26	C	0.926341	-0.065041	0.000101
C27	C	0.994158	-0.111032	0.000109
C28	C	0.987550	-0.193233	0.000100
C29	C	0.913123	-0.229442	0.000089
C30	C	0.845300	-0.183445	0.000078
C31	C	0.851910	-0.101246	0.000081
C32	C	0.885729	-0.474757	0.000074
C33	C	0.879124	-0.556962	0.000074
C34	C	1.021375	-0.566744	0.000094
C35	C	1.027977	-0.484543	0.000102
C36	C	0.960155	-0.438554	0.000087
N37	N	0.906366	-0.313464	0.000082
N38	N	0.966913	-0.354533	0.000087
C39	C	1.080201	0.169275	0.000109
C40	C	1.167685	0.176304	0.000113
C41	C	0.939913	0.309563	0.000087
C42	C	0.946942	0.397047	0.000082
N43	N	0.927425	0.175181	0.205392
N44	N	0.945863	0.156819	-0.205202
C45	C	0.975571	0.127074	0.250795
C46	C	0.971507	0.131139	0.341602
C47	C	0.919301	0.183315	0.387005
C48	C	0.871149	0.231424	0.341596
C49	C	0.875210	0.227355	0.250791
C50	C	0.901772	0.200858	0.658584
C51	C	0.897717	0.204926	0.749395
C52	C	0.998074	0.104639	0.749395
C53	C	1.002133	0.100578	0.658588
C54	C	0.953979	0.148684	0.613187
N55	N	0.915147	0.187473	0.479825
N56	N	0.958129	0.144522	0.520369
H57	H	0.557705	0.014061	0.000114
C58	C	1.109850	-0.444716	0.000098
C59	C	1.184451	-0.495305	0.000095
C60	C	1.266324	-0.455478	0.000088
C61	C	1.273596	-0.365063	0.000085
C62	C	1.198992	-0.314469	0.000088
C63	C	1.117119	-0.354295	0.000095
H64	H	1.179070	-0.562241	0.000097
H65	H	1.321550	-0.492932	0.000086
H66	H	1.334203	-0.335581	0.000080
H67	H	1.204373	-0.247533	0.000086
H68	H	1.061893	-0.316842	0.000097
H69	H	0.818513	-0.586440	0.000079
C70	C	1.059556	0.043182	0.608641
C71	C	1.027816	-0.021758	0.546227
C72	C	1.085241	-0.079152	0.496277
C73	C	1.174407	-0.071605	0.508742
C74	C	1.206152	-0.006662	0.571159
C75	C	1.148726	0.050731	0.621109
H76	H	0.961807	-0.027347	0.536997
H77	H	1.061741	-0.127227	0.450072
H78	H	1.216916	-0.114092	0.471767
H79	H	1.272161	-0.001074	0.580389
H80	H	1.172226	0.098806	0.667314
H81	H	1.010711	0.091966	0.378568
H82	H	0.796685	-0.063801	0.000073
H83	H	0.828638	0.273904	0.378569
C84	C	1.051035	0.051719	0.799336
C85	C	1.108458	-0.005674	0.749393
C86	C	1.161420	-0.058600	0.799333
C87	C	1.156958	-0.054133	0.899216
C88	C	1.099532	0.003263	0.949164
C89	C	1.046570	0.056189	0.899224
H90	H	1.111764	-0.008983	0.675449
H91	H	1.203930	-0.101088	0.762358
H92	H	1.196163	-0.093312	0.936184
H93	H	1.096227	0.006572	1.023108
H94	H	1.004060	0.098677	0.936200
H95	H	1.054764	-0.081557	0.000124
H96	H	0.706838	0.026046	0.000090
C97	C	0.811122	-0.424179	0.000072
C98	C	0.754894	-0.434796	-0.074838
C99	C	0.680283	-0.384216	-0.074835
C100	C	0.661898	-0.323019	0.000079
C101	C	0.718128	-0.312399	0.074994
C102	C	0.792739	-0.362980	0.074991
H103	H	0.768502	-0.480100	-0.130298
H104	H	0.638658	-0.392077	-0.130293
H105	H	0.606666	-0.285576	0.000081
H106	H	0.704520	-0.267095	0.130455
H107	H	0.834364	-0.355118	0.130449
C108	C	0.840282	0.262322	0.799337
C109	C	0.787315	0.315233	0.749395
C110	C	0.729884	0.372628	0.799335
C111	C	0.725421	0.377111	0.899217
C112	C	0.778390	0.324197	0.949165
C113	C	0.835820	0.266803	0.899225
H114	H	0.790617	0.311917	0.675451
H115	H	0.690673	0.411798	0.762360
H116	H	0.682908	0.419597	0.936186
H117	H	0.775087	0.327514	1.023110
H118	H	0.875031	0.227632	0.936201
H119	H	1.076591	-0.604197	0.000106
H120	H	0.784700	-0.212933	0.000063
H121	H	0.689081	0.284126	0.000058
H122	H	0.539963	0.272136	0.000075
H123	H	0.315570	0.317946	0.000074
H124	H	0.862564	0.240030	0.621625
H125	H	1.018087	0.084591	0.213834
H126	H	0.166440	0.305954	0.000096
C127	C	0.346459	0.040484	0.000118
C128	C	0.400955	0.028807	0.075029
C129	C	0.451535	-0.045804	0.075034
C130	C	0.447620	-0.108738	0.000126
C131	C	0.393122	-0.097062	-0.074791
C132	C	0.342542	-0.022451	-0.074795
H133	H	0.403855	0.075396	0.130485
H134	H	0.491879	-0.054447	0.130493
H135	H	0.485063	-0.163969	0.000130
H136	H	0.390222	-0.143651	-0.130247
H137	H	0.302198	-0.013808	-0.130254
H138	H	0.184198	0.047876	0.000123
H139	H	1.042774	-0.230675	0.000109
H140	H	0.836004	0.266527	0.213825
