data_functionalizedCrystal
_audit_creation_method	'MofGen! by Chris Wilmer'
_symmetry_space_group_name_H-M	'P1'
_symmetry_Int_Tables_number	1
_symmetry_cell_setting	triclinic
loop_
_symmetry_equiv_pos_as_xyz
  x,y,z
_cell_length_a	10.685901
_cell_length_b	10.686285
_cell_length_c	17.077396
_cell_angle_alpha	85.608118
_cell_angle_beta	94.362478
_cell_angle_gamma	81.630962
loop_
_atom_site_label
_atom_site_type_symbol
_atom_site_fract_x
_atom_site_fract_y
_atom_site_fract_z
Zn1	Zn	1.979321	-0.653888	-0.318046
Zn2	Zn	2.479321	-0.153888	0.181954
Zn3	Zn	1.995513	-0.866148	-0.175903
Zn4	Zn	2.495513	-0.366148	0.324097
Zn5	Zn	1.767072	-0.637681	-0.197718
Zn6	Zn	2.267072	-0.137681	0.302282
Zn7	Zn	1.783353	-0.849829	-0.318052
Zn8	Zn	2.283353	-0.349829	0.181948
O9	O	1.881315	-0.751887	-0.252430
O10	O	2.381315	-0.251887	0.247570
O11	O	2.159086	-0.695657	-0.290059
O12	O	2.659086	-0.195657	0.209941
O13	O	1.965173	-0.835888	-0.068950
O14	O	2.465173	-0.335888	0.431050
O15	O	1.781637	-0.462215	-0.222807
O16	O	2.281637	0.037785	0.277193
O17	O	2.170982	-0.851604	-0.185627
O18	O	2.670982	-0.351604	0.314373
O19	O	1.937576	-0.474122	-0.311211
O20	O	2.437576	0.025878	0.188789
O21	O	1.797338	-0.668035	-0.084977
O22	O	2.297338	-0.168035	0.415023
O23	O	1.591614	-0.652211	-0.222812
O24	O	2.091614	-0.152211	0.277188
O25	O	1.809386	-0.823790	-0.427898
O26	O	2.309386	-0.323790	0.072102
O27	O	1.603576	-0.808075	-0.311221
O28	O	2.103576	-0.308075	0.188779
O29	O	1.953363	-0.679833	-0.427894
O30	O	2.453363	-0.179833	0.072106
O31	O	1.980960	-1.041599	-0.185633
O32	O	2.480960	-0.541599	0.314367
O33	O	1.825087	-1.029609	-0.290068
O34	O	2.325087	-0.529609	0.209932
C35	C	1.551541	-0.726614	-0.269385
C36	C	2.051541	-0.226614	0.230615
C37	C	1.410465	-0.715833	-0.276655
C38	C	1.910465	-0.215833	0.223345
C39	C	1.906582	-1.081661	-0.235499
C40	C	2.406582	-0.581661	0.264501
C41	C	1.917507	-1.222748	-0.228277
C42	C	2.417507	-0.722748	0.271723
C43	C	2.212376	-0.777259	-0.235409
C44	C	2.712376	-0.277259	0.264591
C45	C	2.353455	-0.788071	-0.228156
C46	C	2.853455	-0.288071	0.271844
C47	C	1.881384	-0.751799	-0.457175
C48	C	2.381384	-0.251799	0.042825
C49	C	1.881414	-0.751762	-0.544425
C50	C	2.381414	-0.251762	-0.044425
C51	C	1.855984	-0.420827	-0.269442
C52	C	2.355984	0.079173	0.230558
C53	C	1.845189	-0.279750	-0.276691
C54	C	2.345189	0.220250	0.223309
C55	C	1.956385	-0.676797	-0.585415
C56	C	2.456385	-0.176797	-0.085415
C57	C	1.956397	-0.676756	-0.667396
C58	C	2.456397	-0.176756	-0.167396
C59	C	1.881444	-0.751687	-0.708387
C60	C	2.381444	-0.251687	-0.208387
C61	C	1.806464	-0.826655	-0.667392
C62	C	2.306464	-0.326655	-0.167392
C63	C	1.806446	-0.826688	-0.585412
C64	C	2.306446	-0.326688	-0.085412
C65	C	1.806509	-0.826582	-0.838263
C66	C	2.306509	-0.326582	-0.338263
C67	C	1.806529	-0.826551	-0.920248
C68	C	2.306529	-0.326551	-0.420248
C69	C	1.956461	-0.676650	-0.920248
C70	C	2.456461	-0.176650	-0.420248
C71	C	1.956443	-0.676683	-0.838268
C72	C	2.456443	-0.176683	-0.338268
C73	C	1.881464	-0.751653	-0.797278
C74	C	2.381464	-0.251653	-0.297278
C75	C	1.881311	-0.751888	-0.048482
C76	C	2.381311	-0.251888	0.451518
C77	C	1.881500	-0.751586	0.038762
C78	C	2.381500	-0.251586	0.538762
H79	H	1.351341	-0.645742	-0.323744
H80	H	1.851341	-0.145742	0.176256
Cl81	Cl	1.736692	-1.188454	-0.349221
Cl82	Cl	2.236692	-0.688454	0.150779
Cl83	Cl	2.025995	-1.314049	-0.155735
Cl84	Cl	2.525995	-0.814049	0.344265
Cl85	Cl	2.050625	-0.582598	-0.533891
Cl86	Cl	2.550625	-0.082598	-0.033891
Cl87	Cl	2.050712	-0.582570	-0.718917
Cl88	Cl	2.550712	-0.082570	-0.218917
Cl89	Cl	2.050679	-0.582491	-0.786737
Cl90	Cl	2.550679	-0.082491	-0.286737
Cl91	Cl	1.712247	-0.920830	-0.786735
Cl92	Cl	2.212247	-0.420830	-0.286735
Cl93	Cl	1.712232	-0.920850	-0.718923
Cl94	Cl	2.212232	-0.420850	-0.218923
H95	H	1.412573	-0.858168	-0.181076
H96	H	1.912573	-0.358168	0.318924
H97	H	2.017508	-0.615605	-0.953625
H98	H	2.517508	-0.115605	-0.453625
H99	H	1.745492	-0.887564	-0.953621
H100	H	2.245492	-0.387564	-0.453621
Cl101	Cl	1.712188	-0.920929	-0.533883
Cl102	Cl	2.212188	-0.420929	-0.033883
