data_functionalizedCrystal
_audit_creation_method	'MofGen! by Chris Wilmer'
_symmetry_space_group_name_H-M	'P1'
_symmetry_Int_Tables_number	1
_symmetry_cell_setting	triclinic
loop_
_symmetry_equiv_pos_as_xyz
  x,y,z
_cell_length_a	25.639239
_cell_length_b	18.050591
_cell_length_c	18.050582
_cell_angle_alpha	89.980240
_cell_angle_beta	89.975362
_cell_angle_gamma	90.035133
loop_
_atom_site_label
_atom_site_type_symbol
_atom_site_fract_x
_atom_site_fract_y
_atom_site_fract_z
Zn1	Zn	-0.208234	1.135238	-0.419998
Zn2	Zn	0.125100	1.468572	-0.086664
Zn3	Zn	0.458433	1.801905	0.246669
Zn4	Zn	-0.295661	1.135126	-0.295803
Zn5	Zn	0.037672	1.468460	0.037530
Zn6	Zn	0.371005	1.801793	0.370863
Zn7	Zn	-0.208236	1.011058	-0.295811
Zn8	Zn	0.125097	1.344391	0.037522
Zn9	Zn	0.458430	1.677724	0.370855
Zn10	Zn	-0.295634	1.010983	-0.419941
Zn11	Zn	0.037699	1.344316	-0.086608
Zn12	Zn	0.371032	1.677650	0.246725
O13	O	-0.251941	1.073101	-0.357888
O14	O	0.081392	1.406435	-0.024555
O15	O	0.414725	1.739768	0.308778
O16	O	-0.219841	1.239148	-0.403543
O17	O	0.113492	1.572482	-0.070210
O18	O	0.446826	1.905815	0.263123
O19	O	-0.284077	1.118653	-0.191880
O20	O	0.049257	1.451986	0.141454
O21	O	0.382590	1.785320	0.474787
O22	O	-0.135071	1.027609	-0.312312
O23	O	0.198263	1.360942	0.021021
O24	O	0.531596	1.694275	0.354355
O25	O	-0.284074	1.239066	-0.312298
O26	O	0.049259	1.572399	0.021035
O27	O	0.382593	1.905733	0.354369
O28	O	-0.135069	1.118844	-0.403551
O29	O	0.198265	1.452177	-0.070218
O30	O	0.531598	1.785510	0.263116
O31	O	-0.219846	1.027500	-0.191886
O32	O	0.113487	1.360833	0.141448
O33	O	0.446821	1.694167	0.474781
O34	O	-0.219820	0.907123	-0.312257
O35	O	0.113514	1.240457	0.021076
O36	O	0.446847	1.573790	0.354409
O37	O	-0.284028	1.027481	-0.523873
O38	O	0.049305	1.360815	-0.190540
O39	O	0.382639	1.694148	0.142793
O40	O	-0.284031	0.907068	-0.403455
O41	O	0.049303	1.240402	-0.070122
O42	O	0.382636	1.573735	0.263212
O43	O	-0.219815	1.118771	-0.523915
O44	O	0.113518	1.452105	-0.190582
O45	O	0.446852	1.785438	0.142752
O46	O	-0.368823	1.118580	-0.312243
O47	O	-0.035490	1.451914	0.021090
O48	O	0.297844	1.785247	0.354423
O49	O	-0.368803	1.027373	-0.403447
O50	O	-0.035470	1.360706	-0.070114
O51	O	0.297864	1.694039	0.263220
C52	C	-0.251923	0.880149	-0.357851
C53	C	0.081410	1.213483	-0.024518
C54	C	0.414744	1.546816	0.308815
C55	C	-0.251928	0.797604	-0.357853
C56	C	0.081406	1.130937	-0.024520
C57	C	0.414739	1.464270	0.308814
C58	C	-0.387784	1.072977	-0.357854
C59	C	-0.054451	1.406310	-0.024521
C60	C	0.278883	1.739643	0.308812
C61	C	-0.445898	1.072991	-0.357865
C62	C	-0.112565	1.406324	-0.024531
C63	C	0.220769	1.739658	0.308802
C64	C	-0.216974	0.548786	-0.308377
C65	C	0.116360	0.882120	0.024956
C66	C	0.449693	1.215453	0.358290
C67	C	-0.204244	0.598222	-0.376154
C68	C	0.129089	0.931555	-0.042820
C69	C	0.462423	1.264888	0.290513
C70	C	-0.251954	0.500483	-0.357914
C71	C	0.081379	0.833816	-0.024580
C72	C	0.414712	1.167150	0.308753
C73	C	-0.264646	0.598130	-0.290111
C74	C	0.068687	0.931463	0.043222
C75	C	0.402021	1.264796	0.376556
C76	C	-0.251940	0.646468	-0.357880
C77	C	0.081393	0.979802	-0.024547
C78	C	0.414727	1.313135	0.308786
C79	C	-0.239200	0.548831	-0.425727
C80	C	0.094133	0.882165	-0.092393
C81	C	0.427466	1.215498	0.240940
C82	C	-0.299624	0.548735	-0.339638
C83	C	0.033709	0.882068	-0.006305
C84	C	0.367042	1.215402	0.327029
C85	C	-0.286913	0.598148	-0.407462
C86	C	0.046420	0.931481	-0.074128
C87	C	0.379754	1.264814	0.259205
C88	C	-0.251961	0.416385	-0.357932
C89	C	0.081372	0.749718	-0.024599
C90	C	0.414705	1.083051	0.308735
C91	C	-0.251933	0.730565	-0.357870
C92	C	0.081400	1.063898	-0.024536
C93	C	0.414734	1.397231	0.308797
C94	C	-0.806259	1.120717	-0.310480
C95	C	-0.472925	1.454051	0.022854
C96	C	-0.139592	1.787384	0.356187
C97	C	-0.860863	1.120746	-0.310489
C98	C	-0.527530	1.454079	0.022844
C99	C	-0.194196	1.787413	0.356177
O100	O	-0.889098	1.161195	-0.270164
O101	O	-0.555765	1.494528	0.063170
O102	O	-0.222431	1.827862	0.396503
N103	N	-0.888180	1.073232	-0.357938
N104	N	-0.554847	1.406565	-0.024604
N105	N	-0.221514	1.739899	0.308729
C106	C	-0.860891	1.025691	-0.405384
C107	C	-0.527557	1.359025	-0.072051
C108	C	-0.194224	1.692358	0.261282
O109	O	-0.889140	0.985280	-0.445744
O110	O	-0.555807	1.318613	-0.112411
O111	O	-0.222473	1.651947	0.220923
C112	C	-0.806287	1.025667	-0.405377
C113	C	-0.472954	1.359000	-0.072044
C114	C	-0.139621	1.692334	0.261289
C115	C	-0.778973	1.073179	-0.357921
C116	C	-0.445639	1.406512	-0.024588
C117	C	-0.112306	1.739845	0.308746
C118	C	-0.778944	1.168226	-0.263027
C119	C	-0.445611	1.501559	0.070306
C120	C	-0.112278	1.834892	0.403639
C121	C	-0.724344	1.168196	-0.263017
C122	C	-0.391010	1.501529	0.070317
C123	C	-0.057677	1.834862	0.403650
C124	C	-0.697058	1.120657	-0.310458
C125	C	-0.363724	1.453991	0.022875
C126	C	-0.030391	1.787324	0.356209
C127	C	-0.724372	1.073149	-0.357910
C128	C	-0.391039	1.406482	-0.024577
C129	C	-0.057706	1.739815	0.308756
C130	C	-0.778999	0.978131	-0.452827
C131	C	-0.445665	1.311464	-0.119494
C132	C	-0.112332	1.644797	0.213839
C133	C	-0.724391	0.978111	-0.452817
C134	C	-0.391058	1.311444	-0.119483
C135	C	-0.057725	1.644777	0.213850
C136	C	-0.697077	1.025622	-0.405360
C137	C	-0.363744	1.358956	-0.072027
C138	C	-0.030410	1.692289	0.261306
C139	C	-0.642486	1.025580	-0.405341
C140	C	-0.309152	1.358914	-0.072007
C141	C	0.024181	1.692247	0.261326
N142	N	-0.615168	1.073094	-0.357893
N143	N	-0.281835	1.406428	-0.024559
N144	N	0.051498	1.739761	0.308774
C145	C	-0.642454	1.120633	-0.310451
C146	C	-0.309121	1.453966	0.022882
C147	C	0.024212	1.787299	0.356215
C148	C	-0.975561	1.025747	-0.405396
C149	C	-0.642228	1.359081	-0.072062
C150	C	-0.308895	1.692414	0.261271
C151	C	-1.030164	1.025767	-0.405399
C152	C	-0.696830	1.359101	-0.072066
C153	C	-0.363497	1.692434	0.261267
C154	C	-1.030132	1.120823	-0.310505
C155	C	-0.696799	1.454157	0.022828
C156	C	-0.363466	1.787490	0.356161
C157	C	-0.975529	1.120799	-0.310499
C158	C	-0.642196	1.454132	0.022835
C159	C	-0.308862	1.787465	0.356168
C160	C	-0.948244	1.073261	-0.357948
C161	C	-0.614911	1.406595	-0.024614
C162	C	-0.281577	1.739928	0.308719
C163	C	-0.527789	1.120566	-0.310432
C164	C	-0.194456	1.453899	0.022901
C165	C	0.138877	1.787233	0.356235
C166	C	-0.473184	1.120529	-0.310423
C167	C	-0.139851	1.453863	0.022910
C168	C	0.193483	1.787196	0.356243
C169	C	-0.473220	1.025477	-0.405320
C170	C	-0.139887	1.358810	-0.071986
C171	C	0.193447	1.692144	0.261347
C172	C	-0.527821	1.025510	-0.405326
C173	C	-0.194487	1.358843	-0.071993
C174	C	0.138846	1.692177	0.261341
C175	C	-0.555104	1.073061	-0.357880
C176	C	-0.221771	1.406394	-0.024546
C177	C	0.111563	1.739727	0.308787
O178	O	-0.614216	0.985154	-0.445648
O179	O	-0.280883	1.318487	-0.112315
O180	O	0.052450	1.651821	0.221018
O181	O	-0.614198	1.161044	-0.270105
O182	O	-0.280865	1.494377	0.063228
O183	O	0.052468	1.827711	0.396561
C184	C	-0.115568	1.073247	-0.357939
C185	C	0.217765	1.406580	-0.024605
C186	C	0.551098	1.739914	0.308728
C187	C	-0.057454	1.073309	-0.357960
C188	C	0.275879	1.406642	-0.024627
C189	C	0.609212	1.739976	0.308706
C190	C	-0.251918	1.073131	-0.551594
C191	C	0.081415	1.406464	-0.218261
C192	C	0.414748	1.739797	0.115073
C193	C	-0.251908	1.073143	-0.634140
C194	C	0.081425	1.406476	-0.300807
C195	C	0.414758	1.739810	0.032527
C196	C	-0.251960	1.266807	-0.357926
C197	C	0.081373	1.600140	-0.024593
C198	C	0.414706	1.933474	0.308741
C199	C	-0.251968	1.349353	-0.357942
C200	C	0.081365	1.682686	-0.024609
C201	C	0.414698	2.016019	0.308725
C202	C	-0.286780	1.023537	-0.833568
C203	C	0.046554	1.356871	-0.500235
C204	C	0.379887	1.690204	-0.166901
C205	C	-0.299563	1.091289	-0.882964
C206	C	0.033770	1.424623	-0.549631
C207	C	0.367104	1.757956	-0.216298
C208	C	-0.251868	1.073180	-0.785270
C209	C	0.081465	1.406513	-0.451937
C210	C	0.414798	1.739846	-0.118604
C211	C	-0.239071	1.005465	-0.882956
C212	C	0.094263	1.338798	-0.549622
C213	C	0.427596	1.672132	-0.216289
C214	C	-0.251831	1.073209	-0.931256
C215	C	0.081502	1.406542	-0.597922
C216	C	0.414836	1.739876	-0.264589
C217	C	-0.264677	1.140967	-0.833579
C218	C	0.068657	1.474300	-0.500246
C219	C	0.401990	1.807634	-0.166913
C220	C	-0.204162	1.055097	-0.833566
C221	C	0.129171	1.388430	-0.500233
C222	C	0.462505	1.721764	-0.166900
C223	C	-0.216927	1.122896	-0.882940
C224	C	0.116406	1.456229	-0.549607
C225	C	0.449739	1.789562	-0.216274
C226	C	-0.251891	1.073162	-0.701172
C227	C	0.081442	1.406495	-0.367839
C228	C	0.414775	1.739828	-0.034505
C229	C	-0.251808	1.073235	-1.015352
C230	C	0.081526	1.406568	-0.682019
C231	C	0.414859	1.739901	-0.348685
C232	C	-0.251927	1.073115	-0.164936
C233	C	0.081407	1.406449	0.168397
C234	C	0.414740	1.739782	0.501730
C235	C	-0.251789	1.073247	-0.082391
C236	C	0.081544	1.406580	0.250942
C237	C	0.414877	1.739913	0.584276
H238	H	-0.187375	0.527114	-0.266551
H239	H	0.145958	0.860447	0.066782
H240	H	0.479291	1.193781	0.400115
O241	O	-0.352980	1.111572	-0.911714
O242	O	-0.019647	1.444905	-0.578381
O243	O	0.313687	1.778238	-0.245047
H244	H	-0.352372	1.111919	-0.973198
H245	H	-0.019038	1.445252	-0.639865
H246	H	0.314295	1.778586	-0.306532
O247	O	-0.946075	1.172057	-0.259322
O248	O	-0.612741	1.505390	0.074011
O249	O	-0.279408	1.838723	0.407345
H250	H	-0.921163	1.209806	-0.292601
H251	H	-0.587830	1.543140	0.040732
H252	H	-0.254496	1.876473	0.374065
O253	O	-1.059623	0.974518	-0.456579
O254	O	-0.726289	1.307852	-0.123245
O255	O	-0.392956	1.641185	0.210088
H256	H	-1.031470	0.941463	-0.489566
H257	H	-0.698137	1.274797	-0.156233
H258	H	-0.364803	1.608130	0.177100
O259	O	-0.353014	0.519910	-0.319145
O260	O	-0.019681	0.853243	0.014188
O261	O	0.313653	1.186576	0.347521
H262	H	-0.382120	0.540545	-0.359695
H263	H	-0.048786	0.873878	-0.026361
H264	H	0.284547	1.207211	0.306972
H265	H	-0.187388	1.164937	-0.904482
H266	H	0.145945	1.498271	-0.571148
H267	H	0.479279	1.831604	-0.237815
O268	O	-0.326091	0.626677	-0.462994
O269	O	0.007242	0.960010	-0.129660
O270	O	0.340575	1.293343	0.203673
H271	H	-0.355911	0.660479	-0.433956
H272	H	-0.022577	0.993812	-0.100623
H273	H	0.310756	1.327145	0.232710
H274	H	-0.275386	0.619787	-0.232785
H275	H	0.057947	0.953120	0.100548
H276	H	0.391280	1.286453	0.433882
O277	O	-0.443722	1.171781	-0.259242
O278	O	-0.110389	1.505115	0.074091
O279	O	0.222945	1.838448	0.407425
H280	H	-0.471873	1.204848	-0.226263
H281	H	-0.138539	1.538182	0.107070
H282	H	0.194794	1.871515	0.440403
H283	H	-0.702107	1.206886	-0.224376
H284	H	-0.368774	1.540219	0.108957
H285	H	-0.035441	1.873553	0.442291
O286	O	-0.150840	0.627027	-0.396619
O287	O	0.182493	0.960360	-0.063285
O288	O	0.515826	1.293693	0.270048
H289	H	-0.121877	0.607265	-0.355433
H290	H	0.211456	0.940599	-0.022099
H291	H	0.544789	1.273932	0.311234
O292	O	-0.224904	0.520276	-0.501684
O293	O	0.108430	0.853610	-0.168351
O294	O	0.441763	1.186943	0.164983
H295	H	-0.225001	0.458788	-0.501093
H296	H	0.108333	0.792122	-0.167760
H297	H	0.441666	1.125455	0.165573
H298	H	-0.549997	1.159288	-0.271798
H299	H	-0.216664	1.492621	0.061535
H300	H	0.116670	1.825954	0.394868
H301	H	-0.801155	1.206941	-0.224395
H302	H	-0.467821	1.540275	0.108939
H303	H	-0.134488	1.873608	0.442272
O304	O	-0.325931	0.967979	-0.804843
O305	O	0.007402	1.301312	-0.471510
O306	O	0.340735	1.634645	-0.138177
H307	H	-0.325336	0.968089	-0.743359
H308	H	0.007997	1.301423	-0.410025
H309	H	0.341330	1.634756	-0.076692
O310	O	-0.694966	0.926825	-0.503988
O311	O	-0.361632	1.260159	-0.170655
O312	O	-0.028299	1.593492	0.162679
H313	H	-0.705418	0.939524	-0.562289
H314	H	-0.372085	1.272857	-0.228955
H315	H	-0.038752	1.606190	0.104378
O316	O	-0.278793	1.216962	-0.804981
O317	O	0.054540	1.550296	-0.471648
O318	O	0.387874	1.883629	-0.138315
H319	H	-0.278619	1.216383	-0.743494
H320	H	0.054715	1.549716	-0.410160
H321	H	0.388048	1.883050	-0.076827
H322	H	-1.052358	1.159534	-0.271878
H323	H	-0.719025	1.492868	0.061455
H324	H	-0.385692	1.826201	0.394788
H325	H	-0.953348	0.987030	-0.444032
H326	H	-0.620015	1.320364	-0.110699
H327	H	-0.286682	1.653697	0.222635
H328	H	-0.450995	0.986769	-0.443944
H329	H	-0.117662	1.320103	-0.110610
H330	H	0.215671	1.653436	0.222723
O331	O	-0.224750	0.929595	-0.911683
O332	O	0.108583	1.262928	-0.578350
O333	O	0.441917	1.596261	-0.245017
H334	H	-0.188697	0.933610	-0.945512
H335	H	0.144636	1.266944	-0.612179
H336	H	0.477970	1.600277	-0.278845
O337	O	-0.150766	1.034784	-0.804774
O338	O	0.182567	1.368117	-0.471440
O339	O	0.515901	1.701451	-0.138107
H340	H	-0.140248	0.978508	-0.824505
H341	H	0.193086	1.311841	-0.491172
H342	H	0.526419	1.645174	-0.157839
H343	H	-0.801229	0.939438	-0.491468
H344	H	-0.467895	1.272771	-0.158135
H345	H	-0.134562	1.606104	0.175199
O346	O	-0.557287	0.974266	-0.456507
O347	O	-0.223953	1.307599	-0.123174
O348	O	0.109380	1.640932	0.210160
H349	H	-0.529137	0.941207	-0.489496
H350	H	-0.195804	1.274540	-0.156163
H351	H	0.137530	1.607874	0.177171
