data_functionalizedCrystal
_audit_creation_method	'MofGen! by Chris Wilmer'
_symmetry_space_group_name_H-M	'P1'
_symmetry_Int_Tables_number	1
_symmetry_cell_setting	triclinic
loop_
_symmetry_equiv_pos_as_xyz
  x,y,z
_cell_length_a	31.640172
_cell_length_b	16.704494
_cell_length_c	31.640172
_cell_angle_alpha	123.367777
_cell_angle_beta	89.985254
_cell_angle_gamma	63.425212
loop_
_atom_site_label
_atom_site_type_symbol
_atom_site_fract_x
_atom_site_fract_y
_atom_site_fract_z
Zr1	Zr	0.430975	0.878487	0.079218
Zr2	Zr	0.930975	1.378487	0.579218
O3	O	0.368006	1.045976	0.151257
O4	O	0.868006	1.545976	0.651257
O5	O	0.447132	0.711025	0.053988
O6	O	0.947132	1.211025	0.553988
O7	O	0.451647	0.878504	0.146707
O8	O	0.951647	1.378504	0.646707
O9	O	0.363510	0.878475	-0.011021
O10	O	0.863510	1.378475	0.488979
O11	O	0.521203	0.878487	0.146697
O12	O	1.021203	1.378487	0.646697
O13	O	0.363491	0.878497	0.058538
O14	O	0.863491	1.378497	0.558538
O15	O	0.513127	0.578898	-0.019160
O16	O	1.013127	1.078898	0.480840
O17	O	0.371586	1.178064	0.154836
O18	O	0.871586	1.678064	0.654836
O19	O	0.509733	0.779883	0.047022
O20	O	1.009733	1.279883	0.547022
O21	O	0.457838	0.779878	-0.004882
O22	O	0.957838	1.279878	0.495118
O23	O	0.463154	0.977063	0.104283
O24	O	0.963154	1.477063	0.604283
O25	O	0.411258	0.977059	0.052379
O26	O	0.911258	1.477059	0.552379
Zr27	Zr	0.541939	0.878425	-0.031736
Zr28	Zr	1.041939	1.378425	0.468264
Zr29	Zr	0.541910	0.878461	0.079203
Zr30	Zr	1.041910	1.378461	0.579203
Zr31	Zr	0.431004	0.878452	-0.031721
Zr32	Zr	0.931004	1.378452	0.468279
Zr33	Zr	0.436685	1.089153	0.084926
Zr34	Zr	0.936685	1.589153	0.584926
Zr35	Zr	0.536230	0.667760	-0.037444
Zr36	Zr	1.036230	1.167760	0.462556
O37	O	0.525783	1.045888	-0.006506
O38	O	1.025783	1.545888	0.493494
O39	O	0.525741	1.045938	0.151235
O40	O	1.025741	1.545938	0.651235
O41	O	0.368048	1.045925	-0.006484
O42	O	0.868048	1.545925	0.493516
O43	O	0.604908	0.710937	-0.103774
O44	O	1.104908	1.210937	0.396226
O45	O	0.604866	0.710987	0.053966
O46	O	1.104866	1.210987	0.553966
O47	O	0.447173	0.710974	-0.103752
O48	O	0.947173	1.210974	0.396248
O49	O	0.609405	0.878438	0.058503
O50	O	1.109405	1.378438	0.558503
O51	O	0.521268	0.878409	-0.099225
O52	O	1.021268	1.378409	0.400775
O53	O	0.451711	0.878425	-0.099215
O54	O	0.951711	1.378425	0.400785
O55	O	0.609423	0.878416	-0.011056
O56	O	1.109423	1.378416	0.488944
O57	O	0.459764	1.178043	0.154823
O58	O	0.959764	1.678043	0.654823
O59	O	0.513150	0.578870	-0.107341
O60	O	1.013150	1.078870	0.392659
O61	O	0.601328	0.578849	-0.107353
O62	O	1.101328	1.078849	0.392647
O63	O	0.601305	0.578877	-0.019172
O64	O	1.101305	1.078877	0.480828
O65	O	0.371609	1.178036	0.066654
O66	O	0.871609	1.678036	0.566654
O67	O	0.459788	1.178015	0.066642
O68	O	0.959788	1.678015	0.566642
O69	O	0.509761	0.779849	-0.056800
O70	O	1.009761	1.279849	0.443200
O71	O	0.561656	0.779853	-0.004896
O72	O	1.061656	1.279853	0.495104
O73	O	0.515077	0.977034	0.052364
O74	O	1.015077	1.477034	0.552364
O75	O	0.463181	0.977030	0.000460
O76	O	0.963181	1.477030	0.500460
C77	C	0.479316	0.614946	0.016601
C78	C	0.979316	1.114946	0.516601
C79	C	0.476892	0.525513	0.014178
C80	C	0.976892	1.025513	0.514178
C81	C	0.526529	0.357447	0.063809
C82	C	1.026529	0.857447	0.563809
C83	C	0.524253	0.273417	0.061533
C84	C	1.024253	0.773417	0.561533
C85	C	0.470067	0.273415	0.007348
C86	C	0.970067	0.773415	0.507348
C87	C	0.472343	0.357445	0.009624
C88	C	0.972343	0.857445	0.509624
C89	C	0.500574	0.399460	0.037856
C90	C	1.000574	0.899460	0.537856
C91	C	0.502847	0.483497	0.040134
C92	C	1.002847	0.983497	0.540134
C93	C	0.448665	0.483488	-0.014054
C94	C	0.948665	0.983488	0.485946
C95	C	0.446389	0.399458	-0.016329
C96	C	0.946389	0.899458	0.483671
C97	C	0.347695	0.878489	0.023761
C98	C	0.847695	1.378489	0.523761
C99	C	0.300600	0.878501	0.023767
C100	C	0.800600	1.378501	0.523767
C101	C	0.032907	0.775519	-0.006159
C102	C	0.532907	1.275519	0.493841
C103	C	-0.144079	0.775500	-0.006170
C104	C	0.355921	1.275500	0.493830
O105	O	-0.146286	0.687964	-0.031609
O106	O	0.353714	1.187964	0.468391
N107	N	-0.190523	0.878425	0.023720
N108	N	0.309477	1.378425	0.523720
C109	C	-0.192719	0.981363	0.053612
C110	C	0.307281	1.481363	0.553612
O111	O	-0.236284	1.068907	0.079031
O112	O	0.263716	1.568907	0.579031
C113	C	-0.015734	0.981381	0.053620
C114	C	0.484266	1.481381	0.553620
C115	C	0.030709	0.878449	0.023732
C116	C	0.530709	1.378449	0.523732
C117	C	0.079348	0.672595	-0.036045
C118	C	0.579348	1.172595	0.463955
C119	C	0.123591	0.672601	-0.036039
C120	C	0.623591	1.172601	0.463961
C121	C	0.121394	0.775531	-0.006148
C122	C	0.621394	1.275531	0.493852
C123	C	0.074952	0.878455	0.023737
C124	C	0.574952	1.378455	0.523737
C125	C	-0.017931	1.084318	0.083508
C126	C	0.482069	1.584318	0.583508
C127	C	0.026320	1.084314	0.083507
C128	C	0.526320	1.584314	0.583507
C129	C	0.072763	0.981381	0.053619
C130	C	0.572763	1.481381	0.553619
C131	C	0.116998	0.981391	0.053634
C132	C	0.616998	1.481391	0.553634
N133	N	0.163442	0.878465	0.023744
N134	N	0.663442	1.378465	0.523744
C135	C	0.165640	0.775535	-0.006147
C136	C	0.665640	1.275535	0.493853
C137	C	-0.285637	0.981346	0.053607
C138	C	0.214363	1.481346	0.553607
C139	C	-0.329884	0.981342	0.053606
C140	C	0.170116	1.481342	0.553606
C141	C	-0.281240	0.775478	-0.006177
C142	C	0.218760	1.275478	0.493823
C143	C	-0.236993	0.775483	-0.006172
C144	C	0.263007	1.275483	0.493828
C145	C	-0.239193	0.878420	0.023717
C146	C	0.260807	1.378420	0.523717
C147	C	0.258553	0.775556	-0.006134
C148	C	0.758553	1.275556	0.493866
C149	C	0.302798	0.775571	-0.006124
C150	C	0.802798	1.275571	0.493876
C151	C	0.254150	0.981434	0.053657
C152	C	0.754150	1.481434	0.553657
C153	C	0.209909	0.981420	0.053649
C154	C	0.709909	1.481420	0.553649
C155	C	0.212113	0.878471	0.023750
C156	C	0.712113	1.378471	0.523750
O157	O	0.119244	1.068881	0.079054
O158	O	0.619244	1.568881	0.579054
O159	O	0.209209	0.688004	-0.031572
O160	O	0.709209	1.188004	0.468428
C161	C	-0.011337	0.775513	-0.006164
C162	C	0.488663	1.275513	0.493836
C163	C	-0.057778	0.878437	0.023721
C164	C	0.442222	1.378437	0.523721
C165	C	-0.059976	0.981367	0.053613
C166	C	0.440024	1.481367	0.553613
C167	C	-0.102024	0.878433	0.023720
C168	C	0.397976	1.378433	0.523720
C169	C	-0.099826	0.775503	-0.006171
C170	C	0.400174	1.275503	0.493829
C171	C	-0.053383	0.672577	-0.036061
C172	C	0.446617	1.172577	0.463939
C173	C	-0.009139	0.672583	-0.036055
C174	C	0.490861	1.172583	0.463945
C175	C	-0.106420	1.084293	0.083503
C176	C	0.393580	1.584293	0.583503
C177	C	-0.150661	1.084278	0.083495
C178	C	0.349339	1.584278	0.583495
C179	C	-0.148464	0.981348	0.053604
C180	C	0.351536	1.481348	0.553604
C181	C	0.625220	0.878423	0.023722
C182	C	1.125220	1.378423	0.523722
C183	C	0.672314	0.878412	0.023715
C184	C	1.172314	1.378412	0.523715
C185	C	0.486421	0.878501	0.162509
C186	C	0.986421	1.378501	0.662509
C187	C	0.486408	0.878516	0.209605
C188	C	0.986408	1.378516	0.709605
C189	C	0.493599	1.141966	0.030881
C190	C	0.993599	1.641966	0.530881
C191	C	0.496022	1.231399	0.033305
C192	C	0.996022	1.731399	0.533305
C193	C	0.448129	0.878467	0.545885
C194	C	0.948129	1.378467	1.045885
C195	C	0.448108	0.878494	0.368903
C196	C	0.948108	1.378494	0.868903
O197	O	0.415527	0.878460	0.346014
O198	O	0.915527	1.378460	0.846014
N199	N	0.486426	0.878488	0.346763
N200	N	0.986426	1.378488	0.846763
C201	C	0.524753	0.878469	0.368870
C202	C	1.024753	1.378469	0.868870
O203	O	0.557347	0.878453	0.345974
O204	O	1.057347	1.378453	0.845974
C205	C	0.524776	0.878434	0.545849
C206	C	1.024776	1.378434	1.045849
C207	C	0.486453	0.878451	0.567990
C208	C	0.986453	1.378451	1.067990
C209	C	0.409810	0.878483	0.568026
C210	C	0.909810	1.378483	1.068026
C211	C	0.409814	0.878483	0.612270
C212	C	0.909814	1.378483	1.112270
C213	C	0.448138	0.878467	0.634375
C214	C	0.948138	1.378467	1.134375
C215	C	0.486457	0.878451	0.612234
C216	C	0.986457	1.378451	1.112234
C217	C	0.563105	0.878406	0.567952
C218	C	1.063105	1.378406	1.067952
C219	C	0.563108	0.878395	0.612199
C220	C	1.063108	1.378395	1.112199
C221	C	0.524785	0.878412	0.634340
C222	C	1.024785	1.378412	1.134340
C223	C	0.524785	0.878434	0.678584
C224	C	1.024785	1.378434	1.178584
N225	N	0.486468	0.878440	0.700723
N226	N	0.986468	1.378440	1.200723
C227	C	0.448144	0.878456	0.678619
C228	C	0.948144	1.378456	1.178619
C229	C	0.524738	0.878489	0.275953
C230	C	1.024738	1.378489	0.775953
C231	C	0.524732	0.878500	0.231709
C232	C	1.024732	1.378500	0.731709
C233	C	0.448087	0.878523	0.231745
C234	C	0.948087	1.378523	0.731745
C235	C	0.448092	0.878520	0.275992
C236	C	0.948092	1.378520	0.775992
C237	C	0.486420	0.878494	0.298093
C238	C	0.986420	1.378494	0.798093
C239	C	0.448156	0.878456	0.771536
C240	C	0.948156	1.378456	1.271536
C241	C	0.448162	0.878460	0.815787
C242	C	0.948162	1.378460	1.315787
C243	C	0.524808	0.878431	0.815745
C244	C	1.024808	1.378431	1.315745
C245	C	0.524800	0.878433	0.771501
C246	C	1.024800	1.378433	1.271501
C247	C	0.486472	0.878441	0.749396
C248	C	0.986472	1.378441	1.249396
O249	O	0.557352	0.878455	0.701496
O250	O	1.057352	1.378455	1.201496
O251	O	0.415561	0.878447	0.701515
O252	O	0.915561	1.378447	1.201515
C253	C	0.448125	0.878468	0.501640
C254	C	0.948125	1.378468	1.001640
C255	C	0.486445	0.878452	0.479500
C256	C	0.986445	1.378452	0.979500
C257	C	0.524768	0.878436	0.501605
C258	C	1.024768	1.378436	1.001605
C259	C	0.486439	0.878463	0.435256
C260	C	0.986439	1.378463	0.935256
C261	C	0.448115	0.878479	0.413152
C262	C	0.948115	1.378479	0.913152
C263	C	0.409797	0.878484	0.435291
C264	C	0.909797	1.378484	0.935291
C265	C	0.409802	0.878484	0.479536
C266	C	0.909802	1.378484	0.979536
C267	C	0.563086	0.878430	0.479465
C268	C	1.063086	1.378430	0.979465
C269	C	0.563078	0.878432	0.435220
C270	C	1.063078	1.378432	0.935220
C271	C	0.524755	0.878448	0.413116
C272	C	1.024755	1.378448	0.913116
C273	C	0.486489	0.878424	0.884977
C274	C	0.986489	1.378424	1.384977
C275	C	0.486486	0.878444	0.837891
C276	C	0.986486	1.378444	1.337891
C277	C	0.618078	0.614913	0.016582
C278	C	1.118078	1.114913	0.516582
C279	C	0.662749	0.525469	0.014152
C280	C	1.162749	1.025469	0.514152
C281	C	0.479352	0.614902	-0.122166
C282	C	0.979352	1.114902	0.377834
C283	C	0.476941	0.525454	-0.171686
C284	C	0.976941	1.025454	0.328314
C285	C	0.618115	0.614868	-0.122186
C286	C	1.118115	1.114868	0.377814
C287	C	0.662798	0.525409	-0.171712
C288	C	1.162798	1.025409	0.328288
C289	C	0.354800	1.142044	0.169668
C290	C	0.854800	1.642044	0.669668
C291	C	0.310116	1.231503	0.219194
C292	C	0.810116	1.731503	0.719194
C293	C	0.354836	1.142000	0.030901
C294	C	0.854836	1.642000	0.530901
C295	C	0.310165	1.231444	0.033330
C296	C	0.810165	1.731444	0.533330
C297	C	0.493562	1.142011	0.169649
C298	C	0.993562	1.642011	0.669649
C299	C	0.495974	1.231459	0.219168
C300	C	0.995974	1.731459	0.719168
C301	C	0.656624	0.483480	0.040116
C302	C	1.156624	0.983480	0.540116
C303	C	0.698593	0.399449	0.037844
C304	C	1.198593	0.899449	0.537844
C305	C	0.746687	0.357403	0.009603
C306	C	1.246687	0.857403	0.509603
C307	C	0.752811	0.399400	-0.016362
C308	C	1.252811	0.899400	0.483638
C309	C	0.710843	0.483435	-0.014086
C310	C	1.210843	0.983435	0.485914
C311	C	0.502912	0.483433	-0.222047
C312	C	1.002912	0.983433	0.277953
C313	C	0.500644	0.399399	-0.268580
C314	C	1.000644	0.899399	0.231420
C315	C	0.472409	0.357381	-0.264751
C316	C	0.972409	0.857381	0.235249
C317	C	0.446435	0.399410	-0.214385
C318	C	0.946435	0.899410	0.285615
C319	C	0.448699	0.483449	-0.167853
C320	C	0.948699	0.983449	0.332147
C321	C	0.710875	0.483400	-0.167877
C322	C	1.210875	0.983400	0.332123
C323	C	0.752865	0.399356	-0.214408
C324	C	1.252865	0.899356	0.285592
C325	C	0.746775	0.357315	-0.264773
C326	C	1.246775	0.857315	0.235227
C327	C	0.698693	0.399333	-0.268607
C328	C	1.198693	0.899333	0.231393
C329	C	0.656705	0.483382	-0.222077
C330	C	1.156705	0.983382	0.277923
C331	C	0.262039	1.273522	0.215359
C332	C	0.762039	1.773522	0.715359
C333	C	0.220051	1.357593	0.261891
C334	C	0.720051	1.857593	0.761891
C335	C	0.226140	1.399638	0.312256
C336	C	0.726140	1.899638	0.812256
C337	C	0.274222	1.357615	0.316090
C338	C	0.774222	1.857615	0.816090
C339	C	0.316210	1.273552	0.269560
C340	C	0.816210	1.773552	0.769560
C341	C	0.316291	1.273441	0.007371
C342	C	0.816291	1.773441	0.507371
C343	C	0.274322	1.357495	0.009656
C344	C	0.774322	1.857495	0.509656
C345	C	0.226228	1.399544	0.037898
C346	C	0.726228	1.899544	0.537898
C347	C	0.220104	1.357543	0.063861
C348	C	0.720104	1.857543	0.563861
C349	C	0.262072	1.273497	0.061579
C350	C	0.762072	1.773497	0.561579
C351	C	0.524214	1.273450	0.215323
C352	C	1.024214	1.773450	0.715323
C353	C	0.526489	1.357484	0.261847
C354	C	1.026489	1.857484	0.761847
C355	C	0.500521	1.399533	0.312217
C356	C	1.000521	1.899533	0.812217
C357	C	0.472280	1.357533	0.316062
C358	C	0.972280	1.857533	0.816062
C359	C	0.470008	1.273494	0.269538
C360	C	0.970008	1.773494	0.769538
H361	H	0.549511	0.391664	0.086800
H362	H	1.049511	0.891664	0.586800
H363	H	0.427529	0.517708	-0.035184
H364	H	0.927529	1.017708	0.464816
H365	H	0.252370	1.065237	0.077995
H366	H	0.752370	1.565237	0.577995
H367	H	0.423446	0.365187	-0.211276
H368	H	0.923446	0.865187	0.288724
H369	H	0.525904	0.517634	-0.225174
H370	H	1.025904	1.017634	0.274826
Br371	Br	0.381456	1.216530	0.274774
Br372	Br	0.881456	1.716530	0.774774
H373	H	0.355447	1.239211	-0.015630
H374	H	0.855447	1.739211	0.484370
Br375	Br	0.169276	1.513609	0.040990
Br376	Br	0.669276	2.013609	0.540990
H377	H	0.257077	1.239305	0.082717
H378	H	0.757077	1.739305	0.582717
H379	H	0.780969	0.288877	-0.302657
H380	H	1.280969	0.788877	0.197343
Br381	Br	0.357793	0.878503	0.538034
Br382	Br	0.857793	1.378503	1.038034
Br383	Br	0.503610	1.513589	0.375352
Br384	Br	1.003610	2.013589	0.875352
Br385	Br	0.591458	0.540379	-0.227292
Br386	Br	1.091458	1.040379	0.272708
H387	H	0.447089	0.239180	-0.015644
H388	H	0.947089	0.739180	0.484356
Br389	Br	0.818085	0.342322	-0.054688
Br390	Br	1.318085	0.842322	0.445312
H391	H	0.693742	0.365091	-0.309621
H392	H	1.193742	0.865091	0.190379
Br393	Br	0.282646	1.414476	-0.025584
Br394	Br	0.782646	1.914476	0.474416
H395	H	0.792012	0.365154	-0.211276
H396	H	1.292012	0.865154	0.288724
H397	H	0.693596	0.365265	0.058988
H398	H	1.193596	0.865265	0.558988
H399	H	0.470569	0.288952	-0.302645
H400	H	0.970569	0.788952	0.197355
H401	H	0.521797	0.365188	-0.309585
H402	H	1.021797	0.865188	0.190415
H403	H	0.161404	0.588783	-0.060375
H404	H	0.661404	1.088783	0.439625
H405	H	0.780856	0.288976	0.007754
H406	H	1.280856	0.788976	0.507754
Br407	Br	0.169151	1.513726	0.375401
Br408	Br	0.669151	2.013726	0.875401
Br409	Br	0.154803	1.414604	0.256675
Br410	Br	0.654803	1.914604	0.756675
H411	H	0.423406	0.365235	-0.039317
H412	H	0.923406	0.865235	0.460683
H413	H	0.715837	0.517612	-0.035233
H414	H	1.215837	1.017612	0.464767
H415	H	0.427552	0.517651	-0.126849
H416	H	0.927552	1.017651	0.373151
H417	H	0.545360	1.239227	0.174313
H418	H	1.045360	1.739227	0.674313
H419	H	0.180940	1.391793	0.086855
H420	H	0.680940	1.891793	0.586855
H421	H	0.715843	0.517617	-0.126871
H422	H	1.215843	1.017617	0.373129
H423	H	0.257071	1.239294	0.174353
H424	H	0.757071	1.739294	0.674353
H425	H	0.279175	1.391859	0.357104
H426	H	0.779175	1.891859	0.857104
Br427	Br	0.564817	1.414470	0.256617
Br428	Br	1.064817	1.914470	0.756617
Br429	Br	0.431674	1.216526	0.274767
Br430	Br	0.931674	1.716526	0.774767
Br431	Br	-0.173967	0.635785	-0.046736
Br432	Br	0.326033	1.135785	0.453264
Br433	Br	0.437036	1.414621	0.384426
Br434	Br	0.937036	1.914621	0.884426
H435	H	0.340614	0.691747	-0.030464
H436	H	0.840614	1.191747	0.469536
H437	H	0.028674	0.588765	-0.060394
H438	H	0.528674	1.088765	0.439606
H439	H	0.545388	0.239212	0.082666
H440	H	1.045388	0.739212	0.582666
Br441	Br	0.261551	0.635839	-0.046711
Br442	Br	0.761551	1.135839	0.453289
Br443	Br	0.541157	0.540522	0.078451
Br444	Br	1.041157	1.040522	0.578451
Br445	Br	-0.278266	0.635788	-0.046743
Br446	Br	0.221734	1.135788	0.453257
Br447	Br	0.082344	0.532885	-0.076619
Br448	Br	0.582344	1.032885	0.423381
H449	H	-0.367696	1.065159	0.077950
H450	H	0.132304	1.565159	0.577950
H451	H	-0.287437	1.065174	0.077951
H452	H	0.212563	1.565174	0.577951
H453	H	0.024523	1.168139	0.107840
H454	H	0.524523	1.668139	0.607840
Br455	Br	-0.080952	1.224021	0.124069
Br456	Br	0.419048	1.724021	0.624069
Br457	Br	-0.213689	1.223986	0.124064
Br458	Br	0.286311	1.723986	0.624064
Br459	Br	-0.050409	0.532888	-0.076624
Br460	Br	0.449591	1.032888	0.423376
Br461	Br	0.396148	0.878490	0.845834
Br462	Br	0.896148	1.378490	1.345834
Br463	Br	0.146878	1.121114	0.094224
Br464	Br	0.646878	1.621114	0.594224
H465	H	-0.108217	1.168112	0.107845
H466	H	0.391783	1.668112	0.607845
Br467	Br	0.357805	0.878497	0.642311
Br468	Br	0.857805	1.378497	1.142311
Br469	Br	0.396081	0.878543	0.306035
Br470	Br	0.896081	1.378543	0.806035
Br471	Br	0.396138	0.878467	0.741545
Br472	Br	0.896138	1.378467	1.241545
H473	H	0.555934	0.878503	0.213691
H474	H	1.055934	1.378503	0.713691
Br475	Br	0.396077	0.878545	0.201737
Br476	Br	0.896077	1.378545	0.701737
H477	H	0.555951	0.878469	0.293945
H478	H	1.055951	1.378469	0.793945
Br479	Br	0.615117	0.878382	0.537913
Br480	Br	1.115117	1.378382	1.037913
Br481	Br	0.591359	0.540527	0.078448
Br482	Br	1.091359	1.040527	0.578448
H483	H	0.556002	0.878435	0.753478
H484	H	1.056002	1.378435	1.253478
Br485	Br	0.615130	0.878353	0.642188
Br486	Br	1.115130	1.378353	1.142188
H487	H	0.556009	0.878423	0.833751
H488	H	1.056009	1.378423	1.333751
H489	H	0.378596	0.878498	0.497560
H490	H	0.878596	1.378498	0.997560
H491	H	0.378591	0.878503	0.417288
H492	H	0.878591	1.378503	0.917288
H493	H	0.594285	0.878427	0.417199
H494	H	1.094285	1.378427	0.917199
H495	H	0.594294	0.878415	0.497458
H496	H	1.094294	1.378415	0.997458
