data_functionalizedCrystal
_audit_creation_method	'MofGen! by Chris Wilmer'
_symmetry_space_group_name_H-M	'P1'
_symmetry_Int_Tables_number	1
_symmetry_cell_setting	triclinic
loop_
_symmetry_equiv_pos_as_xyz
  x,y,z
_cell_length_a	13.032831
_cell_length_b	12.827892
_cell_length_c	12.827885
_cell_angle_alpha	90.029786
_cell_angle_beta	82.806703
_cell_angle_gamma	97.179570
loop_
_atom_site_label
_atom_site_type_symbol
_atom_site_fract_x
_atom_site_fract_y
_atom_site_fract_z
Zn1	Zn	1.597738	0.619181	-0.793461
Zn2	Zn	2.097738	1.119181	-0.293461
Zn3	Zn	1.597632	0.793945	-0.618708
Zn4	Zn	2.097632	1.293945	-0.118708
Zn5	Zn	1.422972	0.597005	-0.596572
Zn6	Zn	1.922972	1.097005	-0.096572
Zn7	Zn	1.422957	0.771652	-0.771257
Zn8	Zn	1.922957	1.271652	-0.271257
O9	O	1.510325	0.695446	-0.694999
O10	O	2.010325	1.195446	-0.194999
O11	O	1.743966	0.660974	-0.788836
O12	O	2.243966	1.160974	-0.288836
O13	O	1.574424	0.767869	-0.469530
O14	O	2.074424	1.267869	0.030470
O15	O	1.446205	0.453717	-0.622718
O16	O	1.946205	0.953717	-0.122718
O17	O	1.743888	0.789372	-0.660445
O18	O	2.243888	1.289372	-0.160445
O19	O	1.574605	0.470010	-0.767372
O20	O	2.074605	0.970010	-0.267372
O21	O	1.446102	0.623179	-0.453267
O22	O	1.946102	1.123179	0.046733
O23	O	1.276728	0.601562	-0.601188
O24	O	1.776728	1.101562	-0.101188
O25	O	1.446181	0.751378	-0.920443
O26	O	1.946181	1.251378	-0.420443
O27	O	1.276717	0.729875	-0.729528
O28	O	1.776717	1.229875	-0.229528
O29	O	1.574592	0.639358	-0.936757
O30	O	2.074592	1.139358	-0.436757
O31	O	1.574410	0.937217	-0.638915
O32	O	2.074410	1.437217	-0.138915
O33	O	1.446078	0.920839	-0.750992
O34	O	1.946078	1.420839	-0.250992
C35	C	1.238803	0.660894	-0.660547
C36	C	1.738803	1.160894	-0.160547
C37	C	1.122645	0.646138	-0.645833
C38	C	1.622645	1.146138	-0.145833
C39	C	1.510397	0.695355	-0.967579
C40	C	2.010397	1.195355	-0.467579
C41	C	1.510427	0.695316	-1.083736
C42	C	2.010427	1.195316	-0.583736
C43	C	1.510259	0.966947	-0.694973
C44	C	2.010259	1.466947	-0.194973
C45	C	1.510327	1.083109	-0.695008
C46	C	2.010327	1.583109	-0.195008
C47	C	1.070881	0.703147	-0.702679
C48	C	1.570881	1.203147	-0.202679
C49	C	0.950826	0.687897	-0.687472
C50	C	1.450826	1.187897	-0.187472
C51	C	1.782906	0.730133	-0.729587
C52	C	2.282906	1.230133	-0.229587
C53	C	1.899064	0.744915	-0.744326
C54	C	2.399064	1.244915	-0.244326
C55	C	1.510419	0.422888	-0.695053
C56	C	2.010419	0.922888	-0.195053
C57	C	1.510459	0.306740	-0.695075
C58	C	2.010459	0.806740	-0.195075
C59	C	1.573905	1.142973	-0.639629
C60	C	2.073905	1.642973	-0.139629
C61	C	1.573977	1.263033	-0.639665
C62	C	2.073977	1.763033	-0.139665
C63	C	1.446950	0.623708	-1.127476
C64	C	1.946950	1.123708	-0.627476
C65	C	1.446980	0.623667	-1.247530
C66	C	1.946980	1.123667	-0.747530
C67	C	1.510313	0.695469	-0.423488
C68	C	2.010313	1.195469	0.076512
C69	C	1.510485	0.695239	-0.307357
C70	C	2.010485	1.195239	0.192643
H71	H	0.906267	0.627791	-0.627548
H72	H	1.406267	1.127791	-0.127548
H73	H	0.943622	0.805011	-0.804261
H74	H	1.443622	1.305011	-0.304261
O75	O	1.374927	0.542538	-1.059359
O76	O	1.874927	1.042538	-0.559359
H77	H	1.392863	0.462779	-1.082542
H78	H	1.892863	0.962779	-0.582542
H79	H	1.455952	1.120741	-0.742451
H80	H	1.955952	1.620741	-0.242451
H81	H	1.078082	0.586036	-0.585913
H82	H	1.578082	1.086036	-0.085913
H83	H	1.628405	1.314483	-0.592249
H84	H	2.128405	1.814483	-0.092249
O85	O	1.375000	0.542441	-1.297384
O86	O	1.875000	1.042441	-0.797384
H87	H	1.386322	0.555152	-1.383855
H88	H	1.886322	1.055152	-0.883855
O89	O	1.582487	0.776455	-1.257517
O90	O	2.082487	1.276455	-0.757517
H91	H	1.535641	0.823643	-1.201841
H92	H	2.035641	1.323643	-0.701841
O93	O	1.129894	0.782733	-0.782086
O94	O	1.629894	1.282733	-0.282086
H95	H	1.214930	0.782213	-0.781577
H96	H	1.714930	1.282213	-0.281577
O97	O	1.645965	1.093145	-0.576810
O98	O	2.145965	1.593145	-0.076810
H99	H	1.634607	1.006666	-0.586648
H100	H	2.134607	1.506666	-0.086648
O101	O	1.438342	1.238611	-0.757884
O102	O	1.938342	1.738611	-0.257884
H103	H	1.485096	1.194754	-0.816975
H104	H	1.985096	1.694754	-0.316975
O105	O	1.582448	0.776495	-1.151844
O106	O	2.082448	1.276495	-0.651844
H107	H	1.635611	0.736429	-1.208320
H108	H	2.135611	1.236429	-0.708320
