data_functionalizedCrystal
_audit_creation_method	'MofGen! by Chris Wilmer'
_symmetry_space_group_name_H-M	'P1'
_symmetry_Int_Tables_number	1
_symmetry_cell_setting	triclinic
loop_
_symmetry_equiv_pos_as_xyz
  x,y,z
_cell_length_a	6.817900
_cell_length_b	17.110486
_cell_length_c	10.992421
_cell_angle_alpha	95.147452
_cell_angle_beta	108.764763
_cell_angle_gamma	99.060439
loop_
_atom_site_label
_atom_site_type_symbol
_atom_site_fract_x
_atom_site_fract_y
_atom_site_fract_z
V1	V	-4.003796	-0.246709	-0.177378
O2	O	-3.964021	-0.242024	0.008917
O3	O	-3.982135	-0.245011	-0.352090
O4	O	-3.933214	-0.354313	-0.174477
O5	O	-4.013281	-0.131966	-0.169925
V6	V	-4.486833	-0.232986	-0.155115
O7	O	-4.266119	-0.276811	-0.226213
O8	O	-4.674707	-0.202884	-0.106280
O9	O	-4.285288	-0.234684	0.019596
O10	O	-4.644005	-0.237671	-0.341411
O11	O	-4.594745	-0.347729	-0.162569
O12	O	-4.334209	-0.125383	-0.158017
C13	C	-3.834358	-0.241116	-0.394686
C14	C	-3.897787	-0.240445	-0.537514
C15	C	-3.767873	-0.235034	-0.732809
C16	C	-3.701620	-0.235418	-0.584164
C17	C	-4.001433	-0.166652	-0.576264
C18	C	-4.066019	-0.165870	-0.724808
C19	C	-4.129800	-0.317142	-0.763155
C20	C	-4.060029	-0.318743	-0.614639
C21	C	-3.771953	-0.380540	-0.168122
C22	C	-3.795705	-0.468506	-0.166906
C23	C	-3.989132	-0.513864	-0.172747
C24	C	-4.011437	-0.596517	-0.171603
C25	C	-3.840317	-0.633812	-0.164628
C26	C	-3.646873	-0.588448	-0.158783
C27	C	-3.624566	-0.505796	-0.159917
C28	C	-3.898547	-0.883168	-0.160874
C29	C	-3.920872	-0.965827	-0.159745
C30	C	-4.285434	-0.973889	-0.172563
C31	C	-4.263113	-0.891236	-0.173704
C32	C	-4.069669	-0.845878	-0.167852
C33	C	-3.863114	-0.718298	-0.163463
C34	C	-4.046870	-0.761394	-0.169008
C35	C	-4.096408	-0.238577	0.062186
C36	C	-4.012217	-0.239253	0.205012
C37	C	-4.158813	-0.099151	-0.164376
C38	C	-4.114299	-0.011184	-0.165586
H39	H	-4.307917	-0.321010	-0.804266
H40	H	-4.402461	-0.860876	-0.179383
H41	H	-3.886796	-0.108686	-0.522116
Br42	Br	-4.359798	-0.165678	-0.792958
Br43	Br	-3.495748	-0.141720	-0.496890
H44	H	-4.442929	-1.010828	-0.177325
H45	H	-3.677228	-0.178863	-0.753456
Br46	Br	-4.279094	-0.710777	-0.178469
H47	H	-4.128485	-0.483505	-0.178435
Br48	Br	-4.303538	-0.332482	-0.564277
Br49	Br	-3.688623	-1.016442	-0.150282
H50	H	-4.168939	-0.633443	-0.176352
Br51	Br	-3.636035	-0.821625	-0.152967
H52	H	-3.507542	-0.618820	-0.153096
H53	H	-3.620890	-0.288146	-0.558318
Br54	Br	-3.362039	-0.444236	-0.151971
H55	H	-3.718591	-0.287435	-0.779149
H56	H	-3.981449	-0.107280	-0.742413
H57	H	-4.098463	-0.372979	-0.812585
Br58	Br	-4.243531	-0.168064	-0.525871
Br59	Br	-3.937619	-0.409743	-0.574689
H60	H	-3.723794	-0.748673	-0.157789
