data_functionalizedCrystal
_audit_creation_method	'MofGen! by Chris Wilmer'
_symmetry_space_group_name_H-M	'P1'
_symmetry_Int_Tables_number	1
_symmetry_cell_setting	triclinic
loop_
_symmetry_equiv_pos_as_xyz
  x,y,z
_cell_length_a	19.188905
_cell_length_b	23.532407
_cell_length_c	22.610064
_cell_angle_alpha	90.000603
_cell_angle_beta	90.015326
_cell_angle_gamma	82.991616
loop_
_atom_site_label
_atom_site_type_symbol
_atom_site_fract_x
_atom_site_fract_y
_atom_site_fract_z
O1	O	0.925934	0.071025	0.049288
O2	O	0.722590	0.080612	0.049269
O3	O	0.830394	-0.007101	0.049268
O4	O	0.818130	0.158738	0.049289
O5	O	0.830375	-0.007088	-0.049101
O6	O	0.722571	0.080625	-0.049101
O7	O	0.925915	0.071038	-0.049081
Zn8	Zn	0.824240	0.075833	-0.064709
Zn9	Zn	0.824265	0.075817	0.064896
O10	O	0.818111	0.158750	-0.049081
C11	C	0.696570	0.080310	0.000081
C12	C	0.619067	0.079385	0.000073
C13	C	0.830072	-0.028311	0.000082
C14	C	0.829133	-0.091530	0.000077
C15	C	0.582687	0.078934	0.053696
C16	C	0.509867	0.078059	0.053703
C17	C	0.473430	0.077623	0.000085
C18	C	0.509819	0.078078	-0.053545
C19	C	0.582637	0.078959	-0.053550
N20	N	0.364510	0.043836	-0.039822
N21	N	0.295336	0.042998	-0.039813
C22	C	0.254032	0.074970	0.000099
N23	N	0.284517	0.107805	0.040010
N24	N	0.353698	0.108641	0.040003
C25	C	0.394471	0.076668	0.000085
C26	C	0.138691	0.073571	0.053733
C27	C	0.065869	0.072699	0.053738
C28	C	0.065823	0.072712	-0.053512
C29	C	0.138644	0.073590	-0.053515
C30	C	0.175074	0.074016	0.000109
C31	C	0.887040	-0.490514	0.000115
C32	C	0.886168	-0.549916	0.000120
O33	O	0.939848	-0.586551	0.000147
N34	N	0.822078	-0.572674	0.000113
C35	C	0.758857	-0.536026	0.000108
O36	O	0.704264	-0.560837	0.000104
C37	C	0.759730	-0.476625	0.000108
C38	C	0.823824	-0.453871	0.000108
C39	C	0.951129	-0.467760	0.000116
C40	C	0.952000	-0.408362	0.000111
C41	C	0.888784	-0.371718	0.000104
C42	C	0.824696	-0.394473	0.000103
C43	C	0.696509	-0.439978	0.000107
C44	C	0.697388	-0.380574	0.000108
C45	C	0.761482	-0.357820	0.000108
C46	C	0.762351	-0.298432	0.000091
N47	N	0.826440	-0.275674	0.000097
C48	C	0.889657	-0.312317	0.000104
C49	C	0.757029	-0.660772	0.000110
C50	C	0.756155	-0.720172	0.000105
C51	C	0.883466	-0.734058	0.000118
C52	C	0.884339	-0.674657	0.000118
C53	C	0.821118	-0.638014	0.000116
C54	C	0.891483	-0.187577	0.000092
C55	C	0.892350	-0.128173	0.000084
C56	C	0.765039	-0.114292	0.000074
C57	C	0.764172	-0.173691	0.000079
C58	C	0.827400	-0.210332	0.000090
O59	O	0.708699	-0.261762	0.000066
O60	O	0.944241	-0.287498	0.000116
C61	C	0.951935	0.071340	0.000107
C62	C	1.029437	0.072265	0.000119
C63	C	0.818433	0.179961	0.000107
C64	C	0.819372	0.243180	0.000115
N65	N	0.824228	0.075845	-0.153162
C66	C	0.872003	0.036983	-0.561803
C67	C	0.872006	0.036979	-0.623723
O68	O	0.912596	0.003947	-0.655742
N69	N	0.824264	0.075805	-0.654699
C70	C	0.776511	0.114633	-0.623751
O71	O	0.735903	0.147656	-0.655784
C72	C	0.776505	0.114634	-0.561832
C73	C	0.824255	0.075810	-0.530860
C74	C	0.919748	-0.001838	-0.530831
C75	C	0.919745	-0.001833	-0.468915
C76	C	0.871997	0.036993	-0.437972
C77	C	0.824252	0.075815	-0.468944
C78	C	0.728749	0.153459	-0.530886
C79	C	0.728746	0.153456	-0.468963
C80	C	0.776496	0.114632	-0.437991
C81	C	0.776501	0.114646	-0.376086
N82	N	0.824242	0.075821	-0.345110
C83	C	0.871991	0.036994	-0.376053
C84	C	0.776527	0.114627	-0.753785
C85	C	0.776537	0.114629	-0.815702
C86	C	0.872031	0.036975	-0.815670
C87	C	0.872025	0.036976	-0.753751
C88	C	0.824269	0.075802	-0.722809
C89	C	0.871981	0.037008	-0.246026
C90	C	0.871976	0.037018	-0.184105
C91	C	0.776480	0.114670	-0.184143
C92	C	0.776487	0.114663	-0.246058
C93	C	0.824240	0.075827	-0.276998
O94	O	0.735929	0.147660	-0.344027
O95	O	0.912586	0.003972	-0.344013
N96	N	0.824283	0.075801	0.153349
H97	H	0.612344	0.079282	0.097361
H98	H	0.645904	-0.350741	0.000107
N99	N	0.026631	0.072211	0.111579
H100	H	0.002330	0.036550	0.113962
H101	H	-0.009455	0.107166	0.113946
H102	H	0.958625	-0.033448	-0.443701
H103	H	0.737641	0.146249	-0.728595
H104	H	0.480147	0.077725	-0.097201
N105	N	0.677235	0.195326	-0.564280
H106	H	0.684977	0.235733	-0.553501
H107	H	0.627760	0.188804	-0.553492
N108	N	0.687029	-0.744714	0.000101
H109	H	0.683820	-0.769052	-0.036363
H110	H	0.647155	-0.712454	0.000118
H111	H	0.944544	-0.109650	0.000083
N112	N	0.923491	-0.004872	-0.279393
H113	H	0.915739	-0.045277	-0.268614
H114	H	0.972968	0.001642	-0.268585
N115	N	0.688831	-0.621258	0.000092
H116	H	0.686348	-0.596306	-0.036376
H117	H	0.686390	-0.596337	0.036580
H118	H	0.644318	-0.458493	0.000110
N119	N	0.470621	0.077561	0.111542
H120	H	0.418963	0.076935	0.103407
H121	H	0.477441	0.113005	0.134970
N122	N	1.021130	-0.383824	0.000114
H123	H	1.061039	-0.416058	0.000120
H124	H	1.024275	-0.359481	0.036580
N125	N	0.695045	-0.198237	0.000071
H126	H	0.655131	-0.166008	0.000063
H127	H	0.691918	-0.222574	0.036542
N128	N	1.019318	-0.507277	0.000123
H129	H	1.060043	-0.483839	0.000123
H130	H	1.021723	-0.532222	-0.036345
N131	N	0.959681	-0.227087	0.000096
H132	H	0.962150	-0.252043	-0.036369
H133	H	0.962136	-0.252005	0.036586
H134	H	0.713570	-0.084446	0.000067
H135	H	0.036157	0.072361	-0.097169
H136	H	0.689856	0.185072	-0.443773
N137	N	0.971263	-0.043709	-0.564199
H138	H	1.001507	-0.068295	-0.535174
H139	H	1.001976	-0.021961	-0.589872
H140	H	0.910862	0.005403	-0.158889
N141	N	0.953467	-0.650117	0.000118
H142	H	0.993378	-0.682349	0.000121
H143	H	0.956614	-0.625776	0.036585
N144	N	0.724977	0.156540	-0.150760
H145	H	0.694726	0.181135	-0.179773
H146	H	0.751524	0.181664	-0.125061
H147	H	0.737612	0.146282	-0.271276
H148	H	0.612257	0.079327	-0.097218
H149	H	0.910906	0.005362	-0.728537
N150	N	0.177990	0.074034	0.111566
H151	H	0.143890	0.073620	0.145538
H152	H	0.202294	0.109695	0.113903
N153	N	0.923536	-0.004903	-0.849049
H154	H	0.897036	-0.030066	-0.874746
H155	H	0.953769	-0.029458	-0.819995
N156	N	0.177888	0.074076	-0.111351
H157	H	0.143758	0.073668	-0.145318
H158	H	0.214014	0.039145	-0.113695
N159	N	0.951652	-0.773587	0.000125
H160	H	0.941368	-0.814668	0.000127
H161	H	0.979609	-0.766238	0.036595
N162	N	0.725039	0.156507	-0.849105
H163	H	0.694792	0.181101	-0.820101
H164	H	0.694327	0.134764	-0.874800
