data_functionalizedCrystal
_audit_creation_method	'MofGen! by Chris Wilmer'
_symmetry_space_group_name_H-M	'P1'
_symmetry_Int_Tables_number	1
_symmetry_cell_setting	triclinic
loop_
_symmetry_equiv_pos_as_xyz
  x,y,z
_cell_length_a	16.109302
_cell_length_b	15.995292
_cell_length_c	15.186229
_cell_angle_alpha	89.999448
_cell_angle_beta	89.994701
_cell_angle_gamma	83.465199
loop_
_atom_site_label
_atom_site_type_symbol
_atom_site_fract_x
_atom_site_fract_y
_atom_site_fract_z
O1	O	1.103137	0.107630	-0.073262
O2	O	1.603137	0.607630	0.426738
O3	O	0.861076	0.121023	-0.073254
O4	O	1.361076	0.621023	0.426746
O5	O	0.988748	-0.007566	-0.073259
O6	O	1.488748	0.492434	0.426741
O7	O	0.975464	0.236219	-0.073256
O8	O	1.475464	0.736219	0.426744
O9	O	0.988740	-0.007568	0.073198
O10	O	1.488740	0.492432	0.573198
O11	O	0.861067	0.121021	0.073203
O12	O	1.361067	0.621021	0.573203
O13	O	1.103128	0.107628	0.073195
O14	O	1.603128	0.607628	0.573195
Zn15	Zn	0.982097	0.114325	0.096453
Zn16	Zn	1.482097	0.614325	0.596453
Zn17	Zn	0.982108	0.114327	-0.096511
Zn18	Zn	1.482108	0.614327	0.403489
O19	O	0.975456	0.236218	0.073201
O20	O	1.475456	0.736218	0.573201
C21	C	0.830097	0.120480	-0.000025
C22	C	1.330097	0.620480	0.499975
C23	C	0.737801	0.118853	-0.000022
C24	C	1.237801	0.618853	0.499978
C25	C	0.525456	0.115090	0.079803
C26	C	1.025456	0.615090	0.579803
C27	C	0.438735	0.113553	0.079800
C28	C	0.938735	0.613553	0.579800
C29	C	0.438755	0.113559	-0.079876
C30	C	0.938755	0.613559	0.420124
C31	C	0.525474	0.115090	-0.079872
C32	C	1.025474	0.615090	0.420128
C33	C	0.568822	0.115860	-0.000030
C34	C	1.068822	0.615860	0.499970
C35	C	0.395382	0.112791	-0.000037
C36	C	0.895382	0.612791	0.499963
C37	C	0.301357	0.111124	-0.000041
C38	C	0.801357	0.611124	0.499959
C39	C	0.662854	0.117526	-0.000025
C40	C	1.162854	0.617526	0.499975
C41	C	0.988204	-0.038763	-0.000033
C42	C	1.488204	0.461237	0.499967
C43	C	0.986583	-0.131715	-0.000040
C44	C	1.486583	0.368285	0.499960
C45	C	0.980624	-0.469452	-0.000031
C46	C	1.480624	0.030548	0.499969
C47	C	1.072774	-0.446164	0.000293
C48	C	1.572774	0.053836	0.500293
C49	C	1.074526	-0.349489	-0.000040
C50	C	1.574526	0.150511	0.499960
C51	C	0.983581	-0.301897	-0.000035
C52	C	1.483581	0.198103	0.499965
C53	C	0.937514	-0.330984	-0.083665
C54	C	1.437514	0.169016	0.416335
C55	C	0.936405	-0.427774	-0.083732
C56	C	1.436405	0.072226	0.416268
C57	C	0.934514	-0.427633	0.082818
C58	C	1.434514	0.072367	0.582818
C59	C	0.937929	-0.331142	0.083920
C60	C	1.437929	0.168858	0.583920
C61	C	0.985247	-0.207201	-0.000040
C62	C	1.485247	0.292799	0.499960
C63	C	0.978955	-0.564147	-0.000032
C64	C	1.478955	-0.064147	0.499968
C65	C	1.134108	0.108172	-0.000036
C66	C	1.634108	0.608172	0.499964
C67	C	1.226403	0.109799	-0.000044
C68	C	1.726403	0.609799	0.499956
C69	C	0.976001	0.267414	-0.000027
C70	C	1.476001	0.767414	0.499973
C71	C	0.977622	0.360366	-0.000027
C72	C	1.477622	0.860366	0.499973
N73	N	0.982095	0.114322	0.228145
N74	N	1.482095	0.614322	0.728145
N75	N	0.982116	0.114322	-0.228204
N76	N	1.482116	0.614322	0.271796
C77	C	1.038648	0.057402	0.453866
C78	C	1.538648	0.557402	0.953866
C79	C	1.038650	0.057400	0.546055
C80	C	1.538650	0.557400	1.046055
C81	C	0.925557	0.171245	0.546069
C82	C	1.425557	0.671245	1.046069
C83	C	0.925551	0.171243	0.453881
C84	C	1.425551	0.671243	0.953881
C85	C	0.982101	0.114322	0.407782
C86	C	1.482101	0.614322	0.907782
C87	C	0.982110	0.114323	0.592160
C88	C	1.482110	0.614323	1.092160
C89	C	0.982112	0.114321	0.692116
C90	C	1.482112	0.614321	1.192116
C91	C	0.982098	0.114322	0.307819
C92	C	1.482098	0.614322	0.807819
H93	H	0.403451	0.112933	-0.144880
H94	H	0.903451	0.612933	0.355120
O95	O	1.119575	-0.484601	-0.078709
O96	O	1.619575	0.015399	0.421291
H97	H	1.077487	-0.520217	-0.118205
H98	H	1.577487	-0.020217	0.381795
O99	O	1.122593	-0.325115	-0.079600
O100	O	1.622593	0.174885	0.420400
H101	H	1.187417	-0.357049	-0.076695
H102	H	1.687417	0.142951	0.423305
O103	O	1.099628	-0.003997	0.404140
O104	O	1.599628	0.496003	0.904140
H105	H	1.138941	-0.043583	0.451677
H106	H	1.638941	0.456417	0.951677
H107	H	0.560785	0.115715	-0.144885
H108	H	1.060785	0.615715	0.355115
O109	O	1.099649	-0.003981	0.595764
O110	O	1.599649	0.496019	1.095764
H111	H	1.138975	-0.043552	0.548217
H112	H	1.638975	0.456448	1.048217
O113	O	0.864575	0.232647	0.595789
O114	O	1.364575	0.732647	1.095789
H115	H	0.874085	0.223095	0.667636
H116	H	1.374085	0.723095	1.167636
H117	H	0.879500	0.217594	0.416357
H118	H	1.379500	0.717594	0.916357
H119	H	0.968316	-0.454599	-0.146251
H120	H	1.468316	0.045401	0.353749
H121	H	1.110604	-0.330475	0.059907
H122	H	1.610604	0.169525	0.559907
H123	H	0.868840	-0.442306	-0.087517
H124	H	1.368840	0.057694	0.412483
O125	O	0.572213	0.115922	0.165913
O126	O	1.072213	0.615922	0.665913
H127	H	0.527485	0.115124	0.221425
H128	H	1.027485	0.615124	0.721425
H129	H	0.870591	-0.299098	-0.086770
H130	H	1.370591	0.200902	0.413230
O131	O	0.391957	0.112730	0.165905
O132	O	0.891957	0.612730	0.665905
H133	H	0.436671	0.113530	0.221420
H134	H	0.936671	0.613530	0.721420
O135	O	1.119810	-0.483246	0.079751
O136	O	1.619810	0.016754	0.579751
H137	H	1.121423	-0.552793	0.078418
H138	H	1.621423	-0.052793	0.578418
O139	O	0.980101	-0.304737	-0.166116
O140	O	1.480101	0.195263	0.333884
H141	H	1.034040	-0.270946	-0.147743
H142	H	1.534040	0.229054	0.352257
O143	O	0.972746	-0.465062	0.166789
O144	O	1.472746	0.034938	0.666789
H145	H	1.025045	-0.513894	0.150406
H146	H	1.525045	-0.013894	0.650406
O147	O	0.982346	-0.306557	0.165880
O148	O	1.482346	0.193443	0.665880
H149	H	1.036708	-0.273642	0.146911
H150	H	1.536708	0.226358	0.646911
O151	O	0.850006	-0.287427	0.090625
O152	O	1.350006	0.212573	0.590625
H153	H	0.813930	-0.302331	0.031517
H154	H	1.313930	0.197669	0.531517
O155	O	0.844668	-0.446148	0.083587
O156	O	1.344668	0.053852	0.583587
H157	H	0.832871	-0.484940	0.025283
H158	H	1.332871	0.015060	0.525283
