data_functionalizedCrystal
_audit_creation_method	'MofGen! by Chris Wilmer'
_symmetry_space_group_name_H-M	'P1'
_symmetry_Int_Tables_number	1
_symmetry_cell_setting	triclinic
loop_
_symmetry_equiv_pos_as_xyz
  x,y,z
_cell_length_a	19.805407
_cell_length_b	15.297327
_cell_length_c	15.298151
_cell_angle_alpha	91.639917
_cell_angle_beta	80.331334
_cell_angle_gamma	99.707092
loop_
_atom_site_label
_atom_site_type_symbol
_atom_site_fract_x
_atom_site_fract_y
_atom_site_fract_z
Zn1	Zn	0.928377	-0.263152	0.555633
Zn2	Zn	1.428377	0.236848	1.055633
Zn3	Zn	0.921723	-0.434960	0.434488
Zn4	Zn	1.421723	0.065040	0.934488
Zn5	Zn	0.830931	-0.288492	0.409169
Zn6	Zn	1.330931	0.211508	0.909169
Zn7	Zn	0.792855	-0.409604	0.580911
Zn8	Zn	1.292855	0.090396	1.080911
O9	O	0.868471	-0.349052	0.495050
O10	O	1.368471	0.150948	0.995050
O11	O	1.022208	-0.285949	0.539580
O12	O	1.522208	0.214051	1.039580
O13	O	0.922830	-0.436747	0.308556
O14	O	1.422830	0.063253	0.808556
O15	O	0.862576	-0.162542	0.407422
O16	O	1.362576	0.337458	0.907422
O17	O	1.017319	-0.412176	0.450575
O18	O	1.517319	0.087824	0.950575
O19	O	0.934170	-0.143925	0.515029
O20	O	1.434170	0.356075	1.015029
O21	O	0.856125	-0.329138	0.289954
O22	O	1.356125	0.170862	0.789954
O23	O	0.731166	-0.304551	0.431934
O24	O	1.231166	0.195449	0.931934
O25	O	0.797682	-0.368960	0.700132
O26	O	1.297682	0.131040	1.200132
O27	O	0.703192	-0.393531	0.558112
O28	O	1.203192	0.106469	1.058112
O29	O	0.897249	-0.261362	0.681560
O30	O	1.397249	0.238638	1.181560
O31	O	0.885910	-0.554184	0.475087
O32	O	1.385910	-0.054184	0.975087
O33	O	0.791231	-0.535555	0.582663
O34	O	1.291231	-0.035555	1.082663
C35	C	0.692621	-0.349040	0.495019
C36	C	1.192621	0.150960	0.995019
C37	C	0.617386	-0.349052	0.495030
C38	C	1.117386	0.150948	0.995030
C39	C	0.833733	-0.576652	0.534384
C40	C	1.333733	-0.076652	1.034384
C41	C	0.818930	-0.674016	0.551241
C42	C	1.318930	-0.174016	1.051241
C43	C	0.567490	-0.395484	0.560655
C44	C	1.067490	0.104516	1.060655
C45	C	0.496800	-0.395484	0.560667
C46	C	0.996800	0.104516	1.060667
C47	C	0.476007	-0.349056	0.495051
C48	C	0.976007	0.150944	0.995051
C49	C	0.525909	-0.302618	0.429422
C50	C	1.025909	0.197382	0.929422
C51	C	0.596598	-0.302614	0.429414
C52	C	1.096598	0.197386	0.929414
C53	C	0.240830	-0.302632	0.429455
C54	C	0.740830	0.197368	0.929455
C55	C	0.170135	-0.302642	0.429466
C56	C	0.670135	0.197358	0.929466
C57	C	0.141032	-0.395502	0.560708
C58	C	0.641032	0.104498	1.060708
C59	C	0.211721	-0.395498	0.560700
C60	C	0.711721	0.104502	1.060700
C61	C	0.261617	-0.349057	0.495075
C62	C	0.761617	0.150943	0.995075
C63	C	0.338267	-0.349057	0.495063
C64	C	0.838267	0.150943	0.995063
C65	C	0.399359	-0.349061	0.495058
C66	C	0.899359	0.150939	0.995058
C67	C	0.974515	-0.987112	0.374872
C68	C	1.474515	-0.487112	0.874872
C69	C	0.988423	-0.895635	0.359030
C70	C	1.488423	-0.395635	0.859030
C71	C	0.946051	-0.840226	0.407081
C72	C	1.446051	-0.340226	0.907081
C73	C	0.889769	-0.876302	0.470977
C74	C	1.389769	-0.376302	0.970977
C75	C	0.875856	-0.967789	0.486816
C76	C	1.375856	-0.467789	0.986816
C77	C	0.847392	-0.820903	0.519026
C78	C	1.347392	-0.320903	1.019026
C79	C	0.791110	-0.856979	0.582922
C80	C	1.291110	-0.356979	1.082922
C81	C	0.777200	-0.948457	0.598758
C82	C	1.277200	-0.448457	1.098758
C83	C	0.819572	-1.003866	0.550707
C84	C	1.319572	-0.503866	1.050707
C85	C	0.861305	-0.729416	0.503187
C86	C	1.361305	-0.229416	1.003187
C87	C	0.762646	-0.710093	0.615131
C88	C	1.262646	-0.210093	1.115131
C89	C	0.748738	-0.801570	0.630973
C90	C	1.248738	-0.301570	1.130973
C91	C	1.045008	-0.349064	0.495082
C92	C	1.545008	0.150936	0.995082
C93	C	1.120238	-0.349070	0.495096
C94	C	1.620238	0.150930	0.995096
C95	C	0.843961	-0.309506	0.723516
C96	C	1.343961	0.190494	1.223516
C97	C	0.833516	-0.292654	0.820875
C98	C	1.333516	0.207346	1.320875
C99	C	0.903362	-0.120559	0.455581
C100	C	1.403362	0.379441	0.955581
C101	C	0.918231	-0.023189	0.438762
C102	C	1.418231	0.476811	0.938762
C103	C	0.793878	-0.228707	0.856922
C104	C	1.293878	0.271293	1.356922
C105	C	0.784055	-0.212875	0.948395
C106	C	1.284055	0.287125	1.448395
C107	C	0.813874	-0.260983	1.003830
C108	C	1.313874	0.239017	1.503830
C109	C	0.853516	-0.324927	0.967783
C110	C	1.353516	0.175073	1.467783
C111	C	0.863336	-0.340765	0.876301
C112	C	1.363336	0.159235	1.376301
C113	C	0.883332	-0.373041	1.023209
C114	C	1.383332	0.126959	1.523209
C115	C	0.922974	-0.436985	0.987162
C116	C	1.422974	0.063015	1.487162
C117	C	0.932792	-0.452820	0.895689
C118	C	1.432792	0.047180	1.395689
C119	C	0.902973	-0.404712	0.840254
C120	C	1.402973	0.095288	1.340254
C121	C	0.873512	-0.357202	1.114691
C122	C	1.373512	0.142798	1.614691
C123	C	0.942970	-0.469260	1.134070
C124	C	1.442970	0.030740	1.634070
C125	C	0.952793	-0.485093	1.042596
C126	C	1.452793	0.014907	1.542596
C127	C	0.892881	-0.388463	1.267476
C128	C	1.392881	0.111537	1.767476
C129	C	0.903333	-0.405314	1.170117
C130	C	1.403333	0.094686	1.670117
H131	H	0.584413	-0.433295	0.614085
H132	H	1.084413	0.066705	1.114085
Br133	Br	0.429087	-0.458499	0.649735
Br134	Br	0.929087	0.041501	1.149735
H135	H	0.769599	-0.189550	0.811781
H136	H	1.269599	0.310450	1.311781
Br137	Br	1.032010	-1.062312	0.309663
Br138	Br	1.532010	-0.562312	0.809663
H139	H	0.985070	-0.537157	1.013233
H140	H	1.485070	-0.037157	1.513233
Br141	Br	0.730221	-0.126138	0.997319
Br142	Br	1.230221	0.373862	1.497319
Br143	Br	0.141917	-0.239629	0.340409
Br144	Br	0.641917	0.260371	0.840409
H145	H	0.957378	-0.765742	0.394178
H146	H	1.457378	-0.265742	0.894178
H147	H	0.967253	-0.508432	1.179205
H148	H	1.467253	-0.008432	1.679205
H149	H	0.508974	-0.264811	0.375999
H150	H	1.008974	0.235189	0.875999
Br151	Br	0.819714	-0.270424	1.163601
Br152	Br	1.319714	0.229576	1.663601
Br153	Br	0.664315	-0.239591	0.340352
Br154	Br	1.164315	0.260409	0.840352
Br155	Br	0.916310	-0.426189	0.716104
Br156	Br	1.416310	0.073811	1.216104
H157	H	0.228646	-0.433308	0.614129
H158	H	0.728646	0.066692	1.114129
Br159	Br	0.073313	-0.458533	0.649771
Br160	Br	0.573313	0.041467	1.149771
Br161	Br	0.937685	-0.680466	0.416472
Br162	Br	1.437685	-0.180466	0.916472
H163	H	0.805875	-0.248087	1.078311
H164	H	1.305875	0.251913	1.578311
H165	H	0.965061	-0.504899	0.866344
H166	H	1.465061	-0.004899	1.366344
H167	H	0.808252	-1.078355	0.563604
H168	H	1.308252	-0.578355	1.063604
H169	H	0.281447	-0.264825	0.376013
H170	H	0.781447	0.235175	0.876013
H171	H	0.731364	-0.977829	0.650777
H172	H	1.231364	-0.477829	1.150777
Br173	Br	1.064808	-0.846678	0.272325
Br174	Br	1.564808	-0.346678	0.772325
H175	H	0.728142	-0.664979	0.654257
H176	H	1.228142	-0.164979	1.154257
Br177	Br	0.672358	-0.850541	0.717689
Br178	Br	1.172358	-0.350541	1.217689
