data_functionalizedCrystal
_audit_creation_method	'MofGen! by Chris Wilmer'
_symmetry_space_group_name_H-M	'P1'
_symmetry_Int_Tables_number	1
_symmetry_cell_setting	triclinic
loop_
_symmetry_equiv_pos_as_xyz
  x,y,z
_cell_length_a	14.044191
_cell_length_b	19.188924
_cell_length_c	13.101039
_cell_angle_alpha	93.348752
_cell_angle_beta	86.337551
_cell_angle_gamma	88.166870
loop_
_atom_site_label
_atom_site_type_symbol
_atom_site_fract_x
_atom_site_fract_y
_atom_site_fract_z
O1	O	1.262232	0.164780	-0.085173
O2	O	1.595565	0.498114	0.248160
O3	O	1.928898	0.831447	0.581493
O4	O	0.986288	0.158702	-0.085186
O5	O	1.319622	0.492036	0.248147
O6	O	1.652955	0.825369	0.581481
O7	O	1.132226	0.060600	-0.085167
O8	O	1.465559	0.393933	0.248166
O9	O	1.798892	0.727267	0.581499
O10	O	1.116294	0.262883	-0.085192
O11	O	1.449627	0.596216	0.248141
O12	O	1.782961	0.929549	0.581475
O13	O	1.121755	0.067652	0.085261
O14	O	1.455088	0.400985	0.418595
O15	O	1.788422	0.734318	0.751928
O16	O	0.975817	0.165754	0.085242
O17	O	1.309151	0.499087	0.418576
O18	O	1.642484	0.832420	0.751909
O19	O	1.251761	0.171832	0.085255
O20	O	1.585094	0.505165	0.418588
O21	O	1.918427	0.838498	0.751922
Zn22	Zn	1.112127	0.169912	0.112308
Zn23	Zn	1.445460	0.503246	0.445641
Zn24	Zn	1.778793	0.836579	0.778975
Zn25	Zn	1.125922	0.160622	-0.112239
Zn26	Zn	1.459256	0.493955	0.221094
Zn27	Zn	1.792589	0.827288	0.554428
O28	O	1.105823	0.269934	0.085236
O29	O	1.439157	0.603267	0.418570
O30	O	1.772490	0.936601	0.751903
C31	C	0.945750	0.159569	0.000027
C32	C	1.279083	0.492902	0.333360
C33	C	1.612416	0.826236	0.666693
C34	C	0.840557	0.151638	0.000022
C35	C	1.173890	0.484971	0.333356
C36	C	1.507224	0.818305	0.666689
C37	C	0.590096	0.193386	0.000027
C38	C	0.923429	0.526720	0.333361
C39	C	1.256762	0.860053	0.666694
C40	C	0.647959	0.137151	0.000033
C41	C	0.981293	0.470484	0.333366
C42	C	1.314626	0.803817	0.666699
C43	C	0.755130	0.145213	0.000027
C44	C	1.088464	0.478547	0.333360
C45	C	1.421797	0.811880	0.666694
C46	C	0.482915	0.185325	0.000033
C47	C	0.816248	0.518658	0.333367
C48	C	1.149581	0.851991	0.666700
C49	C	1.126475	0.038081	0.000048
C50	C	1.459809	0.371415	0.333381
C51	C	1.793142	0.704748	0.666715
C52	C	1.124930	-0.039523	0.000051
C53	C	1.458263	0.293810	0.333384
C54	C	1.791596	0.627144	0.666717
C55	C	1.129916	-0.079812	-0.092850
C56	C	1.463249	0.253521	0.240483
C57	C	1.796583	0.586855	0.573816
C58	C	1.128451	-0.152730	-0.092858
C59	C	1.461784	0.180604	0.240475
C60	C	1.795117	0.513937	0.573809
C61	C	1.122018	-0.185356	0.000040
C62	C	1.455351	0.147977	0.333373
C63	C	1.788685	0.481311	0.666707
C64	C	1.117026	-0.145057	0.092953
C65	C	1.450359	0.188276	0.426287
C66	C	1.783692	0.521609	0.759620
C67	C	1.118481	-0.072141	0.092958
C68	C	1.451815	0.261193	0.426292
C69	C	1.785148	0.594526	0.759625
N70	N	1.169410	-0.298825	0.069185
N71	N	1.502743	0.034508	0.402518
N72	N	1.836077	0.367842	0.735851
N73	N	1.168029	-0.368093	0.069173
N74	N	1.501363	-0.034760	0.402507
N75	N	1.834696	0.298574	0.735840
C76	C	1.117629	-0.405049	0.000030
C77	C	1.450962	-0.071715	0.333363
C78	C	1.784296	0.261618	0.666697
N79	N	1.068674	-0.370121	-0.069117
N80	N	1.402008	-0.036788	0.264216
N81	N	1.735341	0.296546	0.597550
N82	N	1.070060	-0.300847	-0.069109
N83	N	1.403393	0.032486	0.264225
N84	N	1.736726	0.365820	0.597558
C85	C	1.120438	-0.264421	0.000045
C86	C	1.453771	0.068912	0.333378
C87	C	1.787105	0.402246	0.666712
C88	C	1.121026	-0.524404	-0.092886
C89	C	1.454359	-0.191070	0.240448
C90	C	1.787692	0.142263	0.573781
C91	C	1.119554	-0.597322	-0.092890
C92	C	1.452888	-0.263989	0.240444
C93	C	1.786221	0.069344	0.573777
C94	C	1.108139	-0.589649	0.092924
C95	C	1.441472	-0.256315	0.426258
C96	C	1.774805	0.077018	0.759591
C97	C	1.109601	-0.516731	0.092926
C98	C	1.442934	-0.183398	0.426259
C99	C	1.776267	0.149935	0.759592
C100	C	1.116049	-0.484113	0.000018
C101	C	1.449382	-0.150780	0.333351
C102	C	1.782715	0.182553	0.666684
C103	C	1.292300	0.170965	0.000040
C104	C	1.625633	0.504298	0.333373
C105	C	1.958966	0.837632	0.666707
C106	C	1.397493	0.178896	0.000038
C107	C	1.730826	0.512229	0.333371
C108	C	2.064159	0.845562	0.666704
C109	C	1.111574	0.292452	0.000019
C110	C	1.444907	0.625786	0.333352
C111	C	1.778240	0.959119	0.666686
C112	C	1.113120	0.370057	0.000010
C113	C	1.446453	0.703390	0.333343
C114	C	1.779787	1.036723	0.666676
N115	N	1.102718	0.176253	0.265555
N116	N	1.436052	0.509586	0.598889
N117	N	1.769385	0.842920	0.932222
N118	N	1.135338	0.154276	-0.265486
N119	N	1.468672	0.487609	0.067847
N120	N	1.802005	0.820943	0.401180
C121	C	1.089918	0.184886	0.474596
C122	C	1.423251	0.518219	0.807930
C123	C	1.756584	0.851553	1.141263
C124	C	1.148136	0.145645	0.525479
C125	C	1.481469	0.478979	0.858813
C126	C	1.814802	0.812312	1.192146
C127	C	1.141013	0.150449	0.641797
C128	C	1.474347	0.483782	0.975130
C129	C	1.807680	0.817115	1.308464
C130	C	1.097039	0.180083	0.358268
C131	C	1.430372	0.513417	0.691602
C132	C	1.763705	0.846750	1.024935
H133	H	0.621043	0.247582	0.000018
H134	H	0.954377	0.580915	0.333351
H135	H	1.287710	0.914249	0.666684
C136	C	1.222701	0.095391	0.466328
C137	C	1.556035	0.428724	0.799662
C138	C	1.889368	0.762057	1.132995
H139	H	1.258290	0.071400	0.513552
H140	H	1.591623	0.404733	0.846885
H141	H	1.924956	0.738066	1.180219
H142	H	1.264625	0.121226	0.424469
H143	H	1.597958	0.454559	0.757802
H144	H	1.931292	0.787892	1.091135
H145	H	1.191183	0.062534	0.424480
H146	H	1.524517	0.395868	0.757813
H147	H	1.857850	0.729201	1.091146
H148	H	1.135164	-0.053259	-0.168503
H149	H	1.468497	0.280074	0.164830
H150	H	1.801830	0.613407	0.498163
C151	C	1.113005	-0.027821	0.195154
C152	C	1.446338	0.305512	0.528487
C153	C	1.779672	0.638846	0.861820
H154	H	1.108968	-0.057693	0.250482
H155	H	1.442302	0.275641	0.583815
H156	H	1.775635	0.608974	0.917149
H157	H	1.058091	0.002671	0.199015
H158	H	1.391425	0.336004	0.532349
H159	H	1.724758	0.669337	0.865682
H160	H	1.168595	-0.001105	0.199018
H161	H	1.501928	0.332228	0.532351
H162	H	1.835262	0.665561	0.865684
C163	C	1.109948	-0.180939	0.195141
C164	C	1.443281	0.152394	0.528475
C165	C	1.776615	0.485727	0.861808
H166	H	1.107179	-0.146498	0.250473
H167	H	1.440512	0.186836	0.583806
H168	H	1.773846	0.520169	0.917140
H169	H	1.164390	-0.211108	0.199009
H170	H	1.497724	0.122225	0.532342
H171	H	1.831057	0.455559	0.865676
H172	H	1.053888	-0.207340	0.198993
H173	H	1.387221	0.125993	0.532327
H174	H	1.720554	0.459326	0.865660
C175	C	1.015343	0.235126	0.533747
C176	C	1.348677	0.568459	0.867080
C177	C	1.682010	0.901792	1.200414
H178	H	0.979739	0.259109	0.486528
H179	H	1.313073	0.592442	0.819862
H180	H	1.646406	0.925776	1.153195
H181	H	1.046841	0.267979	0.575610
H182	H	1.380175	0.601313	0.908944
H183	H	1.713508	0.934646	1.242277
H184	H	0.973423	0.209272	0.575593
H185	H	1.306756	0.542606	0.908926
H186	H	1.640090	0.875939	1.242259
H187	H	0.617015	0.082947	-0.000033
H188	H	0.950348	0.416281	0.333300
H189	H	1.283681	0.749614	0.666634
H190	H	1.132506	-0.185539	-0.168512
H191	H	1.465839	0.147794	0.164822
H192	H	1.799172	0.481127	0.498155
H193	H	1.126271	-0.497845	-0.168537
H194	H	1.459604	-0.164512	0.164797
H195	H	1.792937	0.168822	0.498130
H196	H	1.123610	-0.630125	-0.168544
H197	H	1.456944	-0.296792	0.164790
H198	H	1.790277	0.036542	0.498123
C199	C	1.101055	-0.625528	0.195111
C200	C	1.434388	-0.292195	0.528444
C201	C	1.767722	0.041138	0.861778
H202	H	1.100905	-0.674726	0.181804
H203	H	1.434238	-0.341392	0.515137
H204	H	1.767571	-0.008059	0.848471
H205	H	1.043699	-0.610116	0.233278
H206	H	1.377033	-0.276782	0.566611
H207	H	1.710366	0.056551	0.899945
H208	H	1.154202	-0.613889	0.233289
H209	H	1.487536	-0.280555	0.566623
H210	H	1.820869	0.052778	0.899956
H211	H	1.105548	-0.483927	0.168576
H212	H	1.438881	-0.150594	0.501909
H213	H	1.772215	0.182739	0.835242
