data_functionalizedCrystal
_audit_creation_method	'MofGen! by Chris Wilmer'
_symmetry_space_group_name_H-M	'P1'
_symmetry_Int_Tables_number	1
_symmetry_cell_setting	triclinic
loop_
_symmetry_equiv_pos_as_xyz
  x,y,z
_cell_length_a	12.837943
_cell_length_b	19.188930
_cell_length_c	11.892095
_cell_angle_alpha	93.870839
_cell_angle_beta	85.689438
_cell_angle_gamma	88.986861
loop_
_atom_site_label
_atom_site_type_symbol
_atom_site_fract_x
_atom_site_fract_y
_atom_site_fract_z
O1	O	1.381278	0.177430	-0.094009
O2	O	1.079513	0.168466	-0.094014
O3	O	1.239102	0.071891	-0.093990
O4	O	1.221689	0.274006	-0.094034
O5	O	1.225796	0.079929	0.094016
O6	O	1.066207	0.176505	0.093991
O7	O	1.367972	0.185469	0.093996
Zn8	Zn	1.214977	0.182263	0.123844
Zn9	Zn	1.232508	0.171672	-0.123862
O10	O	1.208383	0.282044	0.093971
C11	C	1.034253	0.169458	-0.000012
C12	C	0.919217	0.160427	-0.000013
C13	C	0.677767	0.268994	-0.000021
C14	C	0.569680	0.260512	-0.000021
C15	C	0.594952	0.134982	-0.000005
C16	C	0.703040	0.143464	-0.000005
C17	C	0.744443	0.210472	-0.000015
C18	C	0.852533	0.218953	-0.000023
C19	C	0.877803	0.093423	0.000001
C20	C	0.769716	0.084941	0.000001
C21	C	1.231885	0.049861	0.000016
C22	C	1.230191	-0.027760	0.000026
C23	C	1.323833	-0.066260	0.000033
C24	C	1.322244	-0.139194	0.000015
C25	C	1.227006	-0.173623	0.000012
C26	C	1.133352	-0.135114	-0.000001
C27	C	1.134944	-0.062182	0.000006
N28	N	1.149679	-0.283886	0.063993
N29	N	1.148172	-0.353168	0.063989
C30	C	1.222201	-0.393362	-0.000010
N31	N	1.297809	-0.361657	-0.063992
N32	N	1.299318	-0.292369	-0.063982
C33	C	1.225268	-0.252705	0.000004
C34	C	1.314126	-0.510946	-0.000025
C35	C	1.312534	-0.583882	-0.000050
C36	C	1.123638	-0.579799	-0.000054
C37	C	1.125234	-0.506866	-0.000041
C38	C	1.220481	-0.472444	-0.000020
C39	C	1.413232	0.184477	-0.000009
C40	C	1.528268	0.193508	-0.000015
C41	C	1.215600	0.304074	-0.000037
C42	C	1.217294	0.381694	-0.000054
N43	N	1.203020	0.189491	0.292896
N44	N	1.244474	0.164439	-0.292914
C45	C	1.327677	0.114101	0.529563
C46	C	1.319327	0.119160	0.647904
C47	C	1.177964	0.204661	0.647920
C48	C	1.186314	0.199603	0.529579
C49	C	1.261175	0.154323	0.470405
C50	C	1.269529	0.149269	0.352062
C51	C	1.128162	0.234767	0.352080
C52	C	1.119812	0.239825	0.470421
H53	H	0.735989	0.030385	0.000021
H54	H	1.055808	-0.163150	-0.000005
C55	C	0.966253	0.297193	-0.096686
C56	C	0.898044	0.292608	-0.000036
H57	H	0.994340	0.342667	-0.096694
H58	H	1.021431	0.263560	-0.096675
H59	H	0.929238	0.288471	-0.162238
H60	H	0.935061	0.301324	0.065517
H61	H	0.842858	0.326251	-0.000036
C62	C	0.968991	-0.602891	-0.096711
C63	C	1.018948	-0.617635	-0.000062
H64	H	0.904362	-0.626255	-0.096720
H65	H	0.956540	-0.553950	-0.096695
H66	H	1.012188	-0.618480	-0.162264
H67	H	0.975754	-0.602041	0.065491
H68	H	1.031395	-0.666586	-0.000068
H69	H	0.515395	0.308167	-0.000023
H70	H	0.932104	0.045770	-0.000002
H71	H	1.058859	0.276689	0.518614
C72	C	1.024282	-0.426607	-0.096682
C73	C	1.022296	-0.464542	-0.000038
H74	H	0.960725	-0.400483	-0.096685
H75	H	1.081221	-0.395668	-0.096668
H76	H	1.032229	-0.457946	-0.162238
H77	H	1.014356	-0.433202	0.065518
H78	H	0.965340	-0.495484	-0.000042
H79	H	1.391682	-0.482919	-0.000013
H80	H	1.401391	-0.038239	0.000046
C81	C	1.114643	0.322574	0.218997
C82	C	1.055059	0.278986	0.287054
H83	H	1.069515	0.349871	0.178850
H84	H	1.154400	0.352531	0.265156
H85	H	1.160412	0.294876	0.166817
H86	H	1.009295	0.306684	0.339239
H87	H	1.015284	0.249026	0.240891
H88	H	1.058687	-0.030834	0.000001
C89	C	1.403290	0.068420	0.348145
C90	C	1.409992	0.064355	0.464509
H91	H	1.454122	0.037717	0.307987
H92	H	1.335554	0.055361	0.328760
H93	H	1.415667	0.114937	0.328770
H94	H	1.397607	0.017838	0.483886
H95	H	1.477744	0.077409	0.483902
H96	H	1.388792	-0.615228	-0.000050
C97	C	1.459896	0.034138	0.635996
C98	C	1.392430	0.074948	0.712931
H99	H	1.505030	0.006845	0.676144
H100	H	1.420129	0.004176	0.589856
H101	H	1.500296	0.063719	0.589823
H102	H	1.352024	0.045367	0.759099
H103	H	1.432201	0.104913	0.759091
H104	H	0.561216	0.080430	0.000095
C105	C	0.995807	0.235187	0.684408
C106	C	1.095672	0.254419	0.712986
H107	H	0.945003	0.265902	0.724587
H108	H	0.991264	0.237946	0.605475
H109	H	0.983422	0.188674	0.703801
H110	H	1.108060	0.300931	0.693586
H111	H	1.100218	0.251667	0.791937
C112	C	0.791500	0.347222	-0.096687
C113	C	0.723286	0.342646	-0.000039
H114	H	0.819594	0.392695	-0.096700
H115	H	0.846673	0.313587	-0.096669
H116	H	0.754487	0.338500	-0.162241
H117	H	0.760301	0.351363	0.065515
H118	H	0.668105	0.376293	-0.000047
H119	H	1.330487	0.112401	0.303884
H120	H	1.398501	-0.170548	0.000016
