data_functionalizedCrystal
_audit_creation_method	'MofGen! by Chris Wilmer'
_symmetry_space_group_name_H-M	'P1'
_symmetry_Int_Tables_number	1
_symmetry_cell_setting	triclinic
loop_
_symmetry_equiv_pos_as_xyz
  x,y,z
_cell_length_a	16.992694
_cell_length_b	10.654545
_cell_length_c	16.053802
_cell_angle_alpha	92.592866
_cell_angle_beta	87.249047
_cell_angle_gamma	87.576825
loop_
_atom_site_label
_atom_site_type_symbol
_atom_site_fract_x
_atom_site_fract_y
_atom_site_fract_z
O1	O	1.045117	0.261482	-0.069317
O2	O	0.816816	0.258557	-0.069342
O3	O	0.936215	0.077734	-0.069329
O4	O	0.925718	0.442305	-0.069331
O5	O	0.929643	0.087643	0.069530
O6	O	0.810244	0.268466	0.069516
O7	O	1.038544	0.271391	0.069541
Zn8	Zn	0.923351	0.271502	0.091575
Zn9	Zn	0.932010	0.258446	-0.091376
O10	O	0.919146	0.452214	0.069527
C11	C	0.784298	0.259751	0.000084
C12	C	0.697193	0.248531	0.000074
C13	C	0.932158	0.035823	0.000099
C14	C	0.929852	-0.103819	0.000094
C15	C	0.647541	0.356782	0.000074
C16	C	0.565697	0.346233	0.000086
C17	C	0.533506	0.227433	0.000092
C18	C	0.583163	0.119174	0.000094
C19	C	0.665006	0.129724	0.000088
C20	C	0.289669	0.183707	0.000114
C21	C	0.207820	0.173165	0.000117
C22	C	0.190359	0.400226	0.000111
C23	C	0.272204	0.410765	0.000100
C24	C	0.321854	0.302507	0.000107
N25	N	0.449848	0.216648	0.000101
N26	N	0.405511	0.313293	0.000104
C27	C	0.937026	-0.114631	-0.151294
C28	C	0.939533	-0.185639	-0.226987
C29	C	0.937366	-0.316846	-0.226988
C30	C	0.932690	-0.377045	-0.151288
C31	C	0.930183	-0.306036	-0.075595
C32	C	0.932353	-0.174828	-0.075602
C33	C	0.923003	-0.295225	0.075791
C34	C	0.925175	-0.164019	0.075794
C35	C	0.918326	-0.355424	0.151492
C36	C	0.915825	-0.284416	0.227187
C37	C	0.917993	-0.153202	0.227185
C38	C	0.922669	-0.093010	0.151488
C39	C	1.071063	0.270196	0.000113
C40	C	1.158168	0.281416	0.000117
C41	C	0.923203	0.494124	0.000098
C42	C	0.925509	0.633766	0.000098
N43	N	0.917447	0.280412	0.216435
N44	N	0.937920	0.249526	-0.216236
C45	C	0.968270	0.203502	0.260135
C46	C	0.964147	0.209748	0.347541
C47	C	0.909205	0.292910	0.391246
C48	C	0.858376	0.369822	0.347540
C49	C	0.862496	0.363570	0.260135
C50	C	0.891211	0.320186	0.652653
C51	C	0.887097	0.326436	0.740064
C52	C	0.992867	0.166359	0.740059
C53	C	0.996985	0.160119	0.652653
C54	C	0.946154	0.237027	0.608954
N55	N	0.904991	0.299298	0.480589
N56	N	0.950364	0.230631	0.519613
H57	H	0.673744	0.453522	0.000069
H58	H	0.939400	-0.374660	-0.288625
H59	H	0.849823	0.382810	0.617081
H60	H	0.930916	-0.483879	-0.151296
O61	O	0.915443	-0.084345	0.300767
C62	C	0.844890	-0.105681	0.346783
H63	H	0.821729	-0.200012	0.325254
H64	H	0.799116	-0.027396	0.336271
C65	C	0.889392	0.008545	0.466773
C66	C	0.860948	-0.107319	0.440335
H67	H	0.899295	0.007541	0.524481
H68	H	0.936923	0.022925	0.435771
H69	H	0.851242	0.073771	0.458006
H70	H	0.899102	-0.172539	0.449093
H71	H	0.813424	-0.121709	0.471342
H72	H	1.013013	0.135789	0.224556
H73	H	0.525273	0.434383	0.000085
H74	H	0.916558	-0.462259	0.151485
H75	H	0.149925	0.488363	0.000107
H76	H	0.938800	-0.007797	-0.151300
O77	O	1.013608	0.135004	0.389861
C78	C	1.062978	0.060253	0.332543
H79	H	1.067068	0.107401	0.270233
H80	H	1.037453	-0.036346	0.323262
C81	C	1.140840	-0.012507	0.443172
C82	C	1.145869	0.045406	0.366643
H83	H	1.191970	-0.021671	0.464207
H84	H	1.107577	0.037850	0.481789
H85	H	1.119566	-0.093000	0.435428
H86	H	1.167133	0.125903	0.374391
H87	H	1.179138	-0.004938	0.328028
H88	H	0.912013	-0.333440	0.288816
O89	O	0.805074	0.450576	0.390122
C90	C	0.812323	0.439586	0.476639
H91	H	0.873877	0.399795	0.488572
H92	H	0.766411	0.373842	0.501456
C93	C	0.723512	0.619011	0.506845
C94	C	0.799116	0.570150	0.521502
H95	H	0.715362	0.699547	0.534521
H96	H	0.718625	0.626414	0.448557
H97	H	0.685260	0.564213	0.527527
H98	H	0.837367	0.624940	0.500812
H99	H	0.804009	0.562760	0.579788
O100	O	0.337921	0.078599	0.000258
C101	C	0.382407	0.083046	0.072160
H102	H	0.350417	0.147874	0.122429
H103	H	0.442855	0.120383	0.055897
C104	C	0.431850	-0.129725	0.043021
C105	C	0.392556	-0.050110	0.104766
H106	H	0.438114	-0.211862	0.063133
H107	H	0.401882	-0.132720	-0.005422
H108	H	0.482219	-0.098596	0.029475
H109	H	0.342184	-0.081231	0.118304
H110	H	0.422516	-0.047123	0.153212
H111	H	1.041724	0.092402	0.617070
O112	O	0.303340	0.526268	0.000136
C113	C	0.241966	0.619553	0.000118
H114	H	0.184945	0.580630	0.026411
H115	H	0.233720	0.648584	-0.066499
C116	C	0.333124	0.782621	0.022277
C117	C	0.263091	0.734819	0.054577
H118	H	0.346155	0.853726	0.055866
H119	H	0.374474	0.719775	0.022286
H120	H	0.326243	0.806804	-0.033237
H121	H	0.269976	0.710623	0.110085
H122	H	0.221743	0.797664	0.054578
H123	H	0.842354	0.394161	0.775645
H124	H	0.943339	-0.136610	-0.288621
H125	H	1.034251	0.103743	0.775646
O126	O	0.813093	0.438411	0.217812
C127	C	0.763703	0.513132	0.275127
H128	H	0.792939	0.522270	0.337428
H129	H	0.704768	0.467093	0.284436
C130	C	0.713965	0.633380	0.164486
C131	C	0.749876	0.644612	0.241002
H132	H	0.705432	0.714481	0.143435
H133	H	0.747238	0.583036	0.125870
H134	H	0.664857	0.595009	0.172253
H135	H	0.798988	0.682967	0.233232
H136	H	0.716611	0.694965	0.279616
H137	H	0.181614	0.076419	0.000121
O138	O	0.551864	0.003788	-0.000048
C139	C	0.508424	-0.014228	-0.071952
H140	H	0.530506	0.049786	-0.122219
H141	H	0.443283	0.009439	-0.055691
C142	C	0.492017	-0.230976	-0.042819
C143	C	0.519143	-0.152360	-0.104561
H144	H	0.498625	-0.316182	-0.062933
H145	H	0.521280	-0.218837	0.005625
H146	H	0.437735	-0.211238	-0.029274
H147	H	0.573426	-0.172088	-0.118097
H148	H	0.489888	-0.164505	-0.153009
H149	H	0.924438	0.013824	0.151479
O150	O	0.713130	0.024439	0.000047
C151	C	0.667168	-0.082680	0.000072
H152	H	0.607508	-0.058796	-0.026214
H153	H	0.658007	-0.113954	0.066690
C154	C	0.783206	-0.219044	-0.022100
C155	C	0.709933	-0.189711	-0.054391
H156	H	0.809586	-0.285068	-0.055692
H157	H	0.814172	-0.146877	-0.022114
H158	H	0.775561	-0.245098	0.033415
H159	H	0.717579	-0.163642	-0.109900
H160	H	0.678969	-0.261877	-0.054388
