data_functionalizedCrystal
_audit_creation_method	'MofGen! by Chris Wilmer'
_symmetry_space_group_name_H-M	'P1'
_symmetry_Int_Tables_number	1
_symmetry_cell_setting	triclinic
loop_
_symmetry_equiv_pos_as_xyz
  x,y,z
_cell_length_a	15.944545
_cell_length_b	15.944545
_cell_length_c	13.330367
_cell_angle_alpha	89.993254
_cell_angle_beta	89.995231
_cell_angle_gamma	83.496173
loop_
_atom_site_label
_atom_site_type_symbol
_atom_site_fract_x
_atom_site_fract_y
_atom_site_fract_z
O1	O	1.114529	0.108307	-0.083363
O2	O	0.869978	0.121668	-0.083380
O3	O	0.998934	-0.007288	-0.083359
O4	O	0.985573	0.237263	-0.083384
O5	O	0.998916	-0.007291	0.083488
O6	O	0.869959	0.121666	0.083467
O7	O	1.114510	0.108304	0.083484
Cu8	Cu	0.992233	0.114984	0.098710
Cu9	Cu	0.992255	0.114988	-0.098606
O10	O	0.985554	0.237260	0.083463
C11	C	0.838675	0.121113	0.000041
C12	C	0.745428	0.119453	0.000035
C13	C	0.998371	-0.038583	0.000065
C14	C	0.996711	-0.131830	0.000068
C15	C	0.474798	0.034559	0.000055
C16	C	0.525369	0.075487	0.082317
C17	C	0.409785	0.113532	0.000053
C18	C	0.525368	0.075511	-0.082181
C19	C	0.574698	0.116437	0.000043
C20	C	0.459128	0.154439	0.082384
C21	C	0.459124	0.154451	-0.082188
C22	C	0.509662	0.195437	0.000094
C23	C	0.314783	0.111857	0.000060
C24	C	0.669698	0.118119	0.000043
C25	C	0.911817	-0.402460	0.000042
C26	C	0.952755	-0.351874	-0.082220
C27	C	0.990790	-0.467473	0.000039
C28	C	0.952758	-0.351904	0.082278
C29	C	0.993695	-0.302560	0.000055
C30	C	1.031708	-0.418115	-0.082291
C31	C	1.031699	-0.418149	0.082281
C32	C	1.072695	-0.367596	-0.000001
C33	C	0.989115	-0.562475	0.000029
C34	C	0.995377	-0.207560	0.000058
C35	C	1.145813	0.108859	0.000060
C36	C	1.239060	0.110519	0.000059
C37	C	0.986117	0.268556	0.000036
C38	C	0.987777	0.361802	0.000027
N39	N	0.992224	0.114982	0.237491
N40	N	0.992271	0.114984	-0.237388
C41	C	0.935151	0.172067	0.710105
C42	C	1.049382	0.057902	0.710091
C43	C	1.049373	0.057899	0.605073
C44	C	0.992252	0.114982	0.552566
C45	C	0.935141	0.172068	0.605077
C46	C	1.106488	0.000820	0.552554
C47	C	1.106482	0.000816	0.447529
C48	C	1.049356	0.057896	0.395020
C49	C	0.992243	0.114983	0.447538
C50	C	0.935122	0.172066	0.395030
C51	C	0.878004	0.229150	0.447546
C52	C	0.878016	0.229148	0.552568
C53	C	1.049344	0.057898	0.289999
C54	C	0.935113	0.172067	0.290002
H55	H	0.459146	-0.033453	0.000142
H56	H	0.888643	0.218542	0.752866
O57	O	0.822456	0.284627	0.603425
C58	C	0.709179	0.397894	0.592360
C59	C	0.772041	0.335098	0.534635
H60	H	0.668415	0.438728	0.536768
H61	H	0.667171	0.361641	0.641517
H62	H	0.745462	0.439841	0.641541
H63	H	0.735828	0.293135	0.485399
H64	H	0.814049	0.371403	0.485541
O65	O	0.424738	0.194052	0.165524
C66	C	0.344001	0.181896	0.316600
C67	C	0.382919	0.136935	0.222495
H68	H	0.310166	0.135741	0.362676
H69	H	0.396061	0.205694	0.363758
H70	H	0.296911	0.237564	0.292991
H71	H	0.430000	0.081234	0.246015
H72	H	0.330813	0.113197	0.175360
O73	O	1.104823	0.002337	0.760988
C74	C	1.153984	-0.143694	0.793197
C75	C	1.091167	-0.080852	0.735468
H76	H	1.142954	-0.210966	0.772601
H77	H	1.221279	-0.132790	0.772519
H78	H	1.144186	-0.133841	0.877272
H79	H	1.100888	-0.090668	0.651379
H80	H	1.023895	-0.091772	0.756229
H81	H	1.065014	-0.447100	0.151835
O82	O	0.822551	0.284520	0.396381
C83	C	0.771965	0.335148	0.234582
C84	C	0.834793	0.272386	0.292406
H85	H	0.781853	0.325372	0.150508
H86	H	0.704673	0.324160	0.255160
H87	H	0.782898	0.402426	0.255280
H88	H	0.823938	0.205085	0.271738
H89	H	0.902064	0.283448	0.271822
H90	H	1.152998	-0.045651	0.595309
O91	O	0.559857	0.035565	0.165221
C92	C	0.581513	-0.094290	0.259004
C93	C	0.542437	-0.049182	0.165066
H94	H	0.567428	-0.162811	0.258921
H95	H	0.652741	-0.092173	0.258592
H96	H	0.553245	-0.061255	0.329087
H97	H	0.570638	-0.082183	0.094933
H98	H	0.471208	-0.051292	0.165567
H99	H	0.919384	-0.322991	0.151822
H100	H	1.152989	-0.045665	0.404778
O101	O	1.104854	0.002374	0.239141
C102	C	1.218201	-0.110821	0.250216
C103	C	1.155366	-0.047994	0.307936
H104	H	1.259068	-0.151548	0.305812
H105	H	1.181981	-0.152868	0.201092
H106	H	1.260112	-0.074509	0.201002
H107	H	1.113439	-0.084237	0.357204
H108	H	1.191638	-0.005947	0.356997
H109	H	0.919411	-0.322938	-0.151772
O110	O	0.830733	-0.421291	-0.000009
C111	C	0.738326	-0.530866	0.000701
C112	C	0.830188	-0.509655	0.000788
H113	H	0.737855	-0.602308	0.001324
H114	H	0.704302	-0.502534	0.070140
H115	H	0.704809	-0.503448	-0.069506
H116	H	0.863777	-0.537069	0.070948
H117	H	0.864149	-0.537973	-0.068697
O118	O	0.528109	0.276648	0.000316
C119	C	0.514957	0.410006	0.087211
C120	C	0.494023	0.318051	0.087092
H121	H	0.487394	0.443512	0.157351
H122	H	0.586371	0.410726	0.086612
H123	H	0.486554	0.443873	0.017708
H124	H	0.522371	0.284129	0.156583
H125	H	0.422603	0.317392	0.087639
H126	H	0.430184	0.187776	-0.151744
H127	H	0.888595	0.218549	0.247257
O128	O	1.071412	-0.452605	-0.165325
C129	C	1.114445	-0.579740	-0.258456
C130	C	1.069445	-0.540788	-0.164390
H131	H	1.112885	-0.651043	-0.257721
H132	H	1.081025	-0.551885	-0.328512
H133	H	1.182799	-0.565126	-0.258738
H134	H	1.001091	-0.555387	-0.164011
H135	H	1.102931	-0.568644	-0.094377
H136	H	0.554294	0.042146	-0.151723
O137	O	1.153911	-0.349162	-0.000215
C138	C	1.287289	-0.362328	-0.087094
C139	C	1.195327	-0.383239	-0.086989
H140	H	1.320806	-0.389884	-0.157232
H141	H	1.288026	-0.290916	-0.086488
H142	H	1.321134	-0.390752	-0.017589
H143	H	1.161427	-0.354869	-0.156482
H144	H	1.194651	-0.454657	-0.087542
