data_functionalizedCrystal
_audit_creation_method	'MofGen! by Chris Wilmer'
_symmetry_space_group_name_H-M	'P1'
_symmetry_Int_Tables_number	1
_symmetry_cell_setting	triclinic
loop_
_symmetry_equiv_pos_as_xyz
  x,y,z
_cell_length_a	27.732048
_cell_length_b	27.732046
_cell_length_c	26.210047
_cell_angle_alpha	90.001831
_cell_angle_beta	89.996535
_cell_angle_gamma	97.357683
loop_
_atom_site_label
_atom_site_type_symbol
_atom_site_fract_x
_atom_site_fract_y
_atom_site_fract_z
O1	O	0.640931	-0.057510	-0.042370
O2	O	1.140931	0.442490	0.457630
O3	O	0.500137	-0.066256	-0.042387
O4	O	1.000137	0.433744	0.457613
O5	O	0.574907	0.008514	-0.042366
O6	O	1.074907	0.508514	0.457634
O7	O	0.566161	-0.132280	-0.042390
O8	O	1.066161	0.367720	0.457610
O9	O	0.574893	0.008502	0.042492
O10	O	1.074893	0.508502	0.542492
O11	O	0.500123	-0.066267	0.042472
O12	O	1.000123	0.433733	0.542472
O13	O	0.640916	-0.057522	0.042488
O14	O	1.140916	0.442478	0.542488
Cu15	Cu	0.570518	-0.061896	0.050228
Cu16	Cu	1.070518	0.438104	0.550228
Cu17	Cu	0.570535	-0.061882	-0.050127
Cu18	Cu	1.070535	0.438118	0.449873
O19	O	0.566146	-0.132291	0.042468
O20	O	1.066146	0.367709	0.542468
C21	C	0.482123	-0.066078	0.000041
C22	C	0.982123	0.433922	0.500041
C23	C	0.428468	-0.065525	0.000035
C24	C	0.928468	0.434475	0.500035
C25	C	0.089653	-0.106229	0.000050
C26	C	0.589653	0.393771	0.500050
C27	C	-0.112007	-0.104178	0.000055
C28	C	0.387993	0.395822	0.500055
O29	O	-0.143263	-0.141399	0.000071
O30	O	0.356737	0.358601	0.500071
N31	N	-0.131130	-0.059843	0.000062
N32	N	0.368870	0.440157	0.500062
C33	C	-0.099835	-0.016017	0.000070
C34	C	0.400165	0.483983	0.500070
O35	O	-0.120728	0.021740	0.000081
O36	O	0.379272	0.521740	0.500081
C37	C	0.101823	-0.018069	0.000069
C38	C	0.601823	0.481931	0.500069
C39	C	0.120944	-0.062407	0.000057
C40	C	0.620944	0.437593	0.500057
C41	C	0.108774	-0.150563	0.000039
C42	C	0.608774	0.349437	0.500039
C43	C	0.159186	-0.151076	0.000035
C44	C	0.659186	0.348924	0.500035
C45	C	0.190477	-0.107253	0.000042
C46	C	0.690477	0.392747	0.500042
C47	C	0.171356	-0.062919	0.000053
C48	C	0.671356	0.437081	0.500053
C49	C	0.133117	0.025757	0.000081
C50	C	0.633117	0.525757	0.500081
C51	C	0.183535	0.025240	0.000082
C52	C	0.683535	0.525240	0.500082
C53	C	0.202655	-0.019098	0.000071
C54	C	0.702655	0.480902	0.500071
C55	C	0.253059	-0.019609	0.000056
C56	C	0.753059	0.480391	0.500056
N57	N	0.272182	-0.063944	0.000050
N58	N	0.772182	0.436056	0.500050
C59	C	0.240891	-0.107766	0.000043
C60	C	0.740891	0.392234	0.500043
C61	C	-0.205709	-0.014943	0.000070
C62	C	0.294291	0.485057	0.500070
C63	C	-0.256124	-0.014430	0.000069
C64	C	0.243876	0.485570	0.500069
C65	C	-0.268292	-0.102591	0.000055
C66	C	0.231708	0.397409	0.500055
C67	C	-0.217876	-0.103104	0.000052
C68	C	0.282124	0.396896	0.500052
C69	C	-0.186586	-0.059278	0.000063
C70	C	0.313414	0.440722	0.500063
C71	C	0.346760	-0.108839	0.000034
C72	C	0.846760	0.391161	0.500034
C73	C	0.397177	-0.109347	0.000028
C74	C	0.897177	0.390653	0.500028
C75	C	0.409341	-0.021186	0.000045
C76	C	0.909341	0.478814	0.500045
C77	C	0.358928	-0.020678	0.000048
C78	C	0.858928	0.479322	0.500048
C79	C	0.327639	-0.064508	0.000044
C80	C	0.827639	0.435492	0.500044
O81	O	0.284343	0.017592	0.000046
O82	O	0.784343	0.517592	0.500046
O83	O	0.261794	-0.145518	0.000043
O84	O	0.761794	0.354482	0.500043
C85	C	0.039241	-0.105717	0.000054
C86	C	0.539241	0.394283	0.500054
C87	C	0.020120	-0.061382	0.000065
C88	C	0.520120	0.438618	0.500065
C89	C	0.051411	-0.017560	0.000072
C90	C	0.551411	0.482440	0.500072
C91	C	-0.030294	-0.060869	0.000065
C92	C	0.469706	0.439131	0.500065
C93	C	-0.061585	-0.104691	0.000057
C94	C	0.438415	0.395309	0.500057
C95	C	-0.042462	-0.149027	0.000051
C96	C	0.457538	0.350973	0.500051
C97	C	0.007950	-0.149539	0.000047
C98	C	0.507950	0.350461	0.500047
C99	C	0.032287	0.026775	0.000079
C100	C	0.532287	0.526775	0.500079
C101	C	-0.018125	0.027284	0.000083
C102	C	0.481875	0.527284	0.500083
C103	C	-0.049416	-0.016538	0.000075
C104	C	0.450584	0.483462	0.500075
C105	C	0.574717	0.026515	0.000065
C106	C	1.074717	0.526515	0.500065
C107	C	0.574164	0.080170	0.000070
C108	C	1.074164	0.580170	0.500070
C109	C	0.658931	-0.057699	0.000060
C110	C	1.158931	0.442301	0.500060
C111	C	0.712585	-0.058252	0.000062
C112	C	1.212585	0.441748	0.500062
N113	N	0.570510	-0.061905	0.120812
N114	N	1.070510	0.438095	0.620812
C115	C	0.614870	0.418985	0.000057
C116	C	1.114870	0.918985	0.500057
C117	C	0.612820	0.620645	0.000055
C118	C	1.112820	1.120645	0.500055
O119	O	0.650041	0.651901	0.000037
O120	O	1.150041	1.151901	0.500037
N121	N	0.568485	0.639769	0.000050
N122	N	1.068485	1.139769	0.500050
C123	C	0.524659	0.608474	0.000044
C124	C	1.024659	1.108474	0.500044
O125	O	0.486902	0.629367	0.000035
O126	O	0.986902	1.129367	0.500035
C127	C	0.526710	0.406815	0.000042
C128	C	1.026710	0.906815	0.500042
C129	C	0.571047	0.387695	0.000052
C130	C	1.071047	0.887695	0.500052
C131	C	0.659204	0.399864	0.000066
C132	C	1.159204	0.899864	0.500066
C133	C	0.659716	0.349452	0.000069
C134	C	1.159716	0.849452	0.500069
C135	C	0.615894	0.318161	0.000064
C136	C	1.115894	0.818161	0.500064
C137	C	0.571559	0.337283	0.000055
C138	C	1.071559	0.837283	0.500055
C139	C	0.482884	0.375522	0.000032
C140	C	0.982884	0.875522	0.500032
C141	C	0.483401	0.325104	0.000030
C142	C	0.983401	0.825104	0.500030
C143	C	0.527739	0.305984	0.000039
C144	C	1.027739	0.805984	0.500039
C145	C	0.528249	0.255580	0.000053
C146	C	1.028249	0.755580	0.500053
N147	N	0.572584	0.236456	0.000057
N148	N	1.072584	0.736456	0.500057
C149	C	0.616406	0.267747	0.000062
C150	C	1.116406	0.767747	0.500062
C151	C	0.523586	0.714348	0.000045
C152	C	1.023586	1.214348	0.500045
C153	C	0.523073	0.764763	0.000046
C154	C	1.023073	1.264763	0.500046
C155	C	0.611234	0.776930	0.000057
C156	C	1.111234	1.276930	0.500057
C157	C	0.611746	0.726515	0.000059
C158	C	1.111746	1.226515	0.500059
C159	C	0.567921	0.695225	0.000049
C160	C	1.067921	1.195225	0.500049
C161	C	0.617478	0.161878	0.000070
C162	C	1.117478	0.661878	0.500070
C163	C	0.617986	0.111461	0.000075
C164	C	1.117986	0.611461	0.500075
C165	C	0.529826	0.099298	0.000063
C166	C	1.029826	0.599298	0.500063
C167	C	0.529317	0.149710	0.000060
C168	C	1.029317	0.649710	0.500060
C169	C	0.573148	0.180999	0.000062
C170	C	1.073148	0.680999	0.500062
O171	O	0.491048	0.224296	0.000064
O172	O	0.991048	0.724296	0.500064
O173	O	0.654158	0.246844	0.000060
O174	O	1.154158	0.746844	0.500060
C175	C	0.614358	0.469397	0.000054
C176	C	1.114358	0.969397	0.500054
C177	C	0.570024	0.488519	0.000045
C178	C	1.070024	0.988519	0.500045
C179	C	0.526201	0.457228	0.000039
C180	C	1.026201	0.957228	0.500039
C181	C	0.569511	0.538933	0.000046
C182	C	1.069511	1.038933	0.500046
C183	C	0.613333	0.570224	0.000051
C184	C	1.113333	1.070224	0.500051
C185	C	0.657668	0.551100	0.000056
C186	C	1.157668	1.051100	0.500056
C187	C	0.658180	0.500688	0.000059
C188	C	1.158180	1.000688	0.500059
C189	C	0.481866	0.476352	0.000035
C190	C	0.981866	0.976352	0.500035
C191	C	0.481358	0.526764	0.000032
C192	C	0.981358	1.026764	0.500032
C193	C	0.525180	0.558055	0.000038
C194	C	1.025180	1.058055	0.500038
C195	C	0.566339	0.849708	0.000042
C196	C	1.066339	1.349708	0.500042
C197	C	0.566896	0.796054	0.000052
C198	C	1.066896	1.296054	0.500052
N199	N	0.570548	-0.061869	-0.120710
N200	N	1.070548	0.438131	0.379290
C201	C	0.603640	-0.028781	0.473335
C202	C	1.103640	0.471219	0.973335
C203	C	0.603651	-0.028774	0.686993
C204	C	1.103651	0.471226	1.186993
O205	O	0.631801	-0.000614	0.714623
O206	O	1.131801	0.499386	1.214623
N207	N	0.570538	-0.061871	0.713706
N208	N	1.070538	0.438129	1.213706
C209	C	0.537418	-0.094970	0.687000
C210	C	1.037418	0.405030	1.187000
O211	O	0.509251	-0.123117	0.714623
O212	O	1.009251	0.376883	1.214623
C213	C	0.537406	-0.094974	0.473343
C214	C	1.037406	0.405026	0.973343
C215	C	0.570524	-0.061878	0.446633
C216	C	1.070524	0.438122	0.946633
C217	C	0.636755	0.004312	0.446625
C218	C	1.136755	0.504312	0.946625
C219	C	0.636754	0.004308	0.393214
C220	C	1.136754	0.504308	0.893214
C221	C	0.603638	-0.028789	0.366512
C222	C	1.103638	0.471211	0.866512
C223	C	0.570522	-0.061882	0.393222
C224	C	1.070522	0.438118	0.893222
C225	C	0.504284	-0.128070	0.446638
C226	C	1.004284	0.371930	0.946638
C227	C	0.504283	-0.128067	0.393220
C228	C	1.004283	0.371933	0.893220
C229	C	0.537401	-0.094971	0.366511
C230	C	1.037401	0.405029	0.866511
C231	C	0.537405	-0.094983	0.313108
C232	C	1.037405	0.405017	0.813108
N233	N	0.570518	-0.061886	0.286396
N234	N	1.070518	0.438114	0.786396
C235	C	0.603634	-0.028789	0.313098
C236	C	1.103634	0.471211	0.813098
C237	C	0.537428	-0.094966	0.799174
C238	C	1.037428	0.405034	1.299174
C239	C	0.537431	-0.094966	0.852588
C240	C	1.037431	0.405034	1.352588
C241	C	0.603664	-0.028770	0.852577
C242	C	1.103664	0.471230	1.352577
C243	C	0.603662	-0.028773	0.799162
C244	C	1.103662	0.471227	1.299162
C245	C	0.570540	-0.061869	0.772461
C246	C	1.070540	0.438131	1.272461
C247	C	0.603629	-0.028800	0.200930
C248	C	1.103629	0.471200	0.700930
C249	C	0.603626	-0.028808	0.147514
C250	C	1.103626	0.471192	0.647514
C251	C	0.537393	-0.095002	0.147529
C252	C	1.037393	0.404998	0.647529
C253	C	0.537397	-0.094996	0.200940
C254	C	1.037397	0.405004	0.700940
C255	C	0.570517	-0.061891	0.227640
C256	C	1.070517	0.438109	0.727640
O257	O	0.509266	-0.123125	0.285446
O258	O	1.009266	0.376875	0.785446
O259	O	0.631790	-0.000639	0.285466
O260	O	1.131790	0.499361	0.785466
C261	C	0.603641	-0.028777	0.526746
C262	C	1.103641	0.471223	1.026746
C263	C	0.570526	-0.061871	0.553456
C264	C	1.070526	0.438129	1.053456
C265	C	0.537410	-0.094968	0.526754
C266	C	1.037410	0.405032	1.026754
C267	C	0.570530	-0.061870	0.606870
C268	C	1.070530	0.438130	1.106870
C269	C	0.603646	-0.028773	0.633572
C270	C	1.103646	0.471227	1.133572
C271	C	0.636759	0.004323	0.606860
C272	C	1.136759	0.504323	1.106860
C273	C	0.636758	0.004320	0.553448
C274	C	1.136758	0.504320	1.053448
C275	C	0.504297	-0.128064	0.553466
C276	C	1.004297	0.371936	1.053466
C277	C	0.504301	-0.128058	0.606878
C278	C	1.004301	0.371942	1.106878
C279	C	0.537418	-0.094961	0.633580
C280	C	1.037418	0.405039	1.133580
H281	H	0.174749	-0.187180	0.000025
H282	H	0.674749	0.312820	0.500025
N283	N	0.475254	0.785387	0.000040
N284	N	0.975254	1.285387	0.500040
H285	H	0.473068	0.806032	0.031497
H286	H	0.973068	1.306032	0.531497
H287	H	0.447599	0.757885	0.000016
H288	H	0.947599	1.257885	0.500016
H289	H	0.434827	0.014492	0.000049
H290	H	0.934827	0.514492	0.500049
H291	H	0.663720	0.031259	0.371470
H292	H	1.163720	0.531259	0.871470
H293	H	0.663723	0.031266	0.468361
H294	H	1.163723	0.531266	0.968361
H295	H	0.630597	-0.001858	0.125768
H296	H	1.130597	0.498142	0.625768
N297	N	-0.302036	-0.149864	0.000073
N298	N	0.197964	0.350136	0.500073
H299	H	-0.295928	-0.169236	-0.031378
H300	H	0.204072	0.330764	0.468622
H301	H	-0.336862	-0.142779	0.000102
H302	H	0.163138	0.357221	0.500102
N303	N	0.482558	0.065549	0.000054
N304	N	0.982558	0.565549	0.500054
H305	H	0.463191	0.071663	0.031507
H306	H	0.963191	0.571663	0.531507
H307	H	0.489648	0.030724	0.000036
H308	H	0.989648	0.530724	0.500036
H309	H	0.446180	0.450879	0.000030
H310	H	0.946180	0.950879	0.500030
H311	H	0.083301	-0.186251	0.000035
H312	H	0.583301	0.313749	0.500035
H313	H	-0.271687	0.021674	0.000071
H314	H	0.228313	0.521674	0.500071
H315	H	0.694285	0.485125	0.000066
H316	H	1.194285	0.985125	0.500066
N317	N	0.417803	-0.157169	0.000019
N318	N	0.917803	0.342831	0.500019
H319	H	0.438448	-0.159344	-0.031440
H320	H	0.938448	0.340656	0.468560
H321	H	0.390303	-0.184825	0.000037
H322	H	0.890303	0.315175	0.500037
N323	N	0.501708	-0.130669	0.770375
N324	N	1.001708	0.369331	1.270375
H325	H	0.480441	-0.112348	0.748217
H326	H	0.980441	0.387652	1.248217
H327	H	0.480768	-0.151626	0.795436
H328	H	0.980768	0.348374	1.295436
N329	N	0.476315	0.680601	0.000043
N330	N	0.976315	1.180601	0.500043
H331	H	0.474561	0.659413	-0.031414
H332	H	0.974561	1.159413	0.468586
H333	H	0.448182	0.700404	0.000062
H334	H	0.948182	1.200404	0.500062
N335	N	0.501712	-0.130664	0.881390
N336	N	1.001712	0.369336	1.381390
H337	H	0.480451	-0.112337	0.903554
H338	H	0.980451	0.387663	1.403554
H339	H	0.520054	-0.151934	0.903520
H340	H	1.020054	0.348066	1.403520
N341	N	0.707539	0.328834	0.000064
N342	N	1.207539	0.828834	0.500064
H343	H	0.701221	0.292149	0.000061
H344	H	1.201221	0.792149	0.500061
H345	H	0.726697	0.340305	0.031521
H346	H	1.226697	0.840305	0.531521
H347	H	0.023513	-0.185643	0.000038
H348	H	0.523513	0.314357	0.500038
H349	H	-0.180236	0.020747	0.000079
H350	H	0.319764	0.520747	0.500079
H351	H	0.477329	-0.155015	0.531730
H352	H	0.977329	0.344985	1.031730
H353	H	-0.067948	-0.184708	0.000043
H354	H	0.432052	0.315292	0.500043
H355	H	-0.033688	0.063392	0.000088
H356	H	0.466312	0.563392	0.500088
N357	N	0.436126	0.291362	0.000029
N358	N	0.936126	0.791362	0.500029
H359	H	0.434368	0.270178	0.031488
H360	H	0.934368	0.770178	0.531488
H361	H	0.434400	0.270201	-0.031446
H362	H	0.934400	0.770201	0.468554
H363	H	0.694892	0.425337	0.000068
H364	H	1.194892	0.925337	0.500068
N365	N	0.664749	0.195624	0.000075
N366	N	1.164749	0.695624	0.500075
H367	H	0.684117	0.189507	-0.031377
H368	H	1.184117	0.689507	0.468623
H369	H	0.684061	0.189492	0.031558
H370	H	1.184061	0.689492	0.531558
H371	H	0.057760	0.062462	0.000086
H372	H	0.557760	0.562462	0.500086
N373	N	0.313025	-0.156116	0.000027
N374	N	0.813025	0.343884	0.500027
H375	H	0.291837	-0.157870	-0.031428
H376	H	0.791837	0.342130	0.468572
H377	H	0.291868	-0.157854	0.031506
H378	H	0.791868	0.342146	0.531506
H379	H	0.646916	0.802416	0.000061
H380	H	1.146916	1.302416	0.500061
N381	N	0.468577	-0.163755	0.635683
N382	N	0.968577	0.336245	1.135683
H383	H	0.447598	-0.184718	0.610658
H384	H	0.947598	0.315282	1.110658
H385	H	0.447350	-0.145388	0.657842
H386	H	0.947350	0.354612	1.157842
N387	N	-0.197255	-0.150924	0.000037
N388	N	0.302745	0.349076	0.500037
H389	H	-0.224732	-0.178605	0.000031
H390	H	0.275268	0.321395	0.500031
H391	H	-0.176607	-0.153066	0.031495
H392	H	0.323393	0.346934	0.531495
H393	H	0.446780	0.391081	0.000021
H394	H	0.946780	0.891081	0.500021
H395	H	0.654093	0.095896	0.000084
H396	H	1.154093	0.595896	0.500084
H397	H	0.647850	0.710951	0.000066
H398	H	1.147850	1.210951	0.500066
H399	H	0.117559	0.061861	0.000091
H400	H	0.617559	0.561861	0.500091
H401	H	0.493214	0.165279	0.000066
H402	H	0.993214	0.665279	0.500066
H403	H	0.693350	0.576586	0.000062
H404	H	1.193350	1.076586	0.500062
N405	N	0.639383	0.006926	0.881385
N406	N	1.139383	0.506926	1.381385
H407	H	0.673647	0.001595	0.872088
H408	H	1.173647	0.501595	1.372088
H409	H	0.634313	0.001879	0.919264
H410	H	1.134313	0.501879	1.419264
N411	N	0.217284	0.072510	0.000098
N412	N	0.717284	0.572510	0.500098
H413	H	0.197517	0.100672	0.000106
H414	H	0.697517	0.600672	0.500106
H415	H	0.238468	0.074226	-0.031360
H416	H	0.738468	0.574226	0.468640
H417	H	0.445250	0.542327	0.000029
H418	H	0.945250	1.042327	0.500029
H419	H	0.477310	-0.155018	0.371483
H420	H	0.977310	0.344982	0.871483
N421	N	0.338302	0.027142	0.000051
N422	N	0.838302	0.527142	0.500051
H423	H	0.365776	0.054825	0.000053
H424	H	0.865776	0.554825	0.500053
H425	H	0.317651	0.029272	0.031512
H426	H	0.817651	0.529272	0.531512
N427	N	0.639353	0.006902	0.229722
N428	N	1.139353	0.506902	0.729722
H429	H	0.660330	0.027862	0.204690
H430	H	1.160330	0.527862	0.704690
H431	H	0.660583	-0.011459	0.251880
H432	H	1.160583	0.488541	0.751880
N433	N	0.639381	0.006923	0.770356
N434	N	1.139381	0.506923	1.270356
H435	H	0.660360	0.027887	0.795381
H436	H	1.160360	0.527887	1.295381
H437	H	0.621038	0.028168	0.748198
H438	H	1.121038	0.528168	1.248198
N439	N	0.501686	-0.130698	0.229752
N440	N	1.001686	0.369302	0.729752
H441	H	0.480709	-0.151668	0.204730
H442	H	0.980709	0.348332	0.704730
H443	H	0.480454	-0.112340	0.251914
H444	H	0.980454	0.387660	0.751914
N445	N	0.468555	-0.163758	0.475438
N446	N	0.968555	0.336242	0.975438
H447	H	0.447575	-0.184717	0.450409
H448	H	0.947575	0.315283	0.950409
H449	H	0.447330	-0.145389	0.497595
H450	H	0.947330	0.354611	0.997595
H451	H	0.510431	-0.121951	0.125780
H452	H	1.010431	0.378049	0.625780
N453	N	0.672478	0.040015	0.524644
N454	N	1.172478	0.540015	1.024644
H455	H	0.693454	0.060980	0.549671
H456	H	1.193454	0.560980	1.049671
H457	H	0.654136	0.061261	0.502484
H458	H	1.154136	0.561261	1.002484
N459	N	0.672480	0.040019	0.635665
N460	N	1.172480	0.540019	1.135665
H461	H	0.667452	0.034995	0.673554
H462	H	1.167452	0.534995	1.173554
H463	H	0.667155	0.074274	0.626331
H464	H	1.167155	0.574274	1.126331
