data_functionalizedCrystal
_audit_creation_method	'MofGen! by Chris Wilmer'
_symmetry_space_group_name_H-M	'P1'
_symmetry_Int_Tables_number	1
_symmetry_cell_setting	triclinic
loop_
_symmetry_equiv_pos_as_xyz
  x,y,z
_cell_length_a	11.792241
_cell_length_b	10.489741
_cell_length_c	10.268362
_cell_angle_alpha	89.995004
_cell_angle_beta	89.999626
_cell_angle_gamma	84.366295
loop_
_atom_site_label
_atom_site_type_symbol
_atom_site_fract_x
_atom_site_fract_y
_atom_site_fract_z
O1	O	1.507380	0.174833	-0.108173
O2	O	1.177088	0.192851	-0.108203
O3	O	1.349750	-0.001782	-0.108180
O4	O	1.334719	0.369465	-0.108197
O5	O	1.349735	-0.001790	0.108421
O6	O	1.177073	0.192843	0.108397
O7	O	1.507365	0.174825	0.108428
Cu8	Cu	1.342218	0.183833	0.128190
Cu9	Cu	1.342236	0.183843	-0.127965
O10	O	1.334703	0.369457	0.108404
C11	C	1.134786	0.191715	0.000093
C12	C	1.008764	0.188327	0.000082
C13	C	0.778035	0.182098	0.000120
C14	C	0.906429	0.185559	0.000099
C15	C	1.348607	-0.049314	0.000120
C16	C	1.345210	-0.190931	0.000117
C17	C	1.235351	-0.258697	0.000098
C18	C	1.287240	-0.351001	0.106898
C19	C	1.287281	-0.350967	-0.106654
C20	C	1.397145	-0.281370	0.107005
C21	C	1.397171	-0.281327	-0.106642
C22	C	1.449140	-0.373603	0.000184
C23	C	1.549667	0.175960	0.000128
C24	C	1.675690	0.179348	0.000131
C25	C	1.335846	0.416989	0.000102
C26	C	1.339243	0.558607	0.000096
N27	N	1.342213	0.183825	0.308356
N28	N	1.342249	0.183840	-0.308131
C29	C	1.342230	0.183840	0.574026
C30	C	1.342217	0.183836	0.426188
H31	H	1.240749	-0.381857	0.197181
O32	O	1.231986	-0.387694	-0.214509
C33	C	1.226090	-0.392048	-0.449026
C34	C	1.288844	-0.350418	-0.326999
H35	H	1.272020	-0.361904	-0.540004
H36	H	1.224789	-0.500576	-0.448594
H37	H	1.134939	-0.344404	-0.448809
H38	H	1.380021	-0.397972	-0.327136
H39	H	1.290052	-0.241880	-0.327477
O40	O	1.452754	-0.244425	-0.214214
C41	C	1.611851	-0.142118	-0.297985
C42	C	1.549044	-0.183873	-0.176039
H43	H	1.689700	-0.093130	-0.267164
H44	H	1.640138	-0.229794	-0.359787
H45	H	1.552152	-0.072436	-0.357293
H46	H	1.608677	-0.253527	-0.116630
H47	H	1.520738	-0.096138	-0.114333
O48	O	1.127522	-0.199294	0.000269
C49	C	0.926615	-0.224563	0.001555
C50	C	1.048666	-0.292000	0.001384
H51	H	0.862827	-0.299486	0.002429
H52	H	0.913603	-0.161488	0.091773
H53	H	0.913065	-0.162776	-0.089515
H54	H	1.062300	-0.353853	0.092392
H55	H	1.061620	-0.354997	-0.088894
O56	O	1.452469	-0.244567	0.214807
C57	C	1.517801	-0.068977	0.335717
C58	C	1.455106	-0.110480	0.213594
H59	H	1.519974	0.039431	0.334762
H60	H	1.471276	-0.098168	0.426658
H61	H	1.608647	-0.117497	0.336095
H62	H	1.364258	-0.061982	0.213089
H63	H	1.501719	-0.081313	0.122708
H64	H	1.539547	-0.423335	0.000252
