data_functionalizedCrystal
_audit_creation_method	'MofGen! by Chris Wilmer'
_symmetry_space_group_name_H-M	'P1'
_symmetry_Int_Tables_number	1
_symmetry_cell_setting	triclinic
loop_
_symmetry_equiv_pos_as_xyz
  x,y,z
_cell_length_a	14.044220
_cell_length_b	17.699103
_cell_length_c	16.176319
_cell_angle_alpha	89.988235
_cell_angle_beta	89.997715
_cell_angle_gamma	88.239969
loop_
_atom_site_label
_atom_site_type_symbol
_atom_site_fract_x
_atom_site_fract_y
_atom_site_fract_z
O1	O	1.257306	0.182443	-0.068676
O2	O	1.590640	0.515776	0.264657
O3	O	1.923973	0.849110	0.597991
O4	O	0.981352	0.175860	-0.068696
O5	O	1.314685	0.509193	0.264637
O6	O	1.648018	0.842526	0.597970
O7	O	1.127116	0.069500	-0.068670
O8	O	1.460449	0.402834	0.264663
O9	O	1.793782	0.736167	0.597997
O10	O	1.111542	0.288802	-0.068703
O11	O	1.444876	0.622136	0.264631
O12	O	1.778209	0.955469	0.597964
O13	O	1.127096	0.069492	0.068823
O14	O	1.460429	0.402825	0.402157
O15	O	1.793762	0.736158	0.735490
O16	O	0.981332	0.175851	0.068797
O17	O	1.314665	0.509184	0.402130
O18	O	1.647998	0.842518	0.735463
O19	O	1.257286	0.182434	0.068817
O20	O	1.590620	0.515768	0.402150
O21	O	1.923953	0.849101	0.735484
Cu22	Cu	1.119307	0.179142	0.081361
Cu23	Cu	1.452641	0.512475	0.414694
Cu24	Cu	1.785974	0.845808	0.748028
Cu25	Cu	1.119331	0.179152	-0.081240
Cu26	Cu	1.452664	0.512486	0.252093
Cu27	Cu	1.785998	0.845819	0.585426
O28	O	1.111522	0.288794	0.068791
O29	O	1.444856	0.622127	0.402124
O30	O	1.778189	0.955460	0.735457
C31	C	0.946034	0.172974	0.000048
C32	C	1.279367	0.506307	0.333381
C33	C	1.612700	0.839640	0.666714
C34	C	0.840827	0.164378	0.000041
C35	C	1.174160	0.497711	0.333374
C36	C	1.507494	0.831044	0.666707
C37	C	1.126545	0.041261	0.000079
C38	C	1.459878	0.374594	0.333412
C39	C	1.793211	0.707927	0.666746
C40	C	1.124861	-0.042873	0.000086
C41	C	1.458194	0.290460	0.333419
C42	C	1.791528	0.623794	0.666752
C43	C	1.114574	-0.559290	-0.074917
C44	C	1.447907	-0.225957	0.258417
C45	C	1.781240	0.107377	0.591750
C46	C	1.116154	-0.480238	-0.074909
C47	C	1.449488	-0.146904	0.258424
C48	C	1.782821	0.186429	0.591757
C49	C	1.116932	-0.440730	0.000043
C50	C	1.450265	-0.107396	0.333377
C51	C	1.783598	0.225937	0.666710
C52	C	1.116138	-0.480278	0.074993
C53	C	1.449471	-0.146945	0.408327
C54	C	1.782805	0.186388	0.741660
C55	C	1.114564	-0.559330	0.074985
C56	C	1.447898	-0.225996	0.408318
C57	C	1.781231	0.107337	0.741652
C58	C	1.122487	-0.161474	0.075028
C59	C	1.455820	0.171859	0.408362
C60	C	1.789153	0.505193	0.741695
C61	C	1.124058	-0.082417	0.075031
C62	C	1.457391	0.250916	0.408364
C63	C	1.790724	0.584249	0.741698
C64	C	1.124077	-0.082382	-0.074866
C65	C	1.457410	0.250951	0.258467
C66	C	1.790743	0.584285	0.591801
C67	C	1.122503	-0.161433	-0.074874
C68	C	1.455836	0.171900	0.258459
C69	C	1.789169	0.505233	0.591792
C70	C	1.121714	-0.200975	0.000075
C71	C	1.455048	0.132358	0.333409
C72	C	1.788381	0.465691	0.666742
C73	C	1.120002	-0.286693	0.000066
C74	C	1.453335	0.046640	0.333400
C75	C	1.786669	0.379974	0.666733
C76	C	1.118637	-0.355013	0.000053
C77	C	1.451970	-0.021680	0.333386
C78	C	1.785304	0.311653	0.666720
C79	C	0.648200	0.148662	0.000060
C80	C	0.981534	0.481996	0.333393
C81	C	1.314867	0.815329	0.666726
C82	C	0.590432	0.209628	0.000054
C83	C	0.923765	0.542962	0.333387
C84	C	1.257099	0.876295	0.666721
C85	C	0.483248	0.200884	0.000064
C86	C	0.816581	0.534217	0.333398
C87	C	1.149915	0.867551	0.666731
C88	C	0.755394	0.157405	0.000049
C89	C	1.088728	0.490739	0.333382
C90	C	1.422061	0.824072	0.666716
C91	C	1.292604	0.185321	0.000071
C92	C	1.625938	0.518654	0.333404
C93	C	1.959271	0.851987	0.666738
C94	C	1.397811	0.193916	0.000073
C95	C	1.731145	0.527250	0.333406
C96	C	2.064478	0.860583	0.666739
C97	C	1.112094	0.317033	0.000040
C98	C	1.445427	0.650367	0.333373
C99	C	1.778760	0.983700	0.666707
C100	C	1.113777	0.401167	0.000028
C101	C	1.447111	0.734500	0.333361
C102	C	1.780444	1.067834	0.666694
N103	N	1.119297	0.179135	0.195726
N104	N	1.452631	0.512468	0.529060
N105	N	1.785964	0.845801	0.862393
N106	N	1.119348	0.179154	-0.195606
N107	N	1.452681	0.512487	0.137728
N108	N	1.786015	0.845821	0.471061
C109	C	1.183861	0.132061	0.239002
C110	C	1.517194	0.465394	0.572336
C111	C	1.850528	0.798728	0.905669
C112	C	1.183866	0.132061	0.325549
C113	C	1.517199	0.465394	0.658883
C114	C	1.850533	0.798727	0.992216
C115	C	1.119311	0.179138	0.368819
C116	C	1.452644	0.512471	0.702152
C117	C	1.785978	0.845805	1.035486
C118	C	1.054740	0.226214	0.325537
C119	C	1.388074	0.559547	0.658870
C120	C	1.721407	0.892880	0.992204
C121	C	1.054732	0.226210	0.238991
C122	C	1.388065	0.559543	0.572325
C123	C	1.721398	0.892876	0.905658
C124	C	1.054773	0.226230	0.674565
C125	C	1.388106	0.559563	1.007899
C126	C	1.721439	0.892897	1.341232
C127	C	1.054788	0.226232	0.761117
C128	C	1.388122	0.559565	1.094450
C129	C	1.721455	0.892899	1.427783
C130	C	1.183907	0.132081	0.761123
C131	C	1.517240	0.465414	1.094456
C132	C	1.850574	0.798748	1.427790
C133	C	1.183898	0.132077	0.674578
C134	C	1.517232	0.465410	1.007911
C135	C	1.850565	0.798744	1.341244
C136	C	1.119325	0.179149	0.631303
C137	C	1.452658	0.512483	0.964637
C138	C	1.785992	0.845816	1.297970
C139	C	1.119319	0.179148	0.537459
C140	C	1.452653	0.512481	0.870792
C141	C	1.785986	0.845815	1.204126
C142	C	1.119320	0.179144	0.462662
C143	C	1.452654	0.512477	0.795995
C144	C	1.785987	0.845810	1.129328
H145	H	1.116804	-0.448045	-0.135936
H146	H	1.450138	-0.114712	0.197397
H147	H	1.783471	0.218622	0.530730
H148	H	0.621473	0.268390	0.000041
H149	H	0.954806	0.601723	0.333374
H150	H	1.288140	0.935056	0.666708
N151	N	1.124925	-0.039759	-0.155724
N152	N	1.458259	0.293575	0.177610
N153	N	1.791592	0.626908	0.510943
H154	H	1.065920	-0.051359	-0.188476
H155	H	1.399254	0.281974	0.144858
H156	H	1.732587	0.615307	0.478191
H157	H	1.126075	0.016305	-0.144312
H158	H	1.459408	0.349639	0.189022
H159	H	1.792742	0.682972	0.522355
N160	N	1.253556	0.081307	0.807797
N161	N	1.586889	0.414640	1.141131
N162	N	1.920222	0.747973	1.474464
H163	H	1.243768	0.088448	0.869190
H164	H	1.577101	0.421781	1.202523
H165	H	1.910434	0.755115	1.535856
H166	H	1.242734	0.026877	0.792683
H167	H	1.576068	0.360210	1.126017
H168	H	1.909401	0.693544	1.459350
N169	N	0.607083	0.070833	0.000077
N170	N	0.940416	0.404166	0.333411
N171	N	1.273750	0.737500	0.666744
H172	H	0.566562	0.064503	-0.050888
H173	H	0.899895	0.397836	0.282446
H174	H	1.233228	0.731170	0.615779
H175	H	0.660616	0.031404	0.000110
H176	H	0.993949	0.364737	0.333443
H177	H	1.327282	0.698071	0.666777
N178	N	1.116975	-0.437662	0.155832
N179	N	1.450308	-0.104329	0.489165
N180	N	1.783642	0.229005	0.822498
H181	H	1.057971	-0.449263	0.188594
H182	H	1.391304	-0.115929	0.521927
H183	H	1.724637	0.217404	0.855260
H184	H	1.175463	-0.453609	0.188537
H185	H	1.508796	-0.120275	0.521871
H186	H	1.842130	0.213058	0.855204
H187	H	1.113932	-0.591451	-0.135952
H188	H	1.447265	-0.258118	0.197381
H189	H	1.780598	0.075215	0.530715
N190	N	1.253495	0.081289	0.192336
N191	N	1.586828	0.414622	0.525669
N192	N	1.920161	0.747955	0.859003
H193	H	1.294395	0.051467	0.232887
H194	H	1.627728	0.384801	0.566220
H195	H	1.961061	0.718134	0.899554
H196	H	1.217288	0.045365	0.156441
H197	H	1.550621	0.378699	0.489774
H198	H	1.883955	0.712032	0.823107
N199	N	1.121686	-0.204060	-0.155707
N200	N	1.455019	0.129274	0.177627
N201	N	1.788353	0.462607	0.510960
H202	H	1.179767	-0.239019	-0.159018
H203	H	1.513100	0.094314	0.174316
H204	H	1.846434	0.427648	0.507649
H205	H	1.062275	-0.234654	-0.159007
H206	H	1.395608	0.098680	0.174327
H207	H	1.728942	0.432013	0.507660
N208	N	1.253535	0.081317	0.372227
N209	N	1.586868	0.414650	0.705560
N210	N	1.920201	0.747983	1.038893
H211	H	1.294443	0.051506	0.331683
H212	H	1.627777	0.384840	0.665016
H213	H	1.961110	0.718173	0.998350
H214	H	1.295349	0.113168	0.408105
H215	H	1.628682	0.446502	0.741439
H216	H	1.962015	0.779835	1.074772
N217	N	0.985100	0.276987	0.192314
N218	N	1.318433	0.610321	0.525647
N219	N	1.651767	0.943654	0.858981
H220	H	0.994887	0.269840	0.130922
H221	H	1.328221	0.603174	0.464256
H222	H	1.661554	0.936507	0.797589
H223	H	0.917893	0.263674	0.207454
H224	H	1.251226	0.597007	0.540788
H225	H	1.584560	0.930341	0.874121
H226	H	1.236468	0.093745	0.639350
H227	H	1.569801	0.427078	0.972684
H228	H	1.903135	0.760411	1.306017
H229	H	1.124686	-0.050252	0.136070
H230	H	1.458019	0.283081	0.469403
H231	H	1.791353	0.616415	0.802737
H232	H	1.002216	0.264569	0.796345
H233	H	1.335550	0.597903	1.129679
H234	H	1.668883	0.931236	1.463012
H235	H	1.002197	0.264559	0.639338
H236	H	1.335530	0.597893	0.972671
H237	H	1.668863	0.931226	1.306005
H238	H	1.121846	-0.193660	0.136057
H239	H	1.455179	0.139674	0.469390
H240	H	1.788512	0.473007	0.802724
H241	H	1.113915	-0.591525	0.136013
H242	H	1.447249	-0.258191	0.469346
H243	H	1.780582	0.075142	0.802679
H244	H	1.002174	0.264542	0.360772
H245	H	1.335507	0.597876	0.694105
H246	H	1.668840	0.931209	1.027439
