data_functionalizedCrystal
_audit_creation_method	'MofGen! by Chris Wilmer'
_symmetry_space_group_name_H-M	'P1'
_symmetry_Int_Tables_number	1
_symmetry_cell_setting	triclinic
loop_
_symmetry_equiv_pos_as_xyz
  x,y,z
_cell_length_a	16.120484
_cell_length_b	16.120566
_cell_length_c	16.120256
_cell_angle_alpha	89.874858
_cell_angle_beta	95.616173
_cell_angle_gamma	89.831930
loop_
_atom_site_label
_atom_site_type_symbol
_atom_site_fract_x
_atom_site_fract_y
_atom_site_fract_z
Zn1	Zn	-0.422272	-1.224983	-0.554882
Zn2	Zn	0.077728	-0.724983	-0.054882
Zn3	Zn	-0.554952	-1.224879	-0.422186
Zn4	Zn	-0.054952	-0.724879	0.077814
Zn5	Zn	-0.408184	-1.093723	-0.408117
Zn6	Zn	0.091816	-0.593723	0.091883
Zn7	Zn	-0.554189	-1.078876	-0.554112
Zn8	Zn	-0.054189	-0.578876	-0.054112
O9	O	-0.484899	-1.155615	-0.484824
O10	O	0.015101	-0.655615	0.015176
O11	O	-0.446087	-1.341005	-0.543490
O12	O	0.053913	-0.841005	-0.043490
O13	O	-0.529906	-1.213651	-0.303687
O14	O	-0.029906	-0.713651	0.196313
O15	O	-0.293422	-1.117392	-0.422020
O16	O	0.206578	-0.617392	0.077980
O17	O	-0.543566	-1.340928	-0.445999
O18	O	-0.043566	-0.840928	0.054001
O19	O	-0.303772	-1.213828	-0.529848
O20	O	0.196228	-0.713828	-0.029848
O21	O	-0.422076	-1.117291	-0.293350
O22	O	0.077924	-0.617291	0.206650
O23	O	-0.421337	-0.975718	-0.421273
O24	O	0.078663	-0.475718	0.078727
O25	O	-0.542267	-1.092088	-0.670847
O26	O	-0.042267	-0.592088	-0.170847
O27	O	-0.528607	-0.964810	-0.528535
O28	O	-0.028607	-0.464810	-0.028535
O29	O	-0.445348	-1.199432	-0.671413
O30	O	0.054652	-0.699432	-0.171413
O31	O	-0.671482	-1.199254	-0.445252
O32	O	-0.171482	-0.699254	0.054748
O33	O	-0.670921	-1.091987	-0.542177
O34	O	-0.170921	-0.591987	-0.042177
C35	C	-0.473361	-0.940177	-0.473294
C36	C	0.026639	-0.440177	0.026706
C37	C	-0.468446	-0.848010	-0.468382
C38	C	0.031554	-0.348010	0.031618
C39	C	-0.459453	-0.679259	-0.459420
C40	C	0.040547	-0.179259	0.040580
C41	C	-0.510417	-0.632808	-0.510238
C42	C	-0.010417	-0.132808	-0.010238
C43	C	-0.505414	-0.538909	-0.505252
C44	C	-0.005414	-0.038909	-0.005252
C45	C	-0.464456	-0.773166	-0.464405
C46	C	0.035544	-0.273166	0.035595
C47	C	-0.701445	-1.144020	-0.495177
C48	C	-0.201445	-0.644020	0.004823
C49	C	-0.794089	-1.139133	-0.499638
C50	C	-0.294089	-0.639133	0.000362
C51	C	-0.963712	-1.130216	-0.507800
C52	C	-0.463712	-0.630216	-0.007800
C53	C	-1.005254	-1.181162	-0.461870
C54	C	-0.505254	-0.681162	0.038130
C55	C	-1.099639	-1.176201	-0.466412
C56	C	-0.599639	-0.676201	0.033588
C57	C	-0.869320	-1.135177	-0.503260
C58	C	-0.369320	-0.635177	-0.003260
C59	C	-0.267511	-1.167278	-0.474450
C60	C	0.232489	-0.667278	0.025550
C61	C	-0.174872	-1.172248	-0.470030
C62	C	0.325128	-0.672248	0.029970
C63	C	-0.495294	-1.144115	-0.702217
C64	C	0.004706	-0.644115	-0.202217
C65	C	-0.499723	-1.139215	-0.794857
C66	C	0.000277	-0.639215	-0.294857
C67	C	-0.496485	-0.371895	-0.496387
C68	C	0.003515	0.128105	0.003613
C69	C	-0.501427	-0.464062	-0.501279
C70	C	-0.001427	0.035938	-0.001279
C71	C	-0.461779	-1.181171	-1.006024
C72	C	0.038221	-0.681171	-0.506024
C73	C	-0.507774	-1.130241	-0.964463
C74	C	-0.007774	-0.630241	-0.464463
C75	C	-0.503293	-1.135236	-0.870085
C76	C	-0.003293	-0.635236	-0.370085
C77	C	-0.466259	-1.176178	-1.100410
C78	C	0.033741	-0.676178	-0.600410
C79	C	-0.474488	-1.167121	-0.268277
C80	C	0.025512	-0.667121	0.231723
C81	C	-0.469832	-1.172195	-0.175635
C82	C	0.030168	-0.672195	0.324365
H83	H	-0.412068	-0.648508	-0.412172
H84	H	0.087932	-0.148508	0.087828
H85	H	-0.550513	-1.082884	-0.999760
H86	H	-0.050513	-0.582884	-0.499760
C87	C	-0.404045	-1.245147	-0.958346
C88	C	0.095955	-0.745147	-0.458346
C89	C	-0.399599	-1.250115	-0.862604
C90	C	0.100401	-0.750115	-0.362604
C91	C	-0.341871	-1.314093	-0.814915
C92	C	0.158129	-0.814093	-0.314915
C93	C	-0.288589	-1.373103	-0.862969
C94	C	0.211411	-0.873103	-0.362969
C95	C	-0.293034	-1.368136	-0.958717
C96	C	0.206966	-0.868136	-0.458717
C97	C	-0.350762	-1.304158	-1.006405
C98	C	0.149238	-0.804158	-0.506405
H99	H	-0.439043	-1.206431	-0.827027
H100	H	0.060957	-0.706431	-0.327027
H101	H	-0.338581	-1.317769	-0.744036
H102	H	0.161419	-0.817769	-0.244036
H103	H	-0.245855	-1.420463	-0.827667
H104	H	0.254145	-0.920463	-0.327667
H105	H	-0.253589	-1.411821	-0.994294
H106	H	0.246411	-0.911821	-0.494294
H107	H	-0.354051	-1.300482	-1.077285
H108	H	0.145949	-0.800482	-0.577285
H109	H	-0.557806	-0.663560	-0.557491
H110	H	-0.057806	-0.163560	-0.057491
H111	H	-0.969934	-1.228504	-0.419137
H112	H	-0.469934	-0.728504	0.080863
C113	C	-1.011420	-1.066259	-0.565523
C114	C	-0.511420	-0.566259	-0.065523
C115	C	-1.107169	-1.061327	-0.570034
C116	C	-0.607169	-0.561327	-0.070034
C117	C	-1.154888	-0.997369	-0.627754
C118	C	-0.654888	-0.497369	-0.127754
C119	C	-1.106857	-0.938344	-0.680964
C120	C	-0.606857	-0.438344	-0.180964
C121	C	-1.011102	-0.943274	-0.676454
C122	C	-0.511102	-0.443274	-0.176454
C123	C	-0.963383	-1.007231	-0.618734
C124	C	-0.463383	-0.507231	-0.118734
H125	H	-1.142730	-1.105023	-0.530644
H126	H	-0.642730	-0.605023	-0.030644
H127	H	-1.225773	-0.993720	-0.631092
H128	H	-0.725773	-0.493720	-0.131092
H129	H	-1.142181	-0.890998	-0.723692
H130	H	-0.642181	-0.390998	-0.223692
H131	H	-0.975541	-0.899578	-0.715844
H132	H	-0.475541	-0.399578	-0.215844
H133	H	-0.892498	-1.010881	-0.615396
H134	H	-0.392498	-0.510881	-0.115396
