data_functionalizedCrystal
_audit_creation_method	'MofGen! by Chris Wilmer'
_symmetry_space_group_name_H-M	'P1'
_symmetry_Int_Tables_number	1
_symmetry_cell_setting	triclinic
loop_
_symmetry_equiv_pos_as_xyz
  x,y,z
_cell_length_a	16.959455
_cell_length_b	19.120786
_cell_length_c	16.959447
_cell_angle_alpha	92.473411
_cell_angle_beta	90.020374
_cell_angle_gamma	92.461932
loop_
_atom_site_label
_atom_site_type_symbol
_atom_site_fract_x
_atom_site_fract_y
_atom_site_fract_z
Zn1	Zn	1.194928	-0.279672	0.433590
Zn2	Zn	1.694928	0.220328	0.933590
Zn3	Zn	1.189199	-0.397140	0.295764
Zn4	Zn	1.689199	0.102860	0.795764
Zn5	Zn	1.062756	-0.279694	0.301413
Zn6	Zn	1.562756	0.220306	0.801413
Zn7	Zn	1.057073	-0.397088	0.427892
Zn8	Zn	1.557073	0.102912	0.927892
O9	O	1.125989	-0.338399	0.364665
O10	O	1.625989	0.161601	0.864665
O11	O	1.304779	-0.295267	0.415329
O12	O	1.804779	0.204733	0.915329
O13	O	1.172407	-0.381592	0.185901
O14	O	1.672407	0.118408	0.685901
O15	O	1.085065	-0.181401	0.323696
O16	O	1.585065	0.318599	0.823696
O17	O	1.300570	-0.381570	0.314068
O18	O	1.800570	0.118430	0.814068
O19	O	1.182172	-0.181385	0.420806
O20	O	1.682172	0.318615	0.920806
O21	O	1.079510	-0.295305	0.190051
O22	O	1.579510	0.204695	0.690051
O23	O	0.951392	-0.295254	0.318170
O24	O	1.451392	0.204746	0.818170
O25	O	1.075379	-0.381481	0.539260
O26	O	1.575379	0.118519	1.039260
O27	O	0.947216	-0.381503	0.411093
O28	O	1.447216	0.118497	0.911093
O29	O	1.176661	-0.295216	0.543447
O30	O	1.676661	0.204784	1.043447
O31	O	1.166896	-0.495424	0.308542
O32	O	1.666896	0.004576	0.808542
O33	O	1.069823	-0.495385	0.405616
O34	O	1.569823	0.004615	0.905616
C35	C	0.920624	-0.338376	0.364626
C36	C	1.420624	0.161624	0.864626
C37	C	0.832767	-0.338383	0.364627
C38	C	1.332767	0.161617	0.864627
C39	C	0.459090	-0.383292	0.311915
C40	C	0.959090	0.116708	0.811915
C41	C	0.463488	-0.293563	0.417508
C42	C	0.963488	0.206437	0.917508
C43	C	0.546034	-0.293552	0.417489
C44	C	1.046034	0.206448	0.917489
C45	C	0.585113	-0.338412	0.364684
C46	C	1.085113	0.161588	0.864684
C47	C	0.541644	-0.383284	0.311896
C48	C	1.041644	0.116716	0.811896
C49	C	0.589509	-0.248686	0.470281
C50	C	1.089509	0.251314	0.970281
C51	C	0.672060	-0.248673	0.470265
C52	C	1.172060	0.251327	0.970265
C53	C	0.711140	-0.293530	0.417455
C54	C	1.211140	0.206470	0.917455
C55	C	0.667667	-0.338403	0.364665
C56	C	1.167667	0.161597	0.864665
C57	C	0.706745	-0.383263	0.311859
C58	C	1.206745	0.116737	0.811859
C59	C	0.663273	-0.428133	0.259065
C60	C	1.163273	0.071867	0.759065
C61	C	0.580724	-0.428141	0.259086
C62	C	1.080724	0.071859	0.759086
C63	C	0.793689	-0.293523	0.417433
C64	C	1.293689	0.206477	0.917433
C65	C	0.789299	-0.383255	0.311840
C66	C	1.289299	0.116745	0.811840
C67	C	1.117143	-0.520890	0.355865
C68	C	1.617143	-0.020890	0.855865
C69	C	1.113431	-0.598960	0.352127
C70	C	1.613431	-0.098960	0.852127
C71	C	1.162207	-0.635569	0.400972
C72	C	1.662207	-0.135569	0.900972
C73	C	1.158716	-0.708925	0.397461
C74	C	1.658716	-0.208925	0.897461
C75	C	1.106452	-0.745670	0.345100
C76	C	1.606452	-0.245670	0.845100
C77	C	1.057670	-0.709056	0.296253
C78	C	1.557670	-0.209056	0.796253
C79	C	1.061158	-0.635702	0.299769
C80	C	1.561158	-0.135702	0.799769
C81	C	1.093391	-0.967156	0.331957
C82	C	1.593391	-0.467156	0.831957
C83	C	1.089908	-1.040515	0.328444
C84	C	1.589908	-0.540515	0.828444
C85	C	1.190954	-1.040379	0.429653
C86	C	1.690954	-0.540379	0.929653
C87	C	1.194440	-0.967023	0.433160
C88	C	1.694440	-0.467023	0.933160
C89	C	1.145655	-0.930416	0.384316
C90	C	1.645655	-0.430416	0.884316
C91	C	1.102884	-0.820651	0.341508
C92	C	1.602884	-0.320651	0.841508
C93	C	1.149220	-0.855436	0.387913
C94	C	1.649220	-0.355436	0.887913
C95	C	1.332156	-0.338422	0.364704
C96	C	1.832156	0.161578	0.864704
C97	C	1.420012	-0.338432	0.364721
C98	C	1.920012	0.161568	0.864721
C99	C	1.126025	-0.338341	0.570836
C100	C	1.626025	0.161659	1.070836
C101	C	1.126040	-0.338316	0.658694
C102	C	1.626040	0.161684	1.158694
C103	C	1.134891	-0.155195	0.373516
C104	C	1.634891	0.344805	0.873516
C105	C	1.138685	-0.077124	0.377289
C106	C	1.638685	0.422876	0.877289
C107	C	1.126001	-0.338406	0.159298
C108	C	1.626001	0.161594	0.659298
C109	C	1.126149	-0.338233	0.071450
C110	C	1.626149	0.161767	0.571450
C111	C	1.073405	-0.383156	1.027996
C112	C	1.573405	0.116844	1.527996
C113	C	1.178871	-0.293328	1.032351
C114	C	1.678871	0.206672	1.532351
C115	C	1.178849	-0.293342	0.949804
C116	C	1.678849	0.206658	1.449804
C117	C	1.126105	-0.338265	0.906349
C118	C	1.626105	0.161735	1.406349
C119	C	1.073383	-0.383173	0.945441
C120	C	1.573383	0.116827	1.445441
C121	C	1.231576	-0.248440	0.910706
C122	C	1.731576	0.251560	1.410706
C123	C	1.231557	-0.248454	0.828154
C124	C	1.731557	0.251546	1.328154
C125	C	1.178808	-0.293374	0.784698
C126	C	1.678808	0.206626	1.284698
C127	C	1.126084	-0.338283	0.823795
C128	C	1.626084	0.161717	1.323795
C129	C	1.073340	-0.383206	0.780340
C130	C	1.573340	0.116794	1.280340
C131	C	1.020610	-0.428112	0.819436
C132	C	1.520610	0.071888	1.319436
C133	C	1.020635	-0.428093	0.901985
C134	C	1.520635	0.071907	1.401985
C135	C	1.178784	-0.293393	0.702149
C136	C	1.678784	0.206607	1.202149
C137	C	1.073318	-0.383224	0.697786
C138	C	1.573318	0.116776	1.197786
H139	H	0.557685	-0.212168	0.513278
H140	H	1.057685	0.287832	1.013278
H141	H	1.053669	-0.937356	0.292185
H142	H	1.553669	-0.437356	0.792185
H143	H	1.198442	-0.738728	0.437229
H144	H	1.698442	-0.238728	0.937229
N145	N	0.966775	-0.473965	0.941909
N146	N	1.466775	0.026035	1.441909
N147	N	0.968849	-0.538781	0.929553
N148	N	1.468849	-0.038781	1.429553
H149	H	0.930806	-0.571177	0.957748
H150	H	1.430806	-0.071177	1.457748
H151	H	1.274522	-0.211871	0.946092
H152	H	1.774522	0.288129	1.446092
H153	H	1.060333	-0.850578	0.298874
H154	H	1.560333	-0.350578	0.798874
N155	N	1.036544	-1.078040	0.274921
N156	N	1.536544	-0.578040	0.774921
N157	N	0.993010	-1.045348	0.231295
N158	N	1.493010	-0.545348	0.731295
H159	H	0.955335	-1.071850	0.193485
H160	H	1.455335	-0.571850	0.693485
N161	N	1.019534	-0.429023	1.067913
N162	N	1.519534	0.070977	1.567913
N163	N	0.972441	-0.469122	1.029102
N164	N	1.472441	0.030878	1.529102
H165	H	0.934389	-0.501512	1.057293
H166	H	1.434389	-0.001512	1.557293
N167	N	1.215606	-0.598049	0.454455
N168	N	1.715606	-0.098049	0.954455
N169	N	1.259152	-0.630748	0.498063
N170	N	1.759152	-0.130748	0.998063
H171	H	1.296866	-0.604251	0.535838
H172	H	1.796866	-0.104251	1.035838
N173	N	0.838081	-0.247694	0.471363
N174	N	1.338081	0.252306	0.971363
N175	N	0.803180	-0.207648	0.518510
N176	N	1.303180	0.292352	1.018510
H177	H	0.834532	-0.175278	0.556601
H178	H	1.334532	0.324722	1.056601
H179	H	0.707448	-0.212137	0.513253
H180	H	1.207448	0.287863	1.013253
N181	N	1.285408	-0.202590	0.788208
N182	N	1.785408	0.297410	1.288208
N183	N	1.334561	-0.227315	0.740947
N184	N	1.834561	0.272685	1.240947
H185	H	1.372592	-0.194922	0.712733
H186	H	1.872592	0.305078	1.212733
N187	N	0.414703	-0.429123	0.257979
N188	N	0.914703	0.070877	0.757979
N189	N	0.424117	-0.424382	0.185279
N190	N	0.924117	0.075618	0.685279
H191	H	0.392769	-0.456751	0.147184
H192	H	0.892769	0.043249	0.647184
N193	N	1.247835	-0.929502	0.486647
N194	N	1.747835	-0.429502	0.986647
N195	N	1.291383	-0.962198	0.530255
N196	N	1.791383	-0.462198	1.030255
H197	H	1.329097	-0.935699	0.568029
H198	H	1.829097	-0.435699	1.068029
N199	N	1.232648	-0.247528	0.662226
N200	N	1.732648	0.252472	1.162226
N201	N	1.279741	-0.207427	0.701033
N202	N	1.779741	0.292573	1.201033
H203	H	1.317785	-0.175031	0.672839
H204	H	1.817785	0.324969	1.172839
H205	H	1.230671	-1.070193	0.469419
H206	H	1.730671	-0.570193	0.969419
H207	H	0.977670	-0.464692	0.784044
H208	H	1.477670	0.035308	1.284044
N209	N	1.004281	-0.746599	0.242778
N210	N	1.504281	-0.246599	0.742778
N211	N	1.001173	-0.812093	0.239645
N212	N	1.501173	-0.312093	0.739645
H213	H	0.963466	-0.838608	0.201877
H214	H	1.463466	-0.338608	0.701877
H215	H	0.695101	-0.464662	0.216074
H216	H	1.195101	0.035338	0.716074
H217	H	0.821110	-0.419783	0.268836
H218	H	1.321110	0.080217	0.768836
H219	H	0.545322	-0.464671	0.216103
H220	H	1.045322	0.035329	0.716103
H221	H	1.021438	-0.605896	0.259995
H222	H	1.521438	-0.105896	0.759995
H223	H	1.191771	-0.825516	0.430548
H224	H	1.691771	-0.325516	0.930548
N225	N	0.423561	-0.247754	0.471447
N226	N	0.923561	0.252246	0.971447
N227	N	0.349857	-0.247772	0.471459
N228	N	0.849857	0.252228	0.971459
H229	H	0.321654	-0.215417	0.509555
H230	H	0.821654	0.284583	1.009555
N231	N	1.019449	-0.429122	0.653400
N232	N	1.519449	0.070878	1.153400
N233	N	1.045073	-0.473897	0.605177
N234	N	1.545073	0.026103	1.105177
H235	H	1.007029	-0.506313	0.573829
H236	H	1.507029	-0.006313	1.073829
N237	N	1.232747	-0.247454	1.076747
N238	N	1.732747	0.252546	1.576747
N239	N	1.232763	-0.247450	1.150451
N240	N	1.732763	0.252550	1.650451
H241	H	1.270815	-0.215050	1.181810
H242	H	1.770815	0.284950	1.681810
