data_functionalizedCrystal
_audit_creation_method	'MofGen! by Chris Wilmer'
_symmetry_space_group_name_H-M	'P1'
_symmetry_Int_Tables_number	1
_symmetry_cell_setting	triclinic
loop_
_symmetry_equiv_pos_as_xyz
  x,y,z
_cell_length_a	19.805407
_cell_length_b	13.897447
_cell_length_c	19.805399
_cell_angle_alpha	89.974846
_cell_angle_beta	89.978486
_cell_angle_gamma	90.018777
loop_
_atom_site_label
_atom_site_type_symbol
_atom_site_fract_x
_atom_site_fract_y
_atom_site_fract_z
Zn1	Zn	1.034750	-0.384043	-0.382821
Zn2	Zn	1.034684	-0.545353	-0.269641
Zn3	Zn	0.921570	-0.384072	-0.269637
Zn4	Zn	0.921542	-0.545296	-0.382778
O5	O	0.978136	-0.464691	-0.326219
O6	O	1.129458	-0.405453	-0.367827
O7	O	1.019663	-0.523995	-0.174923
O8	O	0.936623	-0.249086	-0.284667
O9	O	1.129409	-0.523967	-0.284674
O10	O	1.019776	-0.249065	-0.367823
O11	O	0.936559	-0.405502	-0.174921
O12	O	0.826850	-0.405446	-0.284626
O13	O	0.936575	-0.523869	-0.477501
O14	O	0.826829	-0.523897	-0.367750
O15	O	1.019749	-0.405398	-0.477532
O16	O	1.019636	-0.680327	-0.284632
O17	O	0.936511	-0.680285	-0.367754
C18	C	0.802280	-0.464669	-0.326183
C19	C	0.727048	-0.464683	-0.326184
C20	C	0.265264	-0.526484	-0.369478
C21	C	0.335953	-0.526483	-0.369463
C22	C	0.371287	-0.464714	-0.326246
C23	C	0.335929	-0.402950	-0.283035
C24	C	0.265241	-0.402958	-0.283046
C25	C	0.621002	-0.402921	-0.282987
C26	C	0.691694	-0.402916	-0.282981
C27	C	0.691713	-0.526446	-0.369404
C28	C	0.621026	-0.526453	-0.369416
C29	C	0.585674	-0.464693	-0.326202
C30	C	0.509026	-0.464697	-0.326218
C31	C	0.447934	-0.464705	-0.326233
C32	C	0.978081	-0.715305	-0.326203
C33	C	0.978120	-0.822519	-0.326219
C34	C	0.978153	-0.909589	-0.326235
C35	C	0.978200	-1.018821	-0.326252
C36	C	1.154679	-0.464713	-0.326256
C37	C	1.229911	-0.464723	-0.326271
C38	C	0.978166	-0.464624	-0.502762
C39	C	0.978179	-0.464595	-0.577994
C40	C	0.978210	-0.213098	-0.326250
C41	C	0.978242	-0.105884	-0.326263
C42	C	0.934919	-0.402890	-0.613336
C43	C	0.934928	-0.402872	-0.684025
C44	C	0.978201	-0.464554	-0.719370
C45	C	1.021463	-0.526266	-0.684023
C46	C	1.021450	-0.526289	-0.613335
C47	C	1.021517	-0.526175	-0.969096
C48	C	1.021528	-0.526146	-1.039788
C49	C	0.934995	-0.402759	-1.039785
C50	C	0.934982	-0.402781	-0.969098
C51	C	0.978241	-0.464496	-0.933757
C52	C	0.978229	-0.464517	-0.857109
C53	C	0.978217	-0.464529	-0.796017
C54	C	0.978146	-0.464688	-0.150363
C55	C	0.978264	-0.464445	-0.075132
H56	H	0.364703	-0.352662	-0.247843
N57	N	1.068115	-0.592834	-0.575214
H58	H	1.061540	-0.583490	-0.525072
H59	H	1.057563	-0.661719	-0.587558
N60	N	1.068203	-0.592678	-1.077913
H61	H	1.095605	-0.631780	-1.044799
H62	H	1.040640	-0.637296	-1.107232
H63	H	0.592227	-0.352636	-0.247798
H64	H	1.056694	-0.576493	-0.712806
H65	H	0.236501	-0.576778	-0.404674
H66	H	0.236458	-0.352663	-0.247865
N67	N	0.888247	-0.336351	-0.575223
H68	H	0.839884	-0.351321	-0.587513
H69	H	0.894859	-0.345750	-0.525091
H70	H	0.899699	-0.352629	-0.712797
N71	N	0.888326	-0.336208	-1.077905
H72	H	0.860913	-0.297135	-1.044787
H73	H	0.915894	-0.291563	-1.107248
N74	N	0.888318	-0.336241	-0.930976
H75	H	0.860914	-0.297145	-0.964092
H76	H	0.856977	-0.375504	-0.901632
N77	N	0.374085	-0.593101	-0.416060
H78	H	0.340975	-0.632228	-0.443442
H79	H	0.403440	-0.553894	-0.447425
N80	N	1.068173	-0.592733	-0.930981
H81	H	1.095590	-0.631802	-0.964098
H82	H	1.099502	-0.553484	-0.901663
H83	H	0.720505	-0.576736	-0.404589
N84	N	0.582916	-0.593077	-0.416026
H85	H	0.616039	-0.632208	-0.443393
H86	H	0.553568	-0.637664	-0.388418
H87	H	0.720461	-0.352613	-0.247786
