data_functionalizedCrystal
_audit_creation_method	'MofGen! by Chris Wilmer'
_symmetry_space_group_name_H-M	'P1'
_symmetry_Int_Tables_number	1
_symmetry_cell_setting	triclinic
loop_
_symmetry_equiv_pos_as_xyz
  x,y,z
_cell_length_a	17.077404
_cell_length_b	16.959454
_cell_length_c	17.077396
_cell_angle_alpha	90.024615
_cell_angle_beta	89.982480
_cell_angle_gamma	89.981679
loop_
_atom_site_label
_atom_site_type_symbol
_atom_site_fract_x
_atom_site_fract_y
_atom_site_fract_z
Zn1	Zn	1.200037	0.314772	-0.443874
Zn2	Zn	1.700037	0.814772	0.056126
Zn3	Zn	1.199949	0.446962	-0.312619
Zn4	Zn	1.699949	0.946962	0.187381
Zn5	Zn	1.068774	0.314791	-0.312621
Zn6	Zn	1.568774	0.814791	0.187379
Zn7	Zn	1.068737	0.446902	-0.443842
Zn8	Zn	1.568737	0.946902	0.056158
O9	O	1.134374	0.380857	-0.378239
O10	O	1.634374	0.880857	0.121761
O11	O	1.309872	0.332325	-0.426475
O12	O	1.809872	0.832325	0.073525
O13	O	1.182527	0.429462	-0.202772
O14	O	1.682527	0.929462	0.297228
O15	O	1.086239	0.204178	-0.330047
O16	O	1.586239	0.704178	0.169953
O17	O	1.309808	0.429444	-0.330043
O18	O	1.809808	0.929444	0.169957
O19	O	1.182677	0.204164	-0.426478
O20	O	1.682677	0.704164	0.073522
O21	O	1.086153	0.332356	-0.202774
O22	O	1.586153	0.832356	0.297226
O23	O	0.958922	0.332298	-0.330016
O24	O	1.458922	0.832298	0.169984
O25	O	1.086175	0.429342	-0.553693
O26	O	1.586175	0.929342	-0.053693
O27	O	0.958895	0.429360	-0.426423
O28	O	1.458895	0.929360	0.073577
O29	O	1.182641	0.332267	-0.553717
O30	O	1.682641	0.832267	-0.053717
O31	O	1.182491	0.557565	-0.330011
O32	O	1.682491	1.057565	0.169989
O33	O	1.086090	0.557521	-0.426420
O34	O	1.586090	1.057521	0.073580
C35	C	0.930426	0.380825	-0.378216
C36	C	1.430426	0.880825	0.121784
C37	C	0.843176	0.380831	-0.378225
C38	C	1.343176	0.880831	0.121775
C39	C	0.467368	0.431510	-0.428382
C40	C	0.967368	0.931510	0.071618
C41	C	0.549349	0.431500	-0.428370
C42	C	1.049349	0.931500	0.071630
C43	C	0.590327	0.380878	-0.378252
C44	C	1.090327	0.880878	0.121748
C45	C	0.549322	0.330269	-0.328136
C46	C	1.049322	0.830269	0.171864
C47	C	0.467343	0.330284	-0.328145
C48	C	0.967343	0.830284	0.171855
C49	C	0.720192	0.330240	-0.328123
C50	C	1.220192	0.830240	0.171877
C51	C	0.802176	0.330224	-0.328116
C52	C	1.302176	0.830224	0.171884
C53	C	0.802198	0.431456	-0.428348
C54	C	1.302198	0.931456	0.071652
C55	C	0.720219	0.431471	-0.428357
C56	C	1.220219	0.931471	0.071643
C57	C	0.679219	0.380860	-0.378242
C58	C	1.179219	0.880860	0.121758
C59	C	1.134298	0.586223	-0.378229
C60	C	1.634298	1.086223	0.121771
C61	C	1.134337	0.674080	-0.378251
C62	C	1.634337	1.174080	0.121749
C63	C	1.084218	1.045562	-0.428445
C64	C	1.584218	1.545562	0.071555
C65	C	1.184683	1.045548	-0.328135
C66	C	1.684683	1.545548	0.171865
C67	C	1.184660	0.963002	-0.328127
C68	C	1.684660	1.463002	0.171873
C69	C	1.134414	0.921733	-0.378277
C70	C	1.634414	1.421733	0.121723
C71	C	1.084191	0.963009	-0.428436
C72	C	1.584191	1.463009	0.071564
C73	C	1.234876	0.921720	-0.277963
C74	C	1.734876	1.421720	0.222037
C75	C	1.234854	0.839169	-0.277952
C76	C	1.734854	1.339169	0.222048
C77	C	1.184611	0.797898	-0.328107
C78	C	1.684611	1.297898	0.171893
C79	C	1.134387	0.839179	-0.378268
C80	C	1.634387	1.339179	0.121732
C81	C	1.084141	0.797909	-0.428419
C82	C	1.584141	1.297909	0.071581
C83	C	1.033921	0.839189	-0.478585
C84	C	1.533921	1.339189	0.021415
C85	C	1.033949	0.921738	-0.478591
C86	C	1.533949	1.421738	0.021409
C87	C	1.184583	0.715349	-0.328101
C88	C	1.684583	1.215349	0.171899
C89	C	1.084115	0.715356	-0.428410
C90	C	1.584115	1.215356	0.071590
C91	C	1.339118	0.380889	-0.378262
C92	C	1.839118	0.880889	0.121738
C93	C	1.426368	0.380903	-0.378272
C94	C	1.926368	0.880903	0.121728
C95	C	1.134414	0.380796	-0.582983
C96	C	1.634414	0.880796	-0.082983
C97	C	1.134430	0.380770	-0.670233
C98	C	1.634430	0.880770	-0.170233
C99	C	1.134459	1.174689	-0.378270
C100	C	1.634459	1.674689	0.121730
C101	C	1.134464	1.086832	-0.378294
C102	C	1.634464	1.586832	0.121706
C103	C	1.084264	0.330201	-0.711224
C104	C	1.584264	0.830201	-0.211224
C105	C	1.084277	0.330183	-0.793204
C106	C	1.584277	0.830183	-0.293204
C107	C	1.134460	0.380730	-0.834193
C108	C	1.634460	0.880730	-0.334193
C109	C	1.184629	0.431305	-0.793196
C110	C	1.684629	0.931305	-0.293196
C111	C	1.184612	0.431326	-0.711217
C112	C	1.684612	0.931326	-0.211217
C113	C	1.184663	0.431255	-0.964067
C114	C	1.684663	0.931255	-0.464067
C115	C	1.184682	0.431233	-1.046051
C116	C	1.684682	0.931233	-0.546051
C117	C	1.084328	0.330112	-1.046053
C118	C	1.584328	0.830112	-0.546053
C119	C	1.084311	0.330133	-0.964074
C120	C	1.584311	0.830133	-0.464074
C121	C	1.134481	0.380707	-0.923084
C122	C	1.634481	0.880707	-0.423084
C123	C	1.134380	0.380861	-0.174291
C124	C	1.634380	0.880861	0.325709
C125	C	1.134515	0.380664	-0.087042
C126	C	1.634515	0.880664	0.412958
H127	H	0.434009	0.472728	-0.469198
H128	H	0.934009	0.972728	0.030802
H129	H	1.043403	0.289034	-0.677857
H130	H	1.543403	0.789034	-0.177857
H131	H	0.582693	0.289055	-0.287326
H132	H	1.082693	0.789055	0.212674
H133	H	0.582727	0.472711	-0.469172
H134	H	1.082727	0.972711	0.030828
H135	H	0.686812	0.289026	-0.287316
H136	H	1.186812	0.789026	0.212684
H137	H	0.686856	0.472688	-0.469171
H138	H	1.186856	0.972688	0.030829
O139	O	0.842105	0.480512	-0.477069
O140	O	1.342105	0.980512	0.022931
C141	C	0.889538	0.435565	-0.527851
C142	C	1.389538	0.935565	-0.027851
H143	H	0.901822	0.375629	-0.500262
H144	H	1.401822	0.875629	-0.000262
H145	H	0.947183	0.467767	-0.538316
H146	H	1.447183	0.967767	-0.038316
H147	H	0.857967	0.426954	-0.586039
H148	H	1.357967	0.926954	-0.086039
H149	H	1.275777	0.955328	-0.237127
H150	H	1.775777	1.455328	0.262873
H151	H	1.225469	0.472499	-0.677844
H152	H	1.725469	0.972499	-0.177844
H153	H	1.225546	0.472393	-1.079422
H154	H	1.725546	0.972393	-0.579422
H155	H	0.835539	0.288995	-0.287313
H156	H	1.335539	0.788995	0.212687
H157	H	1.225468	0.681743	-0.287252
H158	H	1.725468	1.181743	0.212748
O159	O	1.233469	0.480411	-0.924369
O160	O	1.733469	0.980411	-0.424369
C161	C	1.277753	0.525036	-0.978123
C162	C	1.777753	1.025036	-0.478123
H163	H	1.280502	0.492644	-1.036565
H164	H	1.780502	0.992644	-0.536565
H165	H	1.339590	0.533488	-0.954439
H166	H	1.839590	1.033488	-0.454439
H167	H	1.248977	0.585059	-0.986831
H168	H	1.748977	1.085059	-0.486831
H169	H	1.225586	1.079155	-0.287300
H170	H	1.725586	1.579155	0.212700
O171	O	1.035266	0.675183	-0.477020
O172	O	1.535266	1.175183	0.022980
C173	C	0.984561	0.627509	-0.432278
C174	C	1.484561	1.127509	0.067722
H175	H	1.012275	0.615155	-0.372813
H176	H	1.512275	1.115155	0.127187
H177	H	0.974001	0.569450	-0.464236
H178	H	1.474001	1.069450	0.035764
H179	H	0.926406	0.659369	-0.423606
H180	H	1.426406	1.159369	0.076394
H181	H	0.433961	0.289072	-0.287343
H182	H	0.933961	0.789072	0.212657
H183	H	0.993007	0.805578	-0.519414
H184	H	1.493007	1.305578	-0.019414
O185	O	1.283715	0.799196	-0.229203
O186	O	1.783715	1.299196	0.270797
C187	C	1.328053	0.853325	-0.184928
C188	C	1.828053	1.353325	0.315072
H189	H	1.330763	0.912151	-0.217086
H190	H	1.830763	1.412151	0.282914
H191	H	1.389900	0.829442	-0.176613
H192	H	1.889900	1.329442	0.323387
H193	H	1.299349	0.862149	-0.125283
H194	H	1.799349	1.362149	0.374717
H195	H	0.993061	0.955355	-0.519433
H196	H	1.493061	1.455355	-0.019433
O197	O	1.233487	0.480368	-0.832925
O198	O	1.733487	0.980368	-0.332925
C199	C	1.311727	0.463100	-0.812916
C200	C	1.811727	0.963100	-0.312916
H201	H	1.313356	0.432732	-0.753398
H202	H	1.813356	0.932732	-0.253398
H203	H	1.346897	0.520152	-0.810107
H204	H	1.846897	1.020152	-0.310107
H205	H	1.338196	0.422452	-0.859063
H206	H	1.838196	0.922452	-0.359063
O207	O	1.035460	1.085778	-0.477099
O208	O	1.535460	1.585778	0.022901
C209	C	1.046270	1.167488	-0.466375
C210	C	1.546270	1.667488	0.033625
H211	H	1.072020	1.178784	-0.405822
H212	H	1.572020	1.678784	0.094178
H213	H	0.987479	1.198896	-0.471651
H214	H	1.487479	1.698896	0.028349
H215	H	1.088051	1.190858	-0.512979
H216	H	1.588051	1.690858	-0.012979
H217	H	1.043423	0.289007	-0.826575
H218	H	1.543423	0.789007	-0.326575
H219	H	1.043450	0.288969	-0.930704
H220	H	1.543450	0.788969	-0.430704
O221	O	1.035496	0.281105	-1.085897
O222	O	1.535496	0.781105	-0.585897
C223	C	0.984793	0.326090	-1.133309
C224	C	1.484793	0.826090	-0.633309
H225	H	0.979920	0.388351	-1.108592
H226	H	1.479920	0.888351	-0.608592
H227	H	0.924394	0.297498	-1.134226
H228	H	1.424394	0.797498	-0.634226
H229	H	1.009063	0.328798	-1.195446
H230	H	1.509063	0.828798	-0.695446
