data_functionalizedCrystal
_audit_creation_method	'MofGen! by Chris Wilmer'
_symmetry_space_group_name_H-M	'P1'
_symmetry_Int_Tables_number	1
_symmetry_cell_setting	triclinic
loop_
_symmetry_equiv_pos_as_xyz
  x,y,z
_cell_length_a	25.639242
_cell_length_b	25.639239
_cell_length_c	18.101389
_cell_angle_alpha	89.979551
_cell_angle_beta	89.972814
_cell_angle_gamma	90.033587
loop_
_atom_site_label
_atom_site_type_symbol
_atom_site_fract_x
_atom_site_fract_y
_atom_site_fract_z
Zn1	Zn	0.799254	-0.208277	-0.418885
Zn2	Zn	1.132587	0.125057	-0.085551
Zn3	Zn	1.465921	0.458390	0.247782
Zn4	Zn	0.799169	-0.295698	-0.295039
Zn5	Zn	1.132502	0.037635	0.038295
Zn6	Zn	1.465836	0.370969	0.371628
Zn7	Zn	0.711822	-0.208271	-0.295040
Zn8	Zn	1.045155	0.125063	0.038294
Zn9	Zn	1.378488	0.458396	0.371627
Zn10	Zn	0.711775	-0.295675	-0.418821
Zn11	Zn	1.045109	0.037658	-0.085488
Zn12	Zn	1.378442	0.370992	0.247845
O13	O	0.755505	-0.251980	-0.356946
O14	O	1.088838	0.081353	-0.023613
O15	O	1.422172	0.414686	0.309721
O16	O	0.872408	-0.219885	-0.402483
O17	O	1.205741	0.113448	-0.069149
O18	O	1.539075	0.446781	0.264184
O19	O	0.787566	-0.284108	-0.191406
O20	O	1.120899	0.049226	0.141927
O21	O	1.454233	0.382559	0.475261
O22	O	0.723475	-0.135106	-0.311495
O23	O	1.056808	0.198227	0.021838
O24	O	1.390141	0.531560	0.355172
O25	O	0.872345	-0.284114	-0.311493
O26	O	1.205679	0.049220	0.021840
O27	O	1.539012	0.382553	0.355173
O28	O	0.787711	-0.135111	-0.402483
O29	O	1.121044	0.198223	-0.069150
O30	O	1.454378	0.531556	0.264183
O31	O	0.723392	-0.219875	-0.191407
O32	O	1.056726	0.113458	0.141927
O33	O	1.390059	0.446791	0.475260
O34	O	0.638650	-0.219853	-0.311433
O35	O	0.971984	0.113480	0.021900
O36	O	1.305317	0.446814	0.355233
O37	O	0.723396	-0.284074	-0.522463
O38	O	1.056729	0.049259	-0.189129
O39	O	1.390062	0.382592	0.144204
O40	O	0.638616	-0.284069	-0.402375
O41	O	0.971950	0.049265	-0.069042
O42	O	1.305283	0.382598	0.264292
O43	O	0.787666	-0.219863	-0.522509
O44	O	1.120999	0.113470	-0.189176
O45	O	1.454333	0.446803	0.144157
O46	O	0.787521	-0.368860	-0.311432
O47	O	1.120854	-0.035527	0.021901
O48	O	1.454188	0.297806	0.355235
O49	O	0.723313	-0.368843	-0.402374
O50	O	1.056647	-0.035510	-0.069041
O51	O	1.389980	0.297823	0.264292
C52	C	0.619662	-0.251958	-0.356898
C53	C	0.952996	0.081375	-0.023565
C54	C	1.286329	0.414709	0.309769
C55	C	0.561548	-0.251961	-0.356895
C56	C	0.894882	0.081372	-0.023561
C57	C	1.228215	0.414705	0.309772
C58	C	0.310364	-0.218487	-0.309675
C59	C	0.643697	0.114846	0.023659
C60	C	0.977031	0.448179	0.356992
C61	C	0.364968	-0.218482	-0.309665
C62	C	0.698302	0.114851	0.023668
C63	C	1.031635	0.448184	0.357001
O64	O	0.393212	-0.189991	-0.269475
O65	O	0.726546	0.143342	0.063858
O66	O	1.059879	0.476676	0.397191
N67	N	0.392275	-0.251968	-0.356932
N68	N	0.725608	0.081366	-0.023599
N69	N	1.058941	0.414699	0.309735
C70	C	0.364974	-0.285456	-0.404217
C71	C	0.698307	0.047877	-0.070883
C72	C	1.031640	0.381210	0.262450
O73	O	0.393214	-0.313937	-0.444421
O74	O	0.726547	0.019396	-0.111087
O75	O	1.059880	0.352729	0.222246
C76	C	0.310370	-0.285458	-0.404229
C77	C	0.643704	0.047875	-0.070896
C78	C	0.977037	0.381209	0.262437
C79	C	0.283067	-0.251974	-0.356954
C80	C	0.616400	0.081359	-0.023621
C81	C	0.949734	0.414692	0.309713
C82	C	0.283060	-0.185006	-0.262404
C83	C	0.616394	0.148327	0.070930
C84	C	0.949727	0.481661	0.404263
C85	C	0.228460	-0.185012	-0.262412
C86	C	0.561793	0.148322	0.070921
C87	C	0.895127	0.481655	0.404254
C88	C	0.201163	-0.218499	-0.309692
C89	C	0.534496	0.114835	0.023641
C90	C	0.867829	0.448168	0.356975
C91	C	0.228466	-0.251980	-0.356963
C92	C	0.561800	0.081353	-0.023629
C93	C	0.895133	0.414687	0.309704
C94	C	0.283071	-0.318944	-0.451517
C95	C	0.616404	0.014390	-0.118184
C96	C	0.949737	0.347723	0.215149
C97	C	0.228463	-0.318942	-0.451526
C98	C	0.561797	0.014391	-0.118193
C99	C	0.895130	0.347724	0.215141
C100	C	0.201160	-0.285459	-0.404251
C101	C	0.534493	0.047875	-0.070918
C102	C	0.867827	0.381208	0.262416
C103	C	0.146569	-0.285473	-0.404251
C104	C	0.479902	0.047861	-0.070917
C105	C	0.813235	0.381194	0.262416
N106	N	0.119262	-0.251987	-0.356984
N107	N	0.452596	0.081346	-0.023651
N108	N	0.785929	0.414679	0.309683
C109	C	0.146560	-0.218500	-0.309704
C110	C	0.479893	0.114833	0.023629
C111	C	0.813226	0.448166	0.356962
C112	C	0.479644	-0.285449	-0.404188
C113	C	0.812978	0.047884	-0.070854
C114	C	1.146311	0.381217	0.262479
C115	C	0.534247	-0.285450	-0.404172
C116	C	0.867580	0.047883	-0.070839
C117	C	1.200913	0.381216	0.262495
C118	C	0.534237	-0.218476	-0.309621
C119	C	0.867571	0.114857	0.023712
C120	C	1.200904	0.448191	0.357046
C121	C	0.479634	-0.218478	-0.309634
C122	C	0.812967	0.114856	0.023700
C123	C	1.146301	0.448189	0.357033
C124	C	0.452338	-0.251964	-0.356921
C125	C	0.785671	0.081369	-0.023587
C126	C	1.119005	0.414703	0.309746
C127	C	0.031894	-0.218515	-0.309726
C128	C	0.365228	0.114818	0.023608
C129	C	0.698561	0.448152	0.356941
C130	C	-0.022711	-0.218525	-0.309736
C131	C	0.310622	0.114808	0.023597
C132	C	0.643956	0.448141	0.356930
C133	C	-0.022697	-0.285498	-0.404290
C134	C	0.310636	0.047836	-0.070956
C135	C	0.643970	0.381169	0.262377
C136	C	0.031904	-0.285490	-0.404276
C137	C	0.365237	0.047844	-0.070943
C138	C	0.698570	0.381177	0.262390
C139	C	0.059198	-0.251994	-0.356992
C140	C	0.392531	0.081339	-0.023659
C141	C	0.725865	0.414672	0.309675
O142	O	0.118290	-0.313948	-0.444422
O143	O	0.451623	0.019385	-0.111089
O144	O	0.784957	0.352718	0.222244
O145	O	0.118313	-0.190019	-0.269514
O146	O	0.451646	0.143314	0.063819
O147	O	0.784979	0.476647	0.397152
C148	C	0.755417	-0.387823	-0.356912
C149	C	1.088750	-0.054489	-0.023579
C150	C	1.422084	0.278844	0.309754
C151	C	0.755427	-0.445937	-0.356922
C152	C	1.088761	-0.112603	-0.023589
C153	C	1.422094	0.220730	0.309744
C154	C	0.789025	-0.806296	-0.309673
C155	C	1.122358	-0.472963	0.023660
C156	C	1.455692	-0.139629	0.356994
C157	C	0.789045	-0.860900	-0.309683
C158	C	1.122379	-0.527567	0.023650
C159	C	1.455712	-0.194234	0.356984
O160	O	0.817520	-0.889134	-0.269473
O161	O	1.150854	-0.555801	0.063861
O162	O	1.484187	-0.222467	0.397194
N163	N	0.755597	-0.888219	-0.356995
N164	N	1.088930	-0.554886	-0.023662
N165	N	1.422264	-0.221553	0.309671
C166	C	0.722130	-0.860931	-0.404306
C167	C	1.055463	-0.527598	-0.070973
C168	C	1.388796	-0.194264	0.262361
O169	O	0.693681	-0.889182	-0.444550
O170	O	1.027015	-0.555848	-0.111217
O171	O	1.360348	-0.222515	0.222117
C172	C	0.722112	-0.806328	-0.404299
C173	C	1.055446	-0.472994	-0.070966
C174	C	1.388779	-0.139661	0.262368
C175	C	0.755559	-0.779012	-0.356979
C176	C	1.088893	-0.445678	-0.023645
C177	C	1.422226	-0.112345	0.309688
C178	C	0.822470	-0.778980	-0.262357
C179	C	1.155803	-0.445647	0.070976
C180	C	1.489136	-0.112313	0.404310
C181	C	0.822449	-0.724379	-0.262346
C182	C	1.155782	-0.391046	0.070987
C183	C	1.489115	-0.057713	0.404320
C184	C	0.788983	-0.697095	-0.309652
C185	C	1.122316	-0.363762	0.023682
C186	C	1.455650	-0.030428	0.357015
C187	C	0.755538	-0.724411	-0.356968
C188	C	1.088872	-0.391078	-0.023635
C189	C	1.422205	-0.057744	0.309699
C190	C	0.688648	-0.779040	-0.451613
C191	C	1.021982	-0.445707	-0.118280
C192	C	1.355315	-0.112374	0.215054
C193	C	0.688634	-0.724433	-0.451603
C194	C	1.021967	-0.391100	-0.118269
C195	C	1.355301	-0.057767	0.215064
C196	C	0.722081	-0.697117	-0.404282
C197	C	1.055414	-0.363784	-0.070949
C198	C	1.388748	-0.030451	0.262385
C199	C	0.722051	-0.642526	-0.404263
C200	C	1.055385	-0.309193	-0.070929
C201	C	1.388718	0.024141	0.262404
N202	N	0.755500	-0.615207	-0.356950
N203	N	1.088833	-0.281874	-0.023617
N204	N	1.422167	0.051459	0.309716
C205	C	0.788966	-0.642492	-0.309645
C206	C	1.122299	-0.309158	0.023688
C207	C	1.455632	0.024175	0.357022
C208	C	0.722169	-0.975602	-0.404317
C209	C	1.055502	-0.642268	-0.070984
C210	C	1.388836	-0.308935	0.262349
C211	C	0.722183	-1.030204	-0.404321
C212	C	1.055517	-0.696871	-0.070988
C213	C	1.388850	-0.363537	0.262346
C214	C	0.789100	-1.030169	-0.309699
C215	C	1.122433	-0.696836	0.023635
C216	C	1.455767	-0.363503	0.356968
C217	C	0.789083	-0.975566	-0.309692
C218	C	1.122416	-0.642233	0.023641
C219	C	1.455749	-0.308900	0.356975
C220	C	0.755618	-0.948283	-0.357005
C221	C	1.088951	-0.614949	-0.023672
C222	C	1.422284	-0.281616	0.309662
C223	C	0.788919	-0.527827	-0.309626
C224	C	1.122252	-0.194493	0.023708
C225	C	1.455585	0.138840	0.357041
C226	C	0.788893	-0.473221	-0.309617
C227	C	1.122226	-0.139888	0.023716
C228	C	1.455560	0.193445	0.357050
C229	C	0.721979	-0.473260	-0.404241
C230	C	1.055312	-0.139927	-0.070908
C231	C	1.388645	0.193406	0.262425
C232	C	0.722002	-0.527861	-0.404248
C233	C	1.055335	-0.194528	-0.070914
C234	C	1.388669	0.138806	0.262419
C235	C	0.755476	-0.555143	-0.356937
C236	C	1.088810	-0.221809	-0.023604
C237	C	1.422143	0.111524	0.309729
O238	O	0.693593	-0.614258	-0.444455
O239	O	1.026926	-0.280925	-0.111121
O240	O	1.360259	0.052409	0.222212
O241	O	0.817414	-0.614234	-0.269415
O242	O	1.150748	-0.280901	0.063919
O243	O	1.484081	0.052432	0.397252
C244	C	0.891878	-0.252003	-0.356995
C245	C	1.225211	0.081331	-0.023662
C246	C	1.558545	0.414664	0.309672
C247	C	0.949992	-0.252012	-0.357016
C248	C	1.283325	0.081321	-0.023682
C249	C	1.616659	0.414654	0.309651
C250	C	0.755535	-0.251967	-0.550108
C251	C	1.088869	0.081366	-0.216775
C252	C	1.422202	0.414700	0.116559
C253	C	0.755548	-0.251961	-0.632422
C254	C	1.088881	0.081372	-0.299089
C255	C	1.422215	0.414705	0.034244
C256	C	0.755608	-0.115607	-0.356996
C257	C	1.088941	0.217726	-0.023663
C258	C	1.422274	0.551060	0.309670
C259	C	0.755651	-0.057493	-0.357018
C260	C	1.088985	0.275840	-0.023684
C261	C	1.422318	0.609174	0.309649
C262	C	0.755579	-0.251863	-0.931513
C263	C	1.088912	0.081470	-0.598180
C264	C	1.422245	0.414803	-0.264847
C265	C	0.715002	-0.292135	-0.900159
C266	C	1.048336	0.041199	-0.566825
C267	C	1.381669	0.374532	-0.233492
C268	C	0.715112	-0.292322	-0.814540
C269	C	1.048445	0.041012	-0.481207
C270	C	1.381779	0.374345	-0.147874
C271	C	0.755563	-0.251912	-0.783131
C272	C	1.088896	0.081421	-0.449797
C273	C	1.422230	0.414755	-0.116464
C274	C	0.810647	-0.266873	-0.814240
C275	C	1.143981	0.066460	-0.480906
C276	C	1.477314	0.399794	-0.147573
C277	C	0.810421	-0.267137	-0.899885
C278	C	1.143754	0.066196	-0.566551
C279	C	1.477088	0.399529	-0.233218
C280	C	0.741550	-0.196541	-0.899939
C281	C	1.074883	0.136792	-0.566606
C282	C	1.408216	0.470125	-0.233273
C283	C	0.740324	-0.196861	-0.814288
C284	C	1.073657	0.136472	-0.480955
C285	C	1.406990	0.469806	-0.147622
C286	C	0.755558	-0.251939	-0.699271
C287	C	1.088891	0.081395	-0.365938
C288	C	1.422224	0.414728	-0.032605
C289	C	0.755588	-0.251838	-1.015373
C290	C	1.088921	0.081495	-0.682040
C291	C	1.422254	0.414829	-0.348706
C292	C	0.755505	-0.251956	-0.164536
C293	C	1.088838	0.081378	0.168798
C294	C	1.422172	0.414711	0.502131
C295	C	0.755593	-0.251814	-0.082222
C296	C	1.088927	0.081519	0.251111
C297	C	1.422260	0.414853	0.584445
H298	H	-0.044939	-0.191258	-0.271237
H299	H	0.288394	0.142075	0.062096
H300	H	0.621728	0.475409	0.395430
Cl301	Cl	0.680611	-0.175499	-0.933259
Cl302	Cl	1.013944	0.157834	-0.599925
Cl303	Cl	1.347278	0.491168	-0.266592
H304	H	0.305292	-0.346210	-0.490014
H305	H	0.638625	-0.012877	-0.156680
H306	H	0.971958	0.320457	0.176653
Cl307	Cl	0.646562	-0.690138	-0.511087
Cl308	Cl	0.979895	-0.356804	-0.177754
Cl309	Cl	1.313228	-0.023471	0.155580
Cl310	Cl	0.830944	-0.438884	-0.250124
Cl311	Cl	1.164277	-0.105551	0.083209
Cl312	Cl	1.497611	0.227782	0.416543
Cl313	Cl	0.677734	-0.179443	-0.782904
Cl314	Cl	1.011068	0.153890	-0.449571
Cl315	Cl	1.344401	0.487224	-0.116237
Cl316	Cl	-0.057023	-0.327600	-0.463714
Cl317	Cl	0.276310	0.005733	-0.130381
Cl318	Cl	0.609643	0.339067	0.202953
Cl319	Cl	0.787178	-0.150217	-0.931248
Cl320	Cl	1.120511	0.183117	-0.597915
Cl321	Cl	1.453844	0.516450	-0.264582
Cl322	Cl	0.066199	-0.176407	-0.250280
Cl323	Cl	0.399532	0.156926	0.083053
Cl324	Cl	0.732866	0.490260	0.416387
H325	H	0.822315	-0.307578	-0.919867
H326	H	1.155648	0.025755	-0.586533
H327	H	1.488982	0.359088	-0.253200
Cl328	Cl	0.445315	-0.176381	-0.250201
Cl329	Cl	0.778649	0.156952	0.083132
Cl330	Cl	1.111982	0.490285	0.416465
H331	H	0.841678	-0.239079	-0.920629
H332	H	1.175011	0.094255	-0.587295
H333	H	1.508344	0.427588	-0.253962
H334	H	0.305280	-0.157734	-0.223903
H335	H	0.638613	0.175600	0.109430
H336	H	0.971947	0.508933	0.442764
Cl337	Cl	0.194152	-0.361041	-0.510978
Cl338	Cl	0.527485	-0.027708	-0.177645
Cl339	Cl	0.860819	0.305626	0.155688
Cl340	Cl	0.782630	-0.148075	-0.781291
Cl341	Cl	1.115963	0.185258	-0.447958
Cl342	Cl	1.449296	0.518591	-0.114624
Cl343	Cl	0.568564	-0.176377	-0.250184
Cl344	Cl	0.901897	0.156957	0.083149
Cl345	Cl	1.235231	0.490290	0.416482
Cl346	Cl	0.680090	-0.941308	-0.463797
Cl347	Cl	1.013423	-0.607974	-0.130463
Cl348	Cl	1.346757	-0.274641	0.202870
Cl349	Cl	0.729441	-0.355626	-0.782910
Cl350	Cl	1.062774	-0.022292	-0.449576
Cl351	Cl	1.396108	0.311041	-0.116243
Cl352	Cl	0.066229	-0.327589	-0.463701
Cl353	Cl	0.399562	0.005744	-0.130368
Cl354	Cl	0.732896	0.339077	0.202966
H355	H	0.556472	-0.312722	-0.442660
H356	H	0.889806	0.020611	-0.109327
H357	H	1.223139	0.353945	0.224006
H358	H	0.841691	-0.238463	-0.793897
H359	H	1.175024	0.094871	-0.460564
H360	H	1.508358	0.428204	-0.127231
Cl361	Cl	0.651744	-0.277826	-0.931930
Cl362	Cl	0.985077	0.055507	-0.598597
Cl363	Cl	1.318410	0.388840	-0.265264
Cl364	Cl	0.831000	-0.562115	-0.250148
Cl365	Cl	1.164333	-0.228782	0.083186
Cl366	Cl	1.497667	0.104551	0.416519
H367	H	0.849686	-0.702142	-0.223816
H368	H	1.183019	-0.368808	0.109517
H369	H	1.516352	-0.035475	0.442851
H370	H	0.822747	-0.306884	-0.792796
H371	H	1.156080	0.026449	-0.459463
H372	H	1.489414	0.359782	-0.126130
Cl373	Cl	0.864547	-0.813270	-0.202879
Cl374	Cl	1.197880	-0.479937	0.130454
Cl375	Cl	1.531214	-0.146604	0.463788
Cl376	Cl	0.831132	-0.941232	-0.250202
Cl377	Cl	1.164466	-0.607898	0.083131
Cl378	Cl	1.497799	-0.274565	0.416464
Cl379	Cl	0.194144	-0.142909	-0.202986
Cl380	Cl	0.527477	0.190424	0.130348
Cl381	Cl	0.860810	0.523757	0.463681
Cl382	Cl	0.831171	-1.064480	-0.250227
Cl383	Cl	1.164504	-0.731147	0.083106
Cl384	Cl	1.497837	-0.397813	0.416439
H385	H	0.694768	-0.550103	-0.442782
H386	H	1.028102	-0.216770	-0.109449
H387	H	1.361435	0.116564	0.223884
Cl388	Cl	0.680128	-1.064537	-0.463803
Cl389	Cl	1.013461	-0.731204	-0.130470
Cl390	Cl	1.346794	-0.397871	0.202863
Cl391	Cl	0.445335	-0.327555	-0.463634
Cl392	Cl	0.778668	0.005778	-0.130301
Cl393	Cl	1.112001	0.339111	0.203033
Cl394	Cl	0.646604	-0.813367	-0.511114
Cl395	Cl	0.979937	-0.480034	-0.177781
Cl396	Cl	1.313271	-0.146700	0.155552
H397	H	0.694730	-0.451037	-0.442755
H398	H	1.028063	-0.117704	-0.109422
H399	H	1.361396	0.215630	0.223912
H400	H	0.674265	-0.282959	-0.793505
H401	H	1.007598	0.050374	-0.460172
H402	H	1.340931	0.383708	-0.126839
H403	H	0.724172	-0.332891	-0.921683
H404	H	1.057505	0.000443	-0.588350
H405	H	1.390838	0.333776	-0.255016
