data_functionalizedCrystal
_audit_creation_method	'MofGen! by Chris Wilmer'
_symmetry_space_group_name_H-M	'P1'
_symmetry_Int_Tables_number	1
_symmetry_cell_setting	triclinic
loop_
_symmetry_equiv_pos_as_xyz
  x,y,z
_cell_length_a	19.188930
_cell_length_b	17.699077
_cell_length_c	16.776229
_cell_angle_alpha	89.996981
_cell_angle_beta	90.000983
_cell_angle_gamma	83.212679
loop_
_atom_site_label
_atom_site_type_symbol
_atom_site_fract_x
_atom_site_fract_y
_atom_site_fract_z
O1	O	0.088262	1.003963	-0.066287
O2	O	0.588262	1.503963	0.433713
O3	O	0.099753	0.783569	-0.066292
O4	O	0.599753	1.283569	0.433708
O5	O	-0.007641	0.900126	-0.066273
O6	O	0.492359	1.400126	0.433727
O7	O	0.195656	0.887406	-0.066305
O8	O	0.695656	1.387406	0.433695
O9	O	-0.007622	0.900115	0.066303
O10	O	0.492378	1.400115	0.566303
O11	O	0.099772	0.783558	0.066285
O12	O	0.599772	1.283558	0.566285
O13	O	0.088281	1.003952	0.066290
O14	O	0.588281	1.503952	0.566290
Zn15	Zn	0.094029	0.893753	0.087337
Zn16	Zn	0.594029	1.393753	0.587337
Zn17	Zn	0.094005	0.893767	-0.087339
Zn18	Zn	0.594005	1.393767	0.412661
O19	O	0.195675	0.887395	0.066272
O20	O	0.695675	1.387395	0.566272
C21	C	0.099352	0.755367	-0.000004
C22	C	0.599352	1.255367	0.499996
C23	C	0.098119	0.671350	-0.000005
C24	C	0.598119	1.171350	0.499995
C25	C	0.097548	0.631877	0.072263
C26	C	0.597548	1.131877	0.572263
C27	C	0.096378	0.552937	0.072264
C28	C	0.596378	1.052937	0.572264
C29	C	0.095784	0.513469	-0.000004
C30	C	0.595784	1.013469	0.499996
C31	C	0.096353	0.552947	-0.072278
C32	C	0.596353	1.052947	0.427722
C33	C	0.097518	0.631887	-0.072278
C34	C	0.597518	1.131887	0.427722
C35	C	0.091654	0.234590	-0.072279
C36	C	0.591654	0.734590	0.427721
C37	C	0.090491	0.155644	-0.072273
C38	C	0.590491	0.655644	0.427727
C39	C	0.090514	0.155639	0.072264
C40	C	0.590514	0.655639	0.572264
C41	C	0.091679	0.234579	0.072263
C42	C	0.591679	0.734579	0.572263
C43	C	0.092244	0.274051	-0.000010
C44	C	0.592244	0.774051	0.499990
C45	C	0.093512	0.359648	-0.000010
C46	C	0.593512	0.859648	0.499990
C47	C	0.094522	0.427872	-0.000005
C48	C	0.594522	0.927872	0.499995
C49	C	-0.033643	0.899708	0.000017
C50	C	0.466357	1.399708	0.500017
C51	C	-0.111149	0.898472	0.000024
C52	C	0.388851	1.398472	0.500024
C53	C	-0.155998	0.966864	0.000029
C54	C	0.344002	1.466864	0.500029
C55	C	-0.228823	0.965702	0.000016
C56	C	0.271177	1.465702	0.500016
C57	C	-0.256796	0.896145	0.000014
C58	C	0.243204	1.396145	0.500014
C59	C	-0.211937	0.827744	0.000004
C60	C	0.288063	1.327744	0.500004
C61	C	-0.139114	0.828907	0.000009
C62	C	0.360886	1.328907	0.500009
N63	N	-0.364853	0.842973	0.045131
N64	N	0.135147	1.342973	0.545131
N65	N	-0.434033	0.841872	0.045129
N66	N	0.065967	1.341872	0.545129
C67	C	-0.476208	0.892634	-0.000002
C68	C	0.023792	1.392634	0.499998
N69	N	-0.446592	0.944551	-0.045119
N70	N	0.053408	1.444551	0.454881
N71	N	-0.377406	0.945654	-0.045113
N72	N	0.122594	1.445654	0.454887
C73	C	-0.335760	0.894875	0.000009
C74	C	0.164240	1.394875	0.500009
C75	C	-0.600023	0.959771	-0.000012
C76	C	-0.100023	1.459771	0.499988
C77	C	-0.672849	0.958607	-0.000029
C78	C	-0.172849	1.458607	0.499971
C79	C	-0.655962	0.820646	-0.000033
C80	C	-0.155962	1.320646	0.499967
C81	C	-0.583137	0.821813	-0.000024
C82	C	-0.083137	1.321813	0.499976
C83	C	-0.555173	0.891378	-0.000009
C84	C	-0.055173	1.391378	0.499991
C85	C	0.221677	0.887812	-0.000021
C86	C	0.721677	1.387812	0.499979
C87	C	0.299183	0.889049	-0.000033
C88	C	0.799183	1.389049	0.499967
C89	C	0.088682	1.032154	0.000000
C90	C	0.588682	1.532154	0.500000
C91	C	0.089915	1.116171	-0.000004
C92	C	0.589915	1.616171	0.499996
N93	N	0.094046	0.893749	0.206548
N94	N	0.594046	1.393749	0.706548
N95	N	0.093983	0.893778	-0.206550
N96	N	0.593983	1.393778	0.293450
C97	C	0.051696	0.848015	0.751726
C98	C	0.551696	1.348015	1.251726
C99	C	0.051702	0.848014	0.668273
C100	C	0.551702	1.348014	1.168273
C101	C	0.093999	0.893771	0.626547
C102	C	0.593999	1.393771	1.126547
C103	C	0.136287	0.939538	0.668278
C104	C	0.636287	1.439538	1.168278
C105	C	0.136277	0.939543	0.751728
C106	C	0.636277	1.439543	1.251728
C107	C	0.136328	0.939518	0.331731
C108	C	0.636328	1.439518	0.831731
C109	C	0.136337	0.939508	0.248274
C110	C	0.636337	1.439508	0.748274
C111	C	0.051753	0.847989	0.248276
C112	C	0.551753	1.347989	0.748276
C113	C	0.051743	0.847994	0.331726
C114	C	0.551743	1.347994	0.831726
C115	C	0.094028	0.893764	0.373449
C116	C	0.594028	1.393764	0.873449
C117	C	0.094020	0.893767	0.463938
C118	C	0.594020	1.393767	0.963938
C119	C	0.094011	0.893765	0.536061
C120	C	0.594011	1.393765	1.036061
H121	H	0.092166	0.266710	0.131112
H122	H	0.592166	0.766710	0.631112
C123	C	0.088727	0.034628	0.136456
C124	C	0.588727	0.534628	0.636456
C125	C	0.089881	0.112251	0.151711
C126	C	0.589881	0.612251	0.651711
H127	H	0.088333	0.007846	0.185502
H128	H	0.588333	0.507846	0.685502
H129	H	0.129228	0.015784	0.106762
H130	H	0.629228	0.515784	0.606762
H131	H	0.047829	0.027613	0.106768
H132	H	0.547829	0.527613	0.606768
H133	H	0.130782	0.119267	0.181394
H134	H	0.630782	0.619267	0.681394
H135	H	0.049376	0.131101	0.181418
H136	H	0.549376	0.631101	0.681418
C137	C	-0.709649	1.075852	-0.068167
C138	C	-0.209649	1.575852	0.431833
C139	C	-0.722148	1.033792	-0.000024
C140	C	-0.222148	1.533792	0.499976
H141	H	-0.740082	1.122271	-0.068159
H142	H	-0.240082	1.622271	0.431841
H143	H	-0.718117	1.047329	-0.114396
H144	H	-0.218117	1.547329	0.385604
H145	H	-0.662272	1.086491	-0.068150
H146	H	-0.162272	1.586491	0.431850
H147	H	-0.769523	1.023148	-0.000044
H148	H	-0.269523	1.523148	0.499956
H149	H	-0.713685	1.062320	0.046217
H150	H	-0.213685	1.562320	0.546217
H151	H	0.090007	0.123511	-0.131126
H152	H	0.590007	0.623511	0.368874
H153	H	0.097984	0.664025	-0.131126
H154	H	0.597984	1.164025	0.368874
C155	C	-0.527909	1.041112	-0.068152
C156	C	-0.027909	1.541112	0.431848
C157	C	-0.569273	1.036232	-0.000007
C158	C	-0.069273	1.536232	0.499993
H159	H	-0.508923	1.088313	-0.068146
H160	H	-0.008923	1.588313	0.431854
H161	H	-0.555965	1.037798	-0.114380
H162	H	-0.055965	1.537798	0.385620
H163	H	-0.490778	1.000539	-0.068139
H164	H	0.009222	1.500539	0.431861
H165	H	-0.606407	1.076802	-0.000023
H166	H	-0.106407	1.576802	0.499977
H167	H	-0.541215	1.039553	0.046232
H168	H	-0.041215	1.539553	0.546232
C169	C	0.096449	0.560887	-0.215151
C170	C	0.596449	1.060887	0.284849
C171	C	0.095703	0.509566	-0.151718
C172	C	0.595703	1.009566	0.348282
H173	H	0.096047	0.534105	-0.264194
H174	H	0.596047	1.034105	0.235806
H175	H	0.137599	0.585768	-0.212149
H176	H	0.637599	1.085768	0.287851
H177	H	0.056199	0.597585	-0.212135
H178	H	0.556199	1.097585	0.287865
H179	H	0.135956	0.472871	-0.154731
H180	H	0.635956	0.972871	0.345269
H181	H	0.054549	0.484672	-0.154722
H182	H	0.554549	0.984672	0.345278
C183	C	-0.760093	0.757606	-0.000043
C184	C	-0.260093	1.257606	0.499957
C185	C	-0.686701	0.744186	-0.000038
C186	C	-0.186701	1.244186	0.499962
H187	H	-0.779070	0.710400	-0.000044
H188	H	-0.279070	1.210400	0.499956
H189	H	-0.775488	0.785757	-0.046272
H190	H	-0.275488	1.285757	0.453728
H191	H	-0.775492	0.785752	0.046193
H192	H	-0.275492	1.285752	0.546193
H193	H	-0.671302	0.716045	-0.046277
H194	H	-0.171302	1.216045	0.453723
H195	H	-0.671299	0.716023	0.046196
H196	H	-0.171299	1.216023	0.546196
H197	H	0.017266	0.810752	0.634305
H198	H	0.517266	1.310752	1.134305
C199	C	0.091515	0.226654	-0.215149
C200	C	0.591515	0.726654	0.284851
C201	C	0.092279	0.277970	-0.151721
C202	C	0.592279	0.777970	0.348279
H203	H	0.091905	0.253439	-0.264195
H204	H	0.591905	0.753439	0.235805
H205	H	0.050367	0.201773	-0.212132
H206	H	0.550367	0.701773	0.287868
H207	H	0.131766	0.189955	-0.212143
H208	H	0.631766	0.689955	0.287857
H209	H	0.052025	0.314666	-0.154724
H210	H	0.552025	0.814666	0.345276
H211	H	0.133432	0.302864	-0.154739
H212	H	0.633432	0.802864	0.345261
C213	C	-0.573763	0.685333	-0.000016
C214	C	-0.073763	1.185333	0.499984
C215	C	-0.533835	0.746633	-0.000015
C216	C	-0.033835	1.246633	0.499985
H217	H	-0.543324	0.638919	-0.000008
H218	H	-0.043324	1.138919	0.499992
H219	H	-0.602513	0.687749	-0.046249
H220	H	-0.102513	1.187749	0.453751
H221	H	-0.602523	0.687752	0.046216
H222	H	-0.102523	1.187752	0.546216
H223	H	-0.505078	0.744217	-0.046251
H224	H	-0.005078	1.244217	0.453749
H225	H	-0.505072	0.744216	0.046222
H226	H	-0.005072	1.244216	0.546222
H227	H	0.017257	0.810751	0.785693
H228	H	0.517257	1.310751	1.285693
H229	H	0.170782	0.976771	0.214303
H230	H	0.670782	1.476771	0.714303
H231	H	0.170711	0.976808	0.785700
H232	H	0.670711	1.476808	1.285700
H233	H	0.017303	0.810731	0.365695
H234	H	0.517303	1.310731	0.865695
H235	H	-0.133234	1.023509	0.000039
H236	H	0.366766	1.523509	0.500039
H237	H	0.017320	0.810722	0.214294
H238	H	0.517320	1.310722	0.714294
C239	C	0.219949	1.029970	0.323335
C240	C	0.719949	1.529970	0.823335
C241	C	0.182817	0.989818	0.377586
C242	C	0.682817	1.489818	0.877586
H243	H	0.248655	1.061019	0.351648
H244	H	0.748655	1.561019	0.851648
H245	H	0.187785	1.061089	0.290781
H246	H	0.687785	1.561089	0.790781
H247	H	0.248598	0.995030	0.290793
H248	H	0.748598	1.495030	0.790793
H249	H	0.154163	1.024758	0.410124
H250	H	0.654163	1.524758	0.910124
H251	H	0.214985	0.958697	0.410154
H252	H	0.714985	1.458697	0.910154
H253	H	-0.265345	1.021397	0.000018
H254	H	0.234655	1.521397	0.500018
H255	H	0.098037	0.664006	0.131113
H256	H	0.598037	1.164006	0.631113
H257	H	0.170723	0.976798	0.634298
H258	H	0.670723	1.476798	1.134298
C259	C	-0.284044	0.746414	-0.068149
C260	C	0.215956	1.246414	0.431851
C261	C	-0.242684	0.751285	0.000003
C262	C	0.257316	1.251285	0.500003
H263	H	-0.303028	0.699212	-0.068148
H264	H	0.196972	1.199212	0.431852
H265	H	-0.255985	0.749736	-0.114371
H266	H	0.244015	1.249736	0.385629
H267	H	-0.321176	0.786986	-0.068138
H268	H	0.178824	1.286986	0.431862
H269	H	-0.205549	0.710717	-0.000010
H270	H	0.294451	1.210717	0.499990
H271	H	-0.270745	0.747956	0.046238
H272	H	0.229255	1.247956	0.546238
C273	C	0.096533	0.560859	0.215136
C274	C	0.596533	1.060859	0.715136
C275	C	0.095757	0.509547	0.151704
C276	C	0.595757	1.009547	0.651704
H277	H	0.096155	0.534070	0.264180
H278	H	0.596155	1.034070	0.764180
H279	H	0.056290	0.597556	0.212141
H280	H	0.556290	1.097556	0.712141
H281	H	0.137690	0.585739	0.212110
H282	H	0.637690	1.085739	0.712110
H283	H	0.054598	0.484671	0.154726
H284	H	0.554598	0.984671	0.654726
H285	H	0.136004	0.472836	0.154701
H286	H	0.636004	0.972836	0.654701
C287	C	-0.129738	0.692424	0.000005
C288	C	0.370262	1.192424	0.500005
C289	C	-0.089811	0.753725	0.000011
C290	C	0.410189	1.253725	0.500011
H291	H	-0.099299	0.646011	0.000013
H292	H	0.400701	1.146011	0.500013
H293	H	-0.158487	0.694842	-0.046228
H294	H	0.341513	1.194842	0.453772
H295	H	-0.158500	0.694841	0.046237
H296	H	0.341500	1.194841	0.546237
H297	H	-0.061054	0.751312	-0.046223
H298	H	0.438946	1.251312	0.453777
H299	H	-0.061050	0.751306	0.046250
H300	H	0.438950	1.251306	0.546250
