data_functionalizedCrystal
_audit_creation_method	'MofGen! by Chris Wilmer'
_symmetry_space_group_name_H-M	'P1'
_symmetry_Int_Tables_number	1
_symmetry_cell_setting	triclinic
loop_
_symmetry_equiv_pos_as_xyz
  x,y,z
_cell_length_a	6.394989
_cell_length_b	9.798715
_cell_length_c	10.723024
_cell_angle_alpha	90.000034
_cell_angle_beta	85.482790
_cell_angle_gamma	89.996337
loop_
_atom_site_label
_atom_site_type_symbol
_atom_site_fract_x
_atom_site_fract_y
_atom_site_fract_z
O1	O	-0.293033	0.113473	-1.660290
O2	O	-0.321081	0.113476	-1.297436
O3	O	-0.003067	0.113475	-1.484013
O4	O	-0.611048	0.113474	-1.473713
O5	O	-0.003043	-0.113507	-1.484013
O6	O	-0.321057	-0.113506	-1.297435
O7	O	-0.293009	-0.113510	-1.660290
Zn8	Zn	-0.307030	-0.149546	-1.478862
Zn9	Zn	-0.307061	0.149513	-1.478863
O10	O	-0.611024	-0.113509	-1.473712
C11	C	-0.319028	-0.000014	-1.250914
C12	C	-0.312921	-0.000012	-1.112295
N13	N	-0.307007	-0.353646	-1.478871
C14	C	-0.295062	-0.000016	-1.706811
C15	C	-0.301169	-0.000009	-1.845430
C16	C	0.074796	-0.000011	-1.481977
C17	C	0.311120	-0.000009	-1.475752
N18	N	-0.307067	0.353612	-1.478864
C19	C	-0.123225	-0.000009	-0.918524
C20	C	-0.129533	-0.000011	-1.061795
C21	C	-0.173243	0.421389	-1.557374
C22	C	-0.173210	0.578552	-1.557378
H23	H	0.033789	-0.000029	-0.875036
H24	H	-0.465264	-0.000007	-1.049487
O25	O	-0.036278	0.648169	-1.637349
C26	C	0.093521	0.730699	-1.568309
H27	H	0.011595	0.752031	-1.471995
H28	H	0.125919	0.831209	-1.619787
H29	H	0.248005	0.675595	-1.557318
O30	O	-0.443641	0.423033	-1.398506
C31	C	-0.407875	0.388245	-1.274383
H32	H	-0.327518	0.284454	-1.273164
H33	H	-0.564013	0.383524	-1.215408
H34	H	-0.303177	0.468624	-1.234209
H35	H	-0.421578	0.588078	-1.411647
O36	O	0.052016	-0.000070	-1.136904
C37	C	0.005302	-0.000033	-1.263230
H38	H	-0.158897	-0.043006	-1.270682
H39	H	0.124435	-0.065930	-1.320406
H40	H	0.012593	0.108863	-1.300754
O41	O	-0.488627	0.000174	-0.897150
C42	C	-0.602938	0.117750	-0.858203
H43	H	-0.544915	0.156944	-0.766964
H44	H	-0.776675	0.091314	-0.843004
H45	H	-0.579660	0.200065	-0.933145
H46	H	-0.058703	0.363066	-1.624592
