data_functionalizedCrystal
_audit_creation_method	'MofGen! by Chris Wilmer'
_symmetry_space_group_name_H-M	'P1'
_symmetry_Int_Tables_number	1
_symmetry_cell_setting	triclinic
loop_
_symmetry_equiv_pos_as_xyz
  x,y,z
_cell_length_a	10.654550
_cell_length_b	9.130313
_cell_length_c	16.109301
_cell_angle_alpha	89.997330
_cell_angle_beta	96.026808
_cell_angle_gamma	90.003780
loop_
_atom_site_label
_atom_site_type_symbol
_atom_site_fract_x
_atom_site_fract_y
_atom_site_fract_z
O1	O	1.666250	0.121925	-0.116770
O2	O	1.300621	0.121902	-0.127896
O3	O	1.493479	0.121899	-0.001362
O4	O	1.473391	0.121928	-0.243304
O5	O	1.493477	-0.121700	-0.001365
O6	O	1.300618	-0.121697	-0.127899
O7	O	1.666248	-0.121674	-0.116774
Cu8	Cu	1.483433	-0.143928	-0.122337
Cu9	Cu	1.483435	0.144156	-0.122333
O10	O	1.473389	-0.121671	-0.243308
C11	C	1.253832	0.000099	-0.127080
C12	C	1.114422	0.000090	-0.124636
N13	N	1.483440	-0.346551	-0.122339
C14	C	1.033926	0.000120	-0.199138
C15	C	0.902936	0.000145	-0.196836
C16	C	0.932952	0.000116	-0.045526
C17	C	1.063939	0.000081	-0.047828
C18	C	1.084409	0.000130	-0.275946
C19	C	1.003911	0.000162	-0.350453
C20	C	0.872921	0.000187	-0.348152
C21	C	0.822430	0.000180	-0.271343
C22	C	1.568859	-0.423204	-0.066329
C23	C	1.568856	-0.576541	-0.066319
C24	C	1.398010	-0.576558	-0.178336
C25	C	1.398008	-0.423223	-0.178342
C26	C	1.654291	-0.346531	-0.010326
C27	C	1.739719	-0.423184	0.045688
C28	C	1.739715	-0.576521	0.045698
C29	C	1.654285	-0.653205	-0.010306
C30	C	1.713036	0.000132	-0.117589
C31	C	1.852446	0.000151	-0.120033
C32	C	1.492665	0.000099	0.029616
C33	C	1.490225	0.000097	0.121926
N34	N	1.483438	0.346779	-0.122324
C35	C	1.474204	0.000132	-0.274286
C36	C	1.476643	0.000144	-0.366595
C37	C	1.598991	0.000127	0.343552
C38	C	1.596689	0.000139	0.430286
C39	C	1.367868	0.000119	0.411772
C40	C	1.370172	0.000117	0.325040
C41	C	1.485737	0.000114	0.290932
C42	C	1.481131	0.000127	0.464399
C43	C	1.478634	0.000140	0.558440
C44	C	1.488234	0.000104	0.196885
H45	H	1.191065	0.000116	-0.277828
H46	H	1.277941	0.000111	0.282194
H47	H	1.045031	0.000155	-0.412988
H48	H	0.891831	0.000135	0.017008
O49	O	1.141963	0.000129	0.024619
C50	C	1.069320	0.000109	0.092905
H51	H	0.971558	0.046251	0.072372
H52	H	1.059979	-0.116756	0.116413
C53	C	1.254723	0.038949	0.188700
C54	C	1.134653	0.095634	0.163482
H55	H	1.295024	0.097868	0.232238
H56	H	1.303665	0.038957	0.142695
H57	H	1.246922	-0.058437	0.208285
H58	H	1.142456	0.193011	0.143889
H59	H	1.085713	0.095645	0.209486
H60	H	0.807383	0.000198	-0.408819
O61	O	1.314990	-0.348980	-0.232832
C62	C	1.239574	-0.449530	-0.282252
H63	H	1.291054	-0.558830	-0.283508
H64	H	1.146302	-0.465842	-0.254680
C65	C	1.150416	-0.255439	-0.370242
C66	C	1.213651	-0.389680	-0.371790
H67	H	1.134420	-0.218519	-0.425472
H68	H	1.201222	-0.187695	-0.336945
H69	H	1.072697	-0.269050	-0.347261
H70	H	1.291374	-0.376063	-0.394760
H71	H	1.162857	-0.457420	-0.405093
H72	H	1.654304	-0.221676	-0.010331
O73	O	1.822505	-0.348568	0.100153
C74	C	1.755244	-0.259938	0.151867
H75	H	1.656985	-0.236945	0.119333
H76	H	1.746693	-0.319075	0.213349
C77	C	1.946739	-0.142537	0.209212
C78	C	1.826060	-0.114287	0.169249
H79	H	1.990423	-0.052696	0.219938
H80	H	1.992056	-0.202253	0.174374
H81	H	1.939596	-0.191822	0.260443
H82	H	1.833205	-0.065021	0.118015
H83	H	1.780746	-0.054560	0.204080
H84	H	1.809265	-0.638931	0.091312
O85	O	1.711355	0.000206	0.310556
C86	C	1.810821	0.000189	0.375603
H87	H	1.775632	0.046299	0.434713
H88	H	1.845765	-0.116671	0.387677
C89	C	1.963023	0.039108	0.277898
C90	C	1.919806	0.095753	0.350497
H91	H	2.030253	0.098051	0.262411
H92	H	1.896012	0.039114	0.234074
H93	H	1.992133	-0.058274	0.287970
H94	H	1.890682	0.193126	0.340421
H95	H	1.986815	0.095766	0.394319
O96	O	1.654279	-0.802157	-0.010141
C97	C	1.628760	-0.853372	0.068934
H98	H	1.654527	-0.765004	0.117755
H99	H	1.524108	-0.880573	0.067390
C100	C	1.675798	-1.100481	0.031487
C101	C	1.707456	-0.991949	0.091451
H102	H	1.724336	-1.185965	0.045376
H103	H	1.692986	-1.065978	-0.021788
H104	H	1.588587	-1.123130	0.030206
H105	H	1.794661	-0.969289	0.092724
H106	H	1.690284	-1.026452	0.144728
O107	O	1.255584	0.000371	0.444868
C108	C	1.186530	0.126508	0.418024
H109	H	1.254102	0.214695	0.399595
H110	H	1.116528	0.097978	0.361910
C111	C	1.031387	0.075393	0.512035
C112	C	1.114382	0.183711	0.489406
H113	H	0.986877	0.110676	0.556064
H114	H	1.077907	-0.009591	0.530118
H115	H	0.973064	0.051628	0.465266
H116	H	1.172712	0.207460	0.536171
H117	H	1.067870	0.268701	0.471332
H118	H	0.715768	0.000177	-0.269475
H119	H	1.328456	-0.639003	-0.223933
H120	H	1.688912	0.000152	0.473126
