data_functionalizedCrystal
_audit_creation_method	'MofGen! by Chris Wilmer'
_symmetry_space_group_name_H-M	'P1'
_symmetry_Int_Tables_number	1
_symmetry_cell_setting	triclinic
loop_
_symmetry_equiv_pos_as_xyz
  x,y,z
_cell_length_a	15.625950
_cell_length_b	27.732048
_cell_length_c	14.185569
_cell_angle_alpha	76.951782
_cell_angle_beta	120.545593
_cell_angle_gamma	83.485104
loop_
_atom_site_label
_atom_site_type_symbol
_atom_site_fract_x
_atom_site_fract_y
_atom_site_fract_z
O1	O	1.290471	0.012524	0.385843
O2	O	1.002018	0.033796	0.280945
O3	O	1.155208	-0.047628	0.336673
O4	O	1.137281	0.093949	0.330115
O5	O	1.200462	-0.071680	0.519970
O6	O	1.047272	0.009745	0.464242
O7	O	1.335725	-0.011527	0.569140
Cu8	Cu	1.195630	-0.003087	0.533427
Cu9	Cu	1.142112	0.025356	0.316657
O10	O	1.182534	0.069898	0.513412
C11	C	0.987753	0.023189	0.359178
C12	C	0.877827	0.027409	0.319203
C13	C	0.639505	-0.024217	0.687172
C14	C	0.536197	-0.020234	0.649558
C15	C	0.486915	0.005983	0.449753
C16	C	0.590219	0.002005	0.487351
C17	C	0.666508	-0.013095	0.606061
C18	C	0.617222	0.013127	0.406240
C19	C	0.720519	0.009147	0.443835
C20	C	0.796813	-0.005954	0.562540
C21	C	0.769804	-0.017075	0.643656
C22	C	0.540933	0.028224	0.287530
C23	C	0.567936	0.039345	0.206419
C24	C	0.671233	0.035369	0.244013
C25	C	0.747527	0.020268	0.362719
C26	C	0.698242	0.046490	0.162898
C27	C	0.801538	0.042510	0.200492
C28	C	0.850824	0.016288	0.400314
C29	C	1.177460	-0.077645	0.428188
C30	C	1.176330	-0.131252	0.427785
C31	C	1.259708	-0.473681	0.458055
C32	C	1.255502	-0.675156	0.456511
O33	O	1.331747	-0.709717	0.484194
N34	N	1.164670	-0.690335	0.423480
C35	C	1.074881	-0.655141	0.390826
O36	O	0.997523	-0.672674	0.362684
C37	C	1.079086	-0.453666	0.392362
C38	C	1.169927	-0.438492	0.425406
C39	C	1.350542	-0.458505	0.491095
C40	C	1.351594	-0.408140	0.491486
C41	C	1.261812	-0.372951	0.458838
C42	C	1.170979	-0.388126	0.425797
C43	C	0.989296	-0.418472	0.359699
C44	C	0.990355	-0.368101	0.360084
C45	C	1.081196	-0.352926	0.393128
C46	C	1.082250	-0.302572	0.393540
N47	N	1.173082	-0.287393	0.426571
C48	C	1.262863	-0.322582	0.459220
C49	C	1.072680	-0.760920	0.390024
C50	C	1.071629	-0.811289	0.389642
C51	C	1.252251	-0.831299	0.455325
C52	C	1.253303	-0.780931	0.455715
C53	C	1.163513	-0.745740	0.423055
C54	C	1.265066	-0.216811	0.460040
C55	C	1.266111	-0.166441	0.460434
C56	C	1.085489	-0.146434	0.394744
C57	C	1.084445	-0.196800	0.394357
C58	C	1.174240	-0.231988	0.427004
O59	O	1.006043	-0.267983	0.365859
O60	O	1.340204	-0.305036	0.487333
C61	C	1.258656	-0.524046	0.457663
C62	C	1.167823	-0.539222	0.424623
C63	C	1.078042	-0.504032	0.391974
C64	C	1.166772	-0.589590	0.424241
C65	C	1.256553	-0.624780	0.456889
C66	C	1.347386	-0.609600	0.489920
C67	C	1.348438	-0.559235	0.490312
C68	C	0.987209	-0.519212	0.358943
C69	C	0.986165	-0.569578	0.358555
C70	C	1.075946	-0.604767	0.391204
C71	C	1.349989	-0.000919	0.490905
C72	C	1.459914	-0.005139	0.530872
C73	C	1.160282	0.099914	0.421895
C74	C	1.161411	0.153522	0.422290
N75	N	1.233279	-0.023093	0.685894
N76	N	1.104472	0.045358	0.164193
C77	C	0.993860	0.104115	0.966448
C78	C	1.022385	0.088963	1.081846
C79	C	1.158062	0.016885	1.131164
C80	C	1.129545	0.032029	1.015767
C81	C	1.047444	0.075645	0.933417
C82	C	1.183129	0.003559	0.982735
C83	C	1.154617	0.018704	0.867349
C84	C	1.072521	0.062318	0.784993
C85	C	1.018932	0.090789	0.818030
C86	C	1.265234	-0.040054	1.065089
C87	C	1.318819	-0.068524	1.032058
C88	C	1.290302	-0.053382	0.916668
C89	C	1.208207	-0.009767	0.834312
C90	C	1.343892	-0.081853	0.883631
C91	C	1.315380	-0.066708	0.768244
C92	C	1.179695	0.005377	0.718926
H93	H	0.514217	-0.029281	0.715616
C94	C	0.934747	-0.000321	0.530902
N95	N	0.997957	-0.012831	0.629257
H96	H	0.999558	-0.732271	0.363427
C97	C	1.448369	-0.542549	0.526656
N98	N	1.523642	-0.529985	0.554030
H99	H	0.912188	-0.581929	0.331654
C100	C	0.723428	-0.040825	0.817760
N101	N	0.786638	-0.053335	0.916115
C102	C	1.353231	-0.764242	0.492056
N103	N	1.428501	-0.751675	0.519426
C104	C	0.928576	0.138751	0.727423
N105	N	0.860512	0.174869	0.659175
C106	C	0.402988	0.022594	0.319175
N107	N	0.339774	0.035107	0.220821
H108	H	0.997662	-0.823641	0.362753
H109	H	0.456823	0.031466	0.256924
H110	H	0.915322	-0.430817	0.332785
C111	C	1.089339	0.053339	0.628319
N112	N	1.021275	0.089457	0.560070
C113	C	1.374323	-0.098028	0.731907
N114	N	1.418722	-0.121618	0.704539
C115	C	0.614314	0.063095	0.032320
N116	N	0.551099	0.075603	-0.066033
C117	C	0.903504	0.152076	0.875841
N118	N	0.835440	0.188194	0.807592
H119	H	0.880923	-0.009195	0.593148
C120	C	0.853727	-0.033684	0.774244
N121	N	0.916938	-0.046194	0.872599
H122	H	1.325354	-0.859959	0.481910
H123	H	1.012392	-0.117775	0.368167
C124	C	0.963428	0.120285	1.118172
N125	N	0.919024	0.143877	1.145533
H126	H	0.505810	0.051638	0.109765
C127	C	1.296596	-0.056712	1.192017
N128	N	1.320215	-0.069260	1.287620
H129	H	1.049311	0.074649	0.691040
H130	H	0.914096	-0.490564	0.332353
C131	C	0.831242	0.054748	0.111266
N132	N	0.853615	0.063966	0.044058
C133	C	1.366046	-0.149753	0.496783
N134	N	1.441315	-0.137184	0.524158
H135	H	1.338185	-0.245455	0.486621
H136	H	1.224912	-0.018626	1.198227
C137	C	1.409125	-0.116501	1.122653
N138	N	1.477142	-0.152640	1.190887
C139	C	1.451524	-0.391454	0.527826
N140	N	1.526795	-0.378889	0.555195
H141	H	1.423656	-0.487152	0.517679
H142	H	0.917235	-0.339450	0.333485
H143	H	1.010482	-0.209160	0.367480
H144	H	1.420490	-0.638261	0.516509
H145	H	1.410746	-0.117362	0.950697
