data_functionalizedCrystal
_audit_creation_method	'MofGen! by Chris Wilmer'
_symmetry_space_group_name_H-M	'P1'
_symmetry_Int_Tables_number	1
_symmetry_cell_setting	triclinic
loop_
_symmetry_equiv_pos_as_xyz
  x,y,z
_cell_length_a	19.077105
_cell_length_b	21.295417
_cell_length_c	19.076919
_cell_angle_alpha	87.732301
_cell_angle_beta	89.923776
_cell_angle_gamma	87.725910
loop_
_atom_site_label
_atom_site_type_symbol
_atom_site_fract_x
_atom_site_fract_y
_atom_site_fract_z
Zn1	Zn	1.058240	-0.304535	0.440394
Zn2	Zn	1.558240	0.195465	0.940394
Zn3	Zn	1.062870	-0.405748	0.322879
Zn4	Zn	1.562870	0.094252	0.822879
Zn5	Zn	0.945459	-0.296102	0.318188
Zn6	Zn	1.445459	0.203898	0.818188
Zn7	Zn	0.940692	-0.405368	0.435631
Zn8	Zn	1.440692	0.094632	0.935631
O9	O	1.001815	-0.352938	0.379273
O10	O	1.501815	0.147062	0.879273
O11	O	1.157186	-0.321649	0.428761
O12	O	1.657186	0.178351	0.928761
O13	O	1.051228	-0.387833	0.223925
O14	O	1.551228	0.112167	0.723925
O15	O	0.960477	-0.209135	0.334428
O16	O	1.460477	0.290865	0.834428
O17	O	1.160587	-0.396010	0.342424
O18	O	1.660587	0.103990	0.842424
O19	O	1.043337	-0.215330	0.424212
O20	O	1.543337	0.284670	0.924212
O21	O	0.964966	-0.307277	0.220479
O22	O	1.464966	0.192723	0.720479
O23	O	0.846495	-0.306909	0.329811
O24	O	1.346495	0.193091	0.829811
O25	O	0.952352	-0.395363	0.534594
O26	O	1.452352	0.104637	1.034594
O27	O	0.842993	-0.387186	0.416096
O28	O	1.342993	0.112814	0.916096
O29	O	1.038714	-0.321281	0.538093
O30	O	1.538714	0.178719	1.038093
O31	O	1.046605	-0.493784	0.337806
O32	O	1.546605	0.006216	0.837806
O33	O	0.956842	-0.493505	0.420645
O34	O	1.456842	0.006495	0.920645
C35	C	0.819248	-0.346091	0.371928
C36	C	1.319248	0.153909	0.871928
C37	C	0.741144	-0.343178	0.368802
C38	C	1.241144	0.156822	0.868802
C39	C	0.702648	-0.383664	0.412187
C40	C	1.202648	0.116336	0.912187
C41	C	0.629261	-0.380918	0.409254
C42	C	1.129261	0.119082	0.909254
C43	C	0.594371	-0.337690	0.362931
C44	C	1.094371	0.162310	0.862931
C45	C	0.632872	-0.297200	0.319544
C46	C	1.132872	0.202800	0.819544
C47	C	0.706257	-0.299943	0.322482
C48	C	1.206257	0.200057	0.822482
C49	C	0.375085	-0.324995	0.349340
C50	C	0.875085	0.175005	0.849340
C51	C	0.301694	-0.322256	0.346404
C52	C	0.801694	0.177744	0.846404
C53	C	0.298089	-0.405974	0.436115
C54	C	0.798089	0.094026	0.936115
C55	C	0.371476	-0.408716	0.439045
C56	C	0.871476	0.091284	0.939045
C57	C	0.409970	-0.368224	0.395661
C58	C	0.909970	0.131776	0.895661
N59	N	0.519358	-0.334883	0.359930
N60	N	1.019358	0.165117	0.859930
N61	N	0.484982	-0.371027	0.398666
N62	N	0.984982	0.128973	0.898666
C63	C	1.001727	-0.516485	0.379234
C64	C	1.501727	-0.016485	0.879234
C65	C	1.001753	-0.586455	0.379243
C66	C	1.501753	-0.086455	0.879243
C67	C	1.044871	-0.622490	0.426025
C68	C	1.544871	-0.122490	0.926025
C69	C	1.044895	-0.688234	0.426043
C70	C	1.544895	-0.188234	0.926043
C71	C	1.001809	-0.717940	0.379267
C72	C	1.501809	-0.217940	0.879267
C73	C	0.958682	-0.681896	0.332482
C74	C	1.458682	-0.181896	0.832482
C75	C	0.958654	-0.616153	0.332470
C76	C	1.458654	-0.116153	0.832470
N77	N	0.998975	-0.818882	0.317559
N78	N	1.498975	-0.318882	0.817559
N79	N	0.999006	-0.881335	0.317573
N80	N	1.499006	-0.381335	0.817573
C81	C	1.001890	-0.916019	0.379302
C82	C	1.501890	-0.416019	0.879302
N83	N	1.004755	-0.885891	0.441020
N84	N	1.504755	-0.385891	0.941020
N85	N	1.004728	-0.823432	0.441005
N86	N	1.504728	-0.323432	0.941005
C87	C	1.001834	-0.789227	0.379276
C88	C	1.501834	-0.289227	0.879276
C89	C	1.045036	-1.023342	0.426108
C90	C	1.545036	-0.523342	0.926108
C91	C	1.045055	-1.089087	0.426127
C92	C	1.545055	-0.589087	0.926127
C93	C	0.958846	-1.082748	0.332560
C94	C	1.458846	-0.582748	0.832560
C95	C	0.958823	-1.017004	0.332547
C96	C	1.458823	-0.517004	0.832547
C97	C	1.001922	-0.987305	0.379320
C98	C	1.501922	-0.487305	0.879320
C99	C	1.185096	-0.359812	0.386647
C100	C	1.685096	0.140188	0.886647
C101	C	1.263199	-0.362742	0.389789
C102	C	1.763199	0.137258	0.889789
C103	C	0.994485	-0.359220	0.562552
C104	C	1.494485	0.140780	1.062552
C105	C	0.991361	-0.361897	0.640655
C106	C	1.491361	0.138103	1.140655
C107	C	1.001922	-0.188754	0.379328
C108	C	1.501922	0.311246	0.879328
C109	C	1.001968	-0.118788	0.379352
C110	C	1.501968	0.381212	0.879352
C111	C	1.009157	-0.346637	0.196708
C112	C	1.509157	0.153363	0.696708
C113	C	1.012417	-0.343788	0.118611
C114	C	1.512417	0.156212	0.618611
C115	C	1.034856	-0.324586	0.679171
C116	C	1.534856	0.175414	1.179171
C117	C	1.031912	-0.327098	0.752557
C118	C	1.531912	0.172902	1.252557
C119	C	0.985477	-0.366926	0.787425
C120	C	1.485477	0.133074	1.287425
C121	C	0.941978	-0.404238	0.748904
C122	C	1.441978	0.095762	1.248904
C123	C	0.944919	-0.401722	0.675520
C124	C	1.444919	0.098278	1.175520
C125	C	0.971858	-0.378584	1.006706
C126	C	1.471858	0.121416	1.506706
C127	C	0.968923	-0.381099	1.080095
C128	C	1.468923	0.118901	1.580095
C129	C	1.058856	-0.303958	1.083742
C130	C	1.558856	0.196042	1.583742
C131	C	1.061795	-0.301448	1.010356
C132	C	1.561795	0.198552	1.510356
C133	C	1.018294	-0.338758	0.971842
C134	C	1.518294	0.161242	1.471842
N135	N	0.982469	-0.369496	0.862437
N136	N	1.482469	0.130504	1.362437
N137	N	1.021299	-0.336184	0.896831
N138	N	1.521299	0.163816	1.396831
H139	H	0.266739	-0.438940	0.471437
H140	H	0.766739	0.061060	0.971437
H141	H	0.904167	-0.436664	0.777300
H142	H	1.404167	0.063336	1.277300
H143	H	0.931107	-0.413533	1.108483
H144	H	1.431107	0.086467	1.608483
O145	O	0.747784	-0.256284	0.275681
O146	O	1.247784	0.243716	0.775681
H147	H	0.711196	-0.225769	0.242969
H148	H	1.211196	0.274231	0.742969
H149	H	0.923599	-0.706087	0.294399
H150	H	1.423599	-0.206087	0.794399
H151	H	1.094272	-0.273581	1.115109
H152	H	1.594272	0.226419	1.615109
H153	H	1.099610	-0.269018	0.981971
H154	H	1.599610	0.230982	1.481971
O155	O	1.084946	-0.281633	0.641565
O156	O	1.584946	0.218367	1.141565
H157	H	1.054859	-0.247284	0.606869
H158	H	1.554859	0.252716	1.106869
O159	O	0.587743	-0.424700	0.455912
O160	O	1.087743	0.075300	0.955912
H161	H	0.624336	-0.455267	0.488561
H162	H	1.124336	0.044733	0.988561
O163	O	0.595234	-0.250589	0.269570
O164	O	1.095234	0.249411	0.769570
H165	H	0.560548	-0.218440	0.299737
H166	H	1.060548	0.281560	0.799737
O167	O	0.416590	-0.281335	0.302525
O168	O	0.916590	0.218665	0.802525
H169	H	0.402041	-0.231835	0.314098
H170	H	0.902041	0.268165	0.814098
O171	O	0.912156	-0.577280	0.282002
O172	O	1.412156	-0.077280	0.782002
H173	H	0.882202	-0.608978	0.249473
H174	H	1.382202	-0.108978	0.749473
H175	H	1.080001	-0.717580	0.464146
H176	H	1.580001	-0.217580	0.964146
O177	O	1.091350	-0.590452	0.476470
O178	O	1.591350	-0.090452	0.976470
H179	H	1.128367	-0.560750	0.446473
H180	H	1.628367	-0.060750	0.946473
H181	H	0.399878	-0.443919	0.476765
H182	H	0.899878	0.056081	0.976765
O183	O	0.924905	-0.418790	0.965167
O184	O	1.424905	0.081210	1.465167
H185	H	0.892115	-0.446898	1.001744
H186	H	1.392115	0.053102	1.501744
O187	O	1.091512	-0.991302	0.476558
O188	O	1.591512	-0.491302	0.976558
H189	H	1.121492	-1.027408	0.509100
H190	H	1.621492	-0.527408	1.009100
H191	H	0.273289	-0.287047	0.308687
H192	H	0.773289	0.212953	0.808687
O193	O	0.897998	-0.441962	0.633981
O194	O	1.397998	0.058038	1.133981
H195	H	0.930758	-0.474021	0.601794
H196	H	1.430758	0.025979	1.101794
O197	O	0.740279	-0.430287	0.462153
O198	O	1.240279	0.069713	0.962153
H199	H	0.701178	-0.457972	0.491834
H200	H	1.201178	0.042028	0.991834
O201	O	1.091562	-1.127959	0.476588
O202	O	1.591562	-0.627959	0.976588
H203	H	1.121529	-1.096260	0.509103
H204	H	1.621529	-0.596260	1.009103
H205	H	0.923760	-1.106933	0.294479
H206	H	1.423760	-0.606933	0.794479
H207	H	1.067332	-0.296717	0.783913
H208	H	1.567332	0.203283	1.283913
H209	H	0.923715	-0.987661	0.294450
H210	H	1.423715	-0.487661	0.794450
