data_functionalizedCrystal
_audit_creation_method	'MofGen! by Chris Wilmer'
_symmetry_space_group_name_H-M	'P1'
_symmetry_Int_Tables_number	1
_symmetry_cell_setting	triclinic
loop_
_symmetry_equiv_pos_as_xyz
  x,y,z
_cell_length_a	14.044220
_cell_length_b	17.038272
_cell_length_c	13.101039
_cell_angle_alpha	93.604737
_cell_angle_beta	86.340132
_cell_angle_gamma	92.150217
loop_
_atom_site_label
_atom_site_type_symbol
_atom_site_fract_x
_atom_site_fract_y
_atom_site_fract_z
O1	O	1.277881	0.185592	-0.085106
O2	O	1.777881	0.685592	0.414894
O3	O	1.001361	0.178751	-0.085132
O4	O	1.501361	0.678751	0.414868
O5	O	1.137977	0.068241	-0.085111
O6	O	1.637977	0.568241	0.414889
O7	O	1.141265	0.296101	-0.085127
O8	O	1.641265	0.796101	0.414873
O9	O	1.128176	0.076185	0.085317
O10	O	1.628176	0.576185	0.585317
O11	O	0.991560	0.186694	0.085296
O12	O	1.491560	0.686694	0.585296
O13	O	1.268080	0.193535	0.085322
O14	O	1.768080	0.693535	0.585322
Zn15	Zn	1.128264	0.191376	0.112368
Zn16	Zn	1.628264	0.691376	0.612368
Zn17	Zn	1.141177	0.180910	-0.112178
Zn18	Zn	1.641177	0.680910	0.387822
O19	O	1.131464	0.304045	0.085301
O20	O	1.631464	0.804045	0.585301
C21	C	0.960905	0.179728	0.000079
C22	C	1.460905	0.679728	0.500079
C23	C	0.854960	0.170796	0.000069
C24	C	1.354960	0.670796	0.500069
C25	C	0.660980	0.154468	0.000091
C26	C	1.160980	0.654468	0.500091
C27	C	0.608455	0.217813	0.000090
C28	C	1.108455	0.717813	0.500090
C29	C	0.500518	0.208729	0.000102
C30	C	1.000518	0.708729	0.500102
C31	C	0.768927	0.163552	0.000079
C32	C	1.268927	0.663552	0.500079
C33	C	1.130087	0.042876	0.000103
C34	C	1.630087	0.542876	0.500103
C35	C	1.121168	-0.044541	0.000101
C36	C	1.621168	0.455459	0.500101
C37	C	1.203056	-0.088926	0.000110
C38	C	1.703056	0.411074	0.500110
C39	C	1.194670	-0.171064	0.000100
C40	C	1.694670	0.328936	0.500100
C41	C	1.104396	-0.208815	0.000088
C42	C	1.604396	0.291185	0.500088
C43	C	1.022502	-0.164424	0.000076
C44	C	1.522502	0.335576	0.500076
C45	C	1.030889	-0.082288	0.000079
C46	C	1.530889	0.417712	0.500079
C47	C	1.074767	-0.456646	0.000071
C48	C	1.574767	0.043354	0.500071
C49	C	1.066386	-0.538788	0.000071
C50	C	1.566386	-0.038788	0.500071
C51	C	1.238555	-0.545423	0.000093
C52	C	1.738555	-0.045423	0.500093
C53	C	1.246934	-0.463285	0.000102
C54	C	1.746934	0.036715	0.500102
C55	C	1.165040	-0.418901	0.000085
C56	C	1.665040	0.081099	0.500085
C57	C	1.095822	-0.292773	0.000080
C58	C	1.595822	0.207227	0.500080
C59	C	1.173615	-0.334945	0.000085
C60	C	1.673615	0.165055	0.500085
C61	C	1.308536	0.192558	0.000109
C62	C	1.808536	0.692558	0.500109
C63	C	1.414482	0.201490	0.000112
C64	C	1.914482	0.701490	0.500112
C65	C	1.139354	0.329410	0.000085
C66	C	1.639354	0.829410	0.500085
C67	C	1.148273	0.416827	0.000080
C68	C	1.648273	0.916827	0.500080
N69	N	1.119458	0.198518	0.265616
N70	N	1.619458	0.698518	0.765616
N71	N	1.149990	0.173762	-0.265426
N72	N	1.649990	0.673762	0.234574
C73	C	1.107478	0.208243	0.474656
C74	C	1.607478	0.708243	0.974656
C75	C	1.161967	0.164040	0.525540
C76	C	1.661967	0.664040	1.025540
C77	C	1.155301	0.169451	0.641858
C78	C	1.655301	0.669451	1.141858
C79	C	1.114143	0.202833	0.358328
C80	C	1.614143	0.702833	0.858328
H81	H	0.624887	0.093419	0.000100
H82	H	1.124887	0.593419	0.500100
C83	C	1.044574	0.259301	0.639223
C84	C	1.544574	0.759301	1.139223
C85	C	1.037756	0.264822	0.533768
C86	C	1.537756	0.764822	1.033768
H87	H	1.001537	0.294235	0.675723
H88	H	1.501537	0.794235	1.175723
H89	H	1.028886	0.206924	0.656742
H90	H	1.528886	0.706924	1.156742
H91	H	1.107923	0.273012	0.656725
H92	H	1.607923	0.773012	1.156725
H93	H	0.974408	0.251105	0.516266
H94	H	1.474408	0.751105	1.016266
H95	H	1.053438	0.317210	0.516243
H96	H	1.553438	0.817210	1.016243
C97	C	0.624812	0.345233	0.087668
C98	C	1.124812	0.845233	0.587668
C99	C	0.657184	0.300233	0.000065
C100	C	1.157184	0.800233	0.500065
H101	H	0.654907	0.396110	0.087648
H102	H	1.154907	0.896110	0.587648
H103	H	0.557626	0.349866	0.087670
H104	H	1.057626	0.849866	0.587670
H105	H	0.639965	0.320246	0.147099
H106	H	1.139965	0.820246	0.647099
H107	H	0.642025	0.325217	-0.059367
H108	H	1.142025	0.825217	0.440633
H109	H	0.724386	0.295603	0.000053
H110	H	1.224386	0.795603	0.500053
H111	H	1.276567	-0.058196	0.000126
H112	H	1.776567	0.441804	0.500126
H113	H	1.261352	-0.207199	0.000109
H114	H	1.761352	0.292801	0.500109
H115	H	1.320445	-0.432554	0.000112
H116	H	1.820445	0.067446	0.500112
C117	C	1.302150	-0.674277	0.000087
C118	C	1.802150	-0.174277	0.500087
C119	C	1.328569	-0.594211	0.000097
C120	C	1.828569	-0.094211	0.500097
H121	H	1.357726	-0.704396	0.000080
H122	H	1.857726	-0.204396	0.500080
H123	H	1.261999	-0.683605	0.059513
H124	H	1.761999	-0.183605	0.559513
H125	H	1.268821	-0.689132	-0.059351
H126	H	1.768821	-0.189132	0.440649
H127	H	1.361892	-0.579355	0.059540
H128	H	1.861892	-0.079355	0.559540
H129	H	1.368736	-0.584879	-0.059336
H130	H	1.868736	-0.084879	0.440664
H131	H	0.992869	-0.569521	0.000078
H132	H	1.492869	-0.069521	0.500078
H133	H	1.008083	-0.420519	0.000057
H134	H	1.508083	0.079481	0.500057
C135	C	0.933197	-0.287384	0.000074
C136	C	1.433197	0.212616	0.500074
C137	C	0.923269	-0.205918	0.000067
C138	C	1.423269	0.294082	0.500067
H139	H	0.871932	-0.312997	0.000077
H140	H	1.371932	0.187003	0.500077
H141	H	0.970603	-0.304973	-0.059352
H142	H	1.470603	0.195027	0.440648
H143	H	0.963778	-0.299432	0.059513
H144	H	1.463778	0.200568	0.559513
H145	H	0.892695	-0.193869	-0.059377
H146	H	1.392695	0.306131	0.440623
H147	H	0.885849	-0.188323	0.059498
H148	H	1.385849	0.311677	0.559498
C149	C	0.859866	-0.083975	0.000065
C150	C	1.359866	0.416025	0.500065
C151	C	0.940875	-0.033497	0.000072
C152	C	1.440875	0.466503	0.500072
H153	H	0.804295	-0.053852	0.000063
H154	H	1.304295	0.446148	0.500063
H155	H	0.863595	-0.118915	-0.059363
H156	H	1.363595	0.381085	0.440637
H157	H	0.856761	-0.113382	0.059502
H158	H	1.356761	0.386618	0.559502
H159	H	0.943983	-0.004093	-0.059369
H160	H	1.443983	0.495907	0.440631
H161	H	0.937145	0.001457	0.059506
H162	H	1.437145	0.501457	0.559506
H163	H	1.213624	0.122133	0.481746
H164	H	1.713624	0.622133	0.981746
C165	C	1.287957	-0.250502	-0.087507
C166	C	1.787957	0.249498	0.412493
C167	C	1.272842	-0.293449	0.000099
C168	C	1.772842	0.206551	0.500099
H169	H	1.349213	-0.224875	-0.087490
H170	H	1.849213	0.275125	0.412510
H171	H	1.284539	-0.285174	-0.146930
H172	H	1.784539	0.214826	0.353070
H173	H	1.240375	-0.212320	-0.087505
H174	H	1.740375	0.287680	0.412495
H175	H	1.320421	-0.331635	0.000093
H176	H	1.820421	0.168365	0.500093
H177	H	1.276268	-0.258774	0.059537
H178	H	1.776268	0.241226	0.559537
H179	H	1.022320	-0.323518	0.000073
H180	H	1.522320	0.176482	0.500073
