data_functionalizedCrystal
_audit_creation_method	'MofGen! by Chris Wilmer'
_symmetry_space_group_name_H-M	'P1'
_symmetry_Int_Tables_number	1
_symmetry_cell_setting	triclinic
loop_
_symmetry_equiv_pos_as_xyz
  x,y,z
_cell_length_a	14.395555
_cell_length_b	14.395555
_cell_length_c	14.395555
_cell_angle_alpha	60.000749
_cell_angle_beta	90.002623
_cell_angle_gamma	60.001260
loop_
_atom_site_label
_atom_site_type_symbol
_atom_site_fract_x
_atom_site_fract_y
_atom_site_fract_z
Zr1	Zr	0.894946	1.016746	-0.121871
O2	O	0.746622	1.210542	-0.270205
O3	O	0.940411	0.822950	-0.076396
O4	O	0.940418	1.016737	-0.270192
O5	O	0.746614	1.016762	0.076458
O6	O	1.093292	1.016730	-0.270184
O7	O	0.746615	1.016755	-0.076409
O8	O	1.093279	0.670081	0.076482
O9	O	0.746627	1.363411	-0.270207
O10	O	1.073894	0.902656	-0.056998
O11	O	0.959805	0.902666	0.057079
O12	O	0.959814	1.130826	-0.171091
O13	O	0.845725	1.130836	-0.057014
Zr14	Zr	1.138760	1.016746	0.121948
Zr15	Zr	1.138762	1.016735	-0.121858
Zr16	Zr	0.894944	1.016757	0.121935
Zr17	Zr	0.894953	1.260555	-0.121874
Zr18	Zr	1.138753	0.772937	0.121952
O19	O	1.093295	1.210542	0.076473
O20	O	1.093298	1.210526	-0.270187
O21	O	0.746620	1.210557	0.076455
O22	O	1.287084	0.822950	0.270283
O23	O	1.287086	0.822935	-0.076378
O24	O	0.940408	0.822966	0.270264
O25	O	1.287092	1.016730	-0.076380
O26	O	1.093288	1.016755	0.270269
O27	O	0.940414	1.016762	0.270261
O28	O	1.287091	1.016737	0.076487
O29	O	0.940428	1.363403	-0.270197
O30	O	1.093278	0.670089	0.270275
O31	O	1.287079	0.670081	0.270285
O32	O	1.287081	0.670072	0.076492
O33	O	0.746625	1.363420	-0.076414
O34	O	0.940427	1.363411	-0.076404
O35	O	1.073892	0.902666	0.171168
O36	O	1.187982	0.902656	0.057091
O37	O	1.073901	1.130826	-0.057002
O38	O	0.959812	1.130836	0.057076
C39	C	1.016844	0.711778	0.000043
C40	C	1.016841	0.608274	0.000045
C41	C	0.954638	0.547688	0.062248
C42	C	0.909556	0.561941	-0.045029
C43	C	1.061895	0.409625	0.107290
C44	C	0.971697	0.623954	-0.107296
C45	C	1.124095	0.471575	0.045100
C46	C	1.079040	0.485875	-0.062241
C47	C	0.711876	1.016760	0.000023
C48	C	0.608369	1.016764	0.000017
C49	C	0.485579	1.141173	-0.062181
C50	C	0.454742	1.078977	-0.107255
C51	C	0.454783	1.078955	0.045082
C52	C	0.578896	0.954568	-0.045119
C53	C	0.578934	0.954564	0.107278
C54	C	0.548170	0.892278	0.062231
C55	C	1.321830	1.016732	0.000055
C56	C	1.425337	1.016728	0.000060
C57	C	1.016855	1.016732	-0.304925
C58	C	1.016856	1.016728	-0.408427
C59	C	1.016862	1.321714	0.000034
C60	C	1.016865	1.425218	0.000033
C61	C	1.079063	0.892319	-0.406807
C62	C	0.971789	0.954515	-0.499835
C63	C	1.124104	0.954537	-0.499827
C64	C	0.909518	1.078924	-0.500092
C65	C	1.061911	1.078928	-0.500069
C66	C	0.954572	1.141214	-0.593115
C67	C	1.016851	1.016760	0.305002
C68	C	1.016850	1.016764	0.408504
C69	C	1.321821	0.711764	0.000060
C70	C	1.425325	0.608256	0.000067
C71	C	1.016842	0.711792	0.305007
C72	C	1.016838	0.608293	0.408510
C73	C	1.321819	0.711778	0.305023
C74	C	1.425322	0.608274	0.408532
C75	C	0.711887	1.321714	-0.304946
C76	C	0.608384	1.425218	-0.408455
C77	C	0.711885	1.321728	0.000018
C78	C	0.608381	1.425236	0.000011
C79	C	1.016864	1.321700	-0.304929
C80	C	1.016868	1.425199	-0.408433
C81	C	1.548117	0.547697	0.062244
C82	C	1.578974	0.409590	0.107299
C83	C	1.578885	0.561988	-0.045040
C84	C	1.454818	0.471449	0.045186
C85	C	1.454733	0.623920	-0.107214
C86	C	1.485516	0.485822	-0.062185
C87	C	0.954628	0.547711	0.406894
C88	C	1.061903	0.409609	0.499919
C89	C	0.909593	0.561948	0.499916
C90	C	1.124176	0.471491	0.500173
C91	C	0.971788	0.623905	0.500155
C92	C	1.079128	0.485812	0.593198
C93	C	1.423704	0.547671	0.531322
C94	C	1.516691	0.409573	0.562122
C95	C	1.516764	0.561844	0.562159
C96	C	1.516946	0.471477	0.437969
C97	C	1.517004	0.623822	0.438009
C98	C	1.610009	0.485734	0.468736
H99	H	0.460139	1.246371	-0.114861
N100	N	1.112367	0.288295	0.227440
H101	H	1.112693	0.218441	0.226515
H102	H	1.065263	0.311008	0.274274
N103	N	0.884867	0.583784	0.131811
H104	H	0.934720	0.564847	0.197070
H105	H	0.852635	0.530332	0.162698
H106	H	0.401226	1.131554	-0.197947
H107	H	0.902104	0.574794	0.327132
N108	N	1.148628	0.752979	-0.301151
H109	H	1.148731	0.753946	-0.231480
H110	H	1.229280	0.705562	-0.301003
N111	N	0.884792	1.280665	-0.698608
H112	H	0.934594	1.296137	-0.744970
H113	H	0.852713	1.343611	-0.675854
H114	H	0.573824	0.786993	0.114836
H115	H	1.100053	1.131459	-0.499093
N116	N	1.649895	0.288195	0.227410
H117	H	1.612064	0.303771	0.282059
H118	H	1.728055	0.268108	0.246430
N119	N	1.383820	0.745344	-0.227304
H120	H	1.313564	0.814506	-0.226419
H121	H	1.360633	0.722374	-0.274609
N122	N	0.789312	1.148520	-0.499029
H123	H	0.769774	1.226227	-0.498766
H124	H	0.782826	1.085789	-0.428656
H125	H	1.632362	0.599224	-0.083152
N126	N	1.244196	0.422366	0.095616
H127	H	1.291554	0.398274	0.049480
H128	H	1.278071	0.342402	0.176680
H129	H	0.933645	0.715560	0.499166
N130	N	1.384185	0.421868	0.095817
H131	H	1.314271	0.492503	0.095581
H132	H	1.430709	0.341281	0.176560
N133	N	1.244242	0.884864	-0.501033
H134	H	1.291157	0.790884	-0.431541
H135	H	1.278673	0.930988	-0.500578
H136	H	1.100018	0.317987	0.500849
H137	H	1.517757	0.598875	0.615788
N138	N	1.244378	0.421964	0.499100
H139	H	1.243631	0.492629	0.428703
H140	H	1.278465	0.341387	0.498926
N141	N	0.649563	0.884965	-0.095721
H142	H	0.719482	0.885442	-0.095457
H143	H	0.603068	0.931628	-0.176472
N144	N	0.921294	0.884883	-0.501084
H145	H	0.968339	0.790899	-0.431597
H146	H	0.920984	0.886260	-0.571922
H147	H	0.632446	0.902032	0.197950
H148	H	1.459859	0.458804	-0.114797
H149	H	0.818896	0.599126	0.500826
H150	H	0.401279	1.131562	0.083177
H151	H	1.343944	0.574771	0.556757
H152	H	1.573559	0.574769	0.114931
N153	N	1.148904	0.450015	0.698682
H154	H	1.229874	0.415105	0.699436
H155	H	1.147899	0.380445	0.768410
N156	N	1.517871	0.288238	0.632926
H157	H	1.448378	0.310802	0.657409
H158	H	1.588703	0.218404	0.702397
H159	H	0.818862	0.599129	-0.083148
N160	N	0.921107	0.745226	-0.227500
H161	H	0.921382	0.814872	-0.226751
H162	H	0.840354	0.779500	-0.261601
N163	N	1.515831	0.422002	0.367257
H164	H	1.445434	0.492697	0.297337
H165	H	1.515628	0.341442	0.413721
H166	H	1.689639	0.458688	0.443084
N167	N	1.515768	0.745185	0.367165
H168	H	1.514744	0.780173	0.413224
H169	H	1.445722	0.814324	0.296908
H170	H	1.131641	0.458927	-0.114923
