data_functionalizedCrystal
_audit_creation_method	'MofGen! by Chris Wilmer'
_symmetry_space_group_name_H-M	'P1'
_symmetry_Int_Tables_number	1
_symmetry_cell_setting	triclinic
loop_
_symmetry_equiv_pos_as_xyz
  x,y,z
_cell_length_a	11.792241
_cell_length_b	17.038272
_cell_length_c	10.868271
_cell_angle_alpha	89.994627
_cell_angle_beta	89.999893
_cell_angle_gamma	87.652486
loop_
_atom_site_label
_atom_site_type_symbol
_atom_site_fract_x
_atom_site_fract_y
_atom_site_fract_z
O1	O	1.516303	0.107207	-0.102203
O2	O	2.016303	0.607207	0.397797
O3	O	1.186930	0.118256	-0.102232
O4	O	1.686930	0.618256	0.397768
O5	O	1.349659	-0.001093	-0.102208
O6	O	1.849659	0.498907	0.397792
O7	O	1.353574	0.226555	-0.102227
O8	O	1.853574	0.726555	0.397773
O9	O	1.349644	-0.001097	0.102436
O10	O	1.849644	0.498903	0.602436
O11	O	1.186915	0.118251	0.102412
O12	O	1.686915	0.618251	0.602412
O13	O	1.516288	0.107202	0.102441
O14	O	2.016288	0.607202	0.602441
Zn15	Zn	1.351599	0.112726	0.134919
Zn16	Zn	1.851599	0.612726	0.634919
Zn17	Zn	1.351618	0.112732	-0.134710
Zn18	Zn	1.851618	0.612732	0.365290
O19	O	1.353559	0.226551	0.102417
O20	O	1.853559	0.726551	0.602417
C21	C	1.144571	0.117559	0.000086
C22	C	1.644571	0.617559	0.500086
C23	C	1.018375	0.115482	0.000076
C24	C	1.518375	0.615482	0.500076
C25	C	1.346090	-0.030239	0.000114
C26	C	1.846090	0.469761	0.500114
C27	C	1.335466	-0.117079	0.000112
C28	C	1.835466	0.382921	0.500112
C29	C	0.787328	0.111662	0.000111
C30	C	1.287328	0.611662	0.500111
C31	C	0.915899	0.113785	0.000092
C32	C	1.415899	0.613785	0.500092
C33	C	1.433006	-0.166762	0.000122
C34	C	1.933006	0.333238	0.500122
C35	C	1.423017	-0.248357	0.000110
C36	C	1.923017	0.251643	0.500110
C37	C	1.315487	-0.280267	0.000096
C38	C	1.815487	0.219733	0.500096
C39	C	1.217940	-0.230577	0.000083
C40	C	1.717940	0.269423	0.500083
C41	C	1.227930	-0.148984	0.000086
C42	C	1.727930	0.351016	0.500086
C43	C	1.280194	-0.526181	0.000076
C44	C	1.780194	-0.026181	0.500076
C45	C	1.270211	-0.607780	0.000076
C46	C	1.770211	-0.107780	0.500076
C47	C	1.475289	-0.625554	0.000101
C48	C	1.975289	-0.125554	0.500101
C49	C	1.485270	-0.543958	0.000112
C50	C	1.985270	-0.043958	0.500112
C51	C	1.387723	-0.494276	0.000092
C52	C	1.887723	0.005724	0.500092
C53	C	1.305274	-0.363669	0.000087
C54	C	1.805274	0.136331	0.500087
C55	C	1.397937	-0.410875	0.000092
C56	C	1.897937	0.089125	0.500092
C57	C	1.558647	0.107899	0.000120
C58	C	2.058647	0.607899	0.500120
C59	C	1.684843	0.109976	0.000122
C60	C	2.184843	0.609976	0.500122
C61	C	1.357127	0.255697	0.000093
C62	C	1.857127	0.755697	0.500093
C63	C	1.367751	0.342537	0.000086
C64	C	1.867751	0.842537	0.500086
N65	N	1.351594	0.112721	0.318933
N66	N	1.851594	0.612721	0.818933
N67	N	1.351632	0.112731	-0.318724
N68	N	1.851632	0.612731	0.181276
C69	C	1.351612	0.112730	0.569939
C70	C	1.851612	0.612730	1.069939
C71	C	1.351599	0.112728	0.430261
C72	C	1.851599	0.612728	0.930261
H73	H	1.520568	-0.140788	0.000141
H74	H	2.020568	0.359212	0.500141
H75	H	1.182643	-0.633757	0.000085
H76	H	1.682643	-0.133757	0.500085
O77	O	1.133064	-0.100831	0.000131
O78	O	1.633064	0.399169	0.500131
C79	C	0.928602	-0.091808	0.000023
C80	C	1.428602	0.408192	0.500023
C81	C	1.035946	-0.146429	0.000011
C82	C	1.535946	0.353571	0.500011
H83	H	0.850055	-0.128652	-0.000100
H84	H	1.350055	0.371348	0.499900
H85	H	0.928060	-0.053181	0.085685
H86	H	1.428060	0.446819	0.585685
H87	H	0.928229	-0.053145	-0.085602
H88	H	1.428229	0.446855	0.414398
H89	H	1.036390	-0.185142	0.085578
H90	H	1.536390	0.314858	0.585578
H91	H	1.036447	-0.185003	-0.085707
H92	H	1.536447	0.314997	0.414293
H93	H	1.485487	-0.384890	0.000076
H94	H	1.985487	0.115110	0.500076
H95	H	1.217723	-0.389660	0.000079
H96	H	1.717723	0.110340	0.500079
O97	O	1.517883	-0.296506	0.000182
O98	O	2.017883	0.203494	0.500182
C99	C	1.722346	-0.305525	0.000152
C100	C	2.222346	0.194475	0.500152
C101	C	1.614999	-0.250906	0.000099
C102	C	2.114999	0.249094	0.500099
H103	H	1.800891	-0.268679	0.000059
H104	H	2.300891	0.231321	0.500059
H105	H	1.722862	-0.344161	0.085814
H106	H	2.222862	0.155839	0.585814
H107	H	1.722748	-0.344179	-0.085473
H108	H	2.222748	0.155821	0.414527
H109	H	1.614526	-0.212203	0.085666
H110	H	2.114526	0.287797	0.585666
H111	H	1.614524	-0.212323	-0.085620
H112	H	2.114524	0.287677	0.414380
H113	H	1.130387	-0.256565	0.000064
H114	H	1.630387	0.243435	0.500064
O115	O	1.589812	-0.513093	0.000075
O116	O	2.089812	-0.013093	0.500075
C117	C	1.792166	-0.539336	0.000193
C118	C	2.292166	-0.039336	0.500193
C119	C	1.673843	-0.574395	0.000193
C120	C	2.173843	-0.074395	0.500193
H121	H	1.860137	-0.588881	0.000315
H122	H	2.360137	-0.088881	0.500315
H123	H	1.802061	-0.501599	-0.085464
H124	H	2.302061	-0.001599	0.414536
H125	H	1.801892	-0.501563	0.085823
H126	H	2.301892	-0.001563	0.585823
H127	H	1.664036	-0.612204	-0.085379
H128	H	2.164036	-0.112204	0.414621
H129	H	1.664002	-0.612086	0.085906
H130	H	2.164002	-0.112086	0.585906
O131	O	1.570006	-0.673848	-0.000110
O132	O	2.070006	-0.173848	0.499890
C133	C	1.677720	-0.776309	-0.106093
C134	C	2.177720	-0.276309	0.393907
C135	C	1.570415	-0.721649	-0.106016
C136	C	2.070415	-0.221649	0.393984
H137	H	1.678073	-0.814982	-0.191696
H138	H	2.178073	-0.314982	0.308304
H139	H	1.756330	-0.739525	-0.106165
H140	H	2.256330	-0.239525	0.393835
H141	H	1.678156	-0.814925	-0.020413
H142	H	2.178156	-0.314925	0.479587
H143	H	1.569868	-0.683023	-0.191681
H144	H	2.069868	-0.183023	0.308319
H145	H	1.491853	-0.758480	-0.105880
H146	H	1.991853	-0.258480	0.394120
O147	O	1.185324	-0.478038	0.000128
O148	O	1.685324	0.021962	0.500128
C149	C	0.980862	-0.469027	0.000053
C150	C	1.480862	0.030973	0.500053
C151	C	1.088213	-0.523643	0.000017
C152	C	1.588213	-0.023643	0.500017
H153	H	0.902320	-0.505876	-0.000062
H154	H	1.402320	-0.005876	0.499938
H155	H	0.980326	-0.430405	0.085719
H156	H	1.480326	0.069595	0.585719
H157	H	0.980472	-0.430360	-0.085568
H158	H	1.480472	0.069640	0.414432
H159	H	1.088673	-0.562359	0.085581
H160	H	1.588673	-0.062359	0.585581
H161	H	1.088706	-0.562212	-0.085705
H162	H	1.588706	-0.062212	0.414295
