data_functionalizedCrystal
_audit_creation_method	'MofGen! by Chris Wilmer'
_symmetry_space_group_name_H-M	'P1'
_symmetry_Int_Tables_number	1
_symmetry_cell_setting	triclinic
loop_
_symmetry_equiv_pos_as_xyz
  x,y,z
_cell_length_a	10.967926
_cell_length_b	12.376457
_cell_length_c	11.026607
_cell_angle_alpha	76.198578
_cell_angle_beta	96.380754
_cell_angle_gamma	89.566802
loop_
_atom_site_label
_atom_site_type_symbol
_atom_site_fract_x
_atom_site_fract_y
_atom_site_fract_z
O1	O	1.648667	-0.227173	0.226339
O2	O	1.302490	-0.159732	0.226089
O3	O	1.446887	-0.187867	0.047940
O4	O	1.504270	-0.199038	0.404487
O5	O	1.410791	-0.368846	0.092414
O6	O	1.266394	-0.340711	0.270563
O7	O	1.612571	-0.408152	0.270813
Zn8	Zn	1.433751	-0.403166	0.277749
Zn9	Zn	1.481310	-0.164718	0.219153
O10	O	1.468174	-0.380017	0.448961
C11	C	1.239435	-0.241454	0.244983
C12	C	1.105325	-0.215327	0.235010
C13	C	1.026836	-0.297432	0.253602
C14	C	0.888226	-0.270431	0.243294
N15	N	1.401302	-0.565902	0.317739
C16	C	1.589085	-0.957475	0.086299
C17	C	1.611790	-0.843559	0.058309
C18	C	1.559169	-0.774139	0.123164
C19	C	1.483842	-0.818646	0.216014
C20	C	1.461143	-0.932575	0.244013
C21	C	1.431227	-0.749239	0.280878
C22	C	1.355899	-0.793746	0.373728
C23	C	1.333203	-0.907664	0.401722
C24	C	1.385824	-0.977084	0.336867
C25	C	1.453926	-0.635310	0.252879
C26	C	1.325983	-0.610411	0.410593
C27	C	1.303279	-0.724327	0.438583
C28	C	1.675626	-0.326428	0.251917
C29	C	1.809737	-0.352547	0.261889
C30	C	1.418253	-0.276293	0.024368
C31	C	1.386697	-0.270141	-0.112131
N32	N	1.513766	-0.001984	0.179153
C33	C	1.473831	-0.287115	-0.181012
C34	C	1.441219	-0.280757	-0.322091
C35	C	1.496808	-0.291589	0.472533
C36	C	1.528366	-0.297733	0.609030
H37	H	0.852813	-0.180143	0.219741
H38	H	1.342471	-0.261512	-0.367560
H39	H	1.515258	-0.599083	0.177281
H40	H	1.241946	-0.760579	0.514184
O41	O	1.063042	-0.107640	0.207137
C42	C	1.000403	-0.089405	0.305818
H43	H	1.033677	-0.153999	0.396166
H44	H	1.019312	-0.002445	0.319691
H45	H	0.897570	-0.097024	0.281395
O46	O	1.274917	-0.542824	0.473445
C47	C	1.311127	-0.432735	0.428845
H48	H	1.338308	-0.421866	0.329926
H49	H	1.231538	-0.372264	0.426673
H50	H	1.392812	-0.415052	0.493869
O51	O	0.851760	-0.460323	0.289942
C52	C	0.751869	-0.531419	0.305261
H53	H	0.664417	-0.484446	0.252914
H54	H	0.769504	-0.606494	0.265757
H55	H	0.740912	-0.560809	0.409497
O56	O	1.580996	-0.663438	0.095972
C57	C	1.468999	-0.602103	0.055092
H58	H	1.390394	-0.655001	0.092345
H59	H	1.471734	-0.523465	0.091939
H60	H	1.454304	-0.578246	-0.052061
H61	H	1.287955	-0.250898	-0.157605
H62	H	1.673122	-0.807325	-0.017287
H63	H	1.572573	-0.306358	-0.135538
H64	H	1.627132	-0.316889	-0.345525
H65	H	1.631930	-1.014004	0.033509
O66	O	1.069212	-0.405094	0.281525
C67	C	1.131794	-0.423345	0.182813
H68	H	1.164591	-0.340728	0.127963
H69	H	1.214211	-0.482665	0.223379
H70	H	1.067190	-0.461399	0.117279
O71	O	1.363560	-1.087705	0.363946
C72	C	1.236389	-1.102486	0.341842
H73	H	1.191540	-1.025555	0.272084
H74	H	1.220400	-1.178540	0.301496
H75	H	1.194393	-1.115317	0.434067
H76	H	1.271878	-0.943904	0.477335
