data_functionalizedCrystal
_audit_creation_method	'MofGen! by Chris Wilmer'
_symmetry_space_group_name_H-M	'P1'
_symmetry_Int_Tables_number	1
_symmetry_cell_setting	triclinic
loop_
_symmetry_equiv_pos_as_xyz
  x,y,z
_cell_length_a	14.971486
_cell_length_b	16.956995
_cell_length_c	13.448316
_cell_angle_alpha	89.994060
_cell_angle_beta	89.998199
_cell_angle_gamma	79.834300
loop_
_atom_site_label
_atom_site_type_symbol
_atom_site_fract_x
_atom_site_fract_y
_atom_site_fract_z
O1	O	1.179141	0.103909	-0.082576
O2	O	0.917806	0.116352	-0.082603
O3	O	1.064172	-0.005933	-0.082584
O4	O	1.032774	0.226194	-0.082595
O5	O	1.064156	-0.005941	0.082800
O6	O	0.917789	0.116344	0.082781
O7	O	1.179124	0.103901	0.082808
Cu8	Cu	1.048455	0.110122	0.097895
Cu9	Cu	1.048475	0.110131	-0.097690
O10	O	1.032757	0.226186	0.082789
C11	C	0.884514	0.115792	0.000086
C12	C	0.785343	0.114124	0.000076
C13	C	1.065772	-0.035643	0.000107
C14	C	1.070551	-0.124159	0.000104
C15	C	0.722720	0.185963	0.000074
C16	C	0.629538	0.184392	0.000088
C17	C	0.598982	0.110980	0.000098
C18	C	0.661612	0.039135	0.000103
C19	C	0.754792	0.040708	0.000095
C20	C	0.467395	0.035863	0.000117
C21	C	0.374210	0.034290	0.000123
C22	C	0.342142	0.179547	0.000110
C23	C	0.435322	0.181119	0.000102
C24	C	0.497946	0.109274	0.000105
C25	C	1.106308	-0.623426	0.000104
C26	C	1.101810	-0.540255	0.000110
C27	C	1.017381	-0.489247	0.000096
C28	C	0.937445	-0.521414	0.000088
C29	C	0.941944	-0.604583	0.000089
C30	C	0.995114	-0.239496	0.000097
C31	C	0.990621	-0.156321	0.000092
C32	C	1.154987	-0.175168	0.000116
C33	C	1.159478	-0.258338	0.000112
C34	C	1.079542	-0.290498	0.000108
N35	N	1.012782	-0.404233	0.000099
N36	N	1.084143	-0.375511	0.000113
C37	C	1.212415	0.104461	0.000117
C38	C	1.311587	0.106129	0.000121
C39	C	1.031158	0.255897	0.000096
C40	C	1.026378	0.344413	0.000092
N41	N	1.048448	0.110115	0.235460
N42	N	1.048489	0.110132	-0.235254
C43	C	1.113276	0.055990	0.287508
C44	C	1.113282	0.055989	0.391612
C45	C	1.048462	0.110119	0.443664
C46	C	0.983627	0.164247	0.391608
C47	C	0.983618	0.164243	0.287507
C48	C	0.983651	0.164252	0.608588
C49	C	0.983661	0.164257	0.712697
C50	C	1.113315	0.055998	0.712693
C51	C	1.113306	0.055994	0.608592
C52	C	1.048472	0.110124	0.556543
H53	H	0.747591	0.245744	0.000065
O54	O	1.176354	0.003391	0.442017
C55	C	1.304939	-0.103999	0.431028
C56	C	1.233568	-0.044463	0.373821
H57	H	1.351203	-0.142715	0.375916
H58	H	1.347129	-0.069536	0.479720
H59	H	1.269275	-0.143860	0.479810
H60	H	1.269158	-0.004587	0.324984
H61	H	1.191383	-0.078976	0.325191
O62	O	0.917440	-0.270687	-0.000090
C63	C	0.778318	-0.279971	-0.085764
C64	C	0.866264	-0.244607	-0.085687
H65	H	0.736909	-0.258886	-0.154951
H66	H	0.795970	-0.348180	-0.085820
H67	H	0.736937	-0.258983	-0.016528
H68	H	0.907687	-0.265534	-0.154911
H69	H	0.848549	-0.176403	-0.085579
O70	O	1.232656	-0.143964	-0.000050
C71	C	1.371801	-0.134657	-0.085676
C72	C	1.283863	-0.170032	-0.085626
H73	H	1.413235	-0.155733	-0.154846
H74	H	1.354138	-0.066449	-0.085743
H75	H	1.413162	-0.155645	-0.016424
H76	H	1.242460	-0.149106	-0.154867
H77	H	1.301589	-0.238237	-0.085507
H78	H	0.636726	-0.020638	0.000125
O79	O	1.188398	-0.672857	0.000159
C80	C	1.350950	-0.682763	0.000126
C81	C	1.258041	-0.626693	0.000085
H82	H	1.407281	-0.645462	0.000045
H83	H	1.357217	-0.722162	0.069356
H84	H	1.357128	-0.722183	-0.069070
H85	H	1.251800	-0.587223	0.069234
H86	H	1.251815	-0.587349	-0.069191
H87	H	0.578554	0.242891	0.000086
O88	O	1.179394	-0.508922	-0.000017
C89	C	1.269747	-0.425998	-0.085721
C90	C	1.181834	-0.461410	-0.085689
H91	H	1.271758	-0.387590	-0.154989
H92	H	1.271760	-0.387485	-0.016554
H93	H	1.330845	-0.476757	-0.085670
H94	H	1.120687	-0.410702	-0.085775
H95	H	1.179900	-0.499943	-0.154850
O96	O	0.920596	0.216856	0.763109
C97	C	0.792002	0.324239	0.752133
C98	C	0.863363	0.264707	0.694918
H99	H	0.745722	0.362954	0.697026
H100	H	0.749827	0.289773	0.800852
H101	H	0.827675	0.364103	0.800890
H102	H	0.827765	0.224829	0.646107
H103	H	0.905533	0.299223	0.646262
O104	O	0.920793	0.216866	0.557916
C105	C	0.893693	0.325761	0.440409
C106	C	0.964968	0.266208	0.497716
H107	H	0.929381	0.365681	0.391739
H108	H	0.851568	0.291312	0.391616
H109	H	0.847352	0.364417	0.495509
H110	H	1.011370	0.227537	0.442687
H111	H	1.007027	0.300706	0.546523
H112	H	0.460197	0.240897	0.000085
O113	O	0.855378	-0.471947	-0.000060
C114	C	0.713559	-0.430359	-0.085802
C115	C	0.806462	-0.486437	-0.085741
H116	H	0.673992	-0.442042	-0.155078
H117	H	0.673842	-0.442074	-0.016643
H118	H	0.724096	-0.365397	-0.085757
H119	H	0.796008	-0.551418	-0.085821
H120	H	0.846148	-0.474652	-0.154894
H121	H	0.291149	0.238046	0.000112
H122	H	0.876857	-0.630767	0.000088
O123	O	0.920541	0.216746	0.442127
C124	C	0.761581	0.263263	0.473954
C125	C	0.832931	0.203750	0.416699
H126	H	0.690731	0.252788	0.453401
H127	H	0.772647	0.253970	0.557310
H128	H	0.768550	0.327138	0.453484
H129	H	0.826004	0.139851	0.437085
H130	H	0.821843	0.213113	0.333357
O131	O	0.920726	0.216933	0.236988
C132	C	0.858021	0.355497	0.205159
C133	C	0.929308	0.295916	0.262414
H134	H	0.864922	0.419368	0.225710
H135	H	0.869140	0.346265	0.121802
H136	H	0.787174	0.344959	0.225629
H137	H	1.000184	0.306418	0.242026
H138	H	0.918109	0.305162	0.345756
O139	O	0.528108	-0.034001	0.000070
C140	C	0.550086	-0.178242	0.000122
C141	C	0.481232	-0.099185	0.000161
H142	H	0.512214	-0.230963	0.000216
H143	H	0.594492	-0.181184	-0.069113
H144	H	0.594534	-0.181100	0.069312
H145	H	0.436724	-0.096273	-0.068983
H146	H	0.436890	-0.096275	0.069442
H147	H	1.166063	0.011915	0.245134
H148	H	0.349334	-0.025488	0.000132
H149	H	1.166091	0.011922	0.566211
O150	O	1.241437	-0.307969	0.000256
C151	C	1.341911	-0.412789	0.085968
C152	C	1.249056	-0.356638	0.085926
H153	H	1.348108	-0.452140	0.155235
H154	H	1.348142	-0.452245	0.016800
H155	H	1.398257	-0.375503	0.085927
H156	H	1.192655	-0.393860	0.086002
H157	H	1.242903	-0.317179	0.155088
H158	H	0.805779	-0.017791	0.000096
H159	H	0.921866	-0.114791	0.000085
H160	H	1.166105	0.011924	0.755077
