data_functionalizedCrystal
_audit_creation_method	'MofGen! by Chris Wilmer'
_symmetry_space_group_name_H-M	'P1'
_symmetry_Int_Tables_number	1
_symmetry_cell_setting	triclinic
loop_
_symmetry_equiv_pos_as_xyz
  x,y,z
_cell_length_a	12.759394
_cell_length_b	12.759395
_cell_length_c	19.805399
_cell_angle_alpha	90.018005
_cell_angle_beta	89.976033
_cell_angle_gamma	89.984599
loop_
_atom_site_label
_atom_site_type_symbol
_atom_site_fract_x
_atom_site_fract_y
_atom_site_fract_z
Zn1	Zn	-0.418275	-1.606223	-0.382708
Zn2	Zn	-0.593968	-1.606127	-0.269527
Zn3	Zn	-0.418306	-1.430535	-0.269536
Zn4	Zn	-0.593914	-1.430514	-0.382677
O5	O	-0.506116	-1.518350	-0.326112
O6	O	-0.441591	-1.753232	-0.367704
O7	O	-0.570702	-1.582802	-0.174812
O8	O	-0.271281	-1.453889	-0.284565
O9	O	-0.570672	-1.753161	-0.284550
O10	O	-0.271258	-1.582967	-0.367713
O11	O	-0.441643	-1.453796	-0.174818
O12	O	-0.441591	-1.283511	-0.284535
O13	O	-0.570580	-1.453853	-0.477398
O14	O	-0.570610	-1.283495	-0.367659
O15	O	-0.441538	-1.582947	-0.477421
O16	O	-0.740982	-1.582782	-0.284520
O17	O	-0.740943	-1.453760	-0.367651
C18	C	-0.506098	-1.245382	-0.326095
C19	C	-0.506116	-1.128605	-0.326104
C20	C	-0.779083	-1.518287	-0.326096
C21	C	-0.895860	-1.518356	-0.326111
C22	C	-0.640681	-1.128628	-0.412521
C23	C	-0.707971	-1.073778	-0.455731
C24	C	-0.707982	-0.964057	-0.455737
C25	C	-0.640693	-0.909182	-0.412530
C26	C	-0.573404	-0.964032	-0.369321
C27	C	-0.573402	-1.073756	-0.369318
C28	C	-0.438835	-0.964009	-0.282908
C29	C	-0.438828	-1.073731	-0.282897
C30	C	-0.371547	-0.909135	-0.239701
C31	C	-0.304261	-0.963984	-0.196487
C32	C	-0.304254	-1.073713	-0.196482
C33	C	-0.371538	-1.128580	-0.239688
C34	C	-0.895848	-1.652807	-0.239612
C35	C	-0.950703	-1.720061	-0.196371
C36	C	-1.060425	-1.720122	-0.196389
C37	C	-1.115294	-1.652925	-0.239655
C38	C	-1.060439	-1.585672	-0.282897
C39	C	-0.950715	-1.585616	-0.282872
C40	C	-1.060451	-1.451228	-0.369398
C41	C	-0.950729	-1.451159	-0.369378
C42	C	-1.115320	-1.384031	-0.412664
C43	C	-1.060465	-1.316771	-0.455904
C44	C	-0.950737	-1.316711	-0.455883
C45	C	-0.895875	-1.383906	-0.412619
C46	C	-0.232082	-1.518442	-0.326143
C47	C	-0.115306	-1.518481	-0.326157
C48	C	-0.506050	-1.518409	-0.502655
C49	C	-0.506022	-1.518434	-0.577887
C50	C	-0.506130	-0.792383	-0.326125
C51	C	-0.506125	-0.909160	-0.326117
C52	C	-0.438826	-1.585654	-0.613244
C53	C	-0.438796	-1.585665	-0.683933
C54	C	-0.505967	-1.518460	-0.719263
C55	C	-0.573165	-1.451232	-0.683900
C56	C	-0.573189	-1.451217	-0.613213
C57	C	-0.573067	-1.451291	-0.968974
C58	C	-0.573040	-1.451314	-1.039666
C59	C	-0.438674	-1.585739	-1.039693
C60	C	-0.438698	-1.585724	-0.969006
C61	C	-0.505892	-1.518493	-0.933650
C62	C	-0.505923	-1.518481	-0.857002
C63	C	-0.505942	-1.518477	-0.795910
C64	C	-0.506106	-1.518351	-0.150256
C65	C	-0.505838	-1.518530	-0.075025
H66	H	-0.762754	-1.118469	-0.490910
H67	H	-0.384081	-1.640405	-0.712717
H68	H	-0.383957	-1.640479	-1.068489
H69	H	-1.105087	-1.774891	-0.161181
H70	H	-0.384004	-1.640453	-0.940244
C71	C	-0.640803	-1.247755	-0.412629
C72	C	-0.714117	-1.284071	-0.459721
C73	C	-0.714254	-1.393805	-0.459844
H74	H	-0.658912	-1.272665	-0.368966
H75	H	-0.573050	-1.272648	-0.424446
H76	H	-0.781854	-1.259189	-0.447901
H77	H	-0.696025	-1.259190	-0.503391
H78	H	-0.646501	-1.418698	-0.471660
H79	H	-0.732361	-1.418705	-0.416178
H80	H	-0.763989	-1.418460	-0.491799
C81	C	-0.890941	-1.792898	-0.149422
C82	C	-0.783110	-1.778435	-0.158645
C83	C	-0.728030	-1.845506	-0.115403
H84	H	-0.908727	-1.863534	-0.159324
H85	H	-0.908926	-1.777555	-0.103926
H86	H	-0.765132	-1.793785	-0.204131
H87	H	-0.765292	-1.707813	-0.148738
H88	H	-0.746015	-1.830162	-0.069907
H89	H	-0.745825	-1.916138	-0.125309
H90	H	-0.654861	-1.835695	-0.121650
H91	H	-0.627740	-1.396583	-1.068430
H92	H	-0.371556	-0.819794	-0.239712
C93	C	-0.231064	-1.133313	-0.149679
C94	C	-0.163786	-1.196325	-0.188078
C95	C	-0.096339	-1.251227	-0.144985
H96	H	-0.271062	-1.176173	-0.120123
H97	H	-0.190935	-1.084946	-0.123964
H98	H	-0.203910	-1.244686	-0.213782
H99	H	-0.123765	-1.153491	-0.217633
H100	H	-0.056210	-1.202860	-0.119270
H101	H	-0.136346	-1.294081	-0.115431
H102	H	-0.050677	-1.293979	-0.171032
H103	H	-0.627853	-1.396509	-0.712672
H104	H	-0.762769	-0.919398	-0.490925
H105	H	-0.384131	-1.640384	-0.584484
H106	H	-0.806533	-1.383857	-0.412594
H107	H	-0.249476	-0.919297	-0.161315
H108	H	-1.204635	-1.652991	-0.239672
H109	H	-0.627896	-1.396468	-0.584426
C110	C	-1.234447	-1.384209	-0.412815
C111	C	-1.270655	-1.411011	-0.477271
C112	C	-1.380388	-1.411198	-0.477433
H113	H	-1.259470	-1.316468	-0.401124
H114	H	-1.259300	-1.433916	-0.380897
H115	H	-1.245813	-1.361306	-0.509179
H116	H	-1.245660	-1.478753	-0.488974
H117	H	-1.405241	-1.460904	-0.445515
H118	H	-1.405401	-1.343455	-0.465740
H119	H	-1.404970	-1.429391	-0.521164
H120	H	-0.640699	-0.819841	-0.412545
C121	C	-1.119982	-1.243954	-0.502988
C122	C	-1.093215	-1.266779	-0.569964
C123	C	-1.148036	-1.199730	-0.613357
H124	H	-1.102123	-1.173321	-0.493131
H125	H	-1.193194	-1.253639	-0.496854
H126	H	-1.020020	-1.257085	-0.576094
H127	H	-1.111077	-1.337399	-0.579842
H128	H	-1.221248	-1.209414	-0.607223
H129	H	-1.130173	-1.129101	-0.603494
H130	H	-1.129890	-1.215213	-0.658805
C131	C	-0.646118	-1.378245	-0.930715
C132	C	-0.704948	-1.319409	-0.976788
C133	C	-0.772257	-1.252106	-0.941566
H134	H	-0.606033	-1.332386	-0.903146
H135	H	-0.691972	-1.418366	-0.903145
H136	H	-0.659100	-1.279290	-1.004347
H137	H	-0.745054	-1.365240	-1.004359
H138	H	-0.818112	-1.292228	-0.913996
H139	H	-0.732164	-1.206254	-0.913998
H140	H	-0.812188	-1.212185	-0.972821
H141	H	-0.371542	-1.217922	-0.239686
H142	H	-0.906080	-1.261950	-0.491098
H143	H	-0.806507	-1.652750	-0.239584
