data_functionalizedCrystal
_audit_creation_method	'MofGen! by Chris Wilmer'
_symmetry_space_group_name_H-M	'P1'
_symmetry_Int_Tables_number	1
_symmetry_cell_setting	triclinic
loop_
_symmetry_equiv_pos_as_xyz
  x,y,z
_cell_length_a	16.959455
_cell_length_b	12.645330
_cell_length_c	16.959447
_cell_angle_alpha	89.973066
_cell_angle_beta	89.983056
_cell_angle_gamma	90.009332
loop_
_atom_site_label
_atom_site_type_symbol
_atom_site_fract_x
_atom_site_fract_y
_atom_site_fract_z
Zn1	Zn	1.208446	-0.422104	-0.446928
Zn2	Zn	1.208381	-0.599396	-0.314757
Zn3	Zn	1.076269	-0.422137	-0.314765
Zn4	Zn	1.076257	-0.599316	-0.446896
O5	O	1.142338	-0.510738	-0.380837
O6	O	1.319049	-0.445641	-0.429405
O7	O	1.190833	-0.575929	-0.204147
O8	O	1.093835	-0.273786	-0.332314
O9	O	1.319000	-0.575897	-0.332300
O10	O	1.190945	-0.273761	-0.429413
O11	O	1.093771	-0.445698	-0.204153
O12	O	0.965656	-0.445621	-0.332283
O13	O	1.093815	-0.575761	-0.557511
O14	O	0.965648	-0.575794	-0.429358
O15	O	1.190934	-0.445564	-0.557534
O16	O	1.190822	-0.747733	-0.332269
O17	O	1.093751	-0.747674	-0.429351
C18	C	0.936972	-0.510703	-0.380818
C19	C	0.849115	-0.510714	-0.380829
C20	C	0.477620	-0.442902	-0.330395
C21	C	0.477660	-0.578662	-0.431323
C22	C	0.560206	-0.578647	-0.431319
C23	C	0.601463	-0.510759	-0.380850
C24	C	0.560173	-0.442887	-0.330387
C25	C	0.601501	-0.646525	-0.481776
C26	C	0.684052	-0.646514	-0.481772
C27	C	0.725310	-0.578620	-0.431307
C28	C	0.684016	-0.510744	-0.380842
C29	C	0.725273	-0.442857	-0.330374
C30	C	0.683980	-0.374975	-0.279912
C31	C	0.601432	-0.374993	-0.279922
C32	C	0.807859	-0.578602	-0.431298
C33	C	0.807826	-0.442842	-0.330366
C34	C	1.142300	-0.786168	-0.380823
C35	C	1.142355	-0.903998	-0.380843
C36	C	1.203492	-0.948872	-0.319822
C37	C	1.203352	-1.071432	-0.319604
C38	C	1.059059	-1.072000	-0.358461
C39	C	1.059373	-0.949402	-0.357996
C40	C	1.163870	-0.949077	-0.464446
C41	C	1.165748	-1.071682	-0.464022
C42	C	1.348507	-0.510774	-0.380855
C43	C	1.436363	-0.510790	-0.380863
C44	C	1.142381	-0.510650	-0.587005
C45	C	1.142399	-0.510613	-0.674861
C46	C	1.142399	-0.234233	-0.380868
C47	C	1.142424	-0.116403	-0.380881
C48	C	1.091933	-0.442696	-1.046347
C49	C	1.193004	-0.578306	-1.046328
C50	C	1.192990	-0.578331	-0.963782
C51	C	1.142446	-0.510538	-0.922515
C52	C	1.091916	-0.442721	-0.963793
C53	C	1.243514	-0.646155	-0.922497
C54	C	1.243502	-0.646183	-0.839946
C55	C	1.192961	-0.578384	-0.798677
C56	C	1.142429	-0.510563	-0.839961
C57	C	1.091885	-0.442770	-0.798694
C58	C	1.041357	-0.374943	-0.839976
C59	C	1.041375	-0.374921	-0.922524
C60	C	1.192943	-0.578406	-0.716129
C61	C	1.091868	-0.442795	-0.716140
C62	C	1.142342	-0.510750	-0.175470
C63	C	1.142477	-0.510489	-0.087614
H64	H	0.717666	-0.701787	-0.522862
Cl65	Cl	0.859766	-0.663938	-0.494725
Cl66	Cl	0.735855	-0.289640	-0.216464
H67	H	1.012260	-0.919719	-0.400521
H68	H	1.012285	-1.101130	-0.401551
Cl69	Cl	1.298779	-1.117784	-0.341238
Cl70	Cl	1.299194	-0.903257	-0.341179
Cl71	Cl	1.028327	-0.357558	-0.664268
Cl72	Cl	0.977857	-0.289665	-0.974426
Cl73	Cl	0.859685	-0.357486	-0.266920
H74	H	1.234149	-0.633508	-1.079933
Cl75	Cl	1.307026	-0.731445	-0.788057
H76	H	1.189114	-1.100840	-0.257669
H77	H	0.567804	-0.319729	-0.238838
H78	H	1.189411	-0.918136	-0.258229
H79	H	0.443996	-0.387631	-0.289312
Cl80	Cl	1.028417	-0.357428	-1.098241
H81	H	1.041169	-0.920887	-0.296891
H82	H	0.444064	-0.633939	-0.472408
H83	H	1.000200	-0.319750	-0.806365
Cl84	Cl	1.030495	-1.119522	-0.265170
H85	H	1.223604	-0.918082	-0.484877
H86	H	0.567904	-0.701803	-0.522859
H87	H	1.284655	-0.701360	-0.956103
Cl88	Cl	1.256453	-0.663675	-0.664235
Cl89	Cl	1.102073	-1.118935	-0.537973
Cl90	Cl	1.260462	-1.116491	-0.490138
Cl91	Cl	1.095139	-0.904246	-0.534642
