data_functionalizedCrystal
_audit_creation_method	'MofGen! by Chris Wilmer'
_symmetry_space_group_name_H-M	'P1'
_symmetry_Int_Tables_number	1
_symmetry_cell_setting	triclinic
loop_
_symmetry_equiv_pos_as_xyz
  x,y,z
_cell_length_a	20.016444
_cell_length_b	18.878441
_cell_length_c	18.878441
_cell_angle_alpha	89.998171
_cell_angle_beta	60.001483
_cell_angle_gamma	59.997233
loop_
_atom_site_label
_atom_site_type_symbol
_atom_site_fract_x
_atom_site_fract_y
_atom_site_fract_z
Zr1	Zr	0.731221	0.682410	-0.092916
O2	O	0.870600	0.569303	-0.206015
O3	O	0.591847	0.717083	-0.058250
O4	O	0.731221	0.717084	-0.206021
O5	O	0.731224	0.569301	0.058328
O6	O	0.731216	0.833657	-0.206021
O7	O	0.731226	0.569302	-0.058243
O8	O	0.481901	0.833654	0.058316
O9	O	0.980540	0.569304	-0.206009
O10	O	0.649168	0.818868	-0.043459
O11	O	0.649171	0.731870	0.043536
O12	O	0.813266	0.731872	-0.130446
O13	O	0.813269	0.644874	-0.043451
Zr14	Zr	0.731211	0.868328	0.093002
Zr15	Zr	0.731213	0.868330	-0.092915
Zr16	Zr	0.731219	0.682408	0.093001
Zr17	Zr	0.906562	0.682410	-0.092906
Zr18	Zr	0.555870	0.868328	0.092993
O19	O	0.870585	0.833655	0.058336
O20	O	0.870589	0.833657	-0.206013
O21	O	0.870597	0.569301	0.058335
O22	O	0.591832	0.981435	0.206102
O23	O	0.591835	0.981437	-0.058248
O24	O	0.591843	0.717081	0.206100
O25	O	0.731208	0.981437	-0.058241
O26	O	0.731211	0.833654	0.206108
O27	O	0.731216	0.717081	0.206107
O28	O	0.731207	0.981436	0.058330
O29	O	0.980534	0.717085	-0.206008
O30	O	0.481899	0.833653	0.206095
O31	O	0.481892	0.981434	0.206096
O32	O	0.481894	0.981436	0.058317
O33	O	0.980538	0.569303	-0.058230
O34	O	0.980532	0.717084	-0.058229
O35	O	0.649166	0.818866	0.130532
O36	O	0.649163	0.905864	0.043537
O37	O	0.813262	0.818868	-0.043450
O38	O	0.813264	0.731871	0.043545
C39	C	0.511891	0.775369	0.000032
C40	C	0.437454	0.775368	0.000028
C41	C	0.731226	0.542812	0.000042
C42	C	0.731229	0.463884	0.000042
C43	C	0.731219	0.775371	-0.232510
C44	C	0.731220	0.775372	-0.311437
C45	C	0.266183	0.820783	-0.045368
C46	C	0.196236	0.820786	-0.045362
C47	C	0.196252	0.729954	0.045461
C48	C	0.266193	0.729957	0.045458
C49	C	0.301161	0.775369	0.000039
C50	C	0.161272	0.775369	0.000048
C51	C	0.085431	0.775371	0.000055
C52	C	0.377004	0.775368	0.000032
C53	C	0.950541	0.775370	0.000055
C54	C	1.024978	0.775370	0.000059
C55	C	0.645547	0.169346	0.045450
C56	C	0.645551	0.243503	0.045446
C57	C	0.731212	0.235166	0.000041
C58	C	0.816875	0.152666	-0.045370
C59	C	0.816870	0.078511	-0.045370
C60	C	0.816880	0.307232	-0.045365
C61	C	0.816886	0.381392	-0.045363
C62	C	0.645561	0.472225	0.045451
C63	C	0.645556	0.398069	0.045451
C64	C	0.731219	0.315574	0.000041
C65	C	0.731206	1.007926	0.000045
C66	C	0.731203	1.086854	0.000045
C67	C	0.731219	0.839592	-0.348516
C68	C	0.731212	0.839595	-0.422672
C69	C	0.731212	0.775373	-0.459750
C70	C	0.731211	0.711149	-0.422664
C71	C	0.731211	0.711150	-0.348506
C72	C	0.731212	0.711149	-0.577233
C73	C	0.731213	0.711146	-0.651397
C74	C	0.731212	0.839593	-0.651399
C75	C	0.731213	0.839595	-0.577241
C76	C	0.731213	0.775370	-0.540161
C77	C	0.731213	0.775367	0.232597
C78	C	0.731212	0.775367	0.311524
C79	C	0.511881	1.007926	0.000033
C80	C	0.437441	1.086853	0.000029
C81	C	0.511888	0.775367	0.232585
C82	C	0.437450	0.775366	0.311508
C83	C	0.511878	1.007924	0.232587
C84	C	0.437437	1.086851	0.311510
C85	C	0.950554	0.542814	-0.232500
C86	C	1.024995	0.463887	-0.311423
C87	C	0.950551	0.542812	0.000054
C88	C	1.024991	0.463885	0.000057
C89	C	0.950544	0.775371	-0.232499
C90	C	1.024982	0.775372	-0.311421
C91	C	0.402486	1.078508	-0.045391
C92	C	0.332551	1.152661	-0.045412
C93	C	0.297568	1.235160	-0.000006
C94	C	0.332530	1.243504	0.045415
C95	C	0.402469	1.169351	0.045431
C96	C	0.402491	0.820777	0.393990
C97	C	0.332558	0.820772	0.468153
C98	C	0.297582	0.775362	0.459833
C99	C	0.332548	0.729946	0.377342
C100	C	0.402484	0.729946	0.303181
C101	C	0.402477	1.169335	0.303162
C102	C	0.332541	1.243503	0.377312
C103	C	0.297562	1.235184	0.459808
C104	C	0.332529	1.152691	0.468153
C105	C	0.402468	1.078525	0.394005
C106	C	1.059963	0.381403	-0.303076
C107	C	1.129921	0.307235	-0.377225
C108	C	1.164904	0.315554	-0.459721
C109	C	1.129933	0.398048	-0.468067
C110	C	1.059982	0.472213	-0.393918
C111	C	1.059954	0.472231	0.045470
C112	C	1.129908	0.398077	0.045470
C113	C	1.164893	0.315578	0.000062
C114	C	1.129928	0.307234	-0.045356
C115	C	1.059980	0.381387	-0.045361
C116	C	1.059936	0.820791	-0.303073
C117	C	1.129869	0.820809	-0.377222
C118	C	1.164852	0.775402	-0.459719
C119	C	1.129890	0.729982	-0.468065
C120	C	1.059954	0.729970	-0.393917
H121	H	0.294651	0.857762	-0.082350
F122	F	0.439658	1.178247	0.093781
F123	F	1.022767	0.681618	-0.402815
H124	H	0.731210	0.891889	-0.452861
H125	H	0.430923	1.011365	0.400813
H126	H	1.221799	0.775419	-0.520088
H127	H	0.731224	0.891886	-0.318335
F128	F	0.908056	0.372517	-0.093690
H129	H	0.430961	0.857755	0.400781
F130	F	1.167069	0.869149	-0.368321
H131	H	1.158383	0.240073	-0.370413
H132	H	1.158383	0.693013	-0.535243
F133	F	0.554391	0.560024	0.093764
F134	F	0.439679	0.681615	0.215400
F135	F	0.731209	0.642800	-0.309043
F136	F	0.554384	0.331297	0.093771
H137	H	0.304097	0.857759	0.535313
F138	F	1.022734	0.560025	0.093800
H139	H	0.240619	1.295533	-0.000025
F140	F	0.731205	0.642801	-0.462122
H141	H	0.304060	0.692974	0.370581
H142	H	0.240613	1.295581	0.520177
F143	F	0.159015	0.869119	-0.093692
H144	H	1.221863	0.255157	-0.520091
F145	F	0.303416	0.681624	0.093795
H146	H	0.575791	0.176145	0.082428
F147	F	0.731220	0.907942	-0.537784
H148	H	1.031484	0.374613	-0.235910
H149	H	0.304037	1.310685	0.082383
F150	F	0.159027	0.681630	0.093801
H151	H	0.575803	0.404863	0.082429
H152	H	1.158425	0.404811	-0.535244
F153	F	0.908053	0.219433	-0.093701
H154	H	0.886622	0.145883	-0.082344
F155	F	0.439707	0.990713	-0.093724
H156	H	0.886620	0.011342	-0.082345
H157	H	1.158365	0.404888	0.082458
H158	H	0.731212	0.891888	-0.681594
F159	F	0.731208	0.642794	-0.537771
F160	F	0.731212	0.642793	-0.690852
H161	H	1.031511	0.539374	-0.400725
F162	F	0.223148	0.775371	0.538771
F163	F	0.439697	1.178209	0.215371
F164	F	0.295351	1.143763	-0.093755
F165	F	0.295337	1.331290	0.368411
H166	H	1.031515	0.374579	-0.082339
F167	F	1.239338	0.236665	0.000076
F168	F	0.295291	1.143850	0.555959
F169	F	1.167169	0.219426	-0.093677
F170	F	1.022718	0.869123	-0.215281
