data_functionalizedCrystal
_audit_creation_method	'MofGen! by Chris Wilmer'
_symmetry_space_group_name_H-M	'P1'
_symmetry_Int_Tables_number	1
_symmetry_cell_setting	triclinic
loop_
_symmetry_equiv_pos_as_xyz
  x,y,z
_cell_length_a	10.654562
_cell_length_b	14.044190
_cell_length_c	9.130313
_cell_angle_alpha	89.993628
_cell_angle_beta	89.996930
_cell_angle_gamma	88.840940
loop_
_atom_site_label
_atom_site_type_symbol
_atom_site_fract_x
_atom_site_fract_y
_atom_site_fract_z
O1	O	1.681223	0.133285	-0.121915
O2	O	1.317021	0.145966	-0.121899
O3	O	1.493651	0.001605	-0.121878
O4	O	1.504593	0.277647	-0.121936
O5	O	1.493649	0.001609	0.121721
O6	O	1.317019	0.145970	0.121700
O7	O	1.681221	0.133289	0.121684
Cu8	Cu	1.499120	0.139630	0.143935
Cu9	Cu	1.499122	0.139626	-0.144149
O10	O	1.504591	0.277651	0.121663
C11	C	1.270129	0.145035	-0.000097
C12	C	1.130405	0.142241	-0.000089
C13	C	1.064743	0.140941	0.132685
C14	C	0.933457	0.138324	0.132662
C15	C	0.933509	0.138312	-0.132923
C16	C	1.064792	0.140922	-0.132898
C17	C	1.130356	0.142260	0.265494
C18	C	1.064693	0.140960	0.398280
C19	C	0.933408	0.138343	0.398256
C20	C	0.867785	0.137026	0.265446
C21	C	1.488863	-0.033739	-0.000074
C22	C	1.474584	-0.139060	-0.000060
C23	C	1.549749	-0.388849	-0.000121
C24	C	1.448499	-0.331889	-0.000106
C25	C	1.463016	-0.224589	-0.000081
C26	C	1.535234	-0.496160	-0.000147
C27	C	1.728114	0.134221	-0.000121
C28	C	1.867837	0.137014	-0.000138
C29	C	1.509379	0.312995	-0.000144
C30	C	1.523659	0.418315	-0.000167
N31	N	1.499127	0.139633	0.346557
N32	N	1.499124	0.139615	-0.346772
C33	C	1.577363	0.075732	0.423218
C34	C	1.577359	0.075720	0.576555
C35	C	1.420879	0.203520	0.576556
C36	C	1.420878	0.203526	0.423222
C37	C	1.655612	0.011839	0.346554
C38	C	1.733855	-0.052067	0.423215
C39	C	1.733851	-0.052079	0.576552
C40	C	1.655603	0.011816	0.653227
H41	H	1.118132	0.142025	0.506408
O42	O	1.679008	-0.346708	-0.000112
H43	H	1.730771	-0.370719	0.099166
O44	O	1.655600	0.011810	0.818614
H45	H	1.627574	-0.059198	0.859054
H46	H	1.655626	0.011844	0.221699
H47	H	1.357175	0.255541	0.638995
O48	O	1.818217	-0.121003	0.340529
H49	H	1.805076	-0.110264	0.221026
H50	H	1.350913	-0.363710	-0.000110
O51	O	0.862739	0.136905	-0.276162
H52	H	0.760417	0.134882	-0.253873
H53	H	0.879949	0.137277	0.506376
O54	O	1.818228	-0.121004	0.659246
H55	H	1.883765	-0.080639	0.729110
H56	H	1.357170	0.255559	0.360804
H57	H	1.237255	0.144394	0.265529
H58	H	0.760884	0.134892	0.265438
H59	H	1.118256	0.141986	-0.241015
