data_functionalizedCrystal
_audit_creation_method	'MofGen! by Chris Wilmer'
_symmetry_space_group_name_H-M	'P1'
_symmetry_Int_Tables_number	1
_symmetry_cell_setting	triclinic
loop_
_symmetry_equiv_pos_as_xyz
  x,y,z
_cell_length_a	19.805407
_cell_length_b	19.805404
_cell_length_c	18.215399
_cell_angle_alpha	90.031106
_cell_angle_beta	90.020634
_cell_angle_gamma	90.029351
loop_
_atom_site_label
_atom_site_type_symbol
_atom_site_fract_x
_atom_site_fract_y
_atom_site_fract_z
Zn1	Zn	1.034729	-0.269470	0.416115
Zn2	Zn	1.534729	0.230530	0.916115
Zn3	Zn	1.034636	-0.382661	0.293042
Zn4	Zn	1.534636	0.117339	0.793042
Zn5	Zn	0.921541	-0.269491	0.293061
Zn6	Zn	1.421541	0.230509	0.793061
Zn7	Zn	0.921501	-0.382623	0.416066
Zn8	Zn	1.421501	0.117377	0.916066
O9	O	0.978102	-0.326061	0.354571
O10	O	1.478102	0.173939	0.854571
O11	O	1.129433	-0.284492	0.399803
O12	O	1.629433	0.215508	0.899803
O13	O	1.019612	-0.367674	0.190061
O14	O	1.519612	0.132326	0.690061
O15	O	0.936612	-0.174772	0.309413
O16	O	1.436612	0.325228	0.809413
O17	O	1.129365	-0.367653	0.309381
O18	O	1.629365	0.132347	0.809381
O19	O	1.019770	-0.174756	0.399821
O20	O	1.519770	0.325244	0.899821
O21	O	0.936522	-0.284529	0.190074
O22	O	1.436522	0.215471	0.690074
O23	O	0.826820	-0.284491	0.309365
O24	O	1.326820	0.215509	0.809365
O25	O	0.936543	-0.367588	0.519056
O26	O	1.436543	0.132412	1.019056
O27	O	0.826790	-0.367608	0.399736
O28	O	1.326790	0.132392	0.899736
O29	O	1.019731	-0.284455	0.519093
O30	O	1.519731	0.215545	1.019093
O31	O	1.019573	-0.477373	0.309333
O32	O	1.519573	0.022627	0.809333
O33	O	0.936453	-0.477344	0.399718
O34	O	1.436453	0.022656	0.899718
C35	C	0.802246	-0.326048	0.354547
C36	C	1.302246	0.173952	0.854547
C37	C	0.727014	-0.326059	0.354555
C38	C	1.227014	0.173941	0.854555
C39	C	0.978017	-0.501917	0.354534
C40	C	1.478017	-0.001917	0.854534
C41	C	0.978042	-0.577149	0.354543
C42	C	1.478042	-0.077149	0.854543
C43	C	1.021494	-1.038873	0.401750
C44	C	1.521494	-0.538873	0.901750
C45	C	1.021468	-0.968185	0.401733
C46	C	1.521468	-0.468185	0.901733
C47	C	0.978193	-0.932911	0.354617
C48	C	1.478193	-0.432911	0.854617
C49	C	0.934947	-0.968329	0.307509
C50	C	1.434947	-0.468329	0.807509
C51	C	0.934977	-1.039016	0.307523
C52	C	1.434977	-0.539016	0.807523
C53	C	0.934823	-0.683256	0.307452
C54	C	1.434823	-0.183256	0.807452
C55	C	0.934794	-0.612564	0.307443
C56	C	1.434794	-0.112564	0.807443
C57	C	1.021313	-0.612424	0.401662
C58	C	1.521313	-0.112424	0.901662
C59	C	1.021344	-0.683112	0.401676
C60	C	1.521344	-0.183112	0.901676
C61	C	0.978100	-0.718524	0.354566
C62	C	1.478100	-0.218524	0.854566
C63	C	0.978131	-0.795172	0.354584
C64	C	1.478131	-0.295172	0.854584
C65	C	0.978158	-0.856264	0.354602
C66	C	1.478158	-0.356264	0.854602
C67	C	0.691672	-0.369403	0.401535
C68	C	1.191672	0.130597	0.901535
C69	C	0.620984	-0.369404	0.401545
C70	C	1.120984	0.130596	0.901545
C71	C	0.585638	-0.326064	0.354571
C72	C	1.085638	0.173936	0.854571
C73	C	0.620985	-0.282715	0.307589
C74	C	1.120985	0.217285	0.807589
C75	C	0.691672	-0.282711	0.307583
C76	C	1.191672	0.217289	0.807583
C77	C	0.335912	-0.282730	0.307613
C78	C	0.835912	0.217270	0.807613
C79	C	0.265220	-0.282739	0.307622
C80	C	0.765220	0.217261	0.807622
C81	C	0.265223	-0.369424	0.401575
C82	C	0.765223	0.130576	0.901575
C83	C	0.335910	-0.369419	0.401569
C84	C	0.835910	0.130581	0.901569
C85	C	0.371251	-0.326068	0.354590
C86	C	0.871251	0.173932	0.854590
C87	C	0.447899	-0.326067	0.354581
C88	C	0.947899	0.173933	0.854581
C89	C	0.508991	-0.326069	0.354577
C90	C	1.008991	0.173931	0.854577
C91	C	1.154645	-0.326075	0.354595
C92	C	1.654645	0.173925	0.854595
C93	C	1.229877	-0.326081	0.354606
C94	C	1.729877	0.173919	0.854606
C95	C	0.978143	-0.326015	0.546524
C96	C	1.478143	0.173985	1.046524
C97	C	0.978161	-0.325995	0.628323
C98	C	1.478161	0.174005	1.128323
C99	C	0.978206	-0.149519	0.354625
C100	C	1.478206	0.350481	0.854625
C101	C	0.978250	-0.074287	0.354647
C102	C	1.478250	0.425713	0.854647
C103	C	0.978100	-0.326059	0.163365
C104	C	1.478100	0.173941	0.663365
C105	C	0.978213	-0.325888	0.081566
C106	C	1.478213	0.174112	0.581566
C107	C	1.021492	-0.282667	0.816537
C108	C	1.521492	0.217333	1.316537
C109	C	1.021500	-0.282647	0.893396
C110	C	1.521500	0.217353	1.393396
C111	C	0.934877	-0.369218	0.893347
C112	C	1.434877	0.130782	1.393347
C113	C	0.934866	-0.369233	0.816489
C114	C	1.434866	0.130767	1.316489
C115	C	0.978177	-0.325959	0.778087
C116	C	1.478177	0.174041	1.278087
C117	C	0.978197	-0.325924	0.931803
C118	C	1.478197	0.174076	1.431803
C119	C	0.978205	-0.325903	1.015137
C120	C	1.478205	0.174097	1.515137
C121	C	0.978168	-0.325979	0.694748
C122	C	1.478168	0.174021	1.194748
H123	H	1.056727	-1.067588	0.440125
H124	H	1.556727	-0.567588	0.940125
H125	H	0.899714	-0.939605	0.269142
H126	H	1.399714	-0.439605	0.769142
H127	H	0.899553	-0.583845	0.269073
H128	H	1.399553	-0.083845	0.769073
H129	H	0.899611	-0.712080	0.269092
H130	H	1.399611	-0.212080	0.769092
C131	C	1.106990	-0.975147	0.494871
C132	C	1.606990	-0.475147	0.994871
C133	C	1.069004	-0.929259	0.453509
C134	C	1.569004	-0.429259	0.953509
H135	H	1.136336	-0.951114	0.526837
H136	H	1.636336	-0.451114	1.026837
H137	H	1.132906	-1.002716	0.462840
H138	H	1.632906	-0.502716	0.962840
H139	H	1.077487	-1.002725	0.522996
H140	H	1.577487	-0.502725	1.022996
H141	H	1.098506	-0.901684	0.425380
H142	H	1.598506	-0.401684	0.925380
H143	H	1.043086	-0.901678	0.485544
H144	H	1.543086	-0.401678	0.985544
C145	C	0.628087	-0.455109	0.494394
C146	C	1.128087	0.044891	0.994394
C147	C	0.582136	-0.417061	0.453175
C148	C	1.082136	0.082939	0.953175
H149	H	0.604103	-0.484536	0.526264
H150	H	1.104103	0.015464	1.026264
H151	H	0.655678	-0.425656	0.522609
H152	H	1.155678	0.074344	1.022609
H153	H	0.655637	-0.480949	0.462261
H154	H	1.155637	0.019051	0.962261
H155	H	0.554589	-0.391217	0.485307
H156	H	1.054589	0.108783	0.985307
H157	H	0.554534	-0.446518	0.424958
H158	H	1.054534	0.053482	0.924958
C159	C	1.059804	-0.791408	0.443534
C160	C	1.559804	-0.291408	0.943534
C161	C	1.068912	-0.721885	0.453467
C162	C	1.568912	-0.221885	0.953467
H163	H	1.089170	-0.815342	0.475511
H164	H	1.589170	-0.315342	0.975511
H165	H	1.069742	-0.803011	0.394105
H166	H	1.569742	-0.303011	0.894105
H167	H	1.014324	-0.803020	0.454261
H168	H	1.514324	-0.303020	0.954261
H169	H	1.114391	-0.710271	0.442734
H170	H	1.614391	-0.210271	0.942734
H171	H	1.058978	-0.710277	0.502907
H172	H	1.558978	-0.210277	1.002907
H173	H	0.899764	-1.067849	0.269167
H174	H	1.399764	-0.567849	0.769167
C175	C	0.820249	-0.402178	0.916978
C176	C	1.320249	0.097822	1.416978
C177	C	0.887275	-0.416788	0.935561
C178	C	1.387275	0.083212	1.435561
H179	H	0.790863	-0.431546	0.943042
H180	H	1.290863	0.068454	1.443042
H181	H	0.814048	-0.408384	0.865708
H182	H	1.314048	0.091616	1.365708
H183	H	0.810379	-0.356697	0.929593
H184	H	1.310379	0.143303	1.429593
H185	H	0.897147	-0.462268	0.922941
H186	H	1.397147	0.037732	1.422941
H187	H	0.893480	-0.410587	0.986843
H188	H	1.393480	0.089413	1.486843
C189	C	0.771204	-0.378919	0.500497
C190	C	1.271204	0.121081	1.000497
C191	C	0.730523	-0.417044	0.453170
C192	C	1.230523	0.082956	0.953170
H193	H	0.795190	-0.408332	0.532373
H194	H	1.295190	0.091668	1.032373
H195	H	0.743653	-0.349470	0.528706
H196	H	1.243653	0.150530	1.028706
H197	H	0.802368	-0.353109	0.472507
H198	H	1.302368	0.146891	0.972507
H199	H	0.699355	-0.442850	0.481160
H200	H	1.199355	0.057150	0.981160
H201	H	0.758077	-0.446504	0.424959
H202	H	1.258077	0.053496	0.924959
H203	H	1.056757	-0.247429	0.785272
H204	H	1.556757	0.252571	1.285272
H205	H	1.056770	-0.247394	0.924699
H206	H	1.556770	0.252606	1.424699
C207	C	0.901831	-0.483854	0.792767
C208	C	1.401831	0.016146	1.292767
C209	C	0.887254	-0.416826	0.774216
C210	C	1.387254	0.083174	1.274216
H211	H	0.872440	-0.513231	0.766665
H212	H	1.372440	-0.013231	1.266665
H213	H	0.895635	-0.490036	0.844030
H214	H	1.395635	0.009964	1.344030
H215	H	0.947303	-0.493754	0.780176
H216	H	1.447303	0.006246	1.280176
H217	H	0.841783	-0.406924	0.786813
H218	H	1.341783	0.093076	1.286813
H219	H	0.893444	-0.410640	0.722942
H220	H	1.393444	0.089360	1.222942
H221	H	0.364685	-0.404714	0.439818
H222	H	0.864685	0.095286	0.939818
C223	C	1.059698	-0.504004	0.443478
C224	C	1.559698	-0.004004	0.943478
C225	C	1.068855	-0.573497	0.453440
C226	C	1.568855	-0.073497	0.953440
H227	H	1.089050	-0.479975	0.475442
H228	H	1.589050	0.020025	0.975442
H229	H	1.014216	-0.492456	0.454200
H230	H	1.514216	0.007544	0.954200
H231	H	1.069629	-0.492450	0.394037
H232	H	1.569629	0.007550	0.894037
H233	H	1.058920	-0.585052	0.502880
H234	H	1.558920	-0.085052	1.002880
H235	H	1.114348	-0.585050	0.442724
H236	H	1.614348	-0.085050	0.942724
H237	H	0.592201	-0.247424	0.269345
H238	H	1.092201	0.252576	0.769345
C239	C	0.272313	-0.197035	0.214757
C240	C	0.772313	0.302965	0.714757
C241	C	0.226366	-0.235091	0.255990
C242	C	0.726366	0.264909	0.755990
H243	H	0.248325	-0.167619	0.182887
H244	H	0.748325	0.332381	0.682887
H245	H	0.299858	-0.226485	0.186541
H246	H	0.799858	0.273515	0.686541
H247	H	0.299909	-0.171185	0.246880
H248	H	0.799909	0.328815	0.746880
H249	H	0.198774	-0.260946	0.223866
H250	H	0.698774	0.239054	0.723866
H251	H	0.198810	-0.205638	0.284208
H252	H	0.698810	0.294362	0.784208
C253	C	0.156866	-0.407921	0.443319
C254	C	0.656866	0.092079	0.943319
C255	C	0.226374	-0.417070	0.453225
C256	C	0.726374	0.082930	0.953225
H257	H	0.132885	-0.437334	0.475207
H258	H	0.632885	0.062666	0.975207
H259	H	0.145258	-0.417770	0.393860
H260	H	0.645258	0.082230	0.893860
H261	H	0.145314	-0.362456	0.454185
H262	H	0.645314	0.137544	0.954185
H263	H	0.237927	-0.462535	0.442354
H264	H	0.737927	0.037465	0.942354
H265	H	0.237987	-0.407227	0.502695
H266	H	0.737987	0.092773	1.002695
C267	C	0.415360	-0.273198	0.208631
C268	C	0.915360	0.226802	0.708631
C269	C	0.374750	-0.235084	0.255969
C270	C	0.874750	0.264916	0.755969
H271	H	0.439341	-0.243780	0.176749
H272	H	0.939341	0.256220	0.676749
H273	H	0.387761	-0.302653	0.180429
H274	H	0.887761	0.197347	0.680429
H275	H	0.446529	-0.299001	0.236612
H276	H	0.946529	0.200999	0.736612
H277	H	0.343579	-0.209284	0.227987
H278	H	0.843579	0.290716	0.727987
H279	H	0.402352	-0.205616	0.284173
H280	H	0.902352	0.294384	0.784173
H281	H	0.720447	-0.247413	0.269331
H282	H	1.220447	0.252587	0.769331
