data_functionalizedCrystal
_audit_creation_method	'MofGen! by Chris Wilmer'
_symmetry_space_group_name_H-M	'P1'
_symmetry_Int_Tables_number	1
_symmetry_cell_setting	triclinic
loop_
_symmetry_equiv_pos_as_xyz
  x,y,z
_cell_length_a	19.288840
_cell_length_b	16.992695
_cell_length_c	18.366186
_cell_angle_alpha	90.006206
_cell_angle_beta	90.016271
_cell_angle_gamma	86.897119
loop_
_atom_site_label
_atom_site_type_symbol
_atom_site_fract_x
_atom_site_fract_y
_atom_site_fract_z
O1	O	0.927058	0.097701	0.060673
O2	O	1.427058	0.597701	0.560673
O3	O	0.725565	0.110914	0.060648
O4	O	1.225565	0.610914	0.560648
O5	O	0.825504	-0.009832	0.060654
O6	O	1.325504	0.490168	0.560654
O7	O	0.827119	0.218447	0.060666
O8	O	1.327119	0.718447	0.560666
O9	O	0.825485	-0.009838	-0.060445
O10	O	1.325485	0.490162	0.439555
O11	O	0.725546	0.110908	-0.060452
O12	O	1.225546	0.610908	0.439548
O13	O	0.927039	0.097695	-0.060427
O14	O	1.427039	0.597695	0.439573
Zn15	Zn	0.826290	0.104301	-0.079666
Zn16	Zn	1.326290	0.604301	0.420334
Zn17	Zn	0.826314	0.104308	0.079887
Zn18	Zn	1.326314	0.604308	0.579887
O19	O	0.827101	0.218441	-0.060433
O20	O	1.327101	0.718441	0.439567
C21	C	0.699654	0.110489	0.000095
C22	C	1.199654	0.610489	0.500095
C23	C	0.622476	0.109223	0.000085
C24	C	1.122476	0.609223	0.500085
C25	C	0.823416	-0.039040	0.000105
C26	C	1.323416	0.460960	0.500105
C27	C	0.817216	-0.126062	0.000104
C28	C	1.317216	0.373938	0.500104
C29	C	0.586247	0.108618	0.066098
C30	C	1.086247	0.608618	0.566098
C31	C	0.513730	0.107419	0.066107
C32	C	1.013730	0.607419	0.566107
C33	C	0.477446	0.106810	0.000099
C34	C	0.977446	0.606810	0.500099
C35	C	0.513684	0.107419	-0.065923
C36	C	1.013684	0.607419	0.434077
C37	C	0.586199	0.108626	-0.065930
C38	C	1.086199	0.608626	0.434070
C39	C	0.365323	0.058978	-0.050465
C40	C	0.865323	0.558978	0.449535
C41	C	0.292810	0.057767	-0.050455
C42	C	0.792810	0.557767	0.449545
C43	C	0.253786	0.103092	0.000118
C44	C	0.753786	0.603092	0.500118
C45	C	0.287285	0.149618	0.050693
C46	C	0.787285	0.649618	0.550693
C47	C	0.359800	0.150825	0.050686
C48	C	0.859800	0.650825	0.550686
C49	C	0.398816	0.105502	0.000099
C50	C	0.898816	0.605502	0.500099
C51	C	0.138926	0.101188	0.066145
C52	C	0.638926	0.601188	0.566145
C53	C	0.066408	0.099994	0.066151
C54	C	0.566408	0.599994	0.566151
C55	C	0.066363	0.099987	-0.065881
C56	C	0.566363	0.599987	0.434119
C57	C	0.138879	0.101189	-0.065885
C58	C	0.638879	0.601189	0.434115
C59	C	0.175157	0.101785	0.000130
C60	C	0.675157	0.601785	0.500130
C61	C	0.877044	-0.176520	0.000111
C62	C	1.377044	0.323480	0.500111
C63	C	0.871214	-0.258285	0.000117
C64	C	1.371214	0.241715	0.500117
C65	C	0.805554	-0.289591	0.000111
C66	C	1.305554	0.210409	0.500111
C67	C	0.745721	-0.239127	0.000107
C68	C	1.245721	0.260873	0.500107
C69	C	0.751552	-0.157363	0.000106
C70	C	1.251552	0.342637	0.500106
C71	C	0.781387	-0.533101	0.000118
C72	C	1.281387	-0.033101	0.500118
C73	C	0.775560	-0.614871	0.000117
C74	C	1.275560	-0.114871	0.500117
C75	C	0.901054	-0.634024	0.000129
C76	C	1.401054	-0.134024	0.500129
C77	C	0.906879	-0.552258	0.000123
C78	C	1.406879	-0.052258	0.500123
C79	C	0.847046	-0.501801	0.000123
C80	C	1.347046	-0.001801	0.500123
N81	N	0.799593	-0.373168	0.000115
N82	N	1.299593	0.126832	0.500115
N83	N	0.853008	-0.418225	0.000124
N84	N	1.353008	0.081775	0.500124
C85	C	0.952950	0.098120	0.000128
C86	C	1.452950	0.598120	0.500128
C87	C	1.030128	0.099386	0.000143
C88	C	1.530128	0.599386	0.500143
C89	C	0.829188	0.247649	0.000118
C90	C	1.329188	0.747649	0.500118
C91	C	0.835389	0.334671	0.000124
C92	C	1.335389	0.834671	0.500124
N93	N	0.826278	0.104295	-0.188557
N94	N	1.326278	0.604295	0.311443
C95	C	0.870548	0.050855	-0.226655
C96	C	1.370548	0.550855	0.273345
C97	C	0.870553	0.050851	-0.302883
C98	C	1.370553	0.550851	0.197117
C99	C	0.826294	0.104301	-0.341010
C100	C	1.326294	0.604301	0.158990
C101	C	0.782016	0.157746	-0.302903
C102	C	1.282016	0.657746	0.197097
C103	C	0.782008	0.157742	-0.226677
C104	C	1.282008	0.657742	0.273323
C105	C	0.821159	0.175731	-0.461767
C106	C	1.321159	0.675731	0.038233
C107	C	0.821172	0.175735	-0.537992
C108	C	1.321172	0.675735	-0.037992
C109	C	0.826315	0.104311	-0.576118
C110	C	1.326315	0.604311	-0.076118
C111	C	0.831459	0.032880	-0.538008
C112	C	1.331459	0.532880	-0.038008
C113	C	0.831451	0.032876	-0.461782
C114	C	1.331451	0.532876	0.038218
C115	C	0.826298	0.104310	-0.423665
C116	C	1.326298	0.604310	0.076335
C117	C	0.870591	0.050863	-0.696870
C118	C	1.370591	0.550863	-0.196870
C119	C	0.870591	0.050858	-0.773099
C120	C	1.370591	0.550858	-0.273099
C121	C	0.782058	0.157759	-0.773119
C122	C	1.282058	0.657759	-0.273119
C123	C	0.782055	0.157757	-0.696891
C124	C	1.282055	0.657757	-0.196891
C125	C	0.826325	0.104310	-0.658771
C126	C	1.326325	0.604310	-0.158771
N127	N	0.826331	0.104308	0.188779
N128	N	1.326331	0.604308	0.688779
H129	H	0.615780	0.109104	0.119853
H130	H	1.115780	0.609104	0.619853
H131	H	0.746009	0.201276	-0.665870
H132	H	1.246009	0.701276	-0.165870
H133	H	0.919933	-0.299365	0.000121
H134	H	1.419933	0.200635	0.500121
H135	H	0.960346	-0.526775	0.000128
H136	H	1.460346	-0.026775	0.500128
C137	C	0.626052	0.109285	-0.138553
C138	C	1.126052	0.609285	0.361447
N139	N	0.656071	0.109779	-0.193253
N140	N	1.156071	0.609779	0.306747
C141	C	0.715568	-0.477608	0.000121
C142	C	1.215568	0.022392	0.500121
N143	N	0.665990	-0.435808	0.000126
N144	N	1.165990	0.064192	0.500126
C145	C	0.733338	0.216567	-0.184769
C146	C	1.233338	0.716567	0.315231
N147	N	0.696690	0.260888	-0.153202
N148	N	1.196690	0.760888	0.346798
C149	C	0.815501	0.254309	-0.419837
C150	C	1.315501	0.754309	0.080163
N151	N	0.811240	0.313491	-0.388257
N152	N	1.311240	0.813491	0.111743
C153	C	0.026556	0.099325	0.138775
C154	C	0.526556	0.599325	0.638775
N155	N	-0.003460	0.098818	0.193476
N156	N	0.496540	0.598818	0.693476
H157	H	0.692260	-0.264622	0.000107
H158	H	1.192260	0.235378	0.500107
H159	H	0.949766	-0.675114	0.000130
H160	H	1.449766	-0.175114	0.500130
C161	C	0.026454	0.099318	-0.138491
C162	C	0.526454	0.599318	0.361509
N163	N	-0.003608	0.098815	-0.193182
N164	N	0.496392	0.598815	0.306818
H165	H	0.722090	-0.640357	0.000101
H166	H	1.222090	-0.140357	0.500101
C167	C	0.178733	0.101843	-0.138505
C168	C	0.678733	0.601843	0.361495
N169	N	0.208751	0.102337	-0.193207
N170	N	0.708751	0.602337	0.306793
H171	H	0.835638	-0.025286	-0.430757
H172	H	1.335638	0.474714	0.069243
C173	C	0.837115	-0.045694	-0.579940
C174	C	1.337115	0.454306	-0.079940
N175	N	0.841375	-0.104873	-0.611527
N176	N	1.341375	0.395127	-0.111527
H177	H	0.387071	0.188710	0.091865
H178	H	0.887071	0.688710	0.591865
H179	H	0.484227	0.106927	0.119865
H180	H	0.984227	0.606927	0.619865
C181	C	0.685736	-0.101859	0.000097
C182	C	1.185736	0.398141	0.500097
N183	N	0.636161	-0.060054	0.000092
N184	N	1.136161	0.439946	0.500092
C185	C	0.255968	0.006595	-0.106094
C186	C	0.755968	0.506595	0.393906
N187	N	0.228220	-0.031946	-0.148006
N188	N	0.728220	0.468054	0.351994
H189	H	0.906594	0.007333	-0.195620
H190	H	1.406594	0.507333	0.304380
C191	C	0.919262	-0.007932	-0.344798
C192	C	1.419262	0.492068	0.155202
N193	N	0.955953	-0.052204	-0.376367
N194	N	1.455953	0.447796	0.123633
C195	C	0.949275	-0.142092	0.000117
C196	C	1.449275	0.357908	0.500117
N197	N	1.003682	-0.116163	0.000125
N198	N	1.503682	0.383837	0.500125
C199	C	0.919283	-0.007937	-0.654936
C200	C	1.419283	0.492063	-0.154936
N201	N	0.955956	-0.052227	-0.623353
N202	N	1.455956	0.447773	-0.123353
C203	C	0.244363	0.199485	0.106324
C204	C	0.744363	0.699485	0.606324
N205	N	0.212031	0.237044	0.148223
N206	N	0.712031	0.737044	0.648223
C207	C	0.919281	-0.007947	-0.815006
C208	C	1.419281	0.492053	-0.315006
N209	N	0.955953	-0.052243	-0.846571
N210	N	1.455953	0.447757	-0.346571
C211	C	0.733373	0.216556	-0.815054
C212	C	1.233373	0.716556	-0.315054
N213	N	0.696703	0.260843	-0.846644
N214	N	1.196703	0.760843	-0.346644
C215	C	0.815506	0.254311	-0.579905
C216	C	1.315506	0.754311	-0.079905
N217	N	0.811234	0.313496	-0.611472
N218	N	1.311234	0.813496	-0.111472
H219	H	0.168464	0.101682	0.119898
H220	H	0.668464	0.601682	0.619898
H221	H	0.397091	0.022067	-0.091651
H222	H	0.897091	0.522067	0.408349
C223	C	0.733328	0.216538	-0.344845
C224	C	1.233328	0.716538	0.155155
N225	N	0.696653	0.260819	-0.376436
N226	N	1.196653	0.760819	0.123564
H227	H	0.484136	0.106925	-0.119667
H228	H	0.984136	0.606925	0.380333
