data_functionalizedCrystal
_audit_creation_method	'MofGen! by Chris Wilmer'
_symmetry_space_group_name_H-M	'P1'
_symmetry_Int_Tables_number	1
_symmetry_cell_setting	triclinic
loop_
_symmetry_equiv_pos_as_xyz
  x,y,z
_cell_length_a	6.817900
_cell_length_b	11.168121
_cell_length_c	16.305550
_cell_angle_alpha	93.901156
_cell_angle_beta	103.455250
_cell_angle_gamma	108.508496
loop_
_atom_site_label
_atom_site_type_symbol
_atom_site_fract_x
_atom_site_fract_y
_atom_site_fract_z
V1	V	-4.052075	-0.175770	-0.263038
O2	O	-4.012761	0.007350	-0.258024
O3	O	-4.028756	-0.347468	-0.261246
O4	O	-4.003154	-0.173548	-0.377755
O5	O	-4.038540	-0.167775	-0.140708
V6	V	-4.532520	-0.153810	-0.248406
O7	O	-4.320084	-0.223942	-0.295136
O8	O	-4.714708	-0.105639	-0.216308
O9	O	-4.332632	0.017888	-0.250198
O10	O	-4.689230	-0.336930	-0.253420
O11	O	-4.663451	-0.161806	-0.370736
O12	O	-4.358234	-0.156033	-0.133689
C13	C	-3.879875	-0.389310	-0.257099
C14	C	-3.942093	-0.529678	-0.256398
C15	C	-3.847216	-0.167455	-0.405716
C16	C	-3.888668	-0.166774	-0.499498
C17	C	-4.143791	-0.598385	-0.260087
C18	C	-4.208100	-0.743464	-0.259363
C19	C	-4.039367	-0.164135	-0.840243
C20	C	-3.802168	-0.156300	-0.799315
C21	C	-3.759155	-0.157531	-0.701820
C22	C	-3.964601	-0.165443	-0.671196
C23	C	-4.149960	-0.290149	-0.721827
C24	C	-4.191720	-0.289444	-0.819377
C25	C	-4.077095	-0.048261	-0.794395
C26	C	-4.029020	-0.047274	-0.696553
C27	C	-3.922361	-0.166187	-0.575658
C28	C	-4.081618	-0.163399	-0.935782
C29	C	-4.144856	0.059723	-0.254343
C30	C	-4.061876	0.200090	-0.255049
C31	C	-4.177514	-0.162130	-0.105724
C32	C	-4.115300	-0.162804	-0.011941
H33	H	-4.268865	-0.549804	-0.263786
H34	H	-3.889082	-0.740854	-0.251889
H35	H	-3.682791	-0.066213	-0.811675
H36	H	-4.380883	-0.802525	-0.262511
H37	H	-4.176080	-0.045722	-0.675205
H38	H	-3.769310	-0.239550	-0.830830
N39	N	-3.785199	-0.590631	-0.251755
N40	N	-3.744056	-0.648643	-0.190709
H41	H	-3.633244	-0.691691	-0.187428
H42	H	-3.619482	-0.067868	-0.666793
N43	N	-3.691342	-0.263174	-0.681390
N44	N	-3.675689	-0.336229	-0.739179
H45	H	-3.627800	-0.410847	-0.724753
N46	N	-4.162552	-0.399493	-0.857488
N47	N	-4.111552	-0.476281	-0.811995
H48	H	-4.090946	-0.554007	-0.838906
N49	N	-4.096629	-0.400242	-0.700766
N50	N	-4.224360	-0.509519	-0.734628
H51	H	-4.186686	-0.587271	-0.719756
N52	N	-4.411802	-0.303143	-0.854484
N53	N	-4.534098	-0.313202	-0.806926
H54	H	-4.689531	-0.322883	-0.831717
N55	N	-4.293789	-0.054063	-0.828054
N56	N	-4.362629	-0.050797	-0.905629
H57	H	-4.515669	-0.054903	-0.929407
N58	N	-4.343985	-0.303059	-0.698101
N59	N	-4.347823	-0.220297	-0.643478
H60	H	-4.484852	-0.229410	-0.626720
H61	H	-3.971808	0.046228	-0.807759
N62	N	-3.860156	0.068434	-0.653417
N63	N	-3.692937	0.063984	-0.604170
H64	H	-3.573674	0.145700	-0.573697
