data_functionalizedCrystal
_audit_creation_method	'MofGen! by Chris Wilmer'
_symmetry_space_group_name_H-M	'P1'
_symmetry_Int_Tables_number	1
_symmetry_cell_setting	triclinic
loop_
_symmetry_equiv_pos_as_xyz
  x,y,z
_cell_length_a	15.995350
_cell_length_b	15.995350
_cell_length_c	8.140239
_cell_angle_alpha	89.998714
_cell_angle_beta	90.000925
_cell_angle_gamma	83.492375
loop_
_atom_site_label
_atom_site_type_symbol
_atom_site_fract_x
_atom_site_fract_y
_atom_site_fract_z
O1	O	1.110984	0.107925	-0.136466
O2	O	0.867208	0.121253	-0.136499
O3	O	0.995760	-0.007299	-0.136480
O4	O	0.982432	0.236477	-0.136485
O5	O	0.995753	-0.007300	0.136747
O6	O	0.867201	0.121251	0.136728
O7	O	1.110976	0.107924	0.136761
Zn8	Zn	0.989088	0.114587	0.180125
Zn9	Zn	0.989097	0.114589	-0.179863
O10	O	0.982425	0.236475	0.136742
C11	C	0.836010	0.120701	0.000110
C12	C	0.743060	0.119049	0.000098
C13	C	0.405312	0.113117	0.000132
C14	C	0.452746	0.021565	0.000743
C15	C	0.549436	0.023217	0.000116
C16	C	0.572873	0.116060	0.000116
C17	C	0.531790	0.161217	-0.155905
C18	C	0.435154	0.158917	-0.156024
C19	C	0.434807	0.160807	0.154687
C20	C	0.531752	0.160785	0.156737
C21	C	0.667570	0.117727	0.000101
C22	C	0.310614	0.111452	0.000135
C23	C	0.995205	-0.038494	0.000130
C24	C	0.993553	-0.131444	0.000121
C25	C	0.987621	-0.469192	0.000126
C26	C	0.896069	-0.421758	-0.000500
C27	C	0.897721	-0.325068	0.000116
C28	C	0.990564	-0.301631	0.000122
C29	C	1.035716	-0.342710	0.156152
C30	C	1.033416	-0.439345	0.156282
C31	C	1.035316	-0.439702	-0.154428
C32	C	1.035294	-0.342757	-0.156490
C33	C	0.992231	-0.206934	0.000126
C34	C	0.985956	-0.563890	0.000133
C35	C	1.142175	0.108476	0.000148
C36	C	1.235125	0.110127	0.000150
C37	C	0.982980	0.267671	0.000128
C38	C	0.984631	0.360621	0.000127
N39	N	0.989087	0.114586	0.425808
N40	N	0.989104	0.114584	-0.425546
H41	H	0.434221	-0.015031	0.112632
O42	O	0.413399	0.119713	-0.295315
C43	C	0.437324	0.164446	-0.433617
H44	H	0.490120	0.203180	-0.398027
H45	H	0.460221	0.118170	-0.534844
H46	H	0.380979	0.208158	-0.479816
H47	H	0.577862	-0.012279	0.111958
O48	O	0.410399	0.124892	0.295623
C49	C	0.366185	0.056100	0.256659
H50	H	0.384837	0.032119	0.128443
H51	H	0.382318	0.003596	0.349963
H52	H	0.295649	0.076958	0.260064
H53	H	1.103925	-0.328584	0.161958
H54	H	1.004350	-0.314329	0.272259
H55	H	1.002282	-0.315507	-0.271916
O56	O	0.564209	0.121531	0.294609
C57	C	0.526862	0.162225	0.434431
H58	H	0.463392	0.197438	0.399416
H59	H	0.517356	0.113449	0.532781
H60	H	0.569638	0.208691	0.484160
H61	H	1.102816	-0.471463	-0.155473
O62	O	0.855211	-0.291731	0.133829
C63	C	0.909858	-0.250144	0.232840
H64	H	0.964097	-0.231829	0.154810
H65	H	0.873881	-0.191118	0.287805
H66	H	0.935783	-0.293852	0.335965
H67	H	0.433155	-0.014861	-0.110527
H68	H	0.402905	0.226133	-0.163104
H69	H	0.577297	-0.012517	-0.111919
H70	H	0.545915	0.229426	-0.161706
O71	O	0.999488	-0.464231	-0.295362
C72	C	0.930740	-0.508508	-0.256397
H73	H	0.906649	-0.489761	-0.128299
H74	H	0.878286	-0.492534	-0.349872
H75	H	0.951693	-0.579029	-0.259511
H76	H	1.100632	-0.471594	0.163365
H77	H	1.102999	-0.327394	-0.165907
O78	O	0.565781	0.123802	-0.294312
C79	C	0.653161	0.129111	-0.296461
H80	H	0.676326	0.137563	-0.165720
H81	H	0.687035	0.068884	-0.350887
H82	H	0.666782	0.185178	-0.374513
O83	O	0.550120	0.241552	0.167696
C84	C	0.600836	0.259460	0.033397
H85	H	0.591155	0.214611	-0.071977
H86	H	0.582581	0.327070	-0.008518
H87	H	0.669778	0.251180	0.072088
O88	O	0.852286	-0.443878	-0.133801
C89	C	0.780484	-0.480134	-0.081453
H90	H	0.763072	-0.457861	0.048413
H91	H	0.725801	-0.460236	-0.168005
H92	H	0.794516	-0.551619	-0.082439
H93	H	0.859636	-0.441353	0.110759
H94	H	0.862228	-0.296645	-0.111732
O95	O	0.396836	0.241304	0.155723
C96	C	0.343895	0.254533	0.017461
H97	H	0.325626	0.191588	-0.027470
H98	H	0.284755	0.297394	0.052582
H99	H	0.378492	0.285314	-0.084530
O100	O	0.994035	-0.461273	0.295242
C101	C	0.922277	-0.500219	0.252632
H102	H	0.930168	-0.527110	0.123152
H103	H	0.914424	-0.553193	0.343052
H104	H	0.864213	-0.451850	0.257237
