data_functionalizedCrystal
_audit_creation_method	'MofGen! by Chris Wilmer'
_symmetry_space_group_name_H-M	'P1'
_symmetry_Int_Tables_number	1
_symmetry_cell_setting	triclinic
loop_
_symmetry_equiv_pos_as_xyz
  x,y,z
_cell_length_a	17.699104
_cell_length_b	14.519709
_cell_length_c	16.176319
_cell_angle_alpha	89.998780
_cell_angle_beta	90.009411
_cell_angle_gamma	96.514169
loop_
_atom_site_label
_atom_site_type_symbol
_atom_site_fract_x
_atom_site_fract_y
_atom_site_fract_z
O1	O	-1.004404	0.116707	-0.068781
O2	O	-0.504404	0.616707	0.431219
O3	O	-0.784071	0.131860	-0.068776
O4	O	-0.284071	0.631860	0.431224
O5	O	-0.900079	-0.009979	-0.068771
O6	O	-0.400079	0.490021	0.431229
O7	O	-0.888396	0.258546	-0.068786
O8	O	-0.388396	0.758546	0.431214
O9	O	-0.900061	-0.009970	0.068722
O10	O	-0.400061	0.490030	0.568722
O11	O	-0.784053	0.131869	0.068717
O12	O	-0.284053	0.631869	0.568717
O13	O	-1.004386	0.116716	0.068712
O14	O	-0.504386	0.616716	0.568712
Cu15	Cu	-0.894218	0.124293	0.081269
Cu16	Cu	-0.394218	0.624293	0.581269
Cu17	Cu	-0.894239	0.124283	-0.081333
Cu18	Cu	-0.394239	0.624283	0.418667
O19	O	-0.888378	0.258555	0.068708
O20	O	-0.388378	0.758555	0.568708
C21	C	-0.755864	0.131318	-0.000028
C22	C	-0.255864	0.631318	0.499972
C23	C	-0.671842	0.129679	-0.000026
C24	C	-0.171842	0.629679	0.499974
C25	C	-0.147183	0.203695	-0.000031
C26	C	0.352817	0.703695	0.499969
C27	C	-0.226131	0.205229	-0.000034
C28	C	0.273869	0.705229	0.499966
C29	C	-0.274510	0.121964	-0.000030
C30	C	0.225490	0.621964	0.499970
C31	C	-0.243938	0.037159	-0.000031
C32	C	0.256062	0.537159	0.499969
C33	C	-0.164991	0.035626	-0.000033
C34	C	0.335009	0.535626	0.499967
C35	C	-0.562321	0.043340	-0.000023
C36	C	-0.062321	0.543340	0.499977
C37	C	-0.641273	0.044880	-0.000018
C38	C	-0.141273	0.544880	0.499982
C39	C	-0.623461	0.212943	-0.000024
C40	C	-0.123461	0.712943	0.499976
C41	C	-0.544515	0.211410	-0.000026
C42	C	-0.044515	0.711410	0.499974
C43	C	-0.513949	0.126606	-0.000031
C44	C	-0.013949	0.626606	0.499969
C45	C	-0.428344	0.124944	-0.000029
C46	C	0.071656	0.624944	0.499971
C47	C	-0.360113	0.123625	-0.000027
C48	C	0.139887	0.623625	0.499973
C49	C	-0.899526	-0.044332	-0.000024
C50	C	-0.399526	0.455668	0.499976
C51	C	-0.897894	-0.146707	-0.000024
C52	C	-0.397894	0.353293	0.499976
C53	C	-0.891887	-0.521578	-0.000045
C54	C	-0.391887	-0.021578	0.499955
C55	C	-0.893555	-0.417277	-0.000039
C56	C	-0.393555	0.082723	0.499961
C57	C	-0.894891	-0.334146	-0.000034
C58	C	-0.394891	0.165854	0.499966
C59	C	-0.896559	-0.229838	-0.000029
C60	C	-0.396559	0.270162	0.499971
C61	C	-0.032593	0.117258	-0.000033
C62	C	0.467407	0.617258	0.499967
C63	C	-0.116615	0.118896	-0.000029
C64	C	0.383385	0.618896	0.499971
C65	C	-0.888931	0.292908	-0.000041
C66	C	-0.388931	0.792908	0.499959
C67	C	-0.890563	0.395283	-0.000047
C68	C	-0.390563	0.895283	0.499953
N69	N	-0.894208	0.124300	0.195634
N70	N	-0.394208	0.624300	0.695634
C71	C	-0.945625	0.061492	0.761019
C72	C	-0.445625	0.561492	1.261019
C73	C	-0.945622	0.061497	0.674472
C74	C	-0.445622	0.561497	1.174472
C75	C	-0.894240	0.124284	0.631210
C76	C	-0.394240	0.624284	1.131210
C77	C	-0.842862	0.187074	0.674499
C78	C	-0.342862	0.687074	1.174499
C79	C	-0.842869	0.187072	0.761044
C80	C	-0.342869	0.687072	1.261044
C81	C	-0.842833	0.187085	0.325471
C82	C	-0.342833	0.687085	0.825471
C83	C	-0.842829	0.187080	0.238919
C84	C	-0.342829	0.687080	0.738919
C85	C	-0.945586	0.061510	0.238898
C86	C	-0.445586	0.561510	0.738898
C87	C	-0.945593	0.061508	0.325444
C88	C	-0.445593	0.561508	0.825444
C89	C	-0.894219	0.124301	0.368725
C90	C	-0.394219	0.624301	0.868725
C91	C	-0.894223	0.124296	0.462570
C92	C	-0.394223	0.624296	0.962570
C93	C	-0.894231	0.124286	0.537367
C94	C	-0.394231	0.624286	1.037367
N95	N	-0.894250	0.124276	0.804302
N96	N	-0.394250	0.624276	1.304302
H97	H	-0.648357	0.281995	-0.000024
H98	H	-0.148357	0.781995	0.499976
C99	C	-1.002099	-0.007566	0.191280
C100	C	-0.502099	0.492434	0.691280
N101	N	-1.044660	-0.059597	0.155416
N102	N	-0.544660	0.440403	0.655416
H103	H	-0.505127	0.279213	-0.000026
H104	H	-0.005127	0.779213	0.499974
H105	H	-0.800986	0.238212	0.203697
H106	H	-0.300986	0.738212	0.703697
H107	H	-0.801001	0.238212	0.360704
H108	H	-0.301001	0.738212	0.860704
H109	H	-0.801028	0.238201	0.639270
H110	H	-0.301028	0.738201	1.139270
H111	H	-0.987431	0.010379	0.360665
H112	H	-0.487431	0.510379	0.860665
H113	H	-0.107797	0.271499	-0.000028
H114	H	0.392203	0.771499	0.499972
C115	C	-0.259751	0.298514	-0.000025
C116	C	0.240249	0.798514	0.499975
N117	N	-0.285073	0.368780	-0.000014
N118	N	0.214927	0.868780	0.499986
C119	C	-0.297158	-0.054434	-0.000021
C120	C	0.202842	0.445566	0.499979
N121	N	-0.337242	-0.123423	-0.000008
N122	N	0.162758	0.376577	0.499992
H123	H	-0.801035	0.238199	0.796285
H124	H	-0.301035	0.738199	1.296285
H125	H	-0.140104	-0.033426	-0.000033
H126	H	0.359896	0.466574	0.499967
H127	H	-0.537445	-0.025712	-0.000025
H128	H	-0.037445	0.474288	0.499975
C129	C	-0.694489	-0.046722	-0.000021
C130	C	-0.194489	0.453278	0.499979
N131	N	-0.734572	-0.115714	-0.000023
N132	N	-0.234572	0.384286	0.499977
C133	C	-1.002148	-0.007582	0.808599
C134	C	-0.502148	0.492418	1.308599
N135	N	-1.044725	-0.059608	0.844435
N136	N	-0.544725	0.440392	1.344435
H137	H	-0.987456	0.010374	0.639231
H138	H	-0.487456	0.510374	1.139231
