data_functionalizedCrystal
_audit_creation_method	'MofGen! by Chris Wilmer'
_symmetry_space_group_name_H-M	'P1'
_symmetry_Int_Tables_number	1
_symmetry_cell_setting	triclinic
loop_
_symmetry_equiv_pos_as_xyz
  x,y,z
_cell_length_a	11.792241
_cell_length_b	16.109301
_cell_length_c	15.186229
_cell_angle_alpha	89.998295
_cell_angle_beta	89.998567
_cell_angle_gamma	83.827448
loop_
_atom_site_label
_atom_site_type_symbol
_atom_site_fract_x
_atom_site_fract_y
_atom_site_fract_z
O1	O	-1.505912	-0.113949	0.073146
O2	O	-1.175468	-0.125693	0.073167
O3	O	-1.349768	0.001168	0.073147
O4	O	-1.331612	-0.240809	0.073166
O5	O	-1.349747	0.001160	-0.073310
O6	O	-1.175447	-0.125700	-0.073290
O7	O	-1.505892	-0.113956	-0.073311
Zn8	Zn	-1.340666	-0.119829	-0.096554
Zn9	Zn	-1.340693	-0.119820	0.096410
O10	O	-1.331592	-0.240816	-0.073291
C11	C	-1.133173	-0.124959	-0.000059
C12	C	-1.007179	-0.122751	-0.000051
C13	C	-1.548186	-0.114690	-0.000083
C14	C	-1.674181	-0.116898	-0.000085
C15	C	-1.349022	0.032142	-0.000082
C16	C	-1.346817	0.124448	-0.000083
C17	C	-0.776502	-0.118690	-0.000077
C18	C	-0.904868	-0.120946	-0.000063
C19	C	-1.332338	-0.271791	-0.000060
C20	C	-1.334542	-0.364097	-0.000053
N21	N	-1.340656	-0.119835	-0.228247
C22	C	-1.445116	0.346258	-0.000075
C23	C	-1.443036	0.432988	-0.000068
C24	C	-1.236235	0.414087	-0.000058
C25	C	-1.238317	0.327358	-0.000060
C26	C	-1.342761	0.293446	-0.000072
C27	C	-1.338599	0.466905	-0.000064
C28	C	-1.336342	0.560942	-0.000056
C29	C	-1.345018	0.199404	-0.000079
C30	C	-1.409491	-0.170587	-0.453970
C31	C	-1.409503	-0.170581	-0.546159
C32	C	-1.271875	-0.069049	-0.546168
C33	C	-1.271869	-0.069051	-0.453980
C34	C	-1.340675	-0.119825	-0.407883
C35	C	-1.340693	-0.119817	-0.592261
C36	C	-1.340706	-0.119810	-0.692217
C37	C	-1.340664	-0.119831	-0.307921
N38	N	-1.340712	-0.119807	0.228102
H39	H	-1.526384	0.475984	-0.000069
N40	N	-1.123590	0.450664	-0.000048
H41	H	-1.137800	0.513620	-0.000051
H42	H	-1.078798	0.431377	-0.054340
H43	H	-1.154962	0.284357	-0.000054
N44	N	-1.197636	-0.014301	-0.404267
H45	H	-1.208079	-0.022005	-0.338873
H46	H	-1.220086	0.046057	-0.420381
N47	N	-1.483754	-0.225311	-0.595868
H48	H	-1.527347	-0.257467	-0.552674
H49	H	-1.434282	-0.265715	-0.634133
H50	H	-1.530161	0.318650	-0.000084
N51	N	-1.483716	-0.225340	-0.404257
H52	H	-1.539275	-0.189413	-0.366006
H53	H	-1.434213	-0.265789	-0.366061
N54	N	-1.197665	-0.014289	-0.595886
H55	H	-1.208107	-0.021991	-0.661281
H56	H	-1.115117	-0.030310	-0.579776
