data_functionalizedCrystal
_audit_creation_method	'MofGen! by Chris Wilmer'
_symmetry_space_group_name_H-M	'P1'
_symmetry_Int_Tables_number	1
_symmetry_cell_setting	triclinic
loop_
_symmetry_equiv_pos_as_xyz
  x,y,z
_cell_length_a	10.540510
_cell_length_b	10.540539
_cell_length_c	13.101039
_cell_angle_alpha	86.601733
_cell_angle_beta	93.391426
_cell_angle_gamma	84.519401
loop_
_atom_site_label
_atom_site_type_symbol
_atom_site_fract_x
_atom_site_fract_y
_atom_site_fract_z
O1	O	1.692829	0.171776	0.085216
O2	O	2.192829	0.671776	0.585216
O3	O	1.323412	0.188672	0.085216
O4	O	1.823412	0.688672	0.585216
O5	O	1.516548	-0.004483	0.085215
O6	O	2.016548	0.495517	0.585215
O7	O	1.499693	0.364931	0.085217
O8	O	1.999693	0.864931	0.585217
O9	O	1.502691	0.009398	-0.085215
O10	O	2.002691	0.509398	0.414785
O11	O	1.309554	0.202553	-0.085214
O12	O	1.809554	0.702553	0.414786
O13	O	1.678972	0.185658	-0.085214
O14	O	2.178972	0.685658	0.414786
Zn15	Zn	1.492063	0.196310	-0.112273
Zn16	Zn	1.992063	0.696310	0.387727
Zn17	Zn	1.510321	0.178020	0.112275
Zn18	Zn	2.010321	0.678020	0.612275
O19	O	1.485835	0.378813	-0.085212
O20	O	1.985835	0.878813	0.414788
C21	C	1.269179	0.194354	0.000001
C22	C	1.769179	0.694354	0.500001
C23	C	1.128230	0.190587	0.000002
C24	C	1.628230	0.690587	0.500002
C25	C	0.910806	0.324739	0.000394
C26	C	1.410806	0.824739	0.500394
C27	C	1.057370	0.328789	0.000004
C28	C	1.557370	0.828789	0.500004
C29	C	1.075557	0.127768	-0.097320
C30	C	1.575557	0.627768	0.402680
C31	C	0.928790	0.124735	-0.097396
C32	C	1.428790	0.624735	0.402604
C33	C	0.944742	0.106070	0.096415
C34	C	1.444742	0.606070	0.596415
C35	C	1.091187	0.112521	0.097695
C36	C	1.591187	0.612521	0.597695
C37	C	1.508356	-0.044845	0.000002
C38	C	2.008356	0.455155	0.500002
C39	C	1.504574	-0.185793	0.000007
C40	C	2.004574	0.314207	0.500007
C41	C	1.359687	-0.369236	0.000390
C42	C	1.859687	0.130764	0.500390
C43	C	1.363489	-0.222587	0.000006
C44	C	1.863489	0.277413	0.500006
C45	C	1.564558	-0.239531	-0.097317
C46	C	2.064558	0.260469	0.402683
C47	C	1.559736	-0.386069	-0.097399
C48	C	2.059736	0.113931	0.402601
C49	C	1.578364	-0.402373	0.096412
C50	C	2.078364	0.097627	0.596412
C51	C	1.579768	-0.255496	0.097699
C52	C	2.079768	0.244504	0.597699
C53	C	1.733205	0.179976	0.000003
C54	C	2.233205	0.679976	0.500003
C55	C	1.874155	0.183742	0.000010
C56	C	2.374155	0.683742	0.500010
C57	C	1.494028	0.419175	0.000003
C58	C	1.994028	0.919175	0.500003
C59	C	1.497810	0.560123	0.000004
C60	C	1.997810	1.060123	0.500004
N61	N	1.479612	0.208791	-0.265522
N62	N	1.979612	0.708791	0.234478
C63	C	1.462672	0.225785	-0.474564
C64	C	1.962672	0.725785	0.025436
C65	C	1.539717	0.148539	-0.525440
C66	C	2.039717	0.648539	-0.025440
C67	C	1.530292	0.157994	-0.641759
C68	C	2.030292	0.657994	-0.141759
C69	C	1.472096	0.216331	-0.358235
C70	C	1.972096	0.716331	0.141765
N71	N	1.522782	0.165528	0.265524
N72	N	2.022782	0.665528	0.765524
H73	H	0.874527	0.372896	0.070189
H74	H	1.374527	0.872896	0.570189
F75	F	1.699598	-0.209944	-0.102050
F76	F	2.199598	0.290056	0.397950
F77	F	1.367213	0.321503	-0.531810
F78	F	1.867213	0.821503	-0.031810
F79	F	1.635569	0.053201	-0.468192
F80	F	2.135569	0.553201	0.031808
H81	H	1.140732	0.011145	0.103571
H82	H	1.640732	0.511145	0.603571
F83	F	1.103144	0.393709	0.091191
F84	F	1.603144	0.893709	0.591191
F85	F	1.301074	-0.174318	0.091195
F86	F	1.801074	0.325682	0.591195
F87	F	1.486413	-0.415179	-0.192487
F88	F	1.986413	0.084821	0.307513
H89	H	0.861656	0.383923	-0.069005
H90	H	1.361656	0.883923	0.430995
F91	F	1.711630	-0.464186	0.097270
F92	F	2.211630	0.035814	0.597270
H93	H	1.080092	0.390163	-0.069877
H94	H	1.580092	0.890163	0.430123
F95	F	1.495215	-0.176137	-0.191984
F96	F	1.995215	0.323863	0.308016
H97	H	1.683107	-0.231765	0.103576
H98	H	2.183107	0.268235	0.603576
H99	H	0.908191	0.143645	0.170180
H100	H	1.408191	0.643645	0.670180
H101	H	0.882658	0.179008	-0.170145
H102	H	1.382658	0.679008	0.329855
F103	F	1.136289	0.172104	0.191805
F104	F	1.636289	0.672104	0.691805
H105	H	0.922641	0.002255	0.097072
H106	H	1.422641	0.502255	0.597072
H107	H	1.122652	0.026321	-0.100941
H108	H	1.622652	0.526321	0.399059
F109	F	0.898255	-0.009892	-0.103221
F110	F	1.398255	0.490108	0.396779
F111	F	1.294254	-0.414037	0.091615
F112	F	1.794254	0.085963	0.591615
H113	H	1.538699	-0.439930	0.170177
H114	H	2.038699	0.060070	0.670177
F115	F	1.279591	-0.401771	-0.090074
F116	F	1.779591	0.098229	0.409926
F117	F	1.108185	0.199695	-0.191989
F118	F	1.608185	0.699695	0.308011
H119	H	1.660844	-0.433688	-0.101814
H120	H	2.160844	0.066312	0.398186
F121	F	1.522995	-0.209156	0.191819
F122	F	2.022995	0.290844	0.691819
F123	F	1.285740	-0.160555	-0.091332
F124	F	1.785740	0.339445	0.408668
