data_functionalizedCrystal
_audit_creation_method	'MofGen! by Chris Wilmer'
_symmetry_space_group_name_H-M	'P1'
_symmetry_Int_Tables_number	1
_symmetry_cell_setting	triclinic
loop_
_symmetry_equiv_pos_as_xyz
  x,y,z
_cell_length_a	19.121102
_cell_length_b	29.839131
_cell_length_c	19.120904
_cell_angle_alpha	92.409150
_cell_angle_beta	90.088173
_cell_angle_gamma	87.595578
loop_
_atom_site_label
_atom_site_type_symbol
_atom_site_fract_x
_atom_site_fract_y
_atom_site_fract_z
Zn1	Zn	1.054749	-0.219753	-0.442036
Zn2	Zn	1.388082	0.113580	-0.108703
Zn3	Zn	1.721415	0.446913	0.224630
Zn4	Zn	1.059636	-0.291816	-0.324791
Zn5	Zn	1.392970	0.041518	0.008542
Zn6	Zn	1.726303	0.374851	0.341875
Zn7	Zn	0.942520	-0.213364	-0.319821
Zn8	Zn	1.275854	0.119970	0.013512
Zn9	Zn	1.609187	0.453303	0.346846
Zn10	Zn	0.937448	-0.291514	-0.436994
Zn11	Zn	1.270781	0.041820	-0.103660
Zn12	Zn	1.604115	0.375153	0.229673
O13	O	0.998588	-0.254112	-0.380911
O14	O	1.331922	0.079222	-0.047577
O15	O	1.665255	0.412555	0.285756
O16	O	1.153501	-0.232113	-0.430674
O17	O	1.486835	0.101220	-0.097341
O18	O	1.820168	0.434553	0.235993
O19	O	1.048269	-0.278861	-0.226027
O20	O	1.381602	0.054472	0.107306
O21	O	1.714936	0.387806	0.440639
O22	O	0.957485	-0.151347	-0.336063
O23	O	1.290818	0.181986	-0.002730
O24	O	1.624152	0.515320	0.330603
O25	O	1.157092	-0.285057	-0.344535
O26	O	1.490426	0.048276	-0.011201
O27	O	1.823759	0.381610	0.322132
O28	O	1.039939	-0.156042	-0.425855
O29	O	1.373272	0.177292	-0.092521
O30	O	1.706605	0.510625	0.240812
O31	O	0.962224	-0.221223	-0.222376
O32	O	1.295558	0.112111	0.110958
O33	O	1.628891	0.445444	0.444291
O34	O	0.843743	-0.220930	-0.331174
O35	O	1.177077	0.112403	0.002160
O36	O	1.510410	0.445737	0.335493
O37	O	0.948840	-0.284542	-0.535767
O38	O	1.282173	0.048791	-0.202434
O39	O	1.615506	0.382124	0.130899
O40	O	0.840017	-0.278346	-0.417260
O41	O	1.173350	0.054987	-0.083927
O42	O	1.506683	0.388320	0.249407
O43	O	1.035020	-0.231820	-0.539472
O44	O	1.368353	0.101513	-0.206139
O45	O	1.701687	0.434846	0.127195
O46	O	1.043351	-0.354640	-0.339645
O47	O	1.376684	-0.021306	-0.006312
O48	O	1.710017	0.312027	0.327022
O49	O	0.953579	-0.354418	-0.422080
O50	O	1.286913	-0.021084	-0.088746
O51	O	1.620246	0.312249	0.244587
C52	C	0.816443	-0.248912	-0.373131
C53	C	1.149776	0.084421	-0.039797
C54	C	1.483109	0.417754	0.293536
C55	C	0.738519	-0.246699	-0.369819
C56	C	1.071853	0.086634	-0.036486
C57	C	1.405186	0.419967	0.296848
C58	C	0.699992	-0.275595	-0.413013
C59	C	1.033325	0.057739	-0.079680
C60	C	1.366658	0.391072	0.253653
C61	C	0.626774	-0.273510	-0.409905
C62	C	0.960108	0.059824	-0.076572
C63	C	1.293441	0.393157	0.256762
C64	C	0.592086	-0.242531	-0.363599
C65	C	0.925419	0.090803	-0.030265
C66	C	1.258752	0.424136	0.303068
C67	C	0.630619	-0.213632	-0.320403
C68	C	0.963952	0.119701	0.012931
C69	C	1.297285	0.453034	0.346264
C70	C	0.703835	-0.215716	-0.323515
C71	C	1.037168	0.117618	0.009818
C72	C	1.370501	0.450951	0.343152
C73	C	0.371117	-0.234741	-0.351966
C74	C	0.704450	0.098593	-0.018633
C75	C	1.037783	0.431926	0.314701
C76	C	0.297896	-0.232660	-0.348855
C77	C	0.631229	0.100673	-0.015522
C78	C	0.964562	0.434006	0.317811
C79	C	0.294056	-0.292537	-0.438359
C80	C	0.627390	0.040796	-0.105026
C81	C	0.960723	0.374129	0.228307
C82	C	0.367274	-0.294620	-0.441464
C83	C	0.700607	0.038713	-0.108131
C84	C	1.033941	0.372047	0.225202
C85	C	0.405800	-0.265720	-0.398271
C86	C	0.739133	0.067614	-0.064938
C87	C	1.072467	0.400947	0.268396
C88	C	0.517246	-0.240400	-0.360419
C89	C	0.850579	0.092934	-0.027085
C90	C	1.183913	0.426267	0.306248
C91	C	0.480639	-0.267849	-0.401455
C92	C	0.813972	0.065484	-0.068122
C93	C	1.147305	0.398818	0.265212
C94	C	0.998463	-0.370830	-0.380870
C95	C	1.331797	-0.037496	-0.047537
C96	C	1.665130	0.295837	0.285796
C97	C	0.998473	-0.420765	-0.380879
C98	C	1.331806	-0.087431	-0.047546
C99	C	1.665140	0.245902	0.285787
C100	C	1.045411	-0.730519	-0.338056
C101	C	1.378744	-0.397185	-0.004723
C102	C	1.712078	-0.063852	0.328611
C103	C	1.045496	-0.918195	-0.338087
C104	C	1.378830	-0.584862	-0.004753
C105	C	1.712163	-0.251528	0.328580
O106	O	1.085306	-0.942551	-0.301646
O107	O	1.418639	-0.609217	0.031688
O108	O	1.751972	-0.275884	0.365021
N109	N	0.998731	-0.941559	-0.380970
N110	N	1.332065	-0.608226	-0.047636
N111	N	1.665398	-0.274892	0.285697
C112	C	0.951945	-0.918001	-0.423851
C113	C	1.285278	-0.584668	-0.090518
C114	C	1.618612	-0.251335	0.242815
O115	O	0.912175	-0.942181	-0.460332
O116	O	1.245509	-0.608847	-0.126998
O117	O	1.578842	-0.275514	0.206335
C118	C	0.951864	-0.730326	-0.423824
C119	C	1.285197	-0.396993	-0.090490
C120	C	1.618530	-0.063660	0.242843
C121	C	0.998627	-0.706964	-0.380933
C122	C	1.331960	-0.373631	-0.047599
C123	C	1.665293	-0.040298	0.285734
C124	C	1.092171	-0.707157	-0.295169
C125	C	1.425504	-0.373824	0.038164
C126	C	1.758838	-0.040490	0.371498
C127	C	1.092146	-0.660241	-0.295159
C128	C	1.425480	-0.326907	0.038174
C129	C	1.758813	0.006426	0.371508
C130	C	1.045362	-0.636686	-0.338036
C131	C	1.378696	-0.303353	-0.004702
C132	C	1.712029	0.029981	0.328631
C133	C	0.998602	-0.660048	-0.380923
C134	C	1.331936	-0.326715	-0.047589
C135	C	1.665269	0.006619	0.285744
C136	C	0.905081	-0.706770	-0.466708
C137	C	1.238414	-0.373436	-0.133375
C138	C	1.571748	-0.040103	0.199958
C139	C	0.905066	-0.659848	-0.466699
C140	C	1.238399	-0.326515	-0.133366
C141	C	1.571733	0.006819	0.199968
C142	C	0.951829	-0.636486	-0.423808
C143	C	1.285163	-0.303153	-0.090475
C144	C	1.618496	0.030181	0.242859
C145	C	0.951794	-0.589577	-0.423789
C146	C	1.285127	-0.256244	-0.090456
C147	C	1.618460	0.077090	0.242877
N148	N	0.998559	-0.566213	-0.380906
N149	N	1.331892	-0.232880	-0.047573
N150	N	1.665225	0.100454	0.285760
C151	C	1.045343	-0.589768	-0.338030
C152	C	1.378676	-0.256434	-0.004696
C153	C	1.712009	0.076899	0.328637
C154	C	0.951990	-1.016534	-0.423862
C155	C	1.285323	-0.683200	-0.090528
C156	C	1.618657	-0.349867	0.242805
C157	C	0.952010	-1.063452	-0.423868
C158	C	1.285343	-0.730119	-0.090535
C159	C	1.618676	-0.396785	0.242799
C160	C	1.045562	-1.063642	-0.338104
C161	C	1.378895	-0.730309	-0.004771
C162	C	1.712229	-0.396976	0.328562
C163	C	1.045539	-1.016723	-0.338095
C164	C	1.378872	-0.683390	-0.004762
C165	C	1.712205	-0.350056	0.328572
C166	C	0.998755	-0.993169	-0.380979
C167	C	1.332088	-0.659836	-0.047646
C168	C	1.665422	-0.326503	0.285688
C169	C	1.045288	-0.491240	-0.338011
C170	C	1.378621	-0.157906	-0.004678
C171	C	1.711954	0.175427	0.328656
C172	C	1.045257	-0.444319	-0.338003
C173	C	1.378590	-0.110986	-0.004669
C174	C	1.711924	0.222348	0.328664
C175	C	0.951708	-0.444133	-0.423769
C176	C	1.285041	-0.110799	-0.090435
C177	C	1.618374	0.222534	0.242898
C178	C	0.951735	-0.491049	-0.423775
C179	C	1.285069	-0.157716	-0.090441
C180	C	1.618402	0.175617	0.242892
C181	C	0.998531	-0.514602	-0.380894
C182	C	1.331864	-0.181268	-0.047561
C183	C	1.665198	0.152065	0.285773
O184	O	0.912011	-0.565193	-0.460217
O185	O	1.245344	-0.231860	-0.126884
O186	O	1.578677	0.101474	0.206450
O187	O	1.085117	-0.565581	-0.301566
O188	O	1.418450	-0.232248	0.031767
O189	O	1.751784	0.101086	0.365101
C190	C	1.045435	-0.777435	-0.338066
C191	C	1.378769	-0.444102	-0.004733
C192	C	1.712102	-0.110769	0.328601
C193	C	0.998676	-0.800797	-0.380953
C194	C	1.332009	-0.467464	-0.047620
C195	C	1.665342	-0.134130	0.285714
C196	C	0.951891	-0.777243	-0.423830
C197	C	1.285225	-0.443909	-0.090496
C198	C	1.618558	-0.110576	0.242837
C199	C	0.998695	-0.847716	-0.380959
C200	C	1.332028	-0.514382	-0.047626
C201	C	1.665362	-0.181049	0.285708
C202	C	1.045479	-0.871270	-0.338082
C203	C	1.378812	-0.537937	-0.004749
C204	C	1.712146	-0.204603	0.328584
C205	C	1.092244	-0.847906	-0.295199
C206	C	1.425577	-0.514573	0.038134
C207	C	1.758911	-0.181239	0.371467
C208	C	1.092220	-0.800990	-0.295189
C209	C	1.425553	-0.467656	0.038144
C210	C	1.758886	-0.134323	0.371477
C211	C	0.905126	-0.800607	-0.466712
C212	C	1.238460	-0.467273	-0.133379
C213	C	1.571793	-0.133940	0.199954
C214	C	0.905154	-0.847523	-0.466718
C215	C	1.238487	-0.514190	-0.133385
C216	C	1.571821	-0.180856	0.199948
C217	C	0.951938	-0.871078	-0.423842
C218	C	1.285272	-0.537744	-0.090508
C219	C	1.618605	-0.204411	0.242825
C220	C	1.181445	-0.259331	-0.388721
C221	C	1.514779	0.074002	-0.055388
C222	C	1.848112	0.407335	0.277945
C223	C	1.259368	-0.261556	-0.392050
C224	C	1.592701	0.071777	-0.058716
C225	C	1.926035	0.405111	0.274617
C226	C	0.990819	-0.258860	-0.563768
C227	C	1.324152	0.074473	-0.230435
C228	C	1.657486	0.407806	0.102898
C229	C	0.987508	-0.260884	-0.641691
C230	C	1.320841	0.072449	-0.308358
C231	C	1.654175	0.405783	0.024975
C232	C	0.998732	-0.136939	-0.380967
C233	C	1.332066	0.196395	-0.047634
C234	C	1.665399	0.529728	0.285700
C235	C	0.998794	-0.087007	-0.380991
C236	C	1.332127	0.246327	-0.047658
C237	C	1.665460	0.579660	0.285676
C238	C	1.030820	-0.234387	-0.680230
C239	C	1.364153	0.098947	-0.346896
C240	C	1.697486	0.432280	-0.013563
C241	C	1.027700	-0.236286	-0.753446
C242	C	1.361034	0.097047	-0.420113
C243	C	1.694367	0.430381	-0.086780
C244	C	0.981272	-0.264686	-0.788123
C245	C	1.314606	0.068648	-0.454790
C246	C	1.647939	0.401981	-0.121457
C247	C	0.937956	-0.291184	-0.749580
C248	C	1.271289	0.042149	-0.416246
C249	C	1.604622	0.375483	-0.082913
C250	C	0.941072	-0.289282	-0.676364
C251	C	1.274405	0.044051	-0.343031
C252	C	1.607739	0.377385	-0.009698
C253	C	0.969615	-0.271800	-1.009090
C254	C	1.302948	0.061533	-0.675757
C255	C	1.636281	0.394867	-0.342423
C256	C	0.966503	-0.273701	-1.082311
C257	C	1.299836	0.059632	-0.748977
C258	C	1.633170	0.392966	-0.415644
C259	C	1.056247	-0.218802	-1.086172
C260	C	1.389580	0.114531	-0.752839
C261	C	1.722914	0.447865	-0.419506
C262	C	1.059362	-0.216905	-1.012955
C263	C	1.392696	0.116429	-0.679622
C264	C	1.726029	0.449762	-0.346289
C265	C	1.016043	-0.243401	-0.974418
C266	C	1.349377	0.089932	-0.641085
C267	C	1.682710	0.423265	-0.307751
C268	C	0.978084	-0.266629	-0.862963
C269	C	1.311417	0.066704	-0.529629
C270	C	1.644751	0.400038	-0.196296
C271	C	1.019228	-0.241455	-0.899580
C272	C	1.352562	0.091878	-0.566247
C273	C	1.685895	0.425211	-0.232913
C274	C	1.006368	-0.249350	-0.198766
C275	C	1.339701	0.083983	0.134567
C276	C	1.673035	0.417317	0.467901
C277	C	1.009815	-0.247204	-0.120849
C278	C	1.343148	0.086130	0.212484
C279	C	1.676481	0.419463	0.545817
H280	H	0.508885	-0.293070	-0.439160
H281	H	0.842218	0.040263	-0.105827
H282	H	1.175552	0.373597	0.227506
N283	N	1.080905	-0.203760	-0.642834
N284	N	1.414239	0.129573	-0.309500
N285	N	1.747572	0.462906	0.023833
H286	H	1.076314	-0.206578	-0.590604
H287	H	1.409647	0.126755	-0.257270
H288	H	1.742981	0.460089	0.076063
H289	H	1.130416	-0.212521	-0.657778
H290	H	1.463749	0.120812	-0.324444
H291	H	1.797083	0.454145	0.008889
H292	H	0.402476	-0.211211	-0.316789
H293	H	0.735810	0.122122	0.016544
H294	H	1.069143	0.455455	0.349877
N295	N	1.074401	-0.207698	-0.795013
N296	N	1.407734	0.125636	-0.461680
N297	N	1.741068	0.458969	-0.128346
H298	H	1.104284	-0.189417	-0.761936
H299	H	1.437618	0.143916	-0.428602
H300	H	1.770951	0.477249	-0.095269
H301	H	1.105531	-0.227692	-0.826779
H302	H	1.438864	0.105642	-0.493446
H303	H	1.772197	0.438975	-0.160112
N304	N	0.479824	-0.207002	-0.310457
N305	N	0.813158	0.126332	0.022876
N306	N	1.146491	0.459665	0.356210
H307	H	0.448252	-0.186088	-0.337705
H308	H	0.781585	0.147245	-0.004371
H309	H	1.114918	0.480579	0.328962
H310	H	0.450851	-0.223567	-0.276651
H311	H	0.784185	0.109766	0.056683
H312	H	1.117518	0.443100	0.390016
N313	N	1.109426	-0.186257	-0.975572
N314	N	1.442759	0.147077	-0.642239
N315	N	1.776092	0.480410	-0.308906
H316	H	1.082243	-0.163837	-0.943995
H317	H	1.415576	0.169496	-0.610662
H318	H	1.748909	0.502830	-0.277328
H319	H	1.143186	-0.204670	-0.946609
H320	H	1.476519	0.128663	-0.613276
H321	H	1.809852	0.461996	-0.279942
N322	N	0.928019	-0.297265	-0.900368
N323	N	1.261352	0.036068	-0.567034
N324	N	1.594686	0.369401	-0.233701
H325	H	0.901054	-0.313767	-0.864847
H326	H	1.234387	0.019566	-0.531514
H327	H	1.567721	0.352900	-0.198180
H328	H	0.894305	-0.278843	-0.929367
H329	H	1.227638	0.054491	-0.596033
H330	H	1.560972	0.387824	-0.262700
H331	H	0.602369	-0.188407	-0.282702
H332	H	0.935703	0.144927	0.050631
H333	H	1.269036	0.478260	0.383965
N334	N	0.737401	-0.309008	-0.462961
N335	N	1.070734	0.024326	-0.129628
N336	N	1.404067	0.357659	0.203706
H337	H	0.789629	-0.305945	-0.458378
H338	H	1.122963	0.027388	-0.125045
H339	H	1.456296	0.360722	0.208288
H340	H	0.725032	-0.340430	-0.451411
H341	H	1.058366	-0.007097	-0.118078
H342	H	1.391699	0.326236	0.215256
H343	H	1.083618	-0.997704	-0.303170
H344	H	1.416951	-0.664371	0.030163
H345	H	1.750284	-0.331038	0.363497
N346	N	0.922871	-0.300362	-0.967529
N347	N	1.256205	0.032972	-0.634196
N348	N	1.589538	0.366305	-0.300862
H349	H	0.892982	-0.318637	-1.000609
H350	H	1.226316	0.014697	-0.667275
H351	H	1.559649	0.348030	-0.333942
H352	H	0.952649	-0.321182	-0.938345
H353	H	1.285983	0.012152	-0.605012
H354	H	1.619316	0.345485	-0.271679
N355	N	0.404687	-0.328035	-0.491405
N356	N	0.738020	0.005298	-0.158072
N357	N	1.071354	0.338632	0.175261
H358	H	0.369169	-0.346025	-0.518298
H359	H	0.702502	-0.012691	-0.184964
H360	H	1.035836	0.320642	0.148369
H361	H	0.433712	-0.311491	-0.525194
H362	H	0.767045	0.021842	-0.191861
H363	H	1.100379	0.355175	0.141473
N364	N	0.901519	-0.991135	-0.470113
N365	N	1.234852	-0.657802	-0.136779
N366	N	1.568185	-0.324469	0.196554
H367	H	0.870257	-0.970031	-0.440206
H368	H	1.203590	-0.636698	-0.106873
H369	H	1.536923	-0.303364	0.226461
H370	H	0.928634	-0.973326	-0.503837
H371	H	1.261968	-0.639992	-0.170504
H372	H	1.595301	-0.306659	0.162830
H373	H	1.083337	-0.425299	-0.303073
H374	H	1.416671	-0.091966	0.030260
H375	H	1.750004	0.241368	0.363593
H376	H	0.262680	-0.316066	-0.473526
H377	H	0.596014	0.017268	-0.140192
H378	H	0.929347	0.350601	0.193141
H379	H	0.269654	-0.207429	-0.311151
H380	H	0.602988	0.125905	0.022182
H381	H	0.936321	0.459238	0.355515
H382	H	0.595408	-0.297040	-0.445078
H383	H	0.928742	0.036294	-0.111744
H384	H	1.262075	0.369627	0.221589
N385	N	0.854601	-0.634442	-0.512945
N386	N	1.187934	-0.301108	-0.179612
N387	N	1.521267	0.032225	0.153721
H388	H	0.881672	-0.616603	-0.546669
H389	H	1.215005	-0.283269	-0.213336
H390	H	1.548338	0.050064	0.119997
H391	H	0.824992	-0.656389	-0.540068
H392	H	1.158326	-0.323056	-0.206734
H393	H	1.491659	0.010277	0.126599
N394	N	1.102966	-0.190224	-1.127737
N395	N	1.436299	0.143109	-0.794403
N396	N	1.769633	0.476443	-0.461070
H397	H	1.093949	-0.195737	-1.179380
H398	H	1.427282	0.137597	-0.846047
H399	H	1.760615	0.470930	-0.512714
H400	H	1.092637	-0.157497	-1.114487
H401	H	1.425971	0.175836	-0.781154
H402	H	1.759304	0.509170	-0.447820
N403	N	1.096021	-1.089052	-0.291855
N404	N	1.429355	-0.755718	0.041478
N405	N	1.762688	-0.422385	0.374811
H406	H	1.088933	-1.122319	-0.298372
H407	H	1.422267	-0.788985	0.034962
H408	H	1.755600	-0.455652	0.368295
H409	H	1.145612	-1.082530	-0.304949
H410	H	1.478946	-0.749196	0.028385
H411	H	1.812279	-0.415863	0.361718
N412	N	1.142710	-0.873313	-0.248955
N413	N	1.476043	-0.539980	0.084379
N414	N	1.809377	-0.206647	0.417712
H415	H	1.133991	-0.863560	-0.198389
H416	H	1.467324	-0.530227	0.134945
H417	H	1.800657	-0.196894	0.468278
H418	H	1.135602	-0.906573	-0.255531
H419	H	1.468936	-0.573240	0.077803
H420	H	1.802269	-0.239907	0.411136
H421	H	0.735203	-0.192183	-0.288345
H422	H	1.068536	0.141150	0.044988
H423	H	1.401869	0.474483	0.378322
N424	N	0.916427	-0.304335	-1.119715
N425	N	1.249761	0.028998	-0.786382
N426	N	1.583094	0.362332	-0.453049
H427	H	0.889457	-0.320832	-1.084193
H428	H	1.222790	0.012501	-0.750859
H429	H	1.556123	0.345835	-0.417526
H430	H	0.882718	-0.285911	-1.148718
H431	H	1.216051	0.047422	-0.815385
H432	H	1.549385	0.380756	-0.482051
N433	N	1.095759	-0.516639	-0.291763
N434	N	1.429092	-0.183305	0.041570
N435	N	1.762426	0.150028	0.374904
H436	H	1.125373	-0.494714	-0.264595
H437	H	1.458706	-0.161380	0.068738
H438	H	1.792040	0.171953	0.402071
H439	H	1.068639	-0.534476	-0.258080
H440	H	1.401972	-0.201143	0.075253
H441	H	1.735306	0.132190	0.408587
H442	H	0.900150	-0.314306	-0.777819
H443	H	1.233484	0.019027	-0.444486
H444	H	1.566817	0.352361	-0.111153
N445	N	0.894363	-0.317862	-0.634790
N446	N	1.227697	0.015471	-0.301457
N447	N	1.561030	0.348805	0.031877
H448	H	0.863192	-0.297887	-0.603034
H449	H	1.196526	0.035446	-0.269701
H450	H	1.529859	0.368780	0.063633
H451	H	0.864523	-0.336140	-0.667908
H452	H	1.197856	-0.002807	-0.334575
H453	H	1.531189	0.330526	-0.001242
H454	H	1.130227	-0.641222	-0.260236
H455	H	1.463560	-0.307889	0.073098
H456	H	1.796894	0.025445	0.406431
N457	N	1.142636	-0.732558	-0.248920
N458	N	1.475969	-0.399224	0.084413
N459	N	1.809303	-0.065891	0.417746
H460	H	1.172250	-0.710632	-0.221756
H461	H	1.505584	-0.377299	0.111578
H462	H	1.838917	-0.043965	0.444911
H463	H	1.115514	-0.750392	-0.215235
H464	H	1.448847	-0.417059	0.118098
H465	H	1.782180	-0.083726	0.451431
N466	N	0.901561	-1.088646	-0.470116
N467	N	1.234894	-0.755313	-0.136782
N468	N	1.568228	-0.421980	0.196551
H469	H	0.871923	-1.066601	-0.497275
H470	H	1.205257	-0.733268	-0.163942
H471	H	1.538590	-0.399934	0.169392
H472	H	0.928696	-1.109744	-0.503806
H473	H	1.262029	-0.776410	-0.170473
H474	H	1.595362	-0.443077	0.162860
H475	H	0.866998	-0.725783	-0.501631
H476	H	1.200332	-0.392449	-0.168298
H477	H	1.533665	-0.059116	0.165035
H478	H	0.913659	-0.510072	-0.458702
H479	H	1.246992	-0.176738	-0.125369
H480	H	1.580326	0.156595	0.207964
N481	N	0.854661	-0.775203	-0.512955
N482	N	1.187994	-0.441870	-0.179622
N483	N	1.521327	-0.108537	0.153712
H484	H	0.863378	-0.784960	-0.563520
H485	H	1.196712	-0.451627	-0.230186
H486	H	1.530045	-0.118293	0.103147
H487	H	0.805073	-0.781707	-0.499822
H488	H	1.138406	-0.448374	-0.166489
H489	H	1.471740	-0.115041	0.166845
N490	N	0.901245	-0.418723	-0.470008
N491	N	1.234578	-0.085390	-0.136675
N492	N	1.567911	0.247944	0.196659
H493	H	0.908331	-0.385456	-0.463491
H494	H	1.241664	-0.052123	-0.130158
H495	H	1.574998	0.281211	0.203176
H496	H	0.909993	-0.428513	-0.520553
H497	H	1.243326	-0.095179	-0.187219
H498	H	1.576659	0.238154	0.146114
H499	H	1.057027	-0.218330	-0.871343
H500	H	1.390360	0.115003	-0.538009
H501	H	1.723694	0.448336	-0.204676
N502	N	1.142661	-0.775796	-0.248933
N503	N	1.475995	-0.442462	0.084401
N504	N	1.809328	-0.109129	0.417734
H505	H	1.172300	-0.797843	-0.221778
H506	H	1.505634	-0.464509	0.111556
H507	H	1.838967	-0.131176	0.444889
H508	H	1.173861	-0.757969	-0.278879
H509	H	1.507194	-0.424635	0.054454
H510	H	1.840527	-0.091302	0.387788
H511	H	0.867068	-0.866540	-0.501645
H512	H	1.200401	-0.533207	-0.168311
H513	H	1.533734	-0.199874	0.165022
