data_functionalizedCrystal
_audit_creation_method	'MofGen! by Chris Wilmer'
_symmetry_space_group_name_H-M	'P1'
_symmetry_Int_Tables_number	1
_symmetry_cell_setting	triclinic
loop_
_symmetry_equiv_pos_as_xyz
  x,y,z
_cell_length_a	10.654550
_cell_length_b	10.654541
_cell_length_c	9.130313
_cell_angle_alpha	89.995708
_cell_angle_beta	89.999724
_cell_angle_gamma	84.484430
loop_
_atom_site_label
_atom_site_type_symbol
_atom_site_fract_x
_atom_site_fract_y
_atom_site_fract_z
O1	O	1.667838	0.176399	-0.121689
O2	O	1.302359	0.193205	-0.121716
O3	O	1.493503	0.002063	-0.121693
O4	O	1.476694	0.367542	-0.121712
O5	O	1.493490	0.002057	0.121906
O6	O	1.302346	0.193200	0.121883
O7	O	1.667825	0.176393	0.121910
Cu8	Cu	1.485084	0.184796	0.144139
Cu9	Cu	1.485100	0.184803	-0.143945
O10	O	1.476681	0.367536	0.121887
C11	C	1.255555	0.191968	0.000080
C12	C	1.116112	0.188276	0.000070
C13	C	1.036625	0.300818	0.000068
C14	C	0.905604	0.297342	0.000094
C15	C	0.933569	0.068772	0.000117
C16	C	1.064588	0.072250	0.000102
C17	C	1.492263	-0.044738	0.000105
C18	C	1.488572	-0.184182	0.000103
C19	C	1.717137	-0.212153	0.000138
C20	C	1.829680	-0.291647	0.000158
C21	C	1.826204	-0.422665	0.000154
C22	C	1.710173	-0.474190	0.000124
C23	C	1.597630	-0.394696	0.000103
C24	C	1.601118	-0.263676	0.000113
C25	C	1.369069	-0.366725	0.000057
C26	C	1.372541	-0.235707	0.000073
C27	C	1.253037	-0.418251	0.000028
C28	C	1.140492	-0.338756	0.000018
C29	C	1.143972	-0.207731	0.000024
C30	C	1.259998	-0.156213	0.000052
C31	C	1.714629	0.177630	0.000110
C32	C	1.854072	0.181322	0.000111
C33	C	1.477921	0.414337	0.000085
C34	C	1.481612	0.553780	0.000078
N35	N	1.485082	0.184791	0.346761
N36	N	1.485111	0.184798	-0.346568
C37	C	1.569750	0.100189	0.423423
C38	C	1.569762	0.100189	0.576760
C39	C	1.400435	0.269404	0.576759
C40	C	1.400418	0.269397	0.423425
H41	H	1.129309	-0.019401	0.000107
C42	C	1.183665	0.341117	0.624009
C43	C	1.307380	0.362401	0.661040
H44	H	1.126219	0.398527	0.676048
H45	H	1.171543	0.353229	0.521731
H46	H	1.169328	0.257164	0.649160
H47	H	1.321720	0.446352	0.635879
H48	H	1.319508	0.350300	0.763341
H49	H	1.917847	-0.487390	0.000159
H50	H	1.638704	0.031297	0.639174
C51	C	1.784322	-0.032102	0.125400
C52	C	1.720961	-0.068136	0.000157
H53	H	1.786689	0.056808	0.125405
H54	H	1.741306	-0.056584	0.210317
H55	H	1.867951	-0.072079	0.125402
H56	H	1.637328	-0.028166	0.000160
H57	H	1.763975	-0.043641	-0.084783
C58	C	1.185795	-0.598323	0.125221
C59	C	1.249205	-0.562266	0.000016
H60	H	1.183421	-0.687232	0.125208
H61	H	1.228783	-0.573865	0.210165
H62	H	1.102169	-0.558340	0.125188
H63	H	1.332835	-0.602243	0.000055
H64	H	1.206219	-0.586738	-0.084949
C65	C	1.328541	0.486140	0.376176
C66	C	1.307348	0.362403	0.339146
H67	H	1.271088	0.543551	0.324137
H68	H	1.316429	0.498248	0.478454
H69	H	1.412475	0.500542	0.351024
H70	H	1.223416	0.347998	0.364308
H71	H	1.319449	0.350290	0.236845
H72	H	0.840891	0.388985	0.000095
C73	C	1.966209	-0.160508	-0.125022
C74	C	1.957215	-0.235002	0.000194
H75	H	2.044940	-0.125535	-0.124995
H76	H	1.960123	-0.211033	-0.209958
H77	H	1.899673	-0.094421	-0.125017
H78	H	2.023746	-0.301095	0.000183
H79	H	1.963314	-0.184474	0.085152
C80	C	0.944624	-0.355248	-0.125258
C81	C	1.012964	-0.395397	-0.000023
H82	H	0.865896	-0.390228	-0.125285
H83	H	0.930584	-0.265854	-0.125234
H84	H	0.991039	-0.382455	-0.210191
H85	H	0.966552	-0.368182	0.084909
H86	H	1.026999	-0.484811	-0.000034
C87	C	1.202753	0.039077	0.125279
C88	C	1.263830	-0.012197	0.000065
H89	H	1.205132	0.127985	0.125286
H90	H	1.117555	0.019778	0.125245
H91	H	1.244168	0.004253	0.210225
H92	H	1.222410	0.022620	-0.084882
H93	H	1.349044	0.007112	0.000085
H94	H	1.078571	0.395294	0.000053
H95	H	0.891602	-0.025693	0.000151
H96	H	1.707354	-0.580873	0.000102
C97	C	1.737111	-0.067083	0.438831
C98	C	1.662799	0.007179	0.339153
H99	H	1.794549	-0.124511	0.386806
H100	H	1.782743	-0.014381	0.498616
H101	H	1.684435	-0.112737	0.498657
H102	H	1.715475	0.052840	0.279334
H103	H	1.617164	-0.045529	0.279343
H104	H	1.052325	-0.143012	0.000001
