data_functionalizedCrystal
_audit_creation_method	'MofGen! by Chris Wilmer'
_symmetry_space_group_name_H-M	'P1'
_symmetry_Int_Tables_number	1
_symmetry_cell_setting	triclinic
loop_
_symmetry_equiv_pos_as_xyz
  x,y,z
_cell_length_a	10.654550
_cell_length_b	10.654559
_cell_length_c	9.730223
_cell_angle_alpha	90.001770
_cell_angle_beta	90.003749
_cell_angle_gamma	84.486774
loop_
_atom_site_label
_atom_site_type_symbol
_atom_site_fract_x
_atom_site_fract_y
_atom_site_fract_z
O1	O	-1.667840	-0.176392	-0.114405
O2	O	-1.302362	-0.193199	-0.114383
O3	O	-1.493498	-0.002057	-0.114383
O4	O	-1.476704	-0.367534	-0.114404
O5	O	-1.493496	-0.002062	0.114196
O6	O	-1.302360	-0.193203	0.114197
O7	O	-1.667838	-0.176397	0.114175
Zn8	Zn	-1.485098	-0.184801	0.150478
Zn9	Zn	-1.485101	-0.184795	-0.150686
O10	O	-1.476702	-0.367539	0.114176
C11	C	-1.255563	-0.191967	-0.000090
C12	C	-1.116119	-0.188275	-0.000081
N13	N	-1.485105	-0.184805	0.356015
C14	C	-1.492261	0.044738	-0.000094
C15	C	-1.488565	0.184181	-0.000094
C16	C	-1.714637	-0.177629	-0.000120
C17	C	-1.854080	-0.181321	-0.000138
C18	C	-1.036637	-0.300816	-0.000107
C19	C	-0.905616	-0.297340	-0.000131
C20	C	-0.933572	-0.068771	-0.000108
C21	C	-1.064591	-0.072249	-0.000074
C22	C	-1.020496	-0.432779	-0.000127
C23	C	-0.889475	-0.429302	-0.000150
C24	C	-1.477938	-0.414334	-0.000117
C25	C	-1.481635	-0.553777	-0.000125
C26	C	-1.483365	0.380701	-0.124717
C27	C	-1.486835	0.249679	-0.124703
C28	C	-1.486838	0.249713	0.124508
C29	C	-1.483377	0.380733	0.124492
C30	C	-1.483357	0.380680	-0.268597
C31	C	-1.486827	0.249658	-0.268582
N32	N	-1.485104	-0.184781	-0.356222
C33	C	-1.569762	-0.100196	0.427940
C34	C	-1.569759	-0.100181	0.571823
C35	C	-1.400438	-0.269394	0.571842
C36	C	-1.400436	-0.269402	0.427962
C37	C	-1.667523	-0.002506	0.427931
C38	C	-1.667519	-0.002491	0.571814
H39	H	-0.891601	0.025694	-0.000123
H40	H	-1.488259	0.196375	0.225966
N41	N	-1.639112	0.125353	0.376192
H42	H	-1.711921	0.163329	0.318515
H43	H	-1.626403	0.182319	0.456954
H44	H	-1.049828	-0.484391	0.095536
N45	N	-0.834192	-0.495133	-0.126885
H46	H	-0.739667	-0.492653	-0.126951
H47	H	-0.854785	-0.585703	-0.126878
N48	N	-1.371864	0.188308	-0.341718
H49	H	-1.370967	0.219760	-0.439598
H50	H	-1.293327	0.210293	-0.292715
H51	H	-1.056154	-0.474795	-0.098816
N52	N	-0.828951	-0.482140	0.130544
H53	H	-0.783764	-0.414992	0.177679
H54	H	-0.896139	-0.510238	0.193621
N55	N	-1.795347	-0.031004	0.623551
H56	H	-1.833384	0.041782	0.681216
H57	H	-1.852298	-0.043771	0.542788
N58	N	-1.481538	0.451410	0.258872
H59	H	-1.483166	0.390038	0.337813
H60	H	-1.402386	0.496280	0.264313
H61	H	-1.570150	0.426947	-0.323855
N62	N	-1.309126	-0.360659	0.350387
H63	H	-1.321969	-0.347830	0.248321
H64	H	-1.219912	-0.345311	0.375543
N65	N	-1.788301	-0.043014	0.368786
H66	H	-1.800049	-0.131292	0.400812
H67	H	-1.861812	0.016731	0.400819
H68	H	-1.129301	0.019393	-0.000033
N69	N	-1.309128	-0.360634	0.649454
H70	H	-1.324359	-0.449911	0.624421
H71	H	-1.219912	-0.345227	0.624386
N72	N	-1.362026	0.419868	-0.327700
H73	H	-1.305949	0.342434	-0.356250
H74	H	-1.381535	0.475649	-0.410386
H75	H	-1.637003	0.088732	0.616436
H76	H	-1.578424	0.220077	-0.313234
