data_functionalizedCrystal
_audit_creation_method	'MofGen! by Chris Wilmer'
_symmetry_space_group_name_H-M	'P1'
_symmetry_Int_Tables_number	1
_symmetry_cell_setting	triclinic
loop_
_symmetry_equiv_pos_as_xyz
  x,y,z
_cell_length_a	10.489711
_cell_length_b	23.532357
_cell_length_c	9.565339
_cell_angle_alpha	89.994707
_cell_angle_beta	89.994873
_cell_angle_gamma	83.677650
loop_
_atom_site_label
_atom_site_type_symbol
_atom_site_fract_x
_atom_site_fract_y
_atom_site_fract_z
O1	O	1.691374	0.080261	-0.116330
O2	O	1.319920	0.087821	-0.116323
O3	O	1.516881	0.001181	-0.116298
O4	O	1.494413	0.166901	-0.116355
O5	O	1.516866	0.001186	0.116222
O6	O	1.319904	0.087826	0.116197
O7	O	1.691359	0.080267	0.116191
Zn8	Zn	1.505629	0.084047	0.153111
Zn9	Zn	1.505649	0.084040	-0.153244
O10	O	1.494397	0.166906	0.116165
C11	C	1.272399	0.087256	-0.000062
C12	C	1.130824	0.085559	-0.000058
C13	C	0.946685	0.137661	-0.000092
C14	C	1.039714	0.111632	-0.114725
C15	C	1.039672	0.111624	0.114521
C16	C	0.971618	0.056477	-0.114815
C17	C	0.971567	0.056476	0.114535
C18	C	1.064570	0.030408	-0.000127
C19	C	1.516312	-0.020036	-0.000033
C20	C	1.514622	-0.083266	-0.000020
C21	C	1.504023	-0.475350	-0.126842
C22	C	1.502416	-0.534760	-0.126850
O23	O	1.501549	-0.565485	-0.234643
N24	N	1.501611	-0.564474	-0.000105
C25	C	1.502400	-0.534773	0.126656
O26	O	1.501566	-0.565502	0.234462
C27	C	1.503997	-0.475364	0.126663
C28	C	1.504815	-0.445654	-0.000091
C29	C	1.504839	-0.445640	-0.253585
C30	C	1.506448	-0.386235	-0.253577
C31	C	1.507240	-0.356539	-0.126825
C32	C	1.506423	-0.386248	-0.000082
C33	C	1.504776	-0.445664	0.253422
C34	C	1.506372	-0.386251	0.253418
C35	C	1.507190	-0.356541	0.126665
C36	C	1.508824	-0.297147	0.126678
N37	N	1.509629	-0.267433	-0.000067
C38	C	1.508837	-0.297129	-0.126819
C39	C	1.499043	-0.659537	0.126633
C40	C	1.497456	-0.718946	0.126628
C41	C	1.497470	-0.718928	-0.126879
C42	C	1.499067	-0.659519	-0.126872
C43	C	1.499848	-0.629824	-0.000112
C44	C	1.512216	-0.172373	-0.126791
C45	C	1.513830	-0.112962	-0.126772
C46	C	1.513809	-0.112984	0.126734
C47	C	1.512202	-0.172390	0.126715
C48	C	1.511401	-0.202083	-0.000059
O49	O	1.509686	-0.266384	0.234416
O50	O	1.509653	-0.266392	-0.234606
C51	C	1.738880	0.080831	-0.000074
C52	C	1.880454	0.082529	-0.000087
C53	C	1.494967	0.188124	-0.000102
C54	C	1.496657	0.251353	-0.000125
N55	N	1.505624	0.084052	0.362191
N56	N	1.505664	0.084031	-0.362323
C57	C	1.414509	0.124106	0.453382
C58	C	1.529620	0.135624	0.546554
C59	C	1.390563	0.072539	0.546574
C60	C	1.620793	0.095595	0.453311
C61	C	1.481661	0.032488	0.453323
C62	C	1.596855	0.043983	0.546453
H63	H	1.069836	0.134963	0.211436
H64	H	1.511558	-0.196541	-0.230023
N65	N	1.454739	-0.025242	0.399010
H66	H	1.522662	-0.055600	0.434341
H67	H	1.367710	-0.033846	0.432883
N68	N	1.079728	0.142535	-0.243112
H69	H	1.175849	0.143151	-0.242622
H70	H	1.053666	0.122096	-0.329628
N71	N	1.556510	0.193367	0.600828
H72	H	1.642760	0.202368	0.565444
H73	H	1.487553	0.223571	0.566977
N74	N	1.507232	-0.354221	0.390137
H75	H	1.428824	-0.325271	0.395795
H76	H	1.506521	-0.382097	0.470348
H77	H	1.674010	0.010100	0.587061
H78	H	1.514459	-0.088795	0.229932
N79	N	0.931501	0.025600	0.242928
H80	H	0.955953	0.046462	0.329482
H81	H	0.835582	0.024345	0.241348
H82	H	1.511547	-0.196582	0.229928
H83	H	1.718135	0.105376	0.412517
N84	N	1.261658	0.059649	0.600853
H85	H	1.192890	0.089940	0.567000
H86	H	1.242945	0.020991	0.565476
N87	N	0.878822	0.197680	-0.000267
H88	H	0.823931	0.203740	0.086345
H89	H	0.944409	0.226042	-0.001280
H90	H	1.337525	0.158010	0.412517
N91	N	0.931874	0.025598	-0.243335
H92	H	0.835852	0.024638	-0.242575
H93	H	0.957316	0.046283	-0.329756
N94	N	1.504018	-0.477675	-0.390293
H95	H	1.582442	-0.506617	-0.395909
H96	H	1.424240	-0.497997	-0.395884
H97	H	1.514499	-0.088775	-0.229994
H98	H	1.507109	-0.362050	-0.356792
N99	N	1.132099	-0.029672	-0.000160
H100	H	1.107378	-0.050418	-0.086781
H101	H	1.227939	-0.028146	0.000725
H102	H	1.496821	-0.743117	-0.230087
N103	N	1.499919	-0.627457	-0.263556
H104	H	1.578713	-0.642079	-0.318997
H105	H	1.420510	-0.633502	-0.318851
N106	N	1.496601	-0.750988	0.263339
H107	H	1.497349	-0.723156	0.343629
H108	H	1.416857	-0.771337	0.268869
H109	H	1.499684	-0.635363	0.229863
N110	N	1.503896	-0.477699	0.390136
H111	H	1.504633	-0.449863	0.470420
H112	H	1.424151	-0.498047	0.395658
