data_functionalizedCrystal
_audit_creation_method	'MofGen! by Chris Wilmer'
_symmetry_space_group_name_H-M	'P1'
_symmetry_Int_Tables_number	1
_symmetry_cell_setting	triclinic
loop_
_symmetry_equiv_pos_as_xyz
  x,y,z
_cell_length_a	13.033293
_cell_length_b	21.295418
_cell_length_c	13.032268
_cell_angle_alpha	97.142714
_cell_angle_beta	89.079182
_cell_angle_gamma	97.196479
loop_
_atom_site_label
_atom_site_type_symbol
_atom_site_fract_x
_atom_site_fract_y
_atom_site_fract_z
Zn1	Zn	1.498411	-0.195846	-0.781450
Zn2	Zn	1.520130	-0.286309	-0.609462
Zn3	Zn	1.348272	-0.192522	-0.587626
Zn4	Zn	1.326374	-0.312551	-0.759498
O5	O	1.423297	-0.246807	-0.684509
O6	O	1.645213	-0.198255	-0.776961
O7	O	1.515586	-0.261494	-0.462659
O8	O	1.368263	-0.104871	-0.613386
O9	O	1.661170	-0.264718	-0.650602
O10	O	1.478569	-0.107314	-0.755788
O11	O	1.389323	-0.192589	-0.446617
O12	O	1.201446	-0.218035	-0.592100
O13	O	1.330941	-0.309443	-0.906316
O14	O	1.185357	-0.306220	-0.718373
O15	O	1.457336	-0.223701	-0.922445
O16	O	1.494353	-0.377881	-0.629316
O17	O	1.352001	-0.397161	-0.739547
C18	C	1.156084	-0.264615	-0.650486
C19	C	1.041767	-0.272250	-0.635955
C20	C	0.982893	-0.242838	-0.692093
C21	C	0.864739	-0.250729	-0.677076
C22	C	1.423182	-0.410362	-0.684445
C23	C	1.423223	-0.480329	-0.684464
C24	C	1.497645	-0.969722	-0.627309
C25	C	1.497609	-0.903980	-0.627280
C26	C	1.423432	-0.881162	-0.684600
C27	C	1.349270	-0.924092	-0.741932
C28	C	1.349302	-0.989833	-0.741951
N29	N	1.404001	-0.786196	-0.773566
N30	N	1.403978	-0.723745	-0.773545
C31	C	1.423331	-0.683091	-0.684543
N32	N	1.442729	-0.707247	-0.595563
N33	N	1.442758	-0.769703	-0.595585
C34	C	1.423389	-0.809879	-0.684585
C35	C	1.497445	-0.568885	-0.627177
C36	C	1.497402	-0.503142	-0.627145
C37	C	1.349067	-0.523256	-0.741806
C38	C	1.349106	-0.588997	-0.741829
C39	C	1.423300	-0.611807	-0.684516
C40	C	1.691552	-0.228930	-0.718666
C41	C	1.805867	-0.221312	-0.733222
C42	C	1.389273	-0.269870	-0.952737
C43	C	1.374774	-0.279698	-1.067040
C44	C	1.423436	-0.082613	-0.684600
C45	C	1.423496	-0.012643	-0.684639
C46	C	1.430848	-0.241656	-1.125980
C47	C	1.415864	-0.251813	-1.244118
C48	C	1.457247	-0.223784	-0.417332
C49	C	1.471945	-0.213766	-0.303056
H50	H	0.827676	-0.281752	-0.617890
H51	H	1.288872	-0.905511	-0.788600
Cl52	Cl	0.863081	-0.173405	-0.824590
H53	H	1.531044	-0.173671	-1.266060
H54	H	1.489944	-0.201566	-1.088978
H55	H	1.004699	-0.303272	-0.576773
H56	H	1.356753	-0.291900	-1.281113
Cl57	Cl	1.283520	-0.341591	-1.124156
H58	H	1.558057	-0.988290	-0.580637
Cl59	Cl	1.040114	-0.194937	-0.783462
Cl60	Cl	1.256080	-1.043793	-0.814032
Cl61	Cl	1.590828	-0.850013	-0.555198
Cl62	Cl	1.590709	-0.597564	-0.555121
H63	H	1.557780	-0.468194	-0.580454
H64	H	1.288667	-0.504678	-0.788472
H65	H	1.288728	-0.623944	-0.788516
