data_functionalizedCrystal
_audit_creation_method	'MofGen! by Chris Wilmer'
_symmetry_space_group_name_H-M	'P1'
_symmetry_Int_Tables_number	1
_symmetry_cell_setting	triclinic
loop_
_symmetry_equiv_pos_as_xyz
  x,y,z
_cell_length_a	10.654562
_cell_length_b	14.519731
_cell_length_c	9.730223
_cell_angle_alpha	89.997677
_cell_angle_beta	89.996961
_cell_angle_gamma	84.089478
loop_
_atom_site_label
_atom_site_type_symbol
_atom_site_fract_x
_atom_site_fract_y
_atom_site_fract_z
O1	O	1.666592	0.129583	-0.114384
O2	O	1.300999	0.141911	-0.114367
O3	O	1.493475	0.001560	-0.114363
O4	O	1.474116	0.269934	-0.114387
O5	O	1.493472	0.001564	0.114217
O6	O	1.300996	0.141915	0.114213
O7	O	1.666590	0.129586	0.114196
Zn8	Zn	1.483793	0.135751	0.150497
Zn9	Zn	1.483796	0.135747	-0.150667
O10	O	1.474114	0.269937	0.114193
C11	C	1.254208	0.141006	-0.000075
C12	C	1.114792	0.138290	-0.000068
C13	C	1.049272	0.137025	0.124520
C14	C	0.918274	0.134481	0.124498
C15	C	0.918326	0.134470	-0.124713
C16	C	1.049323	0.137008	-0.124689
C17	C	1.049240	0.137035	0.268400
C18	C	0.918242	0.134491	0.268378
C19	C	1.492566	-0.032802	-0.000073
C20	C	1.489848	-0.135196	-0.000072
C21	C	1.487640	-0.218352	-0.000075
C22	C	1.484880	-0.322675	-0.000085
C23	C	1.482690	-0.405826	-0.000094
C24	C	1.479930	-0.510155	-0.000102
C25	C	1.713380	0.130492	-0.000099
C26	C	1.852797	0.133208	-0.000115
C27	C	1.475022	0.304300	-0.000101
C28	C	1.477740	0.406694	-0.000111
N29	N	1.483800	0.135754	0.356033
N30	N	1.483799	0.135737	-0.356204
C31	C	1.569050	0.073628	0.427961
C32	C	1.569047	0.073616	0.571844
C33	C	1.398539	0.197866	0.571859
C34	C	1.398537	0.197872	0.427978
C35	C	1.667495	0.001896	0.427953
C36	C	1.667492	0.001885	0.571836
H37	H	0.871349	0.198227	0.323607
H38	H	1.763853	0.017689	0.610881
H39	H	1.102667	0.138023	-0.226140
H40	H	1.646727	-0.068989	0.388907
O41	O	1.627979	-0.086858	0.630966
H42	H	1.607032	-0.133899	0.545957
H43	H	0.865006	0.133426	-0.226174
H44	H	1.096105	0.073303	0.323659
H45	H	0.889293	0.067233	0.313029
O46	O	1.087589	0.226111	0.327567
H47	H	1.001981	0.271283	0.358918
O48	O	1.306584	0.264874	0.350392
H49	H	1.247308	0.308070	0.424596
H50	H	1.329120	0.248440	0.630452
H51	H	1.758465	0.024360	0.383321
