data_functionalizedCrystal
_audit_creation_method	'MofGen! by Chris Wilmer'
_symmetry_space_group_name_H-M	'P1'
_symmetry_Int_Tables_number	1
_symmetry_cell_setting	triclinic
loop_
_symmetry_equiv_pos_as_xyz
  x,y,z
_cell_length_a	23.532356
_cell_length_b	23.532361
_cell_length_c	13.101039
_cell_angle_alpha	86.668482
_cell_angle_beta	86.651409
_cell_angle_gamma	97.171287
loop_
_atom_site_label
_atom_site_type_symbol
_atom_site_fract_x
_atom_site_fract_y
_atom_site_fract_z
O1	O	-0.065853	0.758411	-0.085095
O2	O	-0.075883	0.592543	-0.085117
O3	O	0.012067	0.680494	-0.085120
O4	O	-0.153803	0.670459	-0.085092
O5	O	0.005746	0.674184	0.085310
O6	O	-0.082204	0.586232	0.085313
O7	O	-0.072174	0.752101	0.085335
Zn8	Zn	-0.078192	0.668165	0.112384
Zn9	Zn	-0.069865	0.676479	-0.112165
O10	O	-0.160124	0.664149	0.085338
C11	C	-0.078792	0.568171	0.000095
C12	C	-0.078037	0.504953	0.000086
C13	C	-0.071288	0.235150	-0.092810
C14	C	-0.072003	0.294549	-0.092813
O15	O	-0.069423	0.328201	-0.171820
N16	N	-0.075810	0.320815	0.000089
C17	C	-0.078896	0.287679	0.093000
O18	O	-0.082199	0.315474	0.172020
C19	C	-0.078177	0.228281	0.093001
C20	C	-0.074376	0.202017	0.000093
C21	C	-0.067487	0.208886	-0.185710
C22	C	-0.066773	0.149491	-0.185708
C23	C	-0.069861	0.116358	-0.092805
C24	C	-0.073662	0.142622	0.000096
C25	C	-0.081259	0.195146	0.185910
C26	C	-0.080539	0.135744	0.185904
C27	C	-0.076738	0.109481	0.092996
C28	C	-0.076036	0.050094	0.093002
N29	N	-0.072229	0.023828	0.000100
C30	C	-0.069142	0.056960	-0.092803
C31	C	-0.080404	0.412419	0.092990
C32	C	-0.081127	0.471815	0.092990
C33	C	-0.074234	0.478682	-0.092823
C34	C	-0.073515	0.419284	-0.092822
C35	C	-0.076598	0.386153	0.000088
C36	C	-0.067644	-0.067776	-0.092790
C37	C	-0.066932	-0.127177	-0.092779
C38	C	-0.073823	-0.134038	0.093033
C39	C	-0.074537	-0.074642	0.093022
C40	C	-0.071445	-0.041512	0.000102
O41	O	-0.078612	0.016407	0.171969
O42	O	-0.065832	0.029158	-0.171810
C43	C	-0.178180	0.667555	0.000127
C44	C	-0.241399	0.668309	0.000138
C45	C	-0.629965	0.676488	-0.092813
C46	C	-0.689364	0.677206	-0.092817
O47	O	-0.717153	0.680522	-0.171826
N48	N	-0.722518	0.674122	0.000083
C49	C	-0.696269	0.670326	0.092995
O50	O	-0.729923	0.667769	0.172013
C51	C	-0.636870	0.669612	0.092999
C52	C	-0.603720	0.672691	0.000092
C53	C	-0.596815	0.679567	-0.185712
C54	C	-0.537420	0.678849	-0.185706
C55	C	-0.511175	0.675051	-0.092802
C56	C	-0.544325	0.671972	0.000097
C57	C	-0.610622	0.665820	0.185909
C58	C	-0.551219	0.665107	0.185905
C59	C	-0.518069	0.668186	0.092998
C60	C	-0.458686	0.667456	0.093007
N61	N	-0.425532	0.670540	0.000106
C62	C	-0.451777	0.674338	-0.092798
C63	C	-0.821010	0.671825	0.092980
C64	C	-0.880408	0.672534	0.092977
C65	C	-0.873499	0.679416	-0.092836
C66	C	-0.814100	0.678702	-0.092832
C67	C	-0.787856	0.674909	0.000079
C68	C	-0.327044	0.672828	-0.092780
C69	C	-0.267644	0.672106	-0.092767
C70	C	-0.274558	0.665228	0.093045
C71	C	-0.333953	0.665946	0.093032
C72	C	-0.360193	0.669748	0.000111
O73	O	-0.430858	0.664144	0.171975
O74	O	-0.418115	0.676901	-0.171804
C75	C	0.030123	0.677089	0.000089
C76	C	0.093342	0.676335	0.000072
C77	C	-0.069265	0.776472	0.000121
C78	C	-0.070020	0.839690	0.000124
N79	N	-0.083876	0.662494	0.265632
N80	N	-0.064177	0.682154	-0.265414
C81	C	-0.091613	0.654780	0.474675
C82	C	-0.056442	0.689866	0.525550
C83	C	-0.060747	0.685574	0.641868
C84	C	-0.087309	0.659072	0.358346
H85	H	-0.063839	-0.148558	-0.168439
F86	F	-0.135195	0.611307	0.531924
H87	H	-0.084232	0.493192	0.168645
H88	H	-0.253179	0.662134	0.168686
H89	H	-0.637602	0.663319	0.261564
F90	F	-0.793085	0.667782	0.191875
F91	F	-0.064353	-0.032524	-0.191686
H92	H	-0.063675	0.128113	-0.261363
F93	F	-0.064199	0.244140	-0.284600
H94	H	-0.023098	0.723129	0.481746
H95	H	-0.070419	0.397905	-0.168476
H96	H	-0.071719	0.505670	-0.168470
F97	F	-0.083693	0.377162	0.191884
F98	F	-0.502146	0.682130	-0.284591
F99	F	-0.085304	0.223084	0.284798
F100	F	-0.523292	0.661072	0.284796
F101	F	-0.083817	0.100488	0.284794
H102	H	-0.077644	-0.053259	0.168675
F103	F	-0.077111	-0.169311	0.191902
F104	F	-0.354962	0.676874	-0.191677
F105	F	-0.232366	0.675382	-0.191655
F106	F	-0.624737	0.683610	-0.284602
F107	F	-0.915684	0.669245	0.191861
F108	F	-0.778824	0.681980	-0.191715
H109	H	-0.894878	0.682506	-0.168484
H110	H	-0.360948	0.663417	0.168685
