data_functionalizedCrystal
_audit_creation_method	'MofGen! by Chris Wilmer'
_symmetry_space_group_name_H-M	'P1'
_symmetry_Int_Tables_number	1
_symmetry_cell_setting	triclinic
loop_
_symmetry_equiv_pos_as_xyz
  x,y,z
_cell_length_a	18.215407
_cell_length_b	18.101397
_cell_length_c	18.215399
_cell_angle_alpha	90.031052
_cell_angle_beta	90.016885
_cell_angle_gamma	90.017909
loop_
_atom_site_label
_atom_site_type_symbol
_atom_site_fract_x
_atom_site_fract_y
_atom_site_fract_z
Zn1	Zn	1.125091	-0.294885	0.416054
Zn2	Zn	1.458424	0.038449	0.749387
Zn3	Zn	1.791758	0.371782	1.082720
Zn4	Zn	1.125010	-0.418732	0.292982
Zn5	Zn	1.458343	-0.085399	0.626315
Zn6	Zn	1.791677	0.247935	0.959648
Zn7	Zn	1.002025	-0.294903	0.293006
Zn8	Zn	1.335358	0.038430	0.626340
Zn9	Zn	1.668691	0.371763	0.959673
Zn10	Zn	1.001999	-0.418683	0.416012
Zn11	Zn	1.335332	-0.085350	0.749345
Zn12	Zn	1.668666	0.247983	1.082679
O13	O	1.063531	-0.356801	0.354513
O14	O	1.396864	-0.023467	0.687847
O15	O	1.730198	0.309866	1.021180
O16	O	1.228065	-0.311326	0.399735
O17	O	1.561398	0.022008	0.733068
O18	O	1.894731	0.355341	1.066402
O19	O	1.108672	-0.402334	0.190001
O20	O	1.442006	-0.069001	0.523334
O21	O	1.775339	0.264333	0.856667
O22	O	1.018394	-0.191268	0.309357
O23	O	1.351728	0.142065	0.642690
O24	O	1.685061	0.475399	0.976023
O25	O	1.228005	-0.402316	0.309315
O26	O	1.561338	-0.068983	0.642648
O27	O	1.894672	0.264351	0.975981
O28	O	1.108811	-0.191254	0.399759
O29	O	1.442144	0.142079	0.733092
O30	O	1.775477	0.475412	1.066426
O31	O	1.018316	-0.311358	0.190019
O32	O	1.351649	0.021976	0.523352
O33	O	1.684982	0.355309	0.856685
O34	O	0.899037	-0.311310	0.309316
O35	O	1.232370	0.022023	0.642649
O36	O	1.565704	0.355356	0.975983
O37	O	1.018351	-0.402233	0.519002
O38	O	1.351684	-0.068900	0.852335
O39	O	1.685017	0.264434	1.185668
O40	O	0.899018	-0.402251	0.399688
O41	O	1.232351	-0.068918	0.733021
O42	O	1.565685	0.264416	1.066354
O43	O	1.108786	-0.311279	0.519032
O44	O	1.442119	0.022055	0.852366
O45	O	1.775452	0.355388	1.185699
O46	O	1.108648	-0.522358	0.309274
O47	O	1.441981	-0.189025	0.642607
O48	O	1.775314	0.144308	0.975941
O49	O	1.018272	-0.522323	0.399664
O50	O	1.351605	-0.188989	0.732997
O51	O	1.684939	0.144344	1.066330
C52	C	0.872325	-0.356778	0.354501
C53	C	1.205658	-0.023445	0.687834
C54	C	1.538992	0.309889	1.021167
C55	C	0.790526	-0.356786	0.354512
C56	C	1.123859	-0.023453	0.687846
C57	C	1.457193	0.309881	1.021179
C58	C	0.602362	-0.309505	0.401669
C59	C	0.935695	0.023828	0.735002
C60	C	1.269029	0.357162	1.068335
C61	C	0.525503	-0.309511	0.401671
C62	C	0.858837	0.023822	0.735005
C63	C	1.192170	0.357155	1.068338
C64	C	0.525452	-0.404117	0.307371
C65	C	0.858786	-0.070784	0.640704
C66	C	1.192119	0.262549	0.974038
C67	C	0.602310	-0.404107	0.307365
C68	C	0.935643	-0.070773	0.640699
C69	C	1.268976	0.262560	0.974032
C70	C	0.640762	-0.356802	0.354518
C71	C	0.974096	-0.023468	0.687852
C72	C	1.307429	0.309865	1.021185
C73	C	0.487046	-0.356819	0.354527
C74	C	0.820380	-0.023485	0.687860
C75	C	1.153713	0.309848	1.021193
C76	C	0.403713	-0.356826	0.354529
C77	C	0.737046	-0.023493	0.687862
C78	C	1.070379	0.309841	1.021196
C79	C	0.724101	-0.356793	0.354515
C80	C	1.057435	-0.023460	0.687849
C81	C	1.390768	0.309873	1.021182
C82	C	1.063468	-0.549211	0.354478
C83	C	1.396801	-0.215878	0.687811
C84	C	1.730135	0.117455	1.021144
C85	C	1.063509	-0.631525	0.354487
C86	C	1.396842	-0.298192	0.687820
C87	C	1.730175	0.035141	1.021154
C88	C	1.063602	-0.930616	0.354554
C89	C	1.396936	-0.597283	0.687888
C90	C	1.730269	-0.263950	1.021221
C91	C	1.120306	-0.899283	0.297531
C92	C	1.453639	-0.565949	0.630864
C93	C	1.786972	-0.232616	0.964198
C94	C	1.120502	-0.813664	0.297679
C95	C	1.453836	-0.480331	0.631012
C96	C	1.787169	-0.146998	0.964346
C97	C	1.063556	-0.782234	0.354520
C98	C	1.396889	-0.448901	0.687854
C99	C	1.730223	-0.115567	1.021187
C100	C	1.084580	-0.813241	0.432092
C101	C	1.417913	-0.479908	0.765425
C102	C	1.751246	-0.146575	1.098758
C103	C	1.085018	-0.898886	0.431781
C104	C	1.418352	-0.565553	0.765114
C105	C	1.751685	-0.232220	1.098448
C106	C	0.985724	-0.899122	0.334677
C107	C	1.319057	-0.565789	0.668011
C108	C	1.652391	-0.232455	1.001344
C109	C	0.986109	-0.813473	0.332946
C110	C	1.319442	-0.480139	0.666279
C111	C	1.652775	-0.146806	0.999613
C112	C	1.063528	-0.698374	0.354506
C113	C	1.396862	-0.365041	0.687839
C114	C	1.730195	-0.031708	1.021173
C115	C	1.063632	-1.014476	0.354574
C116	C	1.396965	-0.681142	0.687907
C117	C	1.730299	-0.347809	1.021241
C118	C	1.255484	-0.356824	0.354527
C119	C	1.588817	-0.023491	0.687860
C120	C	1.922151	0.309842	1.021193
C121	C	1.337283	-0.356834	0.354532
C122	C	1.670616	-0.023501	0.687866
C123	C	2.003950	0.309833	1.021199
C124	C	1.063574	-0.356748	0.546466
C125	C	1.396908	-0.023415	0.879800
C126	C	1.730241	0.309918	1.213133
C127	C	1.063593	-0.356726	0.628265
C128	C	1.396926	-0.023393	0.961599
C129	C	1.730259	0.309941	1.294932
C130	C	1.063614	-0.163639	0.354565
C131	C	1.396948	0.169694	0.687899
C132	C	1.730281	0.503028	1.021232
C133	C	1.063650	-0.081325	0.354587
C134	C	1.396983	0.252009	0.687921
C135	C	1.730317	0.585342	1.021254
C136	C	1.063530	-0.356800	0.163307
C137	C	1.396864	-0.023466	0.496641
C138	C	1.730197	0.309867	0.829974
C139	C	1.063655	-0.356613	0.081509
C140	C	1.396988	-0.023280	0.414842
C141	C	1.730321	0.310053	0.748175
C142	C	1.110710	-0.309302	0.893340
C143	C	1.444043	0.024031	1.226674
C144	C	1.777376	0.357365	1.560007
C145	C	1.110701	-0.309322	0.816481
C146	C	1.444034	0.024011	1.149815
C147	C	1.777368	0.357344	1.483148
C148	C	1.016536	-0.404042	0.816439
C149	C	1.349869	-0.070709	1.149772
C150	C	1.683202	0.262624	1.483106
C151	C	1.016549	-0.404026	0.893297
C152	C	1.349882	-0.070692	1.226630
C153	C	1.683215	0.262641	1.559963
C154	C	1.063634	-0.356651	0.931745
C155	C	1.396968	-0.023318	1.265078
C156	C	1.730301	0.310015	1.598412
C157	C	1.063613	-0.356688	0.778029
C158	C	1.396946	-0.023355	1.111362
C159	C	1.730280	0.309979	1.444696
C160	C	1.063603	-0.356710	0.694695
C161	C	1.396936	-0.023377	1.028029
C162	C	1.730270	0.309956	1.361362
C163	C	1.063645	-0.356630	1.015084
C164	C	1.396979	-0.023297	1.348417
C165	C	1.730312	0.310037	1.681751
H166	H	1.107349	-0.792703	0.240161
H167	H	1.440683	-0.459369	0.573494
H168	H	1.774016	-0.126036	0.906827
Br169	Br	1.179897	-0.932094	0.459844
Br170	Br	1.513231	-0.598761	0.793177
Br171	Br	1.846564	-0.265428	1.126511
Br172	Br	0.915307	-0.932895	0.403899
Br173	Br	1.248640	-0.599562	0.737232
Br174	Br	1.581973	-0.266229	1.070565
H175	H	1.149035	-0.270767	0.785216
H176	H	1.482368	0.062567	1.118549
H177	H	1.815701	0.395900	1.451882
H178	H	1.149049	-0.270726	0.924643
H179	H	1.482383	0.062607	1.257976
H180	H	1.815716	0.395940	1.591310
Br181	Br	0.952633	-0.468329	0.764254
Br182	Br	1.285966	-0.134995	1.097588
Br183	Br	1.619299	0.198338	1.430921
Br184	Br	0.654546	-0.245304	0.465660
Br185	Br	0.987879	0.088029	0.798993
Br186	Br	1.321213	0.421363	1.132326
H187	H	0.978214	-0.442587	0.924567
H188	H	1.311547	-0.109254	1.257900
H189	H	1.644881	0.224080	1.591233
H190	H	0.494241	-0.270997	0.440065
H191	H	0.827574	0.062337	0.773398
H192	H	1.160908	0.395670	1.106731
H193	H	0.970256	-0.793214	0.275860
H194	H	1.303590	-0.459880	0.609193
H195	H	1.636923	-0.126547	0.942526
Br196	Br	1.017843	-0.779319	0.504812
Br197	Br	1.351176	-0.445986	0.838145
Br198	Br	1.684510	-0.112652	1.171479
Br199	Br	0.911900	-0.777827	0.397100
Br200	Br	1.245233	-0.444493	0.730433
Br201	Br	1.578566	-0.111160	1.063767
Br202	Br	0.473262	-0.468315	0.243382
Br203	Br	0.806595	-0.134982	0.576715
Br204	Br	1.139928	0.198352	0.910049
Br205	Br	1.098655	-0.933691	0.201372
Br206	Br	1.431988	-0.600358	0.534706
Br207	Br	1.765321	-0.267025	0.868039
Br208	Br	0.654429	-0.468289	0.243360
Br209	Br	0.987763	-0.134956	0.576694
Br210	Br	1.321096	0.198377	0.910027
H211	H	1.178190	-0.793123	0.310830
H212	H	1.511523	-0.459790	0.644163
H213	H	1.844857	-0.126457	0.977497
Br214	Br	1.215933	-0.935064	0.319195
Br215	Br	1.549267	-0.601731	0.652528
Br216	Br	1.882600	-0.268398	0.985862
H217	H	1.045527	-0.919611	0.475732
H218	H	1.378861	-0.586278	0.809065
H219	H	1.712194	-0.252944	1.142398
Br220	Br	1.178397	-0.777401	0.460634
Br221	Br	1.511730	-0.444068	0.793967
Br222	Br	1.845064	-0.110734	1.127301
H223	H	0.966598	-0.920782	0.279094
H224	H	1.299931	-0.587449	0.612427
H225	H	1.633265	-0.254115	0.945760
