data_functionalizedCrystal
_audit_creation_method	'MofGen! by Chris Wilmer'
_symmetry_space_group_name_H-M	'P1'
_symmetry_Int_Tables_number	1
_symmetry_cell_setting	triclinic
loop_
_symmetry_equiv_pos_as_xyz
  x,y,z
_cell_length_a	16.974848
_cell_length_b	16.053802
_cell_length_c	16.992700
_cell_angle_alpha	87.265839
_cell_angle_beta	92.973892
_cell_angle_gamma	83.770402
loop_
_atom_site_label
_atom_site_type_symbol
_atom_site_fract_x
_atom_site_fract_y
_atom_site_fract_z
O1	O	-1.061818	0.141197	0.093264
O2	O	-0.561818	0.641197	0.593264
O3	O	-0.831716	0.125651	0.106720
O4	O	-0.331716	0.625651	0.606720
O5	O	-0.945845	0.133340	-0.014146
O6	O	-0.445845	0.633340	0.485854
O7	O	-0.947690	0.133507	0.214130
O8	O	-0.447690	0.633507	0.714130
O9	O	-0.939561	-0.005942	-0.007520
O10	O	-0.439561	0.494058	0.492480
O11	O	-0.825433	-0.013632	0.113346
O12	O	-0.325433	0.486368	0.613346
O13	O	-1.055535	0.001915	0.099889
O14	O	-0.555535	0.501915	0.599889
Zn15	Zn	-0.939486	-0.027973	0.107669
Zn16	Zn	-0.439486	0.472027	0.607669
Zn17	Zn	-0.947765	0.155538	0.098940
Zn18	Zn	-0.447765	0.655538	0.598940
O19	O	-0.941406	-0.005775	0.220755
O20	O	-0.441406	0.494225	0.720755
C21	C	-0.798995	0.054011	0.109642
C22	C	-0.298995	0.554011	0.609642
C23	C	-0.710859	0.048055	0.108469
C24	C	-0.210859	0.548055	0.608469
N25	N	-0.933842	-0.153213	0.113626
N26	N	-0.433842	0.346787	0.613626
C27	C	-0.214374	0.006381	0.102280
C28	C	0.285626	0.506381	0.602280
C29	C	-0.297187	0.011979	0.103382
C30	C	0.202813	0.511979	0.603382
C31	C	-0.342020	0.090702	0.100315
C32	C	0.157980	0.590702	0.600315
C33	C	-0.304034	0.163832	0.096154
C34	C	0.195966	0.663832	0.596154
C35	C	-0.221222	0.158233	0.095058
C36	C	0.278778	0.658233	0.595058
C37	C	-0.590061	0.115587	0.103212
C38	C	-0.090061	0.615587	0.603212
C39	C	-0.672879	0.121180	0.104306
C40	C	-0.172879	0.621180	0.604306
C41	C	-0.666026	-0.030674	0.111535
C42	C	-0.166026	0.469326	0.611535
C43	C	-0.583212	-0.036266	0.110434
C44	C	-0.083212	0.463734	0.610434
C45	C	-0.545234	0.036864	0.106277
C46	C	-0.045234	0.536864	0.606277
N47	N	-0.426669	0.096425	0.101439
N48	N	0.073331	0.596425	0.601439
N49	N	-0.460586	0.031140	0.105159
N50	N	0.039414	0.531140	0.605159
C51	C	-0.982424	-0.193634	0.062216
C52	C	-0.482424	0.306366	0.562216
C53	C	-0.978483	-0.281306	0.066390
C54	C	-0.478483	0.218694	0.566390
C55	C	-0.925964	-0.328556	0.121980
C56	C	-0.425964	0.171444	0.621980
C57	C	-0.877377	-0.288130	0.173392
C58	C	-0.377377	0.211870	0.673392
C59	C	-0.881314	-0.200459	0.169214
C60	C	-0.381314	0.299541	0.669214
C61	C	-0.908765	-0.591124	0.140211
C62	C	-0.408765	-0.091124	0.640211
C63	C	-0.904833	-0.678801	0.144387
C64	C	-0.404833	-0.178801	0.644387
C65	C	-1.005939	-0.671971	0.037384
C66	C	-0.505939	-0.171971	0.537384
C67	C	-1.009875	-0.584299	0.033213
C68	C	-0.509875	-0.084299	0.533213
C69	C	-0.961285	-0.543881	0.084623
C70	C	-0.461285	-0.043881	0.584623
N71	N	-0.921937	-0.418171	0.126250
N72	N	-0.421937	0.081829	0.626250
N73	N	-0.965308	-0.454267	0.080349
N74	N	-0.465308	0.045733	0.580349
C75	C	-0.088256	0.073553	0.096961
C76	C	0.411744	0.573553	0.596961
C77	C	-0.176394	0.079505	0.098117
C78	C	0.323606	0.579505	0.598117
C79	C	-0.940330	0.063535	-0.040035
C80	C	-0.440330	0.563535	0.459965
C81	C	-0.933249	0.063046	-0.127049
C82	C	-0.433249	0.563046	0.372951
N83	N	-0.953415	0.280779	0.092977
N84	N	-0.453415	0.780779	0.592977
C85	C	-0.885679	0.059908	-0.615811
C86	C	-0.385679	0.559908	-0.115811
C87	C	-0.892338	0.060350	-0.534052
C88	C	-0.392338	0.560350	-0.034052
C89	C	-0.967320	0.065404	-0.502826
C90	C	-0.467320	0.565404	-0.002826
C91	C	-1.035648	0.070026	-0.553364
C92	C	-0.535648	0.570026	-0.053364
C93	C	-1.028989	0.069590	-0.635121
C94	C	-0.528989	0.569590	-0.135121
C95	C	-0.994919	0.067232	-0.259344
C96	C	-0.494919	0.567232	0.240656
C97	C	-1.001572	0.067665	-0.177580
C98	C	-0.501572	0.567665	0.322420
C99	C	-0.858261	0.057990	-0.158274
C100	C	-0.358261	0.557990	0.341726
C101	C	-0.851609	0.057549	-0.240034
C102	C	-0.351609	0.557549	0.259966
C103	C	-0.919937	0.062176	-0.290565
C104	C	-0.419937	0.562176	0.209435
N105	N	-0.974127	0.065853	-0.419256
N106	N	-0.474127	0.565853	0.080744
N107	N	-0.913129	0.061733	-0.374134
N108	N	-0.413129	0.561733	0.125866
C109	C	-0.946921	0.064032	0.246645
C110	C	-0.446921	0.564032	0.746645
C111	C	-0.954002	0.064527	0.333658
C112	C	-0.454002	0.564527	0.833658
H113	H	-0.177876	-0.057724	0.104780
H114	H	0.322124	0.442276	0.604780
H115	H	-0.802632	0.054225	-0.117123
H116	H	-0.302632	0.554225	0.382877
O117	O	-0.352395	0.248737	0.092843
O118	O	0.147605	0.748737	0.592843
H119	H	-0.334475	0.283836	0.144325
H120	H	0.165525	0.783836	0.644325
H121	H	-0.869202	-0.558222	0.182072
H122	H	-0.369202	-0.058222	0.682072
H123	H	-0.190300	0.217779	0.091670
H124	H	0.309700	0.717779	0.591670
H125	H	-0.836701	0.056591	-0.492912
H126	H	-0.336701	0.556591	0.007088
H127	H	-0.790551	0.053443	-0.265451
H128	H	-0.290551	0.553443	0.234549
H129	H	-1.045498	-0.704888	-0.004473
H130	H	-0.545498	-0.204888	0.495527
O131	O	-1.082450	0.073124	-0.143897
O132	O	-0.582450	0.573124	0.356103
H133	H	-1.128845	0.076276	-0.192769
H134	H	-0.628845	0.576276	0.307231
O135	O	-0.804801	0.054449	-0.649482
O136	O	-0.304801	0.554449	-0.149482
H137	H	-0.811646	0.054911	-0.714822
H138	H	-0.311646	0.554911	-0.214822
H139	H	-1.025194	-0.155168	0.016953
H140	H	-0.525194	0.344832	0.516953
H141	H	-0.546716	-0.100370	0.112914
H142	H	-0.046716	0.399630	0.612914
H143	H	-0.559149	0.175134	0.099824
H144	H	-0.059149	0.675134	0.599824
O145	O	-1.102682	0.074569	-0.689626
O146	O	-0.602682	0.574569	-0.189626
H147	H	-1.100506	0.017835	-0.724657
H148	H	-0.600506	0.517835	-0.224657
H149	H	-1.096700	0.074140	-0.527934
H150	H	-0.596700	0.574140	-0.027934
O151	O	-0.820738	-0.339089	0.233358
O152	O	-0.320738	0.160911	0.733358
H153	H	-0.759035	-0.326510	0.222796
H154	H	-0.259035	0.173490	0.722796
O155	O	-1.068611	0.072218	-0.313842
O156	O	-0.568611	0.572218	0.186158
H157	H	-1.066436	0.015486	-0.348876
H158	H	-0.566436	0.515486	0.151124
O159	O	-0.828919	-0.156855	0.224666
O160	O	-0.328919	0.343145	0.724666
H161	H	-0.791744	-0.204438	0.264029
H162	H	-0.291744	0.295562	0.764029
H163	H	-0.328107	-0.047567	0.106770
H164	H	0.171893	0.452433	0.606770
H165	H	-1.018042	-0.314216	0.024527
H166	H	-0.518042	0.185784	0.524527
H167	H	-0.696957	-0.090212	0.114921
H168	H	-0.196957	0.409788	0.614921
H169	H	-0.709380	0.185289	0.101815
H170	H	-0.209380	0.685289	0.601815
H171	H	-0.862064	-0.717268	0.189658
H172	H	-0.362064	-0.217268	0.689658
O173	O	-1.066513	-0.533336	-0.026750
O174	O	-0.566513	-0.033336	0.473250
H175	H	-1.099628	-0.576174	-0.061805
H176	H	-0.599628	-0.076174	0.438195
