data_functionalizedCrystal
_audit_creation_method	'MofGen! by Chris Wilmer'
_symmetry_space_group_name_H-M	'P1'
_symmetry_Int_Tables_number	1
_symmetry_cell_setting	triclinic
loop_
_symmetry_equiv_pos_as_xyz
  x,y,z
_cell_length_a	16.959455
_cell_length_b	18.101395
_cell_length_c	16.959447
_cell_angle_alpha	89.970532
_cell_angle_beta	89.985678
_cell_angle_gamma	90.028051
loop_
_atom_site_label
_atom_site_type_symbol
_atom_site_fract_x
_atom_site_fract_y
_atom_site_fract_z
Zn1	Zn	1.208323	-0.294875	-0.446913
Zn2	Zn	1.208220	-0.418728	-0.314737
Zn3	Zn	1.076152	-0.294899	-0.314751
Zn4	Zn	1.076091	-0.418673	-0.446875
O5	O	1.142196	-0.356794	-0.380819
O6	O	1.318920	-0.311318	-0.429390
O7	O	1.190683	-0.402335	-0.204128
O8	O	1.093753	-0.191263	-0.332304
O9	O	1.318845	-0.402312	-0.332280
O10	O	1.190859	-0.191246	-0.429404
O11	O	1.093653	-0.311358	-0.204138
O12	O	0.965533	-0.311304	-0.332267
O13	O	1.093649	-0.402218	-0.557491
O14	O	0.965488	-0.402241	-0.429339
O15	O	1.190800	-0.311264	-0.557519
O16	O	1.190624	-0.522354	-0.332243
O17	O	1.093550	-0.522313	-0.429325
C18	C	0.936830	-0.356769	-0.380801
C19	C	0.848974	-0.356777	-0.380812
C20	C	1.142091	-0.549204	-0.380796
C21	C	1.142118	-0.631518	-0.380812
C22	C	0.477497	-0.309404	-0.330380
C23	C	0.477499	-0.404244	-0.431304
C24	C	0.560045	-0.404234	-0.431299
C25	C	0.601321	-0.356808	-0.380833
C26	C	0.560050	-0.309394	-0.330372
C27	C	0.601321	-0.451653	-0.481754
C28	C	0.683872	-0.451644	-0.481750
C29	C	0.725150	-0.404215	-0.431287
C30	C	0.683874	-0.356798	-0.380825
C31	C	0.725150	-0.309373	-0.330359
C32	C	0.683876	-0.261951	-0.279899
C33	C	0.601327	-0.261964	-0.279909
C34	C	0.807698	-0.404202	-0.431278
C35	C	0.807703	-0.309362	-0.330351
C36	C	1.142291	-0.930609	-0.380855
C37	C	1.081356	-0.899289	-0.442088
C38	C	1.081066	-0.813671	-0.441896
C39	C	1.142205	-0.782227	-0.380834
C40	C	1.119658	-0.813380	-0.297530
C41	C	1.119266	-0.899025	-0.297896
C42	C	1.225907	-0.898956	-0.402193
C43	C	1.225415	-0.813305	-0.404020
C44	C	1.142158	-0.698367	-0.380818
C45	C	1.142337	-1.014469	-0.380866
C46	C	1.348365	-0.356819	-0.380838
C47	C	1.436221	-0.356830	-0.380846
C48	C	1.142229	-0.356732	-0.586987
C49	C	1.142243	-0.356706	-0.674844
C50	C	1.142324	-0.163632	-0.380860
C51	C	1.142379	-0.081318	-0.380877
C52	C	1.091756	-0.403984	-1.046308
C53	C	1.192920	-0.309273	-1.046332
C54	C	1.192899	-0.309289	-0.963786
C55	C	1.142306	-0.356653	-0.922497
C56	C	1.091735	-0.404002	-0.963754
C57	C	1.243475	-0.261946	-0.922523
C58	C	1.243456	-0.261960	-0.839972
C59	C	1.192859	-0.309322	-0.798681
C60	C	1.142285	-0.356672	-0.839944
C61	C	1.091693	-0.404037	-0.798655
C62	C	1.041115	-0.451384	-0.839915
C63	C	1.041138	-0.451364	-0.922464
C64	C	1.192836	-0.309342	-0.716133
C65	C	1.091672	-0.404055	-0.716101
C66	C	1.142209	-0.356801	-0.175453
C67	C	1.142348	-0.356619	-0.087597
H68	H	0.841304	-0.270738	-0.289259
H69	H	0.443888	-0.442860	-0.472386
H70	H	1.058143	-0.919066	-0.279821
H71	H	1.284640	-0.223407	-0.806384
C72	C	0.555916	-0.503814	-0.537263
C73	C	0.499121	-0.561915	-0.502909
C74	C	0.453709	-0.614076	-0.558423
C75	C	0.465091	-0.608137	-0.648290
C76	C	0.521889	-0.550034	-0.682649
C77	C	0.567301	-0.497873	-0.627136
H78	H	0.490693	-0.566314	-0.436379
H79	H	0.411664	-0.657088	-0.532988
H80	H	0.431475	-0.646750	-0.689385
H81	H	0.530317	-0.545635	-0.749179
H82	H	0.609346	-0.454861	-0.652571
C83	C	1.036018	-0.456158	-0.670686
C84	C	0.973969	-0.424074	-0.613943
C85	C	0.918315	-0.476177	-0.568529
C86	C	0.924710	-0.560364	-0.579858
C87	C	0.986761	-0.592452	-0.636603
C88	C	1.042415	-0.540350	-0.682018
H89	H	0.969234	-0.361750	-0.605555
H90	H	0.872381	-0.452423	-0.526522
H91	H	0.883511	-0.598933	-0.546239
H92	H	0.991497	-0.654776	-0.644992
H93	H	1.088349	-0.564104	-0.724025
H94	H	0.717493	-0.223341	-0.238806
H95	H	1.242417	-0.792941	-0.465328
C96	C	0.729268	-0.503800	-0.537260
C97	C	0.717886	-0.587983	-0.530659
C98	C	0.763283	-0.640137	-0.586172
C99	C	0.820061	-0.608107	-0.648285
C100	C	0.831446	-0.523920	-0.654889
C101	C	0.786050	-0.471766	-0.599376
H102	H	0.675853	-0.611697	-0.484676
H103	H	0.754854	-0.702458	-0.581283
H104	H	0.853666	-0.646715	-0.689379
H105	H	0.873479	-0.500206	-0.700871
H106	H	0.794478	-0.409445	-0.604265
C107	C	1.100071	-0.785207	-0.525353
C108	C	1.115621	-0.840406	-0.592639
C109	C	1.134600	-0.811946	-0.676105
C110	C	1.138029	-0.728287	-0.692284
C111	C	1.122478	-0.673083	-0.624996
C112	C	1.103499	-0.701543	-0.541530
H113	H	1.113084	-0.902340	-0.580664
H114	H	1.146112	-0.852812	-0.725916
H115	H	1.152078	-0.707219	-0.754071
H116	H	1.125015	-0.611149	-0.636971
H117	H	1.091987	-0.660677	-0.491719
C118	C	1.100220	-0.927038	-0.525810
C119	C	1.171184	-0.978479	-0.539605
C120	C	1.190053	-1.006230	-0.623330
C121	C	1.137957	-0.982540	-0.693260
C122	C	1.066989	-0.931096	-0.679467
C123	C	1.048120	-0.903345	-0.595742
H124	H	1.209752	-0.996018	-0.487836
H125	H	1.242588	-1.044312	-0.633540
H126	H	1.151925	-1.003082	-0.755238
H127	H	1.028421	-0.913557	-0.731235
H128	H	0.995584	-0.865263	-0.585532
H129	H	0.443888	-0.270793	-0.289299
H130	H	1.246464	-0.920503	-0.461904
C131	C	0.998134	-0.928446	-0.423241
C132	C	0.985321	-0.980519	-0.352554
C133	C	0.902101	-1.009679	-0.333707
C134	C	0.831694	-0.986766	-0.385547
C135	C	0.844506	-0.934689	-0.456239
C136	C	0.927726	-0.905530	-0.475086
H137	H	1.037442	-0.997484	-0.314175
H138	H	0.892617	-1.048229	-0.281376
H139	H	0.770090	-1.008352	-0.371596
H140	H	0.792385	-0.917725	-0.494619
H141	H	0.937209	-0.866979	-0.527417
H142	H	0.841299	-0.442814	-0.472359
H143	H	1.019089	-0.793246	-0.427762
H144	H	1.161723	-0.919746	-0.250718
C145	C	1.177724	-0.785867	-0.234209
C146	C	1.246453	-0.734670	-0.257464
C147	C	1.304520	-0.707156	-0.194144
C148	C	1.293856	-0.730839	-0.107570
C149	C	1.225123	-0.782039	-0.084311
C150	C	1.167057	-0.809553	-0.147631
H151	H	1.254350	-0.717136	-0.321555
H152	H	1.355400	-0.669255	-0.211363
H153	H	1.336840	-0.710472	-0.060697
H154	H	1.217227	-0.799573	-0.020220
H155	H	1.116176	-0.847454	-0.130413
H156	H	1.234018	-0.270794	-0.682542
H157	H	0.567715	-0.223357	-0.238827
C158	C	1.037957	-0.784499	-0.272671
C159	C	0.991631	-0.732689	-0.327807
C160	C	0.909927	-0.703809	-0.302953
C161	C	0.874550	-0.726740	-0.222962
C162	C	0.920877	-0.778553	-0.167821
C163	C	1.002581	-0.807432	-0.192675
H164	H	1.017818	-0.715711	-0.387026
H165	H	0.875633	-0.665454	-0.343773
H166	H	0.814069	-0.705362	-0.204564
H167	H	0.894690	-0.795530	-0.108602
H168	H	1.036875	-0.845788	-0.151855
C169	C	1.289972	-0.784388	-0.348135
C170	C	1.359244	-0.738863	-0.381166
C171	C	1.423787	-0.709947	-0.325259
C172	C	1.419057	-0.726556	-0.236321
C173	C	1.349781	-0.772083	-0.203285
C174	C	1.285239	-0.801000	-0.259191
H175	H	1.362749	-0.726566	-0.447008
H176	H	1.475070	-0.676244	-0.349715
H177	H	1.466835	-0.705150	-0.194935
H178	H	1.346277	-0.784380	-0.137443
H179	H	1.233956	-0.834702	-0.234735
H180	H	1.271306	-0.919210	-0.357595
H181	H	0.999926	-0.489951	-0.806287
H182	H	0.999962	-0.489914	-0.956066
H183	H	1.050574	-0.442530	-1.079906
H184	H	1.234114	-0.270715	-1.079954
H185	H	1.284669	-0.223389	-0.956146
