data_functionalizedCrystal
_audit_creation_method	'MofGen! by Chris Wilmer'
_symmetry_space_group_name_H-M	'P1'
_symmetry_Int_Tables_number	1
_symmetry_cell_setting	triclinic
loop_
_symmetry_equiv_pos_as_xyz
  x,y,z
_cell_length_a	16.109301
_cell_length_b	15.995350
_cell_length_c	14.586319
_cell_angle_alpha	89.998440
_cell_angle_beta	89.999213
_cell_angle_gamma	83.476928
loop_
_atom_site_label
_atom_site_type_symbol
_atom_site_fract_x
_atom_site_fract_y
_atom_site_fract_z
O1	O	1.103160	0.107624	-0.076178
O2	O	0.861101	0.121018	-0.076192
O3	O	0.988747	-0.007569	-0.076184
O4	O	0.975514	0.236210	-0.076186
O5	O	0.988739	-0.007570	0.076297
O6	O	0.861093	0.121016	0.076289
O7	O	1.103151	0.107622	0.076303
Cu8	Cu	0.982121	0.114319	0.090219
Cu9	Cu	0.982131	0.114321	-0.090107
O10	O	0.975505	0.236208	0.076295
C11	C	0.830122	0.120474	0.000047
C12	C	0.737826	0.118848	0.000041
C13	C	0.988196	-0.038764	0.000055
C14	C	0.986556	-0.131714	0.000050
C15	C	0.515573	0.191366	0.000051
C16	C	0.428853	0.189831	0.000057
C17	C	0.448686	0.037268	0.000055
C18	C	0.535405	0.038804	0.000055
C19	C	0.568846	0.115855	0.000049
C20	C	0.395406	0.112785	0.000054
C21	C	0.301380	0.111120	0.000061
C22	C	0.662879	0.117520	0.000044
C23	C	0.980665	-0.469460	0.000053
C24	C	0.889758	-0.422001	-0.000295
C25	C	0.891399	-0.325311	0.000049
C26	C	0.983587	-0.301900	0.000051
C27	C	1.028421	-0.342991	0.087126
C28	C	1.026137	-0.439626	0.087198
C29	C	1.028025	-0.439983	-0.086201
C30	C	1.028003	-0.343037	-0.087351
C31	C	0.985243	-0.207203	0.000053
C32	C	0.979012	-0.564157	0.000057
C33	C	1.134130	0.108166	0.000062
C34	C	1.226426	0.109792	0.000062
C35	C	0.976056	0.267404	0.000054
C36	C	0.977697	0.360354	0.000053
N37	N	0.982120	0.114317	0.217050
N38	N	0.982139	0.114317	-0.216939
C39	C	1.038660	0.057398	0.452061
C40	C	1.038662	0.057396	0.548042
C41	C	0.925593	0.171238	0.548044
C42	C	0.925587	0.171236	0.452064
C43	C	0.982125	0.114316	0.404075
C44	C	0.982134	0.114317	0.596036
C45	C	0.982136	0.114315	0.700103
C46	C	0.982122	0.114317	0.300001
H47	H	0.542798	0.254106	0.000053
C48	C	0.412424	-0.046410	0.000238
C49	C	0.439480	-0.092055	0.078696
C50	C	0.406087	-0.169140	0.078898
H51	H	0.430692	-0.077597	-0.052874
H52	H	0.353144	-0.036548	0.000284
H53	H	0.498748	-0.101919	0.078641
H54	H	0.421214	-0.060894	0.131821
H55	H	0.346807	-0.159278	0.078944
H56	H	0.424357	-0.200319	0.025782
H57	H	0.424434	-0.200116	0.132134
H58	H	0.879562	0.217582	0.587126
C59	C	0.593211	-0.043212	-0.000138
C60	C	0.578119	-0.089594	-0.078599
C61	C	0.631360	-0.165141	-0.078810
H62	H	0.583122	-0.074909	0.052972
H63	H	0.649659	-0.031296	-0.000185
H64	H	0.521684	-0.101512	-0.078544
H65	H	0.588213	-0.057923	-0.131721
H66	H	0.687809	-0.153225	-0.078857
H67	H	0.621268	-0.196831	-0.025697
H68	H	0.621133	-0.196617	-0.132049
H69	H	0.856156	-0.296879	-0.062370
C70	C	1.099940	-0.004558	0.400030
C71	C	1.086420	-0.086828	0.423396
C72	C	1.142848	-0.143936	0.375488
H73	H	1.155463	0.004429	0.415723
H74	H	1.091853	0.003513	0.335981
H75	H	1.094514	-0.094896	0.487430
H76	H	1.030909	-0.095842	0.407701
H77	H	1.134761	-0.135864	0.311440
H78	H	1.198367	-0.134941	0.391185
H79	H	1.133677	-0.199762	0.391329
C80	C	0.982582	-0.464198	0.173945
C81	C	0.980076	-0.551403	0.174941
C82	C	0.939965	-0.574065	0.254842
H83	H	0.927236	-0.436464	0.175375
H84	H	1.012432	-0.448159	0.226045
H85	H	0.950225	-0.567434	0.122855
H86	H	1.035411	-0.579157	0.173525
H87	H	0.969815	-0.558026	0.306942
H88	H	0.884621	-0.546326	0.256265
H89	H	0.938266	-0.633236	0.255532
H90	H	1.084697	0.011047	0.587109
H91	H	0.853427	-0.440522	-0.062738
C92	C	0.864166	0.233131	0.400124
C93	C	0.814673	0.282999	0.462692
C94	C	0.758092	0.340028	0.414878
H95	H	0.829480	0.203096	0.362685
H96	H	0.894050	0.268039	0.362696
H97	H	0.784792	0.248096	0.500104
H98	H	0.849337	0.313053	0.500133
H99	H	0.787976	0.374936	0.377450
H100	H	0.723411	0.309986	0.377441
H101	H	0.724509	0.373875	0.457323
C102	C	0.371152	0.271906	0.000009
C103	C	0.419003	0.339708	-0.000019
C104	C	0.365878	0.415332	-0.000074
H105	H	0.336892	0.274599	0.053169
H106	H	0.336921	0.274525	-0.053184
H107	H	0.453219	0.337091	0.053170
H108	H	0.453261	0.337044	-0.053175
H109	H	0.331648	0.417951	-0.053267
H110	H	0.331622	0.418016	0.053087
H111	H	0.398338	0.461344	-0.000101
H112	H	0.855912	-0.297438	0.062570
C113	C	0.841422	-0.448207	0.082381
C114	C	0.770959	-0.484351	0.052616
C115	C	0.726421	-0.508515	0.128751
H116	H	0.824293	-0.400219	0.118985
H117	H	0.876138	-0.488085	0.117608
H118	H	0.736248	-0.444475	0.017404
H119	H	0.788064	-0.532347	0.016022
H120	H	0.761138	-0.548393	0.163978
H121	H	0.709298	-0.460522	0.165350
H122	H	0.678612	-0.533048	0.108566
C123	C	1.115184	-0.482500	0.092531
C124	C	1.170802	-0.421359	0.095671
C125	C	1.252835	-0.460818	0.100601
H126	H	1.126770	-0.517015	0.040048
H127	H	1.121520	-0.516217	0.146245
H128	H	1.164469	-0.387656	0.041962
H129	H	1.159242	-0.386841	0.148152
H130	H	1.259171	-0.494535	0.154315
H131	H	1.264413	-0.495332	0.048116
H132	H	1.290581	-0.419340	0.102740
H133	H	1.096149	-0.328884	0.090365
H134	H	0.997274	-0.314602	0.151923
H135	H	0.998307	-0.460513	-0.152198
C136	C	0.984453	-0.306751	-0.173358
C137	C	1.024615	-0.343928	-0.250786
C138	C	0.984513	-0.310523	-0.330029
H139	H	0.986669	-0.247682	-0.175089
H140	H	0.927788	-0.317957	-0.172863
H141	H	1.081265	-0.332716	-0.251281
H142	H	1.022400	-0.402995	-0.249085
H143	H	0.927849	-0.321728	-0.329534
H144	H	0.986732	-0.251454	-0.331751
H145	H	1.011752	-0.335748	-0.382573
C146	C	1.117640	-0.322528	-0.094178
C147	C	1.135227	-0.272203	-0.019698
C148	C	1.217799	-0.253305	-0.025942
H149	H	1.124780	-0.293142	-0.149700
H150	H	1.154587	-0.373238	-0.093398
H151	H	1.098292	-0.221501	-0.020487
H152	H	1.128107	-0.301573	0.035834
H153	H	1.254746	-0.304015	-0.025161
H154	H	1.224931	-0.223922	-0.081466
H155	H	1.229745	-0.219165	0.024595
C156	C	1.117335	-0.482514	-0.087043
C157	C	1.116629	-0.569911	-0.090365
C158	C	1.198882	-0.609122	-0.091147
H159	H	1.145291	-0.467841	-0.033045
H160	H	1.145652	-0.464509	-0.139334
H161	H	1.088325	-0.587909	-0.038079
H162	H	1.088690	-0.584608	-0.144359
H163	H	1.227198	-0.591117	-0.143438
H164	H	1.226831	-0.594443	-0.037149
H165	H	1.198414	-0.668424	-0.093410
