data_functionalizedCrystal
_audit_creation_method	'MofGen! by Chris Wilmer'
_symmetry_space_group_name_H-M	'P1'
_symmetry_Int_Tables_number	1
_symmetry_cell_setting	triclinic
loop_
_symmetry_equiv_pos_as_xyz
  x,y,z
_cell_length_a	12.759395
_cell_length_b	12.759394
_cell_length_c	12.759387
_cell_angle_alpha	89.968340
_cell_angle_beta	89.978972
_cell_angle_gamma	90.015598
loop_
_atom_site_label
_atom_site_type_symbol
_atom_site_fract_x
_atom_site_fract_y
_atom_site_fract_z
Zn1	Zn	1.606268	-0.418190	-0.594013
Zn2	Zn	2.106268	0.081810	-0.094013
Zn3	Zn	1.606158	-0.593907	-0.418331
Zn4	Zn	2.106158	-0.093907	0.081669
Zn5	Zn	1.430566	-0.418245	-0.418349
Zn6	Zn	1.930566	0.081755	0.081651
Zn7	Zn	1.430558	-0.593830	-0.593969
Zn8	Zn	1.930558	-0.093830	-0.093969
O9	O	1.518387	-0.506043	-0.506165
O10	O	2.018387	-0.006043	-0.006165
O11	O	1.753274	-0.441508	-0.570720
O12	O	2.253274	0.058492	-0.070720
O13	O	1.582823	-0.570660	-0.271312
O14	O	2.082823	-0.070660	0.228688
O15	O	1.453922	-0.271216	-0.441677
O16	O	1.953922	0.228784	0.058323
O17	O	1.753194	-0.570607	-0.441647
O18	O	2.253194	-0.070607	0.058353
O19	O	1.583010	-0.271176	-0.570737
O20	O	2.083010	0.228824	-0.070737
O21	O	1.453816	-0.441602	-0.271325
O22	O	1.953816	0.058398	0.228675
O23	O	1.283544	-0.441527	-0.441634
O24	O	1.783544	0.058473	0.058366
O25	O	1.453909	-0.570475	-0.740996
O26	O	1.953909	-0.070475	-0.240996
O27	O	1.283538	-0.570529	-0.570661
O28	O	1.783538	-0.070529	-0.070661
O29	O	1.583002	-0.441434	-0.741029
O30	O	2.083002	0.058566	-0.241029
O31	O	1.582815	-0.740918	-0.441604
O32	O	2.082815	-0.240918	0.058396
O33	O	1.453802	-0.740861	-0.570644
O34	O	1.953802	-0.240861	-0.070644
C35	C	1.245420	-0.506026	-0.506145
C36	C	1.745420	-0.006026	-0.006145
C37	C	1.128643	-0.506044	-0.506161
C38	C	1.628643	-0.006044	-0.006161
C39	C	0.909292	-0.371854	-0.640817
C40	C	1.409292	0.128146	-0.140817
C41	C	0.964201	-0.304737	-0.708115
C42	C	1.464201	0.195263	-0.208115
C43	C	1.073922	-0.304719	-0.708096
C44	C	1.573922	0.195281	-0.208096
C45	C	1.128738	-0.371828	-0.640775
C46	C	1.628738	0.128172	-0.140775
C47	C	1.073830	-0.438945	-0.573477
C48	C	1.573830	0.061055	-0.073477
C49	C	0.964106	-0.438954	-0.573501
C50	C	1.464106	0.061046	-0.073501
C51	C	1.073735	-0.573162	-0.438863
C52	C	1.573735	-0.073162	0.061137
C53	C	0.964013	-0.573176	-0.438874
C54	C	1.464013	-0.073176	0.061126
C55	C	1.128551	-0.640271	-0.371542
C56	C	1.628551	-0.140271	0.128458
C57	C	1.073643	-0.707384	-0.304237
C58	C	1.573643	-0.207384	0.195763
C59	C	0.963914	-0.707399	-0.304257
C60	C	1.463914	-0.207399	0.195743
C61	C	0.909105	-0.640294	-0.371577
C62	C	1.409105	-0.140294	0.128423
C63	C	1.518324	-0.779010	-0.506140
C64	C	2.018324	-0.279010	-0.006140
C65	C	1.518393	-0.895787	-0.506164
C66	C	2.018393	-0.395787	-0.006164
C67	C	1.652835	-0.895793	-0.371895
C68	C	2.152835	-0.395793	0.128105
C69	C	1.720083	-0.950656	-0.304773
C70	C	2.220083	-0.450656	0.195227
C71	C	1.720145	-1.060378	-0.304802
C72	C	2.220145	-0.560378	0.195198
C73	C	1.652953	-1.115238	-0.371962
C74	C	2.152953	-0.615238	0.128038
C75	C	1.585705	-1.060375	-0.439084
C76	C	2.085705	-0.560375	0.060916
C77	C	1.585648	-0.950650	-0.439046
C78	C	2.085648	-0.450650	0.060954
C79	C	1.451270	-1.060369	-0.573357
C80	C	1.951270	-0.560369	-0.073357
C81	C	1.451202	-0.950647	-0.573324
C82	C	1.951202	-0.450647	-0.073324
C83	C	1.384079	-1.115229	-0.640517
C84	C	1.884079	-0.615229	-0.140517
C85	C	1.316823	-1.060366	-0.707635
C86	C	1.816823	-0.560366	-0.207635
C87	C	1.316764	-0.950638	-0.707603
C88	C	1.816764	-0.450638	-0.207603
C89	C	1.383954	-0.895784	-0.640446
C90	C	1.883954	-0.395784	-0.140446
C91	C	1.792421	-0.506060	-0.506187
C92	C	2.292421	-0.006060	-0.006187
C93	C	1.909197	-0.506067	-0.506196
C94	C	2.409197	-0.006067	-0.006196
C95	C	1.518467	-0.505940	-0.780199
C96	C	2.018467	-0.005940	-0.280199
C97	C	1.518500	-0.505896	-0.896976
C98	C	2.018500	-0.005896	-0.396976
C99	C	1.518479	-0.232009	-0.506214
C100	C	2.018479	0.267991	-0.006214
C101	C	1.518518	-0.115233	-0.506235
C102	C	2.018518	0.384767	-0.006235
C103	C	1.652934	-0.371533	-0.897030
C104	C	2.152934	0.128467	-0.397030
C105	C	1.720166	-0.304336	-0.951918
C106	C	2.220166	0.195664	-0.451918
C107	C	1.720192	-0.304298	-1.061639
C108	C	2.220192	0.195702	-0.561639
C109	C	1.652976	-0.371462	-1.116476
C110	C	2.152976	0.128538	-0.616476
C111	C	1.585744	-0.438659	-1.061588
C112	C	2.085744	0.061341	-0.561588
C113	C	1.585728	-0.438692	-0.951864
C114	C	2.085728	0.061308	-0.451864
C115	C	1.451307	-0.573014	-1.061534
C116	C	1.951307	-0.073014	-0.561534
C117	C	1.451285	-0.573060	-0.951812
C118	C	1.951285	-0.073060	-0.451812
C119	C	1.384091	-0.640178	-1.116370
C120	C	1.884091	-0.140178	-0.616370
C121	C	1.316863	-0.707382	-1.061483
C122	C	1.816863	-0.207382	-0.561483
C123	C	1.316841	-0.707418	-0.951754
C124	C	1.816841	-0.207418	-0.451754
C125	C	1.384053	-0.640257	-0.896924
C126	C	1.884053	-0.140257	-0.396924
C127	C	1.518369	-0.506069	-0.233198
C128	C	2.018369	-0.006069	0.266802
C129	C	1.518538	-0.505817	-0.116422
C130	C	2.018538	-0.005817	0.383578
H131	H	0.919557	-0.250101	-0.762928
H132	H	1.419557	0.249899	-0.262928
H133	H	1.774792	-0.905979	-0.250094
H134	H	2.274792	-0.405979	0.249906
H135	H	1.383905	-0.806443	-0.640407
H136	H	1.883905	-0.306443	-0.140407
H137	H	1.774909	-1.105047	-0.250151
H138	H	2.274909	-0.605047	0.249849
H139	H	1.217892	-0.640258	-0.371538
H140	H	1.717892	-0.140258	0.128462
H141	H	1.653018	-1.204579	-0.371988
H142	H	2.153018	-0.704579	0.128012
H143	H	0.919214	-0.762059	-0.249460
H144	H	1.419214	-0.262059	0.250540
H145	H	1.384113	-0.640138	-1.205712
H146	H	1.884113	-0.140138	-0.705712
H147	H	1.118282	-0.762024	-0.249435
H148	H	1.618282	-0.262024	0.250565
H149	H	1.384138	-1.204571	-0.640540
H150	H	1.884138	-0.704571	-0.140540
H151	H	1.262006	-0.905973	-0.762266
H152	H	1.762006	-0.405973	-0.262266
H153	H	1.262082	-0.762127	-0.907071
H154	H	1.762082	-0.262127	-0.407071
H155	H	0.819764	-0.640286	-0.371587
H156	H	1.319764	-0.140286	0.128413
H157	H	1.652778	-0.806451	-0.371852
H158	H	2.152778	-0.306451	0.128148
H159	H	1.262126	-1.105042	-0.762316
H160	H	1.762126	-0.605042	-0.262316
H161	H	1.652994	-0.371416	-1.205817
H162	H	2.152994	0.128584	-0.705817
H163	H	1.652930	-0.371568	-0.807689
H164	H	2.152930	0.128432	-0.307689
H165	H	1.384046	-0.640284	-0.807583
H166	H	1.884046	-0.140284	-0.307583
H167	H	1.774890	-0.249651	-0.907258
H168	H	2.274890	0.250349	-0.407258
H169	H	0.819951	-0.371839	-0.640815
H170	H	1.319951	0.128161	-0.140815
H171	H	1.118628	-0.250068	-0.762898
H172	H	1.618628	0.249932	-0.262898
H173	H	1.262136	-0.762055	-1.106139
H174	H	1.762136	-0.262055	-0.606139
H175	H	1.218079	-0.371817	-0.640776
H176	H	1.718079	0.128183	-0.140776
H177	H	1.774931	-0.249574	-1.106329
H178	H	2.274931	0.250426	-0.606329
