data_functionalizedCrystal
_audit_creation_method	'MofGen! by Chris Wilmer'
_symmetry_space_group_name_H-M	'P1'
_symmetry_Int_Tables_number	1
_symmetry_cell_setting	triclinic
loop_
_symmetry_equiv_pos_as_xyz
  x,y,z
_cell_length_a	17.699083
_cell_length_b	19.188930
_cell_length_c	16.776229
_cell_angle_alpha	89.988225
_cell_angle_beta	89.998886
_cell_angle_gamma	83.213899
loop_
_atom_site_label
_atom_site_type_symbol
_atom_site_fract_x
_atom_site_fract_y
_atom_site_fract_z
O1	O	1.003962	0.088294	-0.066185
O2	O	1.503962	0.588294	0.433815
O3	O	0.783569	0.099782	-0.066213
O4	O	1.283569	0.599782	0.433787
O5	O	0.900126	-0.007611	-0.066183
O6	O	1.400126	0.492389	0.433817
O7	O	0.887405	0.195686	-0.066215
O8	O	1.387405	0.695686	0.433785
O9	O	0.900110	-0.007617	0.066394
O10	O	1.400110	0.492383	0.566394
O11	O	0.783553	0.099775	0.066364
O12	O	1.283553	0.599775	0.566364
O13	O	1.003947	0.088288	0.066391
O14	O	1.503947	0.588288	0.566391
Zn15	Zn	0.893748	0.094030	0.087427
Zn16	Zn	1.393748	0.594030	0.587427
Zn17	Zn	0.893768	0.094039	-0.087249
Zn18	Zn	1.393768	0.594039	0.412751
O19	O	0.887390	0.195680	0.066361
O20	O	1.387390	0.695680	0.566361
C21	C	0.755365	0.099367	0.000072
C22	C	1.255365	0.599367	0.500072
C23	C	0.671348	0.098132	0.000062
C24	C	1.171348	0.598132	0.500062
C25	C	0.622644	0.161169	0.000053
C26	C	1.122644	0.661169	0.500053
C27	C	0.543702	0.160004	0.000063
C28	C	1.043702	0.660004	0.500063
C29	C	0.513466	0.095802	0.000078
C30	C	1.013466	0.595802	0.500078
C31	C	0.562176	0.032761	0.000090
C32	C	1.062176	0.532761	0.500090
C33	C	0.641117	0.033926	0.000085
C34	C	1.141117	0.533926	0.500085
C35	C	0.243819	0.028060	0.000111
C36	C	0.743819	0.528060	0.500111
C37	C	0.164873	0.026900	0.000113
C38	C	0.664873	0.526900	0.500113
C39	C	0.146405	0.154139	0.000088
C40	C	0.646405	0.654139	0.500088
C41	C	0.225345	0.155304	0.000084
C42	C	0.725345	0.655304	0.500084
C43	C	0.274049	0.092263	0.000100
C44	C	0.774049	0.592263	0.500100
C45	C	0.359646	0.093526	0.000090
C46	C	0.859646	0.593526	0.500090
C47	C	0.427870	0.094538	0.000082
C48	C	0.927870	0.594538	0.500082
C49	C	0.899706	-0.033625	0.000108
C50	C	1.399706	0.466375	0.500108
C51	C	0.898469	-0.111131	0.000114
C52	C	1.398469	0.388869	0.500114
C53	C	0.966861	-0.155978	0.000127
C54	C	1.466861	0.344022	0.500127
C55	C	0.965699	-0.228804	0.000114
C56	C	1.465699	0.271196	0.500114
C57	C	0.896142	-0.256778	0.000105
C58	C	1.396142	0.243222	0.500105
C59	C	0.827741	-0.211921	0.000088
C60	C	1.327741	0.288079	0.500088
C61	C	0.828905	-0.139098	0.000093
C62	C	1.328905	0.360902	0.500093
N63	N	0.842969	-0.364845	0.045216
N64	N	1.342969	0.135155	0.545216
N65	N	0.841868	-0.434025	0.045213
N66	N	1.341868	0.065975	0.545213
C67	C	0.892632	-0.476191	0.000088
C68	C	1.392632	0.023809	0.500088
N69	N	0.944550	-0.446565	-0.045024
N70	N	1.444550	0.053435	0.454976
N71	N	0.945653	-0.377379	-0.045018
N72	N	1.445653	0.122621	0.454982
C73	C	0.894873	-0.335742	0.000099
C74	C	1.394873	0.164258	0.500099
C75	C	0.959769	-0.600004	0.000085
C76	C	1.459769	-0.100004	0.500085
C77	C	0.958604	-0.672830	0.000067
C78	C	1.458604	-0.172830	0.500067
C79	C	0.820644	-0.655946	0.000049
C80	C	1.320644	-0.155946	0.500049
C81	C	0.821811	-0.583121	0.000059
C82	C	1.321811	-0.083121	0.500059
C83	C	0.891375	-0.555155	0.000081
C84	C	1.391375	-0.055155	0.500081
C85	C	1.032151	0.088703	0.000104
C86	C	1.532151	0.588703	0.500104
C87	C	1.116167	0.089938	0.000109
C88	C	1.616167	0.589938	0.500109
C89	C	0.887810	0.221695	0.000069
C90	C	1.387810	0.721695	0.500069
C91	C	0.889046	0.299201	0.000057
C92	C	1.389046	0.799201	0.500057
N93	N	0.893739	0.094024	0.206638
N94	N	1.393739	0.594024	0.706638
N95	N	0.893782	0.094040	-0.206460
N96	N	1.393782	0.594040	0.293540
C97	C	0.945366	0.046490	0.248368
C98	C	1.445366	0.546490	0.748368
C99	C	0.945370	0.046490	0.331821
C100	C	1.445370	0.546490	0.831821
C101	C	0.893751	0.094027	0.373541
C102	C	1.393751	0.594027	0.873541
C103	C	0.842118	0.141563	0.331805
C104	C	1.342118	0.641563	0.831805
C105	C	0.842111	0.141559	0.248354
C106	C	1.342111	0.641559	0.748354
C107	C	0.842146	0.141576	0.668352
C108	C	1.342146	0.641576	1.168352
C109	C	0.842158	0.141578	0.751808
C110	C	1.342158	0.641578	1.251808
C111	C	0.945405	0.046507	0.751818
C112	C	1.445405	0.546507	1.251818
C113	C	0.945398	0.046503	0.668368
C114	C	1.445398	0.546503	1.168368
C115	C	0.893763	0.094037	0.626639
C116	C	1.393763	0.594037	1.126639
C117	C	0.893758	0.094036	0.536150
C118	C	1.393758	0.594036	1.036150
C119	C	0.893759	0.094031	0.464028
C120	C	1.393759	0.594031	0.964028
H121	H	0.647256	0.213450	0.000040
H122	H	1.147256	0.713450	0.500040
H123	H	0.800120	0.180289	0.785776
H124	H	1.300120	0.680289	1.285776
C125	C	0.156312	-0.081924	-0.068004
C126	C	0.656312	0.418076	0.431996
C127	C	0.131638	-0.043677	0.000135
C128	C	0.631638	0.456323	0.500135
H129	H	0.135796	-0.125494	-0.067987
H130	H	0.635796	0.374506	0.432013
H131	H	0.139578	-0.055976	-0.114235
H132	H	0.639578	0.444024	0.385765
H133	H	0.210297	-0.090250	-0.067994
H134	H	0.710297	0.409750	0.432006
H135	H	0.077653	-0.035347	0.000122
H136	H	0.577653	0.464653	0.500122
H137	H	0.148368	-0.069631	0.046378
H138	H	0.648368	0.430369	0.546378
C139	C	0.106351	0.262238	-0.068088
C140	C	0.606351	0.762238	0.431912
C141	C	0.092867	0.223437	0.000077
C142	C	0.592867	0.723437	0.500077
H143	H	0.073296	0.305016	-0.068098
H144	H	0.573296	0.805016	0.431902
H145	H	0.157686	0.272117	-0.068089
H146	H	0.657686	0.772117	0.431911
H147	H	0.097202	0.235898	-0.114307
H148	H	0.597202	0.735898	0.385693
H149	H	0.102021	0.249775	0.046296
H150	H	0.602021	0.749775	0.546296
H151	H	0.041520	0.213560	0.000085
H152	H	0.541520	0.713560	0.500085
H153	H	1.023506	-0.133213	0.000142
H154	H	1.523506	0.366787	0.500142
C155	C	1.102184	-0.238186	0.000153
C156	C	1.602184	0.261814	0.500153
C157	C	1.040881	-0.278112	0.000133
C158	C	1.540881	0.221888	0.500133
H159	H	1.148596	-0.268626	0.000170
H160	H	1.648596	0.231374	0.500170
H161	H	1.099782	-0.209425	-0.046077
H162	H	1.599782	0.290575	0.453923
H163	H	1.099754	-0.209436	0.046388
H164	H	1.599754	0.290564	0.546388
H165	H	1.043308	-0.306857	-0.046106
H166	H	1.543308	0.193143	0.453894
H167	H	1.043284	-0.306884	0.046367
H168	H	1.543284	0.193116	0.546367
C169	C	0.533376	0.285894	0.000026
C170	C	1.033376	0.785894	0.500026
C171	C	0.490167	0.229297	0.000048
C172	C	0.990167	0.729297	0.500048
H173	H	0.500324	0.328674	0.000014
H174	H	1.000324	0.828674	0.500014
H175	H	0.564552	0.283702	0.046253
H176	H	1.064552	0.783702	0.546253
H177	H	0.564549	0.283696	-0.046212
H178	H	1.064549	0.783696	0.453788
H179	H	0.458998	0.231493	0.046290
H180	H	0.958998	0.731493	0.546290
H181	H	0.458978	0.231490	-0.046183
H182	H	0.958978	0.731490	0.453817
C183	C	0.449369	-0.025525	0.000101
C184	C	0.949369	0.474475	0.500101
C185	C	0.528942	-0.037813	0.000105
C186	C	1.028942	0.462187	0.500105
H187	H	0.428855	-0.069096	0.000103
H188	H	0.928855	0.430904	0.500103
H189	H	0.432642	0.000417	0.046327
H190	H	0.932642	0.500417	0.546327
H191	H	0.432644	0.000428	-0.046138
H192	H	0.932644	0.500428	0.453862
H193	H	0.545667	-0.063761	0.046348
H194	H	1.045667	0.436239	0.546348
H195	H	0.545676	-0.063766	-0.046126
H196	H	1.045676	0.436234	0.453874
H197	H	0.771107	-0.234702	0.000079
H198	H	1.271107	0.265298	0.500079
H199	H	0.773210	-0.102582	0.000083
H200	H	1.273210	0.397418	0.500083
H201	H	0.987409	0.007784	0.365797
H202	H	1.487409	0.507784	0.865797
C203	C	1.077715	-0.591945	-0.068063
C204	C	1.577715	-0.091945	0.431937
C205	C	1.036229	-0.569253	0.000092
C206	C	1.536229	-0.069253	0.500092
H207	H	1.124915	-0.572957	-0.068061
H208	H	1.624915	-0.072957	0.431939
H209	H	1.086812	-0.641729	-0.068060
H210	H	1.586812	-0.141729	0.431940
H211	H	1.049555	-0.576528	-0.114289
H212	H	1.549555	-0.076528	0.385711
H213	H	1.064386	-0.584675	0.046318
H214	H	1.564386	-0.084675	0.546318
H215	H	1.027134	-0.519459	0.000097
H216	H	1.527134	-0.019459	0.500097
C217	C	0.303390	0.230436	-0.068104
C218	C	0.803390	0.730436	0.431896
C219	C	0.258574	0.225880	0.000057
C220	C	0.758574	0.725880	0.500057
H221	H	0.323896	0.274010	-0.068121
H222	H	0.823896	0.774010	0.431879
H223	H	0.343694	0.193067	-0.068091
H224	H	0.843694	0.693067	0.431909
H225	H	0.272966	0.227331	-0.114325
H226	H	0.772966	0.727331	0.385675
H227	H	0.288999	0.228979	0.046279
H228	H	0.788999	0.728979	0.546279
H229	H	0.218264	0.263259	0.000052
H230	H	0.718264	0.763259	0.500052
C231	C	0.740096	0.235557	0.676736
C232	C	1.240096	0.735557	1.176736
C233	C	0.785395	0.193830	0.622491
C234	C	1.285395	0.693830	1.122491
H235	H	0.705063	0.267820	0.648419
H236	H	1.205063	0.767820	1.148419
H237	H	0.712976	0.206526	0.709295
H238	H	1.212976	0.706526	1.209295
H239	H	0.771529	0.260633	0.709274
H240	H	1.271529	0.760633	1.209274
H241	H	0.753963	0.168750	0.589956
H242	H	1.253963	0.668750	1.089956
H243	H	0.812517	0.222865	0.589917
H244	H	1.312517	0.722865	1.089917
H245	H	0.680771	-0.017406	0.000093
H246	H	1.180771	0.482594	0.500093
H247	H	1.014299	-0.709345	0.000073
H248	H	1.514299	-0.209345	0.500073
H249	H	0.283465	-0.023272	0.000125
H250	H	0.783465	0.476728	0.500125
H251	H	0.764009	-0.678722	0.000038
H252	H	1.264009	-0.178722	0.500038
H253	H	0.766119	-0.546605	0.000054
H254	H	1.266119	-0.046605	0.500054
H255	H	0.987404	0.007783	0.214405
H256	H	1.487404	0.507783	0.714405
C257	C	1.047451	-0.047479	0.676762
C258	C	1.547451	0.452521	1.176762
C259	C	1.002137	-0.005753	0.622510
C260	C	1.502137	0.494247	1.122510
H261	H	1.082475	-0.079745	0.648450
H262	H	1.582475	0.420255	1.148450
H263	H	1.074582	-0.018448	0.709295
H264	H	1.574582	0.481552	1.209295
H265	H	1.016027	-0.072553	0.709325
H266	H	1.516027	0.427447	1.209325
H267	H	1.033561	0.019325	0.589950
H268	H	1.533561	0.519325	1.089950
H269	H	0.975005	-0.034789	0.589963
H270	H	1.475005	0.465211	1.089963
C271	C	0.962161	-0.048543	0.845684
C272	C	1.462161	0.451457	1.345684
C273	C	1.002156	-0.005752	0.797690
C274	C	1.502156	0.494248	1.297690
H275	H	0.997198	-0.080805	0.873997
H276	H	1.497198	0.419195	1.373997
H277	H	0.931426	-0.020233	0.882470
H278	H	1.431426	0.479767	1.382470
H279	H	0.930743	-0.073620	0.813129
H280	H	1.430743	0.426380	1.313129
H281	H	1.033570	0.019329	0.830246
H282	H	1.533570	0.519329	1.330246
H283	H	1.032904	-0.034066	0.760900
H284	H	1.532904	0.465934	1.260900
C285	C	0.796289	0.183789	0.459722
C286	C	1.296289	0.683789	0.959722
C287	C	0.785378	0.193819	0.377662
C288	C	1.285378	0.693819	0.877662
H289	H	0.761262	0.216055	0.488030
H290	H	1.261262	0.716055	0.988030
H291	H	0.788225	0.137206	0.473411
H292	H	1.288225	0.637206	0.973411
H293	H	0.846778	0.191314	0.473380
H294	H	1.346778	0.691314	0.973380
H295	H	0.734890	0.186288	0.364004
H296	H	1.234890	0.686288	0.864004
H297	H	0.793436	0.240412	0.363968
H298	H	1.293436	0.740412	0.863968
H299	H	0.800070	0.180265	0.214378
H300	H	1.300070	0.680265	0.714378
