data_functionalizedCrystal
_audit_creation_method	'MofGen! by Chris Wilmer'
_symmetry_space_group_name_H-M	'P1'
_symmetry_Int_Tables_number	1
_symmetry_cell_setting	triclinic
loop_
_symmetry_equiv_pos_as_xyz
  x,y,z
_cell_length_a	25.639239
_cell_length_b	25.639242
_cell_length_c	19.805399
_cell_angle_alpha	90.026139
_cell_angle_beta	89.969866
_cell_angle_gamma	89.966288
loop_
_atom_site_label
_atom_site_type_symbol
_atom_site_fract_x
_atom_site_fract_y
_atom_site_fract_z
Zn1	Zn	-0.208225	-0.799238	-0.382881
Zn2	Zn	-0.295661	-0.799158	-0.269691
Zn3	Zn	-0.208234	-0.711811	-0.269688
Zn4	Zn	-0.295624	-0.711760	-0.382819
O5	O	-0.251936	-0.755492	-0.326270
O6	O	-0.219836	-0.872393	-0.367894
O7	O	-0.284083	-0.787559	-0.174974
O8	O	-0.135068	-0.723463	-0.284728
O9	O	-0.284074	-0.872334	-0.284733
O10	O	-0.135061	-0.787696	-0.367891
O11	O	-0.219851	-0.723385	-0.174971
O12	O	-0.219814	-0.638639	-0.284667
O13	O	-0.284011	-0.723376	-0.477544
O14	O	-0.284019	-0.638601	-0.367785
O15	O	-0.219799	-0.787646	-0.477590
O16	O	-0.368821	-0.787509	-0.284673
O17	O	-0.368794	-0.723298	-0.367788
C18	C	-0.251914	-0.619649	-0.326219
C19	C	-0.251917	-0.561535	-0.326214
C20	C	-0.387779	-0.755404	-0.326239
C21	C	-0.445893	-0.755414	-0.326248
C22	C	-0.285418	-0.201161	-0.369490
C23	C	-0.285421	-0.146557	-0.369499
O24	O	-0.313882	-0.118311	-0.406264
N25	N	-0.251945	-0.119252	-0.326293
C26	C	-0.218460	-0.146555	-0.283081
O27	O	-0.189985	-0.118317	-0.246332
C28	C	-0.218455	-0.201158	-0.283076
C29	C	-0.251937	-0.228460	-0.326279
C30	C	-0.318898	-0.228463	-0.412691
C31	C	-0.318895	-0.283064	-0.412681
C32	C	-0.285414	-0.310362	-0.369470
C33	C	-0.251935	-0.283061	-0.326269
C34	C	-0.184968	-0.228460	-0.239867
C35	C	-0.184965	-0.283067	-0.239866
C36	C	-0.218447	-0.310369	-0.283070
C37	C	-0.218451	-0.364960	-0.283049
N38	N	-0.251928	-0.392265	-0.326254
C39	C	-0.285409	-0.364966	-0.369465
C40	C	-0.218472	-0.031885	-0.283095
C41	C	-0.218479	0.022718	-0.283097
C42	C	-0.285440	0.022712	-0.369516
C43	C	-0.285435	-0.031891	-0.369511
C44	C	-0.251948	-0.059189	-0.326301
C45	C	-0.285402	-0.479631	-0.369440
C46	C	-0.285399	-0.534236	-0.369425
C47	C	-0.218436	-0.534226	-0.283008
C48	C	-0.218442	-0.479625	-0.283021
C49	C	-0.251926	-0.452329	-0.326243
O50	O	-0.190004	-0.393241	-0.246305
O51	O	-0.313874	-0.393211	-0.406214
C52	C	-0.806257	-0.789014	-0.283066
C53	C	-0.860862	-0.789034	-0.283075
O54	O	-0.889100	-0.817510	-0.246325
N55	N	-0.888175	-0.755583	-0.326315
C56	C	-0.860881	-0.722114	-0.369553
O57	O	-0.889127	-0.693665	-0.406334
C58	C	-0.806278	-0.722097	-0.369547
C59	C	-0.778967	-0.755546	-0.326299
C60	C	-0.778947	-0.822460	-0.239822
C61	C	-0.724346	-0.822439	-0.239812
C62	C	-0.697056	-0.788971	-0.283046
C63	C	-0.724367	-0.755525	-0.326290
C64	C	-0.778985	-0.688631	-0.412789
C65	C	-0.724378	-0.688617	-0.412779
C66	C	-0.697067	-0.722066	-0.369531
C67	C	-0.642476	-0.722036	-0.369514
N68	N	-0.615163	-0.755487	-0.326274
C69	C	-0.642453	-0.788954	-0.283040
C70	C	-0.975552	-0.722154	-0.369564
C71	C	-1.030154	-0.722168	-0.369567
C72	C	-1.030131	-0.789088	-0.283089
C73	C	-0.975527	-0.789071	-0.283083
C74	C	-0.948238	-0.755604	-0.326324
C75	C	-0.527788	-0.788907	-0.283022
C76	C	-0.473183	-0.788881	-0.283014
C77	C	-0.473211	-0.721963	-0.369494
C78	C	-0.527811	-0.721987	-0.369500
C79	C	-0.555098	-0.755463	-0.326262
O80	O	-0.614203	-0.693576	-0.406246
O81	O	-0.614200	-0.817404	-0.246272
C82	C	-0.115563	-0.755594	-0.326316
C83	C	-0.057449	-0.755638	-0.326335
C84	C	-0.251900	-0.755515	-0.502813
C85	C	-0.251884	-0.755524	-0.578045
C86	C	-0.251956	0.108135	-0.326312
C87	C	-0.251959	0.050021	-0.326310
C88	C	-0.218435	-0.722119	-0.613387
C89	C	-0.218425	-0.722126	-0.684075
C90	C	-0.251862	-0.755542	-0.719420
C91	C	-0.285314	-0.788949	-0.684073
C92	C	-0.285327	-0.788939	-0.613386
C93	C	-0.285265	-0.788990	-0.969146
C94	C	-0.285249	-0.788999	-1.039838
C95	C	-0.218364	-0.722178	-1.039836
C96	C	-0.218376	-0.722167	-0.969149
C97	C	-0.251830	-0.755572	-0.933808
C98	C	-0.251842	-0.755563	-0.857159
C99	C	-0.251848	-0.755554	-0.796067
C100	C	-0.251934	-0.755499	-0.150414
C101	C	-0.251803	-0.755590	-0.075182
H102	H	-0.312666	-0.556463	-0.404607
H103	H	-0.191190	-0.694922	-0.712848
O104	O	-0.697926	-0.656133	-0.454879
C105	C	-0.681165	-0.630720	-0.569980
C106	C	-0.711162	-0.667531	-0.522380
H107	H	-0.691847	-0.639929	-0.624564
H108	H	-0.691958	-0.588561	-0.558096
H109	H	-0.637450	-0.636441	-0.562513
H110	H	-0.754884	-0.661856	-0.529820
H111	H	-0.700326	-0.709676	-0.534275
O112	O	-0.317709	-0.821532	-1.074097
C113	C	-0.343086	-0.910452	-1.095780
C114	C	-0.306305	-0.873669	-1.056929
H115	H	-0.333871	-0.952612	-1.081924
H116	H	-0.385254	-0.901276	-1.081853
H117	H	-0.337337	-0.904695	-1.152369
H118	H	-0.312007	-0.879405	-1.000331
H119	H	-0.264150	-0.882854	-1.070913
H120	H	-0.157704	-0.206241	-0.204684
H121	H	-1.052360	-0.816341	-0.247888
O122	O	-0.185984	0.049173	-0.241024
C123	C	-0.160516	0.065917	-0.125943
C124	C	-0.197345	0.035921	-0.173516
H125	H	-0.169695	0.055222	-0.071352
H126	H	-0.118361	0.055137	-0.137869
H127	H	-0.166252	0.109633	-0.133393
H128	H	-0.191656	-0.007801	-0.166092
H129	H	-0.239487	0.046744	-0.161578
O130	O	-0.554366	-0.689436	-0.411409
C131	C	-0.616101	-0.618886	-0.420438
C132	C	-0.586058	-0.655705	-0.372892
H133	H	-0.641740	-0.591613	-0.389316
H134	H	-0.587236	-0.594924	-0.451321
H135	H	-0.641597	-0.642894	-0.455885
H136	H	-0.560562	-0.631738	-0.337404
H137	H	-0.614951	-0.679670	-0.342057
H138	H	-0.191179	-0.457395	-0.247840
O139	O	-0.697799	-0.854861	-0.197733
C140	C	-0.636175	-0.861938	-0.106370
C141	C	-0.666210	-0.825156	-0.153971
H142	H	-0.610620	-0.837937	-0.070986
H143	H	-0.665044	-0.885850	-0.075428
H144	H	-0.610595	-0.889266	-0.137494
H145	H	-0.691791	-0.797797	-0.122900
H146	H	-0.637312	-0.801281	-0.184915
H147	H	-0.191178	-0.556462	-0.247825
O148	O	-0.317829	-0.821420	-0.934899
C149	C	-0.406773	-0.846722	-0.913229
C150	C	-0.369954	-0.809966	-0.952069
H151	H	-0.448924	-0.837467	-0.927086
H152	H	-0.397633	-0.888896	-0.927165
H153	H	-0.401018	-0.840988	-0.856638
H154	H	-0.375689	-0.815653	-1.008669
H155	H	-0.379103	-0.767806	-0.938077
O156	O	-0.317844	-0.821426	-0.718300
C157	C	-0.384164	-0.887730	-0.710836
C158	C	-0.347361	-0.850965	-0.671992
H159	H	-0.408031	-0.911629	-0.673413
H160	H	-0.411528	-0.863737	-0.743894
H161	H	-0.360149	-0.915070	-0.743965
H162	H	-0.371335	-0.823618	-0.638826
H163	H	-0.319996	-0.874991	-0.638976
O164	O	-0.185971	-0.689707	-0.578951
C165	C	-0.156369	-0.660049	-0.470057
C166	C	-0.193151	-0.696793	-0.508968
H167	H	-0.162169	-0.665758	-0.413468
H168	H	-0.114197	-0.669264	-0.483925
H169	H	-0.165537	-0.617891	-0.483979
H170	H	-0.184030	-0.738963	-0.495067
H171	H	-0.235312	-0.687533	-0.495096
O172	O	-0.446721	-0.689383	-0.411424
C173	C	-0.430096	-0.600434	-0.444206
C174	C	-0.460118	-0.637266	-0.396660
H175	H	-0.440925	-0.558290	-0.432295
H176	H	-0.386372	-0.606124	-0.436771
H177	H	-0.440792	-0.609628	-0.498790
H178	H	-0.449466	-0.628095	-0.342057
H179	H	-0.503834	-0.631569	-0.404153
H180	H	-0.346162	-0.206242	-0.447881
O181	O	-0.317874	-0.821314	-0.579020
C182	C	-0.388458	-0.828278	-0.499156
C183	C	-0.351636	-0.791555	-0.538044
H184	H	-0.415757	-0.804233	-0.466007
H185	H	-0.412393	-0.852156	-0.536526
H186	H	-0.364454	-0.855640	-0.466109
H187	H	-0.375600	-0.764162	-0.571092
H188	H	-0.327700	-0.767715	-0.500637
O189	O	-0.318012	-0.058433	-0.411386
C190	C	-0.388586	-0.120070	-0.420334
C191	C	-0.351734	-0.090039	-0.372830
H192	H	-0.415853	-0.145639	-0.389182
H193	H	-0.412554	-0.091197	-0.451203
H194	H	-0.364604	-0.145635	-0.455796
H195	H	-0.375676	-0.064473	-0.337327
H196	H	-0.327765	-0.118940	-0.342008
H197	H	-0.312701	0.044949	-0.404702
O198	O	-0.317978	-0.453201	-0.411447
C199	C	-0.384370	-0.458984	-0.497189
C200	C	-0.347514	-0.488980	-0.449643
H201	H	-0.408252	-0.487898	-0.528094
H202	H	-0.411718	-0.433405	-0.466092
H203	H	-0.360396	-0.433436	-0.532617
H204	H	-0.371446	-0.514556	-0.414207
H205	H	-0.320165	-0.514526	-0.480783
H206	H	-0.346159	-0.305288	-0.447863
H207	H	-0.191204	-0.054107	-0.247904
H208	H	-0.191125	-0.694976	-1.068619
H209	H	-0.157692	-0.305290	-0.204683
O210	O	-0.805526	-0.854916	-0.197826
C211	C	-0.867227	-0.862073	-0.106485
C212	C	-0.837163	-0.825248	-0.153996
H213	H	-0.892804	-0.838100	-0.071028
H214	H	-0.892771	-0.889379	-0.137611
H215	H	-0.838329	-0.886005	-0.075612
H216	H	-0.866023	-0.801281	-0.184879
H217	H	-0.811611	-0.797976	-0.122831
H218	H	-0.450948	-0.816119	-0.247794
H219	H	-0.549999	-0.816167	-0.247815
H220	H	-1.052386	-0.694926	-0.404777
O221	O	-0.949081	-0.821614	-0.241053
C222	C	-0.954836	-0.887965	-0.155247
C223	C	-0.984848	-0.851143	-0.202823
H224	H	-0.983740	-0.911841	-0.124316
H225	H	-0.929248	-0.915318	-0.186322
H226	H	-0.929296	-0.863963	-0.119846
H227	H	-1.010416	-0.875103	-0.238233
H228	H	-1.010403	-0.823788	-0.171706
O229	O	-0.185880	-0.689658	-0.934921
C230	C	-0.119515	-0.623397	-0.942380
C231	C	-0.156298	-0.660181	-0.981227
H232	H	-0.095582	-0.599564	-0.979802
H233	H	-0.143498	-0.596001	-0.909287
H234	H	-0.092209	-0.647425	-0.909286
H235	H	-0.183612	-0.636195	-1.014358
H236	H	-0.132284	-0.687578	-1.014277
H237	H	-0.953336	-0.694897	-0.404774
H238	H	-0.801212	-0.661391	-0.448002
