data_functionalizedCrystal
_audit_creation_method	'MofGen! by Chris Wilmer'
_symmetry_space_group_name_H-M	'P1'
_symmetry_Int_Tables_number	1
_symmetry_cell_setting	triclinic
loop_
_symmetry_equiv_pos_as_xyz
  x,y,z
_cell_length_a	19.077105
_cell_length_b	29.839131
_cell_length_c	19.076919
_cell_angle_alpha	87.732541
_cell_angle_beta	89.923776
_cell_angle_gamma	87.737628
loop_
_atom_site_label
_atom_site_type_symbol
_atom_site_fract_x
_atom_site_fract_y
_atom_site_fract_z
Zn1	Zn	1.058171	-0.217337	0.440392
Zn2	Zn	1.558171	0.282663	0.940392
Zn3	Zn	1.062777	-0.289569	0.322877
Zn4	Zn	1.562777	0.210431	0.822877
Zn5	Zn	0.945391	-0.211319	0.318186
Zn6	Zn	1.445391	0.288681	0.818186
Zn7	Zn	0.940599	-0.289298	0.435629
Zn8	Zn	1.440599	0.210702	0.935629
O9	O	1.001735	-0.251881	0.379271
O10	O	1.501735	0.248119	0.879271
O11	O	1.157112	-0.229551	0.428760
O12	O	1.657112	0.270449	0.928760
O13	O	1.051139	-0.276784	0.223924
O14	O	1.551139	0.223216	0.723924
O15	O	0.960429	-0.149253	0.334427
O16	O	1.460429	0.350747	0.834427
O17	O	1.160497	-0.282620	0.342422
O18	O	1.660497	0.217380	0.842422
O19	O	1.043288	-0.153674	0.424211
O20	O	1.543288	0.346326	0.924211
O21	O	0.964896	-0.219294	0.220477
O22	O	1.464896	0.280706	0.720477
O23	O	0.846425	-0.219031	0.329809
O24	O	1.346425	0.280969	0.829809
O25	O	0.952262	-0.282158	0.534592
O26	O	1.452262	0.217842	1.034592
O27	O	0.842904	-0.276322	0.416094
O28	O	1.342904	0.223678	0.916094
O29	O	1.038641	-0.229288	0.538091
O30	O	1.538641	0.270712	1.038091
O31	O	1.046493	-0.352398	0.337803
O32	O	1.546493	0.147602	0.837803
O33	O	0.956729	-0.352199	0.420642
O34	O	1.456729	0.147801	0.920642
C35	C	0.819169	-0.246995	0.371926
C36	C	1.319169	0.253005	0.871926
C37	C	0.741065	-0.244915	0.368801
C38	C	1.241065	0.255085	0.868801
C39	C	0.702560	-0.273809	0.412186
C40	C	1.202560	0.226191	0.912186
C41	C	0.629174	-0.271849	0.409252
C42	C	1.129174	0.228151	0.909252
C43	C	0.594294	-0.240998	0.362930
C44	C	1.094294	0.259002	0.862930
C45	C	0.632804	-0.212102	0.319543
C46	C	1.132804	0.287898	0.819543
C47	C	0.706189	-0.214059	0.322481
C48	C	1.206189	0.285941	0.822481
C49	C	0.375011	-0.231938	0.349338
C50	C	0.875011	0.268062	0.849338
C51	C	0.301621	-0.229984	0.346403
C52	C	0.801621	0.270016	0.846403
C53	C	0.297996	-0.289731	0.436113
C54	C	0.797996	0.210269	0.936113
C55	C	0.371382	-0.291688	0.439043
C56	C	0.871382	0.208312	0.939043
C57	C	0.409886	-0.262790	0.395659
C58	C	0.909886	0.237210	0.895659
N59	N	0.519281	-0.238996	0.359929
N60	N	1.019281	0.261004	0.859929
N61	N	0.484897	-0.264790	0.398664
N62	N	0.984897	0.235210	0.898664
C63	C	1.001609	-0.368599	0.379231
C64	C	1.501609	0.131401	0.879231
C65	C	1.001619	-0.418534	0.379240
C66	C	1.501619	0.081466	0.879240
C67	C	1.048554	-0.728276	0.336206
C68	C	1.548554	-0.228276	0.836206
C69	C	1.048639	-0.915952	0.336237
C70	C	1.548639	-0.415952	0.836237
O71	O	1.088445	-0.940297	0.299616
O72	O	1.588445	-0.440297	0.799616
N73	N	1.001878	-0.939328	0.379330
N74	N	1.501878	-0.439328	0.879330
C75	C	0.955095	-0.915782	0.422422
C76	C	1.455095	-0.415782	0.922422
O77	O	0.915329	-0.939972	0.459082
O78	O	1.415329	-0.439972	0.959082
C79	C	0.955014	-0.728107	0.422395
C80	C	1.455014	-0.228107	0.922395
C81	C	1.001773	-0.704734	0.379293
C82	C	1.501773	-0.204734	0.879293
C83	C	1.095310	-0.704902	0.293109
C84	C	1.595310	-0.204902	0.793109
C85	C	1.095285	-0.657986	0.293099
C86	C	1.595285	-0.157986	0.793099
C87	C	1.048505	-0.634443	0.336186
C88	C	1.548505	-0.134443	0.836186
C89	C	1.001749	-0.657817	0.379283
C90	C	1.501749	-0.157817	0.879283
C91	C	0.908235	-0.704563	0.465490
C92	C	1.408235	-0.204563	0.965490
C93	C	0.908220	-0.657641	0.465480
C94	C	1.408220	-0.157641	0.965480
C95	C	0.954979	-0.634267	0.422379
C96	C	1.454979	-0.134267	0.922379
C97	C	0.954944	-0.587358	0.422360
C98	C	1.454944	-0.087358	0.922360
N99	N	1.001705	-0.563982	0.379267
N100	N	1.501705	-0.063982	0.879267
C101	C	1.048485	-0.587525	0.336180
C102	C	1.548485	-0.087525	0.836180
C103	C	0.955141	-1.014314	0.422432
C104	C	1.455141	-0.514314	0.922432
C105	C	0.955160	-1.061233	0.422439
C106	C	1.455160	-0.561233	0.922439
C107	C	1.048705	-1.061399	0.336254
C108	C	1.548705	-0.561399	0.836254
C109	C	1.048682	-1.014480	0.336245
C110	C	1.548682	-0.514480	0.836245
C111	C	1.001902	-0.990938	0.379339
C112	C	1.501902	-0.490938	0.879339
C113	C	1.048430	-0.488997	0.336161
C114	C	1.548430	0.011003	0.836161
C115	C	1.048399	-0.442077	0.336153
C116	C	1.548399	0.057923	0.836153
C117	C	0.954857	-0.441914	0.422340
C118	C	1.454857	0.058086	0.922340
C119	C	0.954885	-0.488831	0.422346
C120	C	1.454885	0.011169	0.922346
C121	C	1.001677	-0.512371	0.379255
C122	C	1.501677	-0.012371	0.879255
O123	O	0.915164	-0.562985	0.458967
O124	O	1.415164	-0.062985	0.958967
O125	O	1.088256	-0.563328	0.299537
O126	O	1.588256	-0.063328	0.799537
C127	C	1.048578	-0.775192	0.336216
C128	C	1.548578	-0.275192	0.836216
C129	C	1.001822	-0.798566	0.379313
C130	C	1.501822	-0.298566	0.879313
C131	C	0.955041	-0.775024	0.422401
C132	C	1.455041	-0.275024	0.922401
C133	C	1.001841	-0.845485	0.379319
C134	C	1.501841	-0.345485	0.879319
C135	C	1.048622	-0.869027	0.336232
C136	C	1.548622	-0.369027	0.836232
C137	C	1.095383	-0.845651	0.293139
C138	C	1.595383	-0.345651	0.793139
C139	C	1.095359	-0.798735	0.293129
C140	C	1.595359	-0.298735	0.793129
C141	C	0.908280	-0.798400	0.465494
C142	C	1.408280	-0.298400	0.965494
C143	C	0.908308	-0.845316	0.465500
C144	C	1.408308	-0.345316	0.965500
C145	C	0.955089	-0.868859	0.422413
C146	C	1.455089	-0.368859	0.922413
C147	C	1.185013	-0.256787	0.386645
C148	C	1.685013	0.243213	0.886645
C149	C	1.263116	-0.258877	0.389788
C150	C	1.763116	0.241123	0.889788
C151	C	0.994403	-0.256364	0.562551
C152	C	1.494403	0.243636	1.062551
C153	C	0.991279	-0.258274	0.640654
C154	C	1.491279	0.241726	1.140654
C155	C	1.001879	-0.134708	0.379327
C156	C	1.501879	0.365292	0.879327
C157	C	1.001941	-0.084775	0.379351
C158	C	1.501941	0.415225	0.879351
C159	C	1.009078	-0.247384	0.196706
C160	C	1.509078	0.252616	0.696706
C161	C	1.012338	-0.245351	0.118609
C162	C	1.512338	0.254649	0.618609
C163	C	1.034782	-0.231647	0.679169
C164	C	1.534782	0.268353	1.179169
C165	C	1.031838	-0.233440	0.752555
C166	C	1.531838	0.266560	1.252555
C167	C	0.985394	-0.261863	0.787424
C168	C	1.485394	0.238137	1.287424
C169	C	0.941886	-0.288492	0.748903
C170	C	1.441886	0.211508	1.248903
C171	C	0.944827	-0.286696	0.675518
C172	C	1.444827	0.213304	1.175518
C173	C	0.971772	-0.270184	1.006704
C174	C	1.471772	0.229816	1.506704
C175	C	0.968835	-0.271978	1.080093
C176	C	1.468835	0.228022	1.580093
C177	C	1.058787	-0.216925	1.083741
C178	C	1.558787	0.283075	1.583741
C179	C	1.061727	-0.215134	1.010355
C180	C	1.561727	0.284866	1.510355
C181	C	1.018216	-0.241761	0.971840
C182	C	1.518216	0.258239	1.471840
N183	N	0.982385	-0.263698	0.862436
N184	N	1.482385	0.236302	1.362436
N185	N	1.021222	-0.239924	0.896830
N186	N	1.521222	0.260076	1.396830
H187	H	0.273224	-0.204856	0.308686
H188	H	0.773224	0.295144	0.808686
C189	C	1.078949	-0.204466	0.794398
C190	C	1.578949	0.295534	1.294398
C191	C	1.037507	-0.175627	0.834916
C192	C	1.537507	0.324373	1.334916
C193	C	1.080880	-0.148921	0.873461
C194	C	1.580880	0.351079	1.373461
H195	H	1.108412	-0.223115	0.824314
H196	H	1.608412	0.276885	1.324314
H197	H	1.107015	-0.187257	0.763138
H198	H	1.607015	0.312743	1.263138
H199	H	1.009453	-0.192834	0.866173
H200	H	1.509453	0.307166	1.366173
H201	H	1.008045	-0.156969	0.805018
H202	H	1.508045	0.343031	1.305018
H203	H	1.108946	-0.131712	0.842201
H204	H	1.608946	0.368288	1.342201
H205	H	1.110341	-0.167574	0.903373
H206	H	1.610341	0.332426	1.403373
H207	H	1.052768	-0.129348	0.900952
H208	H	1.552768	0.370652	1.400952
H209	H	0.597826	-0.295378	0.444580
H210	H	1.097826	0.204622	0.944580
H211	H	1.086534	-0.508158	0.301074
H212	H	1.586534	-0.008158	0.801074
H213	H	1.099548	-0.191990	0.981970
H214	H	1.599548	0.308010	1.481970
H215	H	0.737539	-0.190529	0.287155
H216	H	1.237539	0.309471	0.787155
H217	H	0.916767	-0.422739	0.457419
H218	H	1.416767	0.077261	0.957419
H219	H	1.094209	-0.195246	1.115107
H220	H	1.594209	0.304754	1.615107
C221	C	0.256316	-0.321151	0.483255
C222	C	0.756316	0.178849	0.983255
C223	C	0.302571	-0.348593	0.524442
C224	C	0.802571	0.151407	1.024442
C225	C	0.264202	-0.377545	0.567877
C226	C	0.764202	0.122455	1.067877
H227	H	0.226484	-0.304031	0.512836
H228	H	0.726484	0.195969	1.012836
H229	H	0.228752	-0.339303	0.455196
H230	H	0.728752	0.160697	0.955196
H231	H	0.330123	-0.330443	0.552499
H232	H	0.830123	0.169557	1.052499
H233	H	0.332403	-0.365722	0.494879
H234	H	0.832403	0.134278	0.994879
H235	H	0.236637	-0.395697	0.539817
H236	H	0.736637	0.104303	1.039817
H237	H	0.234371	-0.360422	0.597453
H238	H	0.734371	0.139578	1.097453
H239	H	0.295580	-0.396171	0.595822
H240	H	0.795580	0.103829	1.095822
H241	H	1.086757	-0.995452	0.301148
H242	H	1.586757	-0.495452	0.801148
H243	H	0.936353	-0.291872	0.975354
H244	H	1.436353	0.208128	1.475354
C245	C	0.904500	-1.086668	0.469276
C246	C	1.404500	-0.586668	0.969276
C247	C	0.942457	-1.115740	0.515940
C248	C	1.442457	-0.615740	1.015940
C249	C	0.895814	-1.139180	0.559096
C250	C	1.395814	-0.639180	1.059096
H251	H	0.876621	-1.065976	0.495001
H252	H	1.376621	-0.565976	0.995001
H253	H	0.874996	-1.103548	0.441167
H254	H	1.374996	-0.603548	0.941167
H255	H	0.971948	-1.098861	0.544046
H256	H	1.471948	-0.598861	1.044046
H257	H	0.970333	-1.136441	0.490234
H258	H	1.470333	-0.636441	0.990234
H259	H	0.866310	-1.156060	0.530987
H260	H	1.366310	-0.656060	1.030987
H261	H	0.867938	-1.118485	0.584817
H262	H	1.367938	-0.618485	1.084817
H263	H	0.921560	-1.158911	0.590758
H264	H	1.421560	-0.658911	1.090758
H265	H	1.072604	-0.208503	0.650785
H266	H	1.572604	0.291497	1.150785
C267	C	0.918334	-0.302851	1.117823
C268	C	1.418334	0.197149	1.617823
C269	C	0.880845	-0.325777	1.068387
C270	C	1.380845	0.174223	1.568387
C271	C	0.834316	-0.354215	1.103117
C272	C	1.334316	0.145785	1.603117
H273	H	0.943965	-0.323883	1.147521
H274	H	1.443965	0.176117	1.647521
H275	H	0.886559	-0.285555	1.145211
H276	H	1.386559	0.214445	1.645211
H277	H	0.912616	-0.343072	1.041010
H278	H	1.412616	0.156928	1.541010
H279	H	0.855200	-0.304756	1.038687
H280	H	1.355200	0.195244	1.538687
H281	H	0.802540	-0.336919	1.130505
H282	H	1.302540	0.163081	1.630505
H283	H	0.859952	-0.375245	1.132814
H284	H	1.359952	0.124755	1.632814
H285	H	0.808869	-0.369771	1.069580
H286	H	1.308869	0.130229	1.569580
C287	C	0.891530	-0.319340	0.786887
C288	C	1.391530	0.180660	1.286887
C289	C	0.898278	-0.315223	0.859399
C290	C	1.398278	0.184777	1.359399
C291	C	0.851909	-0.343639	0.894411
C292	C	1.351909	0.156361	1.394411
H293	H	0.844776	-0.311236	0.773045
H294	H	1.344776	0.188764	1.273045
H295	H	0.902263	-0.349515	0.775300
H296	H	1.402263	0.150485	1.275300
H297	H	0.887541	-0.285054	0.870982
H298	H	1.387541	0.214946	1.370982
H299	H	0.945022	-0.323330	0.873261
H300	H	1.445022	0.176670	1.373261
H301	H	0.862641	-0.373814	0.882823
H302	H	1.362641	0.126186	1.382823
H303	H	0.805157	-0.335533	0.880563
H304	H	1.305157	0.164467	1.380563
H305	H	0.856485	-0.340853	0.943614
H306	H	1.356485	0.159147	1.443614
C307	C	0.409334	-0.325111	0.489390
C308	C	0.909334	0.174889	0.989390
C309	C	0.449707	-0.301946	0.536176
C310	C	0.949707	0.198054	1.036176
C311	C	0.484683	-0.332722	0.582560
C312	C	0.984683	0.167278	1.082560
H313	H	0.375965	-0.342051	0.514879
H314	H	0.875965	0.157949	1.014879
H315	H	0.439054	-0.344759	0.463624
H316	H	0.939054	0.155241	0.963624
H317	H	0.419989	-0.282305	0.561939
H318	H	0.919989	0.217695	1.061939
H319	H	0.483087	-0.285008	0.510707
H320	H	0.983087	0.214992	1.010707
H321	H	0.514403	-0.352370	0.556794
H322	H	1.014403	0.147630	1.056794
H323	H	0.451309	-0.349659	0.608043
H324	H	0.951309	0.150341	1.108043
H325	H	0.512085	-0.317008	0.614306
H326	H	1.012085	0.182992	1.114306
H327	H	0.406352	-0.208411	0.314006
H328	H	0.906352	0.291589	0.814006
H329	H	1.086796	-1.080576	0.301171
H330	H	1.586796	-0.580576	0.801171
C331	C	0.594809	-0.178650	0.269275
C332	C	1.094809	0.321350	0.769275
C333	C	0.522300	-0.183126	0.275974
C334	C	1.022300	0.316874	0.775974
C335	C	0.487279	-0.152321	0.229671
C336	C	0.987279	0.347679	0.729671
H337	H	0.606372	-0.149029	0.280083
H338	H	1.106372	0.350971	0.780083
H339	H	0.608668	-0.184343	0.222506
H340	H	1.108668	0.315657	0.722506
H341	H	0.508446	-0.177429	0.322732
H342	H	1.008446	0.322571	0.822732
H343	H	0.510716	-0.212740	0.265159
H344	H	1.010716	0.287260	0.765159
H345	H	0.501138	-0.158015	0.182902
H346	H	1.001138	0.341985	0.682902
H347	H	0.498847	-0.122703	0.240483
H348	H	0.998847	0.377297	0.740483
H349	H	0.438078	-0.155357	0.234205
H350	H	0.938078	0.344643	0.734205
H351	H	1.086476	-0.423047	0.301052
H352	H	1.586476	0.076953	0.801052
C353	C	0.897573	-0.315665	0.633824
C354	C	1.397573	0.184335	1.133824
C355	C	0.856287	-0.340954	0.680066
C356	C	1.356287	0.159046	1.180066
C357	C	0.812756	-0.367651	0.641684
C358	C	1.312756	0.132349	1.141684
H359	H	0.868061	-0.297014	0.603962
H360	H	1.368061	0.202986	1.103962
H361	H	0.925568	-0.335280	0.606289
H362	H	1.425568	0.164720	1.106289
H363	H	0.828295	-0.321341	0.707589
H364	H	1.328295	0.178659	1.207589
H365	H	0.885781	-0.359614	0.709929
H366	H	1.385781	0.140386	1.209929
H367	H	0.840750	-0.387267	0.614150
H368	H	1.340750	0.112733	1.114150
H369	H	0.783248	-0.348996	0.611824
H370	H	1.283248	0.151004	1.111824
H371	H	0.784743	-0.384816	0.673054
H372	H	1.284743	0.115184	1.173054
C373	C	1.146140	-0.632695	0.246287
C374	C	1.646140	-0.132695	0.746287
C375	C	1.187123	-0.663364	0.208577
C376	C	1.687123	-0.163364	0.708577
C377	C	1.233990	-0.640087	0.165456
C378	C	1.733990	-0.140087	0.665456
H379	H	1.120594	-0.612947	0.214501
H380	H	1.620594	-0.112947	0.714501
H381	H	1.175690	-0.615854	0.274409
H382	H	1.675690	-0.115854	0.774409
H383	H	1.157577	-0.680197	0.180458
H384	H	1.657577	-0.180197	0.680458
H385	H	1.212684	-0.683113	0.240345
H386	H	1.712684	-0.183113	0.740345
H387	H	1.263540	-0.623246	0.193577
H388	H	1.763540	-0.123246	0.693577
H389	H	1.208437	-0.620339	0.133674
H390	H	1.708437	-0.120339	0.633674
H391	H	1.261806	-0.660892	0.139869
H392	H	1.761806	-0.160892	0.639869
H393	H	0.730954	-0.298932	0.449904
H394	H	1.230954	0.201068	0.949904
H395	H	0.917045	-0.995150	0.457526
H396	H	1.417045	-0.495150	0.957526
C397	C	1.146233	-0.730471	0.246470
C398	C	1.646233	-0.230471	0.746470
C399	C	1.189675	-0.759519	0.288133
C400	C	1.689675	-0.259519	0.788133
C401	C	1.236621	-0.783064	0.245201
C402	C	1.736621	-0.283064	0.745201
H403	H	1.120745	-0.747380	0.214717
H404	H	1.620745	-0.247380	0.714717
H405	H	1.174110	-0.709826	0.220846
H406	H	1.674110	-0.209826	0.720846
H407	H	1.161801	-0.780161	0.313746
H408	H	1.661801	-0.280161	0.813746
H409	H	1.215179	-0.742621	0.319885
H410	H	1.715179	-0.242621	0.819885
H411	H	1.264498	-0.762419	0.219576
H412	H	1.764498	-0.262419	0.719576
H413	H	1.211126	-0.799971	0.213450
H414	H	1.711126	-0.299971	0.713450
H415	H	1.266106	-0.802773	0.273463
H416	H	1.766106	-0.302773	0.773463
H417	H	0.870155	-0.723586	0.500584
H418	H	1.370155	-0.223586	1.000584
C419	C	0.857465	-0.632143	0.512386
C420	C	1.357465	-0.132143	1.012386
C421	C	0.869929	-0.645647	0.582535
C422	C	1.369929	-0.145647	1.082535
C423	C	0.823183	-0.622172	0.625762
C424	C	1.323183	-0.122172	1.125762
H425	H	0.864098	-0.600846	0.506305
H426	H	1.364098	-0.100846	1.006305
H427	H	0.810663	-0.638363	0.500212
H428	H	1.310663	-0.138363	1.000212
H429	H	0.916720	-0.639423	0.594705
H430	H	1.416720	-0.139423	1.094705
H431	H	0.863291	-0.676940	0.588638
H432	H	1.363291	-0.176940	1.088638
H433	H	0.776381	-0.628392	0.613588
H434	H	1.276381	-0.128392	1.113588
H435	H	0.829819	-0.590877	0.619675
H436	H	1.329819	-0.090877	1.119675
H437	H	0.831629	-0.631334	0.673362
H438	H	1.331629	-0.131334	1.173362
C439	C	0.904087	-0.514131	0.469215
C440	C	1.404087	-0.014131	0.969215
C441	C	0.863124	-0.483469	0.506957
C442	C	1.363124	0.016531	1.006957
C443	C	0.816334	-0.506756	0.550154
C444	C	1.316334	-0.006756	1.050154
H445	H	0.874512	-0.530991	0.441165
H446	H	1.374512	-0.030991	0.941165
H447	H	0.929713	-0.533862	0.500977
H448	H	1.429713	-0.033862	1.000977
H449	H	0.837500	-0.463746	0.475200
H450	H	1.337500	0.036254	0.975200
H451	H	0.892680	-0.466607	0.535021
H452	H	1.392680	0.033393	1.035021
H453	H	0.841960	-0.526488	0.581916
H454	H	1.341960	-0.026488	1.081916
H455	H	0.786764	-0.523616	0.522099
H456	H	1.286764	-0.023616	1.022099
H457	H	0.788540	-0.485956	0.575772
H458	H	1.288540	0.014044	1.075772
H459	H	1.133435	-0.779707	0.258032
H460	H	1.633435	-0.279707	0.758032
C461	C	1.146165	-0.871300	0.246455
C462	C	1.646165	-0.371300	0.746455
C463	C	1.136191	-0.917392	0.255718
C464	C	1.636191	-0.417392	0.755718
C465	C	1.182973	-0.941038	0.212747
C466	C	1.682973	-0.441038	0.712747
H467	H	1.137875	-0.862266	0.198785
H468	H	1.637875	-0.362266	0.698785
H469	H	1.192960	-0.865113	0.258704
H470	H	1.692960	-0.365113	0.758704
H471	H	1.089407	-0.923577	0.243465
H472	H	1.589407	-0.423577	0.743465
H473	H	1.144486	-0.926440	0.303379
H474	H	1.644486	-0.426440	0.803379
H475	H	1.229768	-0.934850	0.224996
H476	H	1.729768	-0.434850	0.724996
H477	H	1.174679	-0.932000	0.165080
H478	H	1.674679	-0.432000	0.665080
H479	H	1.176216	-0.972313	0.219031
H480	H	1.676216	-0.472313	0.719031
H481	H	0.870225	-0.864343	0.500597
H482	H	1.370225	-0.364343	1.000597
C483	C	0.857404	-0.772923	0.512296
C484	C	1.357404	-0.272923	1.012296
C485	C	0.816450	-0.803441	0.550019
C486	C	1.316450	-0.303441	1.050019
C487	C	0.769562	-0.779991	0.593131
C488	C	1.269562	-0.279991	1.093131
H489	H	0.882933	-0.756057	0.544075
H490	H	1.382933	-0.256057	1.044075
H491	H	0.827836	-0.753183	0.484168
H492	H	1.327836	-0.253183	0.984168
H493	H	0.846014	-0.823174	0.578145
H494	H	1.346014	-0.323174	1.078145
H495	H	0.790905	-0.820308	0.518257
H496	H	1.290905	-0.320308	1.018257
H497	H	0.739994	-0.760251	0.565003
H498	H	1.239994	-0.260251	1.065003
H499	H	0.795097	-0.763125	0.624906
H500	H	1.295097	-0.263125	1.124906
H501	H	0.741765	-0.800693	0.618726
H502	H	1.241765	-0.300693	1.118726
