data_functionalizedCrystal
_audit_creation_method	'MofGen! by Chris Wilmer'
_symmetry_space_group_name_H-M	'P1'
_symmetry_Int_Tables_number	1
_symmetry_cell_setting	triclinic
loop_
_symmetry_equiv_pos_as_xyz
  x,y,z
_cell_length_a	19.077212
_cell_length_b	18.050590
_cell_length_c	18.050571
_cell_angle_alpha	89.910881
_cell_angle_beta	87.635582
_cell_angle_gamma	92.310617
loop_
_atom_site_label
_atom_site_type_symbol
_atom_site_fract_x
_atom_site_fract_y
_atom_site_fract_z
Zn1	Zn	1.076373	-0.249657	-0.465664
Zn2	Zn	1.076209	-0.373990	-0.341465
Zn3	Zn	0.958580	-0.254798	-0.336481
Zn4	Zn	0.958649	-0.378793	-0.460617
O5	O	1.017453	-0.314309	-0.401056
O6	O	1.174847	-0.261988	-0.453387
O7	O	1.060508	-0.358320	-0.236875
O8	O	0.974245	-0.150189	-0.353643
O9	O	1.174727	-0.353335	-0.362139
O10	O	1.060787	-0.146412	-0.448554
O11	O	0.974086	-0.270750	-0.233213
O12	O	0.860093	-0.275408	-0.348749
O13	O	0.974363	-0.361522	-0.565215
O14	O	0.860144	-0.366507	-0.439951
O15	O	1.060854	-0.266646	-0.568923
O16	O	1.060575	-0.478553	-0.357244
O17	O	0.974204	-0.482082	-0.444784
C18	C	0.834579	-0.322037	-0.393262
C19	C	0.756345	-0.325361	-0.389945
C20	C	0.315963	-0.349168	-0.366190
C21	C	0.389472	-0.346041	-0.369301
C22	C	0.426291	-0.296996	-0.418442
C23	C	0.389598	-0.251069	-0.464470
C24	C	0.316090	-0.254193	-0.461355
C25	C	0.646144	-0.282558	-0.432858
C26	C	0.719657	-0.279439	-0.435971
C27	C	0.719526	-0.374411	-0.340801
C28	C	0.646017	-0.377533	-0.337693
C29	C	0.609329	-0.331604	-0.383718
N30	N	0.501430	-0.293800	-0.421625
N31	N	0.534192	-0.334796	-0.380531
C32	C	1.017399	-0.507264	-0.401025
C33	C	1.017440	-0.589808	-0.401038
C34	C	1.064506	-0.787308	-0.353508
C35	C	1.081748	-0.835839	-0.422021
C36	C	1.017480	-0.740936	-0.401070
C37	C	1.000309	-0.839484	-0.332590
C38	C	1.017520	-0.886920	-0.401094
C39	C	1.034755	-0.788379	-0.469620
C40	C	0.953286	-0.792021	-0.380142
C41	C	0.970504	-0.840530	-0.448701
C42	C	1.017459	-0.656839	-0.401055
C43	C	1.017541	-0.971015	-0.401117
C44	C	1.201040	-0.306552	-0.408882
C45	C	1.279274	-0.303246	-0.412216
C46	C	1.017634	-0.314046	-0.594770
C47	C	1.017712	-0.313934	-0.677320
C48	C	1.017526	-0.120601	-0.401106
C49	C	1.017558	-0.038053	-0.401126
C50	C	1.017312	-0.314516	-0.208098
C51	C	1.017371	-0.314413	-0.125555
C52	C	0.970218	-0.266894	0.125231
C53	C	0.953402	-0.335540	0.076765
C54	C	1.017597	-0.314097	0.171555
C55	C	1.034268	-0.245614	0.072945
C56	C	1.017484	-0.314249	0.025575
C57	C	1.000749	-0.382779	0.124179
C58	C	1.081644	-0.292806	0.120362
C59	C	1.064853	-0.361497	0.071918
C60	C	1.017660	-0.314009	0.255651
C61	C	1.017421	-0.314345	-0.058518
H62	H	0.616043	-0.417470	-0.297677
H63	H	1.135841	-0.274711	0.139625
C64	C	0.759888	-0.424921	-0.290169
N65	N	0.790289	-0.462965	-0.252027
C66	C	1.155110	-0.861972	-0.445951
N67	N	1.210367	-0.881653	-0.463970
H68	H	1.104288	-0.764000	-0.313330
C69	C	1.054487	-0.758213	-0.547896
N70	N	1.069353	-0.735490	-0.606852
C71	C	0.916799	-0.871832	-0.503117
N72	N	0.876351	-0.895408	-0.544104
H73	H	0.749633	-0.239495	-0.475987
H74	H	0.898997	-0.772664	-0.362407
C75	C	0.605797	-0.232039	-0.483493
N76	N	0.575406	-0.193988	-0.521635
C77	C	0.430102	-0.197116	-0.518524
N78	N	0.460608	-0.156479	-0.559239
H79	H	0.985770	-0.861904	-0.274668
C80	C	0.429826	-0.396559	-0.318669
N81	N	0.460220	-0.434611	-0.280530
H82	H	0.286219	-0.216796	-0.498832
H83	H	1.048417	-0.187634	0.050474
H84	H	0.930169	-0.226964	0.148577
C85	C	0.880165	-0.359960	0.050760
N86	N	0.825002	-0.378348	0.031174
H87	H	0.986539	-0.440778	0.146564
H88	H	0.285990	-0.389110	-0.326178
C89	C	1.118916	-0.415577	0.040560
N90	N	1.159632	-0.456313	0.016939
