data_functionalizedCrystal
_audit_creation_method	'MofGen! by Chris Wilmer'
_symmetry_space_group_name_H-M	'P1'
_symmetry_Int_Tables_number	1
_symmetry_cell_setting	triclinic
loop_
_symmetry_equiv_pos_as_xyz
  x,y,z
_cell_length_a	9.065218
_cell_length_b	9.065218
_cell_length_c	7.540329
_cell_angle_alpha	89.996808
_cell_angle_beta	90.002023
_cell_angle_gamma	94.984115
loop_
_atom_site_label
_atom_site_type_symbol
_atom_site_fract_x
_atom_site_fract_y
_atom_site_fract_z
O1	O	1.960394	-0.216358	0.147524
O2	O	2.460394	0.283642	0.647524
O3	O	1.531109	-0.234105	0.147516
O4	O	2.031109	0.265895	0.647516
O5	O	1.754624	-0.010589	0.147517
O6	O	2.254624	0.489411	0.647517
O7	O	1.736878	-0.439874	0.147524
O8	O	2.236878	0.060126	0.647524
O9	O	1.754621	-0.010579	-0.147448
O10	O	2.254621	0.489421	0.352552
O11	O	1.531105	-0.234095	-0.147449
O12	O	2.031105	0.265905	0.352551
O13	O	1.960390	-0.216348	-0.147441
O14	O	2.460390	0.283652	0.352559
Cu15	Cu	1.745747	-0.225221	-0.174378
Cu16	Cu	2.245747	0.274779	0.325622
Cu17	Cu	1.745752	-0.225232	0.174453
Cu18	Cu	2.245752	0.274768	0.674453
O19	O	1.736874	-0.439864	-0.147441
O20	O	2.236874	0.060136	0.352559
C21	C	1.476120	-0.232394	0.000033
C22	C	1.976120	0.267606	0.500033
C23	C	1.312277	-0.227294	0.000030
C24	C	1.812277	0.272706	0.500030
N25	N	1.745755	-0.225212	-0.419726
N26	N	2.245755	0.274788	0.080274
C27	C	1.752917	0.044403	0.000037
C28	C	2.252917	0.544403	0.500037
C29	C	1.747817	0.208245	0.000045
C30	C	2.247817	0.708245	0.500045
C31	C	2.015378	-0.218059	0.000047
C32	C	2.515378	0.281941	0.500047
C33	C	2.179221	-0.223158	0.000061
C34	C	2.679221	0.276842	0.500061
C35	C	1.738582	-0.494855	0.000042
C36	C	2.238582	0.005145	0.500042
C37	C	1.743681	-0.658698	0.000045
C38	C	2.243681	-0.158698	0.500045
N39	N	1.745756	-0.225230	0.419801
N40	N	2.245756	0.274770	0.919801
