data_functionalizedCrystal
_audit_creation_method	'MofGen! by Chris Wilmer'
_symmetry_space_group_name_H-M	'P1'
_symmetry_Int_Tables_number	1
_symmetry_cell_setting	triclinic
loop_
_symmetry_equiv_pos_as_xyz
  x,y,z
_cell_length_a	23.096457
_cell_length_b	21.606444
_cell_length_c	21.606444
_cell_angle_alpha	60.001331
_cell_angle_beta	90.000061
_cell_angle_gamma	59.998565
loop_
_atom_site_label
_atom_site_type_symbol
_atom_site_fract_x
_atom_site_fract_y
_atom_site_fract_z
Zr1	Zr	0.557754	0.677461	-0.081223
O2	O	0.465300	0.806582	-0.180042
O3	O	0.586097	0.548342	-0.050932
O4	O	0.586090	0.677466	-0.180051
O5	O	0.465312	0.677454	0.050931
O6	O	0.681370	0.677468	-0.180054
O7	O	0.465307	0.677458	-0.050923
O8	O	0.681383	0.446488	0.050915
O9	O	0.465299	0.908433	-0.180038
O10	O	0.669291	0.601451	-0.038013
O11	O	0.598188	0.601447	0.038002
O12	O	0.598179	0.753473	-0.114018
O13	O	0.527076	0.753469	-0.038002
Zr14	Zr	0.709723	0.677457	0.081217
Zr15	Zr	0.709715	0.677464	-0.081229
Zr16	Zr	0.557762	0.677454	0.081223
Zr17	Zr	0.557753	0.839901	-0.081217
Zr18	Zr	0.709725	0.515017	0.081212
O19	O	0.681380	0.806576	0.050927
O20	O	0.681369	0.806586	-0.180050
O21	O	0.465311	0.806572	0.050935
O22	O	0.802177	0.548336	0.180036
O23	O	0.802167	0.548346	-0.050941
O24	O	0.586108	0.548332	0.180044
O25	O	0.802165	0.677464	-0.050936
O26	O	0.681387	0.677452	0.180045
O27	O	0.586107	0.677450	0.180049
O28	O	0.802170	0.677460	0.050918
O29	O	0.586088	0.908435	-0.180043
O30	O	0.681390	0.446483	0.180037
O31	O	0.802178	0.446485	0.180033
O32	O	0.802172	0.446491	0.050910
O33	O	0.465305	0.908427	-0.050916
O34	O	0.586094	0.908429	-0.050921
O35	O	0.669298	0.601445	0.114012
O36	O	0.740401	0.601449	0.037997
O37	O	0.669289	0.753471	-0.038008
O38	O	0.598186	0.753467	0.038007
C39	C	0.633741	0.474271	-0.000009
C40	C	0.633741	0.405311	-0.000012
C41	C	0.670855	0.372916	-0.039692
C42	C	0.670857	0.308116	-0.039687
C43	C	0.633742	0.275716	-0.000005
C44	C	0.596627	0.308114	0.039680
C45	C	0.596629	0.372909	0.039679
C46	C	0.596619	0.046805	0.039686
C47	C	0.596618	-0.017992	0.039682
C48	C	0.670847	-0.017988	-0.039679
C49	C	0.670849	0.046806	-0.039681
C50	C	0.633738	0.079195	0.000008
C51	C	0.633736	0.149458	0.000003
C52	C	0.633738	0.205460	-0.000005
C53	C	0.443658	0.677456	0.000005
C54	C	0.379147	0.677454	0.000007
C55	C	0.385961	0.598103	0.039674
C56	C	0.325345	0.598101	0.039677
C57	C	0.257916	0.677456	-0.000001
C58	C	0.251105	0.756819	-0.039669
C59	C	0.311720	0.756818	-0.039665
N60	N	0.135117	0.736526	-0.064577
N61	N	0.077537	0.736522	-0.064580
C62	C	0.075283	0.677464	-0.000015
N63	N	0.132790	0.618398	0.064552
N64	N	0.190376	0.618400	0.064553
C65	C	0.192185	0.677466	-0.000010
C66	C	0.016374	0.598106	0.039659
C67	C	-0.044244	0.598108	0.039665
C68	C	-0.118485	0.756827	-0.039689
C69	C	-0.057867	0.756823	-0.039687
C70	C	0.009560	0.677460	-0.000015
C71	C	0.823819	0.677462	-0.000010
C72	C	0.888330	0.677464	-0.000013
C73	C	0.633729	0.677468	-0.203197
C74	C	0.633726	0.677471	-0.272160
C75	C	0.633737	0.880647	0.000004
C76	C	0.633736	0.949607	0.000006
C77	C	0.596606	0.756824	-0.344232
C78	C	0.596612	0.756822	-0.409027
C79	C	0.633734	0.677465	-0.401748
C80	C	0.670859	0.598105	-0.329668
C81	C	0.670856	0.598109	-0.264875
C82	C	0.670870	0.598090	-0.590971
C83	C	0.670868	0.598093	-0.655772
C84	C	0.596625	0.756803	-0.735123
C85	C	0.596623	0.756806	-0.670330
C86	C	0.633750	0.677447	-0.598256
C87	C	0.633744	0.677451	-0.527999
C88	C	0.633736	0.677460	-0.472004
C89	C	0.633748	0.677450	0.203192
C90	C	0.633751	0.677447	0.272154
C91	C	0.823821	0.474274	-0.000017
C92	C	0.888333	0.405315	-0.000022
C93	C	0.633750	0.474262	0.203185
C94	C	0.633754	0.405299	0.272145
C95	C	0.823831	0.474266	0.203178
C96	C	0.888346	0.405304	0.272135
C97	C	0.443647	0.880652	-0.203183
C98	C	0.379131	0.949614	-0.272141
C99	C	0.443656	0.880644	0.000011
C100	C	0.379144	0.949603	0.000016
C101	C	0.633727	0.880656	-0.203191
C102	C	0.633723	0.949619	-0.272151
C103	C	0.881510	0.372933	-0.039707
C104	C	0.942120	0.308147	-0.039727
C105	C	1.009553	0.275741	-0.000056
C106	C	1.016375	0.308131	0.039631
C107	C	0.955765	0.372919	0.039645
C108	C	0.670875	0.372912	0.344213
C109	C	0.670876	0.308123	0.409015
C110	C	0.633760	0.275718	0.401747
C111	C	0.596635	0.308111	0.329672
C112	C	0.596630	0.372903	0.264872
C113	C	0.955765	0.372921	0.264839
C114	C	1.016390	0.308133	0.329626
C115	C	1.009594	0.275724	0.401708
C116	C	0.942169	0.308114	0.409003
C117	C	0.881545	0.372905	0.344217
C118	C	0.311713	0.982005	-0.264845
C119	C	0.251088	1.046813	-0.329632
C120	C	0.257883	1.079225	-0.401714
C121	C	0.325308	1.046832	-0.409008
C122	C	0.385932	0.982029	-0.344222
C123	C	0.385967	0.981992	0.039695
C124	C	0.325357	1.046795	0.039696
C125	C	0.257924	1.079203	0.000023
C126	C	0.251102	1.046811	-0.039660
C127	C	0.311712	0.982013	-0.039666
C128	C	0.670846	0.982004	-0.264859
C129	C	0.670856	1.046793	-0.329648
C130	C	0.633739	1.079201	-0.401729
C131	C	0.596614	1.046810	-0.409019
C132	C	0.596609	0.982017	-0.344231
H133	H	0.701078	0.281739	-0.071997
O134	O	0.178367	1.081771	-0.082445
H135	H	0.183796	1.048371	-0.110045
O136	O	0.178372	1.081735	-0.321749
H137	H	0.137352	1.132251	-0.378904
O138	O	0.556627	0.273132	0.321837
H139	H	0.562885	0.222623	0.379008
O140	O	0.178378	0.842406	-0.082468
H141	H	0.172204	0.880455	-0.059532
O142	O	0.710909	0.407855	0.352068
H143	H	0.751942	0.395411	0.324456
O144	O	1.089108	0.273195	0.321751
H145	H	1.083642	0.306606	0.260742
H146	H	0.330833	1.073230	-0.467705
O147	O	0.304375	0.947058	-0.187103
H148	H	0.247305	0.980486	-0.192926
O149	O	1.089107	0.273168	0.082425
H150	H	1.130100	0.222669	0.075750
H151	H	0.306146	0.955644	-0.071975
O152	O	0.556705	0.407711	0.187141
H153	H	0.530945	0.374239	0.192982
O154	O	0.963102	0.407879	0.187097
H155	H	1.020172	0.374478	0.192921
H156	H	0.701088	0.533492	-0.323746
O157	O	0.710923	0.512488	-0.647906
H158	H	0.673458	0.508670	-0.675514
O159	O	0.710876	-0.052925	-0.082487
H160	H	0.767925	-0.082436	-0.059571
H161	H	0.633770	0.222960	0.454517
O162	O	0.710932	0.273177	0.486747
H163	H	0.736752	0.306585	0.480908
H164	H	0.566376	0.955656	-0.350178
O165	O	0.458682	0.512504	0.082468
H166	H	0.499689	0.525831	0.075804
O167	O	0.710877	0.081756	-0.082483
H168	H	0.767927	0.027366	-0.059553
O169	O	0.332684	0.512513	0.082453
H170	H	0.389753	0.457328	0.110034
O171	O	0.332727	1.081714	0.082509
H172	H	0.306882	1.069285	0.126359
O173	O	0.710887	0.407860	-0.082491
H174	H	0.736700	0.374438	-0.110076
O175	O	0.808785	0.407880	-0.082505
H176	H	0.779393	0.479359	-0.126349
O177	O	0.710931	0.512517	-0.187138
H178	H	0.704714	0.525850	-0.143306
H179	H	0.701086	1.073160	-0.323697
H180	H	0.701072	0.955627	-0.206173
O181	O	0.934755	0.273213	-0.082526
H182	H	0.877681	0.306623	-0.110094
H183	H	0.826652	0.399263	0.350168
H184	H	0.440826	0.955657	-0.350172
H185	H	0.566393	-0.044370	0.071998
H186	H	0.701102	0.533471	-0.532294
H187	H	1.058964	0.222967	0.454455
O188	O	0.556601	1.081769	-0.486774
H189	H	0.578061	1.027383	-0.493375
O190	O	1.074923	0.205855	-0.000068
H191	H	1.058843	0.188780	-0.034324
O192	O	0.556572	0.842413	-0.486761
H193	H	0.562816	0.829082	-0.530595
O194	O	0.963128	0.407832	0.082464
H195	H	1.020202	0.374400	0.110052
O196	O	0.633737	1.149096	-0.471606
H197	H	0.665781	1.166174	-0.454418
H198	H	0.936646	0.281717	0.467701
H199	H	0.440869	0.955610	0.072006
O200	O	0.556580	0.842398	-0.678180
H201	H	0.578032	0.880450	-0.709636
H202	H	0.566396	0.821421	-0.793816
H203	H	0.566403	0.073165	0.072006
O204	O	-0.036898	0.512518	0.082444
H205	H	0.020172	0.457336	0.110021
H206	H	-0.063418	0.821440	-0.071993
H207	H	0.208514	1.131991	-0.454461
H208	H	0.208578	1.131966	0.000034
H209	H	0.566406	0.399286	0.071988
O210	O	0.556587	0.273182	0.082474
H211	H	0.594054	0.201703	0.126324
O212	O	0.304394	0.842395	-0.082465
H213	H	0.274962	0.880472	-0.059553
O214	O	0.089102	0.512513	0.082456
H215	H	0.083655	0.457333	0.110051
H216	H	-0.173386	0.821440	-0.071996
H217	H	0.566372	0.821446	-0.350168
