data_functionalizedCrystal
_audit_creation_method	'MofGen! by Chris Wilmer'
_symmetry_space_group_name_H-M	'P1'
_symmetry_Int_Tables_number	1
_symmetry_cell_setting	triclinic
loop_
_symmetry_equiv_pos_as_xyz
  x,y,z
_cell_length_a	21.295418
_cell_length_b	21.295417
_cell_length_c	21.295412
_cell_angle_alpha	89.970379
_cell_angle_beta	89.957310
_cell_angle_gamma	90.045515
loop_
_atom_site_label
_atom_site_type_symbol
_atom_site_fract_x
_atom_site_fract_y
_atom_site_fract_z
Zn1	Zn	0.962353	-0.250359	-0.356238
Zn2	Zn	0.962259	-0.355628	-0.250965
Zn3	Zn	0.857078	-0.250405	-0.250948
Zn4	Zn	0.857047	-0.355623	-0.356162
O5	O	0.909684	-0.303004	-0.303578
O6	O	1.050430	-0.264306	-0.342313
O7	O	0.948280	-0.341691	-0.162874
O8	O	0.871095	-0.162310	-0.264940
O9	O	1.050361	-0.341646	-0.264969
O10	O	0.948440	-0.162276	-0.342296
O11	O	0.871004	-0.264384	-0.162861
O12	O	0.768984	-0.264380	-0.264866
O13	O	0.871042	-0.341639	-0.444262
O14	O	0.768962	-0.341684	-0.342166
O15	O	0.948410	-0.264302	-0.444318
O16	O	0.948250	-0.443716	-0.264895
O17	O	0.870951	-0.443713	-0.342183
C18	C	0.746132	-0.303037	-0.303506
C19	C	0.676164	-0.303066	-0.303490
C20	C	0.643302	-0.343371	-0.343680
C21	C	0.577560	-0.343356	-0.343708
C22	C	0.544682	-0.303042	-0.303535
C23	C	0.577552	-0.262729	-0.263342
C24	C	0.643293	-0.262741	-0.263320
N25	N	0.441407	-0.298123	-0.248477
N26	N	0.378955	-0.298116	-0.248501
C27	C	0.346607	-0.303002	-0.303602
N28	N	0.379070	-0.307908	-0.358680
N29	N	0.441527	-0.307920	-0.358656
C30	C	0.473396	-0.303024	-0.303556
C31	C	0.242460	-0.343292	-0.343826
C32	C	0.176716	-0.343272	-0.343855
C33	C	0.176709	-0.262649	-0.263484
C34	C	0.242452	-0.262665	-0.263460
C35	C	0.275323	-0.302990	-0.303630
C36	C	0.909604	-0.466556	-0.303547
C37	C	0.909627	-0.536524	-0.303554
C38	C	0.949878	-0.569315	-0.343862
C39	C	0.949900	-0.635058	-0.343878
C40	C	0.909678	-0.668006	-0.303574
C41	C	0.869420	-0.635206	-0.263263
C42	C	0.869394	-0.569465	-0.263253
N43	N	0.904920	-0.771268	-0.248481
N44	N	0.904948	-0.833720	-0.248492
C45	C	0.909752	-0.866081	-0.303602
N46	N	0.914539	-0.833631	-0.358702
N47	N	0.914514	-0.771174	-0.358690
C48	C	0.909701	-0.739291	-0.303580
C49	C	0.950028	-0.970158	-0.343931
C50	C	0.950046	-1.035902	-0.343947
C51	C	0.869570	-1.036049	-0.263327
C52	C	0.869548	-0.970306	-0.263316
C53	C	0.909781	-0.937365	-0.303617
C54	C	1.073874	-0.302971	-0.303652
C55	C	1.143843	-0.302957	-0.303683
C56	C	0.909733	-0.302965	-0.467769
C57	C	0.909754	-0.302948	-0.537737
C58	C	0.909782	-0.138814	-0.303624
C59	C	0.909823	-0.068845	-0.303644
C60	C	0.869528	-0.262690	-0.570587
C61	C	0.869525	-0.262678	-0.636330
C62	C	0.909761	-0.302918	-0.669219
C63	C	0.949991	-0.343184	-0.636361
C64	C	0.949987	-0.343199	-0.570620
N65	N	0.964866	-0.307710	-0.772476
N66	N	0.964867	-0.307692	-0.834928
C67	C	0.909773	-0.302876	-0.867294
N68	N	0.854676	-0.298066	-0.834850
N69	N	0.854675	-0.298081	-0.772393
C70	C	0.909769	-0.302906	-0.740505
C71	C	0.869540	-0.262603	-0.971430
C72	C	0.869537	-0.262596	-1.037174
C73	C	0.950008	-0.343098	-1.037204
C74	C	0.950006	-0.343109	-0.971462
C75	C	0.909773	-0.302858	-0.938579
C76	C	0.909671	-0.302997	-0.140027
C77	C	0.909772	-0.302837	-0.070059
H78	H	0.149941	-0.229821	-0.230777
H79	H	0.550778	-0.229904	-0.230634
N80	N	0.678742	-0.219263	-0.219975
H81	H	0.647941	-0.193717	-0.194531
H82	H	0.705962	-0.244850	-0.190784
H83	H	0.269225	-0.376124	-0.376538
H84	H	0.982823	-1.062600	-0.376774
H85	H	0.836775	-0.229815	-1.063919
N86	N	0.826143	-0.219272	-0.535120
H87	H	0.800661	-0.193764	-0.565910
H88	H	0.796989	-0.244898	-0.507812
N89	N	0.277891	-0.219195	-0.220102
H90	H	0.305111	-0.244742	-0.190873
H91	H	0.305187	-0.190068	-0.245770
N92	N	0.826136	-0.219257	-0.671772
H93	H	0.800648	-0.193761	-0.640964
H94	H	0.851784	-0.190117	-0.699073
H95	H	0.149961	-0.376092	-0.376587
H96	H	0.982636	-0.542496	-0.376679
H97	H	0.836670	-0.662037	-0.230449
H98	H	0.982671	-0.661762	-0.376709
N99	N	0.826140	-0.219197	-0.935962
H100	H	0.796954	-0.244792	-0.908656
H101	H	0.851782	-0.190032	-0.908751
H102	H	0.836617	-0.542765	-0.230429
N103	N	0.993418	-0.934622	-0.387397
H104	H	1.018917	-0.965375	-0.412939
H105	H	0.967769	-0.907354	-0.416490
N106	N	0.993383	-0.386591	-0.671831
H107	H	0.987282	-0.380473	-0.718463
H108	H	1.038347	-0.376792	-0.660374
H109	H	0.982770	-0.375861	-1.063983
N110	N	0.993376	-0.386623	-0.535185
H111	H	1.018864	-0.412115	-0.565995
H112	H	1.022523	-0.360999	-0.507938
H113	H	0.836816	-1.062875	-0.230515
N114	N	0.993399	-0.386528	-0.936030
H115	H	1.038382	-0.376738	-0.947505
H116	H	0.987240	-0.380412	-0.889404
N117	N	0.678756	-0.386863	-0.387005
H118	H	0.647958	-0.412394	-0.412470
H119	H	0.706089	-0.361285	-0.416176
H120	H	0.836775	-0.943606	-0.230490
N121	N	0.542105	-0.386828	-0.387059
H122	H	0.572904	-0.412374	-0.412503
H123	H	0.514773	-0.415917	-0.361386
