data_functionalizedCrystal
_audit_creation_method	'MofGen! by Chris Wilmer'
_symmetry_space_group_name_H-M	'P1'
_symmetry_Int_Tables_number	1
_symmetry_cell_setting	triclinic
loop_
_symmetry_equiv_pos_as_xyz
  x,y,z
_cell_length_a	25.639242
_cell_length_b	25.639239
_cell_length_c	12.759393
_cell_angle_alpha	89.962897
_cell_angle_beta	89.977405
_cell_angle_gamma	90.030990
loop_
_atom_site_label
_atom_site_type_symbol
_atom_site_fract_x
_atom_site_fract_y
_atom_site_fract_z
Zn1	Zn	0.799268	-0.208227	-0.594057
Zn2	Zn	0.799178	-0.295674	-0.418360
Zn3	Zn	0.711831	-0.208243	-0.418384
Zn4	Zn	0.711789	-0.295622	-0.593989
O5	O	0.755517	-0.251941	-0.506198
O6	O	0.872421	-0.219842	-0.570769
O7	O	0.787572	-0.284104	-0.271342
O8	O	0.723485	-0.135075	-0.441726
O9	O	0.872355	-0.284089	-0.441686
O10	O	0.787724	-0.135064	-0.570792
O11	O	0.723398	-0.219869	-0.271360
O12	O	0.638661	-0.219818	-0.441660
O13	O	0.723413	-0.284000	-0.741019
O14	O	0.638629	-0.284015	-0.570676
O15	O	0.787683	-0.219792	-0.741069
O16	O	0.787531	-0.368832	-0.441620
O17	O	0.723326	-0.368794	-0.570653
C18	C	0.619674	-0.251913	-0.506164
C19	C	0.561560	-0.251913	-0.506174
C20	C	0.310409	-0.218547	-0.573534
C21	C	0.365013	-0.218542	-0.573528
O22	O	0.393285	-0.190150	-0.630793
N23	N	0.392286	-0.251935	-0.506210
C24	C	0.364952	-0.285339	-0.438900
O25	O	0.393164	-0.313743	-0.381641
C26	C	0.310349	-0.285347	-0.438912
C27	C	0.283078	-0.251948	-0.506228
C28	C	0.283138	-0.185152	-0.640845
C29	C	0.228538	-0.185156	-0.640849
C30	C	0.201208	-0.218557	-0.573543
C31	C	0.228478	-0.251952	-0.506232
C32	C	0.283016	-0.318753	-0.371609
C33	C	0.228409	-0.318758	-0.371628
C34	C	0.201138	-0.285359	-0.438943
C35	C	0.146547	-0.285357	-0.438930
N36	N	0.119274	-0.251964	-0.506249
C37	C	0.146604	-0.218564	-0.573555
C38	C	0.479623	-0.285322	-0.438882
C39	C	0.534225	-0.285312	-0.438863
C40	C	0.534282	-0.218516	-0.573493
C41	C	0.479679	-0.218523	-0.573505
C42	C	0.452350	-0.251929	-0.506200
C43	C	0.031939	-0.218576	-0.573558
C44	C	-0.022666	-0.218582	-0.573554
C45	C	-0.022719	-0.285380	-0.438929
C46	C	0.031882	-0.285372	-0.438929
C47	C	0.059210	-0.251968	-0.506252
O48	O	0.118240	-0.313736	-0.381698
O49	O	0.118386	-0.190170	-0.630814
C50	C	0.755429	-0.387784	-0.506150
C51	C	0.755439	-0.445898	-0.506164
C52	C	0.789035	-0.806268	-0.439124
C53	C	0.789055	-0.860873	-0.439138
O54	O	0.817529	-0.889116	-0.382086
N55	N	0.755608	-0.888180	-0.506267
C56	C	0.722143	-0.860881	-0.573394
O57	O	0.693696	-0.889122	-0.630494
C58	C	0.722126	-0.806277	-0.573385
C59	C	0.755571	-0.778973	-0.506244
C60	C	0.822478	-0.778963	-0.371990
C61	C	0.822457	-0.724363	-0.371975
C62	C	0.788993	-0.697067	-0.439094
C63	C	0.755550	-0.724372	-0.506229
C64	C	0.688663	-0.778979	-0.640516
C65	C	0.688649	-0.724372	-0.640501
C66	C	0.722094	-0.697067	-0.573360
C67	C	0.722065	-0.642476	-0.573333
N68	N	0.755512	-0.615168	-0.506204
C69	C	0.788976	-0.642464	-0.439084
C70	C	0.722182	-0.975551	-0.573410
C71	C	0.722196	-1.030154	-0.573415
C72	C	0.789110	-1.030142	-0.439161
C73	C	0.789093	-0.975538	-0.439151
C74	C	0.755629	-0.948244	-0.506281
C75	C	0.788929	-0.527799	-0.439057
C76	C	0.788903	-0.473194	-0.439045
C77	C	0.721992	-0.473210	-0.573303
C78	C	0.722015	-0.527811	-0.573312
C79	C	0.755488	-0.555104	-0.506185
O80	O	0.693607	-0.614198	-0.630359
O81	O	0.817423	-0.614216	-0.382003
C82	C	0.891890	-0.251970	-0.506232
C83	C	0.950004	-0.251982	-0.506247
C84	C	0.755553	-0.251888	-0.780231
C85	C	0.755569	-0.251866	-0.897008
C86	C	0.755619	-0.115568	-0.506269
C87	C	0.755663	-0.057454	-0.506299
C88	C	0.722166	-0.218412	-0.951878
C89	C	0.722178	-0.218396	-1.061603
C90	C	0.789001	-0.285289	-1.061576
C91	C	0.788986	-0.285307	-0.951854
C92	C	0.755510	-0.251956	-0.233230
C93	C	0.755596	-0.251831	-0.116454
H94	H	-0.044867	-0.191382	-0.628370
H95	H	0.694783	-0.550044	-0.627986
Br96	Br	0.676813	-0.173029	-0.877447
H97	H	0.816208	-0.312515	-1.106245
H98	H	0.816188	-0.312551	-0.907177
H99	H	0.556544	-0.191319	-0.628298
Br100	Br	0.068893	-0.330703	-0.347578
Br101	Br	0.676834	-0.173002	-1.136066
Br102	Br	0.867901	-0.815997	-0.280889
H103	H	0.054183	-0.191375	-0.628379
H104	H	0.849693	-0.702134	-0.317306
Br105	Br	0.320219	-0.139818	-0.732205
Br106	Br	0.442675	-0.173194	-0.664864
Br107	Br	0.571228	-0.330629	-0.347480
Br108	Br	0.191537	-0.139831	-0.732220
H109	H	-0.044981	-0.312572	-0.384125
Br110	Br	0.442538	-0.330658	-0.347520
H111	H	0.305210	-0.345950	-0.316794
H112	H	0.816138	-0.450964	-0.384367
Br113	Br	0.191322	-0.364102	-0.280289
Br114	Br	0.834356	-0.564831	-0.347956
H115	H	0.816327	-0.953310	-0.384480
Br116	Br	0.834524	-1.067196	-0.348064
H117	H	0.694957	-1.052381	-0.628078
H118	H	0.694928	-0.953331	-0.628073
H119	H	0.661426	-0.801201	-0.695184
Br120	Br	0.643233	-0.687332	-0.731616
H121	H	0.694744	-0.450978	-0.627948
