data_functionalizedCrystal
_audit_creation_method	'MofGen! by Chris Wilmer'
_symmetry_space_group_name_H-M	'P1'
_symmetry_Int_Tables_number	1
_symmetry_cell_setting	triclinic
loop_
_symmetry_equiv_pos_as_xyz
  x,y,z
_cell_length_a	10.723024
_cell_length_b	10.489741
_cell_length_c	9.198806
_cell_angle_alpha	89.997101
_cell_angle_beta	89.996352
_cell_angle_gamma	84.503522
loop_
_atom_site_label
_atom_site_type_symbol
_atom_site_fract_x
_atom_site_fract_y
_atom_site_fract_z
O1	O	1.657297	0.178906	-0.120882
O2	O	2.157297	0.678906	0.379118
O3	O	1.294155	0.196031	-0.120887
O4	O	1.794155	0.696031	0.379113
O5	O	1.483989	0.001865	-0.120876
O6	O	1.983989	0.501865	0.379124
O7	O	1.467463	0.373072	-0.120893
O8	O	1.967463	0.873072	0.379107
O9	O	1.483974	0.001865	0.120909
O10	O	1.983974	0.501865	0.620909
O11	O	1.294140	0.196030	0.120898
O12	O	1.794140	0.696030	0.620898
O13	O	1.657282	0.178906	0.120903
O14	O	2.157282	0.678906	0.620903
Cu15	Cu	1.475710	0.187468	0.142977
Cu16	Cu	1.975710	0.687468	0.642977
Cu17	Cu	1.475728	0.187469	-0.142962
Cu18	Cu	1.975728	0.687469	0.357038
O19	O	1.467448	0.373071	0.120892
O20	O	1.967448	0.873071	0.620892
C21	C	1.247647	0.194785	0.000005
C22	C	1.747647	0.694785	0.500005
C23	C	1.109091	0.191056	0.000003
C24	C	1.609091	0.691056	0.500003
C25	C	1.034175	0.299701	-0.000003
C26	C	1.534175	0.799701	0.499997
C27	C	0.890969	0.295850	-0.000005
C28	C	1.390969	0.795850	0.499995
C29	C	1.482734	-0.045666	0.000016
C30	C	1.982734	0.454334	0.500016
C31	C	1.478999	-0.187293	0.000013
C32	C	1.978999	0.312707	0.500013
C33	C	1.358213	-0.255356	0.000001
C34	C	1.858213	0.244644	0.500001
C35	C	1.415264	-0.347515	0.119214
C36	C	1.915264	0.152485	0.619214
C37	C	1.415308	-0.347489	-0.119167
C38	C	1.915308	0.152511	0.380833
C39	C	1.536100	-0.277587	0.119325
C40	C	2.036100	0.222413	0.619325
C41	C	1.536126	-0.277551	-0.119163
C42	C	2.036126	0.222449	0.380837
C43	C	1.593265	-0.369683	0.000079
C44	C	2.093265	0.130317	0.500079
C45	C	1.703790	0.180152	0.000008
C46	C	2.203790	0.680152	0.500008
C47	C	1.842347	0.183881	-0.000000
C48	C	2.342347	0.683881	0.500000
C49	C	1.468704	0.420602	-0.000003
C50	C	1.968704	0.920602	0.499997
C51	C	1.472438	0.562229	-0.000010
C52	C	1.972438	1.062229	0.499990
N53	N	1.475706	0.187467	0.344091
N54	N	1.975706	0.687467	0.844091
N55	N	1.475741	0.187460	-0.344075
N56	N	1.975741	0.687460	0.155925
C57	C	1.555412	0.105583	0.416293
C58	C	2.055412	0.605583	0.916293
C59	C	1.555431	0.105578	0.583705
C60	C	2.055431	0.605578	1.083705
H61	H	1.076055	0.395567	0.000001
H62	H	1.576055	0.895567	0.500001
H63	H	1.067210	0.095190	-0.000030
H64	H	1.567210	0.595190	0.499970
H65	H	1.587156	-0.246787	0.220223
H66	H	2.087156	0.253213	0.720223
H67	H	1.587197	-0.246539	-0.219954
H68	H	2.087197	0.253461	0.280046
C69	C	1.727535	-0.436551	0.000169
C70	C	2.227535	0.063449	0.500169
H71	H	1.770226	-0.412625	0.084930
H72	H	2.270226	0.087375	0.584930
H73	H	1.770770	-0.411539	-0.083711
H74	H	2.270770	0.088461	0.416289
H75	H	1.724437	-0.526755	-0.000625
H76	H	2.224437	-0.026755	0.499375
H77	H	1.623633	0.035476	0.354171
H78	H	2.123633	0.535476	0.854171
C79	C	1.224063	-0.188185	0.000157
C80	C	1.724063	0.311815	0.500157
H81	H	1.181347	-0.211976	0.084968
H82	H	1.681347	0.288024	0.584968
H83	H	1.180724	-0.213119	-0.083672
H84	H	1.680724	0.286881	0.416328
H85	H	1.227365	-0.098009	-0.000696
H86	H	1.727365	0.401991	0.499304
H87	H	0.826593	0.388858	-0.000016
H88	H	1.326593	0.888858	0.499984
C89	C	0.929290	0.058220	-0.000001
C90	C	1.429290	0.558220	0.499999
H91	H	0.880208	-0.012527	-0.000010
H92	H	1.380208	0.487473	0.499990
H93	H	0.980650	0.054823	0.084311
H94	H	1.480650	0.554823	0.584311
H95	H	0.980647	0.054832	-0.084331
H96	H	1.480647	0.554832	0.415669
H97	H	1.623675	0.035479	0.645796
H98	H	2.123675	0.535479	1.145796
C99	C	1.346219	-0.389374	0.255361
C100	C	1.846219	0.110626	0.755361
H101	H	1.262711	-0.349859	0.255218
H102	H	1.762711	0.150141	0.755218
H103	H	1.388323	-0.364283	0.340017
H104	H	1.888323	0.135717	0.840017
H105	H	1.345005	-0.479811	0.254819
H106	H	1.845005	0.020189	0.754819
C107	C	1.346256	-0.389290	-0.255322
C108	C	1.846256	0.110710	0.244678
H109	H	1.262757	-0.349750	-0.255166
H110	H	1.762757	0.150250	0.244834
H111	H	1.345036	-0.479719	-0.254826
H112	H	1.845036	0.020281	0.245174
H113	H	1.388365	-0.364159	-0.339975
H114	H	1.888365	0.135841	0.160025
H115	H	1.407503	0.257572	0.593844
H116	H	1.907503	0.757572	1.093844
C117	C	1.383517	0.282155	0.427997
C118	C	1.883517	0.782155	0.927997
H119	H	1.333497	0.333518	0.360989
H120	H	1.833497	0.833518	0.860989
H121	H	1.429075	0.335484	0.487376
H122	H	1.929075	0.835484	0.987376
H123	H	1.331077	0.235866	0.487371
H124	H	1.831077	0.735866	0.987371
