data_functionalizedCrystal
_audit_creation_method	'MofGen! by Chris Wilmer'
_symmetry_space_group_name_H-M	'P1'
_symmetry_Int_Tables_number	1
_symmetry_cell_setting	triclinic
loop_
_symmetry_equiv_pos_as_xyz
  x,y,z
_cell_length_a	11.026607
_cell_length_b	10.723024
_cell_length_c	9.198806
_cell_angle_alpha	90.003648
_cell_angle_beta	89.998911
_cell_angle_gamma	83.473057
loop_
_atom_site_label
_atom_site_type_symbol
_atom_site_fract_x
_atom_site_fract_y
_atom_site_fract_z
O1	O	0.170518	-1.693992	-0.120878
O2	O	0.186840	-1.334363	-0.120883
O3	O	0.001778	-1.484372	-0.120876
O4	O	0.355580	-1.543983	-0.120886
O5	O	0.001777	-1.484357	0.120909
O6	O	0.186840	-1.334348	0.120902
O7	O	0.170518	-1.693977	0.120907
Cu8	Cu	0.178679	-1.514161	0.142981
Cu9	Cu	0.178679	-1.514179	-0.142958
O10	O	0.355580	-1.543968	0.120899
C11	C	0.185652	-1.287599	0.000009
C12	C	0.182098	-1.148278	0.000007
C13	C	-0.043525	-1.473367	0.000015
C14	C	-0.178512	-1.440584	0.000009
C15	C	0.171706	-1.740741	0.000011
C16	C	0.175259	-1.880062	0.000004
C17	C	-0.251564	-1.531104	0.000008
C18	C	-0.391080	-1.497223	0.000003
C19	C	0.400883	-1.554973	0.000006
C20	C	0.535869	-1.587756	0.000002
N21	N	0.178677	-1.514157	0.344095
C22	C	0.285649	-1.095646	0.000003
C23	C	0.281979	-0.951650	0.000001
N24	N	0.178671	-1.514191	-0.344072
C25	C	0.100633	-1.577068	0.416295
C26	C	0.100628	-1.577086	0.583707
H27	H	-0.210818	-1.633684	0.000019
Br28	Br	0.029798	-1.045714	0.000028
H29	H	0.377021	-1.157190	0.000009
H30	H	0.245487	-1.460305	0.406221
Br31	Br	-0.458972	-1.326236	-0.000021
H32	H	0.033813	-1.630909	0.354172
Br33	Br	-0.396242	-1.758745	-0.000009
Br34	Br	-0.010735	-1.666874	0.687185
Br35	Br	0.290058	-1.424424	0.552460
H36	H	-0.219257	-1.338003	-0.000002
H37	H	0.370627	-0.906351	-0.000008
H38	H	0.086607	-0.925352	-0.000002
