data_functionalizedCrystal
_audit_creation_method	'MofGen! by Chris Wilmer'
_symmetry_space_group_name_H-M	'P1'
_symmetry_Int_Tables_number	1
_symmetry_cell_setting	triclinic
loop_
_symmetry_equiv_pos_as_xyz
  x,y,z
_cell_length_a	19.377372
_cell_length_b	19.376995
_cell_length_c	14.560438
_cell_angle_alpha	48.617310
_cell_angle_beta	90.000766
_cell_angle_gamma	82.760355
loop_
_atom_site_label
_atom_site_type_symbol
_atom_site_fract_x
_atom_site_fract_y
_atom_site_fract_z
Zr1	Zr	0.743113	1.051908	-0.543322
O2	O	0.665480	1.172243	-0.700034
O3	O	0.750022	0.905720	-0.465557
O4	O	0.774376	1.063338	-0.700026
O5	O	0.641128	1.014624	-0.314425
O6	O	0.879488	1.101763	-0.733831
O7	O	0.641126	1.014625	-0.465565
O8	O	0.835923	0.819813	-0.314410
O9	O	0.684693	1.296574	-0.733847
O10	O	0.851819	1.004100	-0.493532
O11	O	0.773376	0.975423	-0.355509
O12	O	0.802050	1.160999	-0.631565
O13	O	0.723608	1.132322	-0.493542
Zr14	Zr	0.910759	1.113189	-0.356187
Zr15	Zr	0.910755	1.113191	-0.597238
Zr16	Zr	0.743117	1.051906	-0.302270
Zr17	Zr	0.773756	1.250201	-0.597249
Zr18	Zr	0.880116	0.914896	-0.302259
O19	O	0.903851	1.259377	-0.433952
O20	O	0.903845	1.259380	-0.776696
O21	O	0.665485	1.172240	-0.357290
O22	O	0.988392	0.992854	-0.199474
O23	O	0.988387	0.992857	-0.542219
O24	O	0.750027	0.905717	-0.122812
O25	O	1.012744	1.150474	-0.585084
O26	O	0.879497	1.101759	-0.199483
O27	O	0.774384	1.063334	-0.165677
O28	O	1.012747	1.150472	-0.433943
O29	O	0.817946	1.345286	-0.776703
O30	O	0.835926	0.819811	-0.122806
O31	O	0.969179	0.868523	-0.165662
O32	O	0.969176	0.868525	-0.357266
O33	O	0.684696	1.296572	-0.542243
O34	O	0.817949	1.345284	-0.585099
O35	O	0.851822	1.004099	-0.267943
O36	O	0.930265	1.032776	-0.405966
O37	O	0.880496	1.189674	-0.544000
O38	O	0.802054	1.160997	-0.405977
C39	C	0.788606	0.834514	-0.382300
C40	C	0.775598	0.750333	-0.359406
C41	C	0.716318	0.616716	-0.255099
C42	C	0.728547	0.695818	-0.276618
C43	C	0.810435	0.725765	-0.420713
C44	C	0.798211	0.646666	-0.399210
C45	C	0.751152	0.592147	-0.316400
C46	C	0.833045	0.622097	-0.460511
C47	C	0.820824	0.543003	-0.439004
C48	C	0.773769	0.488477	-0.356196
C49	C	0.738931	0.513052	-0.294893
C50	C	0.880107	0.676614	-0.543314
C51	C	0.914941	0.652045	-0.604615
C52	C	0.902717	0.572953	-0.583115
C53	C	0.855662	0.518428	-0.500307
C54	C	0.937554	0.548378	-0.644418
C55	C	0.925334	0.469284	-0.622912
C56	C	0.843441	0.439333	-0.478801
C57	C	0.617242	1.005893	-0.382313
C58	C	0.546073	0.979876	-0.359424
C59	C	0.182119	1.303799	-0.644405
C60	C	0.115252	1.279331	-0.622877
C61	C	0.167216	1.115541	-0.478781
C62	C	0.234089	1.139995	-0.500292
C63	C	0.241534	1.234126	-0.583106
C64	C	0.293504	1.070322	-0.438993
C65	C	0.360370	1.094775	-0.460508
C66	C	0.367822	1.188900	-0.543321
C67	C	0.308400	1.258578	-0.604621
C68	C	0.286057	0.976192	-0.356186
C69	C	0.345472	0.906519	-0.294888
C70	C	0.412340	0.930971	-0.316395
C71	C	0.419792	1.025097	-0.399208
C72	C	0.471762	0.861293	-0.255095
C73	C	0.538628	0.885746	-0.276610
C74	C	0.486658	1.049550	-0.420723
C75	C	1.036631	1.159205	-0.517195
C76	C	1.107799	1.185221	-0.540084
C77	C	0.826932	1.082551	-0.751273
C78	C	0.826930	1.082552	-0.853606
C79	C	0.865266	1.330583	-0.517209
C80	C	0.878275	1.414764	-0.540102
C81	C	0.800952	1.164449	-0.973734
C82	C	0.800960	1.164448	-1.069884
C83	C	0.852924	1.000642	-0.925763
C84	C	0.852920	1.000647	-0.829617
C85	C	0.826941	1.082546	-0.148235
C86	C	0.826942	1.082546	-0.045903
C87	C	0.998301	0.911170	-0.449741
C88	C	1.056461	0.853005	-0.449736
C89	C	0.788611	0.834512	-0.080781
C90	C	0.775604	0.750330	0.044445
C91	C	0.998306	0.911168	-0.148222
C92	C	1.056467	0.853002	-0.045885
C93	C	0.655567	1.253930	-0.751287
C94	C	0.597405	1.312095	-0.853624
C95	C	0.655571	1.253927	-0.449768
C96	C	0.597412	1.312092	-0.449772
C97	C	0.865261	1.330586	-0.818728
C98	C	0.878268	1.414767	-0.943954
C99	C	1.042825	0.810723	-0.495452
C100	C	1.097468	0.756080	-0.495472
C101	C	1.165744	0.743715	-0.449766
C102	C	1.179379	0.786005	-0.404049
C103	C	1.124738	0.840652	-0.404039
C104	C	0.810444	0.725766	0.148971
C105	C	0.798221	0.646678	0.266642
C106	C	0.751162	0.592153	0.279784
C107	C	0.716318	0.616723	0.175246
C108	C	0.728538	0.695813	0.057578
C109	C	1.124733	0.840659	-0.069875
C110	C	1.179390	0.786020	0.026268
C111	C	1.165778	0.743720	0.146401
C112	C	1.097505	0.756068	0.170390
C113	C	1.042851	0.810712	0.074247
C114	C	0.529141	1.324448	-0.829636
C115	C	0.474488	1.379111	-0.925786
C116	C	0.488100	1.421416	-1.045920
C117	C	0.556372	1.409062	-1.069907
C118	C	0.611025	1.354405	-0.973760
C119	C	0.611049	1.354383	-0.404068
C120	C	0.556409	1.409048	-0.404082
C121	C	0.488133	1.421415	-0.449792
C122	C	0.474497	1.379121	-0.495503
C123	C	0.529137	1.324463	-0.495497
C124	C	0.925332	1.469271	-0.957055
C125	C	0.937567	1.548363	-1.074712
C126	C	0.902735	1.572954	-1.179265
C127	C	0.855669	1.518443	-1.166158
C128	C	0.843438	1.439348	-1.048504
H129	H	0.700173	0.715821	-0.226701
Br130	Br	0.318511	1.386328	-0.716996
Br131	Br	1.239961	0.669563	0.276869
Br132	Br	0.381832	1.395912	-0.557529
Br133	Br	1.143256	0.898026	-0.341981
Br134	Br	0.779557	1.365392	-1.030745
H135	H	0.567525	1.443476	-0.366854
Br136	Br	0.681250	0.729136	-0.084271
H137	H	1.086432	0.721620	0.268215
H138	H	0.492719	1.126200	-0.488126
H139	H	0.975875	0.592772	-0.711833
H140	H	0.418902	1.389157	-0.906230
Br141	Br	0.413920	1.495592	-1.176393
H142	H	0.987266	0.820751	0.093798
Br143	Br	0.510616	1.267067	-0.557522
Br144	Br	0.734586	0.484818	0.439487
H145	H	0.953258	0.696441	-0.672035
H146	H	0.700605	0.468665	-0.227473
Br147	Br	1.078946	0.698694	-0.557516
Br148	Br	0.972613	1.435917	-0.815181
Br149	Br	0.808396	1.551836	-1.308065
Br150	Br	0.874300	0.799759	-0.533091
Br151	Br	0.192230	1.431549	-0.756779
Br152	Br	0.972622	0.435921	-0.706083
H153	H	1.135829	0.875094	-0.167686
H154	H	0.678002	0.572317	0.185965
H155	H	0.912700	1.637361	-1.275059
H156	H	0.677992	0.572329	-0.187678
H157	H	0.779789	1.231142	-0.993274
H158	H	1.234976	0.775973	0.006715
Br159	Br	0.779564	0.365346	-0.366435
Br160	Br	0.458570	1.222090	-0.572531
H161	H	0.518043	1.290002	-0.731822
Br162	Br	0.574834	1.466480	-1.232954
Br163	Br	0.703668	1.337644	-1.006336
Br164	Br	0.703704	1.337617	-0.342031
Br165	Br	0.034616	1.373898	-0.706094
H166	H	0.987236	0.820790	-0.532687
Br167	Br	0.157105	0.987798	-0.366398
H168	H	0.443649	1.465924	-0.449789
H169	H	0.975890	1.592739	-1.085359
Br170	Br	0.888179	0.889491	-0.666572
H171	H	0.890051	0.741022	-0.560830
H172	H	0.779807	1.231138	-1.167696
Br173	Br	0.874317	0.799746	0.131170
Br174	Br	0.335360	0.778776	-0.182505
H175	H	0.231608	0.956287	-0.338680
Br176	Br	0.461647	0.733551	-0.142726
H177	H	0.763821	0.424073	-0.338686
H178	H	0.826599	0.626685	0.351747
Br179	Br	0.619267	0.791190	-0.193428
H180	H	1.210230	0.699215	-0.449780
Br181	Br	0.888190	0.889489	-0.893215
H182	H	1.234977	0.775930	-0.366838
