data_functionalizedCrystal
_audit_creation_method	'MofGen! by Chris Wilmer'
_symmetry_space_group_name_H-M	'P1'
_symmetry_Int_Tables_number	1
_symmetry_cell_setting	triclinic
loop_
_symmetry_equiv_pos_as_xyz
  x,y,z
_cell_length_a	16.625547
_cell_length_b	18.101397
_cell_length_c	16.625539
_cell_angle_alpha	89.968146
_cell_angle_beta	89.975178
_cell_angle_gamma	90.020402
loop_
_atom_site_label
_atom_site_type_symbol
_atom_site_fract_x
_atom_site_fract_y
_atom_site_fract_z
Zn1	Zn	1.232692	-0.294829	-0.455981
Zn2	Zn	1.566025	0.038504	-0.122648
Zn3	Zn	1.899358	0.371837	0.210686
Zn4	Zn	1.232600	-0.418678	-0.321140
Zn5	Zn	1.565933	-0.085345	0.012193
Zn6	Zn	1.899266	0.247988	0.345527
Zn7	Zn	1.097854	-0.294855	-0.321151
Zn8	Zn	1.431187	0.038478	0.012182
Zn9	Zn	1.764520	0.371811	0.345515
Zn10	Zn	1.097829	-0.418634	-0.455920
Zn11	Zn	1.431162	-0.085300	-0.122586
Zn12	Zn	1.764495	0.248033	0.210747
O13	O	1.165243	-0.356749	-0.388548
O14	O	1.498577	-0.023416	-0.055215
O15	O	1.831910	0.309917	0.278119
O16	O	1.345512	-0.311266	-0.438115
O17	O	1.678845	0.022067	-0.104781
O18	O	2.012179	0.355400	0.228552
O19	O	1.214697	-0.402283	-0.208309
O20	O	1.548030	-0.068949	0.125024
O21	O	1.881364	0.264384	0.458358
O22	O	1.115789	-0.191219	-0.339067
O23	O	1.449122	0.142114	-0.005734
O24	O	1.782456	0.475448	0.327599
O25	O	1.345444	-0.402258	-0.339048
O26	O	1.678778	-0.068924	-0.005714
O27	O	2.012111	0.264409	0.327619
O28	O	1.214854	-0.191200	-0.438126
O29	O	1.548187	0.142133	-0.104793
O30	O	1.881521	0.475467	0.228541
O31	O	1.115700	-0.311310	-0.208317
O32	O	1.449033	0.022023	0.125016
O33	O	1.782366	0.355356	0.458349
O34	O	0.985018	-0.311267	-0.339008
O35	O	1.318351	0.022067	-0.005675
O36	O	1.651685	0.355400	0.327659
O37	O	1.115747	-0.402181	-0.568760
O38	O	1.449080	-0.068848	-0.235427
O39	O	1.782413	0.264486	0.097906
O40	O	0.985000	-0.402206	-0.438022
O41	O	1.318333	-0.068873	-0.104688
O42	O	1.651666	0.264461	0.228645
O43	O	1.214830	-0.311223	-0.568805
O44	O	1.548163	0.022111	-0.235472
O45	O	1.881497	0.355444	0.097861
O46	O	1.214673	-0.522305	-0.338988
O47	O	1.548006	-0.188972	-0.005655
O48	O	1.881340	0.144361	0.327679
O49	O	1.115657	-0.522272	-0.438010
O50	O	1.448991	-0.188939	-0.104677
O51	O	1.782324	0.144394	0.228656
C52	C	0.955753	-0.356735	-0.388510
C53	C	1.289086	-0.023401	-0.055177
C54	C	1.622419	0.309932	0.278157
C55	C	0.866131	-0.356746	-0.388513
C56	C	1.199465	-0.023413	-0.055179
C57	C	1.532798	0.309920	0.278154
C58	C	0.793349	-0.356748	-0.388523
C59	C	1.126682	-0.023415	-0.055189
C60	C	1.460016	0.309919	0.278144
C61	C	0.702041	-0.356752	-0.388543
C62	C	1.035374	-0.023418	-0.055210
C63	C	1.368707	0.309915	0.278124
C64	C	0.629264	-0.356759	-0.388563
C65	C	0.962597	-0.023425	-0.055230
C66	C	1.295931	0.309908	0.278103
C67	C	0.537950	-0.356764	-0.388583
C68	C	0.871283	-0.023430	-0.055249
C69	C	1.204616	0.309903	0.278084
C70	C	1.165174	-0.549160	-0.388509
C71	C	1.498508	-0.215826	-0.055176
C72	C	1.831841	0.117507	0.278158
C73	C	1.165219	-0.631474	-0.388519
C74	C	1.498552	-0.298140	-0.055186
C75	C	1.831885	0.035193	0.278148
C76	C	1.165322	-0.930565	-0.388593
C77	C	1.498655	-0.597231	-0.055259
C78	C	1.831988	-0.263898	0.278074
C79	C	1.227446	-0.899230	-0.326124
C80	C	1.560779	-0.565896	0.007210
C81	C	1.894112	-0.232563	0.340543
C82	C	1.227661	-0.813611	-0.326286
C83	C	1.560994	-0.480278	0.007048
C84	C	1.894328	-0.146944	0.340381
C85	C	1.165271	-0.782182	-0.388556
C86	C	1.498604	-0.448849	-0.055222
C87	C	1.831937	-0.115516	0.278111
C88	C	1.188307	-0.813188	-0.473547
C89	C	1.521640	-0.479854	-0.140214
C90	C	1.854973	-0.146521	0.193119
C91	C	1.188788	-0.898833	-0.473207
C92	C	1.522121	-0.565499	-0.139874
C93	C	1.855454	-0.232166	0.193460
C94	C	1.079995	-0.899074	-0.366805
C95	C	1.413329	-0.565741	-0.033472
C96	C	1.746662	-0.232407	0.299861
C97	C	1.080417	-0.813425	-0.364908
C98	C	1.413750	-0.480091	-0.031575
C99	C	1.747083	-0.146758	0.301758
C100	C	1.165240	-0.698323	-0.388540
C101	C	1.498574	-0.364989	-0.055206
C102	C	1.831907	-0.031656	0.278127
C103	C	1.165354	-1.014424	-0.388614
C104	C	1.498687	-0.681091	-0.055281
C105	C	1.832020	-0.347758	0.278052
C106	C	1.375552	-0.356764	-0.388587
C107	C	1.708886	-0.023431	-0.055253
C108	C	2.042219	0.309903	0.278080
C109	C	1.465173	-0.356771	-0.388603
C110	C	1.798507	-0.023437	-0.055270
C111	C	2.131840	0.309896	0.278063
C112	C	1.165296	-0.356694	-0.598857
C113	C	1.498629	-0.023361	-0.265524
C114	C	1.831962	0.309973	0.067810
C115	C	1.165318	-0.356670	-0.688478
C116	C	1.498651	-0.023337	-0.355145
C117	C	1.831985	0.309996	-0.021812
C118	C	1.165335	-0.163587	-0.388605
C119	C	1.498668	0.169746	-0.055272
C120	C	1.832001	0.503079	0.278062
C121	C	1.165373	-0.081273	-0.388629
C122	C	1.498707	0.252060	-0.055296
C123	C	1.832040	0.585394	0.278038
C124	C	1.165355	-0.356588	-1.016654
C125	C	1.498689	-0.023254	-0.683321
C126	C	1.832022	0.310079	-0.349987
C127	C	1.165343	-0.356613	-0.925346
C128	C	1.498676	-0.023280	-0.592012
C129	C	1.832009	0.310054	-0.258679
C130	C	1.165337	-0.356630	-0.852569
C131	C	1.498670	-0.023296	-0.519236
C132	C	1.832004	0.310037	-0.185902
C133	C	1.165324	-0.356654	-0.761255
C134	C	1.498657	-0.023321	-0.427921
C135	C	1.831990	0.310013	-0.094588
C136	C	1.165238	-0.356751	-0.179057
C137	C	1.498571	-0.023417	0.154276
C138	C	1.831904	0.309916	0.487609
C139	C	1.165371	-0.356566	-0.089437
C140	C	1.498705	-0.023232	0.243897
C141	C	1.832038	0.310101	0.577230
H142	H	1.213249	-0.792651	-0.263266
H143	H	1.546582	-0.459317	0.070068
H144	H	1.879915	-0.125984	0.403401
H145	H	1.251157	-0.918751	-0.491662
H146	H	1.584491	-0.585418	-0.158329
H147	H	1.917824	-0.252085	0.175005
Br148	Br	1.115190	-0.779267	-0.553214
Br149	Br	1.448524	-0.445934	-0.219880
Br150	Br	1.781857	-0.112601	0.113453
Br151	Br	1.051458	-0.779658	-0.260661
Br152	Br	1.384791	-0.446325	0.072672
Br153	Br	1.718125	-0.112992	0.406006
H154	H	1.145521	-0.919558	-0.521356
H155	H	1.478855	-0.586225	-0.188022
H156	H	1.812188	-0.252892	0.145311
Br157	Br	1.332219	-0.935007	-0.349871
Br158	Br	1.665552	-0.601673	-0.016538
Br159	Br	1.998885	-0.268340	0.316796
Br160	Br	1.333006	-0.779363	-0.350317
Br161	Br	1.666340	-0.446030	-0.016983
Br162	Br	1.999673	-0.112696	0.316350
Br163	Br	1.045064	-0.935179	-0.265300
Br164	Br	1.378397	-0.601846	0.068034
Br165	Br	1.711730	-0.268513	0.401367
H166	H	1.249978	-0.791680	-0.492314
H167	H	1.583312	-0.458347	-0.158981
H168	H	1.916645	-0.125013	0.174353
H169	H	1.031640	-0.792038	-0.407075
H170	H	1.364973	-0.458705	-0.073742
H171	H	1.698306	-0.125372	0.259591
H172	H	1.033708	-0.919339	-0.412304
H173	H	1.367041	-0.586006	-0.078971
H174	H	1.700375	-0.252672	0.254362
H175	H	1.213208	-0.919874	-0.262915
H176	H	1.546541	-0.586541	0.070418
H177	H	1.879874	-0.253207	0.403752
