data_functionalizedCrystal
_audit_creation_method	'MofGen! by Chris Wilmer'
_symmetry_space_group_name_H-M	'P1'
_symmetry_Int_Tables_number	1
_symmetry_cell_setting	triclinic
loop_
_symmetry_equiv_pos_as_xyz
  x,y,z
_cell_length_a	11.169417
_cell_length_b	13.897448
_cell_length_c	13.897441
_cell_angle_alpha	90.029627
_cell_angle_beta	90.016405
_cell_angle_gamma	90.018571
loop_
_atom_site_label
_atom_site_type_symbol
_atom_site_fract_x
_atom_site_fract_y
_atom_site_fract_z
Zn1	Zn	1.834860	-0.383971	0.545325
Zn2	Zn	2.334860	0.116029	1.045325
Zn3	Zn	1.834736	-0.545290	0.384026
Zn4	Zn	2.334736	-0.045290	0.884026
Zn5	Zn	1.634158	-0.384013	0.384049
Zn6	Zn	2.134158	0.115987	0.884049
Zn7	Zn	1.634128	-0.545228	0.545285
Zn8	Zn	2.134128	-0.045228	1.045285
O9	O	1.734471	-0.464625	0.464671
O10	O	2.234471	0.035375	0.964671
O11	O	2.002794	-0.405378	0.523935
O12	O	2.502794	0.094622	1.023935
O13	O	1.808090	-0.523939	0.249048
O14	O	2.308090	-0.023939	0.749048
O15	O	1.660847	-0.249026	0.405469
O16	O	2.160847	0.250974	0.905469
O17	O	2.002702	-0.523899	0.405430
O18	O	2.502702	-0.023899	0.905430
O19	O	1.808302	-0.248995	0.523958
O20	O	2.308302	0.251005	1.023958
O21	O	1.660726	-0.405450	0.249065
O22	O	2.160726	0.094550	0.749065
O23	O	1.466205	-0.405390	0.405431
O24	O	1.966205	0.094610	0.905431
O25	O	1.660795	-0.523793	0.680272
O26	O	2.160795	-0.023793	1.180272
O27	O	1.466182	-0.523834	0.523890
O28	O	1.966182	-0.023834	1.023890
O29	O	1.808272	-0.405318	0.680301
O30	O	2.308272	0.094682	1.180301
O31	O	1.808060	-0.680263	0.405391
O32	O	2.308060	-0.180263	0.905391
O33	O	1.660674	-0.680218	0.523867
O34	O	2.160674	-0.180218	1.023867
C35	C	1.422646	-0.464611	0.464659
C36	C	1.922646	0.035389	0.964659
C37	C	1.289246	-0.464628	0.464676
C38	C	1.789246	0.035372	0.964676
C39	C	1.734383	-0.715240	0.464643
C40	C	2.234383	-0.215240	0.964643
C41	C	1.734456	-0.822454	0.464664
C42	C	2.234456	-0.322454	0.964664
C43	C	1.734582	-1.018749	0.464724
C44	C	2.234582	-0.518749	0.964724
C45	C	1.734508	-0.909516	0.464693
C46	C	2.234508	-0.409516	0.964693
C47	C	2.047513	-0.464641	0.464684
C48	C	2.547513	0.035359	0.964684
C49	C	2.180913	-0.464647	0.464690
C50	C	2.680913	0.035353	0.964690
C51	C	1.734544	-0.464544	0.716264
C52	C	2.234544	0.035456	1.216264
C53	C	1.734576	-0.464510	0.823478
C54	C	2.234576	0.035490	1.323478
C55	C	1.734591	-0.213032	0.464720
C56	C	2.234591	0.286968	0.964720
C57	C	1.734643	-0.105818	0.464741
C58	C	2.234643	0.394182	0.964741
C59	C	1.734467	-0.464636	0.214057
C60	C	2.234467	0.035364	0.714057
C61	C	1.734668	-0.464399	0.106844
C62	C	2.234668	0.035601	0.606844
C63	C	1.734600	-0.464483	0.910548
C64	C	2.234600	0.035517	1.410548
C65	C	1.734635	-0.464439	1.019781
C66	C	2.234635	0.035561	1.519781
