data_functionalizedCrystal
_audit_creation_method	'MofGen! by Chris Wilmer'
_symmetry_space_group_name_H-M	'P1'
_symmetry_Int_Tables_number	1
_symmetry_cell_setting	triclinic
loop_
_symmetry_equiv_pos_as_xyz
  x,y,z
_cell_length_a	6.817900
_cell_length_b	11.100257
_cell_length_c	10.992668
_cell_angle_alpha	91.932116
_cell_angle_beta	71.230658
_cell_angle_gamma	71.429968
loop_
_atom_site_label
_atom_site_type_symbol
_atom_site_fract_x
_atom_site_fract_y
_atom_site_fract_z
V1	V	4.112112	-0.396278	-0.178009
O2	O	4.070248	-0.388740	0.008301
O3	O	4.089737	-0.393562	-0.352719
O4	O	4.088759	-0.569110	-0.175382
O5	O	4.071233	-0.211976	-0.170264
V6	V	4.589123	-0.374234	-0.155711
O7	O	4.387657	-0.444631	-0.226922
O8	O	4.763775	-0.325881	-0.106799
O9	O	4.388291	-0.376950	0.018998
O10	O	4.748384	-0.381772	-0.342022
O11	O	4.747398	-0.558536	-0.163457
O12	O	4.389270	-0.201402	-0.158339
C13	C	3.940259	-0.387309	-0.395306
C14	C	4.003418	-0.386241	-0.538135
C15	C	4.249859	-0.393491	-0.600448
C16	C	4.315366	-0.391877	-0.748932
C17	C	3.919334	-0.259166	-0.718427
C18	C	3.855062	-0.260247	-0.569859
C19	C	3.977285	-0.502963	-0.608038
C20	C	4.047946	-0.503572	-0.757053
C21	C	3.939009	-0.611237	-0.169094
C22	C	4.001370	-0.752529	-0.168102
C23	C	3.997558	-0.981118	0.069726
C24	C	3.907238	-0.896328	0.186778
C25	C	3.848293	-0.763605	0.185541
C26	C	3.879678	-0.715671	0.067239
C27	C	3.969997	-0.800461	-0.049813
C28	C	4.028931	-0.933185	-0.048563
C29	C	4.091689	-0.837319	-0.285154
C30	C	4.150622	-0.970042	-0.283919
C31	C	4.123074	-0.789385	-0.403456
C32	C	4.213380	-0.874175	-0.520510
C33	C	4.272325	-1.006905	-0.519267
C34	C	4.240941	-1.054832	-0.400970
C35	C	4.201112	-0.383199	0.061579
C36	C	4.117192	-0.384276	0.204406
C37	C	4.202361	-0.159268	-0.164631
C38	C	4.119237	-0.017976	-0.165617
H39	H	3.870542	-0.171883	-0.523526
H40	H	3.798511	-0.498762	-0.567209
H41	H	4.045522	-1.089186	0.070747
H42	H	4.288916	-1.162899	-0.399947
N43	N	4.247225	-0.822481	-0.648096
H44	H	4.409158	-0.857852	-0.703693
H45	H	4.196073	-0.725541	-0.631010
N46	N	4.369764	-1.098356	-0.645518
H47	H	4.380700	-1.047845	-0.720641
H48	H	4.271796	-1.150016	-0.645772
H49	H	4.463705	-0.481818	-0.802317
H50	H	3.881698	-0.935371	0.283097
N51	N	4.405017	-0.513539	-0.575753
H52	H	4.562274	-0.516348	-0.616608
H53	H	4.388592	-0.591680	-0.615131
N54	N	4.282775	-0.282389	-0.536795
H55	H	4.182001	-0.198659	-0.549606
H56	H	4.441550	-0.287878	-0.577415
N57	N	4.390895	-0.279215	-0.781664
H58	H	4.266841	-0.196636	-0.733730
H59	H	4.433858	-0.277759	-0.878374
N60	N	3.750894	-0.672145	0.311783
H61	H	3.739959	-0.722644	0.386915
H62	H	3.598710	-0.612063	0.320759
H63	H	3.673276	-0.249715	-0.527243
N64	N	3.720391	-0.245805	-0.756593
H65	H	3.759594	-0.241131	-0.852654
H66	H	3.595306	-0.164750	-0.705718
N67	N	3.979798	-0.141846	-0.752251
H68	H	4.135180	-0.169460	-0.817502
H69	H	3.970961	-0.091827	-0.671013
H70	H	4.080115	-0.597983	-0.587726
N71	N	4.237556	-0.626177	-0.826434
H72	H	4.367774	-0.604549	-0.882605
H73	H	4.190502	-0.676744	-0.882732
H74	H	3.906037	-0.505413	-0.789600
N75	N	3.816141	-0.572523	0.065898
H76	H	3.754177	-0.526083	0.157999
H77	H	3.700826	-0.543677	0.023711
N78	N	4.059520	-0.646237	-0.404799
H79	H	3.997536	-0.599793	-0.312698
H80	H	3.944213	-0.617403	-0.446994
