data_functionalizedCrystal
_audit_creation_method	'MofGen! by Chris Wilmer'
_symmetry_space_group_name_H-M	'P1'
_symmetry_Int_Tables_number	1
_symmetry_cell_setting	triclinic
loop_
_symmetry_equiv_pos_as_xyz
  x,y,z
_cell_length_a	23.196402
_cell_length_b	19.902436
_cell_length_c	23.196401
_cell_angle_alpha	60.001993
_cell_angle_beta	90.011299
_cell_angle_gamma	60.000661
loop_
_atom_site_label
_atom_site_type_symbol
_atom_site_fract_x
_atom_site_fract_y
_atom_site_fract_z
Zr1	Zr	0.555368	0.735470	-0.075727
O2	O	0.463297	0.875655	-0.167789
O3	O	0.583592	0.595289	-0.047498
O4	O	0.583565	0.735471	-0.167780
O5	O	0.463346	0.735471	0.047365
O6	O	0.678437	0.735468	-0.167782
O7	O	0.463323	0.735472	-0.047507
O8	O	0.678484	0.484708	0.047381
O9	O	0.463299	0.986231	-0.167798
O10	O	0.666432	0.652944	-0.035469
O11	O	0.595647	0.652945	0.035334
O12	O	0.595616	0.817991	-0.106283
O13	O	0.524832	0.817992	-0.035480
Zr14	Zr	0.706714	0.735463	0.075578
Zr15	Zr	0.706678	0.735466	-0.075731
Zr16	Zr	0.555405	0.735467	0.075581
Zr17	Zr	0.555372	0.911827	-0.075742
Zr18	Zr	0.706711	0.559106	0.075593
O19	O	0.678491	0.875644	0.047348
O20	O	0.678440	0.875648	-0.167793
O21	O	0.463348	0.875651	0.047353
O22	O	0.798786	0.595278	0.167640
O23	O	0.798734	0.595282	-0.047502
O24	O	0.583643	0.595285	0.167644
O25	O	0.798737	0.735462	-0.047514
O26	O	0.678517	0.735462	0.167630
O27	O	0.583645	0.735465	0.167632
O28	O	0.798760	0.735461	0.047357
O29	O	0.583570	0.986227	-0.167801
O30	O	0.678513	0.484705	0.167651
O31	O	0.798784	0.484702	0.167649
O32	O	0.798755	0.484704	0.047378
O33	O	0.463328	0.986229	-0.047528
O34	O	0.583599	0.986225	-0.047530
O35	O	0.666466	0.652941	0.106134
O36	O	0.737251	0.652941	0.035331
O37	O	0.666435	0.817988	-0.035483
O38	O	0.595650	0.817989	0.035320
C39	C	0.631037	0.514871	-0.000056
C40	C	0.631036	0.440003	-0.000050
C41	C	0.631043	0.167993	-0.000083
C42	C	0.586607	0.196232	0.044797
C43	C	0.586366	0.274351	0.044612
C44	C	0.631040	0.302940	-0.000066
C45	C	0.598448	0.338506	-0.077006
C46	C	0.598114	0.260668	-0.076769
C47	C	0.708093	0.133475	0.031359
C48	C	0.707981	0.210527	0.032926
C49	C	0.631038	0.379208	-0.000061
C50	C	0.631042	0.091729	-0.000094
C51	C	0.441776	0.735472	-0.000071
C52	C	0.377541	0.735474	-0.000069
C53	C	0.347356	0.735482	-0.052338
C54	C	0.287005	0.735473	-0.052338
C55	C	0.256833	0.735476	-0.000074
C56	C	0.287027	0.735463	0.052204
C57	C	0.347381	0.735462	0.052206
C58	C	0.137463	0.790848	0.016207
C59	C	0.077107	0.790855	0.016200
C60	C	0.070683	0.735475	-0.000078
C61	C	0.124615	0.680100	-0.016364
C62	C	0.184970	0.680099	-0.016361
C63	C	0.191389	0.735477	-0.000071
C64	C	-0.024941	0.735472	-0.052350
C65	C	-0.085291	0.735458	-0.052345
C66	C	-0.085272	0.735457	0.052194
C67	C	-0.024919	0.735462	0.052192
C68	C	0.005241	0.735474	-0.000084
C69	C	0.820307	0.735461	-0.000079
C70	C	0.884542	0.735459	-0.000080
C71	C	0.630996	0.735470	-0.189339
C72	C	0.630981	0.735471	-0.253574
C73	C	0.631045	0.956062	-0.000093
C74	C	0.631047	1.030930	-0.000099
C75	C	0.594019	0.821621	-0.320711
C76	C	0.594037	0.821623	-0.381066
C77	C	0.631007	0.735469	-0.374280
C78	C	0.667977	0.649307	-0.307131
C79	C	0.667964	0.649308	-0.246778
C80	C	0.625756	0.669464	-0.441591
C81	C	0.625764	0.669466	-0.501945
C82	C	0.631052	0.735461	-0.560428
C83	C	0.636317	0.801470	-0.558556
C84	C	0.636304	0.801471	-0.498203
C85	C	0.631026	0.735458	-0.439719
C86	C	0.594108	0.821619	-0.693011
C87	C	0.594131	0.821617	-0.753366
C88	C	0.668066	0.649298	-0.679429
C89	C	0.668047	0.649303	-0.619076
C90	C	0.631065	0.735466	-0.625872
C91	C	0.631087	0.735463	0.189190
C92	C	0.631102	0.735462	0.253424
C93	C	0.820303	0.514865	-0.000060
C94	C	0.884536	0.439995	-0.000056
C95	C	0.631083	0.514868	0.189208
C96	C	0.631097	0.439998	0.253449
C97	C	0.820348	0.514862	0.189204
C98	C	0.884597	0.439991	0.253443
C99	C	0.441735	0.956071	-0.189353
C100	C	0.377486	1.030942	-0.253593
C101	C	0.441780	0.956067	-0.000089
C102	C	0.377546	1.030937	-0.000094
C103	C	0.631000	0.956065	-0.189357
C104	C	0.630986	1.030934	-0.253598
C105	C	0.877734	0.404837	-0.037016
C106	C	0.938083	0.334499	-0.037026
C107	C	1.005233	0.299315	-0.000070
C108	C	1.012033	0.334480	0.036892
C109	C	0.951685	0.404822	0.036897
C110	C	0.668070	0.404837	0.320580
C111	C	0.668080	0.334500	0.380947
C112	C	0.631121	0.299319	0.374181
C113	C	0.594144	0.334488	0.307043
C114	C	0.594129	0.404829	0.246677
C115	C	0.951724	0.404830	0.246653
C116	C	1.012099	0.334491	0.307007
C117	C	1.005344	0.299308	0.374151
C118	C	0.938210	0.334476	0.380940
C119	C	0.877837	0.404819	0.320587
C120	C	0.310358	1.066111	-0.246802
C121	C	0.249984	1.136473	-0.307156
C122	C	0.256738	1.171659	-0.374300
C123	C	0.323873	1.136487	-0.381090
C124	C	0.384246	1.066131	-0.320736
C125	C	0.384348	1.066103	0.036861
C126	C	0.324000	1.136461	0.036854
C127	C	0.256850	1.171647	-0.000104
C128	C	0.250050	1.136479	-0.037063
C129	C	0.310397	1.066127	-0.037060
C130	C	0.667952	1.066092	-0.246810
C131	C	0.667953	1.136430	-0.307165
C132	C	0.630983	1.171614	-0.374308
C133	C	0.594015	1.136450	-0.381095
C134	C	0.594019	1.066108	-0.320741
H135	H	0.542292	0.405512	-0.102350
N136	N	0.959030	0.442764	0.174242
H137	H	0.935629	0.513380	0.147547
H138	H	0.935648	0.430453	0.147609
N139	N	0.707840	1.028151	-0.174399
H140	H	0.745034	0.957535	-0.147709
H141	H	0.673910	1.040460	-0.147762
H142	H	0.957233	0.433438	0.066999
H143	H	1.054366	0.242037	-0.000079
N144	N	1.084461	0.296528	0.076749
H145	H	1.121653	0.246630	0.071135
H146	H	1.090069	0.267382	0.128438
N147	N	0.805434	0.442726	0.327913
H148	H	0.778728	0.513342	0.304518
H149	H	0.810380	0.409691	0.379619
N150	N	0.456642	1.028195	-0.328075
H151	H	0.483329	0.957583	-0.304686
H152	H	0.483297	1.040489	-0.304698
N153	N	0.707970	0.296566	0.453356
H154	H	0.688594	0.350241	0.459001
H155	H	0.759663	0.267362	0.458959
N156	N	0.930739	0.296581	-0.076895
H157	H	0.879042	0.329541	-0.100297
H158	H	0.954179	0.225963	-0.042960
N159	N	0.740258	0.172481	0.107990
H160	H	0.705191	0.214919	0.120582
H161	H	0.784234	0.171029	0.112546
N162	N	0.379933	0.735469	0.108579
H163	H	0.422743	0.735473	0.100647
H164	H	0.394531	0.676877	0.156542
N165	N	0.554133	1.028209	-0.328071
H166	H	0.559738	0.978309	-0.279653
H167	H	0.573528	0.999079	-0.354761
N168	N	0.744145	0.043373	0.105271
H169	H	0.793495	0.022489	0.124435
H170	H	0.746615	-0.008117	0.104230
N171	N	0.752159	0.108494	-0.011729
H172	H	0.769951	0.149793	-0.032079
H173	H	0.722357	0.119453	-0.051386
N174	N	0.755540	0.231185	-0.005869
H175	H	0.757691	0.279001	-0.003130
H176	H	0.736197	0.257815	-0.056945
N177	N	0.554287	0.296534	0.299750
H178	H	0.559915	0.246634	0.348182
H179	H	0.573693	0.267389	0.273072
N180	N	1.070470	0.223426	0.439237
H181	H	1.070509	0.165047	0.468289
H182	H	1.070483	0.247972	0.468239
H183	H	0.439019	1.037459	0.066961
H184	H	0.932721	0.305820	0.435617
N185	N	0.303063	1.028166	-0.174387
H186	H	0.251373	1.061132	-0.179254
H187	H	0.326506	1.040400	-0.147734
H188	H	1.066757	0.305864	0.301466
N189	N	0.331344	1.174382	0.076719
H190	H	0.383041	1.141405	0.100137
H191	H	0.307919	1.162146	0.113875
H192	H	0.698167	0.433473	0.326103
N193	N	0.379899	0.735474	-0.108707
H194	H	0.379803	0.794061	-0.136174
H195	H	0.351599	0.735438	-0.141772
N196	N	0.191764	1.247527	-0.000105
H197	H	0.206268	1.264458	0.028918
H198	H	0.162745	1.222994	0.020918
N199	N	0.511084	0.359744	0.015719
H200	H	0.504740	0.416908	-0.027845
H201	H	0.500186	0.372731	0.052634
N202	N	0.554262	0.442731	0.174273
H203	H	0.559857	0.492629	0.137053
H204	H	0.502576	0.471862	0.168681
H205	H	0.631139	0.242043	0.423340
H206	H	0.621445	0.615723	-0.393977
N207	N	0.177581	1.174397	-0.299824
H208	H	0.182469	1.141420	-0.248129
H209	H	0.150918	1.162164	-0.323257
H210	H	0.630985	1.228892	-0.423447
H211	H	0.629259	0.359399	-0.111892
N212	N	0.191620	1.247531	-0.439395
H213	H	0.191578	1.305911	-0.468453
H214	H	0.148108	1.264385	-0.424843
H215	H	0.195368	1.165139	-0.067154
N216	N	0.331152	1.174441	-0.453511
H217	H	0.282717	1.224343	-0.490708
H218	H	0.357830	1.120720	-0.459104
H219	H	0.304849	1.037498	-0.067151
H220	H	0.698055	1.165054	-0.301625
H221	H	0.823063	0.433484	-0.067119
H222	H	0.262424	0.735480	-0.094903
N223	N	0.554142	1.174403	-0.453516
H224	H	0.559751	1.224301	-0.490714
H225	H	0.502454	1.203548	-0.459113
H226	H	0.608228	0.247703	0.101267
H227	H	0.608353	0.131724	0.101595
H228	H	0.530108	0.222194	0.023181
H229	H	0.541416	0.290213	-0.101940
H230	H	0.119386	0.635009	-0.029623
N231	N	0.243136	0.620375	-0.033923
H232	H	0.262280	0.551281	0.001063
H233	H	0.282300	0.628856	-0.031463
N234	N	0.638212	0.239536	-0.123468
H235	H	0.656024	0.280783	-0.144118
H236	H	0.605859	0.253242	-0.162906
H237	H	-0.109865	0.735458	-0.094907
N238	N	0.007595	0.735481	-0.108727
H239	H	-0.020684	0.735477	-0.141837
H240	H	0.057777	0.676893	-0.085865
N241	N	0.707901	0.556386	-0.546658
H242	H	0.745087	0.552544	-0.519953
H243	H	0.731279	0.501858	-0.551571
N244	N	-0.117801	0.735449	0.108571
H245	H	-0.160615	0.735447	0.100640
H246	H	-0.132388	0.794038	0.106259
H247	H	-0.000343	0.735461	0.094752
H248	H	0.033197	0.835948	0.029457
H249	H	0.262459	0.735463	0.094759
N250	N	0.144385	0.850592	0.033755
H251	H	0.104235	0.919684	-0.001239
H252	H	0.190825	0.842110	0.031294
N253	N	0.554141	0.914550	-0.328039
H254	H	0.530732	0.969127	-0.379732
H255	H	0.588076	0.918298	-0.304595
H256	H	0.698168	0.579150	-0.673902
N257	N	0.554170	0.914545	-0.453489
H258	H	0.530740	0.969128	-0.448636
H259	H	0.517023	0.918288	-0.480149
H260	H	0.640593	0.855216	-0.496682
N261	N	0.620094	0.598264	-0.503954
H262	H	0.576477	0.632966	-0.543896
H263	H	0.616784	0.556470	-0.457714
N264	N	0.642017	0.872661	-0.621628
H265	H	0.641230	0.862645	-0.660145
H266	H	0.687706	0.863823	-0.607266
H267	H	0.698079	0.579160	-0.301609
H268	H	0.564035	0.891774	-0.808034
N269	N	0.554230	0.914541	-0.700327
H270	H	0.502527	0.952211	-0.727009
H271	H	0.573673	0.952130	-0.726952
N272	N	0.707832	0.556385	-0.174360
H273	H	0.731259	0.501804	-0.179215
H274	H	0.673891	0.552632	-0.147724
