data_functionalizedCrystal
_audit_creation_method	'MofGen! by Chris Wilmer'
_symmetry_space_group_name_H-M	'P1'
_symmetry_Int_Tables_number	1
_symmetry_cell_setting	triclinic
loop_
_symmetry_equiv_pos_as_xyz
  x,y,z
_cell_length_a	18.101389
_cell_length_b	19.077105
_cell_length_c	19.077068
_cell_angle_alpha	89.884684
_cell_angle_beta	92.277715
_cell_angle_gamma	92.315730
loop_
_atom_site_label
_atom_site_type_symbol
_atom_site_fract_x
_atom_site_fract_y
_atom_site_fract_z
Zn1	Zn	-0.477251	-1.062984	-0.323060
Zn2	Zn	-0.358165	-1.058173	-0.440549
Zn3	Zn	-0.348262	-0.945478	-0.318333
Zn4	Zn	-0.476806	-0.940719	-0.435801
O5	O	-0.415121	-1.001839	-0.379436
O6	O	-0.465784	-1.160677	-0.342610
O7	O	-0.253218	-1.043201	-0.424345
O8	O	-0.361415	-0.965071	-0.220629
O9	O	-0.378292	-1.157142	-0.428929
O10	O	-0.456182	-1.051402	-0.224102
O11	O	-0.245943	-0.960405	-0.334554
O12	O	-0.360983	-0.846515	-0.329950
O13	O	-0.580498	-0.956960	-0.420837
O14	O	-0.455424	-0.843019	-0.416254
O15	O	-0.580825	-1.046788	-0.338006
O16	O	-0.377861	-1.038587	-0.538250
O17	O	-0.465026	-0.952294	-0.534762
C18	C	-0.422487	-0.994421	-0.562002
C19	C	-0.425665	-0.991312	-0.640108
C20	C	-0.608284	-1.001880	-0.379419
C21	C	-0.690599	-1.001897	-0.379413
C22	C	-0.407081	-0.819271	-0.372074
C23	C	-0.403660	-0.741167	-0.368942
C24	C	-0.989686	-1.001944	-0.379283
C25	C	-0.958140	-0.945246	-0.431217
C26	C	-0.872538	-0.945384	-0.431474
C27	C	-0.841305	-1.001920	-0.379347
C28	C	-0.876470	-1.075148	-0.402427
C29	C	-0.962116	-1.074830	-0.402771
C30	C	-0.954271	-0.986062	-0.304173
C31	C	-0.868566	-0.984397	-0.304536
C32	C	-0.757447	-1.001911	-0.379382
C33	C	-1.073545	-1.001957	-0.379249
C34	C	-0.222709	-1.001840	-0.379403
C35	C	-0.140393	-1.001966	-0.379217
C36	C	-0.423193	-1.185119	-0.386826
C37	C	-0.426632	-1.263222	-0.389976
C38	C	-0.451151	-0.702669	-0.412472
C39	C	-0.447940	-0.629283	-0.409519
C40	C	-0.397233	-0.594395	-0.363040
C41	C	-0.349740	-0.632899	-0.319506
C42	C	-0.352956	-0.706284	-0.322455
C43	C	-0.382355	-0.375111	-0.349390
C44	C	-0.379141	-0.301720	-0.346446
C45	C	-0.477342	-0.298109	-0.436459
C46	C	-0.480550	-0.371496	-0.439407
C47	C	-0.433060	-0.409993	-0.395870
N48	N	-0.393948	-0.519383	-0.360023
N49	N	-0.436349	-0.485004	-0.398884
C50	C	-0.381818	-1.034814	-0.678596
C51	C	-0.384812	-1.031895	-0.751984
C52	C	-0.431651	-0.985468	-0.786883
C53	C	-0.475503	-0.941964	-0.748390
C54	C	-0.472512	-0.944888	-0.675003
C55	C	-0.445461	-0.971905	-1.006174
C56	C	-0.448447	-0.968983	-1.079566
C57	C	-0.357757	-1.058915	-1.083156
C58	C	-0.354767	-1.061831	-1.009767
C59	C	-0.398622	-1.018330	-0.971280
N60	N	-0.434711	-0.982481	-0.861898
N61	N	-0.395565	-1.021321	-0.896267
C62	C	-0.407743	-1.009304	-0.196157
C63	C	-0.404600	-1.012485	-0.118054
H64	H	-0.975808	-0.890681	-0.416551
H65	H	-0.316627	-1.099635	-0.981354
N66	N	-0.840106	-1.035419	-0.250237
H67	H	-0.784221	-1.033028	-0.248417
H68	H	-0.858581	-1.084537	-0.263196
H69	H	-0.314287	-0.737628	-0.287005
H70	H	-0.516007	-0.266757	-0.471903
N71	N	-0.295042	-0.595277	-0.269378
H72	H	-0.243110	-0.607596	-0.280737
H73	H	-0.305226	-0.610105	-0.219721
H74	H	-0.343679	-0.406446	-0.313945
N75	N	-0.990281	-0.958679	-0.504437
H76	H	-1.025190	-1.001329	-0.504111
H77	H	-0.948953	-0.967086	-0.537069
N78	N	-0.324434	-0.264080	-0.296333
H79	H	-0.351927	-0.234948	-0.262592
H80	H	-0.289909	-0.232512	-0.323698
H81	H	-0.854835	-0.955627	-0.487086
H82	H	-0.974654	-1.027394	-0.265442
N83	N	-0.526020	-0.891885	-0.786024
H84	H	-0.578901	-0.903279	-0.773658
H85	H	-0.521198	-0.896652	-0.838343
H86	H	-0.322053	-1.094332	-1.114500
N87	N	-0.498968	-0.918907	-1.117209
H88	H	-0.526298	-0.891793	-1.081693
H89	H	-0.535757	-0.946282	-1.148771
H90	H	-0.343673	-1.072616	-0.650186
N91	N	-0.505839	-0.740291	-0.462609
H92	H	-0.557775	-0.727983	-0.451256
H93	H	-0.500606	-0.792611	-0.457853
N94	N	-0.992430	-1.093116	-0.475619
H95	H	-1.022165	-1.053210	-0.494845
H96	H	-1.025257	-1.137096	-0.473564
H97	H	-0.983169	-1.118346	-0.366747
H98	H	-0.972791	-0.933749	-0.283725
H99	H	-0.481169	-0.936484	-0.974844
N100	N	-0.519808	-0.897971	-0.633487
H101	H	-0.549933	-0.868116	-0.666729
H102	H	-0.486966	-0.866681	-0.601770
H103	H	-0.856405	-1.118397	-0.365920
H104	H	-0.349106	-1.067318	-0.783318
N105	N	-0.499151	-0.587759	-0.456479
H106	H	-0.531754	-0.620995	-0.486377
H107	H	-0.468913	-0.555985	-0.487725
N108	N	-0.535244	-0.409113	-0.489542
H109	H	-0.587179	-0.396803	-0.478189
H110	H	-0.530013	-0.461434	-0.484789
N111	N	-0.840808	-0.873343	-0.411856
H112	H	-0.882431	-0.841210	-0.402967
H113	H	-0.810735	-0.853915	-0.451468
H114	H	-0.857919	-1.089260	-0.456855
H115	H	-0.845232	-0.930523	-0.287185
