data_functionalizedCrystal
_audit_creation_method	'MofGen! by Chris Wilmer'
_symmetry_space_group_name_H-M	'P1'
_symmetry_Int_Tables_number	1
_symmetry_cell_setting	triclinic
loop_
_symmetry_equiv_pos_as_xyz
  x,y,z
_cell_length_a	27.440280
_cell_length_b	19.377369
_cell_length_c	19.377028
_cell_angle_alpha	117.553306
_cell_angle_beta	104.491835
_cell_angle_gamma	48.634130
loop_
_atom_site_label
_atom_site_type_symbol
_atom_site_fract_x
_atom_site_fract_y
_atom_site_fract_z
Zr1	Zr	0.363559	0.779801	-0.049398
O2	O	0.282515	0.928456	0.037200
O3	O	0.404590	0.631156	-0.057062
O4	O	0.407532	0.779797	0.064415
O5	O	0.258839	0.779816	-0.201579
O6	O	0.487734	0.779783	0.064403
O7	O	0.279573	0.779815	-0.084276
O8	O	0.482472	0.513891	-0.152897
O9	O	0.264101	1.045707	0.015721
O10	O	0.462387	0.692282	-0.083153
O11	O	0.387059	0.692293	-0.170685
O12	O	0.390523	0.867299	-0.027662
O13	O	0.315195	0.867310	-0.115195
Zr14	Zr	0.458404	0.779781	-0.236501
Zr15	Zr	0.491472	0.779780	-0.049417
Zr16	Zr	0.330490	0.779803	-0.236481
Zr17	Zr	0.334191	0.966804	-0.083655
Zr18	Zr	0.487771	0.592778	-0.202243
O19	O	0.417372	0.928427	-0.228836
O20	O	0.464391	0.928425	0.037173
O21	O	0.235496	0.928458	-0.228809
O22	O	0.539448	0.631126	-0.323099
O23	O	0.586467	0.631124	-0.057089
O24	O	0.357571	0.631157	-0.323071
O25	O	0.563124	0.779766	-0.084319
O26	O	0.414430	0.779785	-0.350313
O27	O	0.334228	0.779799	-0.350301
O28	O	0.542390	0.779767	-0.201622
O29	O	0.365776	1.045690	0.015705
O30	O	0.456187	0.513892	-0.301604
O31	O	0.557861	0.513875	-0.301619
O32	O	0.584146	0.513874	-0.152912
O33	O	0.237816	1.045708	-0.132986
O34	O	0.339491	1.045691	-0.133001
O35	O	0.431440	0.692283	-0.258236
O36	O	0.506767	0.692273	-0.170704
O37	O	0.434903	0.867289	-0.115213
O38	O	0.359576	0.867300	-0.202745
C39	C	0.447715	0.545880	-0.100098
C40	C	0.460182	0.466492	-0.085555
C41	C	0.304794	0.205116	-0.266427
C42	C	0.316580	0.130428	-0.252824
C43	C	0.395216	0.130427	-0.161447
C44	C	0.383439	0.205112	-0.175045
C45	C	0.338227	0.242452	-0.227536
C46	C	0.416872	0.242448	-0.136154
C47	C	0.405094	0.317131	-0.149748
C48	C	0.359882	0.354477	-0.202234
C49	C	0.326449	0.317134	-0.241130
C50	C	0.462081	0.205112	-0.083660
C51	C	0.495514	0.242448	-0.044768
C52	C	0.483739	0.317127	-0.058366
C53	C	0.438528	0.354474	-0.110852
C54	C	0.517173	0.354470	-0.019471
C55	C	0.505395	0.429153	-0.033065
C56	C	0.426749	0.429156	-0.124447
C57	C	0.250981	0.779818	-0.142925
C58	C	0.196678	0.779828	-0.142917
C59	C	-0.102510	0.688418	-0.171936
C60	C	-0.153529	0.688412	-0.171942
O61	O	-0.148019	0.610717	-0.196603
N62	N	-0.216558	0.779768	-0.142976
C63	C	-0.228568	0.871135	-0.114008
O64	O	-0.286864	0.948840	-0.089371
C65	C	-0.177551	0.871140	-0.114007
C66	C	-0.114521	0.779778	-0.142968
C67	C	-0.039483	0.597063	-0.200896
C68	C	0.011532	0.597069	-0.200887
C69	C	-0.000479	0.688430	-0.171919
C70	C	-0.063505	0.779784	-0.142960
C71	C	-0.189563	0.962506	-0.085044
C72	C	-0.138539	0.962503	-0.085046
C73	C	-0.075509	0.871141	-0.114007
C74	C	-0.024501	0.871150	-0.113984
N75	N	0.038528	0.779794	-0.142950
C76	C	0.050539	0.688434	-0.171918
C77	C	-0.335706	0.871119	-0.114014
C78	C	-0.386722	0.871115	-0.114010
C79	C	-0.311679	0.688392	-0.171946
C80	C	-0.260662	0.688396	-0.171945
C81	C	-0.272677	0.779763	-0.142981
C82	C	0.157672	0.688453	-0.171898
C83	C	0.208689	0.688467	-0.171885
C84	C	0.133642	0.871190	-0.113952
C85	C	0.082629	0.871177	-0.113962
C86	C	0.094649	0.779800	-0.142940
O87	O	-0.029963	0.948806	-0.089338
O88	O	0.108833	0.610742	-0.196561
C89	C	0.570981	0.779764	-0.142973
C90	C	0.625284	0.779754	-0.142982
C91	C	0.452345	0.779790	0.091064
C92	C	0.466383	0.779789	0.170486
C93	C	0.374247	1.013703	-0.185800
C94	C	0.361780	1.093090	-0.200343
C95	C	0.530352	0.779780	0.282422
C96	C	0.517155	0.779781	0.207793
C97	C	0.428790	0.779792	0.207798
C98	C	0.441981	0.779786	0.282427
C99	C	0.492762	0.779781	0.319733
C100	C	0.404391	0.779787	0.319738
C101	C	0.417579	0.779786	0.394362
C102	C	0.468357	0.779785	0.431675
C103	C	0.505950	0.779781	0.394357
C104	C	0.353607	0.779799	0.282433
C105	C	0.316018	0.779800	0.319744
C106	C	0.329208	0.779792	0.394367
C107	C	0.379986	0.779791	0.431680
C108	C	0.291615	0.779797	0.431685
C109	C	0.304803	0.779796	0.506309
C110	C	0.393174	0.779790	0.506304
C111	C	0.369619	0.779792	0.623037
C112	C	0.355585	0.779791	0.543615
C113	C	0.607715	0.545852	-0.100123
C114	C	0.674485	0.466455	-0.085588
C115	C	0.406352	0.545881	-0.334112
C116	C	0.404780	0.466494	-0.398991
C117	C	0.566352	0.545854	-0.334136
C118	C	0.619083	0.466457	-0.399023
C119	C	0.255611	1.013729	0.048238
C120	C	0.202879	1.093125	0.113125
C121	C	0.214247	1.013730	-0.185776
C122	C	0.147477	1.093127	-0.200310
C123	C	0.415611	1.013701	0.048213
C124	C	0.417182	1.093088	0.113092
C125	C	0.682676	0.429175	-0.033054
C126	C	0.745410	0.354584	-0.019381
C127	C	0.799952	0.317269	-0.058247
C128	C	0.791758	0.354557	-0.110784
C129	C	0.729026	0.429152	-0.124452
C130	C	0.427207	0.429208	-0.475167
C131	C	0.425726	0.354626	-0.536136
C132	C	0.401821	0.317326	-0.520927
C133	C	0.379391	0.354620	-0.444744
C134	C	0.380868	0.429205	-0.383777
C135	C	0.683172	0.429166	-0.383804
C136	C	0.732723	0.354575	-0.444767
C137	C	0.718185	0.317272	-0.520948
C138	C	0.654089	0.354570	-0.536167
C139	C	0.604539	0.429165	-0.475205
C140	C	0.138789	1.130425	0.097904
C141	C	0.089234	1.205039	0.158863
C142	C	0.103772	1.242346	0.235043
C143	C	0.167868	1.205043	0.250263
C144	C	0.217421	1.130436	0.189304
C145	C	0.139286	1.130415	-0.252838
C146	C	0.076553	1.205027	-0.266494
C147	C	0.022011	1.242344	-0.227625
C148	C	0.030205	1.205053	-0.175092
C149	C	0.092937	1.130447	-0.161432
C150	C	0.441091	1.130364	0.097860
C151	C	0.442580	1.204947	0.158815
C152	C	0.420154	1.242257	0.235001
C153	C	0.396245	1.204974	0.250234
C154	C	0.394761	1.130387	0.189280
H155	H	0.389933	0.459560	-0.167190
H156	H	0.289633	0.347538	-0.283874
H157	H	-0.209344	0.614001	-0.195535
H158	H	0.471666	0.144306	-0.072589
H159	H	0.342870	0.779804	0.221670
H160	H	0.532619	0.459553	-0.001394
H161	H	0.126941	1.100053	0.035880
H162	H	0.836175	0.324164	-0.142425
H163	H	0.031309	0.945571	-0.090368
H164	H	0.851030	0.256528	-0.047112
H165	H	0.695022	0.459528	-0.321778
C166	C	0.421789	1.324306	0.302044
N167	N	0.423021	1.386108	0.352537
C168	C	0.622688	0.470213	0.009714
N169	N	0.577508	0.501123	0.041934
H170	H	0.267978	0.235519	-0.309171
C171	C	0.444949	0.089343	-0.103711
N172	N	0.482411	0.058396	-0.060226
C173	C	0.754408	0.313572	0.038405
N174	N	0.761184	0.282682	0.081927
H175	H	-0.345498	0.945525	-0.090425
H176	H	0.547769	0.779781	0.177418
C177	C	0.199274	1.089385	-0.295599
N178	N	0.244455	1.058491	-0.327807
C179	C	0.545247	0.201364	0.012968
N180	N	0.582709	0.170417	0.056453
C181	C	0.482865	0.779783	0.513764
N182	N	0.493793	0.779779	0.575592
H183	H	0.722364	0.459496	-0.167234
H184	H	0.446672	0.459569	-0.487565
C185	C	0.371609	1.245990	0.334052
N186	N	0.353062	1.276876	0.397187
H187	H	0.274670	0.779808	0.289362
C188	C	0.368446	1.089405	0.206047
N189	N	0.348623	1.058544	0.218681
C190	C	0.067554	1.246026	-0.324291
N191	N	0.060779	1.276901	-0.367825
C192	C	0.450410	0.313607	-0.619931
N193	N	0.469005	0.282712	-0.683042
C194	C	0.468878	1.245950	0.142041
N195	N	0.488686	1.276831	0.129405
H196	H	0.387442	0.779799	0.177416
C197	C	0.049256	1.324409	0.302093
N198	N	0.008192	1.386215	0.352593
H199	H	0.260012	0.614067	-0.195470
C200	C	0.018733	1.246057	0.142104
N201	N	-0.034368	1.276949	0.129479
C202	C	0.772701	0.235208	-0.587998
N203	N	0.813766	0.173393	-0.638497
C204	C	0.183851	1.246083	0.334069
N205	N	0.195888	1.276991	0.397195
C206	C	0.080860	0.496563	-0.232756
N207	N	0.133076	0.420856	-0.256764
C208	C	-0.298477	0.587893	-0.203819
N209	N	-0.288537	0.512202	-0.227825
H210	H	0.784909	0.324215	-0.432361
C211	C	0.353102	0.313573	-0.428025
N212	N	0.333305	0.282650	-0.415434
C213	C	0.346927	0.436630	-0.217189
N214	N	0.337170	0.498506	-0.228455
H215	H	0.269606	1.100067	0.201707
C216	C	0.235755	0.779808	0.390639
N217	N	0.193681	0.779816	0.359724
H218	H	0.571708	0.779765	0.312795
C219	C	0.638109	0.313517	-0.619971
N220	N	0.626075	0.282587	-0.683093
C221	C	0.534041	0.470174	-0.491960
N222	N	0.480942	0.501061	-0.504585
C223	C	-0.029800	1.246099	-0.132353
N224	N	-0.074997	1.277009	-0.100170
C225	C	0.566901	0.313391	0.038271
N226	N	0.604358	0.282450	0.081762
H227	H	0.289349	0.100035	-0.284496
H228	H	0.167468	0.614046	-0.195496
H229	H	-0.029066	1.303093	-0.238755
C230	C	-0.258888	1.063013	-0.053187
N231	N	-0.311106	1.138721	-0.029191
C232	C	-0.151762	1.063016	-0.053178
N233	N	-0.161723	1.138723	-0.029173
H234	H	-0.029693	0.522663	-0.224488
H235	H	-0.438038	0.945511	-0.090415
H236	H	0.400622	0.256594	-0.570578
C237	C	0.101937	1.089427	-0.103656
N238	N	0.108711	1.058532	-0.060138
H239	H	0.123873	0.945574	-0.090364
H240	H	0.434530	0.779776	0.536677
H241	H	0.362608	0.459554	-0.321751
C242	C	0.561810	0.779782	0.435401
N243	N	0.603879	0.779790	0.466317
H244	H	0.274193	0.779798	0.536688
H245	H	0.459352	1.099998	0.035829
