data_functionalizedCrystal
_audit_creation_method	'MofGen! by Chris Wilmer'
_symmetry_space_group_name_H-M	'P1'
_symmetry_Int_Tables_number	1
_symmetry_cell_setting	triclinic
loop_
_symmetry_equiv_pos_as_xyz
  x,y,z
_cell_length_a	14.853567
_cell_length_b	14.519709
_cell_length_c	13.330367
_cell_angle_alpha	89.994415
_cell_angle_beta	89.995418
_cell_angle_gamma	83.657538
loop_
_atom_site_label
_atom_site_type_symbol
_atom_site_fract_x
_atom_site_fract_y
_atom_site_fract_z
O1	O	1.196416	0.120405	-0.083357
O2	O	0.933962	0.134748	-0.083374
O3	O	1.072147	-0.006665	-0.083356
O4	O	1.058230	0.261818	-0.083375
O5	O	1.072127	-0.006668	0.083491
O6	O	0.933942	0.134745	0.083473
O7	O	1.196395	0.120402	0.083491
Cu8	Cu	1.065167	0.127573	0.098716
Cu9	Cu	1.065190	0.127577	-0.098600
O10	O	1.058210	0.261814	0.083472
C11	C	0.900363	0.134096	0.000047
C12	C	0.800278	0.132149	0.000041
C13	C	0.387709	0.039914	0.000070
C14	C	0.366493	0.207916	0.000057
C15	C	0.460527	0.209747	0.000054
C16	C	0.518157	0.126660	0.000057
C17	C	0.481752	0.041743	0.000064
C18	C	0.496939	0.294663	0.000037
C19	C	0.590979	0.296498	0.000033
C20	C	0.648610	0.213410	0.000043
C21	C	0.612200	0.128489	0.000051
C22	C	0.669830	0.045403	0.000054
C23	C	0.633422	-0.039520	0.000069
C24	C	0.539383	-0.041345	0.000074
C25	C	0.742649	0.215235	0.000038
C26	C	0.763873	0.047231	0.000048
C27	C	1.071488	-0.041026	0.000068
C28	C	1.069545	-0.143407	0.000068
C29	C	1.062390	-0.518299	0.000042
C30	C	1.064377	-0.413992	0.000050
C31	C	1.065967	-0.330856	0.000056
C32	C	1.067955	-0.226543	0.000062
C33	C	1.229994	0.121053	0.000067
C34	C	1.330079	0.123001	0.000067
C35	C	1.058869	0.296175	0.000046
C36	C	1.060812	0.398556	0.000039
N37	N	1.065157	0.127570	0.237498
N38	N	1.065208	0.127572	-0.237381
C39	C	1.003999	0.190170	0.710113
C40	C	1.126406	0.064976	0.710097
C41	C	1.126396	0.064974	0.605078
C42	C	1.065187	0.127571	0.552572
C43	C	1.003989	0.190170	0.605085
C44	C	1.187599	0.002381	0.552558
C45	C	1.187592	0.002376	0.447534
C46	C	1.126378	0.064970	0.395026
C47	C	1.065177	0.127572	0.447544
C48	C	1.003968	0.190169	0.395038
C49	C	0.942762	0.252767	0.447555
C50	C	0.942775	0.252764	0.552577
C51	C	1.126365	0.064973	0.290004
C52	C	1.003958	0.190170	0.290010
H53	H	0.319566	0.275561	0.000046
C54	C	0.937461	0.258238	0.233188
C55	C	0.883882	0.313068	0.301661
C56	C	0.822624	0.375791	0.249355
H57	H	0.899795	0.225101	0.192223
H58	H	0.969924	0.296745	0.192234
H59	H	0.851421	0.274567	0.342598
H60	H	0.921523	0.346225	0.342629
H61	H	0.855087	0.414297	0.208400
H62	H	0.784964	0.342646	0.208391
H63	H	0.786269	0.413006	0.295805
C64	C	1.254075	-0.065694	0.390702
C65	C	1.307665	-0.120527	0.459164
C66	C	1.368909	-0.183253	0.406846
H67	H	1.291736	-0.032559	0.349712
H68	H	1.221602	-0.104197	0.349770
H69	H	1.340137	-0.082028	0.500079
H70	H	1.270030	-0.153681	0.500156
H71	H	1.336435	-0.221757	0.365915
H72	H	1.406563	-0.150111	0.365858
H73	H	1.405271	-0.220471	0.453290
C74	C	0.695889	-0.129798	0.000224
C75	C	0.679411	-0.180936	0.086058
C76	C	0.736933	-0.264107	0.086226
H77	H	0.757137	-0.116672	0.000264
H78	H	0.684823	-0.164663	-0.057924
H79	H	0.690484	-0.146078	0.144191
H80	H	0.618174	-0.194086	0.086036
H81	H	0.725867	-0.298972	0.028078
H82	H	0.798178	-0.250973	0.086263
H83	H	0.725755	-0.298819	0.144458
C84	C	0.348360	-0.052378	0.000132
C85	C	0.418961	-0.124745	0.000155
C86	C	0.382747	-0.209777	0.000224
H87	H	0.312129	-0.056715	-0.058031
H88	H	0.312144	-0.056637	0.058343
H89	H	0.455161	-0.120488	-0.058050
H90	H	0.455197	-0.120439	0.058314
H91	H	0.346532	-0.214037	0.058435
H92	H	0.346517	-0.214105	-0.057940
H93	H	0.430644	-0.258889	0.000249
H94	H	1.176202	0.014010	0.247250
C95	C	0.434222	0.384766	0.000088
C96	C	0.344076	0.364986	0.000131
C97	C	0.286271	0.447969	0.000195
H98	H	0.445150	0.419651	-0.058084
H99	H	0.445223	0.419585	0.058290
H100	H	0.333079	0.330182	-0.058066
H101	H	0.333119	0.330115	0.058298
H102	H	0.297272	0.482788	0.058398
H103	H	0.297207	0.482847	-0.057978
H104	H	0.225101	0.434560	0.000233
C105	C	0.630330	0.388788	0.000077
C106	C	0.559731	0.461158	0.000100
C107	C	0.595948	0.546188	0.000159
H108	H	0.666565	0.393130	-0.058089
H109	H	0.666542	0.393040	0.058285
H110	H	0.523534	0.456908	-0.058101
H111	H	0.523490	0.456847	0.058262
H112	H	0.632160	0.550441	0.058367
H113	H	0.632182	0.550520	-0.058008
H114	H	0.548053	0.595301	0.000184
C115	C	0.876227	0.320764	0.609414
C116	C	0.822600	0.375566	0.540957
C117	C	0.761279	0.438208	0.593282
H118	H	0.908614	0.359304	0.650376
H119	H	0.838607	0.287536	0.650373
H120	H	0.860215	0.408792	0.500015
H121	H	0.790194	0.337052	0.499993
H122	H	0.723659	0.404980	0.634242
H123	H	0.793673	0.476741	0.634243
H124	H	0.724880	0.475393	0.546843
H125	H	0.892929	0.303738	0.404792
C126	C	1.192804	-0.003135	0.766978
C127	C	1.178043	-0.093785	0.741429
C128	C	1.239197	-0.156559	0.793805
H129	H	1.184104	0.005705	0.837061
H130	H	1.253007	0.006926	0.749738
H131	H	1.117855	-0.103842	0.758676
H132	H	1.186750	-0.102654	0.671356
H133	H	1.299399	-0.146498	0.776565
H134	H	1.230492	-0.147711	0.863885
H135	H	1.229195	-0.218072	0.776471
H136	H	1.237438	-0.048579	0.595312
H137	H	0.772288	0.284378	0.000027
H138	H	0.810790	-0.020429	0.000054
H139	H	0.509731	-0.110484	0.000110
H140	H	0.954163	0.241134	0.752874
