data_functionalizedCrystal
_audit_creation_method	'MofGen! by Chris Wilmer'
_symmetry_space_group_name_H-M	'P1'
_symmetry_Int_Tables_number	1
_symmetry_cell_setting	triclinic
loop_
_symmetry_equiv_pos_as_xyz
  x,y,z
_cell_length_a	8.140239
_cell_length_b	9.065215
_cell_length_c	9.065218
_cell_angle_alpha	85.015325
_cell_angle_beta	90.001305
_cell_angle_gamma	90.002779
loop_
_atom_site_label
_atom_site_type_symbol
_atom_site_fract_x
_atom_site_fract_y
_atom_site_fract_z
O1	O	-0.136579	-1.960402	-0.216334
O2	O	0.363421	-1.460402	0.283666
O3	O	-0.136588	-1.531117	-0.234085
O4	O	0.363412	-1.031117	0.265915
O5	O	-0.136580	-1.754633	-0.010567
O6	O	0.363420	-1.254633	0.489433
O7	O	-0.136587	-1.736886	-0.439852
O8	O	0.363413	-1.236886	0.060148
O9	O	0.136647	-1.754617	-0.010566
O10	O	0.636647	-1.254617	0.489434
O11	O	0.136639	-1.531101	-0.234084
O12	O	0.636639	-1.031101	0.265916
O13	O	0.136648	-1.960386	-0.216334
O14	O	0.636648	-1.460386	0.283666
Zn15	Zn	0.180024	-1.745741	-0.225209
Zn16	Zn	0.680024	-1.245741	0.274791
Zn17	Zn	-0.179964	-1.745762	-0.225210
Zn18	Zn	0.320036	-1.245762	0.274790
O19	O	0.136640	-1.736870	-0.439851
O20	O	0.636640	-1.236870	0.060149
C21	C	0.000025	-1.476122	-0.232380
C22	C	0.500025	-0.976122	0.267620
C23	C	0.000021	-1.312279	-0.227282
C24	C	0.500021	-0.812279	0.272718
N25	N	0.425707	-1.745737	-0.225207
N26	N	0.925707	-1.245737	0.274793
N27	N	0.574353	-1.745764	-0.225207
N28	N	1.074353	-1.245764	0.274793
C29	C	0.000031	-1.752919	0.044420
C30	C	0.500031	-1.252919	0.544420
C31	C	0.000023	-1.747819	0.208263
C32	C	0.500023	-1.247819	0.708263
C33	C	0.000031	-1.015381	-0.218039
C34	C	0.500031	-0.515381	0.281961
C35	C	0.000021	-1.179224	-0.223136
C36	C	0.500021	-0.679224	0.276864
C37	C	0.000026	-1.738584	-0.494838
C38	C	0.500026	-1.238584	0.005162
C39	C	0.000023	-1.743683	-0.658681
C40	C	0.500023	-1.243683	-0.158681
