data_functionalizedCrystal
_audit_creation_method	'MofGen! by Chris Wilmer'
_symmetry_space_group_name_H-M	'P1'
_symmetry_Int_Tables_number	1
_symmetry_cell_setting	triclinic
loop_
_symmetry_equiv_pos_as_xyz
  x,y,z
_cell_length_a	15.944545
_cell_length_b	16.992695
_cell_length_c	16.053802
_cell_angle_alpha	87.258926
_cell_angle_beta	87.417695
_cell_angle_gamma	92.917803
loop_
_atom_site_label
_atom_site_type_symbol
_atom_site_fract_x
_atom_site_fract_y
_atom_site_fract_z
O1	O	1.124631	-0.097802	-0.069449
O2	O	1.457964	0.235532	0.263885
O3	O	1.791298	0.568865	0.597218
O4	O	0.880917	-0.110275	-0.069446
O5	O	1.214250	0.223059	0.263887
O6	O	1.547584	0.556392	0.597220
O7	O	1.001797	0.010104	-0.069441
O8	O	1.335130	0.343438	0.263893
O9	O	1.668463	0.676771	0.597226
O10	O	1.003751	-0.218180	-0.069454
O11	O	1.337085	0.115153	0.263879
O12	O	1.670418	0.448486	0.597213
O13	O	0.995141	0.003506	0.069418
O14	O	1.328475	0.336839	0.402751
O15	O	1.661808	0.670172	0.736084
O16	O	0.874262	-0.116873	0.069412
O17	O	1.207595	0.216460	0.402746
O18	O	1.540928	0.549793	0.736079
O19	O	1.117976	-0.104400	0.069410
O20	O	1.451309	0.228933	0.402743
O21	O	1.784642	0.562266	0.736077
Zn22	Zn	0.995062	-0.111684	0.091458
Zn23	Zn	1.328395	0.221649	0.424791
Zn24	Zn	1.661729	0.554982	0.758125
Zn25	Zn	1.003831	-0.102990	-0.091494
Zn26	Zn	1.337164	0.230343	0.241839
Zn27	Zn	1.670497	0.563676	0.575172
O28	O	0.997096	-0.224779	0.069405
O29	O	1.330429	0.108554	0.402738
O30	O	1.663763	0.441887	0.736071
C31	C	0.995955	0.036018	-0.000012
C32	C	1.329289	0.369351	0.333322
C33	C	1.662622	0.702684	0.666655
C34	C	0.988455	0.123062	-0.000012
C35	C	1.321789	0.456395	0.333322
C36	C	1.655122	0.789729	0.666655
C37	C	0.846261	-0.113057	-0.000017
C38	C	1.179594	0.220276	0.333317
C39	C	1.512927	0.553610	0.666650
C40	C	0.752910	-0.111507	-0.000016
C41	C	1.086244	0.221826	0.333318
C42	C	1.419577	0.555159	0.666651
C43	C	1.152632	-0.101618	-0.000021
C44	C	1.485965	0.231716	0.333312
C45	C	1.819299	0.565049	0.666645
C46	C	1.245983	-0.103167	-0.000028
C47	C	1.579316	0.230166	0.333305
C48	C	1.912649	0.563500	0.666639
C49	C	1.521930	-0.182415	-0.000028
C50	C	1.855264	0.150919	0.333306
C51	C	2.188597	0.484252	0.666639
C52	C	1.465508	-0.147462	0.068442
C53	C	1.798842	0.185872	0.401775
C54	C	2.132175	0.519205	0.735109
C55	C	1.581997	-0.108694	-0.000018
C56	C	1.915330	0.224639	0.333315
C57	C	2.248663	0.557972	0.666648
C58	C	1.472081	-0.140936	-0.068462
C59	C	1.805414	0.192397	0.264872
C60	C	2.138747	0.525731	0.598205
C61	C	1.416902	-0.105983	-0.000024
C62	C	1.750235	0.227351	0.333309
C63	C	2.083568	0.560684	0.666642
C64	C	1.526802	-0.073764	0.068508
C65	C	1.860135	0.259569	0.401841
C66	C	2.193468	0.592903	0.735175
C67	C	1.533381	-0.067246	-0.068457
C68	C	1.866714	0.266087	0.264876
C69	C	2.200048	0.599421	0.598209
C70	C	1.476987	-0.032240	0.000029
C71	C	1.810321	0.301094	0.333362
C72	C	2.143654	0.634427	0.666696
C73	C	1.677104	-0.110259	-0.000014
C74	C	2.010437	0.223074	0.333319
C75	C	2.343770	0.556408	0.666653
C76	C	1.321797	-0.104413	-0.000023
C77	C	1.655130	0.228920	0.333311
C78	C	1.988464	0.562254	0.666644
C79	C	1.002937	-0.250692	-0.000027
C80	C	1.336271	0.082641	0.333307
C81	C	1.669604	0.415974	0.666640
C82	C	1.010438	-0.337737	-0.000032
C83	C	1.343771	-0.004403	0.333301
C84	C	1.677104	0.328930	0.666635
N85	N	0.989084	-0.117617	0.216318
N86	N	1.322417	0.215716	0.549651
N87	N	1.655750	0.549049	0.882985
C88	C	1.060820	0.173300	-0.000012
C89	C	1.394154	0.506633	0.333322
C90	C	1.727487	0.839967	0.666655
C91	C	1.053769	0.255087	-0.000019
C92	C	1.387102	0.588421	0.333314
C93	C	1.720435	0.921754	0.666647
C94	C	0.974351	0.286634	-0.000021
C95	C	1.307684	0.619968	0.333312
C96	C	1.641018	0.953301	0.666645
C97	C	0.901981	0.236390	-0.000024
C98	C	1.235314	0.569723	0.333309
C99	C	1.568647	0.903057	0.666642
C100	C	0.909033	0.154605	-0.000022
C101	C	1.242367	0.487938	0.333311
C102	C	1.575700	0.821271	0.666644
C103	C	0.945120	0.530234	-0.000033
C104	C	1.278454	0.863567	0.333301
C105	C	1.611787	1.196900	0.666634
C106	C	0.938073	0.612025	-0.000032
C107	C	1.271406	0.945359	0.333301
C108	C	1.604739	1.278692	0.666635
C109	C	1.089862	0.630717	-0.000029
C110	C	1.423195	0.964050	0.333305
C111	C	1.756528	1.297384	0.666638
C112	C	1.096907	0.548929	-0.000022
C113	C	1.430241	0.882262	0.333311
C114	C	1.763574	1.215596	0.666645
C115	C	1.024537	0.498692	-0.000029
C116	C	1.357870	0.832025	0.333304
C117	C	1.691204	1.165359	0.666638
N118	N	0.967141	0.370234	-0.000027
N119	N	1.300474	0.703567	0.333306
N120	N	1.633808	1.036900	0.666640
N121	N	1.031748	0.415095	-0.000030
N122	N	1.365081	0.748428	0.333304
N123	N	1.698415	1.081761	0.666637
N124	N	1.009815	-0.097051	-0.216354
N125	N	1.343149	0.236282	0.116979
N126	N	1.676482	0.569615	0.450312
C127	C	1.040539	-0.066414	0.260014
C128	C	1.373873	0.266919	0.593348
C129	C	1.707206	0.600252	0.926681
C130	C	1.036366	-0.070572	0.347421
C131	C	1.369699	0.262761	0.680754
C132	C	1.703032	0.596095	1.014088
C133	C	0.980740	-0.125937	0.391130
C134	C	1.314073	0.207396	0.724463
C135	C	1.647407	0.540730	1.057796
C136	C	0.929279	-0.177143	0.347427
C137	C	1.262612	0.156191	0.680760
C138	C	1.595945	0.489524	1.014094
C139	C	0.933449	-0.172981	0.260022
C140	C	1.266782	0.160353	0.593356
C141	C	1.600115	0.493686	0.926689
C142	C	0.962524	-0.144095	0.652538
C143	C	1.295857	0.189239	0.985872
C144	C	1.629191	0.522572	1.319205
C145	C	0.958360	-0.148254	0.739949
C146	C	1.291693	0.185079	1.073283
C147	C	1.625026	0.518412	1.406616
C148	C	1.065446	-0.041682	0.739937
C149	C	1.398779	0.291651	1.073270
C150	C	1.732113	0.624984	1.406604
C151	C	1.069615	-0.037528	0.652530
C152	C	1.402948	0.295805	0.985864
C153	C	1.736281	0.629138	1.319197
C154	C	1.018150	-0.088731	0.608836
C155	C	1.351483	0.244602	0.942169
C156	C	1.684817	0.577936	1.275502
N157	N	0.976475	-0.130190	0.480473
N158	N	1.309808	0.203144	0.813806
N159	N	1.643141	0.536477	1.147140
N160	N	1.022412	-0.084474	0.519494
N161	N	1.355745	0.248859	0.852827
N162	N	1.689079	0.582193	1.186160
H163	H	1.541834	-0.245908	0.000032
H164	H	1.875168	0.087425	0.333366
H165	H	2.208501	0.420759	0.666699
H166	H	1.457233	0.031296	0.000073
H167	H	1.790566	0.364630	0.333406
H168	H	2.123900	0.697963	0.666739
H169	H	0.873397	0.637707	-0.000020
H170	H	1.206731	0.971040	0.333313
H171	H	1.540064	1.304373	0.666646
H172	H	1.085839	-0.021333	0.224432
H173	H	1.419173	0.312000	0.557766
H174	H	1.752506	0.645333	0.891099
H175	H	1.078264	-0.028878	0.382998
H176	H	1.411598	0.304456	0.716331
H177	H	1.744931	0.637789	1.049665
H178	H	1.435893	-0.181347	0.126323
H179	H	1.769227	0.151986	0.459656
H180	H	2.102560	0.485320	0.792989
H181	H	1.112696	0.295989	-0.000017
H182	H	1.446029	0.629322	0.333316
H183	H	1.779363	0.962655	0.666649
Br184	Br	1.204694	0.506122	-0.000046
Br185	Br	1.538027	0.839456	0.333287
Br186	Br	1.871360	1.172789	0.666621
Br187	Br	1.566711	-0.026495	0.165088
Br188	Br	1.900045	0.306839	0.498422
Br189	Br	2.233378	0.640172	0.831755
H190	H	1.107345	0.000005	0.775521
H191	H	1.440678	0.333339	1.108855
H192	H	1.774012	0.666672	1.442188
Br193	Br	0.846903	0.462065	-0.000048
Br194	Br	1.180236	0.795398	0.333286
Br195	Br	1.513570	1.128732	0.666619
Br196	Br	0.794198	0.279203	-0.000041
Br197	Br	1.127532	0.612537	0.333292
Br198	Br	1.460865	0.945870	0.666626
H199	H	0.913060	-0.193343	0.775533
H200	H	1.246394	0.139991	1.108866
H201	H	1.579727	0.473324	1.442200
Br202	Br	0.810820	0.086423	-0.000029
Br203	Br	1.144153	0.419756	0.333304
Br204	Br	1.477487	0.753090	0.666637
H205	H	1.114909	0.007554	0.616945
H206	H	1.448243	0.340888	0.950278
H207	H	1.781576	0.674221	1.283611
H208	H	1.148781	0.671629	-0.000025
H209	H	1.482114	1.004962	0.333309
H210	H	1.815448	1.338295	0.666642
H211	H	0.920621	-0.185787	0.616969
H212	H	1.253954	0.147546	0.950302
H213	H	1.587288	0.480879	1.283636
Br214	Br	0.853778	-0.252277	0.406743
Br215	Br	1.187112	0.081056	0.740076
Br216	Br	1.520445	0.414389	1.073409
Br217	Br	1.168606	0.130494	0.000003
Br218	Br	1.501940	0.463828	0.333337
Br219	Br	1.835273	0.797161	0.666670
Br220	Br	0.863607	-0.242469	0.200720
Br221	Br	1.196940	0.090865	0.534053
Br222	Br	1.530273	0.424198	0.867387
H223	H	1.563006	-0.033384	-0.126341
H224	H	1.896340	0.299949	0.206992
H225	H	2.229673	0.633282	0.540326
H226	H	1.448020	-0.169333	-0.126341
H227	H	1.781353	0.164000	0.206992
H228	H	2.114687	0.497334	0.540326
