data_functionalizedCrystal
_audit_creation_method	'MofGen! by Chris Wilmer'
_symmetry_space_group_name_H-M	'P1'
_symmetry_Int_Tables_number	1
_symmetry_cell_setting	triclinic
loop_
_symmetry_equiv_pos_as_xyz
  x,y,z
_cell_length_a	14.044191
_cell_length_b	11.026607
_cell_length_c	10.065875
_cell_angle_alpha	79.268236
_cell_angle_beta	80.446775
_cell_angle_gamma	79.111103
loop_
_atom_site_label
_atom_site_type_symbol
_atom_site_fract_x
_atom_site_fract_y
_atom_site_fract_z
O1	O	1.319597	-0.281479	-0.113417
O2	O	1.569597	-0.031479	0.136583
O3	O	1.819597	0.218521	0.386583
O4	O	2.069597	0.468521	0.636583
O5	O	1.041793	-0.270711	-0.113435
O6	O	1.291793	-0.020711	0.136565
O7	O	1.541793	0.229289	0.386565
O8	O	1.791793	0.479289	0.636565
O9	O	1.157670	-0.096949	-0.113422
O10	O	1.407670	0.153051	0.136578
O11	O	1.657670	0.403051	0.386578
O12	O	1.907670	0.653051	0.636578
O13	O	1.203720	-0.455241	-0.113429
O14	O	1.453720	-0.205241	0.136571
O15	O	1.703720	0.044759	0.386571
O16	O	1.953720	0.294759	0.636571
O17	O	1.135599	-0.130229	0.113564
O18	O	1.385599	0.119771	0.363564
O19	O	1.635599	0.369771	0.613564
O20	O	1.885599	0.619771	0.863564
O21	O	1.019721	-0.303990	0.113552
O22	O	1.269721	-0.053990	0.363552
O23	O	1.519721	0.196010	0.613552
O24	O	1.769721	0.446010	0.863552
O25	O	1.297526	-0.314758	0.113569
O26	O	1.547526	-0.064758	0.363569
O27	O	1.797526	0.185242	0.613569
O28	O	2.047526	0.435242	0.863569
Zn29	Zn	1.155119	-0.314658	0.149600
Zn30	Zn	1.405119	-0.064658	0.399600
Zn31	Zn	1.655119	0.185342	0.649600
Zn32	Zn	1.905119	0.435342	0.899600
Zn33	Zn	1.184199	-0.270811	-0.149465
Zn34	Zn	1.434199	-0.020811	0.100535
Zn35	Zn	1.684199	0.229189	0.350535
Zn36	Zn	1.934199	0.479189	0.600535
O37	O	1.181648	-0.488520	0.113557
O38	O	1.431648	-0.238520	0.363557
O39	O	1.681648	0.011480	0.613557
O40	O	1.931648	0.261480	0.863557
C41	C	0.994639	-0.282641	0.000056
C42	C	1.244639	-0.032641	0.250056
C43	C	1.494639	0.217359	0.500056
C44	C	1.744639	0.467359	0.750056
C45	C	0.887017	-0.268593	0.000049
C46	C	1.137017	-0.018593	0.250049
C47	C	1.387017	0.231407	0.500049
C48	C	1.637017	0.481407	0.750049
C49	C	0.649347	-0.342540	0.000062
C50	C	0.899347	-0.092540	0.250062
C51	C	1.149347	0.157460	0.500062
C52	C	1.399347	0.407460	0.750062
C53	C	0.689979	-0.242933	0.000061
C54	C	0.939979	0.007067	0.250061
C55	C	1.189979	0.257067	0.500061
C56	C	1.439979	0.507067	0.750061
C57	C	0.799621	-0.257213	0.000055
C58	C	1.049621	-0.007213	0.250055
C59	C	1.299621	0.242787	0.500055
C60	C	1.549621	0.492787	0.750055
C61	C	0.539695	-0.328261	0.000068
C62	C	0.789695	-0.078261	0.250068
C63	C	1.039695	0.171739	0.500068
C64	C	1.289695	0.421739	0.750068
C65	C	1.138140	-0.067458	0.000069
C66	C	1.388140	0.182542	0.250069
C67	C	1.638140	0.432542	0.500069
C68	C	1.888140	0.682542	0.750069
C69	C	1.112816	0.069999	0.000062
C70	C	1.362816	0.319999	0.250062
C71	C	1.612816	0.569999	0.500062
C72	C	1.862816	0.819999	0.750062
C73	C	1.344680	-0.302828	0.000075
C74	C	1.594680	-0.052828	0.250075
C75	C	1.844680	0.197172	0.500075
C76	C	2.094680	0.447172	0.750075
C77	C	1.452303	-0.316875	0.000073
C78	C	1.702303	-0.066875	0.250073
C79	C	1.952303	0.183125	0.500073
C80	C	2.202303	0.433125	0.750073
C81	C	1.201179	-0.518011	0.000063
C82	C	1.451179	-0.268011	0.250063
C83	C	1.701179	-0.018011	0.500063
C84	C	1.951179	0.231989	0.750063
C85	C	1.226504	-0.655467	0.000061
C86	C	1.476504	-0.405467	0.250061
C87	C	1.726504	-0.155467	0.500061
C88	C	1.976504	0.094533	0.750061
N89	N	1.135280	-0.344582	0.353703
N90	N	1.385280	-0.094582	0.603703
N91	N	1.635280	0.155418	0.853703
N92	N	1.885280	0.405418	1.103703
C93	C	1.182740	0.136233	0.000065
C94	C	1.432740	0.386233	0.250065
C95	C	1.682740	0.636233	0.500065
C96	C	1.932740	0.886233	0.750065
C97	C	1.156569	0.278302	0.000058
C98	C	1.406569	0.528302	0.250058
C99	C	1.656569	0.778302	0.500058
C100	C	1.906569	1.028302	0.750058
N101	N	1.204045	-0.240878	-0.353568
N102	N	1.454045	0.009122	-0.103568
N103	N	1.704045	0.259122	0.146432
N104	N	1.954045	0.509122	0.396432
C105	C	1.177289	-0.281214	0.421486
C106	C	1.427289	-0.031214	0.671486
C107	C	1.677289	0.218786	0.921486
C108	C	1.927289	0.468786	1.171486
C109	C	1.162029	-0.304255	0.578652
C110	C	1.412029	-0.054255	0.828652
C111	C	1.662029	0.195745	1.078652
C112	C	1.912029	0.445745	1.328652
H113	H	0.642432	-0.146917	-0.000033
H114	H	0.892432	0.103083	0.249967
H115	H	1.142432	0.353083	0.499967
H116	H	1.392432	0.603083	0.749967
H117	H	1.114758	-0.375565	0.636968
H118	H	1.364758	-0.125565	0.886968
H119	H	1.614758	0.124435	1.136968
H120	H	1.864758	0.374435	1.386968
H121	H	1.261980	0.087759	0.000078
H122	H	1.511980	0.337759	0.250078
H123	H	1.761980	0.587759	0.500078
H124	H	2.011980	0.837759	0.750078
H125	H	0.696901	-0.438534	0.000056
H126	H	0.946901	-0.188534	0.250056
H127	H	1.196901	0.061466	0.500056
H128	H	1.446901	0.311466	0.750056
Cl129	Cl	1.034219	0.353126	0.000036
Cl130	Cl	1.284219	0.603126	0.250036
Cl131	Cl	1.534219	0.853126	0.500036
Cl132	Cl	1.784219	1.103126	0.750036
H133	H	1.305760	0.296083	-0.000037
H134	H	1.555760	0.546083	0.249963
H135	H	1.805760	0.796083	0.499963
H136	H	2.055760	1.046083	0.749963
H137	H	1.251307	-0.169559	0.588116
H138	H	1.501307	0.080441	0.838116
H139	H	1.751307	0.330441	1.088116
H140	H	2.001307	0.580441	1.338116
H141	H	1.033576	0.118473	0.000048
H142	H	1.283576	0.368473	0.250048
H143	H	1.533576	0.618473	0.500048
H144	H	1.783576	0.868473	0.750048
H145	H	1.088012	-0.415887	0.412024
H146	H	1.338012	-0.165887	0.662024
H147	H	1.588012	0.084113	0.912024
H148	H	1.838012	0.334113	1.162024
H149	H	1.224548	-0.209899	0.363167
H150	H	1.474548	0.040101	0.613167
H151	H	1.724548	0.290101	0.863167
H152	H	1.974548	0.540101	1.113167
