data_functionalizedCrystal
_audit_creation_method	'MofGen! by Chris Wilmer'
_symmetry_space_group_name_H-M	'P1'
_symmetry_Int_Tables_number	1
_symmetry_cell_setting	triclinic
loop_
_symmetry_equiv_pos_as_xyz
  x,y,z
_cell_length_a	12.759401
_cell_length_b	29.839131
_cell_length_c	12.759393
_cell_angle_alpha	89.962110
_cell_angle_beta	89.981504
_cell_angle_gamma	90.041581
loop_
_atom_site_label
_atom_site_type_symbol
_atom_site_fract_x
_atom_site_fract_y
_atom_site_fract_z
Zn1	Zn	1.606060	-0.178825	-0.593935
Zn2	Zn	1.605873	-0.253963	-0.418236
Zn3	Zn	1.430362	-0.178848	-0.418275
Zn4	Zn	1.430269	-0.253929	-0.593877
O5	O	1.518141	-0.216391	-0.506081
O6	O	1.753056	-0.188797	-0.570636
O7	O	1.582551	-0.244024	-0.271220
O8	O	1.453787	-0.115978	-0.441617
O9	O	1.752919	-0.244001	-0.441551
O10	O	1.582871	-0.115961	-0.570674
O11	O	1.453605	-0.188837	-0.271248
O12	O	1.283329	-0.188803	-0.441561
O13	O	1.453628	-0.243942	-0.740906
O14	O	1.283260	-0.243965	-0.570575
O15	O	1.582781	-0.188763	-0.740949
O16	O	1.582461	-0.316826	-0.441495
O17	O	1.453446	-0.316801	-0.570538
C18	C	1.245174	-0.216383	-0.506066
C19	C	1.128397	-0.216390	-0.506085
C20	C	1.517951	-0.333114	-0.506029
C21	C	1.517966	-0.383048	-0.506041
C22	C	1.073527	-0.245159	-0.573152
C23	C	0.963803	-0.245165	-0.573163
C24	C	0.963829	-0.187632	-0.439032
C25	C	1.073551	-0.187624	-0.439027
C26	C	1.073511	-0.278376	-0.650588
C27	C	0.963787	-0.278382	-0.650600
C28	C	1.585441	-0.692692	-0.438986
C29	C	1.585571	-0.880365	-0.439027
O30	O	1.642790	-0.904631	-0.381974
N31	N	1.518359	-0.903833	-0.506160
C32	C	1.451114	-0.880380	-0.573292
O33	O	1.393957	-0.904648	-0.630402
C34	C	1.450991	-0.692708	-0.573256
C35	C	1.518200	-0.669243	-0.506111
C36	C	1.652646	-0.669227	-0.371848
C37	C	1.652609	-0.622311	-0.371834
C38	C	1.585367	-0.598861	-0.438959
C39	C	1.518163	-0.622327	-0.506098
C40	C	1.383752	-0.669256	-0.640393
C41	C	1.383729	-0.622335	-0.640380
C42	C	1.450938	-0.598869	-0.573235
C43	C	1.450884	-0.551962	-0.573209
N44	N	1.518096	-0.528494	-0.506076
C45	C	1.585338	-0.551944	-0.438951
C46	C	1.451183	-0.978911	-0.573305
C47	C	1.451212	-1.025829	-0.573313
C48	C	1.585670	-1.025811	-0.439049
C49	C	1.585635	-0.978892	-0.439036
C50	C	1.518395	-0.955443	-0.506172
C51	C	1.585254	-0.453418	-0.438927
C52	C	1.585208	-0.406498	-0.438916
C53	C	1.450754	-0.406521	-0.573184
C54	C	1.450796	-0.453436	-0.573191
C55	C	1.518054	-0.476884	-0.506059
O56	O	1.393703	-0.527668	-0.630240
O57	O	1.642503	-0.527668	-0.381867
C58	C	1.585479	-0.739608	-0.439000
C59	C	1.518274	-0.763073	-0.506138
C60	C	1.451033	-0.739624	-0.573263
C61	C	1.518304	-0.809991	-0.506146
C62	C	1.585545	-0.833441	-0.439021
C63	C	1.652757	-0.809973	-0.371888
C64	C	1.652720	-0.763058	-0.371875
C65	C	1.383820	-0.763092	-0.640396
C66	C	1.383862	-0.810007	-0.640404
C67	C	1.451104	-0.833457	-0.573279
C68	C	1.792174	-0.216400	-0.506096
C69	C	1.908951	-0.216404	-0.506102
C70	C	1.518215	-0.216346	-0.780114
C71	C	1.518246	-0.216327	-0.896891
C72	C	1.518360	-0.099213	-0.506156
C73	C	1.518454	-0.049279	-0.506188
C74	C	1.585505	-0.187593	-0.951777
C75	C	1.585530	-0.187576	-1.061501
C76	C	1.451034	-0.245032	-1.061444
C77	C	1.451004	-0.245046	-0.951722
C78	C	1.663159	-0.154422	-0.951811
C79	C	1.663184	-0.154406	-1.061535
C80	C	1.518128	-0.216404	-0.233113
C81	C	1.518301	-0.216297	-0.116337
H82	H	1.118222	-0.164195	-0.384422
H83	H	1.640025	-0.472503	-0.384264
O84	O	1.760207	-0.165603	-1.097023
C85	C	1.786934	-0.208642	-1.060061
H86	H	1.712443	-0.228046	-1.040538
H87	H	1.832731	-0.227297	-1.123129
H88	H	1.837242	-0.205385	-0.986632
H89	H	1.641428	-0.119630	-0.922064
O90	O	0.910387	-0.159737	-0.373920
C91	C	0.801776	-0.165903	-0.388324
H92	H	0.786757	-0.200590	-0.422590
H93	H	0.760051	-0.162821	-0.309642
H94	H	0.770696	-0.139284	-0.444384
O95	O	1.385823	-0.272917	-1.114871
C96	C	1.400248	-0.266735	-1.223484
H97	H	1.481360	-0.252022	-1.238489
H98	H	1.393069	-0.300380	-1.265157
H99	H	1.337983	-0.242805	-1.254636
H100	H	1.103329	-0.269097	-0.731998
O101	O	1.718007	-0.599590	-0.306587
C102	C	1.777340	-0.630356	-0.247337
H103	H	1.780958	-0.663784	-0.290386
H104	H	1.860122	-0.616774	-0.236207
H105	H	1.738922	-0.635388	-0.167507
H106	H	1.634107	-0.121348	-1.095591
H107	H	1.107489	-0.311410	-0.621295
O108	O	1.755242	-0.169369	-0.911144
C109	C	1.736425	-0.207607	-0.848931
H110	H	1.660032	-0.224123	-0.874553
H111	H	1.803786	-0.232327	-0.858799
H112	H	1.730243	-0.197293	-0.763137
H113	H	0.929803	-0.265962	-0.727955
H114	H	0.933953	-0.313167	-0.628659
O115	O	1.650449	-0.383754	-0.373545
C116	C	1.627537	-0.395258	-0.268816
H117	H	1.587173	-0.429341	-0.266617
H118	H	1.703389	-0.396847	-0.221773
H119	H	1.573524	-0.368888	-0.233371
O120	O	1.717856	-0.692066	-0.306644
C121	C	1.658150	-0.719261	-0.238712
H122	H	1.578487	-0.726306	-0.275645
H123	H	1.700989	-0.752242	-0.224752
H124	H	1.646696	-0.701228	-0.160807
O125	O	1.650874	-0.956148	-0.373671
C126	C	1.627955	-0.967649	-0.268942
H127	H	1.587582	-1.001730	-0.266740
H128	H	1.703805	-0.969240	-0.221897
H129	H	1.573948	-0.941275	-0.233502
O130	O	1.651020	-1.048663	-0.374005
C131	C	1.636639	-1.095105	-0.388433
H132	H	1.602095	-1.101488	-0.469449
H133	H	1.715374	-1.112894	-0.381500
H134	H	1.580821	-1.108487	-0.326017
H135	H	1.396474	-1.044931	-0.627979
O136	O	1.385551	-0.272889	-0.898353
C137	C	1.317754	-0.247311	-0.834886
H138	H	1.311352	-0.211925	-0.867988
H139	H	1.236863	-0.263551	-0.833617
H140	H	1.350222	-0.245775	-0.751734
H141	H	1.396072	-0.472543	-0.627869
O142	O	1.385753	-0.956205	-0.638551
C143	C	1.326460	-0.986985	-0.697812
H144	H	1.322885	-1.020443	-0.654774
H145	H	1.243662	-0.973467	-0.708939
H146	H	1.364886	-0.991934	-0.777643
H147	H	1.329018	-0.688354	-0.695065
O148	O	1.318356	-0.599509	-0.705452
C149	C	1.250484	-0.572429	-0.645580
H150	H	1.287570	-0.565405	-0.565989
H151	H	1.236353	-0.539430	-0.688361
H152	H	1.172648	-0.590551	-0.633975
H153	H	1.396003	-0.387420	-0.627834
O154	O	1.718214	-0.832771	-0.306847
C155	C	1.786030	-0.859860	-0.366762
H156	H	1.792424	-0.845686	-0.449509
H157	H	1.866920	-0.860364	-0.328866
H158	H	1.753585	-0.895434	-0.370358
O159	O	1.718112	-0.740336	-0.306621
C160	C	1.777442	-0.771102	-0.247368
H161	H	1.781068	-0.804529	-0.290421
H162	H	1.860220	-0.757519	-0.236227
H163	H	1.739015	-0.776136	-0.167543
H164	H	1.329123	-0.829109	-0.695080
O165	O	1.318393	-0.740386	-0.705633
C166	C	1.259104	-0.771165	-0.764899
H167	H	1.255534	-0.804625	-0.721867
H168	H	1.176304	-0.757649	-0.776023
H169	H	1.297530	-0.776111	-0.844731
