data_functionalizedCrystal
_audit_creation_method	'MofGen! by Chris Wilmer'
_symmetry_space_group_name_H-M	'P1'
_symmetry_Int_Tables_number	1
_symmetry_cell_setting	triclinic
loop_
_symmetry_equiv_pos_as_xyz
  x,y,z
_cell_length_a	16.974800
_cell_length_b	12.503572
_cell_length_c	16.992695
_cell_angle_alpha	93.763007
_cell_angle_beta	92.978326
_cell_angle_gamma	89.865752
loop_
_atom_site_label
_atom_site_type_symbol
_atom_site_fract_x
_atom_site_fract_y
_atom_site_fract_z
O1	O	1.055342	-0.002449	-0.099998
O2	O	0.826891	0.017419	-0.111728
O3	O	0.940200	0.007556	0.008282
O4	O	0.942033	0.007414	-0.220008
O5	O	0.931680	-0.170344	-0.000758
O6	O	0.818370	-0.160481	-0.120769
O7	O	1.046822	-0.180350	-0.109038
Cu8	Cu	0.931818	-0.186659	-0.115729
Cu9	Cu	0.941895	0.023729	-0.105038
O10	O	0.933512	-0.170487	-0.229049
C11	C	0.793264	-0.068977	-0.115636
C12	C	0.705759	-0.061367	-0.113802
C13	C	0.660010	-0.154768	-0.117866
C14	C	0.577791	-0.147621	-0.116130
C15	C	0.541323	-0.047072	-0.110336
C16	C	0.587079	0.046336	-0.106269
C17	C	0.669297	0.039188	-0.107999
C18	C	0.295927	-0.015294	-0.104627
C19	C	0.213703	-0.008153	-0.102900
C20	C	0.204421	-0.202111	-0.112760
C21	C	0.286640	-0.209250	-0.114495
C22	C	0.332389	-0.115843	-0.110423
N23	N	0.457282	-0.039764	-0.108564
N24	N	0.416429	-0.123152	-0.112190
N25	N	0.924736	-0.334635	-0.123248
C26	C	0.914319	-0.552844	-0.134316
C27	C	0.959397	-0.610094	-0.086447
C28	C	0.953600	-0.731513	-0.092605
C29	C	0.920114	-0.431414	-0.128159
C30	C	1.080449	-0.093951	-0.105130
C31	C	1.167953	-0.101554	-0.106964
C32	C	0.933584	-0.081189	0.032982
C33	C	0.926553	-0.080577	0.120050
N34	N	0.948982	0.171704	-0.097512
C35	C	0.940129	-0.081739	-0.253749
C36	C	0.947159	-0.082344	-0.340816
C37	C	0.994387	-0.086478	0.170067
C38	C	0.987777	-0.085893	0.251876
C39	C	0.913332	-0.079415	0.283665
C40	C	0.845494	-0.073511	0.233641
C41	C	0.852105	-0.074088	0.151834
C42	C	0.885932	-0.077017	0.527354
C43	C	0.879326	-0.076443	0.609167
C44	C	1.021609	-0.088824	0.627396
C45	C	1.028214	-0.089407	0.545586
C46	C	0.960376	-0.083497	0.495570
N47	N	0.906574	-0.078820	0.367287
N48	N	0.967135	-0.084084	0.411951
H49	H	0.689695	-0.236646	-0.122591
H50	H	0.871378	-0.595013	-0.179921
H51	H	0.796868	-0.069283	0.111110
H52	H	0.818701	-0.071185	0.635045
H53	H	1.043014	-0.090700	0.292598
C54	C	0.527469	-0.250362	-0.120608
H55	H	0.560963	-0.311268	-0.124317
H56	H	0.498335	-0.251890	-0.074453
H57	H	0.492071	-0.251322	-0.165828
H58	H	1.055007	-0.091759	0.144191
H59	H	0.557381	0.128205	-0.101545
C60	C	0.326753	-0.319852	-0.120865
H61	H	0.382271	-0.310731	-0.121320
H62	H	0.314504	-0.358805	-0.076922
H63	H	0.308239	-0.358248	-0.168298
C64	C	0.719625	0.141925	-0.103530
H65	H	0.773814	0.123268	-0.105382
H66	H	0.704928	0.183222	-0.146905
H67	H	0.711190	0.182662	-0.055529
H68	H	1.088834	-0.094682	0.519710
C69	C	0.763607	-0.066388	0.268607
H70	H	0.769383	-0.066901	0.324492
H71	H	0.738429	-0.001904	0.254605
H72	H	0.732492	-0.125988	0.248302
H73	H	1.076839	-0.093633	0.668128
C74	C	1.017437	-0.553130	-0.024859
H75	H	1.013785	-0.477814	-0.028759
H76	H	1.004673	-0.570373	0.026589
H77	H	1.069674	-0.576047	-0.034433
C78	C	0.154094	-0.304849	-0.117266
H79	H	0.099905	-0.286195	-0.115411
H80	H	0.162543	-0.345563	-0.165268
H81	H	0.168779	-0.346168	-0.073894
C82	C	0.173588	0.102456	-0.096543
H83	H	0.212610	0.157063	-0.094366
H84	H	0.138584	0.109534	-0.141357
H85	H	0.144831	0.109010	-0.049980
C86	C	0.346240	0.087450	-0.100158
H87	H	0.312742	0.148354	-0.096469
H88	H	0.381638	0.088424	-0.054943
H89	H	0.375372	0.088969	-0.146319
H90	H	0.830694	-0.072205	0.486640
