data_functionalizedCrystal
_audit_creation_method	'MofGen! by Chris Wilmer'
_symmetry_space_group_name_H-M	'P1'
_symmetry_Int_Tables_number	1
_symmetry_cell_setting	triclinic
loop_
_symmetry_equiv_pos_as_xyz
  x,y,z
_cell_length_a	17.077404
_cell_length_b	12.759400
_cell_length_c	17.077396
_cell_angle_alpha	89.973580
_cell_angle_beta	89.982756
_cell_angle_gamma	90.014910
loop_
_atom_site_label
_atom_site_type_symbol
_atom_site_fract_x
_atom_site_fract_y
_atom_site_fract_z
Zn1	Zn	1.200082	-0.418251	-0.443859
Zn2	Zn	1.200013	-0.593954	-0.312599
Zn3	Zn	1.068819	-0.418291	-0.312606
Zn4	Zn	1.068800	-0.593890	-0.443823
O5	O	1.134429	-0.506097	-0.378222
O6	O	1.309920	-0.441569	-0.426459
O7	O	1.182589	-0.570696	-0.202753
O8	O	1.086268	-0.271264	-0.330035
O9	O	1.309869	-0.570658	-0.330023
O10	O	1.182706	-0.271236	-0.426466
O11	O	1.086201	-0.441637	-0.202759
O12	O	0.958970	-0.441574	-0.330001
O13	O	1.086236	-0.570547	-0.553674
O14	O	0.958956	-0.570585	-0.426405
O15	O	1.182688	-0.441506	-0.553701
O16	O	1.182571	-0.740967	-0.329988
O17	O	1.086170	-0.740919	-0.426398
C18	C	0.930481	-0.506077	-0.378200
C19	C	0.843231	-0.506095	-0.378209
C20	C	1.134382	-0.779064	-0.378205
C21	C	1.134434	-0.895841	-0.378225
C22	C	0.802254	-0.573372	-0.428326
C23	C	0.720274	-0.573375	-0.428339
C24	C	0.679271	-0.506104	-0.378230
C25	C	0.720254	-0.438819	-0.328111
C26	C	0.802233	-0.438812	-0.328103
C27	C	0.549384	-0.438839	-0.328130
C28	C	0.467399	-0.438847	-0.328136
C29	C	0.467425	-0.573402	-0.428366
C30	C	0.549404	-0.573395	-0.428358
C31	C	0.590380	-0.506111	-0.378237
C32	C	1.184686	-0.950692	-0.328080
C33	C	1.184734	-1.060416	-0.328104
C34	C	1.084272	-1.060427	-0.428420
C35	C	1.084228	-0.950705	-0.428399
C36	C	1.234891	-0.895828	-0.277905
C37	C	1.285147	-0.950680	-0.227755
C38	C	1.285195	-1.060404	-0.227780
C39	C	1.234988	-1.115276	-0.277954
C40	C	1.339173	-0.506116	-0.378244
C41	C	1.426423	-0.506125	-0.378253
C42	C	1.134468	-0.506015	-0.582966
C43	C	1.134485	-0.505980	-0.670216
C44	C	1.134497	-0.232063	-0.378255
C45	C	1.134526	-0.115287	-0.378270
C46	C	1.084311	-0.438771	-0.711208
C47	C	1.084324	-0.438747	-0.793189
C48	C	1.134515	-0.505928	-0.834175
C49	C	1.184691	-0.573145	-0.793177
C50	C	1.184674	-0.573173	-0.711198
C51	C	1.184725	-0.573079	-0.964047
C52	C	1.184743	-0.573050	-1.046032
C53	C	1.084375	-0.438653	-1.046038
C54	C	1.084358	-0.438682	-0.964059
C55	C	1.134535	-0.505897	-0.923066
C56	C	1.134434	-0.506102	-0.174274
C57	C	1.134570	-0.505840	-0.087025
H58	H	0.835632	-0.628156	-0.469129
F59	F	0.845843	-0.367203	-0.274763
F60	F	1.238126	-0.644623	-0.920422
H61	H	1.225553	-0.627850	-0.826555
H62	H	1.326121	-1.105062	-0.186951
F63	F	1.238073	-0.644710	-0.667572
F64	F	1.030840	-1.118829	-0.481813
H65	H	0.434017	-0.384057	-0.287342
H66	H	1.043309	-0.906044	-0.469233
F67	F	0.676667	-0.644981	-0.481681
H68	H	1.235037	-1.204621	-0.277975
F69	F	1.238167	-0.644545	-1.089652
H70	H	1.043444	-0.384059	-0.677843
H71	H	1.043491	-0.383972	-0.930690
F72	F	0.593040	-0.644999	-0.481684
F73	F	1.030893	-0.367253	-0.836812
H74	H	1.043520	-0.383923	-1.079418
H75	H	0.434058	-0.628184	-0.469178
H76	H	0.582745	-0.384040	-0.287323
F77	F	0.676614	-0.367217	-0.274786
F78	F	1.235016	-0.779051	-0.278047
H79	H	1.326028	-0.905998	-0.186910
