data_functionalizedCrystal
_audit_creation_method	'MofGen! by Chris Wilmer'
_symmetry_space_group_name_H-M	'P1'
_symmetry_Int_Tables_number	1
_symmetry_cell_setting	triclinic
loop_
_symmetry_equiv_pos_as_xyz
  x,y,z
_cell_length_a	16.959454
_cell_length_b	15.297475
_cell_length_c	15.296720
_cell_angle_alpha	88.382886
_cell_angle_beta	99.656481
_cell_angle_gamma	99.694672
loop_
_atom_site_label
_atom_site_type_symbol
_atom_site_fract_x
_atom_site_fract_y
_atom_site_fract_z
Zn1	Zn	0.615229	1.253638	0.726734
Zn2	Zn	0.729057	1.278945	0.580275
Zn3	Zn	0.570820	1.132499	0.554965
Zn4	Zn	0.721286	1.107168	0.701401
O5	O	0.659098	1.193062	0.640844
O6	O	0.652166	1.379582	0.728500
O7	O	0.692733	1.280710	0.454339
O8	O	0.466103	1.148578	0.577760
O9	O	0.735794	1.398174	0.620897
O10	O	0.498730	1.237579	0.703958
O11	O	0.576477	1.173117	0.435744
O12	O	0.568943	1.006552	0.553196
O13	O	0.722551	1.105406	0.827340
O14	O	0.679489	0.987942	0.660782
O15	O	0.644631	1.213017	0.845951
O16	O	0.838634	1.256148	0.596333
O17	O	0.832925	1.129944	0.685324
C18	C	0.618555	0.965462	0.601494
C19	C	0.601232	0.868089	0.584681
C20	C	0.452935	1.193081	0.640861
C21	C	0.365081	1.193090	0.640869
C22	C	0.782915	0.555013	0.761011
C23	C	0.799196	0.646500	0.776805
C24	C	0.749706	0.701902	0.728776
C25	C	0.683932	0.665808	0.664949
C26	C	0.667653	0.574314	0.649148
C27	C	0.634445	0.721202	0.616913
C28	C	0.568671	0.685108	0.553086
C29	C	0.552394	0.593622	0.537289
C30	C	0.601884	0.538221	0.585318
C31	C	0.650724	0.812696	0.632714
C32	C	0.535462	0.831997	0.520851
C33	C	0.519181	0.740510	0.505057
C34	C	0.010601	1.239474	0.706598
C35	C	-0.023369	1.146797	0.575187
C36	C	0.059174	1.146785	0.575181
C37	C	0.117435	1.193119	0.640884
C38	C	0.093153	1.239465	0.706593
C39	C	0.083464	1.100447	0.509469
C40	C	0.166011	1.100433	0.509460
C41	C	0.224274	1.146763	0.575168
C42	C	0.199987	1.193110	0.640879
C43	C	0.258247	1.239445	0.706582
C44	C	0.233962	1.285787	0.772299
C45	C	0.151415	1.285795	0.772300
C46	C	0.306821	1.146755	0.575166
C47	C	0.340799	1.239436	0.706578
C48	C	0.864465	1.193064	0.640849
C49	C	0.952340	1.193140	0.640895
C50	C	0.687678	1.153563	0.869317
C51	C	0.699857	1.136730	0.966679
C52	C	0.699801	1.421552	0.680347
C53	C	0.717146	1.518921	0.697181
C54	C	0.630581	1.232459	0.413267
C55	C	0.618210	1.249461	0.315935
C56	C	0.571920	1.313399	1.279888
C57	C	0.560480	1.329220	1.188413
C58	C	0.595323	1.281098	1.132975
C59	C	0.641609	1.217155	1.169021
C60	C	0.653056	1.201337	1.260506
C61	C	0.676458	1.169037	1.113593
C62	C	0.722744	1.105093	1.149640
C63	C	0.734189	1.089278	1.241116
C64	C	0.699346	1.137399	1.296554
C65	C	0.665011	1.184854	1.022108
C66	C	0.746147	1.072792	1.002727
C67	C	0.757587	1.056972	1.094202
H68	H	0.762966	0.776393	0.741640
C69	C	0.481037	0.554592	0.467851
C70	C	0.491246	0.591858	0.385010
C71	C	0.425524	0.555945	0.321020
H72	H	0.478350	0.492177	0.465181
H73	H	0.432214	0.567383	0.483304
H74	H	0.540056	0.579061	0.369561
H75	H	0.493923	0.654270	0.387652
H76	H	0.376700	0.568736	0.336473
H77	H	0.422842	0.493531	0.318358
H78	H	0.432438	0.581231	0.264807
C79	C	0.870513	0.685609	0.846241
C80	C	0.860301	0.648396	0.929103
C81	C	0.925980	0.684410	0.993095
H82	H	0.919369	0.672867	0.830859
H83	H	0.873127	0.748030	0.848835
H84	H	0.857696	0.585990	0.926508
H85	H	0.811458	0.661136	0.944513
H86	H	0.928594	0.746830	0.995688
H87	H	0.974832	0.671665	0.977704
H88	H	0.919057	0.659172	1.049325
H89	H	0.495165	0.877105	0.481740
H90	H	0.388231	1.277160	0.760087
H91	H	0.465628	0.711110	0.453088
C92	C	0.711937	1.120231	1.395876
C93	C	0.794956	1.137318	1.430002
C94	C	0.806584	1.121504	1.521492
H95	H	0.684626	1.158023	1.423835
H96	H	0.690832	1.060109	1.406828
H97	H	0.816052	1.197430	1.419057
H98	H	0.822285	1.099529	1.402068
H99	H	0.785479	1.061382	1.532444
H100	H	0.779269	1.159297	1.549443
H101	H	0.862913	1.133087	1.544657
C102	C	0.836524	0.494713	0.813088
C103	C	0.808178	0.406865	0.785600
C104	C	0.857540	0.351289	0.833565
H105	H	0.890687	0.511828	0.802799
H106	H	0.835061	0.499479	0.874566
H107	H	0.809649	0.402103	0.724137
H108	H	0.754021	0.389722	0.795892
H109	H	0.856078	0.356055	0.895043
H110	H	0.911701	0.368412	0.823272
H111	H	0.838310	0.291677	0.814927
C112	C	0.784440	1.019790	1.280080
C113	C	0.812487	0.981016	1.211952
C114	C	0.858771	0.916992	1.247809
H115	H	0.829367	1.047028	1.321543
H116	H	0.751874	0.975412	1.309144
H117	H	0.845051	1.025386	1.182903
H118	H	0.767577	0.953760	1.170485
H119	H	0.826206	0.872614	1.276874
H120	H	0.903694	0.944237	1.289271
H121	H	0.877801	0.890670	1.201590
H122	H	0.586005	1.293983	1.058492
H123	H	0.281408	1.323517	0.825791
H124	H	0.131636	1.323526	0.825803
C125	C	0.584084	0.438872	0.568263
C126	C	0.506298	0.404692	0.585537
C127	C	0.489886	0.313173	0.569851
H128	H	0.586854	0.427823	0.508149
H129	H	0.622943	0.411022	0.606036
H130	H	0.467450	0.432533	0.547764
H131	H	0.503509	0.415717	0.645648
H132	H	0.528745	0.285323	0.607624
H133	H	0.492659	0.302133	0.509736
H134	H	0.437110	0.289969	0.581576
H135	H	0.543561	1.352577	1.325034
C136	C	-0.015723	1.289650	0.778072
C137	C	0.011785	1.255570	0.861436
C138	C	-0.012460	1.301760	0.927299
H139	H	0.006670	1.350736	0.775553
H140	H	-0.073231	1.282999	0.768727
H141	H	0.069280	1.262229	0.870778
H142	H	-0.010605	1.194489	0.863984
H143	H	-0.069968	1.295110	0.917954
H144	H	0.009934	1.362844	0.924771
H145	H	0.006194	1.278638	0.983867
H146	H	-0.070807	1.109078	0.521689
H147	H	0.036026	1.062728	0.455971
H148	H	0.185777	1.062698	0.455950
C149	C	0.614810	1.254258	0.982812
C150	C	0.612253	1.257828	0.890836
C151	C	0.566017	1.321760	0.854609
H152	H	0.561261	1.238919	0.995504
H153	H	0.638740	1.310553	1.007931
H154	H	0.588320	1.201545	0.865726
H155	H	0.665789	1.273178	0.878120
H156	H	0.589947	1.378055	0.879727
H157	H	0.512471	1.306415	0.867306
H158	H	0.564282	1.324197	0.792201
C159	C	0.510070	1.398516	1.149320
C160	C	0.431253	1.375574	1.168279
C161	C	0.384782	1.439384	1.132277
H162	H	0.533893	1.454818	1.174461
H163	H	0.508178	1.401050	1.086888
H164	H	0.433148	1.373050	1.230698
H165	H	0.407407	1.319283	1.143138
H166	H	0.382890	1.441917	1.069845
H167	H	0.408612	1.495682	1.157421
H168	H	0.331298	1.423822	1.145128
H169	H	0.326591	1.109027	0.521658
C170	C	0.783879	1.020600	0.942394
C171	C	0.763929	1.048119	0.854562
C172	C	0.798664	1.000059	0.798953
H173	H	0.841155	1.030786	0.959479
H174	H	0.763684	0.959140	0.947157
H175	H	0.784128	1.109565	0.849803
H176	H	0.706659	1.037932	0.837450
H177	H	0.778468	0.938599	0.803717
H178	H	0.855938	1.010247	0.816046
H179	H	0.785126	1.018717	0.739353
H180	H	0.704277	0.842074	0.684683
H181	H	0.795274	1.004908	1.123564
