data_functionalizedCrystal
_audit_creation_method	'MofGen! by Chris Wilmer'
_symmetry_space_group_name_H-M	'P1'
_symmetry_Int_Tables_number	1
_symmetry_cell_setting	triclinic
loop_
_symmetry_equiv_pos_as_xyz
  x,y,z
_cell_length_a	12.827893
_cell_length_b	19.120786
_cell_length_c	12.827885
_cell_angle_alpha	87.523932
_cell_angle_beta	89.980728
_cell_angle_gamma	92.465175
loop_
_atom_site_label
_atom_site_type_symbol
_atom_site_fract_x
_atom_site_fract_y
_atom_site_fract_z
Zn1	Zn	1.579849	-0.279598	-0.573054
Zn2	Zn	1.572256	-0.397073	-0.390838
Zn3	Zn	1.405089	-0.279632	-0.398326
Zn4	Zn	1.397592	-0.397020	-0.565541
O5	O	1.488697	-0.338331	-0.481940
O6	O	1.725078	-0.295189	-0.548893
O7	O	1.550041	-0.381530	-0.245593
O8	O	1.434586	-0.181337	-0.427781
O9	O	1.719499	-0.381497	-0.415020
O10	O	1.562982	-0.181312	-0.556154
O11	O	1.427223	-0.295247	-0.251094
O12	O	1.257859	-0.295196	-0.420496
O13	O	1.421810	-0.381408	-0.712776
O14	O	1.252351	-0.381441	-0.543349
O15	O	1.555713	-0.295138	-0.718296
O16	O	1.542772	-0.495356	-0.407735
O17	O	1.414447	-0.495318	-0.536089
C18	C	1.217188	-0.338317	-0.481921
C19	C	1.101034	-0.338328	-0.481936
C20	C	1.477000	-0.520823	-0.470307
C21	C	1.472092	-0.598894	-0.465365
C22	C	1.046547	-0.381071	-0.542625
C23	C	0.926496	-0.381084	-0.542643
C24	C	1.536585	-0.635498	-0.529934
C25	C	1.531969	-0.708854	-0.525293
C26	C	1.462865	-0.745604	-0.456076
C27	C	1.398364	-0.708995	-0.391504
C28	C	1.402976	-0.635640	-0.396152
C29	C	1.445594	-0.967091	-0.438703
C30	C	1.440990	-1.040451	-0.434058
C31	C	1.574594	-1.040305	-0.567848
C32	C	1.579204	-0.966949	-0.572485
C33	C	1.514700	-0.930346	-0.507917
C34	C	1.458147	-0.820586	-0.451328
C35	C	1.519413	-0.855366	-0.512671
C36	C	1.761266	-0.338345	-0.481959
C37	C	1.877419	-0.338351	-0.481968
C38	C	1.488772	-0.338263	-0.754514
C39	C	1.488804	-0.338235	-0.870669
C40	C	1.500467	-0.155126	-0.493641
C41	C	1.505483	-0.077055	-0.498627
C42	C	1.555071	-0.295537	-0.925186
C43	C	1.555106	-0.295507	-1.045238
C44	C	1.488685	-0.338347	-0.210429
C45	C	1.488868	-0.338178	-0.094287
H46	H	1.088777	-0.417654	-0.594575
H47	H	1.432090	-0.374762	-0.912874
O48	O	0.870460	-0.424677	-0.604603
C49	C	0.763070	-0.414993	-0.590814
H50	H	0.751717	-0.360753	-0.560165
H51	H	0.729410	-0.456597	-0.532388
C52	C	0.720513	-0.488104	-0.733718
C53	C	0.706569	-0.421483	-0.696084
H54	H	0.685658	-0.492110	-0.798652
H55	H	0.792863	-0.494630	-0.743007
H56	H	0.692463	-0.522766	-0.685020
H57	H	0.734630	-0.386822	-0.744775
H58	H	0.634222	-0.414951	-0.686806
O59	O	0.933401	-0.294788	-0.419917
C60	C	0.993927	-0.334758	-0.349807
H61	H	1.006784	-0.388026	-0.383150
H62	H	0.951400	-0.342392	-0.271828
C63	C	1.084334	-0.230728	-0.292564
C64	C	1.100132	-0.296150	-0.333522
H65	H	1.149844	-0.206912	-0.282514
H66	H	1.043554	-0.203799	-0.339796
H67	H	1.048891	-0.237099	-0.227586
H68	H	1.135562	-0.289778	-0.398504
H69	H	1.140921	-0.323077	-0.286300
H70	H	1.350457	-0.605837	-0.343574
O71	O	1.050712	-0.294584	-0.420079
C72	C	1.081804	-0.224576	-0.447496
H73	H	1.112147	-0.221069	-0.531178
H74	H	1.146224	-0.206125	-0.392617
C75	C	0.950494	-0.182072	-0.335757
C76	C	0.987753	-0.177764	-0.438540
H77	H	0.892481	-0.153194	-0.330229
H78	H	0.929549	-0.229237	-0.317283
H79	H	1.004186	-0.166698	-0.290036
H80	H	0.934065	-0.193146	-0.484257
H81	H	1.008687	-0.130600	-0.457022
O82	O	1.594741	-0.744302	-0.588039
C83	C	1.656717	-0.696136	-0.650132
H84	H	1.663623	-0.643863	-0.610647
H85	H	1.618921	-0.688324	-0.729973
C86	C	1.757661	-0.788890	-0.711941
C87	C	1.766151	-0.724689	-0.663440
H88	H	1.825164	-0.806503	-0.720155
H89	H	1.715904	-0.821341	-0.670111
H90	H	1.726160	-0.782371	-0.778470
H91	H	1.797639	-0.731210	-0.596908
H92	H	1.807916	-0.692239	-0.705260
O93	O	1.382797	-0.931621	-0.376017
C94	C	1.277501	-0.949586	-0.397633
H95	H	1.271968	-1.002825	-0.434440
H96	H	1.244858	-0.908293	-0.453932
C97	C	1.220845	-0.887685	-0.250266
C98	C	1.214049	-0.953076	-0.295465
H99	H	1.181703	-0.889834	-0.187246
H100	H	1.291785	-0.875579	-0.235704
H101	H	1.193644	-0.853281	-0.297192
H102	H	1.241262	-0.987477	-0.248544
H103	H	1.143112	-0.965188	-0.310016
O104	O	1.622936	-0.251969	-1.101098
C105	C	1.726121	-0.267301	-1.073512
H106	H	1.727815	-0.323403	-1.039856
H107	H	1.755896	-0.229620	-1.012648
C108	C	1.794243	-0.190259	-1.212397
C109	C	1.796325	-0.259167	-1.171068
H110	H	1.837550	-0.185239	-1.272572
H111	H	1.724726	-0.179928	-1.230980
H112	H	1.819053	-0.158867	-1.161667
H113	H	1.771502	-0.290557	-1.221793
H114	H	1.865840	-0.269504	-1.152495
H115	H	1.592862	-0.605581	-0.586293
O116	O	1.421324	-0.381827	-1.038264
C117	C	1.477952	-0.427184	-0.972258
H118	H	1.558749	-0.402409	-0.957606
H119	H	1.486060	-0.479252	-1.010934
C120	C	1.320477	-0.470291	-0.885699
C121	C	1.419710	-0.439859	-0.867696
H122	H	1.284549	-0.478113	-0.821202
H123	H	1.282324	-0.439735	-0.930171
H124	H	1.327248	-0.513678	-0.917932
H125	H	1.412938	-0.396470	-0.835476
H126	H	1.457860	-0.470408	-0.823216
H127	H	1.342093	-0.738922	-0.335151
O128	O	1.646222	-0.931287	-0.639871
C129	C	1.622227	-0.949187	-0.742871
H130	H	1.537468	-0.969393	-0.746801
H131	H	1.675562	-0.991724	-0.767536
C132	C	1.742566	-0.859168	-0.811927
C133	C	1.638461	-0.883979	-0.816756
H134	H	1.752584	-0.818946	-0.857505
H135	H	1.758736	-0.847110	-0.742534
H136	H	1.787000	-0.894622	-0.832479
H137	H	1.594030	-0.848529	-0.796192
H138	H	1.622284	-0.896030	-0.886147
O139	O	1.637086	-1.075897	-0.630682
C140	C	1.574877	-1.118341	-0.695412
H141	H	1.493957	-1.096276	-0.703186
H142	H	1.567797	-1.173952	-0.659574
C143	C	1.725183	-1.146490	-0.794483
C144	C	1.625799	-1.119385	-0.804038
H145	H	1.756595	-1.147137	-0.861488
H146	H	1.767096	-1.117896	-0.750871
H147	H	1.719270	-1.192830	-0.764615
H148	H	1.631715	-1.073043	-0.833894
H149	H	1.583888	-1.147971	-0.847658
H150	H	1.384712	-1.070371	-0.377693
H151	H	1.611776	-0.259003	-0.882981
H152	H	1.575674	-0.825442	-0.569032
H153	H	1.401885	-0.850516	-0.394969
