data_functionalizedCrystal
_audit_creation_method	'MofGen! by Chris Wilmer'
_symmetry_space_group_name_H-M	'P1'
_symmetry_Int_Tables_number	1
_symmetry_cell_setting	triclinic
loop_
_symmetry_equiv_pos_as_xyz
  x,y,z
_cell_length_a	15.944551
_cell_length_b	16.992695
_cell_length_c	15.455438
_cell_angle_alpha	92.856553
_cell_angle_beta	87.330173
_cell_angle_gamma	87.083481
loop_
_atom_site_label
_atom_site_type_symbol
_atom_site_fract_x
_atom_site_fract_y
_atom_site_fract_z
O1	O	-1.117868	-0.104551	-0.072040
O2	O	-0.784535	0.228782	0.261293
O3	O	-0.451201	0.562116	0.594627
O4	O	-0.874153	-0.117020	-0.072062
O5	O	-0.540820	0.216313	0.261272
O6	O	-0.207487	0.549647	0.594605
O7	O	-0.995034	0.003357	-0.072044
O8	O	-0.661701	0.336691	0.261289
O9	O	-0.328367	0.670024	0.594623
O10	O	-0.996987	-0.224929	-0.072058
O11	O	-0.663654	0.108405	0.261276
O12	O	-0.330321	0.441738	0.594609
O13	O	-1.001908	0.010217	0.072216
O14	O	-0.668575	0.343551	0.405549
O15	O	-0.335241	0.676884	0.738883
O16	O	-0.881027	-0.110160	0.072199
O17	O	-0.547694	0.223173	0.405532
O18	O	-0.214361	0.556507	0.738865
O19	O	-1.124742	-0.097691	0.072220
O20	O	-0.791409	0.235642	0.405554
O21	O	-0.458075	0.568976	0.738887
Cu22	Cu	-1.003512	-0.103299	0.085381
Cu23	Cu	-0.670179	0.230034	0.418715
Cu24	Cu	-0.336846	0.563367	0.752048
Cu25	Cu	-0.995383	-0.111412	-0.085223
Cu26	Cu	-0.662050	0.221921	0.248110
Cu27	Cu	-0.328716	0.555255	0.581444
O28	O	-1.003861	-0.218069	0.072203
O29	O	-0.670528	0.115265	0.405536
O30	O	-0.337195	0.448598	0.738869
C31	C	-0.995957	0.036000	0.000086
C32	C	-0.662624	0.369333	0.333419
C33	C	-0.329291	0.702667	0.666752
C34	C	-0.988457	0.123045	0.000085
C35	C	-0.655124	0.456378	0.333418
C36	C	-0.321791	0.789711	0.666751
C37	C	-0.846262	-0.113073	0.000066
C38	C	-0.512928	0.220261	0.333399
C39	C	-0.179595	0.553594	0.666732
C40	C	-0.752911	-0.111521	0.000058
C41	C	-0.419578	0.221812	0.333391
C42	C	-0.086245	0.555145	0.666724
C43	C	-1.152634	-0.101639	0.000091
C44	C	-0.819300	0.231695	0.333424
C45	C	-0.485967	0.565028	0.666758
C46	C	-1.245984	-0.103190	0.000093
C47	C	-0.912651	0.230143	0.333427
C48	C	-0.579317	0.563476	0.666760
C49	C	-0.532803	-0.033196	0.000079
C50	C	-0.199469	0.300137	0.333412
C51	C	0.133864	0.633471	0.666746
C52	C	-0.470832	-0.072950	-0.071051
C53	C	-0.137499	0.260384	0.262282
C54	C	0.195834	0.593717	0.595616
C55	C	-0.581998	-0.108713	0.000068
C56	C	-0.248664	0.224620	0.333401
C57	C	0.084669	0.557953	0.666735
C58	C	-0.477633	-0.066204	0.071178
C59	C	-0.144300	0.267129	0.404512
C60	C	0.189034	0.600463	0.737845
C61	C	-0.416903	-0.105996	0.000082
C62	C	-0.083570	0.227338	0.333415
C63	C	0.249763	0.560671	0.666749
C64	C	-0.521254	-0.148491	-0.071121
C65	C	-0.187921	0.184843	0.262213
C66	C	0.145413	0.518176	0.595546
C67	C	-0.528063	-0.141731	0.071172
C68	C	-0.194730	0.191602	0.404506
C69	C	0.138603	0.524935	0.737839
C70	C	-0.466114	-0.181541	0.000025
C71	C	-0.132780	0.151793	0.333358
C72	C	0.200553	0.485126	0.666692
C73	C	-0.677104	-0.110277	0.000059
C74	C	-0.343771	0.223056	0.333393
C75	C	-0.010438	0.556390	0.666726
C76	C	-0.321798	-0.104438	0.000084
C77	C	0.011536	0.228895	0.333418
C78	C	0.344869	0.562228	0.666751
C79	C	-1.002938	-0.250711	0.000071
C80	C	-0.669605	0.082622	0.333404
C81	C	-0.336271	0.415955	0.666738
C82	C	-1.010438	-0.337756	0.000066
C83	C	-0.677104	-0.004423	0.333399
C84	C	-0.343771	0.328911	0.666733
N85	N	-1.009236	-0.097593	0.205375
N86	N	-0.675903	0.235741	0.538709
N87	N	-0.342570	0.569074	0.872042
C88	C	-1.060823	0.173282	0.000092
C89	C	-0.727489	0.506615	0.333425
C90	C	-0.394156	0.839948	0.666759
C91	C	-1.053770	0.255068	0.000083
C92	C	-0.720437	0.588402	0.333417
C93	C	-0.387103	0.921735	0.666750
C94	C	-0.974352	0.286616	0.000073
C95	C	-0.641019	0.619950	0.333407
C96	C	-0.307685	0.953283	0.666740
C97	C	-0.901981	0.236373	0.000063
C98	C	-0.568648	0.569706	0.333397
C99	C	-0.235314	0.903040	0.666730
C100	C	-0.909034	0.154588	0.000066
C101	C	-0.575701	0.487921	0.333399
C102	C	-0.242367	0.821254	0.666733
C103	C	-0.945120	0.530215	0.000059
C104	C	-0.611787	0.863548	0.333392
C105	C	-0.278453	1.196882	0.666725
C106	C	-0.938073	0.612007	0.000059
C107	C	-0.604739	0.945340	0.333392
C108	C	-0.271406	1.278674	0.666725
C109	C	-1.089862	0.630697	0.000077
C110	C	-0.756529	0.964030	0.333410
C111	C	-0.423196	1.297363	0.666744
C112	C	-1.096909	0.548909	0.000085
C113	C	-0.763575	0.882242	0.333418
C114	C	-0.430242	1.215576	0.666752
C115	C	-1.024537	0.498672	0.000070
C116	C	-0.691204	0.832006	0.333404
C117	C	-0.357871	1.165339	0.666737
N118	N	-0.967141	0.370215	0.000067
N119	N	-0.633808	0.703549	0.333400
N120	N	-0.300475	1.036882	0.666734
N121	N	-1.031748	0.415075	0.000070
N122	N	-0.698415	0.748408	0.333404
N123	N	-0.365082	1.081742	0.666737
N124	N	-0.989666	-0.117112	-0.205217
N125	N	-0.656332	0.216221	0.128116
N126	N	-0.322999	0.549554	0.461450
C127	C	-0.957870	-0.148714	0.250783
C128	C	-0.624537	0.184620	0.584117
C129	C	-0.291204	0.517953	0.917450
C130	C	-0.962223	-0.144395	0.341590
C131	C	-0.628890	0.188938	0.674923
C132	C	-0.295556	0.522272	1.008257
C133	C	-1.017937	-0.088951	0.386987
C134	C	-0.684604	0.244382	0.720321
C135	C	-0.351271	0.577716	1.053654
C136	C	-1.069309	-0.037828	0.341573
C137	C	-0.735975	0.295506	0.674906
C138	C	-0.402642	0.628839	1.008240
C139	C	-1.064960	-0.042151	0.250768
C140	C	-0.731627	0.291183	0.584101
C141	C	-0.398293	0.624516	0.917434
C142	C	-1.036688	-0.070312	0.658564
C143	C	-0.703355	0.263021	0.991897
C144	C	-0.370022	0.596355	1.325230
C145	C	-1.041031	-0.065991	0.749375
C146	C	-0.707698	0.267342	1.082708
C147	C	-0.374365	0.600675	1.416042
C148	C	-0.933946	-0.172560	0.749386
C149	C	-0.600613	0.160773	1.082719
C150	C	-0.267279	0.494107	1.416053
C151	C	-0.929599	-0.176875	0.658579
C152	C	-0.596265	0.156458	0.991913
C153	C	-0.262932	0.489792	1.325246
C154	C	-0.980973	-0.125754	0.613173
C155	C	-0.647640	0.207579	0.946506
C156	C	-0.314307	0.540912	1.279840
N157	N	-1.022386	-0.084534	0.479806
N158	N	-0.689052	0.248800	0.813140
N159	N	-0.355719	0.582133	1.146473
N160	N	-0.976529	-0.130176	0.520355
N161	N	-0.643195	0.203157	0.853689
N162	N	-0.309862	0.536491	1.187022
H163	H	-0.561928	0.029473	-0.000005
H164	H	-0.228595	0.362806	0.333328
H165	H	0.104738	0.696139	0.666661
H166	H	-0.553201	-0.170786	0.131307
H167	H	-0.219867	0.162547	0.464640
H168	H	0.113466	0.495881	0.797974
H169	H	-0.445715	-0.043868	-0.131183
H170	H	-0.112382	0.289465	0.202151
H171	H	0.220952	0.622798	0.535484
H172	H	-0.540514	-0.183270	-0.131321
H173	H	-0.207180	0.150064	0.202012
H174	H	0.126153	0.483397	0.535345
H175	H	-1.086403	-0.020839	0.786333
H176	H	-0.753070	0.312495	1.119667
H177	H	-0.419736	0.645828	1.453000
H178	H	-0.437161	-0.244280	-0.000019
H179	H	-0.103827	0.089053	0.333315
H180	H	0.229506	0.422386	0.666648
H181	H	-1.078518	-0.028686	0.621601
H182	H	-0.745184	0.304647	0.954934
H183	H	-0.411851	0.637981	1.288267
H184	H	-0.884232	-0.222022	0.621619
H185	H	-0.550898	0.111312	0.954952
H186	H	-0.217565	0.444645	1.288285
H187	H	-1.148782	0.671607	0.000087
H188	H	-0.815449	1.004941	0.333421
H189	H	-0.482116	1.338274	0.666754
H190	H	-0.458269	-0.031390	0.131311
H191	H	-0.124936	0.301943	0.464644
H192	H	0.208397	0.635277	0.797978
H193	H	-1.114677	0.007313	0.378540
H194	H	-0.781344	0.340647	0.711874
H195	H	-0.448010	0.673980	1.045207
H196	H	-0.892120	-0.214181	0.786364
H197	H	-0.558787	0.119153	1.119698
H198	H	-0.225454	0.452486	1.453031
H199	H	-1.106788	-0.000524	0.213797
H200	H	-0.773455	0.332810	0.547131
H201	H	-0.440122	0.666143	0.880464
H202	H	-1.125494	0.147602	0.000106
H203	H	-0.792160	0.480936	0.333439
H204	H	-0.458827	0.814269	0.666772
H205	H	-0.912498	-0.193859	0.213827
H206	H	-0.579165	0.139475	0.547160
H207	H	-0.245832	0.472808	0.880494
H208	H	-1.112698	0.295969	0.000091
H209	H	-0.779365	0.629302	0.333424
H210	H	-0.446031	0.962635	0.666758
H211	H	-1.161579	0.523229	0.000093
H212	H	-0.828246	0.856562	0.333426
H213	H	-0.494912	1.189896	0.666760
H214	H	-0.837317	0.262066	0.000050
H215	H	-0.503983	0.595399	0.333383
H216	H	-0.170650	0.928732	0.666716
H217	H	-0.886190	0.489322	0.000047
H218	H	-0.552857	0.822655	0.333381
H219	H	-0.219523	1.155988	0.666714
H220	H	-0.873398	0.637690	0.000065
H221	H	-0.540065	0.971024	0.333398
H222	H	-0.206732	1.304357	0.666731
H223	H	-0.850106	0.113685	0.000060
H224	H	-0.516773	0.447018	0.333393
H225	H	-0.183440	0.780351	0.666727
H226	H	-0.920398	-0.186022	0.378561
H227	H	-0.587064	0.147311	0.711894
H228	H	-0.253731	0.480644	1.045228
