data_functionalizedCrystal
_audit_creation_method	'MofGen! by Chris Wilmer'
_symmetry_space_group_name_H-M	'P1'
_symmetry_Int_Tables_number	1
_symmetry_cell_setting	triclinic
loop_
_symmetry_equiv_pos_as_xyz
  x,y,z
_cell_length_a	16.120530
_cell_length_b	17.638891
_cell_length_c	17.640968
_cell_angle_alpha	92.190062
_cell_angle_beta	104.631115
_cell_angle_gamma	76.537080
loop_
_atom_site_label
_atom_site_type_symbol
_atom_site_fract_x
_atom_site_fract_y
_atom_site_fract_z
Zn1	Zn	1.453925	-0.269164	0.571220
Zn2	Zn	1.465075	-0.422236	0.470537
Zn3	Zn	1.289680	-0.288798	0.435134
Zn4	Zn	1.344931	-0.392089	0.590811
O5	O	1.388403	-0.343071	0.516926
O6	O	1.574422	-0.293869	0.564482
O7	O	1.423352	-0.425369	0.358553
O8	O	1.283678	-0.178904	0.430171
O9	O	1.582614	-0.406330	0.490510
O10	O	1.404349	-0.164479	0.530153
O11	O	1.294490	-0.327332	0.332543
O12	O	1.177991	-0.298100	0.449168
O13	O	1.377846	-0.354949	0.695500
O14	O	1.218584	-0.373987	0.563543
O15	O	1.457923	-0.264636	0.681107
O16	O	1.476927	-0.525526	0.509506
O17	O	1.388657	-0.503376	0.597871
C18	C	1.440023	-0.542267	0.559674
C19	C	1.462189	-0.627482	0.577992
C20	C	1.167428	-0.334903	0.504640
C21	C	1.072902	-0.331424	0.499406
C22	C	1.422804	-0.304239	0.716900
C23	C	1.437464	-0.287691	0.802117
C24	C	0.899840	-0.325052	0.489854
C25	C	0.877830	-0.361137	0.544066
C26	C	0.781533	-0.357592	0.538751
C27	C	0.996146	-0.328596	0.495167
C28	C	1.610241	-0.351272	0.529260
C29	C	1.704775	-0.354767	0.534516
C30	C	1.336607	-0.143095	0.474028
C31	C	1.314534	-0.057877	0.455748
C32	C	1.556111	0.259931	0.655839
C33	C	1.535367	0.340001	0.638635
C34	C	1.409723	0.324971	0.534532
C35	C	1.430454	0.244899	0.551730
C36	C	1.503650	0.212385	0.612383
C37	C	1.377993	0.197353	0.508275
C38	C	1.398726	0.117287	0.525469
C39	C	1.471919	0.084767	0.586118
C40	C	1.524382	0.132319	0.629577
C41	C	1.304802	0.229867	0.447618
C42	C	1.252341	0.182321	0.404163
C43	C	1.273070	0.102255	0.421360
C44	C	1.346263	0.069735	0.482009
C45	C	1.220607	0.054702	0.377900
C46	C	1.241339	-0.025364	0.395094
C47	C	1.366995	-0.010331	0.499203
C48	C	1.354170	-0.381699	0.317720
C49	C	1.339619	-0.398037	0.232466
C50	C	1.277252	-0.468379	1.119857
C51	C	1.291043	-0.452821	1.199931
C52	C	1.374420	-0.358787	1.184934
C53	C	1.360633	-0.374334	1.104857
C54	C	1.312049	-0.429132	1.072325
C55	C	1.395430	-0.335087	1.057325
C56	C	1.381648	-0.350637	0.977256
C57	C	1.333068	-0.405434	0.944718
C58	C	1.298267	-0.444682	0.992256
C59	C	1.444019	-0.280294	1.089859
C60	C	1.478816	-0.241046	1.042327
C61	C	1.465029	-0.256592	0.962255
C62	C	1.416449	-0.311389	0.929718
C63	C	1.499830	-0.217344	0.914718
C64	C	1.486048	-0.232894	0.834649
C65	C	1.402667	-0.326939	0.849649
H66	H	0.931307	-0.394692	0.594471
Cl67	Cl	0.817280	-0.273248	0.412036
H68	H	1.426584	-0.036802	0.548607
H69	H	1.455241	-0.267637	1.155058
Cl70	Cl	1.529797	-0.183556	0.774891
Cl71	Cl	1.175391	-0.085141	0.340461
Cl72	Cl	1.498085	-0.015914	0.607634
H73	H	1.583971	0.105849	0.678981
H74	H	1.615700	0.233461	0.705243
H75	H	1.350129	0.351453	0.485146
Cl76	Cl	1.560916	-0.148467	0.955627
H77	H	1.578094	0.378710	0.674026
H78	H	1.287928	0.295062	0.433618
H79	H	1.363080	-0.371541	0.823155
H80	H	1.192747	0.208803	0.354776
H81	H	1.161016	0.081184	0.328511
H82	H	1.518376	-0.196432	1.068826
H83	H	1.258680	-0.489285	0.965762
H84	H	1.321852	-0.418096	0.879521
Cl85	Cl	1.216165	-0.537262	1.078952
Cl86	Cl	1.247288	-0.502164	1.259683
H87	H	1.413980	-0.314172	1.211433
