data_functionalizedCrystal
_audit_creation_method	'MofGen! by Chris Wilmer'
_symmetry_space_group_name_H-M	'P1'
_symmetry_Int_Tables_number	1
_symmetry_cell_setting	triclinic
loop_
_symmetry_equiv_pos_as_xyz
  x,y,z
_cell_length_a	31.640172
_cell_length_b	31.640172
_cell_length_c	27.440280
_cell_angle_alpha	60.013424
_cell_angle_beta	59.991654
_cell_angle_gamma	89.999305
loop_
_atom_site_label
_atom_site_type_symbol
_atom_site_fract_x
_atom_site_fract_y
_atom_site_fract_z
Zr1	Zr	0.869830	0.407032	-0.533453
Zr2	Zr	1.369830	0.907032	-0.033453
O3	O	0.890517	0.339550	-0.533466
O4	O	1.390517	0.839550	-0.033466
O5	O	0.802341	0.427721	-0.533440
O6	O	1.302341	0.927721	-0.033440
O7	O	0.890517	0.427706	-0.635113
O8	O	1.390517	0.927706	-0.135113
O9	O	0.802344	0.339575	-0.351601
O10	O	1.302344	0.839575	0.148399
O11	O	0.960074	0.497242	-0.715305
O12	O	1.460074	0.997242	-0.215305
O13	O	0.802341	0.339565	-0.431793
O14	O	1.302341	0.839565	0.068207
O15	O	0.802343	0.497270	-0.533430
O16	O	1.302343	0.997270	-0.033430
O17	O	0.960074	0.339547	-0.533476
O18	O	1.460074	0.839547	-0.033476
O19	O	0.899344	0.488436	-0.593291
O20	O	1.399344	0.988436	-0.093291
O21	O	0.847436	0.436549	-0.473600
O22	O	1.347436	0.936549	0.026400
O23	O	0.951252	0.436531	-0.593307
O24	O	1.451252	0.936531	-0.093307
O25	O	0.899344	0.384644	-0.473615
O26	O	1.399344	0.884644	0.026385
Zr27	Zr	0.980769	0.517949	-0.533453
Zr28	Zr	1.480769	1.017949	-0.033453
Zr29	Zr	0.980765	0.517934	-0.661349
Zr30	Zr	1.480765	1.017934	-0.161349
Zr31	Zr	0.869834	0.407047	-0.405557
Zr32	Zr	1.369834	0.907047	0.094443
Zr33	Zr	0.980766	0.407027	-0.533470
Zr34	Zr	1.480766	0.907027	-0.033470
Zr35	Zr	0.869834	0.517953	-0.533437
Zr36	Zr	1.369834	1.017953	-0.033437
O37	O	1.048258	0.497259	-0.533467
O38	O	1.548258	0.997259	-0.033467
O39	O	1.048253	0.497238	-0.715318
O40	O	1.548253	0.997238	-0.215318
O41	O	0.890523	0.339571	-0.351614
O42	O	1.390523	0.839571	0.148386
O43	O	0.960082	0.585431	-0.533441
O44	O	1.460082	1.085431	-0.033441
O45	O	0.960077	0.585409	-0.715292
O46	O	1.460077	1.085409	-0.215292
O47	O	0.802346	0.427743	-0.351588
O48	O	1.302346	0.927743	0.148412
O49	O	1.048256	0.585406	-0.715305
O50	O	1.548256	1.085406	-0.215305
O51	O	0.960082	0.497275	-0.431793
O52	O	1.460082	0.997275	0.068207
O53	O	0.890525	0.427739	-0.351602
O54	O	1.390525	0.927739	0.148398
O55	O	1.048258	0.585415	-0.635114
O56	O	1.548258	1.085415	-0.135114
O57	O	1.048253	0.427699	-0.635137
O58	O	1.548253	0.927699	-0.135137
O59	O	0.802346	0.497282	-0.431770
O60	O	1.302346	0.997282	0.068230
O61	O	0.890525	0.585434	-0.533430
O62	O	1.390525	1.085434	-0.033430
O63	O	0.890522	0.585422	-0.635090
O64	O	1.390522	1.085422	-0.135090
O65	O	0.960077	0.339559	-0.431816
O66	O	1.460077	0.839559	0.068184
O67	O	1.048256	0.427711	-0.533477
O68	O	1.548256	0.927711	-0.033477
O69	O	0.899347	0.488450	-0.473600
O70	O	1.399347	0.988450	0.026400
O71	O	0.951255	0.540337	-0.593292
O72	O	1.451255	1.040337	-0.093292
O73	O	1.003163	0.488432	-0.593307
O74	O	1.503163	0.988432	-0.093307
O75	O	0.951256	0.436545	-0.473615
O76	O	1.451256	0.936545	0.026385
C77	C	0.786536	0.462496	-0.533433
C78	C	1.286536	0.962496	-0.033433
C79	C	0.739441	0.462498	-0.533425
C80	C	1.239441	0.962498	-0.033425
C81	C	0.447438	0.424177	-0.533471
C82	C	0.947438	0.924177	-0.033471
C83	C	0.270453	0.424173	-0.533483
C84	C	0.770453	0.924173	-0.033483
O85	O	0.247580	0.391600	-0.533518
O86	O	0.747580	0.891600	-0.033518
N87	N	0.248322	0.462487	-0.533476
N88	N	0.748322	0.962487	-0.033476
C89	C	0.270443	0.500807	-0.533471
C90	C	0.770443	1.000807	-0.033471
O91	O	0.247562	0.533398	-0.533473
O92	O	0.747562	1.033398	-0.033473
C93	C	0.447429	0.500812	-0.533464
C94	C	0.947429	1.000812	-0.033464
C95	C	0.469554	0.462493	-0.533464
C96	C	0.969554	0.962493	-0.033464
C97	C	0.469563	0.385860	-0.533471
C98	C	0.969563	0.885860	-0.033471
C99	C	0.513805	0.385860	-0.533464
C100	C	1.013805	0.885860	-0.033464
C101	C	0.535922	0.424176	-0.533457
C102	C	1.035922	0.924176	-0.033457
C103	C	0.513796	0.462492	-0.533457
C104	C	1.013796	0.962492	-0.033457
C105	C	0.469552	0.539134	-0.533464
C106	C	0.969552	1.039134	-0.033464
C107	C	0.513802	0.539133	-0.533464
C108	C	1.013802	1.039133	-0.033464
C109	C	0.535927	0.500813	-0.533464
C110	C	1.035927	1.000813	-0.033464
C111	C	0.580155	0.500808	-0.533443
C112	C	1.080155	1.000808	-0.033443
N113	N	0.602285	0.462494	-0.533450
N114	N	1.102285	0.962494	-0.033450
C115	C	0.580169	0.424178	-0.533457
C116	C	1.080169	0.924178	-0.033457
C117	C	0.177522	0.500800	-0.533473
C118	C	0.677522	1.000800	-0.033473
C119	C	0.133275	0.500799	-0.533474
C120	C	0.633275	1.000799	-0.033474
C121	C	0.133288	0.424165	-0.533487
C122	C	0.633288	0.924165	-0.033487
C123	C	0.177534	0.424165	-0.533481
C124	C	0.677534	0.924165	-0.033481
C125	C	0.199652	0.462486	-0.533480
C126	C	0.699652	0.962486	-0.033480
C127	C	0.673080	0.424180	-0.533442
C128	C	1.173080	0.924180	-0.033442
C129	C	0.717324	0.424182	-0.533433
C130	C	1.217324	0.924182	-0.033433
C131	C	0.717309	0.500817	-0.533423
C132	C	1.217309	1.000817	-0.033423
C133	C	0.673067	0.500814	-0.533429
C134	C	1.173067	1.000814	-0.033429
C135	C	0.650954	0.462493	-0.533441
C136	C	1.150954	0.962493	-0.033441
O137	O	0.603058	0.533367	-0.533415
O138	O	1.103058	1.033367	-0.033415
O139	O	0.603064	0.391598	-0.533470
O140	O	1.103064	0.891598	-0.033470
C141	C	0.403196	0.424177	-0.533478
C142	C	0.903196	0.924177	-0.033478
C143	C	0.381070	0.462493	-0.533477
C144	C	0.881070	0.962493	-0.033477
C145	C	0.403187	0.500809	-0.533470
C146	C	0.903187	1.000809	-0.033470
C147	C	0.336823	0.462491	-0.533478
C148	C	0.836823	0.962491	-0.033478
C149	C	0.314707	0.424175	-0.533485
C150	C	0.814707	0.924175	-0.033485
C151	C	0.336837	0.385861	-0.533491
C152	C	0.836837	0.885861	-0.033491
C153	C	0.381079	0.385861	-0.533485
C154	C	0.881079	0.885861	-0.033485
C155	C	0.381057	0.539123	-0.533464
C156	C	0.881057	1.039123	-0.033464
C157	C	0.336815	0.539120	-0.533470
C158	C	0.836815	1.039120	-0.033470
C159	C	0.314698	0.500804	-0.533477
C160	C	0.814698	1.000804	-0.033477
C161	C	0.925295	0.323745	-0.533473
C162	C	1.425295	0.823745	-0.033473
C163	C	0.925294	0.276655	-0.533480
C164	C	1.425294	0.776655	-0.033480
C165	C	0.898209	-0.042464	-0.470969
C166	C	1.398209	0.457536	0.029031
C167	C	0.898211	-0.219460	-0.470957
C168	C	1.398211	0.280540	0.029043
O169	O	0.875187	-0.265380	-0.417821
O170	O	1.375187	0.234620	0.082179
N171	N	0.925306	-0.214505	-0.533434
N172	N	1.425306	0.285495	-0.033434
C173	C	0.952405	-0.165297	-0.595919
C174	C	1.452405	0.334703	-0.095919
O175	O	0.975455	-0.165145	-0.649060
O176	O	1.475455	0.334855	-0.149060
C177	C	0.952405	0.011697	-0.595931
C178	C	1.452405	0.511697	-0.095931
C179	C	0.925304	0.006739	-0.533449
C180	C	1.425304	0.506739	-0.033449
C181	C	0.871111	-0.047420	-0.408492
C182	C	1.371111	0.452580	0.091508
C183	C	0.871108	-0.003174	-0.408496
C184	C	1.371108	0.496826	0.091504
C185	C	0.898204	0.046029	-0.470976
C186	C	1.398204	0.546029	0.029024
C187	C	0.925302	0.050985	-0.533453
C188	C	1.425302	0.550985	-0.033453
C189	C	0.979506	0.060904	-0.658415
C190	C	1.479506	0.560904	-0.158415
C191	C	0.979505	0.105153	-0.658412
C192	C	1.479505	0.605153	-0.158412
C193	C	0.952404	0.100194	-0.595930
C194	C	1.452404	0.600194	-0.095930
C195	C	0.952394	0.144434	-0.595936
C196	C	1.452394	0.644434	-0.095936
N197	N	0.925300	0.139480	-0.533459
N198	N	1.425300	0.639480	-0.033459
C199	C	0.898204	0.090277	-0.470979
C200	C	1.398204	0.590277	0.029021
C201	C	0.952402	-0.258224	-0.595909
C202	C	1.452402	0.241776	-0.095909
C203	C	0.952401	-0.302472	-0.595906
C204	C	1.452401	0.197528	-0.095906
C205	C	0.898208	-0.356631	-0.470944
C206	C	1.398208	0.143369	0.029056
C207	C	0.898206	-0.312382	-0.470947
C208	C	1.398206	0.187618	0.029053
C209	C	0.925307	-0.263178	-0.533431
C210	C	1.425307	0.236822	-0.033431
C211	C	0.898201	0.183200	-0.470991
C212	C	1.398201	0.683200	0.029009
C213	C	0.898199	0.227453	-0.471000
C214	C	1.398199	0.727453	0.029000
C215	C	0.952393	0.281608	-0.595962
C216	C	1.452393	0.781608	-0.095962
C217	C	0.952393	0.237359	-0.595954
C218	C	1.452393	0.737359	-0.095954
C219	C	0.925296	0.188154	-0.533462
C220	C	1.425296	0.688154	-0.033462
O221	O	0.975412	0.190370	-0.649044
O222	O	1.475412	0.690370	-0.149044
O223	O	0.875167	0.090136	-0.417846
O224	O	1.375167	0.590136	0.082154
C225	C	0.898212	-0.086711	-0.470965
C226	C	1.398212	0.413289	0.029035
C227	C	0.925309	-0.081754	-0.533442
C228	C	1.425309	0.418246	-0.033442
C229	C	0.952405	-0.032552	-0.595922
C230	C	1.452405	0.467448	-0.095922
C231	C	0.925309	-0.126003	-0.533439
C232	C	1.425309	0.373997	-0.033439
C233	C	0.898213	-0.175205	-0.470959
C234	C	1.398213	0.324795	0.029041
C235	C	0.871119	-0.180160	-0.408481
C236	C	1.371119	0.319840	0.091519
C237	C	0.871116	-0.135913	-0.408485
C238	C	1.371116	0.364087	0.091515
C239	C	0.979499	-0.027597	-0.658399
C240	C	1.479499	0.472403	-0.158399
C241	C	0.979499	-0.071846	-0.658391
C242	C	1.479499	0.428154	-0.158391
C243	C	0.952404	-0.121049	-0.595910
C244	C	1.452404	0.378951	-0.095910
C245	C	1.064063	0.462485	-0.533474
C246	C	1.564063	0.962485	-0.033474
C247	C	1.111158	0.462483	-0.533481
C248	C	1.611158	0.962483	-0.033481
C249	C	0.925295	0.462472	-0.693431
C250	C	1.425295	0.962472	-0.193431
C251	C	0.925293	0.462465	-0.747727
C252	C	1.425293	0.962465	-0.247727
C253	C	0.925304	0.601236	-0.533433
C254	C	1.425304	1.101236	-0.033433
C255	C	0.925306	0.648325	-0.533426
C256	C	1.425306	1.148325	-0.033426
C257	C	0.963620	0.500812	-1.128647
C258	C	1.463620	1.000812	-0.628647
C259	C	0.963620	0.500817	-1.179670
C260	C	1.463620	1.000817	-0.679670
O261	O	0.996199	0.533408	-1.243631
O262	O	1.496199	1.033408	-0.743631
N263	N	0.925301	0.462509	-1.161010
N264	N	1.425301	0.962509	-0.661010
C265	C	0.886977	0.424196	-1.091320
C266	C	1.386977	0.924196	-0.591320
O267	O	0.854383	0.391613	-1.080132
O268	O	1.354383	0.891613	-0.580132
C269	C	0.886975	0.424194	-1.040298
C270	C	1.386975	0.924194	-0.540298
C271	C	0.925299	0.462502	-1.058965
C272	C	1.425299	0.962502	-0.558965
C273	C	1.001941	0.539118	-1.147310
C274	C	1.501941	1.039118	-0.647310
C275	C	1.001941	0.539112	-1.096290
C276	C	1.501941	1.039112	-0.596290
C277	C	0.963620	0.500802	-1.026608
C278	C	1.463620	1.000802	-0.526608
C279	C	0.925299	0.462497	-1.007945
C280	C	1.425299	0.962497	-0.507945
C281	C	0.848648	0.385884	-0.970610
C282	C	1.348648	0.885884	-0.470610
C283	C	0.848649	0.385886	-0.919589
C284	C	1.348649	0.885886	-0.419589
C285	C	0.886974	0.424194	-0.938255
C286	C	1.386974	0.924194	-0.438255
C287	C	0.886979	0.424181	-0.887242
C288	C	1.386979	0.924181	-0.387242
N289	N	0.925298	0.462489	-0.905903
N290	N	1.425298	0.962489	-0.405903
C291	C	0.963618	0.500800	-0.975586
C292	C	1.463618	1.000800	-0.475586
C293	C	0.886983	0.424204	-1.198472
C294	C	1.386983	0.924204	-0.698472
C295	C	0.886987	0.424203	-1.249492
C296	C	1.386987	0.924203	-0.749492
C297	C	0.963630	0.500825	-1.337840
C298	C	1.463630	1.000825	-0.837840
C299	C	0.963628	0.500823	-1.286818
C300	C	1.463628	1.000823	-0.786818
C301	C	0.925302	0.462512	-1.217133
C302	C	1.425302	0.962512	-0.717133
C303	C	0.963616	0.500786	-0.868438
C304	C	1.463616	1.000786	-0.368438
C305	C	0.963614	0.500776	-0.817409
C306	C	1.463614	1.000776	-0.317409
C307	C	0.886970	0.424156	-0.729067
C308	C	1.386970	0.924156	-0.229067
C309	C	0.886973	0.424164	-0.780090
C310	C	1.386973	0.924164	-0.280090
C311	C	0.925299	0.462483	-0.849778
C312	C	1.425299	0.962483	-0.349778
O313	O	0.854416	0.391608	-0.823269
O314	O	1.354416	0.891608	-0.323269
O315	O	0.996203	0.533382	-0.986761
O316	O	1.496203	1.033382	-0.486761
C317	C	0.925304	0.462509	-0.373475
C318	C	1.425304	0.962509	0.126525
C319	C	0.925306	0.462515	-0.319180
C320	C	1.425306	0.962515	0.180820
C321	C	0.786537	0.323769	-0.373474
C322	C	1.286537	0.823769	0.126526
C323	C	0.739442	0.276688	-0.319179
C324	C	1.239442	0.776688	0.180821
C325	C	0.925299	0.601217	-0.693411
C326	C	1.425299	1.101217	-0.193411
C327	C	0.925299	0.648300	-0.747700
C328	C	1.425299	1.148300	-0.247700
C329	C	0.786541	0.462515	-0.373454
C330	C	1.286541	0.962515	0.126546
C331	C	0.739447	0.462523	-0.319152
C332	C	1.239447	0.962523	0.180848
C333	C	0.925300	0.323763	-0.373495
C334	C	1.425300	0.823763	0.126505
C335	C	0.925300	0.276681	-0.319207
C336	C	1.425300	0.776681	0.180793
C337	C	1.064063	0.601212	-0.693432
C338	C	1.564063	1.101212	-0.193432
C339	C	1.111158	0.648292	-0.747727
C340	C	1.611158	1.148292	-0.247727
C341	C	1.064059	0.462466	-0.693452
C342	C	1.564059	0.962466	-0.193452
C343	C	1.111152	0.462457	-0.747754
C344	C	1.611152	0.962457	-0.247754
C345	C	0.690225	0.281673	-0.293668
C346	C	1.190225	0.781673	0.206332
C347	C	0.645970	0.237440	-0.242645
C348	C	1.145970	0.737440	0.257355
C349	C	0.650933	0.188223	-0.217137
C350	C	1.150933	0.688223	0.282863
C351	C	0.700154	0.183239	-0.242650
C352	C	1.200154	0.683239	0.257350
C353	C	0.744408	0.227472	-0.293669
C354	C	1.244408	0.727472	0.206331
C355	C	0.898202	0.643319	-0.773199
C356	C	1.398202	1.143319	-0.273199
C357	C	0.898204	0.687554	-0.824216
C358	C	1.398204	1.187554	-0.324216
C359	C	0.925300	0.736770	-0.849729
C360	C	1.425300	1.236770	-0.349729
C361	C	0.952401	0.741750	-0.824227
C362	C	1.452401	1.241750	-0.324227
C363	C	0.952402	0.697515	-0.773215
C364	C	1.452402	1.197515	-0.273215
C365	C	0.744429	0.489619	-0.293646
C366	C	1.244429	0.989619	0.206354
C367	C	0.700184	0.489625	-0.242616
C368	C	1.200184	0.989625	0.257384
C369	C	0.650958	0.462538	-0.217097
C370	C	1.150958	0.962538	0.282903
C371	C	0.645977	0.435439	-0.242605
C372	C	1.145977	0.935439	0.257395
C373	C	0.690222	0.435430	-0.293631
C374	C	1.190222	0.935430	0.206369
C375	C	0.952402	0.281662	-0.293713
C376	C	1.452402	0.781662	0.206287
C377	C	0.952413	0.237427	-0.242710
C378	C	1.452413	0.737427	0.257290
C379	C	0.925318	0.188211	-0.217199
C380	C	1.425318	0.688211	0.282801
C381	C	0.898215	0.183231	-0.242698
C382	C	1.398215	0.683231	0.257302
C383	C	0.898208	0.227465	-0.293704
C384	C	1.398208	0.727465	0.206296
C385	C	1.106179	0.697501	-0.773222
C386	C	1.606179	1.197501	-0.273222
C387	C	1.150425	0.741742	-0.824246
C388	C	1.650425	1.241742	-0.324246
C389	C	1.199650	0.736774	-0.849769
C390	C	1.699650	1.236774	-0.349769
C391	C	1.204628	0.687561	-0.824272
C392	C	1.704628	1.187561	-0.324272
C393	C	1.160383	0.643321	-0.773254
C394	C	1.660383	1.143321	-0.273254
C395	C	1.160369	0.489550	-0.773261
C396	C	1.660369	0.989550	-0.273261
C397	C	1.204623	0.489552	-0.824290
C398	C	1.704623	0.989552	-0.324290
C399	C	1.199658	0.462459	-0.849809
C400	C	1.699658	0.962459	-0.349809
C401	C	1.150435	0.435366	-0.824301
C402	C	1.650435	0.935366	-0.324301
C403	C	1.106183	0.435367	-0.773276
C404	C	1.606183	0.935367	-0.273276
H405	H	0.735334	0.392974	-0.533428
H406	H	1.235334	0.892974	-0.033428
H407	H	0.849048	-0.139957	-0.357606
H408	H	1.349048	0.360043	0.142394
Cl409	Cl	0.925292	0.792374	-0.913858
Cl410	Cl	1.425292	1.292374	-0.413858
H411	H	1.033147	0.570317	-1.204048
H412	H	1.533147	1.070317	-0.704048
Cl413	Cl	0.864134	0.121348	-0.392429
Cl414	Cl	1.364134	0.621348	0.107571
Cl415	Cl	1.166625	0.523615	-0.741192
Cl416	Cl	1.666625	1.023615	-0.241192
Cl417	Cl	1.266496	0.523611	-0.856343
Cl418	Cl	1.766496	1.023611	-0.356343
H419	H	0.974462	0.781827	-0.845007
H420	H	1.474462	1.281827	-0.345007
Cl421	Cl	0.986466	0.703787	-0.741159
Cl422	Cl	1.486466	1.203787	-0.241159
H423	H	1.066110	0.413303	-0.752511
H424	H	1.566110	0.913303	-0.252511
Cl425	Cl	0.584089	0.401390	-0.210518
Cl426	Cl	1.084089	0.901390	0.289482
Cl427	Cl	0.838797	0.375999	-0.756620
Cl428	Cl	1.338797	0.875999	-0.256620
H429	H	0.876134	0.683489	-0.844971
H430	H	1.376134	1.183489	-0.344971
Cl431	Cl	0.864137	0.581453	-0.741140
Cl432	Cl	1.364137	1.081453	-0.241140
Cl433	Cl	0.541606	0.587312	-0.533465
Cl434	Cl	1.041606	1.087312	-0.033465
H435	H	0.784507	0.511677	-0.314416
H436	H	1.284507	1.011677	0.185584
Cl437	Cl	0.986485	0.243699	-0.210661
Cl438	Cl	1.486485	0.743699	0.289339
H439	H	0.655047	0.532012	-0.533419
H440	H	1.155047	1.032012	-0.033419
Cl441	Cl	0.864144	-0.418494	-0.392398
Cl442	Cl	1.364144	0.081506	0.107602
Cl443	Cl	0.683950	0.401367	-0.325693
Cl444	Cl	1.183950	0.901367	0.174307
Cl445	Cl	0.800466	0.337725	-0.947131
Cl446	Cl	1.300466	0.837725	-0.447131
Cl447	Cl	1.255296	0.462461	-0.913953
Cl448	Cl	1.755296	0.962461	-0.413953
Cl449	Cl	1.011799	0.548959	-0.956038
Cl450	Cl	1.511799	1.048959	-0.456038
H451	H	0.605896	0.241507	-0.221881
H452	H	1.105896	0.741507	0.278119
H453	H	0.655082	0.392977	-0.533454
H454	H	1.155082	0.892977	-0.033454
H455	H	1.146362	0.781810	-0.844995
H456	H	1.646362	1.281810	-0.344995
Cl457	Cl	0.706384	0.121362	-0.210577
Cl458	Cl	1.206384	0.621362	0.289423
H459	H	1.146400	0.413307	-0.845086
H460	H	1.646400	0.913307	-0.345086
Cl461	Cl	0.838797	0.375996	-0.641460
Cl462	Cl	1.338797	0.875996	-0.141460
Cl463	Cl	0.837056	-0.242023	-0.329936
Cl464	Cl	1.337056	0.257977	0.170064
H465	H	0.704249	0.511694	-0.221856
H466	H	1.204249	1.011694	0.278144
Cl467	Cl	0.595293	0.132620	-0.153000
Cl468	Cl	1.095293	0.632620	0.347000
Cl469	Cl	0.595340	0.462555	-0.152951
Cl470	Cl	1.095340	0.962555	0.347049
H471	H	0.686175	0.321744	-0.314423
H472	H	1.186175	0.821744	0.185577
Cl473	Cl	1.266516	0.681325	-0.856354
Cl474	Cl	1.766516	1.181325	-0.356354
Cl475	Cl	0.806279	0.221197	-0.325738
Cl476	Cl	1.306279	0.721197	0.174262
H477	H	0.974462	-0.298430	-0.646785
H478	H	1.474462	0.201570	-0.146785
Cl479	Cl	1.044301	0.703760	-0.741149
Cl480	Cl	1.544301	1.203760	-0.241149
H481	H	0.994835	0.532017	-1.302023
H482	H	1.494835	1.032017	-0.802023
Cl483	Cl	0.925331	0.132606	-0.153076
Cl484	Cl	1.425331	0.632606	0.346924
H485	H	0.974465	0.321732	-0.314474
H486	H	1.474465	0.821732	0.185526
H487	H	0.974471	-0.218161	-0.646793
H488	H	1.474471	0.281839	-0.146793
Cl489	Cl	0.864153	0.121356	-0.210617
Cl490	Cl	1.364153	0.621356	0.289383
Cl491	Cl	0.205319	0.548978	-0.533466
Cl492	Cl	0.705319	1.048978	-0.033466
H493	H	1.001574	0.064949	-0.709293
H494	H	1.501574	0.564949	-0.209293
Cl495	Cl	1.013578	0.167008	-0.736969
Cl496	Cl	1.513578	0.667008	-0.236969
Cl497	Cl	0.864129	0.221194	-0.325743
Cl498	Cl	1.364129	0.721194	0.174257
H499	H	0.974455	0.241398	-0.646832
H500	H	1.474455	0.741398	-0.146832
H501	H	0.318821	0.354662	-0.533495
H502	H	0.818821	0.854662	-0.033495
H503	H	1.001564	0.012463	-0.709278
H504	H	1.501564	0.512463	-0.209278
H505	H	1.235674	0.772802	-0.891312
H506	H	1.735674	1.272802	-0.391312
H507	H	0.531819	0.354660	-0.533473
H508	H	1.031819	0.854660	-0.033473
Cl509	Cl	0.205344	0.375991	-0.533483
Cl510	Cl	0.705344	0.875991	-0.033483
Cl511	Cl	0.441766	0.337684	-0.533478
Cl512	Cl	0.941766	0.837684	-0.033478
Cl513	Cl	0.105477	0.375998	-0.533498
Cl514	Cl	0.605477	0.875998	-0.033498
Cl515	Cl	1.166651	0.581460	-0.741203
Cl516	Cl	1.666651	1.081460	-0.241203
H517	H	0.115260	0.531998	-0.533463
H518	H	0.615260	1.031998	-0.033463
H519	H	0.735323	0.532012	-0.533415
H520	H	1.235323	1.032012	-0.033415
H521	H	0.451545	0.570338	-0.533465
H522	H	0.951545	1.070338	-0.033465
H523	H	0.399088	0.354656	-0.533483
H524	H	0.899088	0.854656	-0.033483
H525	H	0.318802	0.570325	-0.533464
H526	H	0.818802	1.070325	-0.033464
H527	H	0.399061	0.570326	-0.533459
H528	H	0.899061	1.070326	-0.033459
H529	H	0.974452	0.321675	-0.646833
H530	H	1.474452	0.821675	-0.146833
H531	H	0.876127	0.223410	-0.420118
H532	H	1.376127	0.723410	0.079882
H533	H	0.849044	-0.007218	-0.357617
H534	H	1.349044	0.492782	0.142383
Cl535	Cl	1.013567	-0.065604	-0.736947
Cl536	Cl	1.513567	0.434396	-0.236947
H537	H	0.849047	-0.087481	-0.357611
H538	H	1.349047	0.412519	0.142389
H539	H	0.876137	-0.316424	-0.420069
H540	H	1.376137	0.183576	0.079931
H541	H	0.994824	0.531971	-0.832616
H542	H	1.494824	1.031971	-0.332616
H543	H	1.033147	0.570307	-1.111495
H544	H	1.533147	1.070307	-0.611495
H545	H	0.994832	0.532020	-1.394587
H546	H	1.494832	1.032020	-0.894587
H547	H	0.855774	0.393003	-1.141730
H548	H	1.355774	0.893003	-0.641730
Cl549	Cl	0.838811	0.376037	-1.226018
Cl550	Cl	1.338811	0.876037	-0.726018
H551	H	0.817438	0.354689	-0.862848
H552	H	1.317438	0.854689	-0.362848
