data_functionalizedCrystal
_audit_creation_method	'MofGen! by Chris Wilmer'
_symmetry_space_group_name_H-M	'P1'
_symmetry_Int_Tables_number	1
_symmetry_cell_setting	triclinic
loop_
_symmetry_equiv_pos_as_xyz
  x,y,z
_cell_length_a	18.050591
_cell_length_b	18.101395
_cell_length_c	18.101389
_cell_angle_alpha	90.016841
_cell_angle_beta	89.974987
_cell_angle_gamma	89.972890
loop_
_atom_site_label
_atom_site_type_symbol
_atom_site_fract_x
_atom_site_fract_y
_atom_site_fract_z
Zn1	Zn	1.135308	0.294986	-0.418860
Zn2	Zn	1.635308	0.794986	0.081140
Zn3	Zn	1.135203	0.418812	-0.295022
Zn4	Zn	1.635203	0.918812	0.204978
Zn5	Zn	1.011118	0.294980	-0.295020
Zn6	Zn	1.511118	0.794980	0.204980
Zn7	Zn	1.011069	0.418782	-0.418809
Zn8	Zn	1.511069	0.918782	0.081191
O9	O	1.073174	0.356890	-0.356928
O10	O	1.573174	0.856890	0.143072
O11	O	1.239218	0.311427	-0.402455
O12	O	1.739218	0.811427	0.097545
O13	O	1.118720	0.402395	-0.191389
O14	O	1.618720	0.902395	0.308611
O15	O	1.027656	0.191348	-0.311468
O16	O	1.527656	0.691348	0.188532
O17	O	1.239142	0.402401	-0.311472
O18	O	1.739142	0.902401	0.188528
O19	O	1.118898	0.191352	-0.402453
O20	O	1.618898	0.691352	0.097547
O21	O	1.027555	0.311417	-0.191387
O22	O	1.527555	0.811417	0.308613
O23	O	0.907187	0.311387	-0.311419
O24	O	1.407187	0.811387	0.188581
O25	O	1.027572	0.402350	-0.522449
O26	O	1.527572	0.902350	-0.022449
O27	O	0.907151	0.402344	-0.402366
O28	O	1.407151	0.902344	0.097634
O29	O	1.118850	0.311398	-0.522487
O30	O	1.618850	0.811398	-0.022487
O31	O	1.118672	0.522441	-0.311422
O32	O	1.618672	1.022441	0.188578
O33	O	1.027471	0.522419	-0.402368
O34	O	1.527471	1.022419	0.097632
C35	C	0.880222	0.356862	-0.356887
C36	C	1.380222	0.856862	0.143113
C37	C	0.797676	0.356868	-0.356887
C38	C	1.297676	0.856868	0.143113
C39	C	0.598224	0.307349	-0.307544
C40	C	1.098224	0.807349	0.192456
C41	C	0.548800	0.374893	-0.289321
C42	C	1.048800	0.874893	0.210679
C43	C	0.646546	0.356891	-0.356921
C44	C	1.146546	0.856891	0.143079
C45	C	0.548889	0.289370	-0.375142
C46	C	1.048889	0.789370	0.124858
C47	C	0.500561	0.356907	-0.356952
C48	C	1.000561	0.856907	0.143048
C49	C	0.598209	0.424471	-0.338662
C50	C	1.098209	0.924471	0.161338
C51	C	0.598302	0.338902	-0.424515
C52	C	1.098302	0.838902	0.075485
C53	C	0.548900	0.406493	-0.406317
C54	C	1.048900	0.906493	0.093683
C55	C	0.730644	0.356881	-0.356901
C56	C	1.230644	0.856881	0.143099
C57	C	0.416464	0.356924	-0.356971
C58	C	0.916464	0.856924	0.143029
C59	C	1.073075	0.549301	-0.356906
C60	C	1.573075	1.049301	0.143094
C61	C	1.073100	0.631615	-0.356922
C62	C	1.573100	1.131615	0.143078
C63	C	1.073217	0.356871	-0.550090
C64	C	1.573217	0.856871	-0.050090
C65	C	1.073236	0.356863	-0.632404
C66	C	1.573236	0.856863	-0.132404
C67	C	1.266880	0.356918	-0.356970
C68	C	1.766880	0.856918	0.143030
C69	C	1.349426	0.356930	-0.356987
C70	C	1.849426	0.856930	0.143013
C71	C	1.073294	0.163728	-0.356966
C72	C	1.573294	0.663728	0.143034
C73	C	1.073345	0.081414	-0.356982
C74	C	1.573345	0.581414	0.143018
C75	C	1.073263	0.930706	-0.356962
C76	C	1.573263	1.430706	0.143038
C77	C	1.016015	0.899397	-0.414324
C78	C	1.516015	1.399397	0.085676
C79	C	1.015743	0.813779	-0.414145
C80	C	1.515743	1.313779	0.085855
C81	C	1.073182	0.782323	-0.356942
C82	C	1.573182	1.282323	0.143058
C83	C	1.051994	0.813459	-0.278891
C84	C	1.551994	1.313459	0.221109
C85	C	1.051625	0.899104	-0.279234
C86	C	1.551625	1.399104	0.220766
C87	C	1.151826	0.899058	-0.376964
C88	C	1.651826	1.399058	0.123036
C89	C	1.151364	0.813408	-0.378675
C90	C	1.651364	1.313408	0.121325
C91	C	1.073138	0.698464	-0.356927
C92	C	1.573138	1.198464	0.143073
C93	C	1.073306	1.014565	-0.356972
C94	C	1.573306	1.514565	0.143028
C95	C	1.073279	0.356724	-0.931495
C96	C	1.573279	0.856724	-0.431495
C97	C	1.015652	0.413767	-0.900146
C98	C	1.515652	0.913767	-0.400146
C99	C	1.015807	0.414032	-0.814528
C100	C	1.515807	0.914032	-0.314528
C101	C	1.073257	0.356793	-0.783113
C102	C	1.573257	0.856793	-0.283113
C103	C	1.151502	0.377983	-0.814220
C104	C	1.651502	0.877983	-0.314220
C105	C	1.151181	0.378357	-0.899865
C106	C	1.651181	0.878357	-0.399865
C107	C	1.053341	0.278365	-0.899917
C108	C	1.553341	0.778365	-0.399917
C109	C	1.051600	0.278818	-0.814266
C110	C	1.551600	0.778818	-0.314266
C111	C	1.073249	0.356831	-0.699253
C112	C	1.573249	0.856831	-0.199253
C113	C	1.073292	0.356689	-1.015355
C114	C	1.573292	0.856689	-0.515355
C115	C	1.073174	0.356855	-0.164518
C116	C	1.573174	0.856855	0.335482
C117	C	1.073300	0.356655	-0.082204
C118	C	1.573300	0.856655	0.417796
H119	H	1.029000	0.792727	-0.472019
H120	H	1.529000	1.292727	0.027981
Cl121	Cl	1.178051	0.465482	-0.781121
Cl122	Cl	1.678051	0.965482	-0.281121
H123	H	1.029140	0.919956	-0.472386
H124	H	1.529140	1.419956	0.027614
Cl125	Cl	1.113199	0.931085	-0.210991
Cl126	Cl	1.613199	1.431085	0.289009
H127	H	1.167342	0.793056	-0.436117
H128	H	1.667342	1.293056	0.063883
H129	H	0.997277	0.259061	-0.921502
H130	H	1.497277	0.759061	-0.421502
H131	H	1.196273	0.791991	-0.339941
H132	H	1.696273	1.291991	0.160059
Cl133	Cl	0.925796	0.393502	-0.931920
Cl134	Cl	1.425796	0.893502	-0.431920
Cl135	Cl	0.515670	0.471259	-0.470807
Cl136	Cl	1.015670	0.971259	0.029193
H137	H	0.620063	0.323654	-0.481647
H138	H	1.120063	0.823654	0.018353
H139	H	1.028970	0.472114	-0.794048
H140	H	1.528970	0.972114	-0.294048
Cl141	Cl	1.111683	0.209716	-0.781262
Cl142	Cl	1.611683	0.709716	-0.281262
H143	H	1.194478	0.919304	-0.335184
H144	H	1.694478	1.419304	0.164816
H145	H	1.168082	0.435639	-0.919850
H146	H	1.668082	0.935639	-0.419850
H147	H	0.994019	0.262839	-0.793933
H148	H	1.494019	0.762839	-0.293933
Cl149	Cl	1.118144	0.212749	-0.931219
Cl150	Cl	1.618144	0.712749	-0.431219
H151	H	1.028684	0.471495	-0.921674
H152	H	1.528684	0.971495	-0.421674
Cl153	Cl	0.515228	0.398404	-0.201088
Cl154	Cl	1.015228	0.898404	0.298912
Cl155	Cl	0.631664	0.242734	-0.243009
Cl156	Cl	1.131664	0.742734	0.256991
Cl157	Cl	1.219678	0.316956	-0.931889
Cl158	Cl	1.719678	0.816956	-0.431889
Cl159	Cl	0.631513	0.512667	-0.314785
Cl160	Cl	1.131513	1.012667	0.185215
H161	H	0.527185	0.232269	-0.390515
H162	H	1.027185	0.732269	0.109485
H163	H	0.958137	0.920977	-0.401241
H164	H	1.458137	1.420977	0.098759
H165	H	0.957511	0.793350	-0.400895
H166	H	1.457511	1.293350	0.099105
Cl167	Cl	0.962960	0.930041	-0.253077
Cl168	Cl	1.462960	1.430041	0.246923
H169	H	1.092379	0.793083	-0.234985
H170	H	1.592379	1.293083	0.265015
Cl171	Cl	0.964265	0.780438	-0.252263
Cl172	Cl	1.464265	1.280438	0.247737
Cl173	Cl	0.926227	0.393556	-0.782050
Cl174	Cl	1.426227	0.893556	-0.282050
H175	H	1.195591	0.337741	-0.793873
H176	H	1.695591	0.837741	-0.293873
H177	H	1.171144	0.920618	-0.432909
H178	H	1.671144	1.420618	0.067091
