data_functionalizedCrystal
_audit_creation_method	'MofGen! by Chris Wilmer'
_symmetry_space_group_name_H-M	'P1'
_symmetry_Int_Tables_number	1
_symmetry_cell_setting	triclinic
loop_
_symmetry_equiv_pos_as_xyz
  x,y,z
_cell_length_a	23.532407
_cell_length_b	17.038272
_cell_length_c	22.010155
_cell_angle_alpha	89.997018
_cell_angle_beta	90.009453
_cell_angle_gamma	86.980117
loop_
_atom_site_label
_atom_site_type_symbol
_atom_site_fract_x
_atom_site_fract_y
_atom_site_fract_z
O1	O	-0.760256	-0.094865	-0.050450
O2	O	-0.426923	0.238469	0.282884
O3	O	-0.093589	0.571802	0.616217
O4	O	-0.595114	-0.108592	-0.050467
O5	O	-0.261781	0.224741	0.282866
O6	O	0.071552	0.558074	0.616199
O7	O	-0.676704	0.012080	-0.050454
O8	O	-0.343370	0.345413	0.282880
O9	O	-0.010037	0.678746	0.616213
O10	O	-0.678667	-0.215537	-0.050463
O11	O	-0.345333	0.117797	0.282870
O12	O	-0.012000	0.451130	0.616203
O13	O	-0.676678	0.012064	0.050597
O14	O	-0.343345	0.345397	0.383930
O15	O	-0.010012	0.678730	0.717263
O16	O	-0.595089	-0.108608	0.050583
O17	O	-0.261756	0.224725	0.383916
O18	O	0.071578	0.558059	0.717250
O19	O	-0.760231	-0.094881	0.050601
O20	O	-0.426897	0.238453	0.383934
O21	O	-0.093564	0.571786	0.717267
Cu22	Cu	-0.677657	-0.101746	0.059819
Cu23	Cu	-0.344324	0.231588	0.393152
Cu24	Cu	-0.010991	0.564921	0.726485
Cu25	Cu	-0.677688	-0.101727	-0.059685
Cu26	Cu	-0.344354	0.231606	0.273648
Cu27	Cu	-0.011021	0.564940	0.606981
O28	O	-0.678641	-0.215552	0.050587
O29	O	-0.345308	0.117781	0.383920
O30	O	-0.011975	0.451114	0.717254
C31	C	-0.573867	-0.108251	0.000055
C32	C	-0.240534	0.225083	0.333389
C33	C	0.092799	0.558416	0.666722
C34	C	-0.510595	-0.107200	0.000049
C35	C	-0.177262	0.226134	0.333382
C36	C	0.156072	0.559467	0.666715
C37	C	-0.781478	-0.095222	0.000076
C38	C	-0.448144	0.238111	0.333410
C39	C	-0.114811	0.571444	0.666743
C40	C	-0.844750	-0.096273	0.000079
C41	C	-0.511417	0.237060	0.333413
C42	C	-0.178083	0.570393	0.666746
N43	N	-0.677640	-0.101758	0.143871
N44	N	-0.344307	0.231575	0.477204
N45	N	-0.010974	0.564908	0.810538
C46	C	-0.114900	-0.172019	0.000074
C47	C	0.218434	0.161315	0.333407
C48	C	0.551767	0.494648	0.666740
C49	C	-0.055448	-0.171042	0.000077
C50	C	0.277885	0.162291	0.333411
C51	C	0.611219	0.495624	0.666744
O52	O	-0.021862	-0.231130	0.000097
O53	O	0.311471	0.102203	0.333430
O54	O	0.644804	0.435537	0.666764
N55	N	-0.029050	-0.099303	0.000079
N56	N	0.304283	0.234030	0.333413
N57	N	0.637616	0.567364	0.666746
C58	C	-0.062108	-0.028535	0.000084
C59	C	0.271226	0.304798	0.333417
C60	C	0.604559	0.638131	0.666750
O61	O	-0.034195	0.032574	0.000086
O62	O	0.299138	0.365908	0.333420
O63	O	0.632471	0.699241	0.666753
C64	C	-0.121558	-0.029512	0.000084
C65	C	0.211775	0.303821	0.333418
C66	C	0.545109	0.637154	0.666751
C67	C	-0.147952	-0.101256	0.000076
C68	C	0.185381	0.232077	0.333409
C69	C	0.518714	0.565410	0.666743
C70	C	-0.141294	-0.243757	0.000066
C71	C	0.192039	0.089577	0.333399
C72	C	0.525372	0.422910	0.666733
C73	C	-0.200742	-0.244733	0.000061
C74	C	0.132592	0.088601	0.333395
C75	C	0.465925	0.421934	0.666728
C76	C	-0.233794	-0.173971	0.000064
C77	C	0.099539	0.159363	0.333397
C78	C	0.432872	0.492696	0.666730
C79	C	-0.207400	-0.102232	0.000071
C80	C	0.125934	0.231101	0.333405
C81	C	0.459267	0.564434	0.666738
C82	C	-0.154614	0.041254	0.000093
C83	C	0.178719	0.374588	0.333426
C84	C	0.512053	0.707921	0.666760
C85	C	-0.214068	0.040271	0.000094
C86	C	0.119265	0.373604	0.333427
C87	C	0.452598	0.706938	0.666761
C88	C	-0.240463	-0.031473	0.000086
C89	C	0.092871	0.301860	0.333419
C90	C	0.426204	0.635194	0.666753
C91	C	-0.299900	-0.032446	0.000069
C92	C	0.033433	0.300887	0.333402
C93	C	0.366767	0.634220	0.666736
N94	N	-0.326298	-0.104186	0.000067
N95	N	0.007036	0.229148	0.333400
N96	N	0.340369	0.562481	0.666734
C97	C	-0.293245	-0.174948	0.000064
C98	C	0.040088	0.158386	0.333398
C99	C	0.373422	0.491719	0.666731
C100	C	0.062743	-0.026489	0.000083
C101	C	0.396076	0.306845	0.333417
C102	C	0.729409	0.640178	0.666750
C103	C	0.122192	-0.025511	0.000079
C104	C	0.455525	0.307823	0.333412
C105	C	0.788859	0.641156	0.666745
C106	C	0.128847	-0.168018	0.000073
C107	C	0.462181	0.165315	0.333407
C108	C	0.795514	0.498649	0.666740
C109	C	0.069397	-0.168995	0.000074
C110	C	0.402730	0.164338	0.333407
C111	C	0.736064	0.497672	0.666741
C112	C	0.036345	-0.098228	0.000082
C113	C	0.369678	0.235105	0.333415
C114	C	0.703012	0.568439	0.666748
C115	C	-0.418089	-0.176992	0.000054
C116	C	-0.084756	0.156341	0.333387
C117	C	0.248578	0.489675	0.666720
C118	C	-0.477542	-0.177962	0.000046
C119	C	-0.144209	0.155372	0.333380
C120	C	0.189125	0.488705	0.666713
C121	C	-0.484192	-0.035455	0.000055
C122	C	-0.150859	0.297878	0.333388
C123	C	0.182474	0.631212	0.666721
C124	C	-0.424745	-0.034485	0.000059
C125	C	-0.091411	0.298849	0.333392
C126	C	0.241922	0.632182	0.666725
C127	C	-0.391694	-0.105260	0.000060
C128	C	-0.058361	0.228074	0.333394
C129	C	0.274973	0.561407	0.666727
O130	O	-0.333522	0.027610	0.000052
O131	O	-0.000189	0.360943	0.333385
O132	O	0.333145	0.694277	0.666718
O133	O	-0.321165	-0.236047	0.000070
O134	O	0.012168	0.097286	0.333403
O135	O	0.345502	0.430619	0.666736
C136	C	-0.674906	0.041187	0.000071
C137	C	-0.341572	0.374520	0.333404
C138	C	-0.008239	0.707853	0.666738
C139	C	-0.669579	0.127940	0.000070
C140	C	-0.336246	0.461273	0.333404
C141	C	-0.002912	0.794607	0.666737
C142	C	-0.680439	-0.244660	0.000061
C143	C	-0.347106	0.088674	0.333394
C144	C	-0.013773	0.422007	0.666728
C145	C	-0.685766	-0.331413	0.000058
C146	C	-0.352433	0.001920	0.333391
C147	C	-0.019099	0.335254	0.666724
C148	C	-0.718484	0.178417	0.000076
C149	C	-0.385150	0.511750	0.333410
C150	C	-0.051817	0.845083	0.666743
C151	C	-0.713475	0.259930	0.000070
C152	C	-0.380142	0.593263	0.333403
C153	C	-0.046809	0.926597	0.666737
C154	C	-0.659562	0.290965	0.000062
C155	C	-0.326229	0.624299	0.333395
C156	C	0.007105	0.957632	0.666729
C157	C	-0.610654	0.240483	0.000054
C158	C	-0.277320	0.573816	0.333388
C159	C	0.056013	0.907149	0.666721
C160	C	-0.615662	0.158971	0.000056
C161	C	-0.282329	0.492304	0.333390
C162	C	0.051004	0.825637	0.666723
C163	C	-0.641866	0.536592	0.000052
C164	C	-0.308533	0.869926	0.333385
C165	C	0.024800	1.203259	0.666718
C166	C	-0.636861	0.618111	0.000052
C167	C	-0.303528	0.951444	0.333385
C168	C	0.029805	1.284777	0.666718
C169	C	-0.739684	0.637552	0.000066
C170	C	-0.406350	0.970886	0.333400
C171	C	-0.073017	1.304219	0.666733
C172	C	-0.744688	0.556038	0.000072
C173	C	-0.411355	0.889371	0.333405
C174	C	-0.078021	1.222705	0.666738
C175	C	-0.695779	0.505562	0.000061
C176	C	-0.362446	0.838896	0.333394
C177	C	-0.029113	1.172229	0.666728
C178	C	-0.654441	0.374285	0.000058
C179	C	-0.321108	0.707618	0.333391
C180	C	0.012225	1.040952	0.666724
C181	C	-0.700901	0.422244	0.000061
C182	C	-0.367567	0.755578	0.333394
C183	C	-0.034234	1.088911	0.666728
C184	C	-0.640848	-0.054567	0.436474
C185	C	-0.307514	0.278766	0.769807
C186	C	0.025819	0.612100	1.103141
C187	C	-0.640843	-0.054570	0.372866
C188	C	-0.307510	0.278764	0.706200
C189	C	0.025823	0.612097	1.039533
O190	O	-0.609541	-0.014443	0.339967
O191	O	-0.276208	0.318890	0.673301
O192	O	0.057125	0.652224	1.006634
N193	N	-0.677660	-0.101737	0.341055
N194	N	-0.344327	0.231596	0.674389
N195	N	-0.010993	0.564930	1.007722
C196	C	-0.714488	-0.148899	0.372855
C197	C	-0.381154	0.184434	0.706188
C198	C	-0.047821	0.517768	1.039521
O199	O	-0.745803	-0.189018	0.339956
O200	O	-0.412470	0.144315	0.673289
O201	O	-0.079137	0.477648	1.006623
C202	C	-0.714495	-0.148892	0.436461
C203	C	-0.381161	0.184442	0.769795
C204	C	-0.047828	0.517775	1.103128
C205	C	-0.677671	-0.101727	0.468269
C206	C	-0.344338	0.231606	0.801603
C207	C	-0.011005	0.564940	1.134936
C208	C	-0.604028	-0.007406	0.468282
C209	C	-0.270695	0.325928	0.801615
C210	C	0.062639	0.659261	1.134949
C211	C	-0.604032	-0.007404	0.531885
C212	C	-0.270698	0.325929	0.865219
C213	C	0.062635	0.659262	1.198552
C214	C	-0.640855	-0.054565	0.563680
C215	C	-0.307522	0.278769	0.897014
C216	C	0.025811	0.612102	1.230347
C217	C	-0.677675	-0.101726	0.531872
C218	C	-0.344342	0.231607	0.865206
C219	C	-0.011008	0.564941	1.198539
C220	C	-0.751325	-0.196049	0.468260
C221	C	-0.417991	0.137284	0.801593
C222	C	-0.084658	0.470618	1.134926
C223	C	-0.751329	-0.196037	0.531870
C224	C	-0.417995	0.137296	0.865204
C225	C	-0.084662	0.470630	1.198537
C226	C	-0.714505	-0.148873	0.563678
C227	C	-0.381172	0.184461	0.897012
C228	C	-0.047839	0.517794	1.230345
C229	C	-0.714503	-0.148885	0.627271
C230	C	-0.381169	0.184449	0.960604
C231	C	-0.047836	0.517782	1.293937
N232	N	-0.677686	-0.101717	0.659082
N233	N	-0.344352	0.231616	0.992415
N234	N	-0.011019	0.564949	1.325749
C235	C	-0.640862	-0.054557	0.627287
C236	C	-0.307529	0.278776	0.960620
C237	C	0.025805	0.612110	1.293954
C238	C	-0.714471	-0.148910	0.239277
C239	C	-0.381138	0.184424	0.572610
C240	C	-0.047805	0.517757	0.905944
C241	C	-0.714462	-0.148922	0.175672
C242	C	-0.381129	0.184411	0.509005
C243	C	-0.047796	0.517745	0.842338
C244	C	-0.640818	-0.054591	0.175688
C245	C	-0.307485	0.278742	0.509021
C246	C	0.025848	0.612076	0.842354
C247	C	-0.640825	-0.054584	0.239294
C248	C	-0.307492	0.278750	0.572628
C249	C	0.025842	0.612083	0.905961
C250	C	-0.677655	-0.101742	0.271088
C251	C	-0.344321	0.231591	0.604422
C252	C	-0.010988	0.564924	0.937755
C253	C	-0.640872	-0.054559	0.760858
C254	C	-0.307539	0.278775	1.094192
C255	C	0.025794	0.612108	1.427525
C256	C	-0.640878	-0.054564	0.824467
C257	C	-0.307544	0.278769	1.157800
C258	C	0.025789	0.612103	1.491134
C259	C	-0.714524	-0.148891	0.824446
C260	C	-0.381190	0.184442	1.157779
C261	C	-0.047857	0.517775	1.491112
C262	C	-0.714516	-0.148889	0.760842
C263	C	-0.381183	0.184444	1.094176
C264	C	-0.047850	0.517777	1.427509
C265	C	-0.677689	-0.101717	0.729050
C266	C	-0.344355	0.231617	1.062384
C267	C	-0.011022	0.564950	1.395717
O268	O	-0.745790	-0.188988	0.660210
O269	O	-0.412457	0.144345	0.993544
O270	O	-0.079124	0.477678	1.326877
O271	O	-0.609557	-0.014437	0.660193
O272	O	-0.276224	0.318896	0.993527
O273	O	0.057110	0.652230	1.326860
N274	N	-0.677701	-0.101724	0.856262
N275	N	-0.344368	0.231609	1.189596
N276	N	-0.011035	0.564943	1.522929
H277	H	-0.499029	-0.236387	0.000039
H278	H	-0.165696	0.096946	0.333373
H279	H	0.167637	0.430280	0.666706
H280	H	-0.511115	0.022158	0.000054
H281	H	-0.177781	0.355491	0.333388
H282	H	0.155552	0.688824	0.666721
H283	H	-0.222226	-0.303154	0.000054
H284	H	0.111107	0.030179	0.333388
H285	H	0.444440	0.363513	0.666721
O286	O	-0.776634	0.144943	0.000079
O287	O	-0.443300	0.478276	0.333412
O288	O	-0.109967	0.811610	0.666746
H289	H	-0.809798	0.193740	0.000074
H290	H	-0.476465	0.527074	0.333407
H291	H	-0.143131	0.860407	0.666741
O292	O	0.040930	-0.246375	0.000069
O293	O	0.374264	0.086958	0.333402
O294	O	0.707597	0.420291	0.666736
H295	H	0.014010	-0.250235	0.041255
H296	H	0.347343	0.083098	0.374588
H297	H	0.680676	0.416432	0.707921
H298	H	-0.574048	0.031005	0.557778
H299	H	-0.240715	0.364338	0.891111
H300	H	0.092618	0.697672	1.224444
O301	O	-0.552502	0.273950	0.000052
O302	O	-0.219168	0.607283	0.333386
O303	O	0.114165	0.940617	0.666719
H304	H	-0.557233	0.339111	0.000061
H305	H	-0.223900	0.672444	0.333394
H306	H	0.109433	1.005778	0.666727
O307	O	-0.562915	0.104525	0.000051
O308	O	-0.229581	0.437858	0.333384
O309	O	0.103752	0.771192	0.666718
H310	H	-0.562729	0.066916	0.041235
H311	H	-0.229396	0.400249	0.374568
H312	H	0.103937	0.733582	0.707902
H313	H	0.143677	0.032911	0.000076
H314	H	0.477010	0.366244	0.333409
H315	H	0.810344	0.699577	0.666742
H316	H	-0.781321	-0.234439	0.557754
H317	H	-0.447988	0.098894	0.891087
H318	H	-0.114654	0.432228	1.224421
O319	O	-0.126161	0.118641	0.000109
O320	O	0.207172	0.451975	0.333443
O321	O	0.540505	0.785308	0.666776
H322	H	-0.099244	0.122525	-0.041077
H323	H	0.234090	0.455859	0.292257
H324	H	0.567423	0.789192	0.625590
H325	H	-0.753299	0.301025	0.000076
H326	H	-0.419966	0.634359	0.333409
H327	H	-0.086632	0.967692	0.666743
O328	O	-0.578711	0.651594	0.000042
O329	O	-0.245377	0.984927	0.333375
O330	O	0.087956	1.318260	0.666708
H331	H	-0.555033	0.631304	-0.041153
H332	H	-0.221699	0.964637	0.292181
H333	H	0.111634	1.297970	0.625514
H334	H	-0.781311	-0.234454	0.442373
H335	H	-0.447978	0.098879	0.775706
H336	H	-0.114645	0.432213	1.109039
H337	H	-0.240977	0.097900	0.000101
H338	H	0.092357	0.431233	0.333434
H339	H	0.425690	0.764566	0.666767
H340	H	-0.610834	-0.016191	0.149789
H341	H	-0.277501	0.317143	0.483122
H342	H	0.055832	0.650476	0.816455
H343	H	-0.744797	0.396972	0.000054
H344	H	-0.411463	0.730305	0.333387
H345	H	-0.078130	1.063638	0.666721
H346	H	-0.744493	-0.187306	0.734943
H347	H	-0.411160	0.146028	1.068276
H348	H	-0.077827	0.479361	1.401609
O349	O	-0.589113	0.482165	0.000048
O350	O	-0.255779	0.815499	0.333382
O351	O	0.077554	1.148832	0.666715
H352	H	-0.588937	0.444571	-0.041141
H353	H	-0.255603	0.777904	0.292193
H354	H	0.077730	1.111238	0.625526
O355	O	0.164502	-0.244345	0.000081
O356	O	0.497835	0.088988	0.333414
O357	O	0.831169	0.422322	0.666748
H358	H	0.210275	-0.231606	0.000090
H359	H	0.543608	0.101727	0.333424
H360	H	0.876941	0.435061	0.666757
H361	H	-0.610889	-0.016157	0.850362
H362	H	-0.277556	0.317176	1.183696
H363	H	0.055777	0.650510	1.517029
O364	O	-0.596291	0.407758	0.000052
O365	O	-0.262958	0.741092	0.333386
O366	O	0.070375	1.074425	0.666719
H367	H	-0.572590	0.387447	0.041236
H368	H	-0.239257	0.720780	0.374569
H369	H	0.094077	1.054113	0.707902
H370	H	-0.403253	0.023935	0.000057
H371	H	-0.069920	0.357268	0.333390
H372	H	0.263413	0.690602	0.666723
H373	H	-0.574041	0.031002	0.442401
H374	H	-0.240708	0.364335	0.775735
H375	H	0.092625	0.697669	1.109068
O376	O	-0.802836	0.522560	0.000080
O377	O	-0.469503	0.855894	0.333413
O378	O	-0.136170	1.189227	0.666747
H379	H	-0.807583	0.485884	-0.041102
H380	H	-0.474250	0.819217	0.292231
H381	H	-0.140917	1.152551	0.625564
H382	H	-0.610884	-0.016146	0.734981
H383	H	-0.277551	0.317187	1.068314
H384	H	0.055783	0.650520	1.401647
H385	H	-0.779502	0.678658	0.000074
H386	H	-0.446169	1.011991	0.333407
H387	H	-0.112835	1.345325	0.666741
O388	O	-0.754246	-0.199741	0.858750
O389	O	-0.420912	0.133592	1.192083
O390	O	-0.087579	0.466925	1.525417
H391	H	-0.728995	-0.241929	0.887748
H392	H	-0.395661	0.091404	1.221081
H393	H	-0.062328	0.424737	1.554415
O394	O	-0.754189	-0.199788	0.273569
O395	O	-0.420856	0.133545	0.606902
O396	O	-0.087523	0.466879	0.940236
H397	H	-0.779782	-0.232590	0.240758
H398	H	-0.446449	0.100744	0.574091
H399	H	-0.113115	0.434077	0.907424
O400	O	-0.382445	-0.253325	0.000050
O401	O	-0.049112	0.080008	0.333383
O402	O	0.284221	0.413341	0.666717
H403	H	-0.410795	-0.303367	0.000038
H404	H	-0.077462	0.029966	0.333371
H405	H	0.255871	0.363300	0.666705
O406	O	0.027094	0.049843	0.000083
O407	O	0.360427	0.383177	0.333416
O408	O	0.693760	0.716510	0.666749
H409	H	0.055442	0.099886	0.000079
H410	H	0.388775	0.433220	0.333412
H411	H	0.722109	0.766553	0.666746
H412	H	-0.610840	-0.016178	0.265188
H413	H	-0.277507	0.317155	0.598521
H414	H	0.055826	0.650488	0.931855
H415	H	-0.744441	-0.187338	0.149779
H416	H	-0.411108	0.145996	0.483112
H417	H	-0.077774	0.479329	0.816446
O418	O	-0.105648	-0.320085	0.000061
O419	O	0.227685	0.013248	0.333394
O420	O	0.561019	0.346582	0.666727
H421	H	-0.133999	-0.370125	0.000052
H422	H	0.199334	-0.036792	0.333385
H423	H	0.532667	0.296542	0.666718
