data_functionalizedCrystal
_audit_creation_method	'MofGen! by Chris Wilmer'
_symmetry_space_group_name_H-M	'P1'
_symmetry_Int_Tables_number	1
_symmetry_cell_setting	triclinic
loop_
_symmetry_equiv_pos_as_xyz
  x,y,z
_cell_length_a	10.654550
_cell_length_b	10.489741
_cell_length_c	9.130313
_cell_angle_alpha	89.995761
_cell_angle_beta	89.999724
_cell_angle_gamma	84.512052
loop_
_atom_site_label
_atom_site_type_symbol
_atom_site_fract_x
_atom_site_fract_y
_atom_site_fract_z
O1	O	1.667923	0.179162	-0.121689
O2	O	1.302453	0.196231	-0.121716
O3	O	1.493504	0.002095	-0.121693
O4	O	1.476872	0.373299	-0.121712
O5	O	1.493491	0.002089	0.121906
O6	O	1.302440	0.196226	0.121883
O7	O	1.667910	0.179156	0.121910
Cu8	Cu	1.485174	0.187691	0.144139
Cu9	Cu	1.485189	0.187697	-0.143945
O10	O	1.476859	0.373293	0.121887
C11	C	1.255648	0.194975	0.000080
C12	C	1.116203	0.191225	0.000070
C13	C	1.492241	-0.045439	0.000105
C14	C	1.488483	-0.187067	0.000102
C15	C	1.036771	0.305530	0.000068
C16	C	0.905748	0.301999	0.000094
C17	C	0.933603	0.069849	0.000117
C18	C	1.064623	0.073381	0.000102
C19	C	1.366923	-0.255148	0.000083
C20	C	1.424340	-0.347301	0.120194
C21	C	1.424382	-0.347270	-0.119976
C22	C	1.545951	-0.277354	0.120313
C23	C	1.545976	-0.277314	-0.119965
C24	C	1.603481	-0.369439	0.000176
C25	C	1.714715	0.180413	0.000110
C26	C	1.854160	0.184162	0.000111
C27	C	1.478122	0.420827	0.000085
C28	C	1.481880	0.562454	0.000079
N29	N	1.485172	0.187685	0.346761
N30	N	1.485201	0.187693	-0.346568
C31	C	1.569798	0.101758	0.423423
C32	C	1.569810	0.101758	0.576760
C33	C	1.400565	0.273624	0.576760
C34	C	1.400548	0.273617	0.423426
H35	H	1.078762	0.401486	0.000054
C36	C	0.818378	0.427734	0.000082
H37	H	0.867867	0.498418	0.000050
H38	H	0.766694	0.431190	0.085035
H39	H	0.766683	0.431176	-0.084872
C40	C	0.876859	-0.059769	0.000133
H41	H	0.787452	-0.045504	0.000126
H42	H	0.904058	-0.106887	0.085080
H43	H	0.904050	-0.106876	-0.084827
H44	H	1.129300	-0.019705	0.000107
H45	H	1.331669	0.343589	0.639195
H46	H	1.597335	-0.246549	0.221971
C47	C	1.231913	-0.187998	0.000232
H48	H	1.188923	-0.211797	0.085676
H49	H	1.188295	-0.212936	-0.084229
H50	H	1.235235	-0.097821	-0.000627
C51	C	1.354854	-0.389174	0.257358
H52	H	1.270810	-0.349671	0.257209
H53	H	1.397228	-0.364078	0.342652
H54	H	1.353632	-0.479610	0.256812
C55	C	1.307458	0.368144	0.339092
H56	H	1.257074	0.419335	0.406708
H57	H	1.254764	0.321758	0.279291
H58	H	1.353115	0.421672	0.279262
C59	C	1.615404	-0.235390	-0.257136
H60	H	1.572100	-0.259067	-0.342400
H61	H	1.698965	-0.276104	-0.257995
H62	H	1.617951	-0.145119	-0.255655
H63	H	1.372937	-0.378207	-0.221530
C64	C	1.662868	0.007226	0.339097
H65	H	1.713261	-0.043956	0.406721
H66	H	1.715554	0.053599	0.279263
H67	H	1.617198	-0.046308	0.279302
C68	C	1.662904	0.007243	0.661082
H69	H	1.713303	-0.043925	0.593458
H70	H	1.617264	-0.046287	0.720913
H71	H	1.715602	0.053639	0.720881
H72	H	1.703517	-0.418912	0.000250
