data_functionalizedCrystal
_audit_creation_method	'MofGen! by Chris Wilmer'
_symmetry_space_group_name_H-M	'P1'
_symmetry_Int_Tables_number	1
_symmetry_cell_setting	triclinic
loop_
_symmetry_equiv_pos_as_xyz
  x,y,z
_cell_length_a	16.992694
_cell_length_b	16.992695
_cell_length_c	16.053802
_cell_angle_alpha	92.741074
_cell_angle_beta	87.249047
_cell_angle_gamma	90.668223
loop_
_atom_site_label
_atom_site_type_symbol
_atom_site_fract_x
_atom_site_fract_y
_atom_site_fract_z
O1	O	1.053959	0.163815	-0.069325
O2	O	1.553959	0.663815	0.430675
O3	O	0.825560	0.161983	-0.069350
O4	O	1.325560	0.661983	0.430650
O5	O	0.938844	0.048699	-0.069331
O6	O	1.438844	0.548699	0.430669
O7	O	0.940676	0.277099	-0.069344
O8	O	1.440676	0.777099	0.430656
O9	O	0.932607	0.054907	0.069527
O10	O	1.432607	0.554907	0.569527
O11	O	0.819323	0.168191	0.069508
O12	O	1.319323	0.668191	0.569508
O13	O	1.047722	0.170023	0.069533
O14	O	1.547722	0.670023	0.569533
Zn15	Zn	0.932532	0.170093	0.091567
Zn16	Zn	1.432532	0.670093	0.591567
Zn17	Zn	0.940750	0.161913	-0.091384
Zn18	Zn	1.440750	0.661913	0.408616
O19	O	0.934438	0.283307	0.069514
O20	O	1.434438	0.783307	0.569514
C21	C	0.793082	0.162731	0.000076
C22	C	1.293082	0.662731	0.500076
C23	C	0.705597	0.155702	0.000067
C24	C	1.205597	0.655702	0.500067
C25	C	0.659607	0.223520	0.000064
C26	C	1.159607	0.723520	0.500064
C27	C	0.577405	0.216911	0.000076
C28	C	1.077405	0.716911	0.500076
C29	C	0.541197	0.142484	0.000085
C30	C	1.041197	0.642484	0.500085
C31	C	0.587193	0.074661	0.000091
C32	C	1.087193	0.574661	0.500091
C33	C	0.669393	0.081270	0.000085
C34	C	1.169393	0.581270	0.500085
C35	C	0.295881	0.115090	0.000109
C36	C	0.795881	0.615090	0.500109
C37	C	0.213676	0.108486	0.000112
C38	C	0.713676	0.608486	0.500112
C39	C	0.203893	0.250737	0.000099
C40	C	0.703893	0.750737	0.500099
C41	C	0.286095	0.257339	0.000088
C42	C	0.786095	0.757339	0.500088
C43	C	0.332084	0.189517	0.000098
C44	C	0.832084	0.689517	0.500098
N45	N	0.457174	0.135727	0.000094
N46	N	0.957174	0.635727	0.500094
N47	N	0.416105	0.196275	0.000094
N48	N	0.916105	0.696275	0.500094
C49	C	0.933370	0.022443	0.000098
C50	C	1.433370	0.522443	0.500098
C51	C	0.926341	-0.065042	0.000097
C52	C	1.426341	0.434958	0.500097
C53	C	0.994158	-0.111032	0.000105
C54	C	1.494158	0.388968	0.500105
C55	C	0.987550	-0.193233	0.000096
C56	C	1.487550	0.306767	0.500096
C57	C	0.913123	-0.229442	0.000086
C58	C	1.413123	0.270558	0.500086
C59	C	0.845300	-0.183446	0.000075
C60	C	1.345300	0.316554	0.500075
C61	C	0.851910	-0.101246	0.000078
C62	C	1.351910	0.398754	0.500078
C63	C	0.885729	-0.474757	0.000071
C64	C	1.385729	0.025243	0.500071
C65	C	0.879124	-0.556962	0.000071
C66	C	1.379124	-0.056962	0.500071
C67	C	1.021375	-0.566745	0.000091
C68	C	1.521375	-0.066745	0.500091
C69	C	1.027978	-0.484543	0.000099
C70	C	1.527978	0.015457	0.500099
C71	C	0.960155	-0.438554	0.000083
C72	C	1.460155	0.061446	0.500083
N73	N	0.906366	-0.313465	0.000079
N74	N	1.406366	0.186535	0.500079
N75	N	0.966913	-0.354533	0.000084
N76	N	1.466913	0.145467	0.500084
C77	C	1.080201	0.169275	0.000105
C78	C	1.580201	0.669275	0.500105
C79	C	1.167685	0.176304	0.000109
C80	C	1.667685	0.676304	0.500109
C81	C	0.939913	0.309563	0.000084
C82	C	1.439913	0.809563	0.500084
C83	C	0.946942	0.397047	0.000079
C84	C	1.446942	0.897047	0.500079
N85	N	0.926930	0.175675	0.216427
N86	N	1.426930	0.675675	0.716427
N87	N	0.946358	0.156325	-0.216243
N88	N	1.446358	0.656325	0.283757
C89	C	0.975152	0.127492	0.260129
C90	C	1.475152	0.627492	0.760129
C91	C	0.971241	0.131404	0.347535
C92	C	1.471241	0.631404	0.847535
C93	C	0.919110	0.183504	0.391237
C94	C	1.419110	0.683504	0.891237
C95	C	0.870883	0.231689	0.347529
C96	C	1.370883	0.731689	0.847529
C97	C	0.874791	0.227772	0.260125
C98	C	1.374791	0.727772	0.760125
C99	C	0.902039	0.200593	0.652644
C100	C	1.402039	0.700593	1.152644
C101	C	0.898136	0.204508	0.740055
C102	C	1.398136	0.704508	1.240055
C103	C	0.998493	0.104222	0.740054
C104	C	1.498493	0.604222	1.240054
C105	C	1.002400	0.100313	0.652648
C106	C	1.502400	0.600313	1.152648
C107	C	0.954169	0.148494	0.608948
C108	C	1.454169	0.648494	1.108948
N109	N	0.915113	0.187507	0.480580
N110	N	1.415113	0.687507	0.980580
N111	N	0.958163	0.144487	0.519606
N112	N	1.458163	0.644487	1.019606
H113	H	0.333316	0.059864	0.000118
H114	H	0.833316	0.559864	0.500118
C115	C	1.059738	0.042998	0.604581
C116	C	1.559738	0.542998	1.104581
H117	H	1.087893	0.014856	0.643128
H118	H	1.587893	0.514856	1.143128
H119	H	1.095803	0.071858	0.570473
H120	H	1.595803	0.571858	1.070473
H121	H	1.030886	0.006908	0.570497
H122	H	1.530886	0.506908	1.070497
C123	C	0.821750	0.280773	0.212049
C124	C	1.321750	0.780773	0.712049
H125	H	0.831537	0.270974	0.153735
H126	H	1.331537	0.770974	0.653735
H127	H	0.832945	0.334494	0.226360
H128	H	1.332945	0.834494	0.726360
H129	H	0.768035	0.269537	0.226383
H130	H	1.268035	0.769537	0.726383
H131	H	0.184198	0.047875	0.000119
H132	H	0.684198	0.547875	0.500119
C133	C	0.763432	-0.223273	0.000065
C134	C	1.263432	0.276727	0.500065
H135	H	0.769207	-0.278815	0.000074
H136	H	1.269207	0.221185	0.500074
H137	H	0.737464	-0.209955	-0.048359
H138	H	1.237464	0.290045	0.451641
H139	H	0.733120	-0.205627	0.048492
H140	H	1.233120	0.294373	0.548492
C141	C	0.699429	0.305390	0.000053
C142	C	1.199429	0.805390	0.500053
H143	H	0.660262	0.344833	0.000061
H144	H	1.160262	0.844833	0.500061
H145	H	0.733460	0.308762	-0.048372
H146	H	1.233460	0.808762	0.451628
H147	H	0.729123	0.313090	0.048480
H148	H	1.229123	0.813090	0.548480
C149	C	0.547366	-0.007207	0.000099
C150	C	1.047366	0.492793	0.500099
H151	H	0.491824	-0.001432	0.000093
H152	H	0.991824	0.498568	0.500093
H153	H	0.560679	-0.033184	0.048522
H154	H	1.060679	0.466816	0.548522
H155	H	0.565018	-0.037510	-0.048330
H156	H	1.065018	0.462490	0.451670
C157	C	0.840746	0.261776	0.788126
C158	C	1.340746	0.761776	1.288126
H159	H	0.812564	0.289893	0.749582
H160	H	1.312564	0.789893	1.249582
H161	H	0.869550	0.297880	0.822235
H162	H	1.369550	0.797880	1.322235
H163	H	0.804698	0.232866	0.822211
H164	H	1.304698	0.732866	1.322211
H165	H	1.010506	0.092170	0.383116
H166	H	1.510506	0.592170	0.883116
H167	H	0.539963	0.272136	0.000072
H168	H	1.039963	0.772136	0.500072
H169	H	0.796685	-0.063801	0.000071
H170	H	1.296685	0.436199	0.500071
C171	C	0.719983	0.006671	0.000080
C172	C	1.219983	0.506671	0.500080
H173	H	0.686648	-0.038603	0.000077
H174	H	1.186648	0.461397	0.500077
H175	H	0.750087	0.008455	0.048499
H176	H	1.250087	0.508455	0.548499
H177	H	0.754418	0.004130	-0.048353
H178	H	1.254418	0.504130	0.451647
C179	C	1.051536	0.051218	0.788122
C180	C	1.551536	0.551218	1.288122
H181	H	1.083144	0.019631	0.749576
H182	H	1.583144	0.519631	1.249576
H183	H	1.019641	0.018187	0.822228
H184	H	1.519641	0.518187	1.322228
H185	H	1.084558	0.083137	0.822209
H186	H	1.584558	0.583137	1.322209
C187	C	0.848994	0.253598	0.604584
C188	C	1.348994	0.753598	1.104584
H189	H	0.817397	0.285193	0.643133
H190	H	1.317397	0.785193	1.143133
H191	H	0.815975	0.221684	0.570497
H192	H	1.315975	0.721684	1.070497
H193	H	0.880892	0.286633	0.570479
H194	H	1.380892	0.786633	1.070479
H195	H	1.054765	-0.081557	0.000119
H196	H	1.554765	0.418443	0.500119
H197	H	1.017605	0.085070	0.224552
H198	H	1.517605	0.585070	0.724552
H199	H	0.828433	0.274107	0.383117
H200	H	1.328433	0.774107	0.883117
H201	H	1.042774	-0.230676	0.000105
H202	H	1.542774	0.269324	0.500105
H203	H	0.315571	0.317945	0.000071
H204	H	0.815571	0.817945	0.500071
C205	C	1.109845	-0.444715	0.000116
C206	C	1.609845	0.055285	0.500116
H207	H	1.104068	-0.389173	0.000127
H208	H	1.604068	0.110827	0.500127
H209	H	1.140169	-0.462354	-0.048300
H210	H	1.640169	0.037646	0.451700
H211	H	1.135801	-0.458038	0.048552
H212	H	1.635801	0.041962	0.548552
C213	C	0.153304	0.325335	0.000098
C214	C	0.653304	0.825335	0.500098
H215	H	0.099162	0.310743	0.000111
H216	H	0.599162	0.810743	0.500111
H217	H	0.166931	0.353479	-0.048325
H218	H	0.666931	0.853479	0.451675
H219	H	0.162599	0.357802	0.048527
H220	H	0.662599	0.857802	0.548527
C221	C	1.095975	-0.617330	0.000099
C222	C	1.595975	-0.117330	0.500099
H223	H	1.141246	-0.583992	0.000110
H224	H	1.641246	-0.083992	0.500110
H225	H	1.098529	-0.651761	-0.048325
H226	H	1.598529	-0.151761	0.451675
H227	H	1.094180	-0.647437	0.048527
H228	H	1.594180	-0.147437	0.548527
H229	H	0.818513	-0.586440	0.000076
H230	H	1.318513	-0.086440	0.500076
H231	H	0.830503	-0.437322	0.000059
H232	H	1.330503	0.062678	0.500059
