data_functionalizedCrystal
_audit_creation_method	'MofGen! by Chris Wilmer'
_symmetry_space_group_name_H-M	'P1'
_symmetry_Int_Tables_number	1
_symmetry_cell_setting	triclinic
loop_
_symmetry_equiv_pos_as_xyz
  x,y,z
_cell_length_a	12.759395
_cell_length_b	16.120531
_cell_length_c	16.120297
_cell_angle_alpha	84.389419
_cell_angle_beta	92.880569
_cell_angle_gamma	87.066275
loop_
_atom_site_label
_atom_site_type_symbol
_atom_site_fract_x
_atom_site_fract_y
_atom_site_fract_z
Zn1	Zn	1.552037	0.356711	-0.489381
Zn2	Zn	1.551885	0.489401	-0.356683
Zn3	Zn	1.385727	0.349651	-0.349633
Zn4	Zn	1.366895	0.496446	-0.496411
O5	O	1.464136	0.423052	-0.423027
O6	O	1.699037	0.374319	-0.471787
O7	O	1.537662	0.464959	-0.238786
O8	O	1.415734	0.233623	-0.362278
O9	O	1.698926	0.471805	-0.374294
O10	O	1.537920	0.238810	-0.464950
O11	O	1.415586	0.362286	-0.233606
O12	O	1.236209	0.369118	-0.369095
O13	O	1.383637	0.483813	-0.612441
O14	O	1.222373	0.476967	-0.476933
O15	O	1.519660	0.381151	-0.607275
O16	O	1.519401	0.607300	-0.381111
O17	O	1.383490	0.612476	-0.483769
C18	C	1.191170	0.423041	-0.423012
C19	C	1.074392	0.423058	-0.423027
C20	C	1.449413	0.640217	-0.433986
C21	C	1.443208	0.733122	-0.438703
C22	C	1.060023	0.535526	-0.535154
C23	C	0.997977	0.591766	-0.591220
C24	C	0.888254	0.591777	-0.591231
C25	C	0.840575	0.535539	-0.535171
C26	C	0.902621	0.479299	-0.479105
C27	C	1.012346	0.479296	-0.479098
C28	C	0.916990	0.366828	-0.366983
C29	C	1.026713	0.366820	-0.366967
C30	C	0.869311	0.310591	-0.310923
C31	C	0.931357	0.254353	-0.254851
C32	C	1.041086	0.254345	-0.254842
C33	C	1.088759	0.310580	-0.310900
C34	C	1.431885	0.903222	-0.447331
C35	C	1.496430	0.942039	-0.398676
C36	C	1.490130	1.036689	-0.403477
C37	C	1.438184	0.808564	-0.442531
C38	C	1.738168	0.423064	-0.423043
C39	C	1.854944	0.423069	-0.423049
C40	C	1.449564	0.434055	-0.641033
C41	C	1.443355	0.438744	-0.733934
C42	C	1.478908	1.205040	-0.412028
C43	C	1.485110	1.112134	-0.407301
C44	C	1.431980	0.447286	-0.904024
C45	C	1.496516	0.398568	-0.942870
C46	C	1.490187	0.403321	-1.037513
C47	C	1.438308	0.442534	-0.809371
C48	C	1.478716	0.412032	-0.205866
C49	C	1.485145	0.407107	-0.112954
H50	H	1.036810	0.637552	-0.636864
H51	H	0.837736	0.637569	-0.636889
H52	H	1.149364	0.535528	-0.535145
H53	H	0.751232	0.535546	-0.535191
O54	O	0.762731	0.310471	-0.311000
C55	C	0.730053	0.231488	-0.328546
H56	H	0.793184	0.198829	-0.363301
H57	H	0.716983	0.192196	-0.267605
C58	C	0.549192	0.282515	-0.340398
C59	C	0.626728	0.242406	-0.383091
H60	H	0.485454	0.289249	-0.374040
H61	H	0.571206	0.335727	-0.328573
H62	H	0.538314	0.249767	-0.289615
H63	H	0.637614	0.275160	-0.433867
H64	H	0.604712	0.189200	-0.394925
O65	O	0.884994	0.199844	-0.200317
C66	C	0.821880	0.244619	-0.148674
H67	H	0.850835	0.310174	-0.146717
H68	H	0.736807	0.248848	-0.174673
C69	C	0.793184	0.118748	-0.062192
C70	C	0.828752	0.199261	-0.059782
H71	H	0.797418	0.090767	-0.007360
H72	H	0.835702	0.088581	-0.096986
H73	H	0.722292	0.122283	-0.083861
H74	H	0.899647	0.195724	-0.038123
H75	H	0.786247	0.229426	-0.024982
H76	H	1.371900	0.941071	-0.492587
H77	H	1.091598	0.208541	-0.209192
H78	H	1.556519	0.353288	-0.905047
O79	O	1.567900	0.896762	-0.344693
C80	C	1.558367	0.810970	-0.351861
H81	H	1.476205	0.800579	-0.378602
H82	H	1.619290	0.788371	-0.395171
C83	C	1.677556	0.774581	-0.232222
C84	C	1.576640	0.761818	-0.265059
H85	H	1.688833	0.744260	-0.178679
H86	H	1.683982	0.832381	-0.227394
H87	H	1.728314	0.755749	-0.268321
H88	H	1.525884	0.780659	-0.228965
H89	H	1.570206	0.704020	-0.269879
H90	H	1.371982	0.492562	-0.941844
H91	H	1.178100	0.310581	-0.310896
