data_functionalizedCrystal
_audit_creation_method	'MofGen! by Chris Wilmer'
_symmetry_space_group_name_H-M	'P1'
_symmetry_Int_Tables_number	1
_symmetry_cell_setting	triclinic
loop_
_symmetry_equiv_pos_as_xyz
  x,y,z
_cell_length_a	16.109301
_cell_length_b	19.188924
_cell_length_c	14.586319
_cell_angle_alpha	89.994146
_cell_angle_beta	89.998857
_cell_angle_gamma	83.301774
loop_
_atom_site_label
_atom_site_type_symbol
_atom_site_fract_x
_atom_site_fract_y
_atom_site_fract_z
O1	O	1.102831	0.089745	-0.076194
O2	O	1.436164	0.423078	0.257139
O3	O	1.769497	0.756412	0.590472
O4	O	0.860731	0.100913	-0.076208
O5	O	1.194065	0.434247	0.257126
O6	O	1.527398	0.767580	0.590459
O7	O	0.988770	-0.006310	-0.076190
O8	O	1.322104	0.327023	0.257144
O9	O	1.655437	0.660356	0.590477
O10	O	0.974792	0.196969	-0.076212
O11	O	1.308125	0.530302	0.257121
O12	O	1.641458	0.863636	0.590455
O13	O	0.988762	-0.006312	0.076291
O14	O	1.322095	0.327021	0.409624
O15	O	1.655428	0.660355	0.742958
O16	O	0.860722	0.100912	0.076273
O17	O	1.194056	0.434245	0.409606
O18	O	1.527389	0.767579	0.742940
O19	O	1.102822	0.089743	0.076287
O20	O	1.436155	0.423077	0.409620
O21	O	1.769488	0.756410	0.742953
Cu22	Cu	0.981771	0.095328	0.090203
Cu23	Cu	1.315105	0.428661	0.423536
Cu24	Cu	1.648438	0.761994	0.756869
Cu25	Cu	0.981782	0.095329	-0.090124
Cu26	Cu	1.315115	0.428663	0.243210
Cu27	Cu	1.648448	0.761996	0.576543
O28	O	0.974783	0.196967	0.076269
O29	O	1.308116	0.530301	0.409602
O30	O	1.641449	0.863634	0.742935
C31	C	0.829754	0.100460	0.000031
C32	C	1.163087	0.433794	0.333365
C33	C	1.496420	0.767127	0.666698
C34	C	0.737463	0.099104	0.000026
C35	C	1.070796	0.432437	0.333360
C36	C	1.404129	0.765770	0.666693
C37	C	0.428267	0.158294	0.000036
C38	C	0.761600	0.491628	0.333369
C39	C	1.094933	0.824961	0.666703
C40	C	0.514983	0.159575	0.000030
C41	C	0.848316	0.492909	0.333364
C42	C	1.181649	0.826242	0.666697
C43	C	0.535281	0.032358	0.000032
C44	C	0.868615	0.365691	0.333366
C45	C	1.201948	0.699024	0.666699
C46	C	0.448567	0.031077	0.000031
C47	C	0.781900	0.364411	0.333364
C48	C	1.115233	0.697744	0.666698
C49	C	0.395061	0.094048	0.000038
C50	C	0.728395	0.427381	0.333371
C51	C	1.061728	0.760715	0.666704
C52	C	0.568492	0.096609	0.000033
C53	C	0.901825	0.429942	0.333367
C54	C	1.235158	0.763276	0.666700
C55	C	0.662513	0.097997	0.000027
C56	C	0.995846	0.431331	0.333361
C57	C	1.329180	0.764664	0.666694
C58	C	0.301034	0.092660	0.000042
C59	C	0.634367	0.425993	0.333375
C60	C	0.967701	0.759326	0.666708
C61	C	0.988314	-0.032323	0.000051
C62	C	1.321648	0.301010	0.333385
C63	C	1.654981	0.634343	0.666718
C64	C	0.986958	-0.109831	0.000054
C65	C	1.320292	0.223502	0.333387
C66	C	1.653625	0.556835	0.666721
C67	C	0.986330	-0.146231	-0.083064
C68	C	1.319664	0.187103	0.250270
C69	C	1.652997	0.520436	0.583603
C70	C	0.985044	-0.219057	-0.083071
C71	C	1.318378	0.114277	0.250263
C72	C	1.651711	0.447610	0.583596
C73	C	0.984403	-0.255482	0.000045
C74	C	1.317736	0.077852	0.333378
C75	C	1.651070	0.411185	0.666711
C76	C	0.985027	-0.219073	0.083173
C77	C	1.318360	0.114260	0.416506
C78	C	1.651693	0.447594	0.749840
C79	C	0.986304	-0.146248	0.083178
C80	C	1.319637	0.187086	0.416511
C81	C	1.652971	0.520419	0.749844
N82	N	1.029706	-0.375040	0.061908
N83	N	1.363039	-0.041706	0.395241
N84	N	1.696373	0.291627	0.728574
N85	N	1.028494	-0.444221	0.061898
N86	N	1.361828	-0.110888	0.395231
N87	N	1.695161	0.222446	0.728564
C88	C	0.980552	-0.474900	0.000035
C89	C	1.313885	-0.141567	0.333369
C90	C	1.647219	0.191767	0.666702
N91	N	0.933878	-0.433786	-0.061830
N92	N	1.267211	-0.100452	0.271503
N93	N	1.600545	0.232881	0.604836
N94	N	0.935094	-0.364598	-0.061823
N95	N	1.268427	-0.031265	0.271511
N96	N	1.601760	0.302068	0.604844
C97	C	0.983017	-0.334448	0.000049
C98	C	1.316351	-0.001115	0.333382
C99	C	1.649684	0.332218	0.666715
C100	C	0.978528	-0.590265	-0.083095
C101	C	1.311862	-0.256932	0.250238
C102	C	1.645195	0.076401	0.583571
C103	C	0.977237	-0.663092	-0.083099
C104	C	1.310571	-0.329758	0.250234
C105	C	1.643904	0.003575	0.583568
C106	C	0.977228	-0.663108	0.083147
C107	C	1.310561	-0.329774	0.416480
C108	C	1.643895	0.003559	0.749814
C109	C	0.978511	-0.590282	0.083148
C110	C	1.311844	-0.256948	0.416482
C111	C	1.645177	0.076385	0.749815
C112	C	0.979165	-0.553865	0.000024
C113	C	1.312498	-0.220532	0.333358
C114	C	1.645832	0.112801	0.666691
C115	C	1.133800	0.090197	0.000046
C116	C	1.467133	0.423530	0.333379
C117	C	1.800466	0.756863	0.666712
C118	C	1.226090	0.091553	0.000044
C119	C	1.559424	0.424886	0.333378
C120	C	1.892757	0.758220	0.666711
C121	C	0.975239	0.222980	0.000025
C122	C	1.308572	0.556314	0.333359
C123	C	1.641906	0.889647	0.666692
C124	C	0.976595	0.300488	0.000017
C125	C	1.309928	0.633822	0.333350
C126	C	1.643262	0.967155	0.666684
N127	N	0.981770	0.095326	0.217034
N128	N	1.315103	0.428659	0.550368
N129	N	1.648437	0.761992	0.883701
N130	N	0.981790	0.095326	-0.216955
N131	N	1.315123	0.428659	0.116378
N132	N	1.648456	0.761992	0.449711
C133	C	1.038484	0.047863	0.452049
C134	C	1.371818	0.381196	0.785382
C135	C	1.705151	0.714530	1.118715
C136	C	1.038487	0.047861	0.548030
C137	C	1.371820	0.381195	0.881363
C138	C	1.705153	0.714528	1.214697
C139	C	0.925069	0.142791	0.548024
C140	C	1.258403	0.476124	0.881357
C141	C	1.591736	0.809457	1.214690
C142	C	0.925064	0.142788	0.452044
C143	C	1.258397	0.476122	0.785377
C144	C	1.591730	0.809455	1.118711
C145	C	0.981776	0.095325	0.404059
C146	C	1.315109	0.428659	0.737392
C147	C	1.648442	0.761992	1.070726
C148	C	0.981784	0.095326	0.596020
C149	C	1.315117	0.428659	0.929353
C150	C	1.648451	0.761993	1.262687
C151	C	0.981786	0.095324	0.700087
C152	C	1.315119	0.428658	1.033420
C153	C	1.648453	0.761991	1.366754
C154	C	0.981773	0.095326	0.299985
C155	C	1.315106	0.428659	0.633319
C156	C	1.648439	0.761992	0.966652
H157	H	0.421532	-0.021243	0.000030
H158	H	0.754865	0.312091	0.333363
H159	H	1.088198	0.645424	0.666696
H160	H	1.084663	0.009212	0.587100
H161	H	1.417996	0.342546	0.920434
H162	H	1.751330	0.675879	1.253767
H163	H	0.878881	0.181438	0.412968
H164	H	1.212214	0.514772	0.746302
H165	H	1.545547	0.848105	1.079635
H166	H	0.976700	-0.692764	0.150821
H167	H	1.310033	-0.359430	0.484155
H168	H	1.643366	-0.026097	0.817488
Br169	Br	0.355655	0.243753	0.000043
Br170	Br	0.688988	0.577087	0.333376
Br171	Br	1.022321	0.910420	0.666710
H172	H	0.986860	-0.116585	-0.150750
H173	H	1.320194	0.216749	0.182584
H174	H	1.653527	0.550082	0.515917
Br175	Br	1.115449	-0.016552	0.386930
Br176	Br	1.448782	0.316781	0.720263
Br177	Br	1.782116	0.650114	1.053596
H178	H	0.578855	-0.018910	0.000029
H179	H	0.912189	0.314423	0.333362
H180	H	1.245522	0.647756	0.666696
H181	H	0.976722	-0.692727	-0.150786
H182	H	1.310055	-0.359393	0.182547
H183	H	1.643388	-0.026060	0.515881
H184	H	0.542014	0.211891	0.000028
H185	H	0.875347	0.545224	0.333362
H186	H	1.208680	0.878558	0.666695
Br187	Br	0.984189	-0.268467	-0.195881
Br188	Br	1.317522	0.064867	0.137452
Br189	Br	1.650855	0.398200	0.470786
Br190	Br	0.979359	-0.540878	0.195957
Br191	Br	1.312693	-0.207545	0.529291
Br192	Br	1.646026	0.125788	0.862624
H193	H	0.878897	0.181435	0.587102
H194	H	1.212230	0.514768	0.920436
H195	H	1.545563	0.848102	1.253769
Br196	Br	0.984146	-0.268504	0.195973
Br197	Br	1.317479	0.064829	0.529307
Br198	Br	1.650813	0.398163	0.862640
H199	H	0.986812	-0.116611	0.150864
H200	H	1.320145	0.216722	0.484197
H201	H	1.653479	0.550055	0.817531
Br202	Br	0.979412	-0.540838	-0.195903
Br203	Br	1.312745	-0.207505	0.137430
Br204	Br	1.646078	0.125828	0.470764
