data_functionalizedCrystal
_audit_creation_method	'MofGen! by Chris Wilmer'
_symmetry_space_group_name_H-M	'P1'
_symmetry_Int_Tables_number	1
_symmetry_cell_setting	triclinic
loop_
_symmetry_equiv_pos_as_xyz
  x,y,z
_cell_length_a	13.033293
_cell_length_b	16.120531
_cell_length_c	16.120256
_cell_angle_alpha	84.387676
_cell_angle_beta	85.311795
_cell_angle_gamma	79.562967
loop_
_atom_site_label
_atom_site_type_symbol
_atom_site_fract_x
_atom_site_fract_y
_atom_site_fract_z
Zn1	Zn	1.543876	0.208073	-0.638603
Zn2	Zn	1.877209	0.541406	-0.305270
Zn3	Zn	2.210543	0.874739	0.028063
Zn4	Zn	1.543726	0.340772	-0.505890
Zn5	Zn	1.877059	0.674106	-0.172557
Zn6	Zn	2.210392	1.007439	0.160776
Zn7	Zn	1.378441	0.216937	-0.482865
Zn8	Zn	1.711775	0.550271	-0.149531
Zn9	Zn	2.045108	0.883604	0.183802
Zn10	Zn	1.359708	0.365540	-0.627834
Zn11	Zn	1.693041	0.698874	-0.294500
Zn12	Zn	2.026374	1.032207	0.038833
O13	O	1.456438	0.282831	-0.563798
O14	O	1.789771	0.616164	-0.230465
O15	O	2.123104	0.949497	0.102869
O16	O	1.690103	0.211600	-0.635142
O17	O	2.023437	0.544933	-0.301809
O18	O	2.356770	0.878267	0.031525
O19	O	1.529577	0.317690	-0.386625
O20	O	1.862911	0.651023	-0.053292
O21	O	2.196244	0.984356	0.280041
O22	O	1.408289	0.098035	-0.498395
O23	O	1.741623	0.431368	-0.165061
O24	O	2.074956	0.764702	0.168272
O25	O	1.689993	0.309094	-0.537639
O26	O	2.023326	0.642427	-0.204305
O27	O	2.356659	0.975761	0.129028
O28	O	1.529834	0.091522	-0.612815
O29	O	1.863167	0.424856	-0.279482
O30	O	2.196500	0.758189	0.053852
O31	O	1.408144	0.226709	-0.369708
O32	O	1.741477	0.560042	-0.036375
O33	O	2.074810	0.893375	0.296958
O34	O	1.229709	0.250725	-0.487952
O35	O	1.563042	0.584058	-0.154618
O36	O	1.896376	0.917392	0.178715
O37	O	1.376361	0.351308	-0.745473
O38	O	1.709694	0.684641	-0.412140
O39	O	2.043028	1.017974	-0.078806
O40	O	1.215945	0.359903	-0.594460
O41	O	1.549279	0.693236	-0.261126
O42	O	1.882612	1.026570	0.072207
O43	O	1.511669	0.235617	-0.753385
O44	O	1.845002	0.568950	-0.420052
O45	O	2.178335	0.902283	-0.086719
O46	O	1.511412	0.461784	-0.527196
O47	O	1.844746	0.795117	-0.193862
O48	O	2.178079	1.128451	0.139471
O49	O	1.376215	0.479981	-0.616787
O50	O	1.709548	0.813314	-0.283453
O51	O	2.042882	1.146648	0.049880
C52	C	1.184907	0.308964	-0.537539
C53	C	1.518240	0.642298	-0.204206
C54	C	1.851574	0.975631	0.129128
C55	C	1.068742	0.320166	-0.526326
C56	C	1.402075	0.653499	-0.192992
C57	C	1.735409	0.986833	0.140341
C58	C	1.016996	0.277006	-0.569651
C59	C	1.350330	0.610339	-0.236318
C60	C	1.683663	0.943672	0.097016
C61	C	0.896934	0.288582	-0.558063
C62	C	1.230267	0.621915	-0.224729
C63	C	1.563601	0.955249	0.108604
C64	C	1.441792	0.501406	-0.573342
C65	C	1.775125	0.834739	-0.240009
C66	C	2.108458	1.168073	0.093325
C67	C	1.435620	0.594906	-0.577462
C68	C	1.768953	0.928239	-0.244128
C69	C	2.102286	1.261572	0.089205
C70	C	1.424356	0.766090	-0.585001
C71	C	1.757690	1.099424	-0.251668
C72	C	2.091023	1.432757	0.081665
C73	C	1.488561	0.798724	-0.542552
C74	C	1.821895	1.132057	-0.209218
C75	C	2.155228	1.465391	0.124115
C76	C	1.482294	0.893977	-0.546747
C77	C	1.815628	1.227310	-0.213413
C78	C	2.148961	1.560644	0.119920
C79	C	1.430622	0.670829	-0.580807
C80	C	1.763955	1.004162	-0.247474
C81	C	2.097289	1.337496	0.085860
C82	C	1.729029	0.256595	-0.590160
C83	C	2.062362	0.589929	-0.256827
C84	C	2.395695	0.923262	0.076507
C85	C	1.845191	0.245416	-0.601394
C86	C	2.178524	0.578749	-0.268061
C87	C	2.511857	0.912082	0.065273
C88	C	1.471132	1.063403	-0.554219
C89	C	1.804465	1.396736	-0.220886
C90	C	2.137799	1.730070	0.112448
C91	C	1.477301	0.969903	-0.550089
C92	C	1.810635	1.303236	-0.216755
C93	C	2.143968	1.636569	0.116578
C94	C	1.441942	0.295236	-0.780404
C95	C	1.775275	0.628569	-0.447070
C96	C	2.108608	0.961903	-0.113737
C97	C	1.435765	0.300523	-0.872708
C98	C	1.769098	0.633856	-0.539375
C99	C	2.102431	0.967189	-0.206042
C100	C	1.488651	0.255241	-1.086746
C101	C	1.821984	0.588574	-0.753413
C102	C	2.155317	0.921908	-0.420080
C103	C	1.424454	0.310143	-1.041700
C104	C	1.757787	0.643476	-0.708367
C105	C	2.091121	0.976809	-0.375033
C106	C	1.430749	0.304788	-0.947664
C107	C	1.764082	0.638122	-0.614331
C108	C	2.097416	0.971455	-0.280998
C109	C	1.482357	0.260594	-1.180791
C110	C	1.815690	0.593927	-0.847457
C111	C	2.149024	0.927261	-0.514124
C112	C	1.470941	0.270407	-0.348038
C113	C	1.804275	0.603740	-0.014705
C114	C	2.137608	0.937074	0.318629
C115	C	1.477337	0.264864	-0.255743
C116	C	1.810670	0.598197	0.077590
C117	C	2.144003	0.931531	0.410923
H118	H	0.852354	0.334104	-0.512386
H119	H	1.185687	0.667438	-0.179053
H120	H	1.519021	1.000771	0.154280
Cl121	Cl	1.085822	0.206719	-0.640165
Cl122	Cl	1.419155	0.540053	-0.306831
Cl123	Cl	1.752488	0.873386	0.026502
H124	H	1.548335	0.204221	-1.054691
H125	H	1.881668	0.537555	-0.721358
H126	H	2.215002	0.870888	-0.388024
H127	H	1.024158	0.365685	-0.480653
H128	H	1.357492	0.699019	-0.147319
H129	H	1.690825	1.032352	0.186014
Cl130	Cl	1.580691	0.731415	-0.481573
Cl131	Cl	1.914024	1.064748	-0.148240
Cl132	Cl	2.247358	1.398082	0.185094
Cl133	Cl	1.332300	0.388923	-1.091191
Cl134	Cl	1.665634	0.722256	-0.757857
Cl135	Cl	1.998967	1.055589	-0.424524
Cl136	Cl	0.914010	0.175121	-0.671907
Cl137	Cl	1.247343	0.508454	-0.338573
Cl138	Cl	1.580677	0.841787	-0.005240
Cl139	Cl	1.332226	0.833400	-0.645969
Cl140	Cl	1.665559	1.166733	-0.312636
Cl141	Cl	1.998893	1.500066	0.020697
