data_functionalizedCrystal
_audit_creation_method	'MofGen! by Chris Wilmer'
_symmetry_space_group_name_H-M	'P1'
_symmetry_Int_Tables_number	1
_symmetry_cell_setting	triclinic
loop_
_symmetry_equiv_pos_as_xyz
  x,y,z
_cell_length_a	13.897449
_cell_length_b	19.121063
_cell_length_c	13.897441
_cell_angle_alpha	92.405670
_cell_angle_beta	89.979267
_cell_angle_gamma	92.470221
loop_
_atom_site_label
_atom_site_type_symbol
_atom_site_fract_x
_atom_site_fract_y
_atom_site_fract_z
Zn1	Zn	1.458257	-0.279567	-0.561726
Zn2	Zn	1.451242	-0.397031	-0.407294
Zn3	Zn	1.296944	-0.279601	-0.400446
Zn4	Zn	1.290021	-0.396984	-0.568544
O5	O	1.374116	-0.338296	-0.484503
O6	O	1.592308	-0.295154	-0.541253
O7	O	1.430735	-0.381487	-0.271406
O8	O	1.324176	-0.181312	-0.416120
O9	O	1.587154	-0.381454	-0.427793
O10	O	1.442692	-0.181287	-0.534612
O11	O	1.317374	-0.295211	-0.266375
O12	O	1.161045	-0.295166	-0.422732
O13	O	1.312377	-0.381375	-0.702620
O14	O	1.155958	-0.381408	-0.546233
O15	O	1.435979	-0.295109	-0.697610
O16	O	1.424022	-0.495309	-0.434404
O17	O	1.305574	-0.495275	-0.552874
C18	C	1.123502	-0.338286	-0.484480
C19	C	1.016288	-0.338299	-0.484494
C20	C	0.819992	-0.338302	-0.484520
C21	C	0.929225	-0.338298	-0.484503
C22	C	1.363311	-0.520776	-0.495143
C23	C	1.358777	-0.598842	-0.499727
C24	C	1.418365	-0.635512	-0.440252
C25	C	1.414106	-0.708863	-0.444569
C26	C	1.350255	-0.745543	-0.508358
C27	C	1.290665	-0.708868	-0.567840
C28	C	1.294929	-0.635518	-0.563527
C29	C	1.334297	-0.967012	-0.524468
C30	C	1.330035	-1.040367	-0.528775
C31	C	1.453478	-1.040357	-0.405504
C32	C	1.457733	-0.967006	-0.401192
C33	C	1.398147	-0.930337	-0.460678
C34	C	1.345898	-0.820519	-0.512770
C35	C	1.402509	-0.855362	-0.456270
C36	C	1.625708	-0.338306	-0.484526
C37	C	1.732922	-0.338310	-0.484536
C38	C	1.374188	-0.338234	-0.736092
C39	C	1.374219	-0.338207	-0.843305
C40	C	1.384989	-0.155103	-0.473842
C41	C	1.389623	-0.077037	-0.469299
C42	C	1.374248	-0.338160	-1.039597
C43	C	1.374229	-0.338188	-0.930366
C44	C	1.374103	-0.338307	-0.233889
C45	C	1.374271	-0.338135	-0.126665
H46	H	1.470355	-0.605652	-0.388304
H47	H	1.462628	-0.738716	-0.396136
C48	C	1.519027	-1.080694	-0.340080
C49	C	1.474340	-1.131190	-0.267281
C50	C	1.539894	-1.171528	-0.201858
C51	C	1.650135	-1.161368	-0.209233
C52	C	1.694828	-1.110870	-0.282035
C53	C	1.629274	-1.070533	-0.347459
H54	H	1.392727	-1.138713	-0.261819
H55	H	1.506809	-1.208910	-0.147965
H56	H	1.698663	-1.191228	-0.160803
H57	H	1.776440	-1.103348	-0.287497
H58	H	1.662359	-1.033151	-0.401351
C59	C	1.268750	-0.926678	-0.589892
C60	C	1.313442	-0.876186	-0.662693
C61	C	1.247892	-0.835846	-0.728118
C62	C	1.137650	-0.845998	-0.720741
C63	C	1.092952	-0.896493	-0.647936
C64	C	1.158502	-0.936832	-0.582512
H65	H	1.395055	-0.868669	-0.668157
H66	H	1.280981	-0.798467	-0.782013
H67	H	1.089126	-0.816136	-0.769172
H68	H	1.011339	-0.904010	-0.642473
H69	H	1.125413	-0.974212	-0.528617
H70	H	1.454500	-0.825495	-0.404337
C71	C	1.527969	-0.926665	-0.331016
C72	C	1.489129	-0.876315	-0.252283
C73	C	1.559360	-0.835977	-0.182098
C74	C	1.668431	-0.845989	-0.190644
C75	C	1.707276	-0.896342	-0.269380
C76	C	1.637045	-0.936680	-0.339565
H77	H	1.408384	-0.868902	-0.245954
H78	H	1.530604	-0.798703	-0.123812
H79	H	1.720420	-0.816129	-0.138688
H80	H	1.788021	-0.903755	-0.275709
H81	H	1.665801	-0.973954	-0.397851
H82	H	1.238680	-0.738738	-0.619783
H83	H	1.278051	-1.070230	-0.580736
H84	H	1.246408	-0.605662	-0.611960
H85	H	1.293908	-0.850392	-0.564705
