data_functionalizedCrystal
_audit_creation_method	'MofGen! by Chris Wilmer'
_symmetry_space_group_name_H-M	'P1'
_symmetry_Int_Tables_number	1
_symmetry_cell_setting	triclinic
loop_
_symmetry_equiv_pos_as_xyz
  x,y,z
_cell_length_a	19.188925
_cell_length_b	19.188925
_cell_length_c	14.586319
_cell_angle_alpha	89.996566
_cell_angle_beta	89.995548
_cell_angle_gamma	83.142549
loop_
_atom_site_label
_atom_site_type_symbol
_atom_site_fract_x
_atom_site_fract_y
_atom_site_fract_z
O1	O	0.926145	0.087149	-0.076259
O2	O	0.722833	0.098887	-0.076257
O3	O	0.830358	-0.008638	-0.076253
O4	O	0.818619	0.194674	-0.076263
O5	O	0.830350	-0.008640	0.076228
O6	O	0.722825	0.098886	0.076224
O7	O	0.926137	0.087147	0.076221
Cu8	Cu	0.824480	0.093016	0.090145
Cu9	Cu	0.824489	0.093018	-0.090181
O10	O	0.818612	0.194672	0.076218
C11	C	0.696818	0.098507	-0.000016
C12	C	0.619313	0.097368	-0.000015
C13	C	0.057542	0.152832	-0.000020
C14	C	0.130365	0.153908	-0.000025
C15	C	0.175301	0.090816	-0.000020
C16	C	0.147408	0.026642	-0.000034
C17	C	0.074586	0.025568	-0.000038
N18	N	0.295976	0.045139	0.051888
N19	N	0.365153	0.046164	0.051894
C20	C	0.394710	0.094050	-0.000009
N21	N	0.352474	0.140882	-0.051907
N22	N	0.283290	0.139859	-0.051909
C23	C	0.254265	0.091974	-0.000016
C24	C	0.501557	0.159387	-0.000008
C25	C	0.574382	0.160461	-0.000018
C26	C	0.591424	0.033193	-0.000018
C27	C	0.518600	0.032121	-0.000016
C28	C	0.473671	0.095220	-0.000007
C29	C	0.829974	-0.034650	-0.000013
C30	C	0.828835	-0.112155	-0.000015
C31	C	0.884299	-0.673926	-0.000039
C32	C	0.885376	-0.601103	-0.000031
C33	C	0.822284	-0.556167	-0.000030
C34	C	0.758110	-0.584060	-0.000014
C35	C	0.757035	-0.656882	-0.000013
N36	N	0.776610	-0.435485	-0.051930
N37	N	0.777635	-0.366308	-0.051933
C38	C	0.825518	-0.336758	-0.000031
N39	N	0.872347	-0.379000	0.051863
N40	N	0.871324	-0.448184	0.051861
C41	C	0.823442	-0.477203	-0.000031
C42	C	0.890854	-0.229910	-0.000031
C43	C	0.891928	-0.157085	-0.000017
C44	C	0.764661	-0.140044	-0.000010
C45	C	0.763589	-0.212867	-0.000015
C46	C	0.826688	-0.257797	-0.000030
C47	C	0.952152	0.087528	-0.000021
C48	C	1.029657	0.088667	-0.000028
C49	C	0.818995	0.220684	-0.000024
C50	C	0.820134	0.298189	-0.000028
N51	N	0.824479	0.093014	0.216977
N52	N	0.824496	0.093014	-0.217013
C53	C	0.872107	0.045418	0.451985
C54	C	0.872109	0.045416	0.547967
C55	C	0.776863	0.140613	0.547973
C56	C	0.776858	0.140611	0.451993
C57	C	0.824484	0.093014	0.404002
C58	C	0.824491	0.093015	0.595963
C59	C	0.824493	0.093013	0.700030
C60	C	0.824482	0.093015	0.299928
H61	H	0.051883	-0.026685	-0.000045
O62	O	0.730692	0.186880	0.405277
C63	C	0.767948	0.229869	0.349763
H64	H	0.822665	0.201921	0.335379
H65	H	0.738771	0.240986	0.282273
H66	H	0.772534	0.281461	0.386744
O67	O	0.701319	-0.240075	0.000021
C68	C	0.713899	-0.313984	-0.000005
H69	H	0.768436	-0.331255	0.028864
H70	H	0.672849	-0.336222	0.044262
H71	H	0.710583	-0.334241	-0.073159
H72	H	0.153074	0.206161	-0.000009
H73	H	0.937628	-0.578394	-0.000039
H74	H	0.020964	0.204212	-0.000017
O75	O	0.952190	-0.273489	-0.000158
C76	C	0.991159	-0.260886	-0.079141
H77	H	0.973849	-0.205586	-0.105465
H78	H	1.049407	-0.266193	-0.061381
H79	H	0.981734	-0.300684	-0.134442
H80	H	0.183999	-0.024728	-0.000032
H81	H	0.944181	-0.134384	-0.000020
H82	H	0.704783	-0.679584	-0.000003
H83	H	0.713290	-0.103458	-0.000002
O84	O	0.601500	0.222780	-0.000186
C85	C	0.643123	0.227205	-0.079153
H86	H	0.626017	0.190768	-0.134342
H87	H	0.636405	0.283495	-0.105667
H88	H	0.700605	0.210932	-0.061306
O89	O	0.918391	-0.000887	0.405508
C90	C	0.960435	-0.042885	0.468446
H91	H	0.931815	-0.043598	0.536869
H92	H	0.971256	-0.098673	0.440721
H93	H	1.012231	-0.020346	0.478642
O94	O	0.458008	0.220742	-0.000052
C95	C	0.498240	0.277609	-0.000034
H96	H	0.552650	0.259720	-0.028900
H97	H	0.471242	0.321801	-0.044308
H98	H	0.503359	0.297290	0.073117
H99	H	0.628010	-0.018178	-0.000021
H100	H	0.495897	-0.020129	-0.000018
O101	O	0.918276	-0.000886	0.594618
C102	C	0.881024	-0.043857	0.650163
H103	H	0.825966	-0.044899	0.621248
H104	H	0.909683	-0.099425	0.651250
H105	H	0.877299	-0.021998	0.722903
O106	O	0.730578	0.186753	0.594697
C107	C	0.687614	0.149471	0.650213
H108	H	0.715590	0.094765	0.664591
H109	H	0.676485	0.178643	0.717705
H110	H	0.636026	0.144857	0.613237
O111	O	0.945639	-0.717496	-0.000166
C112	C	0.984604	-0.704893	-0.079152
H113	H	0.967287	-0.649597	-0.105483
H114	H	1.042852	-0.710192	-0.061394
H115	H	0.975183	-0.744698	-0.134447
O116	O	0.696841	-0.540384	-0.000179
C117	C	0.693664	-0.497738	-0.079141
H118	H	0.729449	-0.524519	-0.134339
H119	H	0.637397	-0.489374	-0.105645
H120	H	0.711574	-0.444837	-0.061292
