data_functionalizedCrystal
_audit_creation_method	'MofGen! by Chris Wilmer'
_symmetry_space_group_name_H-M	'P1'
_symmetry_Int_Tables_number	1
_symmetry_cell_setting	triclinic
loop_
_symmetry_equiv_pos_as_xyz
  x,y,z
_cell_length_a	19.077312
_cell_length_b	19.076808
_cell_length_c	18.215399
_cell_angle_alpha	87.671678
_cell_angle_beta	92.279628
_cell_angle_gamma	90.121844
loop_
_atom_site_label
_atom_site_type_symbol
_atom_site_fract_x
_atom_site_fract_y
_atom_site_fract_z
Zn1	Zn	1.062965	-0.322862	-0.357851
Zn2	Zn	1.562965	0.177138	0.142149
Zn3	Zn	1.058155	-0.440377	-0.230045
Zn4	Zn	1.558155	0.059623	0.269955
Zn5	Zn	0.945460	-0.318171	-0.239936
Zn6	Zn	1.445460	0.181829	0.260064
Zn7	Zn	0.940708	-0.435626	-0.358207
Zn8	Zn	1.440708	0.064374	0.141793
O9	O	1.001822	-0.379259	-0.296510
O10	O	1.501822	0.120741	0.203490
O11	O	1.160655	-0.342402	-0.336609
O12	O	1.660655	0.157598	0.163391
O13	O	1.043182	-0.424191	-0.128373
O14	O	1.543182	0.075809	0.371627
O15	O	0.965049	-0.220457	-0.259567
O16	O	1.465049	0.279543	0.240433
O17	O	1.157121	-0.428740	-0.242710
O18	O	1.657121	0.071260	0.257290
O19	O	1.051379	-0.223903	-0.346199
O20	O	1.551379	0.276097	0.153801
O21	O	0.960385	-0.334407	-0.135639
O22	O	1.460385	0.165593	0.364361
O23	O	0.846502	-0.329800	-0.259913
O24	O	1.346502	0.170200	0.240087
O25	O	0.956950	-0.420642	-0.461145
O26	O	1.456950	0.079358	0.038855
O27	O	0.843010	-0.416093	-0.346807
O28	O	1.343010	0.083907	0.153193
O29	O	1.046771	-0.337795	-0.460883
O30	O	1.546771	0.162205	0.039117
O31	O	1.038574	-0.538083	-0.243056
O32	O	1.538574	-0.038083	0.256944
O33	O	0.952286	-0.534592	-0.337216
O34	O	1.452286	-0.034592	0.162784
C35	C	0.819261	-0.371922	-0.304472
C36	C	1.319261	0.128078	0.195528
C37	C	0.741160	-0.368801	-0.307895
C38	C	1.241160	0.131199	0.192105
C39	C	0.301733	-0.346355	-0.332457
C40	C	0.801733	0.153645	0.167543
C41	C	0.375117	-0.349302	-0.329236
C42	C	0.875117	0.150698	0.170764
C43	C	0.409963	-0.395652	-0.278664
C44	C	0.909963	0.104348	0.221336
C45	C	0.371421	-0.439065	-0.231316
C46	C	0.871421	0.060935	0.268684
C47	C	0.298038	-0.436122	-0.234541
C48	C	0.798038	0.063878	0.265459
C49	C	0.629235	-0.409270	-0.263772
C50	C	1.129235	0.090730	0.236228
C51	C	0.702623	-0.412208	-0.260549
C52	C	1.202623	0.087792	0.239451
C53	C	0.706314	-0.322446	-0.358470
C54	C	1.206314	0.177554	0.141530
C55	C	0.632930	-0.319504	-0.361688
C56	C	1.132930	0.180496	0.138312
C57	C	0.594394	-0.362919	-0.314342
C58	C	1.094394	0.137081	0.185658
N59	N	0.484973	-0.398663	-0.275369
N60	N	0.984973	0.101337	0.224631
N61	N	0.519385	-0.359911	-0.317642
N62	N	1.019385	0.140089	0.182358
C63	C	0.994411	-0.561835	-0.289117
C64	C	1.494411	-0.061835	0.210883
C65	C	0.991305	-0.639945	-0.285976
C66	C	1.491305	-0.139945	0.214024
C67	C	1.034760	-0.678374	-0.329645
C68	C	1.534760	-0.178374	0.170355
C69	C	1.031838	-0.751766	-0.326695
C70	C	1.531838	-0.251766	0.173305
C71	C	0.985466	-0.786728	-0.280072
C72	C	1.485466	-0.286728	0.219928
C73	C	0.942006	-0.748294	-0.236402
C74	C	1.442006	-0.248294	0.263598
C75	C	0.944925	-0.674903	-0.239356
C76	C	1.444925	-0.174903	0.260644
C77	C	0.971918	-1.006038	-0.266400
C78	C	1.471918	-0.506038	0.233600
C79	C	0.969005	-1.079434	-0.263447
C80	C	1.469005	-0.579434	0.236553
C81	C	1.058836	-1.082901	-0.353742
C82	C	1.558836	-0.582901	0.146258
C83	C	1.061753	-1.009508	-0.356688
C84	C	1.561753	-0.509508	0.143312
C85	C	1.018292	-0.971081	-0.313021
C86	C	1.518292	-0.471081	0.186979
N87	N	0.982480	-0.861747	-0.277054
N88	N	1.482480	-0.361747	0.222946
N89	N	1.021274	-0.896063	-0.316043
N90	N	1.521274	-0.396063	0.183957
C91	C	1.185096	-0.386624	-0.288517
C92	C	1.685096	0.113376	0.211483
C93	C	1.263196	-0.389763	-0.285110
C94	C	1.763196	0.110237	0.214890
C95	C	1.001867	-0.379212	-0.488463
C96	C	1.501867	0.120788	0.011537
C97	C	1.001886	-0.379192	-0.570262
C98	C	1.501886	0.120808	-0.070262
C99	C	1.009281	-0.195970	-0.303947
C100	C	1.509281	0.304030	0.196053
C101	C	1.012459	-0.117863	-0.307116
C102	C	1.512459	0.382137	0.192884
C103	C	1.048674	-0.336012	-0.758322
C104	C	1.548674	0.163988	-0.258322
C105	C	1.048683	-0.335992	-0.835181
C106	C	1.548683	0.164008	-0.335181
C107	C	0.955152	-0.422265	-0.835442
C108	C	1.455152	0.077735	-0.335442
C109	C	0.955140	-0.422281	-0.758585
C110	C	1.455140	0.077719	-0.258585
C111	C	1.001905	-0.379156	-0.720026
C112	C	1.501905	0.120844	-0.220026
C113	C	1.001926	-0.379120	-0.873743
C114	C	1.501926	0.120880	-0.373743
C115	C	1.001936	-0.379098	-0.957077
C116	C	1.501936	0.120902	-0.457077
C117	C	1.001894	-0.379176	-0.636687
C118	C	1.501894	0.120824	-0.136687
C119	C	1.001820	-0.379256	-0.105304
C120	C	1.501820	0.120744	0.394696
C121	C	1.001945	-0.379084	-0.023507
C122	C	1.501945	0.120916	0.476493
H123	H	0.737697	-0.287101	-0.397017
H124	H	1.237697	0.212899	0.102983
H125	H	1.099514	-0.981044	-0.394652
H126	H	1.599514	-0.481044	0.105348
H127	H	1.086766	-0.300859	-0.866358
H128	H	1.586766	0.199141	-0.366358
O129	O	0.909797	-0.464139	-0.873011
O130	O	1.409797	0.035861	-0.373011
C131	C	0.868335	-0.502320	-0.991532
C132	C	1.368335	-0.002320	-0.491532
C133	C	0.919747	-0.454874	-0.949079
C134	C	1.419747	0.045126	-0.449079
H135	H	0.876352	-0.494835	-1.053041
H136	H	1.376352	0.005165	-0.553041
H137	H	0.878368	-0.559497	-0.973635
H138	H	1.378368	-0.059497	-0.473635
H139	H	0.812184	-0.487715	-0.979344
H140	H	1.312184	0.012285	-0.479344
H141	H	0.975918	-0.469417	-0.961246
H142	H	1.475918	0.030583	-0.461246
H143	H	0.909654	-0.397709	-0.966981
H144	H	1.409654	0.102291	-0.466981
H145	H	0.917050	-0.457413	-0.727404
H146	H	1.417050	0.042587	-0.227404
H147	H	0.730992	-0.449955	-0.219366
H148	H	1.230992	0.050045	0.280634
O149	O	0.412576	-0.307234	-0.375300
O150	O	0.912576	0.192766	0.124700
C151	C	0.495882	-0.301223	-0.471388
C152	C	0.995882	0.198777	0.028612
C153	C	0.453490	-0.348947	-0.419269
C154	C	0.953490	0.151053	0.080731
H155	H	0.528982	-0.334928	-0.506939
H156	H	1.028982	0.165072	-0.006939
H157	H	0.458399	-0.267601	-0.508134
H158	H	0.958399	0.232399	-0.008134
H159	H	0.531685	-0.265798	-0.437633
H160	H	1.031685	0.234202	0.062367
H161	H	0.417684	-0.384414	-0.452965
H162	H	0.917684	0.115586	0.047035
H163	H	0.491012	-0.382521	-0.382521
H164	H	0.991012	0.117479	0.117479
H165	H	1.094220	-1.114197	-0.389294
H166	H	1.594220	-0.614197	0.110706
O167	O	0.929683	-0.968824	-0.223901
O168	O	1.429683	-0.468824	0.276099
C169	C	0.840260	-0.973137	-0.134046
C170	C	1.340260	-0.473137	0.365954
C171	C	0.888062	-1.015371	-0.182131
C172	C	1.388062	-0.515371	0.317869
H173	H	0.806586	-1.010752	-0.100275
H174	H	1.306586	-0.510752	0.399725
H175	H	0.873877	-0.940087	-0.095521
H176	H	1.373877	-0.440087	0.404479
H177	H	0.804892	-0.937294	-0.170792
H178	H	1.304892	-0.437294	0.329208
H179	H	0.923439	-1.051252	-0.145443
H180	H	1.423439	-0.551252	0.354557
H181	H	0.854403	-1.048375	-0.220662
H182	H	1.354403	-0.548375	0.279338
O183	O	0.599114	-0.274555	-0.410918
O184	O	1.099114	0.225445	0.089082
C185	C	0.578145	-0.239675	-0.538517
C186	C	1.078145	0.260325	-0.038517
C187	C	0.616467	-0.290639	-0.482847
C188	C	1.116467	0.209361	0.017153
H189	H	0.592172	-0.252651	-0.596683
H190	H	1.092172	0.247349	-0.096683
H191	H	0.519067	-0.245026	-0.532755
H192	H	1.019067	0.254974	-0.032755
H193	H	0.594862	-0.183579	-0.527315
H194	H	1.094862	0.316421	-0.027315
H195	H	0.599808	-0.346756	-0.494014
H196	H	1.099808	0.153244	0.005986
H197	H	0.675537	-0.285227	-0.488621
H198	H	1.175537	0.214773	0.011379
O199	O	0.267996	-0.301312	-0.381649
O200	O	0.767996	0.198688	0.118351
C201	C	0.279412	-0.212568	-0.478409
C202	C	0.779412	0.287432	0.021591
C203	C	0.317704	-0.263557	-0.422742
C204	C	0.817704	0.236443	0.077258
H205	H	0.319584	-0.182018	-0.511636
H206	H	0.819584	0.317982	-0.011636
H207	H	0.243785	-0.243471	-0.517082
H208	H	0.743785	0.256529	-0.017082
H209	H	0.246511	-0.174429	-0.447677
H210	H	0.746511	0.325571	0.052323
H211	H	0.350642	-0.301706	-0.453412
H212	H	0.850642	0.198294	0.046588
H213	H	0.353288	-0.232608	-0.384070
H214	H	0.853288	0.267392	0.115930
O215	O	1.094120	-0.294052	-0.720981
O216	O	1.594120	0.205948	-0.220981
C217	C	1.186915	-0.208505	-0.728836
C218	C	1.686915	0.291495	-0.228836
C219	C	1.135474	-0.255982	-0.771212
C220	C	1.635474	0.244018	-0.271212
H221	H	1.220373	-0.177724	-0.769428
H222	H	1.720373	0.322276	-0.269428
H223	H	1.156178	-0.170428	-0.695770
H224	H	1.656178	0.329572	-0.195770
H225	H	1.222310	-0.242259	-0.689924
H226	H	1.722310	0.257741	-0.189924
H227	H	1.100067	-0.222285	-0.810162
H228	H	1.600067	0.277715	-0.310162
H229	H	1.166255	-0.294062	-0.804230
H230	H	1.666255	0.205938	-0.304230
H231	H	1.072524	-0.649913	-0.367606
H232	H	1.572524	-0.149913	0.132394
O233	O	0.591916	-0.451462	-0.217701
O234	O	1.091916	0.048538	0.282299
C235	C	0.596005	-0.540826	-0.120257
C236	C	1.096005	-0.040826	0.379743
C237	C	0.638359	-0.493071	-0.172383
C238	C	1.138359	0.006929	0.327617
H239	H	0.633536	-0.574489	-0.083615
H240	H	1.133536	-0.074489	0.416385
H241	H	0.562959	-0.507169	-0.084602
H242	H	1.062959	-0.007169	0.415398
H243	H	0.560155	-0.576209	-0.154008
H244	H	1.060155	-0.076209	0.345992
H245	H	0.674247	-0.457679	-0.138690
H246	H	1.174247	0.042321	0.361310
H247	H	0.671359	-0.526770	-0.208041
H248	H	1.171359	-0.026770	0.291959
H249	H	0.399798	-0.476807	-0.190142
H250	H	0.899798	0.023193	0.309858
H251	H	0.266663	-0.471470	-0.195988
H252	H	0.766663	0.028530	0.304012
H253	H	0.904246	-0.776766	-0.198444
H254	H	1.404246	-0.276766	0.301556
H255	H	1.067229	-0.783052	-0.362249
H256	H	1.567229	-0.283052	0.137751
H257	H	0.909538	-0.643615	-0.203798
H258	H	1.409538	-0.143615	0.296202
O259	O	0.923919	-1.113476	-0.218257
O260	O	1.423919	-0.613476	0.281743
C261	C	0.825746	-1.192603	-0.209080
C262	C	1.325746	-0.692603	0.290920
C263	C	0.876762	-1.154103	-0.260339
C264	C	1.376762	-0.654103	0.239661
H265	H	0.787597	-1.225447	-0.243085
H266	H	1.287597	-0.725447	0.256915
H267	H	0.856627	-1.228294	-0.167849
H268	H	1.356627	-0.728294	0.332151
H269	H	0.795215	-1.152523	-0.178357
H270	H	1.295215	-0.652523	0.321643
H271	H	0.907306	-1.194133	-0.291111
H272	H	1.407306	-0.694133	0.208889
H273	H	0.845841	-1.118400	-0.301524
H274	H	1.345841	-0.618400	0.198476
