data_functionalizedCrystal
_audit_creation_method	'MofGen! by Chris Wilmer'
_symmetry_space_group_name_H-M	'P1'
_symmetry_Int_Tables_number	1
_symmetry_cell_setting	triclinic
loop_
_symmetry_equiv_pos_as_xyz
  x,y,z
_cell_length_a	19.805407
_cell_length_b	12.759400
_cell_length_c	19.805399
_cell_angle_alpha	89.976763
_cell_angle_beta	89.980427
_cell_angle_gamma	90.014685
loop_
_atom_site_label
_atom_site_type_symbol
_atom_site_fract_x
_atom_site_fract_y
_atom_site_fract_z
Zn1	Zn	1.034791	-0.418291	-0.382740
Zn2	Zn	1.534791	0.081709	0.117260
Zn3	Zn	1.034729	-0.593984	-0.269560
Zn4	Zn	1.534729	-0.093984	0.230440
Zn5	Zn	0.921605	-0.418320	-0.269565
Zn6	Zn	1.421605	0.081680	0.230435
Zn7	Zn	0.921592	-0.593928	-0.382707
Zn8	Zn	1.421592	-0.093928	0.117293
O9	O	0.978179	-0.506131	-0.326143
O10	O	1.478179	-0.006131	0.173857
O11	O	1.129499	-0.441608	-0.367739
O12	O	1.629499	0.058392	0.132261
O13	O	1.019702	-0.570717	-0.174844
O14	O	1.519702	-0.070717	0.325156
O15	O	0.936651	-0.271295	-0.284593
O16	O	1.436651	0.228705	0.215407
O17	O	1.129454	-0.570689	-0.284586
O18	O	1.629454	-0.070689	0.215414
O19	O	1.019808	-0.271273	-0.367743
O20	O	1.519808	0.228727	0.132257
O21	O	0.936591	-0.441657	-0.174848
O22	O	1.436591	0.058343	0.325152
O23	O	0.826887	-0.441603	-0.284561
O24	O	1.326887	0.058397	0.215439
O25	O	0.936629	-0.570594	-0.477428
O26	O	1.436629	-0.070594	0.022572
O27	O	0.826877	-0.570622	-0.367687
O28	O	1.326877	-0.070622	0.132313
O29	O	1.019795	-0.441554	-0.477452
O30	O	1.519795	0.058446	0.022548
O31	O	1.019689	-0.740998	-0.284554
O32	O	1.519689	-0.240998	0.215446
O33	O	0.936568	-0.740957	-0.367682
O34	O	1.436568	-0.240957	0.132318
C35	C	0.802323	-0.506110	-0.326121
C36	C	1.302323	-0.006110	0.173879
C37	C	0.727091	-0.506127	-0.326128
C38	C	1.227091	-0.006127	0.173872
C39	C	0.691760	-0.573408	-0.369341
C40	C	1.191760	-0.073408	0.130659
C41	C	0.621071	-0.573410	-0.369351
C42	C	1.121071	-0.073410	0.130649
C43	C	0.585716	-0.506135	-0.326143
C44	C	1.085716	-0.006135	0.173857
C45	C	0.621052	-0.438847	-0.282928
C46	C	1.121052	0.061153	0.217072
C47	C	0.691739	-0.438840	-0.282922
C48	C	1.191739	0.061160	0.217078
C49	C	0.335979	-0.438870	-0.282950
C50	C	0.835979	0.061130	0.217050
C51	C	0.265287	-0.438884	-0.282958
C52	C	0.765287	0.061116	0.217042
C53	C	0.265311	-0.573440	-0.369379
C54	C	0.765311	-0.073440	0.130621
C55	C	0.335998	-0.573433	-0.369373
C56	C	0.835998	-0.073433	0.130627
C57	C	0.371328	-0.506141	-0.326161
C58	C	0.871328	-0.006141	0.173839
C59	C	0.447977	-0.506139	-0.326152
C60	C	0.947977	-0.006139	0.173848
C61	C	0.509069	-0.506142	-0.326148
C62	C	1.009069	-0.006142	0.173852
C63	C	0.978139	-0.779098	-0.326129
C64	C	1.478139	-0.279098	0.173871
C65	C	0.978184	-0.895875	-0.326146
C66	C	1.478184	-0.395875	0.173854
C67	C	1.021513	-0.950723	-0.282908
C68	C	1.521513	-0.450723	0.217092
C69	C	1.021555	-1.060447	-0.282929
C70	C	1.521555	-0.560447	0.217071
C71	C	0.934932	-1.060464	-0.369426
C72	C	1.434932	-0.560464	0.130574
C73	C	0.934894	-0.950742	-0.369408
C74	C	1.434894	-0.450742	0.130592
C75	C	1.064802	-0.895855	-0.239646
C76	C	1.564802	-0.395855	0.260354
C77	C	1.108135	-0.950704	-0.196404
C78	C	1.608135	-0.450704	0.303596
C79	C	1.108176	-1.060428	-0.196425
C80	C	1.608176	-0.560428	0.303575
C81	C	1.064886	-1.115303	-0.239687
C82	C	1.564886	-0.615303	0.260313
C83	C	1.154722	-0.506152	-0.326165
C84	C	1.654722	-0.006152	0.173835
C85	C	1.229954	-0.506160	-0.326175
C86	C	1.729954	-0.006160	0.173825
C87	C	0.978217	-0.506064	-0.502686
C88	C	1.478217	-0.006064	-0.002686
C89	C	0.978233	-0.506036	-0.577918
C90	C	1.478233	-0.006036	-0.077918
C91	C	0.978238	-0.232097	-0.326172
C92	C	1.478238	0.267903	0.173828
C93	C	0.978263	-0.115321	-0.326184
C94	C	1.478263	0.384679	0.173816
C95	C	1.021539	-0.438842	-0.613276
C96	C	1.521539	0.061158	-0.113276
C97	C	1.021546	-0.438811	-0.683964
C98	C	1.521546	0.061189	-0.183964
C99	C	0.978250	-0.505981	-0.719294
C100	C	1.478250	-0.005981	-0.219294
C101	C	0.934940	-0.573179	-0.683931
C102	C	1.434940	-0.073179	-0.183931
C103	C	0.934930	-0.573203	-0.613244
C104	C	1.434930	-0.073203	-0.113244
C105	C	0.934978	-0.573081	-0.969004
C106	C	1.434978	-0.073081	-0.469004
C107	C	0.934992	-0.573054	-1.039696
C108	C	1.434992	-0.073054	-0.539696
C109	C	1.021594	-0.438689	-1.039725
C110	C	1.521594	0.061311	-0.539725
C111	C	1.021584	-0.438713	-0.969038
C112	C	1.521584	0.061287	-0.469038
C113	C	0.978272	-0.505906	-0.933681
C114	C	1.478272	-0.005906	-0.433681
C115	C	0.978264	-0.505937	-0.857033
C116	C	1.478264	-0.005937	-0.357033
C117	C	0.978261	-0.505957	-0.795941
C118	C	1.478261	-0.005957	-0.295941
C119	C	0.978180	-0.506121	-0.150287
C120	C	1.478180	-0.006121	0.349713
C121	C	0.978295	-0.505853	-0.075055
C122	C	1.478295	-0.005853	0.424945
H123	H	0.720505	-0.384048	-0.247737
H124	H	1.220505	0.115952	0.252263
C125	C	1.065077	-1.234433	-0.239718
C126	C	1.565077	-0.734433	0.260282
C127	C	1.129525	-1.270633	-0.257036
C128	C	1.629525	-0.770633	0.242964
C129	C	1.129727	-1.380367	-0.257061
C130	C	1.629727	-0.880367	0.242939
H131	H	1.033140	-1.259392	-0.271670
H132	H	1.533140	-0.759392	0.228330
H133	H	1.053444	-1.259357	-0.196027
H134	H	1.553444	-0.759357	0.303973
H135	H	1.141149	-1.245720	-0.300722
H136	H	1.641149	-0.745720	0.199278
H137	H	1.161473	-1.245704	-0.225091
H138	H	1.661473	-0.745704	0.274909
H139	H	1.118094	-1.405291	-0.213370
H140	H	1.618094	-0.905291	0.286630
H141	H	1.097787	-1.405315	-0.289013
H142	H	1.597787	-0.905315	0.210987
H143	H	1.173455	-1.404942	-0.268805
H144	H	1.673455	-0.904942	0.231195
H145	H	0.364781	-0.628219	-0.404555
H146	H	0.864781	-0.128219	0.095445
C147	C	0.582589	-0.646348	-0.416242
C148	C	1.082589	-0.146348	0.083758
C149	C	0.513117	-0.631934	-0.407016
C150	C	1.013117	-0.131934	0.092984
C151	C	0.477647	-0.699097	-0.450209
C152	C	0.977647	-0.199097	0.049791
H153	H	0.594078	-0.716959	-0.406297
H154	H	1.094078	-0.216959	0.093703
H155	H	0.594159	-0.631057	-0.461749
H156	H	1.094159	-0.131057	0.038251
H157	H	0.501553	-0.647233	-0.361519
H158	H	1.001553	-0.147233	0.138481
H159	H	0.501609	-0.561336	-0.416966
H160	H	1.001609	-0.061336	0.083034
H161	H	0.489217	-0.683806	-0.495717
H162	H	0.989217	-0.183806	0.004283
H163	H	0.489141	-0.769705	-0.440261
H164	H	0.989141	-0.269705	0.059739
H165	H	0.430507	-0.689320	-0.443960
H166	H	0.930507	-0.189320	0.056040
C167	C	0.226829	-0.646379	-0.416277
C168	C	0.726829	-0.146379	0.083723
C169	C	0.157356	-0.631969	-0.407053
C170	C	0.657356	-0.131969	0.092947
C171	C	0.121888	-0.699133	-0.450247
C172	C	0.621888	-0.199133	0.049753
H173	H	0.238318	-0.716991	-0.406333
H174	H	0.738318	-0.216991	0.093667
H175	H	0.238399	-0.631087	-0.461785
H176	H	0.738399	-0.131087	0.038215
H177	H	0.145792	-0.647269	-0.361556
H178	H	0.645792	-0.147269	0.138444
H179	H	0.145847	-0.561372	-0.417002
H180	H	0.645847	-0.061372	0.082998
H181	H	0.133458	-0.683840	-0.495755
H182	H	0.633458	-0.183840	0.004245
H183	H	0.133383	-0.769740	-0.440299
H184	H	0.633383	-0.269740	0.059701
H185	H	0.074748	-0.689358	-0.443999
H186	H	0.574748	-0.189358	0.056001
H187	H	0.899613	-0.906084	-0.404617
H188	H	1.399613	-0.406084	0.095383
H189	H	1.143464	-1.105083	-0.161221
H190	H	1.643464	-0.605083	0.338779
H191	H	1.064772	-0.806512	-0.239622
H192	H	1.564772	-0.306512	0.260378
H193	H	0.899686	-1.105153	-0.404648
H194	H	1.399686	-0.605153	0.095352
H195	H	0.236502	-0.384094	-0.247773
H196	H	0.736502	0.115906	0.252227
C197	C	1.068573	-0.365797	-0.575043
C198	C	1.568573	0.134203	-0.075043
C199	C	1.106486	-0.306924	-0.621142
C200	C	1.606486	0.193076	-0.121142
C201	C	1.149814	-0.239610	-0.585950
C202	C	1.649814	0.260390	-0.085950
H203	H	1.098113	-0.405880	-0.547467
H204	H	1.598113	0.094120	-0.047467
H205	H	1.042702	-0.319970	-0.547483
H206	H	1.542702	0.180030	-0.047483
H207	H	1.132356	-0.352745	-0.648690
H208	H	1.632356	0.147255	-0.148690
H209	H	1.076964	-0.266819	-0.648720
H210	H	1.576964	0.233181	-0.148720
H211	H	1.123943	-0.193783	-0.558389
H212	H	1.623943	0.306217	-0.058389
H213	H	1.179349	-0.279702	-0.558374
H214	H	1.679349	0.220298	-0.058374
H215	H	1.175539	-0.199650	-0.617222
H216	H	1.675539	0.300350	-0.117222
H217	H	0.364736	-0.384085	-0.247759
H218	H	0.864736	0.115915	0.252241
C219	C	1.155095	-0.891263	-0.149328
C220	C	1.655095	-0.391263	0.350672
C221	C	1.140415	-0.918067	-0.082352
C222	C	1.640415	-0.418067	0.417648
C223	C	1.183668	-0.863344	-0.038966
C224	C	1.683668	-0.363344	0.461034
H225	H	1.148908	-0.818045	-0.155414
H226	H	1.648908	-0.318045	0.344586
H227	H	1.200585	-0.909197	-0.159237
H228	H	1.700585	-0.409197	0.340763
H229	H	1.094936	-0.900127	-0.072446
H230	H	1.594936	-0.400127	0.427554
H231	H	1.146607	-0.991276	-0.076245
H232	H	1.646607	-0.491276	0.423755
H233	H	1.229158	-0.881278	-0.048876
H234	H	1.729158	-0.381278	0.451124
H235	H	1.177477	-0.790129	-0.045059
H236	H	1.677477	-0.290129	0.454941
H237	H	1.173718	-0.881530	0.006481
H238	H	1.673718	-0.381530	0.506481
H239	H	0.899685	-0.627866	-0.712702
H240	H	1.399685	-0.127866	-0.212702
H241	H	1.056812	-0.384097	-0.712749
H242	H	1.556812	0.115903	-0.212749
H243	H	1.056843	-0.384020	-0.940276
H244	H	1.556843	0.115980	-0.440276
C245	C	1.068577	-0.365553	-1.078027
C246	C	1.568577	0.134447	-0.578027
C247	C	1.053872	-0.261610	-1.060823
C248	C	1.553872	0.238390	-0.560823
C249	C	1.097144	-0.194214	-1.096084
C250	C	1.597144	0.305786	-0.596084
H251	H	1.062426	-0.375008	-1.125196
H252	H	1.562426	0.124992	-0.625196
H253	H	1.114060	-0.380880	-1.066435
H254	H	1.614060	0.119120	-0.566435
H255	H	1.008400	-0.246288	-1.072420
H256	H	1.508400	0.253712	-0.572420
H257	H	1.060027	-0.252122	-1.013660
H258	H	1.560027	0.247878	-0.513660
H259	H	1.142627	-0.209541	-1.084492
H260	H	1.642627	0.290459	-0.584492
H261	H	1.090990	-0.203678	-1.143251
H262	H	1.590990	0.296322	-0.643251
H263	H	1.087177	-0.123682	-1.084412
H264	H	1.587177	0.376318	-0.584412
C265	C	0.887905	-0.646020	-1.077934
C266	C	1.387905	-0.146020	-0.577934
C267	C	0.849957	-0.704849	-1.031841
C268	C	1.349957	-0.204849	-0.531841
C269	C	0.806570	-0.772063	-1.067041
C270	C	1.306570	-0.272063	-0.567041
H271	H	0.913714	-0.691886	-1.105510
H272	H	1.413714	-0.191886	-0.605510
H273	H	0.858395	-0.605833	-1.105494
H274	H	1.358395	-0.105833	-0.605494
H275	H	0.879463	-0.745033	-1.004292
H276	H	1.379463	-0.245033	-0.504292
H277	H	0.824134	-0.659011	-1.004263
H278	H	1.324134	-0.159011	-0.504263
H279	H	0.777060	-0.731876	-1.094601
H280	H	1.277060	-0.231876	-0.594601
H281	H	0.832384	-0.817922	-1.094616
H282	H	1.332384	-0.317922	-0.594616
H283	H	0.780812	-0.811980	-1.035773
H284	H	1.280812	-0.311980	-0.535773
C285	C	0.888062	-0.646100	-0.930545
C286	C	1.388062	-0.146100	-0.430545
C287	C	0.926354	-0.713452	-0.889947
C288	C	1.426354	-0.213452	-0.389947
C289	C	0.883154	-0.780727	-0.854502
C290	C	1.383154	-0.280727	-0.354502
H291	H	0.862269	-0.686195	-0.961640
H292	H	1.362269	-0.186195	-0.461640
H293	H	0.858581	-0.605949	-0.902933
H294	H	1.358581	-0.105949	-0.402933
H295	H	0.955823	-0.753599	-0.917557
H296	H	1.455823	-0.253599	-0.417557
H297	H	0.952145	-0.673387	-0.858839
H298	H	1.452145	-0.173387	-0.358839
H299	H	0.853673	-0.740575	-0.826890
H300	H	1.353673	-0.240575	-0.326890
H301	H	0.857363	-0.820814	-0.885603
H302	H	1.357363	-0.320814	-0.385603
H303	H	0.909128	-0.826426	-0.826948
H304	H	1.409128	-0.326426	-0.326948
C305	C	0.887896	-0.646289	-0.574974
C306	C	1.387896	-0.146289	-0.074974
C307	C	0.849998	-0.705136	-0.621042
C308	C	1.349998	-0.205136	-0.121042
C309	C	0.806670	-0.772487	-0.585814
C310	C	1.306670	-0.272487	-0.085814
H311	H	0.858347	-0.606234	-0.547392
H312	H	1.358347	-0.106234	-0.047392
H313	H	0.913767	-0.692130	-0.547417
H314	H	1.413767	-0.192130	-0.047417
H315	H	0.824129	-0.659300	-0.648587
H316	H	1.324129	-0.159300	-0.148587
H317	H	0.879529	-0.745212	-0.648626
H318	H	1.379529	-0.245212	-0.148626
H319	H	0.832541	-0.818329	-0.558257
H320	H	1.332541	-0.318329	-0.058257
H321	H	0.777125	-0.732423	-0.558232
H322	H	1.277125	-0.232423	-0.058232
H323	H	0.780955	-0.812429	-0.617065
H324	H	1.280955	-0.312429	-0.117065
H325	H	0.720541	-0.628195	-0.404524
H326	H	1.220541	-0.128195	0.095476
C327	C	0.582546	-0.365912	-0.236045
C328	C	1.082546	0.134088	0.263955
C329	C	0.513079	-0.380335	-0.245285
C330	C	1.013079	0.119665	0.254715
C331	C	0.477588	-0.313175	-0.202102
C332	C	0.977588	0.186825	0.297898
H333	H	0.594063	-0.295299	-0.245989
H334	H	1.094063	0.204701	0.254011
H335	H	0.594070	-0.381199	-0.190534
H336	H	1.094070	0.118801	0.309466
H337	H	0.501560	-0.365041	-0.290786
H338	H	1.001560	0.134959	0.209214
H339	H	0.501542	-0.450934	-0.235337
H340	H	1.001542	0.049066	0.264663
H341	H	0.489112	-0.328462	-0.156591
H342	H	0.989112	0.171538	0.343409
H343	H	0.489110	-0.242566	-0.212049
H344	H	0.989110	0.257434	0.287951
H345	H	0.430451	-0.322959	-0.208361
H346	H	0.930451	0.177041	0.291639
