data_functionalizedCrystal
_audit_creation_method	'MofGen! by Chris Wilmer'
_symmetry_space_group_name_H-M	'P1'
_symmetry_Int_Tables_number	1
_symmetry_cell_setting	triclinic
loop_
_symmetry_equiv_pos_as_xyz
  x,y,z
_cell_length_a	17.019311
_cell_length_b	14.044220
_cell_length_c	13.101018
_cell_angle_alpha	93.664400
_cell_angle_beta	97.229490
_cell_angle_gamma	91.718376
loop_
_atom_site_label
_atom_site_type_symbol
_atom_site_fract_x
_atom_site_fract_y
_atom_site_fract_z
O1	O	1.063533	-0.109790	0.179065
O2	O	1.396867	0.223543	0.512398
O3	O	1.730200	0.556877	0.845732
O4	O	0.834006	-0.126423	0.158814
O5	O	1.167340	0.206910	0.492147
O6	O	1.500673	0.540243	0.825480
O7	O	0.945324	0.019854	0.168625
O8	O	1.278657	0.353188	0.501958
O9	O	1.611991	0.686521	0.835292
O10	O	0.952215	-0.256067	0.169253
O11	O	1.285549	0.077266	0.502587
O12	O	1.618882	0.410599	0.835920
O13	O	0.937328	0.009350	-0.002510
O14	O	1.270661	0.342683	0.330823
O15	O	1.603994	0.676016	0.664157
O16	O	0.826010	-0.136928	-0.012322
O17	O	1.159343	0.196406	0.321012
O18	O	1.492677	0.529739	0.654345
O19	O	1.055537	-0.120294	0.007930
O20	O	1.388870	0.213039	0.341263
O21	O	1.722204	0.546372	0.674596
Zn22	Zn	0.939504	-0.130279	-0.029367
Zn23	Zn	1.272837	0.203054	0.303966
Zn24	Zn	1.606171	0.536388	0.637299
Zn25	Zn	0.950039	-0.116439	0.196111
Zn26	Zn	1.283373	0.216895	0.529444
Zn27	Zn	1.616706	0.550228	0.862777
O28	O	0.944219	-0.266572	-0.001882
O29	O	1.277552	0.066762	0.331452
O30	O	1.610886	0.400095	0.664785
C31	C	0.800456	-0.131251	0.070639
C32	C	1.133790	0.202083	0.403972
C33	C	1.467123	0.535416	0.737305
C34	C	0.712400	-0.129974	0.062869
C35	C	1.045733	0.203360	0.396202
C36	C	1.379067	0.536693	0.729536
C37	C	0.214152	-0.123070	0.014248
C38	C	0.547485	0.210264	0.347581
C39	C	0.880819	0.543597	0.680915
C40	C	0.296890	-0.124269	0.021551
C41	C	0.630224	0.209064	0.354884
C42	C	0.963557	0.542397	0.688217
C43	C	0.342619	-0.119136	0.118489
C44	C	0.675952	0.214197	0.451823
C45	C	1.009285	0.547531	0.785156
C46	C	0.305605	-0.112812	0.208131
C47	C	0.638938	0.220521	0.541464
C48	C	0.972271	0.553855	0.874798
C49	C	0.222868	-0.111619	0.200828
C50	C	0.556201	0.221714	0.534161
C51	C	0.889534	0.555047	0.867494
C52	C	0.592649	-0.122457	0.145208
C53	C	0.925982	0.210876	0.478541
C54	C	1.259316	0.544210	0.811874
C55	C	0.675391	-0.123647	0.152504
C56	C	1.008725	0.209686	0.485838
C57	C	1.342058	0.543019	0.819171
C58	C	0.666671	-0.135106	-0.034077
C59	C	1.000005	0.198227	0.299256
C60	C	1.333338	0.531560	0.632589
C61	C	0.583933	-0.133907	-0.041372
C62	C	0.917267	0.199426	0.291961
C63	C	1.250600	0.532759	0.625295
C64	C	0.546926	-0.127589	0.048270
C65	C	0.880260	0.205745	0.381603
C66	C	1.213593	0.539078	0.714937
C67	C	0.427191	-0.120359	0.125956
C68	C	0.760524	0.212974	0.459289
C69	C	1.093857	0.546308	0.792622
C70	C	0.462356	-0.126372	0.040802
C71	C	0.795689	0.206961	0.374136
C72	C	1.129022	0.540294	0.707469
C73	C	0.938310	0.049896	0.082791
C74	C	1.271643	0.383229	0.416124
C75	C	1.604976	0.716563	0.749458
C76	C	0.929313	0.155061	0.081996
C77	C	1.262646	0.488395	0.415329
C78	C	1.595980	0.821728	0.748663
C79	C	1.089087	-0.115467	0.096107
C80	C	1.422420	0.217866	0.429440
C81	C	1.755754	0.551200	0.762774
C82	C	1.177144	-0.116743	0.103883
C83	C	1.510477	0.216590	0.437217
C84	C	1.843810	0.549923	0.770550
C85	C	0.951234	-0.296614	0.083955
C86	C	1.284567	0.036720	0.417288
C87	C	1.617900	0.370053	0.750621
C88	C	0.960231	-0.401778	0.084756
C89	C	1.293564	-0.068445	0.418090
C90	C	1.626897	0.264888	0.751423
N91	N	0.932319	-0.139724	-0.183249
N92	N	1.265653	0.193610	0.150084
N93	N	1.598986	0.526943	0.483417
C94	C	0.912866	0.347613	0.080560
C95	C	1.246199	0.680946	0.413893
C96	C	1.579533	1.014279	0.747226
C97	C	0.976674	0.405676	0.086193
C98	C	1.310008	0.739009	0.419526
C99	C	1.643341	1.072342	0.752859
C100	C	0.967523	0.512818	0.085393
C101	C	1.300856	0.846151	0.418727
C102	C	1.634189	1.179485	0.752060
C103	C	0.922016	0.240460	0.081359
C104	C	1.255349	0.573794	0.414692
C105	C	1.588683	0.907127	0.748025
C106	C	0.967000	-0.094133	-0.440102
C107	C	1.300333	0.239201	-0.106769
C108	C	1.633667	0.572534	0.226564
C109	C	0.922551	-0.152574	-0.393147
C110	C	1.255885	0.180759	-0.059814
C111	C	1.589218	0.514092	0.273520
C112	C	0.927988	-0.145422	-0.276349
C113	C	1.261321	0.187911	0.056984
C114	C	1.594654	0.521244	0.390318
C115	C	0.961564	-0.101283	-0.556911
C116	C	1.294898	0.232050	-0.223577
C117	C	1.628231	0.565383	0.109756
N118	N	0.957230	-0.106986	0.349993
N119	N	1.290563	0.226347	0.683327
N120	N	1.623896	0.559680	1.016660
H121	H	0.327019	-0.129418	-0.051440
H122	H	0.660352	0.203915	0.281893
H123	H	0.993685	0.537248	0.615226
C124	C	0.182159	-0.104657	0.299434
C125	C	0.515492	0.228677	0.632767
C126	C	0.848826	0.562010	0.966101
N127	N	0.151498	-0.099414	0.373708
N128	N	0.484832	0.233919	0.707041
N129	N	0.818165	0.567253	1.040374
C130	C	0.829785	0.389162	0.073216
C131	C	1.163118	0.722495	0.406549
C132	C	1.496452	1.055828	0.739883
N133	N	0.767209	0.420467	0.067676
N134	N	1.100542	0.753800	0.401010
N135	N	1.433875	1.087134	0.734343
C136	C	0.163858	-0.128719	-0.092393
C137	C	0.497191	0.204614	0.240940
C138	C	0.830525	0.537947	0.574274
N139	N	0.125978	-0.132980	-0.172718
N140	N	0.459312	0.200353	0.160615
N141	N	0.792645	0.533686	0.493949
H142	H	0.546707	-0.138067	-0.120310
H143	H	0.880041	0.195266	0.213024
H144	H	1.213374	0.528600	0.546357
C145	C	0.707385	-0.142096	-0.132677
C146	C	1.040718	0.191238	0.200657
C147	C	1.374051	0.524571	0.533990
N148	N	0.738050	-0.147376	-0.206946
N149	N	1.071383	0.185958	0.126388
N150	N	1.404716	0.519291	0.459721
H151	H	0.712622	-0.119475	0.231447
H152	H	1.045955	0.213859	0.564781
H153	H	1.379288	0.547192	0.898114
C154	C	0.865635	-0.227433	-0.457340
C155	C	1.198968	0.105900	-0.124006
C156	C	1.532301	0.439233	0.209327
N157	N	0.822771	-0.283819	-0.505694
N158	N	1.156104	0.049514	-0.172360
N159	N	1.489438	0.382847	0.160973
C160	C	1.023914	-0.019281	-0.375910
C161	C	1.357247	0.314053	-0.042577
C162	C	1.690581	0.647386	0.290756
N163	N	1.066780	0.037099	-0.327549
N164	N	1.400113	0.370432	0.005784
N165	N	1.733446	0.703766	0.339118
H166	H	1.038179	0.374923	0.091688
H167	H	1.371512	0.708256	0.425021
H168	H	1.704845	1.041590	0.758355
H169	H	0.464432	-0.116177	0.204884
H170	H	0.797765	0.217157	0.538217
H171	H	1.131099	0.550490	0.871550
H172	H	0.562528	-0.117308	0.218201
H173	H	0.895861	0.216025	0.551534
H174	H	1.229195	0.549358	0.884867
H175	H	0.342843	-0.108638	0.287061
H176	H	0.676176	0.224695	0.620394
H177	H	1.009510	0.558028	0.953727
H178	H	0.425120	-0.130557	-0.038125
H179	H	0.758453	0.202776	0.295209
H180	H	1.091786	0.536110	0.628542
