data_functionalizedCrystal
_audit_creation_method	'MofGen! by Chris Wilmer'
_symmetry_space_group_name_H-M	'P1'
_symmetry_Int_Tables_number	1
_symmetry_cell_setting	triclinic
loop_
_symmetry_equiv_pos_as_xyz
  x,y,z
_cell_length_a	12.645331
_cell_length_b	12.645330
_cell_length_c	16.959447
_cell_angle_alpha	89.971796
_cell_angle_beta	89.984215
_cell_angle_gamma	90.012860
loop_
_atom_site_label
_atom_site_type_symbol
_atom_site_fract_x
_atom_site_fract_y
_atom_site_fract_z
Zn1	Zn	1.620695	-0.422012	-0.446951
Zn2	Zn	1.620614	-0.599304	-0.314778
Zn3	Zn	1.443431	-0.422056	-0.314785
Zn4	Zn	1.443407	-0.599235	-0.446913
O5	O	1.532037	-0.510652	-0.380857
O6	O	1.769031	-0.445541	-0.429431
O7	O	1.597087	-0.575839	-0.204168
O8	O	1.466990	-0.273703	-0.332337
O9	O	1.768972	-0.575797	-0.332323
O10	O	1.597224	-0.273671	-0.429438
O11	O	1.466911	-0.445615	-0.204173
O12	O	1.295081	-0.445548	-0.332299
O13	O	1.466948	-0.575679	-0.557529
O14	O	1.295063	-0.575721	-0.429373
O15	O	1.597201	-0.445474	-0.557557
O16	O	1.597063	-0.747642	-0.332286
O17	O	1.466870	-0.747591	-0.429365
C18	C	1.256607	-0.510632	-0.380833
C19	C	1.138777	-0.510650	-0.380842
C20	C	1.093871	-0.428631	-0.319873
C21	C	0.971311	-0.428328	-0.320082
C22	C	0.970931	-0.480855	-0.464284
C23	C	1.093529	-0.480242	-0.463903
C24	C	1.093575	-0.622708	-0.359157
C25	C	0.970968	-0.622123	-0.357349
C26	C	1.531984	-0.786081	-0.380838
C27	C	1.532058	-0.903911	-0.380856
C28	C	1.613831	-1.071463	-0.319660
C29	C	1.614097	-0.948903	-0.319810
C30	C	1.562344	-0.948291	-0.464176
C31	C	1.562993	-1.070889	-0.463851
C32	C	1.419966	-1.071240	-0.359555
C33	C	1.420504	-0.948636	-0.357686
C34	C	1.808542	-0.510672	-0.380881
C35	C	1.926372	-0.510680	-0.380891
C36	C	1.532081	-0.510564	-0.587025
C37	C	1.532100	-0.510527	-0.674882
C38	C	1.532119	-0.234146	-0.380893
C39	C	1.532154	-0.116316	-0.380908
C40	C	1.464409	-0.578206	-1.046345
C41	C	1.600043	-0.442623	-1.046370
C42	C	1.600015	-0.442646	-0.963824
C43	C	1.532184	-0.510451	-0.922535
C44	C	1.464381	-0.578233	-0.963792
C45	C	1.667824	-0.374872	-0.922561
C46	C	1.667799	-0.374893	-0.840010
C47	C	1.599962	-0.442693	-0.798719
C48	C	1.532156	-0.510477	-0.839981
C49	C	1.464325	-0.578282	-0.798692
C50	C	1.396513	-0.646062	-0.839953
C51	C	1.396544	-0.646033	-0.922501
C52	C	1.599930	-0.442722	-0.716171
C53	C	1.464297	-0.578309	-0.716139
C54	C	1.532054	-0.510663	-0.175490
C55	C	1.532240	-0.510401	-0.087634
H56	H	0.941829	-0.538777	-0.510973
C57	C	0.873037	-0.746289	-0.278907
C58	C	0.931634	-0.652509	-0.274502
H59	H	0.848753	-0.765046	-0.227760
H60	H	0.814155	-0.736166	-0.312839
H61	H	0.916472	-0.801258	-0.299097
H62	H	0.888197	-0.597537	-0.254317
H63	H	0.990524	-0.662625	-0.240558
H64	H	1.655273	-0.387426	-1.079992
H65	H	1.409195	-0.633388	-1.079943
H66	H	1.122137	-0.398344	-0.482232
C67	C	1.285051	-0.992803	-0.451231
C68	C	1.333915	-0.907314	-0.413493
H69	H	1.231594	-0.967292	-0.485686
H70	H	1.336202	-1.031010	-0.480722
H71	H	1.254202	-1.038075	-0.412877
H72	H	1.364771	-0.862046	-0.451846
H73	H	1.282754	-0.869089	-0.384001
H74	H	1.409051	-0.633515	-0.682527
H75	H	0.940241	-0.399866	-0.482941
C76	C	1.336259	-0.706298	-0.713394
C77	C	1.321953	-0.720592	-0.794562
H78	H	1.290226	-0.752304	-0.685372
H79	H	1.407471	-0.721827	-0.699876
H80	H	1.320765	-0.635069	-0.699888
H81	H	1.337455	-0.791819	-0.808069
H82	H	1.250726	-0.705070	-0.808085
H83	H	1.123241	-0.537408	-0.510903
C84	C	1.662363	-0.848949	-0.559095
C85	C	1.671800	-0.906740	-0.489002
H86	H	1.729938	-0.823295	-0.574413
H87	H	1.634952	-0.893345	-0.599364
H88	H	1.615810	-0.791002	-0.551037
H89	H	1.718347	-0.964692	-0.497061
H90	H	1.699225	-0.862342	-0.448723
C91	C	0.863082	-0.663791	-0.469592
C92	C	0.929682	-0.709000	-0.412899
H93	H	0.837601	-0.717424	-0.503893
H94	H	0.805081	-0.630486	-0.444114
H95	H	0.901406	-0.612813	-0.499226
H96	H	0.891356	-0.759973	-0.383260
H97	H	0.987692	-0.742322	-0.438379
H98	H	1.341339	-0.701219	-0.956103
C99	C	1.665726	-1.170985	-0.556592
C100	C	1.673695	-1.109385	-0.488264
H101	H	1.734072	-1.194740	-0.571664
H102	H	1.621551	-1.230244	-0.546557
H103	H	1.636164	-1.129738	-0.597898
H104	H	1.703249	-1.150635	-0.446955
H105	H	1.717886	-1.050118	-0.498294
C106	C	1.797416	-1.072431	-0.283559
C107	C	1.725409	-1.112934	-0.338510
H108	H	1.866296	-1.098040	-0.295197
H109	H	1.797231	-0.997397	-0.286144
H110	H	1.777561	-1.094404	-0.232069
H111	H	1.745259	-1.090955	-0.390000
H112	H	1.725597	-1.187984	-0.335933
H113	H	1.697191	-0.919494	-0.333934
H114	H	1.723054	-0.319676	-0.956184
C115	C	1.050065	-0.249818	-0.354550
C116	C	1.135457	-0.317168	-0.339059
H117	H	1.075741	-0.181006	-0.366393
H118	H	1.011103	-0.276128	-0.398213
H119	H	1.005450	-0.246632	-0.309540
H120	H	1.180068	-0.320359	-0.384071
H121	H	1.174437	-0.290851	-0.295392
C122	C	1.047091	-0.473132	-0.186707
C123	C	1.133608	-0.453438	-0.236130
H124	H	1.071631	-0.488456	-0.135009
H125	H	1.002763	-0.412536	-0.185269
H126	H	1.008214	-0.531775	-0.206320
H127	H	1.172481	-0.394790	-0.216520
H128	H	1.177954	-0.514041	-0.237566
H129	H	0.941992	-0.345302	-0.334483
H130	H	1.124453	-0.649941	-0.299358
H131	H	1.122613	-0.683811	-0.403565
C132	C	1.572843	-0.994564	-0.185854
C133	C	1.588539	-0.908394	-0.236407
H134	H	1.557078	-0.969557	-0.134361
H135	H	1.515621	-1.036172	-0.204652
H136	H	1.635196	-1.036394	-0.184257
H137	H	1.526183	-0.866568	-0.238009
H138	H	1.645766	-0.866769	-0.217605
C139	C	1.439794	-1.024504	-0.565862
C140	C	1.486188	-1.110947	-0.527565
H141	H	1.392390	-1.049233	-0.605202
H142	H	1.402159	-0.982965	-0.528594
H143	H	1.493372	-0.982700	-0.589774
H144	H	1.432611	-1.152747	-0.503648
H145	H	1.523824	-1.152503	-0.564840
H146	H	1.595120	-1.101018	-0.257699
H147	H	1.723015	-0.319702	-0.806422
C148	C	1.288302	-1.169438	-0.288431
C149	C	1.382781	-1.113091	-0.278961
H150	H	1.265360	-1.195280	-0.238674
H151	H	1.235781	-1.124062	-0.309831
H152	H	1.299700	-1.227197	-0.323202
H153	H	1.371382	-1.055327	-0.244195
H154	H	1.435315	-1.158470	-0.257550
C155	C	1.290166	-0.949891	-0.254709
C156	C	1.389710	-0.909582	-0.274881
H157	H	1.271177	-0.925806	-0.203577
H158	H	1.239217	-0.926235	-0.291884
H159	H	1.292601	-1.024972	-0.254975
H160	H	1.387273	-0.834500	-0.274621
H161	H	1.440672	-0.933232	-0.237696
C162	C	1.734006	-0.308709	-0.724491
C163	C	1.674460	-0.368224	-0.670817
H164	H	1.780014	-0.262710	-0.696490
H165	H	1.774551	-0.354893	-0.756675
H166	H	1.687834	-0.268146	-0.756699
H167	H	1.720632	-0.408793	-0.638613
H168	H	1.633913	-0.322034	-0.638619
H169	H	0.941179	-0.446936	-0.258257
H170	H	1.504665	-0.919144	-0.511033
H171	H	1.359110	-1.100247	-0.404164
