data_functionalizedCrystal
_audit_creation_method	'MofGen! by Chris Wilmer'
_symmetry_space_group_name_H-M	'P1'
_symmetry_Int_Tables_number	1
_symmetry_cell_setting	triclinic
loop_
_symmetry_equiv_pos_as_xyz
  x,y,z
_cell_length_a	18.760487
_cell_length_b	15.698487
_cell_length_c	18.760492
_cell_angle_alpha	60.002254
_cell_angle_beta	90.036694
_cell_angle_gamma	60.019852
loop_
_atom_site_label
_atom_site_type_symbol
_atom_site_fract_x
_atom_site_fract_y
_atom_site_fract_z
Zr1	Zr	0.686680	0.932396	-0.093102
O2	O	0.572861	1.110106	-0.206984
O3	O	0.721572	0.754686	-0.058193
O4	O	0.721568	0.932395	-0.206896
O5	O	0.572867	0.932397	0.059021
O6	O	0.838871	0.932395	-0.206824
O7	O	0.572864	0.932396	-0.058281
O8	O	0.838877	0.614505	0.059179
O9	O	0.572861	1.250287	-0.206981
O10	O	0.823994	0.827780	-0.043248
O11	O	0.736454	0.827781	0.044240
O12	O	0.736450	1.037011	-0.130839
O13	O	0.648910	1.037012	-0.043352
Zr14	Zr	0.873769	0.932397	0.094097
Zr15	Zr	0.873765	0.932396	-0.092986
Zr16	Zr	0.686684	0.932398	0.093982
Zr17	Zr	0.686680	1.155969	-0.093097
Zr18	Zr	0.873769	0.708824	0.094093
O19	O	0.838877	1.110108	0.059188
O20	O	0.838871	1.110105	-0.206820
O21	O	0.572867	1.110108	0.059025
O22	O	0.987588	0.754687	0.207980
O23	O	0.987582	0.754685	-0.058029
O24	O	0.721578	0.754688	0.207816
O25	O	0.987582	0.932396	-0.058026
O26	O	0.838880	0.932398	0.207892
O27	O	0.721577	0.932399	0.207819
O28	O	0.987584	0.932397	0.059277
O29	O	0.721568	1.250287	-0.206890
O30	O	0.838881	0.614506	0.207886
O31	O	0.987588	0.614506	0.207977
O32	O	0.987585	0.614505	0.059271
O33	O	0.572864	1.250288	-0.058275
O34	O	0.721571	1.250288	-0.058183
O35	O	0.823998	0.827782	0.131835
O36	O	0.911538	0.827781	0.044347
O37	O	0.823994	1.037012	-0.043244
O38	O	0.736454	1.037013	0.044244
C39	C	0.546210	0.932397	0.000354
C40	C	0.466788	0.932397	0.000305
C41	C	0.780225	0.652741	0.000492
C42	C	0.780225	0.557828	0.000491
C43	C	0.085274	1.041617	-0.045072
C44	C	0.176676	0.823177	0.046375
C45	C	0.251298	0.823175	0.046300
C46	C	0.242911	0.932396	0.000537
C47	C	0.159901	1.041619	-0.045151
C48	C	0.334312	0.713954	0.091979
C49	C	0.408940	0.713948	0.091905
C50	C	0.400554	0.823170	0.046147
C51	C	0.317538	0.932397	0.000459
C52	C	0.309151	1.041619	-0.045304
C53	C	0.226136	1.150847	-0.090988
C54	C	0.151515	1.150841	-0.090909
C55	C	0.475175	0.823176	0.046068
C56	C	0.383778	1.041620	-0.045383
C57	C	0.780223	0.384046	0.000506
C58	C	0.780222	0.480750	0.000500
C59	C	1.014239	0.932396	0.000642
C60	C	1.093661	0.932396	0.000691
C61	C	0.780219	0.932395	-0.233515
C62	C	0.780217	0.932394	-0.312937
C63	C	0.780224	1.212052	0.000503
C64	C	0.780224	1.306965	0.000505
C65	C	0.825914	0.823173	-0.304527
C66	C	0.734525	1.041614	-0.395976
C67	C	0.734526	1.041617	-0.470599
C68	C	0.780222	0.932397	-0.462188
C69	C	0.825918	0.823173	-0.379155
C70	C	0.688838	1.150839	-0.553636
C71	C	0.688837	1.150846	-0.628266
C72	C	0.734529	1.041625	-0.619856
C73	C	0.780226	0.932397	-0.536816
C74	C	0.825923	0.823176	-0.528406
C75	C	0.871616	0.713947	-0.445367
C76	C	0.871610	0.713951	-0.370745
C77	C	0.734535	1.041620	-0.694478
C78	C	0.825927	0.823176	-0.603034
C79	C	0.780229	0.932399	0.234511
C80	C	0.780231	0.932399	0.313933
C81	C	1.014239	0.652741	0.000636
C82	C	1.093661	0.557828	0.000684
C83	C	0.780230	0.652743	0.234506
C84	C	0.780232	0.557831	0.313926
C85	C	1.014244	0.652743	0.234650
C86	C	1.093668	0.557831	0.314119
C87	C	0.546205	1.212051	-0.233654
C88	C	0.466780	1.306963	-0.313123
C89	C	0.546210	1.212053	0.000359
C90	C	0.466787	1.306965	0.000312
C91	C	0.780219	1.212050	-0.233510
C92	C	0.780217	1.306962	-0.312930
C93	C	1.085262	0.513255	-0.045026
C94	C	1.159881	0.424087	-0.044999
C95	C	1.242898	0.379487	0.000743
C96	C	1.251295	0.424068	0.046454
C97	C	1.176678	0.513241	0.046421
C98	C	0.825929	0.513260	0.396954
C99	C	0.825928	0.424093	0.471585
C100	C	0.780233	0.379492	0.463185
C101	C	0.734530	0.424072	0.380148
C102	C	0.734527	0.513244	0.305520
C103	C	1.176669	0.513259	0.305770
C104	C	1.251304	0.424091	0.380433
C105	C	1.242936	0.379491	0.463443
C106	C	1.159926	0.424072	0.471789
C107	C	1.085293	0.513244	0.397127
C108	C	0.383779	1.351546	-0.304775
C109	C	0.309145	1.440741	-0.379437
C110	C	0.317513	1.485345	-0.462447
C111	C	0.400523	1.440759	-0.470793
C112	C	0.475156	1.351571	-0.396132
C113	C	0.475187	1.351547	0.046014
C114	C	0.400568	1.440740	0.045967
C115	C	0.317551	1.485343	0.000222
C116	C	0.309153	1.440758	-0.045485
C117	C	0.383771	1.351573	-0.045443
C118	C	0.825921	1.351534	-0.304503
C119	C	0.825936	1.440702	-0.379119
C120	C	0.780242	1.485302	-0.462162
C121	C	0.734537	1.440721	-0.470588
C122	C	0.734527	1.351549	-0.395972
H123	H	0.376938	1.130562	-0.082639
C124	C	0.684277	1.161756	-0.785810
H125	H	0.657059	1.226802	-0.780131
H126	H	0.723721	1.166291	-0.816795
H127	H	0.641027	1.166301	-0.816848
H128	H	0.863113	0.734242	-0.236914
C129	C	0.684281	0.374990	0.370921
H130	H	0.690843	0.315489	0.427263
H131	H	0.624158	0.438992	0.339879
H132	H	0.706862	0.340179	0.339939
C133	C	0.876190	1.302482	-0.213163
H134	H	0.869640	1.242995	-0.169923
H135	H	0.936309	1.267688	-0.206583
H136	H	0.853623	1.366510	-0.206631
H137	H	0.697327	1.130536	-0.402817
H138	H	0.780257	1.557913	-0.522912
H139	H	1.303649	0.306876	0.000763
C140	C	0.921872	0.593809	-0.436119
H141	H	0.949086	0.528755	-0.375980
H142	H	0.882421	0.589290	-0.463368
H143	H	0.965124	0.589259	-0.463295
H144	H	0.908812	0.625023	-0.303131
H145	H	0.697317	0.549522	0.237917
C146	C	0.235476	1.583440	0.000183
H147	H	0.184827	1.603631	-0.033610
H148	H	0.235483	1.554204	0.058405
H149	H	0.235481	1.653018	-0.024286
C150	C	0.876207	0.375061	0.562916
H151	H	0.869661	0.315576	0.606165
H152	H	0.936325	0.340268	0.569492
H153	H	0.853639	0.439098	0.569437
C154	C	0.060204	1.270978	-0.141165
H155	H	0.016964	1.255332	-0.134573
H156	H	0.053716	1.315865	-0.118629
H157	H	0.053593	1.315846	-0.201311
C158	C	0.876184	0.562320	0.406210
H159	H	0.903385	0.523007	0.466352
H160	H	0.919433	0.547708	0.379033
H161	H	0.836726	0.646519	0.378973
H162	H	0.017681	1.130549	-0.082264
C163	C	0.374521	1.302527	-0.095705
H164	H	0.314391	1.341861	-0.122944
H165	H	0.401727	1.317129	-0.138935
H166	H	0.401724	1.218331	-0.056237
H167	H	0.341133	0.625032	0.129237
C168	C	0.876202	1.489739	-0.369836
H169	H	0.903398	1.450417	-0.309691
H170	H	0.919456	1.475119	-0.397007
H171	H	0.836752	1.573939	-0.397071
C172	C	0.993994	0.562260	0.406316
H173	H	0.950737	0.621761	0.349967
H174	H	0.987464	0.498225	0.437325
H175	H	0.987453	0.597053	0.437320
H176	H	0.407327	1.477087	-0.538389
H177	H	0.651631	1.239788	-0.695872
H178	H	1.017672	0.549568	-0.082285
H179	H	0.183498	0.734254	0.083629
C180	C	0.409821	1.489756	0.096256
H181	H	0.469951	1.450398	0.123517
H182	H	0.382622	1.573948	0.056809
H183	H	0.382609	1.475135	0.139485
H184	H	0.651641	1.239760	-0.560476
C185	C	0.566481	0.703041	0.096318
H186	H	0.560788	0.637994	0.123587
H187	H	0.597428	0.698499	0.056850
H188	H	0.597555	0.698504	0.139538
H189	H	0.697306	1.315268	-0.402846
C190	C	0.780249	0.281398	0.545282
H191	H	0.814019	0.261238	0.595931
H192	H	0.722033	0.310616	0.545263
H193	H	0.804726	0.211805	0.545309
C194	C	0.684269	1.489800	-0.561937
H195	H	0.690817	1.549301	-0.605162
H196	H	0.706822	1.425797	-0.568489
H197	H	0.624144	1.524611	-0.568523
C198	C	1.150628	0.375051	-0.095273
H199	H	1.090498	0.414374	-0.122503
H200	H	1.177824	0.389672	-0.138510
H201	H	1.177841	0.290851	-0.055809
C202	C	1.185892	0.562306	0.214470
H203	H	1.246019	0.522989	0.220204
H204	H	1.158686	0.547687	0.183439
H205	H	1.158677	0.646506	0.183447
C206	C	0.500247	0.593804	0.142163
H207	H	0.494552	0.528758	0.169433
H208	H	0.531195	0.589257	0.102697
H209	H	0.531320	0.589269	0.185382
H210	H	1.318898	0.387742	0.083695
C211	C	0.566498	1.302500	0.096332
H212	H	0.609743	1.242991	0.089824
H213	H	0.573041	1.366523	0.073765
H214	H	0.573044	1.267711	0.156458
C215	C	0.217832	1.489822	-0.095793
H216	H	0.174602	1.549310	-0.089258
H217	H	0.211268	1.524617	-0.155918
H218	H	0.211282	1.425798	-0.073219
H219	H	0.219317	1.239775	-0.128253
H220	H	0.863135	0.734234	-0.596175
C221	C	1.342603	0.375056	0.371236
H222	H	1.336891	0.414379	0.311104
H223	H	1.373623	0.389678	0.398453
H224	H	1.373615	0.290856	0.398466
H225	H	1.153125	0.387746	0.539385
C226	C	1.325036	0.281395	0.545562
H227	H	1.375665	0.261234	0.528694
H228	H	1.325054	0.310611	0.579330
H229	H	1.325049	0.211803	0.579317
C230	C	0.374561	1.302497	-0.213472
H231	H	0.430892	1.242987	-0.170193
H232	H	0.343560	1.366520	-0.206945
H233	H	0.343549	1.267710	-0.206948
H234	H	1.183529	0.549520	0.083648
H235	H	0.241562	1.477028	-0.372624
C236	C	0.235412	1.583433	-0.544567
H237	H	0.184784	1.603579	-0.527698
H238	H	0.235391	1.653025	-0.578336
H239	H	0.235403	1.554189	-0.578320
C240	C	0.566452	1.302525	-0.405325
H241	H	0.560739	1.341859	-0.465458
H242	H	0.597482	1.317125	-0.378098
H243	H	0.597454	1.218328	-0.378108
