data_functionalizedCrystal
_audit_creation_method	'MofGen! by Chris Wilmer'
_symmetry_space_group_name_H-M	'P1'
_symmetry_Int_Tables_number	1
_symmetry_cell_setting	triclinic
loop_
_symmetry_equiv_pos_as_xyz
  x,y,z
_cell_length_a	14.908742
_cell_length_b	14.908178
_cell_length_c	13.032268
_cell_angle_alpha	86.549870
_cell_angle_beta	79.154565
_cell_angle_gamma	90.210560
loop_
_atom_site_label
_atom_site_type_symbol
_atom_site_fract_x
_atom_site_fract_y
_atom_site_fract_z
Zn1	Zn	1.299450	-0.485780	0.471308
Zn2	Zn	1.799450	0.014220	0.971308
Zn3	Zn	1.311996	-0.617182	0.286936
Zn4	Zn	1.811996	-0.117182	0.786936
Zn5	Zn	1.168077	-0.460238	0.307093
Zn6	Zn	1.668077	0.039762	0.807093
Zn7	Zn	1.140265	-0.627552	0.472433
Zn8	Zn	1.640265	-0.127552	0.972433
O9	O	1.229947	-0.547688	0.384443
O10	O	1.729947	-0.047688	0.884443
O11	O	1.427964	-0.509560	0.437944
O12	O	1.927964	-0.009560	0.937944
O13	O	1.309794	-0.581334	0.143254
O14	O	1.809794	-0.081334	0.643254
O15	O	1.191893	-0.338613	0.336840
O16	O	1.691893	0.161387	0.836840
O17	O	1.437182	-0.606101	0.302487
O18	O	1.937182	-0.106101	0.802487
O19	O	1.288412	-0.357379	0.457489
O20	O	1.788412	0.142621	0.957489
O21	O	1.204058	-0.466028	0.158063
O22	O	1.704058	0.033972	0.658063
O23	O	1.037538	-0.476084	0.337932
O24	O	1.537538	0.023916	0.837932
O25	O	1.144492	-0.623775	0.618640
O26	O	1.644492	-0.123775	1.118640
O27	O	1.017105	-0.599008	0.459407
O28	O	1.517105	-0.099008	0.959407
O29	O	1.261444	-0.519616	0.617813
O30	O	1.761444	-0.019616	1.117813
O31	O	1.282826	-0.743571	0.303578
O32	O	1.782826	-0.243571	0.803578
O33	O	1.156657	-0.751190	0.439862
O34	O	1.656657	-0.251190	0.939862
C35	C	0.994430	-0.535900	0.400980
C36	C	1.494430	-0.035900	0.900980
C37	C	0.893671	-0.530881	0.408078
C38	C	1.393671	-0.030881	0.908078
C39	C	0.746837	-0.473655	0.488697
C40	C	1.246837	0.026345	0.988697
C41	C	0.841509	-0.478364	0.482034
C42	C	1.341509	0.021636	0.982034
C43	C	0.851155	-0.578696	0.340782
C44	C	1.351155	-0.078696	0.840782
C45	C	0.756483	-0.573988	0.347446
C46	C	1.256483	-0.073988	0.847446
C47	C	0.704327	-0.521464	0.421405
C48	C	1.204327	-0.021464	0.921405
C49	C	0.609655	-0.516751	0.428062
C50	C	1.109655	-0.016751	0.928062
C51	C	0.619302	-0.617088	0.286817
C52	C	1.119302	-0.117088	0.786817
C53	C	0.713974	-0.621797	0.280153
C54	C	1.213974	-0.121797	0.780153
C55	C	1.218107	-0.779798	0.369676
C56	C	1.718107	-0.279798	0.869676
C57	C	1.213120	-0.879104	0.363389
C58	C	1.713120	-0.379104	0.863389
C59	C	1.304152	-1.085110	0.477354
C60	C	1.804152	-0.585110	0.977354
C61	C	1.299469	-1.178417	0.471449
C62	C	1.799469	-0.678417	0.971449
C63	C	1.199068	-1.159027	0.345681
C64	C	1.699068	-0.659027	0.845681
C65	C	1.203751	-1.065720	0.351585
C66	C	1.703751	-0.565720	0.851585
C67	C	1.256295	-1.028765	0.417423
C68	C	1.756295	-0.528765	0.917423
C69	C	1.260982	-0.935456	0.423321
C70	C	1.760982	-0.435456	0.923321
C71	C	1.160577	-0.916068	0.297559
C72	C	1.660577	-0.416068	0.797559
C73	C	1.155895	-1.009375	0.291655
C74	C	1.655895	-0.509375	0.791655
C75	C	1.466383	-0.559523	0.367841
C76	C	1.966383	-0.059523	0.867841
C77	C	1.567139	-0.564566	0.360767
C78	C	2.067139	-0.064566	0.860767
C79	C	1.198466	-0.575701	0.657236
C80	C	1.698466	-0.075701	1.157236
C81	C	1.185051	-0.587639	0.773484
C82	C	1.685051	-0.087639	1.273484
C83	C	1.241856	-0.314675	0.399287
C84	C	1.741856	0.185325	0.899287
C85	C	1.246930	-0.215379	0.405613
C86	C	1.746930	0.284621	0.905613
C87	C	1.261361	-0.519722	0.112711
C88	C	1.761361	-0.019722	0.612711
C89	C	1.274964	-0.507542	-0.003534
C90	C	1.774964	-0.007542	0.496466
C91	C	1.236936	-0.541425	0.824902
C92	C	1.736936	-0.041425	1.324902
C93	C	1.223072	-0.553762	0.945051
C94	C	1.723072	-0.053762	1.445051
H95	H	0.876116	-0.439433	0.536830
H96	H	1.376116	0.060567	1.036830
F97	F	1.143131	-1.198373	0.275640
F98	F	1.643131	-0.698373	0.775640
H99	H	1.329648	-0.458834	0.951544
H100	H	1.829648	0.041166	1.451544
H101	H	1.113112	-1.039476	0.238054
H102	H	1.613112	-0.539476	0.738054
F103	F	0.554148	-0.460849	0.506772
F104	F	1.054148	0.039151	1.006772
H105	H	0.704372	-0.430879	0.548908
H106	H	1.204372	0.069121	1.048908
H107	H	1.291617	-0.492723	0.779974
H108	H	1.791617	0.007277	1.279974
F109	F	1.113568	-0.651288	0.832205
F110	F	1.613568	-0.151288	1.332205
F111	F	0.906676	-0.634599	0.262085
F112	F	1.406676	-0.134599	0.762085
F113	F	0.769491	-0.677695	0.201448
F114	F	1.269491	-0.177695	0.701448
H115	H	1.121612	-0.870180	0.248756
H116	H	1.621612	-0.370180	0.748756
F117	F	0.574055	-0.667969	0.215190
F118	F	1.074055	-0.167969	0.715190
F119	F	1.151586	-0.617415	1.003768
F120	F	1.651586	-0.117415	1.503768
H121	H	1.303769	-0.905369	0.476926
H122	H	1.803769	-0.405369	0.976926
H123	H	1.346942	-1.055021	0.530953
H124	H	1.846942	-0.555021	1.030953
F125	F	1.350402	-1.238381	0.535238
F126	F	1.850402	-0.738381	1.035238
