data_functionalizedCrystal
_audit_creation_method	'MofGen! by Chris Wilmer'
_symmetry_space_group_name_H-M	'P1'
_symmetry_Int_Tables_number	1
_symmetry_cell_setting	triclinic
loop_
_symmetry_equiv_pos_as_xyz
  x,y,z
_cell_length_a	13.185407
_cell_length_b	27.731996
_cell_length_c	12.376457
_cell_angle_alpha	101.172962
_cell_angle_beta	82.592400
_cell_angle_gamma	67.297436
loop_
_atom_site_label
_atom_site_type_symbol
_atom_site_fract_x
_atom_site_fract_y
_atom_site_fract_z
O1	O	1.470253	-0.138214	-0.093935
O2	O	1.970253	0.361786	0.406065
O3	O	1.151913	-0.089110	-0.093957
O4	O	1.651913	0.410890	0.406043
O5	O	1.320994	-0.185315	-0.093921
O6	O	1.820994	0.314685	0.406079
O7	O	1.301172	-0.042010	-0.093972
O8	O	1.801172	0.457990	0.406028
O9	O	1.278739	-0.161291	0.094082
O10	O	1.778739	0.338709	0.594082
O11	O	1.109658	-0.065086	0.094046
O12	O	1.609658	0.434914	0.594046
O13	O	1.427998	-0.114191	0.094068
O14	O	1.927998	0.385809	0.594068
Zn15	Zn	1.262119	-0.085824	0.123906
Zn16	Zn	1.762119	0.414176	0.623906
Zn17	Zn	1.317792	-0.117477	-0.123796
Zn18	Zn	1.817792	0.382523	0.376204
O19	O	1.258917	-0.017986	0.094032
O20	O	1.758917	0.482014	0.594032
C21	C	1.090071	-0.072120	0.000042
C22	C	1.590071	0.427880	0.500042
C23	C	0.968756	-0.057293	0.000034
C24	C	1.468756	0.442707	0.500034
C25	C	0.681934	-0.198802	0.000089
C26	C	1.181934	0.301198	0.500089
C27	C	0.795914	-0.212734	0.000103
C28	C	1.295914	0.287266	0.500103
C29	C	0.839130	-0.173875	0.000085
C30	C	1.339130	0.326125	0.500085
C31	C	0.768355	-0.121082	0.000054
C32	C	1.268355	0.378918	0.500054
C33	C	0.654362	-0.107148	0.000049
C34	C	1.154362	0.392852	0.500049
C35	C	0.811558	-0.082220	0.000046
C36	C	1.311558	0.417780	0.500046
C37	C	0.740783	-0.029427	0.000015
C38	C	1.240783	0.470573	0.500015
C39	C	0.626801	-0.015496	0.000009
C40	C	1.126801	0.484504	0.500009
C41	C	0.583585	-0.054354	0.000026
C42	C	1.083585	0.445646	0.500026
C43	C	0.925552	-0.096155	0.000051
C44	C	1.425552	0.403845	0.500051
C45	C	0.897980	-0.004500	0.000012
C46	C	1.397980	0.495500	0.500012
C47	C	0.783999	0.009432	-0.000003
C48	C	1.283999	0.509432	0.499997
C49	C	1.299458	-0.191258	0.000084
C50	C	1.799458	0.308742	0.500084
C51	C	1.298229	-0.244758	0.000096
C52	C	1.798229	0.255242	0.500096
C53	C	1.313553	-0.589597	-0.102441
C54	C	1.813553	-0.089597	0.397559
C55	C	1.308898	-0.790667	-0.102461
C56	C	1.808898	-0.290667	0.397539
O57	O	1.327837	-0.827793	-0.189617
O58	O	1.827837	-0.327793	0.310383
N59	N	1.285286	-0.802716	0.000019
N60	N	1.785286	-0.302716	0.500019
C61	C	1.262829	-0.764491	0.102510
C62	C	1.762829	-0.264491	0.602510
O63	O	1.242628	-0.779351	0.189675
O64	O	1.742628	-0.279351	0.689675
C65	C	1.267477	-0.563421	0.102529
C66	C	1.767477	-0.063421	0.602529
C67	C	1.291102	-0.551378	0.000043
C68	C	1.791102	-0.051378	0.500043
C69	C	1.337175	-0.577553	-0.204919
C70	C	1.837175	-0.077553	0.295081
C71	C	1.338344	-0.527290	-0.204913
C72	C	1.838344	-0.027290	0.295087
C73	C	1.315893	-0.489070	-0.102429
C74	C	1.815893	0.010930	0.397571
C75	C	1.292271	-0.501115	0.000049
C76	C	1.792271	-0.001115	0.500049
C77	C	1.245013	-0.525196	0.205020
C78	C	1.745013	-0.025196	0.705020
C79	C	1.246174	-0.474926	0.205016
C80	C	1.746174	0.025074	0.705016
C81	C	1.269799	-0.462883	0.102529
C82	C	1.769799	0.037117	0.602529
C83	C	1.270989	-0.412632	0.102539
C84	C	1.770989	0.087368	0.602539
N85	N	1.294601	-0.400584	0.000060
N86	N	1.794601	0.099416	0.500060
C87	C	1.317053	-0.438803	-0.102424
C88	C	1.817053	0.061197	0.397576
C89	C	1.260393	-0.870058	0.102493
C90	C	1.760393	-0.370058	0.602493
C91	C	1.259233	-0.920325	0.102489
C92	C	1.759233	-0.420325	0.602489
C93	C	1.305300	-0.946498	-0.102483
C94	C	1.805300	-0.446498	0.397517
C95	C	1.306467	-0.896230	-0.102477
C96	C	1.806467	-0.396230	0.397523
C97	C	1.284005	-0.858009	0.000014
C98	C	1.784005	-0.358009	0.500014
C99	C	1.319508	-0.333245	-0.102404
C100	C	1.819508	0.166755	0.397596
C101	C	1.320680	-0.282977	-0.102388
C102	C	1.820680	0.217023	0.397612
C103	C	1.274608	-0.256808	0.102583
C104	C	1.774608	0.243192	0.602583
C105	C	1.273442	-0.307073	0.102568
C106	C	1.773442	0.192927	0.602568
C107	C	1.295890	-0.345291	0.000066
C108	C	1.795890	0.154709	0.500066
O109	O	1.252048	-0.375479	0.189650
O110	O	1.752048	0.124521	0.689650
O111	O	1.337227	-0.423928	-0.189576
O112	O	1.837227	0.076072	0.310424
C113	C	1.312384	-0.639861	-0.102447
C114	C	1.812384	-0.139861	0.397553
C115	C	1.288763	-0.651905	0.000031
C116	C	1.788763	-0.151905	0.500031
C117	C	1.266311	-0.613686	0.102515
C118	C	1.766311	-0.113686	0.602515
C119	C	1.287603	-0.702173	0.000027
C120	C	1.787603	-0.202173	0.500027
C121	C	1.310054	-0.740392	-0.102457
C122	C	1.810054	-0.240392	0.397543
C123	C	1.333666	-0.728344	-0.204937
C124	C	1.833666	-0.228344	0.295063
C125	C	1.334836	-0.678080	-0.204931
C126	C	1.834836	-0.178080	0.295069
C127	C	1.242699	-0.625734	0.204994
C128	C	1.742699	-0.125734	0.704994
C129	C	1.241533	-0.675999	0.204980
C130	C	1.741533	-0.175999	0.704980
C131	C	1.263984	-0.714218	0.102496
C132	C	1.763984	-0.214218	0.602496
C133	C	1.489840	-0.131181	0.000066
C134	C	1.989840	0.368819	0.500066
C135	C	1.611157	-0.146009	0.000066
C136	C	2.111157	0.353991	0.500066
C137	C	1.280453	-0.012043	0.000024
C138	C	1.780453	0.487957	0.500024
C139	C	1.281685	0.041455	0.000005
C140	C	1.781685	0.541455	0.500005
N141	N	1.224132	-0.064223	0.292956
N142	N	1.724132	0.435777	0.792956
N143	N	1.355788	-0.139082	-0.292846
N144	N	1.855788	0.360918	0.207154
C145	C	1.443969	-0.189234	0.647988
C146	C	1.943969	0.310766	1.147988
C147	C	1.470550	-0.204352	0.529654
C148	C	1.970550	0.295648	1.029654
C149	C	1.408947	-0.169321	0.470474
C150	C	1.908947	0.330679	0.970474
C151	C	1.320760	-0.119170	0.529639
C152	C	1.820760	0.380830	1.029639
C153	C	1.294181	-0.104049	0.647985
C154	C	1.794181	0.395951	1.147985
C155	C	1.259160	-0.084136	0.470471
C156	C	1.759160	0.415864	0.970471
C157	C	1.170973	-0.033985	0.529636
C158	C	1.670973	0.466015	1.029636
C159	C	1.144398	-0.018867	0.647970
C160	C	1.644398	0.481133	1.147970
C161	C	1.206001	-0.053897	0.707151
C162	C	1.706001	0.446103	1.207151
C163	C	1.285738	-0.099257	0.352125
C164	C	1.785738	0.400743	0.852125
C165	C	1.135951	-0.014072	0.352122
C166	C	1.635951	0.485928	0.852122
C167	C	1.109370	0.001046	0.470456
C168	C	1.609370	0.501046	0.970456
H169	H	0.646728	-0.230431	0.000135
H170	H	1.146728	0.269569	0.500135
O171	O	1.001884	-0.153092	0.000084
O172	O	1.501884	0.346908	0.500084
H173	H	1.003844	-0.182185	-0.076538
H174	H	1.503844	0.317815	0.423462
O175	O	0.962065	-0.188897	0.000103
O176	O	1.462065	0.311103	0.500103
H177	H	1.004021	-0.232136	0.000121
H178	H	1.504021	0.267864	0.500121
O179	O	1.346145	-0.269987	-0.212934
O180	O	1.846145	0.230013	0.287066
H181	H	1.431481	-0.299920	-0.262081
H182	H	1.931481	0.200080	0.237919
H183	H	0.490775	-0.043015	0.000009
H184	H	0.990775	0.456985	0.500009
H185	H	1.072599	0.021972	0.696143
H186	H	1.572599	0.521972	1.196143
H187	H	0.569175	0.027494	-0.000005
H188	H	1.069175	0.527494	0.499995
O189	O	1.221957	-0.433706	0.315567
O190	O	1.721957	0.066294	0.815567
H191	H	1.146861	-0.396173	0.320478
H192	H	1.646861	0.103827	0.820478
H193	H	0.853530	-0.255718	0.000132
H194	H	1.353530	0.244282	0.500132
O195	O	1.216057	-0.688989	0.315524
O196	O	1.716057	-0.188989	0.815524
H197	H	1.130710	-0.659059	0.364649
H198	H	1.630710	-0.159059	0.864649
O199	O	1.360302	-0.665096	-0.315476
O200	O	1.860302	-0.165096	0.184524
H201	H	1.436463	-0.656832	-0.320393
H202	H	1.936463	-0.156832	0.179607
H203	H	1.337782	-0.364356	-0.185871
H204	H	1.837782	0.135644	0.314129
O205	O	0.707657	0.066375	-0.000015
O206	O	1.207657	0.566375	0.499985
H207	H	0.621135	0.069534	-0.000005
H208	H	1.121135	0.569534	0.499995
H209	H	0.933164	0.027143	0.000001
H210	H	1.433164	0.527143	0.500001
H211	H	1.357578	-0.517489	-0.288367
H212	H	1.857578	-0.017489	0.211633
O213	O	1.437596	-0.185627	0.342842
O214	O	1.937596	0.314373	0.842842
H215	H	1.509257	-0.226388	0.311642
H216	H	2.009257	0.273612	0.811642
O217	O	1.361366	-0.618768	-0.315464
O218	O	1.861366	-0.118768	0.184536
H219	H	1.377979	-0.601938	-0.386710
H220	H	1.877979	-0.101938	0.113290
O221	O	1.331928	-0.883238	-0.213013
O222	O	1.831928	-0.383238	0.286987
H223	H	1.347335	-0.918262	-0.284271
H224	H	1.847335	-0.418262	0.215729
O225	O	1.329502	-0.987721	-0.213024
O226	O	1.829502	-0.487721	0.286976
H227	H	1.324713	-1.024694	-0.195799
H228	H	1.824713	-0.524694	0.304201
H229	H	1.037566	0.041880	0.518643
H230	H	1.537566	0.541880	1.018643
H231	H	1.351952	-0.759472	-0.288383
H232	H	1.851952	-0.259472	0.211617
O233	O	1.233763	-0.933315	0.213026
O234	O	1.733763	-0.433315	0.713026
H235	H	1.218335	-0.898287	0.284284
H236	H	1.718335	-0.398287	0.784284
H237	H	1.225777	-0.534992	0.288475
H238	H	1.725777	-0.034992	0.788475
O239	O	1.247966	-0.320068	0.213102
O240	O	1.747966	0.179932	0.713102
H241	H	1.232546	-0.285044	0.284365
H242	H	1.732546	0.214956	0.784365
H243	H	1.242106	-0.838942	0.185958
H244	H	1.742106	-0.338942	0.685958
H245	H	1.542352	-0.245184	0.481486
H246	H	2.042352	0.254816	0.981486
O247	O	1.250391	-0.215582	0.213117
O248	O	1.750391	0.284418	0.713117
H249	H	1.255163	-0.178605	0.195894
H250	H	1.755163	0.321395	0.695894
H251	H	1.224418	-0.594620	0.288451
H252	H	1.724418	-0.094620	0.788451
O253	O	1.380830	-0.153349	0.288308
O254	O	1.880830	0.346651	0.788308
H255	H	1.460829	-0.155344	0.311003
H256	H	1.960829	0.344656	0.811003
O257	O	1.510408	-0.227013	0.711813
O258	O	2.010408	0.272987	1.211813
H259	H	1.477107	-0.208073	0.804040
H260	H	1.977107	0.291927	1.304040
O261	O	1.069483	0.023713	0.288310
O262	O	1.569483	0.523713	0.788310
H263	H	1.102767	0.004770	0.196082
H264	H	1.602767	0.504770	0.696082
H265	H	1.184356	-0.041590	0.803508
H266	H	1.684356	0.458410	1.303508
