data_functionalizedCrystal
_audit_creation_method	'MofGen! by Chris Wilmer'
_symmetry_space_group_name_H-M	'P1'
_symmetry_Int_Tables_number	1
_symmetry_cell_setting	triclinic
loop_
_symmetry_equiv_pos_as_xyz
  x,y,z
_cell_length_a	21.395362
_cell_length_b	18.215405
_cell_length_c	21.395364
_cell_angle_alpha	90.009394
_cell_angle_beta	90.027061
_cell_angle_gamma	90.037900
loop_
_atom_site_label
_atom_site_type_symbol
_atom_site_fract_x
_atom_site_fract_y
_atom_site_fract_z
Zn1	Zn	0.957793	-0.292804	0.354597
Zn2	Zn	0.957742	-0.415839	0.249825
Zn3	Zn	0.853039	-0.292825	0.249799
Zn4	Zn	0.852993	-0.415867	0.354530
O5	O	0.905392	-0.354334	0.302188
O6	O	1.045464	-0.309104	0.340738
O7	O	0.943851	-0.399517	0.162144
O8	O	0.866975	-0.189838	0.263718
O9	O	1.045427	-0.399497	0.263763
O10	O	0.943937	-0.189822	0.340713
O11	O	0.866926	-0.309139	0.162124
O12	O	0.765355	-0.309167	0.263652
O13	O	0.866897	-0.399546	0.442216
O14	O	0.765321	-0.399566	0.340597
O15	O	0.943893	-0.309132	0.442266
O16	O	0.943806	-0.518827	0.263697
O17	O	0.866848	-0.518848	0.340623
C18	C	0.742604	-0.354373	0.302115
C19	C	0.672963	-0.354407	0.302099
C20	C	0.905334	-0.545540	0.302169
C21	C	0.905366	-0.627339	0.302182
C22	C	0.640248	-0.401540	0.342104
C23	C	0.574813	-0.401522	0.342132
C24	C	0.542094	-0.354379	0.302143
C25	C	0.574816	-0.307236	0.262135
C26	C	0.640251	-0.307250	0.262113
C27	C	0.438385	-0.348443	0.245738
C28	C	0.372953	-0.348434	0.245759
C29	C	0.340274	-0.354331	0.302213
C30	C	0.373036	-0.360252	0.358646
C31	C	0.438470	-0.360266	0.358624
C32	C	0.471142	-0.354358	0.302163
C33	C	0.236607	-0.401447	0.342252
C34	C	0.171170	-0.401424	0.342281
C35	C	0.171175	-0.307142	0.262278
C36	C	0.236610	-0.307161	0.262255
C37	C	0.269322	-0.354317	0.302241
C38	C	0.945478	-0.892331	0.342335
C39	C	0.945457	-0.815472	0.342325
C40	C	0.865386	-0.815595	0.262077
C41	C	0.865410	-0.892453	0.262084
C42	C	0.905455	-0.930818	0.302216
C43	C	0.905410	-0.777102	0.302200
C44	C	0.905387	-0.693769	0.302189
C45	C	0.905479	-1.014157	0.302226
C46	C	1.068815	-0.354295	0.302261
C47	C	1.138456	-0.354279	0.302292
C48	C	0.905395	-0.354340	0.465611
C49	C	0.905397	-0.354343	0.535252
C50	C	0.905467	-0.162381	0.302220
C51	C	0.905499	-0.080582	0.302234
C52	C	0.945446	-0.401387	1.037059
C53	C	0.945445	-0.401392	0.971623
C54	C	0.905395	-0.354338	0.938890
C55	C	0.865333	-0.307288	0.971598
C56	C	0.865331	-0.307289	1.037032
C57	C	0.900477	-0.288033	0.835231
C58	C	0.900483	-0.288030	0.769798
C59	C	0.905398	-0.354334	0.737070
C60	C	0.910319	-0.420643	0.769782
C61	C	0.910317	-0.420644	0.835217
C62	C	0.905393	-0.354332	0.867938
C63	C	0.945453	-0.401391	0.633417
C64	C	0.945448	-0.401397	0.567981
C65	C	0.865339	-0.307286	0.567957
C66	C	0.865342	-0.307286	0.633392
C67	C	0.905402	-0.354337	0.666118
C68	C	0.905386	-0.354344	1.139400
C69	C	0.905391	-0.354340	1.069759
H70	H	0.666879	-0.439938	0.374665
N71	N	0.539518	-0.452359	0.385283
H72	H	0.570170	-0.482233	0.410611
H73	H	0.512324	-0.486359	0.359733
H74	H	0.263247	-0.268784	0.229675
H75	H	0.666886	-0.268867	0.229535
H76	H	0.978047	-0.784138	0.374992
H77	H	0.832781	-0.784350	0.229403
H78	H	0.832818	-0.923790	0.229411
H79	H	0.978065	-0.439702	1.063701
N80	N	0.822144	-0.256528	0.936296
H81	H	0.796769	-0.226722	0.966943
H82	H	0.793139	-0.286489	0.909124
N83	N	0.988648	-0.452139	0.936346
H84	H	1.014023	-0.481945	0.967010
H85	H	1.017653	-0.422169	0.909217
H86	H	0.914322	-0.474635	0.861849
H87	H	0.914322	-0.474634	0.743137
N88	N	0.473807	-0.366651	0.419486
H89	H	0.443181	-0.370386	0.455255
H90	H	0.500993	-0.321828	0.425359
H91	H	0.346430	-0.365053	0.404616
N92	N	0.988656	-0.452137	0.668721
H93	H	1.014028	-0.481947	0.638073
H94	H	0.963140	-0.486200	0.695855
N95	N	0.988647	-0.452148	0.532708
H96	H	1.014023	-0.481952	0.563371
H97	H	1.017650	-0.422182	0.505575
N98	N	0.271895	-0.452302	0.385378
H99	H	0.241239	-0.482155	0.410730
H100	H	0.299092	-0.422407	0.414407
H101	H	0.832729	-0.268975	0.541306
N102	N	0.135882	-0.452265	0.385429
H103	H	0.166537	-0.482142	0.410752
H104	H	0.108689	-0.486262	0.359876
N105	N	0.822127	-0.256545	1.072306
H106	H	0.796753	-0.226737	1.041644
H107	H	0.847643	-0.222480	1.099472
N108	N	0.473629	-0.342078	0.184845
H109	H	0.442948	-0.338332	0.149100
H110	H	0.500741	-0.386914	0.178953
H111	H	0.832727	-0.268973	0.660017
N112	N	0.895190	-0.216515	0.734517
H113	H	0.892072	-0.174513	0.765178
H114	H	0.856589	-0.217580	0.707343
H115	H	0.896516	-0.234032	0.861873
N116	N	0.988668	-0.933703	0.385624
H117	H	1.033439	-0.920277	0.375953
H118	H	0.982560	-0.988221	0.379529
N119	N	0.135895	-0.256287	0.219151
H120	H	0.089478	-0.263428	0.225236
H121	H	0.147287	-0.267659	0.174382
N122	N	0.337619	-0.342053	0.184895
H123	H	0.368248	-0.338310	0.149129
H124	H	0.310502	-0.296705	0.185876
H125	H	0.548173	-0.268850	0.229577
