data_functionalizedCrystal
_audit_creation_method	'MofGen! by Chris Wilmer'
_symmetry_space_group_name_H-M	'P1'
_symmetry_Int_Tables_number	1
_symmetry_cell_setting	triclinic
loop_
_symmetry_equiv_pos_as_xyz
  x,y,z
_cell_length_a	10.654562
_cell_length_b	11.792241
_cell_length_c	9.130313
_cell_angle_alpha	90.000005
_cell_angle_beta	90.005872
_cell_angle_gamma	84.341760
loop_
_atom_site_label
_atom_site_type_symbol
_atom_site_fract_x
_atom_site_fract_y
_atom_site_fract_z
O1	O	1.667379	0.159481	0.121896
O2	O	1.301860	0.174654	0.121878
O3	O	1.493490	0.001918	0.121877
O4	O	1.475749	0.332217	0.121897
O5	O	1.493476	0.001928	-0.121721
O6	O	1.301847	0.174664	-0.121721
O7	O	1.667366	0.159491	-0.121702
Cu8	Cu	1.484605	0.167078	-0.143954
Cu9	Cu	1.484621	0.167066	0.144130
O10	O	1.475736	0.332227	-0.121702
C11	C	1.255059	0.173542	0.000076
C12	C	1.115626	0.170200	0.000069
C13	C	1.050092	0.168646	-0.132705
C14	C	0.919079	0.165515	-0.132681
C15	C	0.919143	0.165495	0.132904
C16	C	1.050155	0.168618	0.132878
C17	C	1.115562	0.170228	-0.265514
C18	C	1.050029	0.168676	-0.398299
C19	C	0.919015	0.165544	-0.398275
C20	C	0.853536	0.163965	-0.265465
C21	C	1.492369	-0.040371	0.000078
C22	C	1.489033	-0.166392	0.000080
C23	C	1.482900	-0.397119	0.000104
C24	C	1.486308	-0.268726	0.000091
C25	C	1.714167	0.160603	0.000103
C26	C	1.853600	0.163945	0.000119
C27	C	1.476857	0.374516	0.000101
C28	C	1.480192	0.500537	0.000109
N29	N	1.484603	0.167086	-0.346577
C30	C	1.561236	0.236565	-0.423234
C31	C	1.561254	0.236544	-0.576571
C32	C	1.407997	0.097563	-0.576579
C33	C	1.407986	0.097579	-0.423245
C34	C	1.637853	0.306072	-0.346566
C35	C	1.714490	0.375558	-0.423224
C36	C	1.714509	0.375537	-0.576561
C37	C	1.637889	0.306030	-0.653240
N38	N	1.484632	0.167050	0.346752
H39	H	0.746856	0.161412	-0.265456
N40	N	0.848254	0.163799	-0.541426
H41	H	0.861268	0.234564	-0.599554
H42	H	0.755375	0.161514	-0.521023
N43	N	1.637836	0.306086	-0.181184
H44	H	1.610195	0.385366	-0.144266
H45	H	1.725661	0.281332	-0.144344
H46	H	1.103513	0.169889	0.240995
H47	H	1.637923	0.306008	-0.778097
H48	H	0.865819	0.164212	0.241031
H49	H	1.103352	0.169953	-0.506427
H50	H	1.776878	0.432140	-0.360782
N51	N	1.325363	0.022604	-0.659283
H52	H	1.264232	0.071495	-0.722920
H53	H	1.276899	-0.021400	-0.587361
N54	N	1.256869	0.173595	-0.265557
H55	H	1.298132	0.104106	-0.213441
H56	H	1.278644	0.244622	-0.213446
H57	H	1.776920	0.432106	-0.638971
N58	N	1.325337	0.022639	-0.340555
H59	H	1.379647	-0.032446	-0.276927
H60	H	1.276813	-0.021314	-0.412485
