data_functionalizedCrystal
_audit_creation_method	'MofGen! by Chris Wilmer'
_symmetry_space_group_name_H-M	'P1'
_symmetry_Int_Tables_number	1
_symmetry_cell_setting	triclinic
loop_
_symmetry_equiv_pos_as_xyz
  x,y,z
_cell_length_a	12.759401
_cell_length_b	12.759400
_cell_length_c	18.215384
_cell_angle_alpha	89.913814
_cell_angle_beta	89.942889
_cell_angle_gamma	90.007718
loop_
_atom_site_label
_atom_site_type_symbol
_atom_site_fract_x
_atom_site_fract_y
_atom_site_fract_z
Zn1	Zn	1.606758	-0.417450	-0.416064
Zn2	Zn	2.106758	0.082550	0.083936
Zn3	Zn	1.606563	-0.593356	-0.293019
Zn4	Zn	2.106563	-0.093356	0.206981
Zn5	Zn	1.430936	-0.417705	-0.293023
Zn6	Zn	1.930936	0.082295	0.206977
Zn7	Zn	1.431083	-0.593100	-0.416056
Zn8	Zn	1.931083	-0.093100	0.083944
O9	O	1.518835	-0.505403	-0.354541
O10	O	2.018835	-0.005403	0.145459
O11	O	1.753753	-0.440784	-0.399744
O12	O	2.253753	0.059216	0.100256
O13	O	1.583122	-0.570270	-0.190035
O14	O	2.083122	-0.070270	0.309965
O15	O	1.454279	-0.270650	-0.309350
O16	O	1.954279	0.229350	0.190650
O17	O	1.753610	-0.570022	-0.309344
O18	O	2.253610	-0.070022	0.190656
O19	O	1.583455	-0.270463	-0.399748
O20	O	2.083455	0.229537	0.100252
O21	O	1.454089	-0.441220	-0.190038
O22	O	1.954089	0.058780	0.309962
O23	O	1.283934	-0.440971	-0.309341
O24	O	1.783934	0.059029	0.190659
O25	O	1.454530	-0.569586	-0.519042
O26	O	1.954530	-0.069586	-0.019042
O27	O	1.284043	-0.569833	-0.399733
O28	O	1.784043	-0.069833	0.100267
O29	O	1.583598	-0.440536	-0.519048
O30	O	2.083598	0.059464	-0.019048
O31	O	1.583265	-0.740343	-0.309335
O32	O	2.083265	-0.240343	0.190665
O33	O	1.454341	-0.740155	-0.399730
O34	O	1.954341	-0.240155	0.100270
C35	C	1.245868	-0.505403	-0.354537
C36	C	1.745868	-0.005403	0.145463
C37	C	1.129091	-0.505428	-0.354553
C38	C	1.629091	-0.005428	0.145447
C39	C	1.518826	-0.778370	-0.354547
C40	C	2.018826	-0.278370	0.145453
C41	C	1.518919	-0.895147	-0.354575
C42	C	2.018919	-0.395147	0.145425
C43	C	1.519103	-0.505004	-0.546494
C44	C	2.019103	-0.005004	-0.046494
C45	C	1.519217	-0.504834	-0.628293
C46	C	2.019217	-0.004834	-0.128293
C47	C	1.792868	-0.505403	-0.354545
C48	C	2.292868	-0.005403	0.145455
C49	C	1.909645	-0.505404	-0.354546
C50	C	2.409645	-0.005404	0.145454
C51	C	1.964583	-0.438121	-0.401612
C52	C	2.464583	0.061879	0.098388
C53	C	2.074307	-0.438135	-0.401618
C54	C	2.574307	0.061865	0.098382
C55	C	2.074145	-0.572719	-0.307485
C56	C	2.574145	-0.072719	0.192515
C57	C	1.964423	-0.572709	-0.307484
C58	C	2.464423	-0.072709	0.192516
C59	C	1.518872	-0.231370	-0.354550
C60	C	2.018872	0.268630	0.145450
C61	C	1.518888	-0.114593	-0.354554
C62	C	2.018888	0.385407	0.145446
C63	C	1.451644	-0.059827	-0.307492
C64	C	1.951644	0.440173	0.192508
C65	C	1.451656	0.049897	-0.307504
C66	C	1.951656	0.549897	0.192496
C67	C	1.586165	0.050080	-0.401642
C68	C	2.086165	0.550080	0.098358
C69	C	1.586147	-0.059642	-0.401633
C70	C	2.086147	0.440358	0.098367
C71	C	1.518629	-0.505724	-0.163334
C72	C	2.018629	-0.005724	0.336666
C73	C	1.518718	-0.505598	-0.081535
C74	C	2.018718	-0.005598	0.418465
C75	C	1.452215	-0.572954	0.106864
C76	C	1.952215	-0.072954	0.606864
C77	C	1.452297	-0.572823	0.183722
C78	C	1.952297	-0.072823	0.683722
C79	C	1.585723	-0.437471	0.183302
C80	C	2.085723	0.062529	0.683302
C81	C	1.585635	-0.437598	0.106445
C82	C	2.085635	0.062402	0.606445
C83	C	1.518882	-0.505345	0.068228
C84	C	2.018882	-0.005345	0.568228
C85	C	1.519052	-0.505087	0.221944
C86	C	2.019052	-0.005087	0.721944
C87	C	1.519142	-0.504945	0.305277
C88	C	2.019142	-0.004945	0.805277
C89	C	1.518791	-0.505486	-0.015111
C90	C	2.018791	-0.005486	0.484889
H91	H	2.119033	-0.383348	-0.439944
H92	H	2.619033	0.116652	0.060056
O93	O	1.380204	-0.646007	0.065645
O94	O	1.880204	-0.146007	0.565645
H95	H	1.427556	-0.699188	0.030671
H96	H	1.927556	-0.199188	0.530671
H97	H	1.639924	-0.382536	0.074987
H98	H	2.139924	0.117464	0.574987
H99	H	1.919986	-0.383316	-0.439933
H100	H	2.419986	0.116684	0.060067
H101	H	1.640928	0.094831	-0.439971
H102	H	2.140928	0.594831	0.060029
O103	O	2.133225	-0.645296	-0.256715
O104	O	2.633225	-0.145296	0.243285
H105	H	2.218752	-0.633991	-0.264615
H106	H	2.718752	-0.133991	0.235385
O107	O	1.905161	-0.645274	-0.256709
O108	O	2.405161	-0.145274	0.243291
H109	H	1.926223	-0.727708	-0.269323
H110	H	2.426223	-0.227708	0.230677
H111	H	1.396875	-0.104564	-0.269160
H112	H	1.896875	0.395436	0.230840
H113	H	1.396899	0.094485	-0.269184
H114	H	1.896899	0.594485	0.230816
H115	H	1.398007	-0.627874	0.215176
H116	H	1.898007	-0.127874	0.715176
H117	H	1.640905	-0.104234	-0.439961
H118	H	2.140905	0.395766	0.060039
O119	O	1.657734	-0.364418	0.224521
O120	O	2.157734	0.135582	0.724521
H121	H	1.646607	-0.375697	0.284456
H122	H	2.146607	0.124303	0.784456
