data_functionalizedCrystal
_audit_creation_method	'MofGen! by Chris Wilmer'
_symmetry_space_group_name_H-M	'P1'
_symmetry_Int_Tables_number	1
_symmetry_cell_setting	triclinic
loop_
_symmetry_equiv_pos_as_xyz
  x,y,z
_cell_length_a	19.188930
_cell_length_b	14.044220
_cell_length_c	12.503572
_cell_angle_alpha	93.843168
_cell_angle_beta	86.479840
_cell_angle_gamma	88.166828
loop_
_atom_site_label
_atom_site_type_symbol
_atom_site_fract_x
_atom_site_fract_y
_atom_site_fract_z
O1	O	0.937478	0.112788	-0.089673
O2	O	0.735191	0.128718	-0.089600
O3	O	0.833298	-0.017218	-0.089625
O4	O	0.839371	0.258724	-0.089648
O5	O	0.825920	-0.006225	0.089019
O6	O	0.727814	0.139712	0.089044
O7	O	0.930100	0.123781	0.088971
Cu8	Cu	0.828284	0.132750	0.105319
Cu9	Cu	0.837008	0.119749	-0.105948
O10	O	0.831994	0.269718	0.088996
C11	C	0.826951	-0.047025	-0.000302
C12	C	0.819022	-0.152218	-0.000297
C13	C	0.705458	0.133700	-0.000269
C14	C	0.627852	0.132153	-0.000240
C15	C	0.804527	-0.344819	-0.000308
C16	C	0.860762	-0.402687	-0.000331
C17	C	0.852697	-0.509858	-0.000337
C18	C	0.812591	-0.237639	-0.000302
C19	C	0.588455	0.217782	-0.000265
C20	C	0.515538	0.216327	-0.000276
C21	C	0.482022	0.129237	-0.000285
C22	C	0.521428	0.043597	-0.000255
C23	C	0.594343	0.045056	-0.000233
N24	N	0.372258	0.058924	-0.061123
N25	N	0.302991	0.057544	-0.061147
C26	C	0.262332	0.124838	-0.000351
N27	N	0.293556	0.193577	0.060457
N28	N	0.362829	0.194959	0.060475
C29	C	0.402958	0.127646	-0.000309
C30	C	0.143870	0.208894	-0.000386
C31	C	0.070951	0.207436	-0.000391
C32	C	0.076843	0.034704	-0.000381
C33	C	0.149759	0.036165	-0.000365
C34	C	0.183269	0.123263	-0.000373
C35	C	0.959834	0.118799	-0.000363
C36	C	1.037440	0.120345	-0.000398
C37	C	0.838341	0.299524	-0.000330
C38	C	0.846270	0.404716	-0.000341
N39	N	0.822152	0.141894	0.253913
N40	N	0.843144	0.110598	-0.254542
C41	C	0.813134	0.155352	0.473030
C42	C	0.852161	0.097143	0.526347
C43	C	0.847142	0.104631	0.648272
C44	C	0.818151	0.147865	0.351095
H45	H	0.914967	-0.371747	-0.000423
H46	H	0.171153	0.279816	-0.000376
H47	H	0.750329	-0.375763	-0.000291
N48	N	0.763894	0.228815	0.533857
H49	H	0.776999	0.294832	0.514345
H50	H	0.714462	0.216933	0.514367
N51	N	0.624597	0.311718	-0.000281
H52	H	0.588570	0.365743	-0.000300
H53	H	0.651970	0.320171	0.065951
H54	H	0.483454	0.286058	-0.000293
H55	H	0.494135	-0.027313	-0.000277
H56	H	0.626420	-0.024676	-0.000214
H57	H	0.038874	0.277168	-0.000404
H58	H	0.049557	-0.036211	-0.000455
N59	N	0.192258	-0.056192	-0.000339
H60	H	0.159963	-0.111586	-0.000345
H61	H	0.225394	-0.063427	-0.066553
N62	N	0.901413	0.023679	0.465530
H63	H	0.898065	0.028674	0.385790
H64	H	0.950834	0.035532	0.485094
