data_functionalizedCrystal
_audit_creation_method	'MofGen! by Chris Wilmer'
_symmetry_space_group_name_H-M	'P1'
_symmetry_Int_Tables_number	1
_symmetry_cell_setting	triclinic
loop_
_symmetry_equiv_pos_as_xyz
  x,y,z
_cell_length_a	15.297475
_cell_length_b	16.959454
_cell_length_c	15.298431
_cell_angle_alpha	80.291033
_cell_angle_beta	88.369029
_cell_angle_gamma	80.323279
loop_
_atom_site_label
_atom_site_type_symbol
_atom_site_fract_x
_atom_site_fract_y
_atom_site_fract_z
Zn1	Zn	1.253544	-0.394808	-0.726685
Zn2	Zn	1.278785	-0.553050	-0.580197
Zn3	Zn	1.132391	-0.402494	-0.554911
Zn4	Zn	1.107032	-0.508545	-0.701333
O5	O	1.192938	-0.464724	-0.640782
O6	O	1.379474	-0.431208	-0.728445
O7	O	1.280543	-0.554921	-0.454259
O8	O	1.148511	-0.290867	-0.577725
O9	O	1.398019	-0.547468	-0.620821
O10	O	1.237522	-0.285220	-0.703926
O11	O	1.172987	-0.444308	-0.435681
O12	O	1.006445	-0.401153	-0.553142
O13	O	1.105290	-0.471615	-0.827280
O14	O	0.987814	-0.479068	-0.660718
O15	O	1.212932	-0.388053	-0.845906
O16	O	1.255953	-0.657754	-0.596239
O17	O	1.129766	-0.625056	-0.685237
C18	C	0.965345	-0.436116	-0.601436
C19	C	0.867976	-0.423892	-0.584625
C20	C	1.192867	-0.670084	-0.640754
C21	C	1.192912	-0.757943	-0.640785
C22	C	0.554866	-0.552093	-0.760938
C23	C	0.646349	-0.563584	-0.776730
C24	C	0.701760	-0.528662	-0.728706
C25	C	0.665679	-0.482247	-0.664885
C26	C	0.574188	-0.470760	-0.649086
C27	C	0.721082	-0.447329	-0.616854
C28	C	0.685001	-0.400915	-0.553033
C29	C	0.593518	-0.389430	-0.537237
C30	C	0.538107	-0.424352	-0.585262
C31	C	0.812574	-0.458816	-0.632653
C32	C	0.831896	-0.377484	-0.520801
C33	C	0.740412	-0.365993	-0.505008
C34	C	1.127315	-1.112438	-0.687131
C35	C	1.258790	-1.146422	-0.594563
C36	C	1.258760	-1.063874	-0.594550
C37	C	1.193007	-1.005604	-0.640827
C38	C	1.127282	-1.029882	-0.687117
C39	C	1.324479	-1.039590	-0.548253
C40	C	1.324451	-0.957037	-0.548237
C41	C	1.258701	-0.898765	-0.594520
C42	C	1.192974	-0.923047	-0.640813
C43	C	1.127220	-0.864777	-0.687090
C44	C	1.061496	-0.889058	-0.733388
C45	C	1.061531	-0.971610	-0.733400
C46	C	1.258666	-0.816213	-0.594509
C47	C	1.127187	-0.782221	-0.687075
C48	C	1.421420	-0.493445	-0.680281
C49	C	1.518785	-0.505684	-0.697114
C50	C	1.153467	-0.424012	-0.869266
C51	C	1.136646	-0.406663	-0.966633
C52	C	1.193030	-0.258562	-0.640833
C53	C	1.193069	-0.170708	-0.640854
C54	C	1.072744	-0.340919	-1.002697
C55	C	1.056929	-0.324618	-1.094175
C56	C	1.105020	-0.374056	-1.149600
C57	C	1.168928	-0.439798	-1.113538
C58	C	1.184739	-0.456104	-1.022049
C59	C	1.217015	-0.489241	-1.168953
C60	C	1.280923	-0.554983	-1.132890
C61	C	1.296732	-0.571285	-1.041410
C62	C	1.248642	-0.521848	-0.985986
C63	C	1.201203	-0.472934	-1.260441
C64	C	1.313198	-0.588119	-1.279794
C65	C	1.329013	-0.604420	-1.188315
C66	C	1.232306	-0.505228	-0.413194
C67	C	1.249296	-0.522375	-0.315858
H68	H	0.841941	-0.496607	-0.684617
H69	H	1.312319	-1.193870	-0.556881
H70	H	1.352360	-0.628374	-1.324922
C71	C	0.437466	-0.411700	-0.567906
N72	N	0.361661	-0.402167	-0.554840
C73	C	1.399306	-0.676739	-1.148633
N74	N	1.452249	-0.731210	-1.118743
C75	C	1.087623	-0.356120	-1.250230
N76	N	1.074521	-0.342605	-1.326028
H77	H	0.776249	-0.538020	-0.741568
C78	C	0.686032	-0.614640	-0.846929
N79	N	0.715921	-0.653099	-0.899807
H80	H	1.007956	-0.841605	-0.771062
C81	C	0.493909	-0.590505	-0.813754
N82	N	0.447995	-0.619439	-0.853538
C83	C	0.892844	-0.339064	-0.467972
N84	N	0.938756	-0.310130	-0.428185
C85	C	1.019859	-0.286541	-0.941726
N86	N	0.980025	-0.245577	-0.895801
C87	C	0.553832	-0.338374	-0.467031
N88	N	0.523942	-0.299916	-0.414153
C89	C	1.055019	-1.139148	-0.738053
N90	N	1.000564	-1.159267	-0.776405
H91	H	0.711022	-0.328202	-0.453044
H92	H	1.008022	-0.991387	-0.771092
H93	H	1.073645	-0.734780	-0.724764
C94	C	1.396792	-1.103691	-0.497338
N95	N	1.451259	-1.151976	-0.458983
H96	H	1.261518	-0.535114	-0.911496
C97	C	1.396744	-0.930336	-0.497302
N98	N	1.451194	-0.910225	-0.458936
C99	C	1.330958	-0.789507	-0.543585
N100	N	1.385415	-0.769394	-0.505229
C101	C	0.986641	-0.252298	-1.133839
N102	N	0.933700	-0.197819	-1.163715
C103	C	1.367056	-0.643586	-1.001748
N104	N	1.420035	-0.698034	-0.971878
H105	H	1.149170	-0.419406	-1.289795
