data_functionalizedCrystal
_audit_creation_method	'MofGen! by Chris Wilmer'
_symmetry_space_group_name_H-M	'P1'
_symmetry_Int_Tables_number	1
_symmetry_cell_setting	triclinic
loop_
_symmetry_equiv_pos_as_xyz
  x,y,z
_cell_length_a	14.628931
_cell_length_b	14.628931
_cell_length_c	14.560438
_cell_angle_alpha	59.999136
_cell_angle_beta	89.998789
_cell_angle_gamma	60.000000
loop_
_atom_site_label
_atom_site_type_symbol
_atom_site_fract_x
_atom_site_fract_y
_atom_site_fract_z
Zr1	Zr	0.880623	1.000576	-0.120525
O2	O	0.734665	1.191283	-0.267173
O3	O	0.925367	0.809870	-0.075570
O4	O	0.925371	1.000576	-0.267173
O5	O	0.734658	1.000576	0.075569
O6	O	1.075803	1.000576	-0.267173
O7	O	0.734661	1.000576	-0.075570
O8	O	1.075795	0.659438	0.075570
O9	O	0.734665	1.341714	-0.267174
O10	O	1.056715	0.888310	-0.056397
O11	O	0.944447	0.888310	0.056397
O12	O	0.944452	1.112842	-0.169191
O13	O	0.832184	1.112842	-0.056397
Zr14	Zr	1.120540	1.000575	0.120525
Zr15	Zr	1.120545	1.000575	-0.120525
Zr16	Zr	0.880618	1.000576	0.120525
Zr17	Zr	0.880623	1.240498	-0.120526
Zr18	Zr	1.120540	0.760653	0.120526
O19	O	1.075796	1.191281	0.075570
O20	O	1.075803	1.191282	-0.267173
O21	O	0.734658	1.191282	0.075569
O22	O	1.266498	0.809869	0.267173
O23	O	1.266505	0.809869	-0.075569
O24	O	0.925360	0.809870	0.267173
O25	O	1.266505	1.000575	-0.075569
O26	O	1.075792	1.000575	0.267173
O27	O	0.925360	1.000575	0.267173
O28	O	1.266502	1.000575	0.075570
O29	O	0.925371	1.341714	-0.267173
O30	O	1.075792	0.659437	0.267173
O31	O	1.266497	0.659437	0.267174
O32	O	1.266501	0.659437	0.075571
O33	O	0.734661	1.341714	-0.075571
O34	O	0.925367	1.341713	-0.075570
O35	O	1.056711	0.888309	0.169191
O36	O	1.168979	0.888309	0.056397
O37	O	1.056716	1.112841	-0.056397
O38	O	0.944448	1.112841	0.056397
C39	C	1.000581	0.700470	0.000000
C40	C	1.000581	0.598617	0.000001
C41	C	1.056273	0.553208	-0.055953
C42	C	1.056274	0.447938	-0.055954
C43	C	0.700476	1.000576	-0.000000
C44	C	0.598623	1.000577	-0.000001
C45	C	0.608903	0.889194	0.055953
C46	C	0.503634	0.889192	0.055954
C47	C	1.300687	1.000575	0.000000
C48	C	1.402540	1.000574	0.000001
C49	C	1.000587	1.000576	-0.301517
C50	C	1.000589	1.000576	-0.403849
C51	C	1.000582	1.300681	-0.000000
C52	C	1.000582	1.402534	-0.000001
C53	C	1.083459	1.000582	-0.451933
C54	C	1.083453	1.000576	-0.548082
C55	C	0.917700	1.000566	-0.548058
C56	C	0.917711	1.000562	-0.451906
C57	C	1.179152	1.000593	-0.451951
C58	C	1.179147	1.000588	-0.548100
C59	C	1.000575	1.000575	0.301517
C60	C	1.000573	1.000575	0.403849
C61	C	1.300687	0.700469	0.000001
C62	C	1.402540	0.598616	0.000001
C63	C	1.000575	0.700470	0.301518
C64	C	1.000573	0.598617	0.403850
C65	C	1.300681	0.700469	0.301518
C66	C	1.402532	0.598615	0.403851
C67	C	0.700482	1.300682	-0.301518
C68	C	0.598631	1.402536	-0.403851
C69	C	0.700476	1.300682	-0.000001
C70	C	0.598623	1.402535	-0.000001
C71	C	1.000588	1.300681	-0.301518
C72	C	1.000590	1.402535	-0.403850
C73	C	1.391793	0.550762	-0.058872
C74	C	1.487499	0.455068	-0.058876
C75	C	1.604694	0.455086	0.058877
C76	C	1.508990	0.550785	0.058873
C77	C	1.324132	0.550747	-0.126852
C78	C	1.419837	0.455052	-0.126856
C79	C	1.059174	0.550761	0.510803
C80	C	1.059163	0.455064	0.606952
C81	C	0.941948	0.455083	0.489179
C82	C	0.941953	0.550785	0.393034
C83	C	1.126851	0.550744	0.578799
C84	C	1.126840	0.455048	0.674947
C85	C	1.508984	0.550760	0.393053
C86	C	1.604680	0.455064	0.489209
C87	C	1.487457	0.455083	0.606958
C88	C	1.391764	0.550784	0.510803
C89	C	1.576663	0.550744	0.325072
C90	C	1.672359	0.455048	0.421228
H91	H	0.512262	0.793833	0.103850
H92	H	0.511887	1.095934	-0.047901
H93	H	0.393904	1.095938	-0.047911
H94	H	0.850241	1.000541	-0.412748
C95	C	1.253941	0.671784	-0.248465
H96	H	1.188991	0.736715	-0.248462
H97	H	1.297214	0.703178	-0.280004
H98	H	1.232295	0.650128	-0.291953
H99	H	1.216444	0.365445	0.727146
C100	C	1.120696	0.605952	-0.120662
H101	H	1.155645	0.563803	-0.155758
H102	H	1.070088	0.696308	-0.176343
H103	H	1.176122	0.590253	-0.069793
H104	H	1.305088	0.589757	0.519604
H105	H	1.576681	0.640335	0.272874
C106	C	1.431573	0.503623	-0.244454
H107	H	1.370569	0.591469	-0.296823
H108	H	1.499840	0.496546	-0.242191
H109	H	1.431531	0.452822	-0.266903
H110	H	1.273454	0.514780	-0.081990
H111	H	1.162429	1.093430	-0.468767
C112	C	1.564929	0.502174	0.256276
H113	H	1.625925	0.414323	0.292175
H114	H	1.496655	0.509266	0.251417
H115	H	1.564988	0.552963	0.182792
H116	H	1.255264	0.907751	-0.531289
C117	C	1.740839	0.503615	0.433015
H118	H	1.705120	0.591461	0.371724
H119	H	1.745664	0.496539	0.501604
H120	H	1.813983	0.452813	0.432972
H121	H	1.691375	0.416131	0.106808
C122	C	1.075999	0.671780	0.578809
H123	H	1.055070	0.656620	0.644052
H124	H	1.129747	0.690181	0.578814
H125	H	1.011786	0.743210	0.513566
H126	H	0.894222	0.589759	0.305950
H127	H	1.260889	0.910616	-0.380664
C128	C	1.167988	1.122145	-0.644434
H129	H	1.167995	1.122129	-0.709673
H130	H	1.099887	1.197129	-0.660360
H131	H	1.229215	1.122151	-0.622700
H132	H	0.850223	1.000553	-0.587195
C133	C	1.742543	0.333995	0.421242
H134	H	1.706463	0.349144	0.356002
H135	H	1.814696	0.315582	0.421243
H136	H	1.749747	0.262576	0.486488
H137	H	0.952894	0.441584	0.047900
C138	C	1.419856	0.333993	-0.075737
H139	H	1.354924	0.349140	-0.054702
H140	H	1.419860	0.315573	-0.129725
H141	H	1.484798	0.262581	-0.011223
H142	H	0.894222	0.416128	0.480386
H143	H	1.517749	0.589757	0.106802
H144	H	1.082194	0.491010	0.725870
C145	C	1.120689	0.395196	-0.120673
H146	H	1.155623	0.437345	-0.155783
H147	H	1.176109	0.304840	-0.069822
H148	H	1.070065	0.410890	-0.176363
C149	C	1.243892	0.502172	0.567002
H150	H	1.296011	0.414319	0.628284
H151	H	1.241629	0.509266	0.498405
H152	H	1.266251	0.552956	0.567057
H153	H	0.952904	0.559557	0.047906
H154	H	1.478703	0.416128	0.694048
C155	C	0.726069	0.760369	0.120666
H156	H	0.781452	0.777271	0.112169
H157	H	0.734525	0.712177	0.198141
H158	H	0.734521	0.712189	0.091593
