data_functionalizedCrystal
_audit_creation_method	'MofGen! by Chris Wilmer'
_symmetry_space_group_name_H-M	'P1'
_symmetry_Int_Tables_number	1
_symmetry_cell_setting	triclinic
loop_
_symmetry_equiv_pos_as_xyz
  x,y,z
_cell_length_a	12.759401
_cell_length_b	16.120484
_cell_length_c	12.759393
_cell_angle_alpha	92.862621
_cell_angle_beta	89.982549
_cell_angle_gamma	92.924448
loop_
_atom_site_label
_atom_site_type_symbol
_atom_site_fract_x
_atom_site_fract_y
_atom_site_fract_z
Zn1	Zn	1.584958	-0.331876	-0.615149
Zn2	Zn	2.084958	0.168124	-0.115149
Zn3	Zn	1.575913	-0.471314	-0.448362
Zn4	Zn	2.075913	0.028686	0.051638
Zn5	Zn	1.409261	-0.331917	-0.439491
Zn6	Zn	1.909261	0.168083	0.060509
Zn7	Zn	1.400310	-0.471246	-0.623999
Zn8	Zn	1.900310	0.028754	-0.123999
O9	O	1.492611	-0.401588	-0.531750
O10	O	1.992611	0.098412	-0.031750
O11	O	1.730779	-0.350383	-0.593033
O12	O	2.230779	0.149617	-0.093033
O13	O	1.553767	-0.452868	-0.300167
O14	O	2.053767	0.047132	0.199833
O15	O	1.440099	-0.215247	-0.455376
O16	O	1.940099	0.284753	0.044624
O17	O	1.724133	-0.452828	-0.470496
O18	O	2.224133	0.047172	0.029504
O19	O	1.569183	-0.215216	-0.584431
O20	O	2.069183	0.284784	-0.084431
O21	O	1.431328	-0.350454	-0.293649
O22	O	1.931328	0.149546	0.206351
O23	O	1.261053	-0.350389	-0.463957
O24	O	1.761053	0.149611	0.036043
O25	O	1.424844	-0.452713	-0.769843
O26	O	1.924844	0.047287	-0.269843
O27	O	1.254477	-0.452753	-0.599515
O28	O	1.754477	0.047247	-0.099515
O29	O	1.560504	-0.350318	-0.763341
O30	O	2.060504	0.149682	-0.263341
O31	O	1.545087	-0.587970	-0.479077
O32	O	2.045087	-0.087970	0.020923
O33	O	1.416073	-0.587920	-0.608117
O34	O	1.916073	-0.087920	-0.108117
C35	C	1.219645	-0.401569	-0.531734
C36	C	1.719645	0.098431	-0.031734
C37	C	1.102867	-0.401580	-0.531754
C38	C	1.602867	0.098420	-0.031754
C39	C	1.051452	-0.348338	-0.595670
C40	C	1.551452	0.151662	-0.095670
C41	C	0.941727	-0.348354	-0.595677
C42	C	1.441727	0.151646	-0.095677
C43	C	0.934841	-0.454862	-0.467851
C44	C	1.434841	0.045138	0.032149
C45	C	1.044565	-0.454841	-0.467838
C46	C	1.544565	0.045159	0.032162
C47	C	1.109755	-0.295078	-0.659585
C48	C	1.609755	0.204922	-0.159585
C49	C	1.058340	-0.241832	-0.723507
C50	C	1.558340	0.258168	-0.223507
C51	C	0.948615	-0.241848	-0.723515
C52	C	1.448615	0.258152	-0.223515
C53	C	0.890304	-0.295110	-0.659601
C54	C	1.390304	0.204890	-0.159601
C55	C	1.478656	-0.618195	-0.545543
C56	C	1.978656	-0.118195	-0.045543
C57	C	1.472782	-0.710860	-0.551478
C58	C	1.972782	-0.210860	-0.051478
C59	C	1.462064	-0.880521	-0.562337
C60	C	1.962064	-0.380521	-0.062337
C61	C	1.523346	-0.921815	-0.501181
C62	C	2.023346	-0.421815	-0.001181
C63	C	1.517382	-1.016220	-0.507223
C64	C	2.017382	-0.516220	-0.007223
C65	C	1.468026	-0.786108	-0.556296
C66	C	1.968026	-0.286108	-0.056296
C67	C	1.766643	-0.401609	-0.531767
C68	C	2.266643	0.098391	-0.031767
C69	C	1.883419	-0.401617	-0.531774
C70	C	2.383419	0.098383	-0.031774
C71	C	1.492684	-0.401503	-0.805778
C72	C	1.992684	0.098497	-0.305778
C73	C	1.492716	-0.401467	-0.922553
C74	C	1.992716	0.098533	-0.422553
C75	C	1.506649	-0.184136	-0.517927
C76	C	2.006649	0.315864	-0.017927
C77	C	1.512631	-0.091470	-0.512036
C78	C	2.012631	0.408530	-0.012036
C79	C	1.428991	-0.348130	-0.974026
C80	C	1.928991	0.151870	-0.474026
C81	C	1.429024	-0.348106	-1.083749
C82	C	1.929024	0.151894	-0.583749
C83	C	1.556516	-0.454757	-1.090515
C84	C	2.056516	0.045243	-0.590515
C85	C	1.556476	-0.454785	-0.980794
C86	C	2.056476	0.045215	-0.480794
C87	C	1.365231	-0.294812	-0.915785
C88	C	1.865231	0.205188	-0.415785
C89	C	1.301502	-0.241471	-0.967258
C90	C	1.801502	0.258529	-0.467258
C91	C	1.301535	-0.241446	-1.076981
C92	C	1.801535	0.258554	-0.576981
C93	C	1.365297	-0.294763	-1.135230
C94	C	1.865297	0.205237	-0.635230
C95	C	1.492602	-0.401613	-0.258784
C96	C	1.992602	0.098387	0.241216
C97	C	1.492789	-0.401414	-0.141996
C98	C	1.992789	0.098586	0.358004
H99	H	1.105823	-0.198463	-0.775537
H100	H	1.605823	0.301537	-0.275537
C101	C	1.385137	-0.928533	-0.639189
C102	C	1.885137	-0.428533	-0.139189
H103	H	1.347472	-0.890211	-0.676772
H104	H	1.847472	-0.390211	-0.176772
H105	H	1.337282	-0.962562	-0.601089
H106	H	1.837282	-0.462562	-0.101089
H107	H	1.423207	-0.962443	-0.687132
H108	H	1.923207	-0.462443	-0.187132
H109	H	1.365198	-0.294825	-0.826443
H110	H	1.865198	0.205175	-0.326443
H111	H	0.906756	-0.198486	-0.775555
H112	H	1.406756	0.301514	-0.275555
H113	H	0.887357	-0.498226	-0.415817
H114	H	1.387357	0.001774	0.084183
H115	H	1.249583	-0.198066	-0.919825
H116	H	1.749583	0.301934	-0.419825
C117	C	0.769609	-0.295129	-0.659613
C118	C	1.269609	0.204871	-0.159613
H119	H	0.747336	-0.255794	-0.706837
H120	H	1.247336	0.244206	-0.206837
H121	H	0.745684	-0.280656	-0.590926
H122	H	1.245684	0.219344	-0.090926
H123	H	0.741347	-0.348954	-0.681108
H124	H	1.241347	0.151046	-0.181108
H125	H	1.086428	-0.498196	-0.415792
H126	H	1.586428	0.001804	0.084208
C127	C	1.231437	-0.182775	-1.133600
C128	C	1.731437	0.317225	-0.633600
H129	H	1.193466	-0.151023	-1.083195
H130	H	1.693466	0.348977	-0.583195
H131	H	1.183612	-0.214647	-1.178427
H132	H	1.683612	0.285353	-0.678427
H133	H	1.273997	-0.146442	-1.174093
H134	H	1.773997	0.353558	-0.674093
H135	H	1.580288	-0.886267	-0.444286
H136	H	2.080288	-0.386267	0.055714
H137	H	1.365317	-0.294740	-1.224574
H138	H	1.865317	0.205260	-0.724574
H139	H	1.608431	-0.498163	-1.137949
H140	H	2.108431	0.001837	-0.637949
C141	C	1.626569	-0.513456	-0.924169
C142	C	2.126569	-0.013456	-0.424169
H143	H	1.664558	-0.545199	-0.974568
H144	H	2.164558	-0.045199	-0.474568
H145	H	1.584012	-0.549785	-0.883676
H146	H	2.084012	-0.049785	-0.383676
H147	H	1.674395	-0.481577	-0.879339
H148	H	2.174395	0.018423	-0.379339
H149	H	1.199099	-0.295058	-0.659586
H150	H	1.699099	0.204942	-0.159586
