data_functionalizedCrystal
_audit_creation_method	'MofGen! by Chris Wilmer'
_symmetry_space_group_name_H-M	'P1'
_symmetry_Int_Tables_number	1
_symmetry_cell_setting	triclinic
loop_
_symmetry_equiv_pos_as_xyz
  x,y,z
_cell_length_a	19.077105
_cell_length_b	25.639239
_cell_length_c	19.076919
_cell_angle_alpha	92.268407
_cell_angle_beta	90.076224
_cell_angle_gamma	87.734929
loop_
_atom_site_label
_atom_site_type_symbol
_atom_site_fract_x
_atom_site_fract_y
_atom_site_fract_z
Zn1	Zn	1.058187	-0.252939	-0.440398
Zn2	Zn	1.558187	0.247061	0.059602
Zn3	Zn	1.062799	-0.337004	-0.322884
Zn4	Zn	1.562799	0.162996	0.177116
Zn5	Zn	0.945407	-0.245935	-0.318192
Zn6	Zn	1.445407	0.254065	0.181808
Zn7	Zn	0.940620	-0.336689	-0.435637
Zn8	Zn	1.440620	0.163311	0.064363
O9	O	1.001753	-0.293142	-0.379278
O10	O	1.501753	0.206858	0.120722
O11	O	1.157129	-0.267153	-0.428766
O12	O	1.657129	0.232847	0.071234
O13	O	1.051160	-0.322124	-0.223931
O14	O	1.551160	0.177876	0.276069
O15	O	0.960440	-0.173702	-0.334431
O16	O	1.460440	0.326298	0.165569
O17	O	1.160518	-0.328916	-0.342429
O18	O	1.660518	0.171084	0.157571
O19	O	1.043299	-0.178848	-0.424215
O20	O	1.543299	0.321152	0.075785
O21	O	0.964912	-0.255216	-0.220483
O22	O	1.464912	0.244784	0.279517
O23	O	0.846441	-0.254910	-0.329815
O24	O	1.346441	0.245090	0.170185
O25	O	0.952283	-0.328378	-0.534600
O26	O	1.452283	0.171622	-0.034600
O27	O	0.842925	-0.321587	-0.416101
O28	O	1.342925	0.178413	0.083899
O29	O	1.038658	-0.266848	-0.538097
O30	O	1.538658	0.233152	-0.038097
O31	O	1.046519	-0.410124	-0.337813
O32	O	1.546519	0.089876	0.162187
O33	O	0.956755	-0.409893	-0.420652
O34	O	1.456755	0.090107	0.079348
C35	C	0.819187	-0.287455	-0.371933
C36	C	1.319187	0.212545	0.128067
C37	C	0.741083	-0.285035	-0.368807
C38	C	1.241083	0.214965	0.131193
C39	C	0.702581	-0.318661	-0.412193
C40	C	1.202581	0.181339	0.087807
C41	C	0.629194	-0.316381	-0.409259
C42	C	1.129194	0.183619	0.090741
C43	C	0.594312	-0.280476	-0.362936
C44	C	1.094312	0.219524	0.137064
C45	C	0.632820	-0.246846	-0.319549
C46	C	1.132820	0.253154	0.180451
C47	C	0.706205	-0.249125	-0.322486
C48	C	1.206205	0.250875	0.177514
C49	C	0.375028	-0.269932	-0.349344
C50	C	0.875028	0.230068	0.150656
C51	C	0.301638	-0.267658	-0.346409
C52	C	0.801638	0.232342	0.153591
C53	C	0.298017	-0.337192	-0.436121
C54	C	0.798017	0.162808	0.063879
C55	C	0.371404	-0.339469	-0.439051
C56	C	0.871404	0.160531	0.060949
C57	C	0.409905	-0.305837	-0.395666
C58	C	0.909905	0.194163	0.104334
N59	N	0.519299	-0.278146	-0.359935
N60	N	1.019299	0.221854	0.140065
N61	N	0.484917	-0.308166	-0.398671
N62	N	0.984917	0.191834	0.101329
C63	C	1.001636	-0.428980	-0.379241
C64	C	1.501636	0.071020	0.120759
C65	C	1.001650	-0.487094	-0.379251
C66	C	1.501650	0.012906	0.120749
C67	C	1.048607	-0.847575	-0.336225
C68	C	1.548607	-0.347575	0.163775
C69	C	1.048634	-0.902180	-0.336235
C70	C	1.548634	-0.402180	0.163765
O71	O	1.088438	-0.930513	-0.299613
O72	O	1.588438	-0.430513	0.200387
N73	N	1.001875	-0.929386	-0.379329
N74	N	1.501875	-0.429386	0.120671
C75	C	0.955090	-0.901983	-0.422421
C76	C	1.455090	-0.401983	0.077579
O77	O	0.915321	-0.930137	-0.459077
O78	O	1.415321	-0.430137	0.040923
C79	C	0.955067	-0.847379	-0.422413
C80	C	1.455067	-0.347379	0.077587
C81	C	1.001825	-0.820176	-0.379311
C82	C	1.501825	-0.320176	0.120689
C83	C	1.095362	-0.820372	-0.293127
C84	C	1.595362	-0.320372	0.206873
C85	C	1.095334	-0.765771	-0.293116
C86	C	1.595334	-0.265771	0.206884
C87	C	1.048551	-0.738372	-0.336202
C88	C	1.548551	-0.238372	0.163798
C89	C	1.001797	-0.765574	-0.379300
C90	C	1.501797	-0.265574	0.120700
C91	C	0.908287	-0.819977	-0.465508
C92	C	1.408287	-0.319977	0.034492
C93	C	0.908268	-0.765369	-0.465497
C94	C	1.408268	-0.265369	0.034503
C95	C	0.955026	-0.738167	-0.422395
C96	C	1.455026	-0.238167	0.077605
C97	C	0.954987	-0.683574	-0.422375
C98	C	1.454987	-0.183574	0.077625
N99	N	1.001746	-0.656368	-0.379282
N100	N	1.501746	-0.156368	0.120718
C101	C	1.048528	-0.683767	-0.336195
C102	C	1.548528	-0.183767	0.163805
C103	C	0.955143	-1.016656	-0.422434
C104	C	1.455143	-0.516656	0.077566
C105	C	0.955162	-1.071259	-0.422438
C106	C	1.455162	-0.571259	0.077562
C107	C	1.048707	-1.071452	-0.336253
C108	C	1.548707	-0.571452	0.163747
C109	C	1.048684	-1.016848	-0.336246
C110	C	1.548684	-0.516848	0.163754
C111	C	1.001902	-0.989450	-0.379340
C112	C	1.501902	-0.489450	0.120660
C113	C	1.048466	-0.569100	-0.336174
C114	C	1.548466	-0.069100	0.163826
C115	C	1.048432	-0.514493	-0.336164
C116	C	1.548432	-0.014493	0.163836
C117	C	0.954890	-0.514304	-0.422351
C118	C	1.454890	-0.014304	0.077649
C119	C	0.954921	-0.568906	-0.422359
C120	C	1.454921	-0.068906	0.077641
C121	C	1.001715	-0.596303	-0.379268
C122	C	1.501715	-0.096303	0.120732
O123	O	0.915205	-0.655207	-0.458982
O124	O	1.415205	-0.155207	0.041018
O125	O	1.088298	-0.655607	-0.299552
O126	O	1.588298	-0.155607	0.200448
C127	C	1.185032	-0.298851	-0.386652
C128	C	1.685032	0.201149	0.113348
C129	C	1.263135	-0.301284	-0.389794
C130	C	1.763135	0.198716	0.110206
C131	C	0.994422	-0.298359	-0.562557
C132	C	1.494422	0.201641	-0.062557
C133	C	0.991298	-0.300582	-0.640660
C134	C	1.491298	0.199418	-0.140660
C135	C	1.001889	-0.156774	-0.379331
C136	C	1.501889	0.343226	0.120669
C137	C	1.001947	-0.098662	-0.379354
C138	C	1.501947	0.401338	0.120646
C139	C	1.034799	-0.269593	-0.679175
C140	C	1.534799	0.230407	-0.179175
C141	C	1.031855	-0.271680	-0.752561
C142	C	1.531855	0.228320	-0.252561
C143	C	0.985413	-0.304759	-0.787430
C144	C	1.485413	0.195241	-0.287430
C145	C	0.941907	-0.335750	-0.748910
C146	C	1.441907	0.164250	-0.248910
C147	C	0.944848	-0.333660	-0.675526
C148	C	1.444848	0.166340	-0.175526
C149	C	0.971792	-0.314442	-1.006711
C150	C	1.471792	0.185558	-0.506711
C151	C	0.968856	-0.316531	-1.080100
C152	C	1.468856	0.183469	-0.580100
C153	C	1.058803	-0.252460	-1.083746
C154	C	1.558803	0.247540	-0.583746
C155	C	1.061742	-0.250375	-1.010361
C156	C	1.561742	0.249625	-0.510361
C157	C	1.018234	-0.281364	-0.971846
C158	C	1.518234	0.218636	-0.471846
N159	N	0.982404	-0.306894	-0.862442
N160	N	1.482404	0.193106	-0.362442
N161	N	1.021240	-0.279226	-0.896836
N162	N	1.521240	0.220774	-0.396836
C163	C	1.009096	-0.287908	-0.196713
C164	C	1.509096	0.212092	0.303287
C165	C	1.012356	-0.285541	-0.118616
C166	C	1.512356	0.214459	0.381384
H167	H	0.266661	-0.364572	-0.471443
H168	H	0.766661	0.135428	0.028557
H169	H	1.086507	-0.492346	-0.301063
H170	H	1.586507	0.007654	0.198937
C171	C	0.263269	-0.228157	-0.295448
C172	C	0.763269	0.271843	0.204552
N173	N	0.234369	-0.198408	-0.257066
N174	N	0.734369	0.301592	0.242934
C175	C	0.417370	-0.232939	-0.301615
C176	C	0.917370	0.267061	0.198385
N177	N	0.449265	-0.205075	-0.265661
N178	N	0.949265	0.294925	0.234339
C179	C	0.594446	-0.207349	-0.268594
C180	C	1.094446	0.292651	0.231406
N181	N	0.565544	-0.177601	-0.230213
N182	N	1.065544	0.322399	0.269787
C183	C	0.740944	-0.358160	-0.463152
C184	C	1.240944	0.141840	0.036848
N185	N	0.769838	-0.387910	-0.501538
N186	N	1.269838	0.112090	-0.001538
H187	H	0.870174	-0.743065	-0.500592
H188	H	1.370174	-0.243065	-0.000592
H189	H	0.931035	-0.343470	-1.108489
H190	H	1.431035	0.156530	-0.608489
C191	C	0.903679	-0.986523	-0.469847
C192	C	1.403679	-0.486523	0.030153
N193	N	0.864920	-0.963830	-0.505562
N194	N	1.364920	-0.463830	-0.005562
C195	C	1.112825	-0.213979	-0.972010
C196	C	1.612825	0.286021	-0.472010
N197	N	1.151301	-0.186565	-0.943124
N198	N	1.651301	0.313435	-0.443124
C199	C	0.748558	-0.212134	-0.274757
C200	C	1.248558	0.287866	0.225243
N201	N	0.780457	-0.184270	-0.238806
N202	N	1.280457	0.315730	0.261194
H203	H	0.597848	-0.343764	-0.444588
H204	H	1.097848	0.156236	0.055412
C205	C	0.903434	-0.484155	-0.469747
C206	C	1.403434	0.015845	0.030253
N207	N	0.864682	-0.461446	-0.505451
N208	N	1.364682	0.038554	-0.005451
H209	H	0.399800	-0.368707	-0.476771
H210	H	0.899800	0.131293	0.023229
C211	C	1.085888	-0.233202	-0.640826
C212	C	1.585888	0.266798	-0.140826
N213	N	1.124368	-0.205789	-0.611943
N214	N	1.624368	0.294211	-0.111943
C215	C	1.099938	-0.599228	-0.288767
C216	C	1.599938	-0.099228	0.211233
N217	N	1.138702	-0.621920	-0.253057
N218	N	1.638702	-0.121920	0.246943
C219	C	1.146766	-0.735854	-0.245694
C220	C	1.646766	-0.235854	0.254306
N221	N	1.185506	-0.713325	-0.209971
N222	N	1.685506	-0.213325	0.290029
C223	C	0.890814	-0.372133	-0.787269
C224	C	1.390814	0.127867	-0.287269
N225	N	0.852328	-0.399537	-0.816160
N226	N	1.352328	0.100463	-0.316160
H227	H	1.133461	-0.842675	-0.258040
H228	H	1.633461	-0.342675	0.241960
C229	C	1.100122	-0.986930	-0.288833
C230	C	1.600122	-0.486930	0.211167
N231	N	1.138869	-0.964399	-0.253121
N232	N	1.638869	-0.464399	0.246879
H233	H	1.086802	-1.093771	-0.301172
H234	H	1.586802	-0.593771	0.198828
H235	H	0.917081	-1.093402	-0.457529
H236	H	1.417081	-0.593402	0.042471
H237	H	0.870208	-0.842116	-0.500603
H238	H	1.370208	-0.342116	-0.000603
H239	H	1.067280	-0.246446	-0.783917
H240	H	1.567280	0.253554	-0.283917
H241	H	1.094224	-0.227230	-1.115112
H242	H	1.594224	0.272770	-0.615112
H243	H	0.916849	-0.591056	-0.457458
H244	H	1.416849	-0.091056	0.042542
H245	H	0.936374	-0.339684	-0.975362
H246	H	1.436374	0.160316	-0.475362
C247	C	0.896995	-0.367752	-0.633159
C248	C	1.396995	0.132248	-0.133159
N249	N	0.860949	-0.393430	-0.601250
N250	N	1.360949	0.106570	-0.101250
