data_functionalizedCrystal
_audit_creation_method	'MofGen! by Chris Wilmer'
_symmetry_space_group_name_H-M	'P1'
_symmetry_Int_Tables_number	1
_symmetry_cell_setting	triclinic
loop_
_symmetry_equiv_pos_as_xyz
  x,y,z
_cell_length_a	16.120530
_cell_length_b	16.625546
_cell_length_c	16.625527
_cell_angle_alpha	90.087861
_cell_angle_beta	87.040224
_cell_angle_gamma	92.882099
loop_
_atom_site_label
_atom_site_type_symbol
_atom_site_fract_x
_atom_site_fract_y
_atom_site_fract_z
Zn1	Zn	1.274930	0.383088	-0.518345
Zn2	Zn	1.774930	0.883088	-0.018345
Zn3	Zn	1.274734	0.518057	-0.383498
Zn4	Zn	1.774734	1.018057	0.116502
Zn5	Zn	1.135410	0.376407	-0.376692
Zn6	Zn	1.635410	0.876407	0.123308
Zn7	Zn	1.135475	0.511041	-0.511467
Zn8	Zn	1.635475	1.011041	-0.011467
O9	O	1.205137	0.447148	-0.447501
O10	O	1.705137	0.947148	0.052499
O11	O	1.391574	0.406724	-0.506185
O12	O	1.891574	0.906724	-0.006185
O13	O	1.256143	0.499407	-0.269757
O14	O	1.756143	0.999407	0.230243
O15	O	1.153972	0.264463	-0.395513
O16	O	1.653972	0.764463	0.104487
O17	O	1.391430	0.505885	-0.407113
O18	O	1.891430	1.005885	0.092887
O19	O	1.256477	0.269372	-0.499585
O20	O	1.756477	0.769372	0.000415
O21	O	1.153782	0.395337	-0.264757
O22	O	1.653782	0.895337	0.235243
O23	O	1.018748	0.388534	-0.388843
O24	O	1.518748	0.888534	0.111157
O25	O	1.154083	0.493928	-0.625218
O26	O	1.654083	0.993928	-0.125218
O27	O	1.018796	0.487449	-0.487862
O28	O	1.518796	0.987449	0.012138
O29	O	1.256540	0.399921	-0.630271
O30	O	1.756540	0.899921	-0.130271
O31	O	1.256206	0.629956	-0.400443
O32	O	1.756206	1.129956	0.099557
O33	O	1.153893	0.624801	-0.494461
O34	O	1.653893	1.124801	0.005539
C35	C	1.205058	0.656635	-0.447463
C36	C	1.705058	1.156635	0.052537
C37	C	1.205101	0.746258	-0.447478
C38	C	1.705101	1.246258	0.052522
C39	C	0.988521	0.436506	-0.436868
C40	C	1.488521	0.936506	0.063132
C41	C	0.895852	0.431973	-0.432339
C42	C	1.395852	0.931973	0.067661
C43	C	1.205341	0.446887	-0.657820
C44	C	1.705341	0.946887	-0.157820
C45	C	1.205427	0.446776	-0.747446
C46	C	1.705427	0.946776	-0.247446
C47	C	0.726184	0.423677	-0.424076
C48	C	1.226184	0.923677	0.075924
C49	C	0.684931	0.470678	-0.470984
C50	C	1.184931	0.970678	0.029016
C51	C	0.590522	0.466063	-0.466387
C52	C	1.090522	0.966063	0.033613
C53	C	0.820601	0.428292	-0.428672
C54	C	1.320601	0.928292	0.071328
C55	C	1.422599	0.457832	-0.458175
C56	C	1.922599	0.957832	0.041825
C57	C	1.515268	0.462385	-0.462724
C58	C	2.015268	0.962385	0.037276
C59	C	1.205239	0.236844	-0.447557
C60	C	1.705239	0.736844	0.052443
C61	C	1.205282	0.147225	-0.447581
C62	C	1.705282	0.647225	0.052419
C63	C	1.205246	1.074441	-0.447569
C64	C	1.705246	1.574441	0.052431
C65	C	1.205203	0.983130	-0.447545
C66	C	1.705203	1.483130	0.052455
C67	C	1.205173	0.910353	-0.447523
C68	C	1.705173	1.410353	0.052477
C69	C	1.205131	0.819036	-0.447500
C70	C	1.705131	1.319036	0.052500
C71	C	1.204982	0.447352	-0.238002
C72	C	1.704982	0.947352	0.261998
C73	C	1.205057	0.447244	-0.148385
C74	C	1.705057	0.947244	0.351615
C75	C	1.205367	0.446864	0.179775
C76	C	1.705367	0.946864	0.679775
C77	C	1.205283	0.446973	0.088471
C78	C	1.705283	0.946973	0.588471
C79	C	1.205212	0.447055	0.015698
C80	C	1.705212	0.947055	0.515698
C81	C	1.205129	0.447162	-0.075612
C82	C	1.705129	0.947162	0.424388
H83	H	0.690601	0.379976	-0.380466
H84	H	1.190601	0.879976	0.119534
O85	O	0.732057	0.528577	-0.528755
O86	O	1.232057	1.028577	-0.028755
H87	H	0.799889	0.523168	-0.523342
H88	H	1.299889	1.023168	-0.023342
