data_functionalizedCrystal
_audit_creation_method	'MofGen! by Chris Wilmer'
_symmetry_space_group_name_H-M	'P1'
_symmetry_Int_Tables_number	1
_symmetry_cell_setting	triclinic
loop_
_symmetry_equiv_pos_as_xyz
  x,y,z
_cell_length_a	19.077068
_cell_length_b	19.805407
_cell_length_c	19.805399
_cell_angle_alpha	89.980803
_cell_angle_beta	87.730571
_cell_angle_gamma	87.676776
loop_
_atom_site_label
_atom_site_type_symbol
_atom_site_fract_x
_atom_site_fract_y
_atom_site_fract_z
Zn1	Zn	-0.280290	-1.023901	0.393530
Zn2	Zn	0.053044	-0.690568	0.726863
Zn3	Zn	0.386377	-0.357235	1.060197
Zn4	Zn	-0.397988	-1.019266	0.284884
Zn5	Zn	-0.064655	-0.685933	0.618217
Zn6	Zn	0.268678	-0.352600	0.951551
Zn7	Zn	-0.280301	-0.910715	0.280356
Zn8	Zn	0.053032	-0.577382	0.613689
Zn9	Zn	0.386366	-0.244049	0.947022
Zn10	Zn	-0.397943	-0.906132	0.398030
Zn11	Zn	-0.064610	-0.572798	0.731363
Zn12	Zn	0.268724	-0.239465	1.064696
O13	O	-0.339131	-0.965004	0.339200
O14	O	-0.005797	-0.631670	0.672533
O15	O	0.327536	-0.298337	1.005866
O16	O	-0.295917	-1.118002	0.379130
O17	O	0.037417	-0.784669	0.712463
O18	O	0.370750	-0.451336	1.045796
O19	O	-0.382401	-1.004846	0.189568
O20	O	-0.049067	-0.671512	0.522901
O21	O	0.284266	-0.338179	0.856234
O22	O	-0.181809	-0.929588	0.291590
O23	O	0.151525	-0.596254	0.624924
O24	O	0.484858	-0.262921	0.958257
O25	O	-0.382390	-1.114597	0.299308
O26	O	-0.049056	-0.781264	0.632641
O27	O	0.284277	-0.447931	0.965975
O28	O	-0.181800	-1.012745	0.374739
O29	O	0.151533	-0.679412	0.708072
O30	O	0.484866	-0.346078	1.041405
O31	O	-0.295936	-0.925094	0.186241
O32	O	0.037397	-0.591760	0.519574
O33	O	0.370730	-0.258427	0.852907
O34	O	-0.295892	-0.815391	0.295953
O35	O	0.037441	-0.482058	0.629287
O36	O	0.370774	-0.148725	0.962620
O37	O	-0.382312	-0.921775	0.492148
O38	O	-0.048979	-0.588442	0.825482
O39	O	0.284354	-0.255109	1.158815
O40	O	-0.382323	-0.812024	0.382408
O41	O	-0.048990	-0.478690	0.715741
O42	O	0.284343	-0.145357	1.049075
O43	O	-0.295873	-1.008300	0.488842
O44	O	0.037461	-0.674967	0.822176
O45	O	0.370794	-0.341633	1.155509
O46	O	-0.496473	-1.000401	0.303671
O47	O	-0.163140	-0.667067	0.637005
O48	O	0.170193	-0.333734	0.970338
O49	O	-0.496440	-0.917281	0.386799
O50	O	-0.163107	-0.583948	0.720132
O51	O	0.170227	-0.250614	1.053466
C52	C	-0.339105	-0.789149	0.339178
C53	C	-0.005771	-0.455815	0.672511
C54	C	0.327562	-0.122482	1.005845
C55	C	-0.339111	-0.713916	0.339185
C56	C	-0.005777	-0.380583	0.672519
C57	C	0.327556	-0.047250	1.005852
C58	C	-0.294163	-0.680343	0.380817
C59	C	0.039170	-0.347010	0.714150
C60	C	0.372503	-0.013676	1.047483
C61	C	-0.294165	-0.609654	0.380818
C62	C	0.039168	-0.276321	0.714151
C63	C	0.372501	0.057012	1.047484
C64	C	-0.339119	-0.572540	0.339191
C65	C	-0.005786	-0.239207	0.672524
C66	C	0.327547	0.094126	1.005857
C67	C	-0.384069	-0.606119	0.297555
C68	C	-0.050735	-0.272786	0.630888
C69	C	0.282598	0.060548	0.964221
C70	C	-0.384062	-0.676806	0.297551
C71	C	-0.050729	-0.343473	0.630884
C72	C	0.282604	-0.010140	0.964217
C73	C	-0.384094	-0.321045	0.297569
C74	C	-0.050761	0.012289	0.630903
C75	C	0.282572	0.345622	0.964236
C76	C	-0.384099	-0.250352	0.297578
C77	C	-0.050765	0.082981	0.630912
C78	C	0.282568	0.416314	0.964245
C79	C	-0.294197	-0.253893	0.380837
C80	C	0.039136	0.079441	0.714170
C81	C	0.372469	0.412774	1.047503
C82	C	-0.294191	-0.324580	0.380832
C83	C	0.039142	0.008753	0.714166
C84	C	0.372476	0.342087	1.047499
C85	C	-0.339138	-0.358152	0.339194
C86	C	-0.005804	-0.024819	0.672528
C87	C	0.327529	0.308514	1.005861
C88	C	-0.339134	-0.434801	0.339193
C89	C	-0.005800	-0.101468	0.672526
C90	C	0.327533	0.231866	1.005859
C91	C	-0.339127	-0.495893	0.339195
C92	C	-0.005794	-0.162560	0.672528
C93	C	0.327540	0.170774	1.005862
C94	C	-0.521994	-0.957859	0.346229
C95	C	-0.188661	-0.624526	0.679563
C96	C	0.144672	-0.291192	1.012896
C97	C	-0.600224	-0.954864	0.349259
C98	C	-0.266891	-0.621531	0.682593
C99	C	0.066443	-0.288198	1.015926
C100	C	-0.636971	-0.996767	0.307439
C101	C	-0.303637	-0.663434	0.640772
C102	C	0.029696	-0.330100	0.974105
C103	C	-0.710476	-0.993955	0.310293
C104	C	-0.377143	-0.660621	0.643626
C105	C	-0.043809	-0.327288	0.976959
C106	C	-0.747233	-0.949235	0.354964
C107	C	-0.413900	-0.615902	0.688297
C108	C	-0.080567	-0.282569	1.021631
C109	C	-0.710482	-0.907331	0.396789
C110	C	-0.377148	-0.573998	0.730123
C111	C	-0.043815	-0.240664	1.063456
C112	C	-0.636978	-0.910147	0.393939
C113	C	-0.303644	-0.576814	0.727272
C114	C	0.029689	-0.243481	1.060605
C115	C	-0.967067	-0.936171	0.368131
C116	C	-0.633734	-0.602838	0.701464
C117	C	-0.300401	-0.269504	1.034798
C118	C	-1.040576	-0.933356	0.370977
C119	C	-0.707243	-0.600023	0.704310
C120	C	-0.373910	-0.266690	1.037644
C121	C	-1.040566	-1.019981	0.284481
C122	C	-0.707232	-0.686648	0.617814
C123	C	-0.373899	-0.353314	0.951147
C124	C	-0.967060	-1.022791	0.281631
C125	C	-0.633727	-0.689457	0.614964
C126	C	-0.300394	-0.356124	0.948298
C127	C	-0.930315	-0.980889	0.323459
C128	C	-0.596982	-0.647556	0.656792
C129	C	-0.263648	-0.314222	0.990125
N130	N	-0.822368	-0.946358	0.357881
N131	N	-0.489034	-0.613025	0.691214
N132	N	-0.155701	-0.279691	1.024547
N133	N	-0.855182	-0.983770	0.320545
N134	N	-0.521849	-0.650437	0.653878
N135	N	-0.188515	-0.317104	0.987212
C136	C	-0.155553	-0.972195	0.332157
C137	C	0.177781	-0.638861	0.665491
C138	C	0.511114	-0.305528	0.998824
C139	C	-0.077323	-0.975259	0.329156
C140	C	0.256010	-0.641926	0.662490
C141	C	0.589344	-0.308592	0.995823
C142	C	-0.339086	-0.965043	0.515741
C143	C	-0.005753	-0.631710	0.849074
C144	C	0.327580	-0.298377	1.182408
C145	C	-0.339067	-0.965060	0.590972
C146	C	-0.005734	-0.631727	0.924305
C147	C	0.327599	-0.298394	1.257639
C148	C	-0.339152	-0.141546	0.339216
C149	C	-0.005818	0.191788	0.672549
C150	C	0.327515	0.525121	1.005882
C151	C	-0.339147	-0.216778	0.339206
C152	C	-0.005814	0.116556	0.672540
C153	C	0.327520	0.449889	1.005873
C154	C	-0.339124	-0.965005	0.163344
C155	C	-0.005791	-0.631672	0.496677
C156	C	0.327543	-0.298338	0.830010
C157	C	-0.338945	-0.965127	0.088105
C158	C	-0.005611	-0.631794	0.421438
C159	C	0.327722	-0.298460	0.754772
C160	C	-0.294056	-1.010115	0.624596
C161	C	0.039277	-0.676781	0.957929
C162	C	0.372611	-0.343448	1.291263
C163	C	-0.294036	-1.010123	0.695284
C164	C	0.039298	-0.676789	1.028617
C165	C	0.372631	-0.343456	1.361950
C166	C	-0.339031	-0.965078	0.732346
C167	C	-0.005697	-0.631745	1.065680
C168	C	0.327636	-0.298412	1.399013
C169	C	-0.384044	-0.920019	0.698718
C170	C	-0.050710	-0.586686	1.032051
C171	C	0.282623	-0.253352	1.365384
C172	C	-0.384060	-0.920009	0.628031
C173	C	-0.050727	-0.586675	0.961365
C174	C	0.282606	-0.253342	1.294698
C175	C	-0.383978	-0.920060	0.983789
C176	C	-0.050645	-0.586726	1.317122
C177	C	0.282688	-0.253393	1.650455
C178	C	-0.383960	-0.920075	1.054480
C179	C	-0.050627	-0.586742	1.387813
C180	C	0.282707	-0.253408	1.721147
C181	C	-0.293954	-1.010174	1.051041
C182	C	0.039380	-0.676840	1.384374
C183	C	0.372713	-0.343507	1.717708
C184	C	-0.293970	-1.010163	0.980355
C185	C	0.039363	-0.676830	1.313688
C186	C	0.372697	-0.343497	1.647021
C187	C	-0.338980	-0.965102	0.946732
C188	C	-0.005647	-0.631768	1.280065
C189	C	0.327686	-0.298435	1.613399
C190	C	-0.339001	-0.965093	0.870084
C191	C	-0.005668	-0.631760	1.203418
C192	C	0.327666	-0.298426	1.536751
C193	C	-0.339014	-0.965090	0.808993
C194	C	-0.005681	-0.631757	1.142326
C195	C	0.327653	-0.298423	1.475660
H196	H	-0.420667	-0.575895	0.263658
H197	H	-0.087334	-0.242562	0.596991
H198	H	0.245999	0.090771	0.930324
O199	O	-0.427842	-0.214266	0.257235
O200	O	-0.094508	0.119067	0.590569
O201	O	0.238825	0.452401	0.923902
C202	C	-0.473347	-0.171610	0.297449
C203	C	-0.140014	0.161724	0.630783
C204	C	0.193319	0.495057	0.964116
H205	H	-0.477771	-0.192765	0.350918
H206	H	-0.144438	0.140569	0.684251
H207	H	0.188895	0.473902	1.017584
H208	H	-0.527476	-0.168686	0.274960
H209	H	-0.194143	0.164647	0.608293
H210	H	0.139191	0.497980	0.941627
H211	H	-0.451593	-0.118886	0.298988
H212	H	-0.118259	0.214447	0.632322
H213	H	0.215074	0.547780	0.965655
O214	O	-0.427761	-0.709496	0.257208
O215	O	-0.094427	-0.376162	0.590541
O216	O	0.238906	-0.042829	0.923874
C217	C	-0.473279	-0.748615	0.297419
C218	C	-0.139946	-0.415281	0.630752
C219	C	0.193388	-0.081948	0.964086
H220	H	-0.448526	-0.760187	0.347800
H221	H	-0.115192	-0.426854	0.681134
H222	H	0.218141	-0.093521	1.014467
H223	H	-0.482667	-0.797946	0.270193
H224	H	-0.149334	-0.464613	0.603526
H225	H	0.184000	-0.131279	0.936859
H226	H	-0.525451	-0.719345	0.306779
H227	H	-0.192117	-0.386011	0.640113
H228	H	0.141216	-0.052678	0.973446
O229	O	-0.250156	-1.053850	0.944384
O230	O	0.083177	-0.720517	1.277717
O231	O	0.416511	-0.387183	1.611050
C232	C	-0.180007	-1.041812	0.958984
C233	C	0.153327	-0.708479	1.292317
C234	C	0.486660	-0.375145	1.625650
H235	H	-0.176448	-0.987881	0.978267
H236	H	0.156885	-0.654548	1.311601
H237	H	0.490219	-0.321214	1.644934
H238	H	-0.145240	-1.048996	0.911169
H239	H	0.188093	-0.715663	1.244502
H240	H	0.521426	-0.382329	1.577836
H241	H	-0.161606	-1.078824	0.999319
H242	H	0.171727	-0.745491	1.332653
H243	H	0.505061	-0.412157	1.665986
O244	O	-0.601204	-0.869412	0.434466
O245	O	-0.267871	-0.536078	0.767800
O246	O	0.065462	-0.202745	1.101133
C247	C	-0.558759	-0.827331	0.394248
C248	C	-0.225425	-0.493998	0.727581
C249	C	0.107908	-0.160665	1.060915
H250	H	-0.547762	-0.851652	0.342549
H251	H	-0.214428	-0.518319	0.675882
H252	H	0.118905	-0.184986	1.009216
H253	H	-0.507060	-0.820227	0.419807
H254	H	-0.173726	-0.486893	0.753141
H255	H	0.159607	-0.153560	1.086474
H256	H	-0.587130	-0.776089	0.387866
H257	H	-0.253797	-0.442756	0.721200
H258	H	0.079537	-0.109422	1.054533
O259	O	-0.931328	-1.066139	0.238164
O260	O	-0.597995	-0.732805	0.571497
O261	O	-0.264662	-0.399472	0.904831
C262	C	-0.888859	-1.029258	0.192774
C263	C	-0.555526	-0.695925	0.526108
C264	C	-0.222193	-0.362591	0.859441
H265	H	-0.911053	-0.975101	0.189406
H266	H	-0.577720	-0.641767	0.522740
H267	H	-0.244387	-0.308434	0.856073
H268	H	-0.888046	-1.053800	0.140676
H269	H	-0.554713	-0.720466	0.474010
H270	H	-0.221380	-0.387133	0.807343
H271	H	-0.833138	-1.029051	0.211536
H272	H	-0.499805	-0.695718	0.544869
H273	H	-0.166471	-0.362384	0.878203
O274	O	-0.250430	-0.716290	0.421275
O275	O	0.082903	-0.382957	0.754609
O276	O	0.416237	-0.049624	1.087942
C277	C	-0.210772	-0.671495	0.458032
C278	C	0.122562	-0.338162	0.791365
C279	C	0.455895	-0.004828	1.124699
H280	H	-0.208300	-0.621193	0.430218
H281	H	0.125033	-0.287860	0.763552
H282	H	0.458366	0.045473	1.096885
H283	H	-0.155326	-0.694081	0.463209
H284	H	0.178007	-0.360748	0.796543
H285	H	0.511340	-0.027414	1.129876
H286	H	-0.236618	-0.662988	0.510390
H287	H	0.096715	-0.329655	0.843723
H288	H	0.430049	0.003678	1.177057
H289	H	-0.607048	-1.033179	0.271059
H290	H	-0.273714	-0.699846	0.604393
H291	H	0.059619	-0.366513	0.937726
H292	H	-0.740392	-1.028076	0.276237
H293	H	-0.407058	-0.694742	0.609570
H294	H	-0.073725	-0.361409	0.942904
O295	O	-0.250456	-0.360530	0.421288
O296	O	0.082877	-0.027196	0.754621
O297	O	0.416211	0.306137	1.087954
C298	C	-0.210795	-0.315738	0.458045
C299	C	0.122538	0.017596	0.791379
C300	C	0.455872	0.350929	1.124712
H301	H	-0.208325	-0.265434	0.430235
H302	H	0.125008	0.067900	0.763569
H303	H	0.458341	0.401233	1.096902
H304	H	-0.155349	-0.338325	0.463218
H305	H	0.177984	-0.004991	0.796551
H306	H	0.511317	0.328342	1.129885
H307	H	-0.236638	-0.307235	0.510405
H308	H	0.096696	0.026099	0.843739
H309	H	0.430029	0.359432	1.177072
O310	O	-0.427822	-0.353544	0.257107
O311	O	-0.094488	-0.020210	0.590440
O312	O	0.238845	0.313123	0.923773
C313	C	-0.467487	-0.305626	0.220357
C314	C	-0.134154	0.027707	0.553691
C315	C	0.199180	0.361041	0.887024
H316	H	-0.469967	-0.255154	0.248180
H317	H	-0.136633	0.078179	0.581513
H318	H	0.196700	0.411512	0.914847
H319	H	-0.522929	-0.323886	0.215176
H320	H	-0.189595	0.009447	0.548509
H321	H	0.143738	0.342781	0.881842
H322	H	-0.441641	-0.299090	0.168001
H323	H	-0.108308	0.034243	0.501334
H324	H	0.225026	0.367577	0.834668
O325	O	-1.076369	-1.060665	0.243929
O326	O	-0.743036	-0.727331	0.577262
O327	O	-0.409702	-0.393998	0.910595
C328	C	-1.149128	-1.048583	0.256011
C329	C	-0.815794	-0.715250	0.589345
C330	C	-0.482461	-0.381916	0.922678
H331	H	-1.159147	-1.025993	0.308611
H332	H	-0.825814	-0.692659	0.641944
H333	H	-0.492481	-0.359326	0.975277
H334	H	-1.177023	-1.098219	0.252559
H335	H	-0.843689	-0.764886	0.585892
H336	H	-0.510356	-0.431552	0.919225
H337	H	-1.170047	-1.011769	0.216636
H338	H	-0.836714	-0.678436	0.549969
H339	H	-0.503381	-0.345103	0.883303
H340	H	-0.257566	-0.582322	0.414719
H341	H	0.075767	-0.248989	0.748053
H342	H	0.409101	0.084345	1.081386
H343	H	-0.420602	-0.883392	1.084655
H344	H	-0.087268	-0.550059	1.417988
H345	H	0.246065	-0.216725	1.751322
O346	O	-0.931460	-0.895489	0.408851
O347	O	-0.598127	-0.562156	0.742184
O348	O	-0.264793	-0.228823	1.075517
C349	C	-0.949353	-0.909559	0.477019
C350	C	-0.616019	-0.576226	0.810353
C351	C	-0.282686	-0.242893	1.143686
H352	H	-1.002696	-0.933541	0.480515
H353	H	-0.669363	-0.600208	0.813848
H354	H	-0.336029	-0.266875	1.147182
H355	H	-0.951894	-0.860591	0.507415
H356	H	-0.618561	-0.527257	0.840748
H357	H	-0.285228	-0.193924	1.174082
H358	H	-0.907937	-0.945922	0.498252
H359	H	-0.574604	-0.612588	0.831585
H360	H	-0.241270	-0.279255	1.164918
H361	H	-0.257597	-0.226550	0.414738
H362	H	0.075736	0.106784	0.748071
H363	H	0.409070	0.440117	1.081405
H364	H	-0.740415	-0.870923	0.433165
H365	H	-0.407082	-0.537589	0.766498
H366	H	-0.073749	-0.204256	1.099832
H367	H	-1.070502	-0.896949	0.407366
H368	H	-0.737169	-0.563615	0.740699
H369	H	-0.403835	-0.230282	1.074033
H370	H	-0.420706	-0.883314	0.600656
H371	H	-0.087373	-0.549981	0.933989
H372	H	0.245961	-0.216647	1.267322
H373	H	-0.257418	-1.046797	0.594424
H374	H	0.075915	-0.713464	0.927758
H375	H	0.409249	-0.380130	1.261091
O376	O	-0.250292	-1.053956	0.727840
O377	O	0.083041	-0.720623	1.061173
O378	O	0.416375	-0.387289	1.394507
C379	C	-0.210574	-1.093702	0.679970
C380	C	0.122759	-0.760369	1.013303
C381	C	0.456093	-0.427036	1.346636
H382	H	-0.239416	-1.094907	0.630689
H383	H	0.093917	-0.761573	0.964022
H384	H	0.427250	-0.428240	1.297355
H385	H	-0.203074	-1.147328	0.700116
H386	H	0.130260	-0.813995	1.033449
H387	H	0.463593	-0.480662	1.366783
H388	H	-0.157116	-1.071014	0.670395
H389	H	0.176218	-0.737681	1.003729
H390	H	0.509551	-0.404347	1.337062
H391	H	-0.257302	-1.046863	1.078425
H392	H	0.076032	-0.713529	1.411758
H393	H	0.409365	-0.380196	1.745092
O394	O	-0.427757	-0.876257	0.951240
O395	O	-0.094424	-0.542924	1.284574
O396	O	0.238909	-0.209590	1.617907
C397	C	-0.467448	-0.836489	0.999113
C398	C	-0.134115	-0.503156	1.332446
C399	C	0.199218	-0.169823	1.665779
H400	H	-0.469893	-0.864134	1.049594
H401	H	-0.136559	-0.530801	1.382927
H402	H	0.196774	-0.197467	1.716261
H403	H	-0.522901	-0.827072	0.980810
H404	H	-0.189568	-0.493739	1.314143
H405	H	0.143766	-0.160405	1.647477
H406	H	-0.441648	-0.786105	1.005645
H407	H	-0.108315	-0.452772	1.338978
H408	H	0.225018	-0.119438	1.672312
H409	H	-0.420677	-0.883341	0.728900
H410	H	-0.087344	-0.550008	1.062233
H411	H	0.245990	-0.216674	1.395567
