data_functionalizedCrystal
_audit_creation_method	'MofGen! by Chris Wilmer'
_symmetry_space_group_name_H-M	'P1'
_symmetry_Int_Tables_number	1
_symmetry_cell_setting	triclinic
loop_
_symmetry_equiv_pos_as_xyz
  x,y,z
_cell_length_a	14.853566
_cell_length_b	10.654550
_cell_length_c	9.730223
_cell_angle_alpha	90.000193
_cell_angle_beta	90.002641
_cell_angle_gamma	95.940341
loop_
_atom_site_label
_atom_site_type_symbol
_atom_site_fract_x
_atom_site_fract_y
_atom_site_fract_z
O1	O	1.197238	-0.163948	-0.114195
O2	O	0.934883	-0.183481	-0.114218
O3	O	1.072093	0.009087	-0.114201
O4	O	1.060028	-0.356517	-0.114212
O5	O	1.072091	0.009083	0.114379
O6	O	0.934881	-0.183486	0.114362
O7	O	1.197236	-0.163953	0.114385
Zn8	Zn	1.066059	-0.173720	0.150665
Zn9	Zn	1.066061	-0.173714	-0.150499
O10	O	1.060027	-0.356521	0.114368
C11	C	0.901289	-0.182599	0.000069
C12	C	0.801191	-0.179948	0.000061
C13	C	0.377947	-0.168730	-0.124514
C14	C	0.377966	-0.168736	0.124693
C15	C	0.472014	-0.171226	0.124689
C16	C	0.519032	-0.172470	0.000081
C17	C	0.472002	-0.171224	-0.124522
C18	C	0.519049	-0.172485	0.249290
C19	C	0.613102	-0.174977	0.249290
C20	C	0.660123	-0.176211	0.124681
C21	C	0.613088	-0.174964	0.000073
C22	C	0.660106	-0.176208	-0.124534
C23	C	0.613073	-0.174951	-0.249144
C24	C	0.519023	-0.172459	-0.249131
C25	C	0.754173	-0.178704	0.124668
C26	C	0.754161	-0.178702	-0.124542
C27	C	1.071206	0.055874	0.000087
C28	C	1.068556	0.195289	0.000082
C29	C	1.230831	-0.164835	0.000094
C30	C	1.330929	-0.167487	0.000094
C31	C	1.060913	-0.403308	0.000076
C32	C	1.063564	-0.542723	0.000072
N33	N	1.066064	-0.173724	0.356202
C34	C	1.149343	0.275615	0.000093
C35	C	1.146847	0.406610	0.000083
C36	C	0.982771	0.376941	0.000057
C37	C	0.985267	0.245948	0.000057
C38	C	1.232631	0.224956	0.000118
C39	C	1.313425	0.305283	0.000131
C40	C	1.310929	0.436278	0.000121
C41	C	1.227640	0.486946	0.000099
N42	N	1.066063	-0.173700	-0.356035
C43	C	1.126836	-0.088483	0.428135
C44	C	1.126834	-0.088468	0.572018
C45	C	1.005284	-0.258945	0.572022
C46	C	1.005283	-0.258953	0.428141
C47	C	1.187617	-0.003254	0.356196
C48	C	1.248395	0.081993	0.428129
C49	C	1.248392	0.082008	0.572012
C50	C	1.187612	-0.003223	0.643962
H51	H	0.339649	-0.167702	-0.225968
H52	H	0.914960	0.418206	0.000041
O53	O	1.224945	0.628234	0.000095
H54	H	1.259708	0.669179	-0.093061
O55	O	1.313946	0.173951	0.649588
H56	H	1.275627	0.235110	0.715122
O57	O	0.663832	-0.176328	0.383679
H58	H	0.699175	-0.262996	0.389624
H59	H	1.297875	0.151393	0.369541
O60	O	0.804903	-0.180068	0.259049
H61	H	0.756408	-0.178786	0.345697
O62	O	1.187606	-0.003214	0.799151
H63	H	1.240079	0.070375	0.837088
O64	O	0.898132	0.159306	0.000062
H65	H	0.895343	0.098922	-0.093108
H66	H	0.339678	-0.167732	0.226143
O67	O	0.468237	-0.172366	0.383675
H68	H	0.394901	-0.170851	0.362741
O69	O	1.235320	0.083669	0.000126
H70	H	1.306805	0.061934	0.000136
H71	H	1.187626	-0.003261	0.239039
H72	H	0.955800	-0.328338	0.630612
H73	H	0.792437	-0.179710	-0.226014
O74	O	1.403256	0.250645	0.000150
H75	H	1.391421	0.146063	0.000167
H76	H	1.376715	0.501677	0.000117
O77	O	0.663788	-0.176276	-0.383542
H78	H	0.737088	-0.178212	-0.362603
O79	O	0.468297	-0.171121	-0.383524
H80	H	0.394998	-0.169197	-0.362580
H81	H	0.955796	-0.328363	0.369572
