data_functionalizedCrystal
_audit_creation_method	'MofGen! by Chris Wilmer'
_symmetry_space_group_name_H-M	'P1'
_symmetry_Int_Tables_number	1
_symmetry_cell_setting	triclinic
loop_
_symmetry_equiv_pos_as_xyz
  x,y,z
_cell_length_a	16.992694
_cell_length_b	19.188930
_cell_length_c	15.455313
_cell_angle_alpha	92.650876
_cell_angle_beta	87.142206
_cell_angle_gamma	86.906503
loop_
_atom_site_label
_atom_site_type_symbol
_atom_site_fract_x
_atom_site_fract_y
_atom_site_fract_z
O1	O	1.043326	0.145160	-0.072038
O2	O	1.543326	0.645160	0.427962
O3	O	0.815047	0.143535	-0.072064
O4	O	1.315047	0.643535	0.427936
O5	O	0.935773	0.043078	-0.072033
O6	O	1.435773	0.543078	0.427967
O7	O	0.922600	0.245617	-0.072069
O8	O	1.422600	0.745617	0.427931
O9	O	0.928870	0.048798	0.072227
O10	O	1.428870	0.548798	0.572227
O11	O	0.808144	0.149255	0.072197
O12	O	1.308144	0.649255	0.572197
O13	O	1.036422	0.150879	0.072222
O14	O	1.536422	0.650879	0.572222
Cu15	Cu	0.921653	0.150589	0.085382
Cu16	Cu	1.421653	0.650589	0.585382
Cu17	Cu	0.929817	0.143825	-0.085223
Cu18	Cu	1.429817	0.643825	0.414777
O19	O	0.915696	0.251336	0.072192
O20	O	1.415696	0.751336	0.572192
C21	C	0.782390	0.144306	0.000064
C22	C	1.282390	0.644306	0.500064
C23	C	0.695368	0.138072	0.000055
C24	C	1.195368	0.638072	0.500055
C25	C	0.931895	0.019902	0.000099
C26	C	1.431895	0.519902	0.500099
C27	C	0.930614	-0.057677	0.000107
C28	C	1.430614	0.442323	0.500107
C29	C	0.644922	0.198212	0.000045
C30	C	1.144922	0.698212	0.500045
C31	C	0.563155	0.192351	0.000058
C32	C	1.063155	0.692351	0.500058
C33	C	0.531836	0.126351	0.000075
C34	C	1.031836	0.626351	0.500075
C35	C	0.582288	0.066208	0.000087
C36	C	1.082288	0.566208	0.500087
C37	C	0.664053	0.072069	0.000080
C38	C	1.164053	0.572069	0.500080
C39	C	0.288320	0.102059	0.000102
C40	C	0.788320	0.602059	0.500102
C41	C	0.206548	0.096203	0.000106
C42	C	0.706548	0.596203	0.500106
C43	C	0.187420	0.222347	0.000079
C44	C	0.687420	0.722347	0.500079
C45	C	0.269188	0.228202	0.000067
C46	C	0.769188	0.728202	0.500067
C47	C	0.319633	0.168059	0.000084
C48	C	0.819633	0.668059	0.500084
N49	N	0.448257	0.120360	0.000085
N50	N	0.948257	0.620360	0.500085
N51	N	0.403210	0.174051	0.000079
N52	N	0.903210	0.674051	0.500079
C53	C	1.001452	-0.098455	0.000119
C54	C	1.501452	0.401545	0.500119
C55	C	1.000250	-0.171350	0.000105
C56	C	1.500250	0.328650	0.500105
C57	C	0.928204	-0.203463	0.000096
C58	C	1.428204	0.296537	0.500096
C59	C	0.857356	-0.162676	0.000079
C60	C	1.357356	0.337324	0.500079
C61	C	0.858561	-0.089783	0.000085
C62	C	1.358561	0.410217	0.500085
N63	N	0.870784	-0.312744	0.049185
N64	N	1.370784	0.187256	0.549185
N65	N	0.869644	-0.381990	0.049181
N66	N	1.369644	0.118010	0.549181
C67	C	0.924569	-0.423085	0.000078
C68	C	1.424569	0.076915	0.500078
N69	N	0.980688	-0.392319	-0.049011
N70	N	1.480688	0.107681	0.450989
N71	N	0.981830	-0.323067	-0.049004
N72	N	1.481830	0.176933	0.450996
C73	C	0.926889	-0.282503	0.000090
C74	C	1.426889	0.217497	0.500090
C75	C	0.994108	-0.542904	0.000074
C76	C	1.494108	-0.042904	0.500074
C77	C	0.992903	-0.615801	0.000054
C78	C	1.492903	-0.115801	0.500054
C79	C	0.850007	-0.607124	0.000038
C80	C	1.350007	-0.107124	0.500038
C81	C	0.851215	-0.534230	0.000048
C82	C	1.351215	-0.034230	0.500048
C83	C	0.923267	-0.502124	0.000070
C84	C	1.423267	-0.002124	0.500070
C85	C	1.069079	0.150109	0.000093
C86	C	1.569079	0.650109	0.500093
C87	C	1.156102	0.156342	0.000096
C88	C	1.656102	0.656342	0.500096
C89	C	0.919575	0.274513	0.000057
C90	C	1.419575	0.774513	0.500057
C91	C	0.920856	0.352092	0.000044
C92	C	1.420856	0.852092	0.500044
N93	N	0.915916	0.155346	0.205376
N94	N	1.415916	0.655346	0.705376
N95	N	0.935560	0.139063	-0.205217
N96	N	1.435560	0.639063	0.294783
C97	C	0.967222	0.112686	0.250783
C98	C	1.467222	0.612686	0.750783
C99	C	0.962891	0.116291	0.341590
C100	C	1.462891	0.616291	0.841590
C101	C	0.907257	0.162559	0.386988
C102	C	1.407257	0.662559	0.886988
C103	C	0.855945	0.205221	0.341574
C104	C	1.355945	0.705221	0.841574
C105	C	0.860273	0.201613	0.250769
C106	C	1.360273	0.701613	0.750769
C107	C	0.888576	0.178116	0.658564
C108	C	1.388576	0.678116	1.158564
C109	C	0.884253	0.181723	0.749376
C110	C	1.384253	0.681723	1.249376
C111	C	0.991199	0.092792	0.749385
C112	C	1.491199	0.592792	1.249385
C113	C	0.995525	0.089190	0.658578
C114	C	1.495525	0.589190	1.158578
C115	C	0.944211	0.131849	0.613173
C116	C	1.444211	0.631849	1.113173
N117	N	0.902830	0.166246	0.479807
N118	N	1.402830	0.666246	0.979807
N119	N	0.948634	0.128158	0.520355
N120	N	1.448634	0.628158	1.020355
H121	H	0.670415	0.251956	0.000031
H122	H	1.170415	0.751956	0.500031
O123	O	0.789699	-0.050246	-0.000038
O124	O	1.289699	0.449754	0.499962
C125	C	0.749526	-0.068353	-0.074771
C126	C	1.249526	0.431647	0.425229
H127	H	0.770157	-0.123494	-0.099685
H128	H	1.270157	0.376506	0.400315
H129	H	0.683321	-0.066215	-0.057977
H130	H	1.183321	0.433785	0.442023
H131	H	0.762614	-0.029993	-0.127081
H132	H	1.262614	0.470007	0.372919
O133	O	1.064167	-0.511826	0.000041
O134	O	1.564167	-0.011826	0.500041
C135	C	1.126435	-0.563453	0.000058
C136	C	1.626435	-0.063453	0.500058
H137	H	1.105935	-0.615221	-0.027257
H138	H	1.605935	-0.115221	0.472743
H139	H	1.178752	-0.547079	-0.041823
H140	H	1.678752	-0.047079	0.458177
H141	H	1.144971	-0.569807	0.069266
H142	H	1.644971	-0.069807	0.569266
H143	H	0.705127	0.023097	0.000088
H144	H	1.205127	0.523097	0.500088
O145	O	1.061649	-0.655520	0.000023
O146	O	1.561649	-0.155520	0.500023
C147	C	1.045137	-0.726743	0.000028
C148	C	1.545137	-0.226743	0.500028
H149	H	0.984880	-0.734048	-0.027296
H150	H	1.484880	-0.234048	0.472704
H151	H	1.092314	-0.758867	-0.041852
H152	H	1.592314	-0.258867	0.458148
H153	H	1.044867	-0.744906	0.069234
H154	H	1.544867	-0.244906	0.569234
O155	O	1.021186	0.067629	0.206745
O156	O	1.521186	0.567629	0.706745
C157	C	1.007615	-0.001297	0.229004
C158	C	1.507615	0.498703	0.729004
H159	H	0.943657	-0.004161	0.253962
H160	H	1.443657	0.495839	0.753962
H161	H	1.019604	-0.038215	0.169315
H162	H	1.519604	0.461785	0.669315
H163	H	1.048607	-0.017250	0.281732
H164	H	1.548607	0.482750	0.781732
O165	O	0.138457	0.280781	-0.000084
O166	O	0.638457	0.780781	0.499916
C167	C	0.156195	0.317630	-0.074795
C168	C	0.656195	0.817630	0.425205
H169	H	0.186760	0.280267	-0.127012
H170	H	0.686760	0.780267	0.372988
H171	H	0.099280	0.341392	-0.099873
H172	H	0.599280	0.841392	0.400127
H173	H	0.196887	0.361027	-0.057913
H174	H	0.696887	0.861027	0.442087
O175	O	0.299642	0.292298	-0.000123
O176	O	0.799642	0.792298	0.499877
C177	C	0.349932	0.296479	-0.074844
C178	C	0.849932	0.796479	0.425156
H179	H	0.333213	0.256831	-0.127033
H180	H	0.833213	0.756831	0.372967
H181	H	0.343578	0.351324	-0.099960
H182	H	0.843578	0.851324	0.400040
H183	H	0.413670	0.284665	-0.057962
H184	H	0.913670	0.784665	0.442038
O185	O	0.176091	0.032097	-0.000025
O186	O	0.676091	0.532097	0.499975
C187	C	0.132917	0.021976	-0.074725
C188	C	0.632917	0.521976	0.425275
H189	H	0.154629	0.057455	-0.126958
H190	H	0.654629	0.557455	0.373042
H191	H	0.141639	-0.034870	-0.099786
H192	H	0.641639	0.465130	0.400214
H193	H	0.067574	0.035158	-0.057836
H194	H	0.567574	0.535158	0.442164
H195	H	0.522084	0.241323	0.000049
H196	H	1.022084	0.741323	0.500049
O197	O	0.782448	-0.494534	0.000161
O198	O	1.282448	0.005466	0.500161
C199	C	0.775285	-0.449172	0.074888
C200	C	1.275285	0.050828	0.574888
H201	H	0.836305	-0.441036	0.099807
H202	H	1.336305	0.058964	0.599807
H203	H	0.746701	-0.396741	0.058084
H204	H	1.246701	0.103259	0.558084
H205	H	0.737057	-0.473057	0.127199
H206	H	1.237057	0.026943	0.627199
O207	O	0.337205	0.043566	0.000076
O208	O	0.837205	0.543566	0.500076
C209	C	0.292025	-0.015941	0.000112
C210	C	0.792025	0.484059	0.500112
H211	H	0.232241	-0.002708	-0.027203
H212	H	0.732241	0.497292	0.472797
H213	H	0.324337	-0.060023	-0.041761
H214	H	0.824337	0.439977	0.458239
H215	H	0.282962	-0.033210	0.069326
H216	H	0.782962	0.466790	0.569326
H217	H	0.810642	0.242891	0.378543
H218	H	1.310642	0.742891	0.878543
H219	H	0.798696	-0.188827	0.000070
H220	H	1.298696	0.311173	0.500070
H221	H	1.004668	0.081553	0.378560
H222	H	1.504668	0.581553	0.878560
O223	O	0.780088	-0.638420	0.000063
O224	O	1.280088	-0.138420	0.500063
C225	C	0.794214	-0.711504	0.000033
C226	C	1.294214	-0.211504	0.500033
H227	H	0.854141	-0.724110	0.027355
H228	H	1.354141	-0.224110	0.527355
H229	H	0.746120	-0.734785	0.041903
H230	H	1.246120	-0.234785	0.541903
H231	H	0.793801	-0.734714	-0.069179
H232	H	1.293801	-0.234714	0.430821
O233	O	0.551739	0.002147	0.000066
O234	O	1.051739	0.502147	0.500066
C235	C	0.468752	0.009868	0.000089
C236	C	0.968752	0.509868	0.500089
H237	H	0.450666	0.062188	-0.027233
H238	H	0.950666	0.562188	0.472767
H239	H	0.445786	-0.034301	-0.041783
H240	H	0.945786	0.465699	0.458217
H241	H	0.442699	0.007961	0.069300
H242	H	0.942699	0.507961	0.569300
H243	H	1.040827	0.051515	0.621617
H244	H	1.540827	0.551515	1.121617
H245	H	1.060123	-0.072320	0.000134
H246	H	1.560123	0.427680	0.500134
O247	O	1.069135	-0.210867	0.000158
O248	O	1.569135	0.289133	0.500158
C249	C	1.132989	-0.166900	0.000153
C250	C	1.632989	0.333100	0.500153
H251	H	1.111597	-0.112587	0.027461
H252	H	1.611597	0.387413	0.527461
H253	H	1.180599	-0.189342	0.042046
H254	H	1.680599	0.310658	0.542046
H255	H	1.158404	-0.163217	-0.069051
H256	H	1.658404	0.336783	0.430949
O257	O	0.810400	0.243125	0.206792
O258	O	1.310400	0.743125	0.706792
C259	C	0.760355	0.284726	0.266331
C260	C	1.260355	0.784726	0.766331
H261	H	0.789407	0.289898	0.331055
H262	H	1.289407	0.789898	0.831055
H263	H	0.749450	0.338757	0.240077
H264	H	1.249450	0.838757	0.740077
H265	H	0.701740	0.259163	0.276006
H266	H	1.201740	0.759163	0.776006
H267	H	1.032976	0.058060	0.786362
H268	H	1.532976	0.558060	1.286362
O269	O	0.830129	0.226680	0.793343
O270	O	1.330129	0.726680	1.293343
C271	C	0.785774	0.263568	0.733796
C272	C	1.285774	0.763568	1.233796
H273	H	0.788078	0.232329	0.669074
H274	H	1.288078	0.732329	1.169074
H275	H	0.721883	0.271721	0.760042
H276	H	1.221883	0.771721	1.260042
H277	H	0.811494	0.316480	0.724122
H278	H	1.311494	0.816480	1.224122
H279	H	0.846795	0.212852	0.621602
H280	H	1.346795	0.712852	1.121602
