data_functionalizedCrystal
_audit_creation_method	'MofGen! by Chris Wilmer'
_symmetry_space_group_name_H-M	'P1'
_symmetry_Int_Tables_number	1
_symmetry_cell_setting	triclinic
loop_
_symmetry_equiv_pos_as_xyz
  x,y,z
_cell_length_a	16.120530
_cell_length_b	12.594516
_cell_length_c	16.120728
_cell_angle_alpha	87.103457
_cell_angle_beta	89.860094
_cell_angle_gamma	87.111852
loop_
_atom_site_label
_atom_site_type_symbol
_atom_site_fract_x
_atom_site_fract_y
_atom_site_fract_z
Zn1	Zn	1.247392	-0.539467	0.534597
Zn2	Zn	1.254386	-0.708853	0.395553
Zn3	Zn	1.115408	-0.521421	0.388515
Zn4	Zn	1.108317	-0.707927	0.527521
O5	O	1.181376	-0.619417	0.461547
O6	O	1.364686	-0.569876	0.522059
O7	O	1.241845	-0.676826	0.278255
O8	O	1.132957	-0.374873	0.407910
O9	O	1.369824	-0.694324	0.419904
O10	O	1.229925	-0.388131	0.515235
O11	O	1.139739	-0.539120	0.273084
O12	O	0.998102	-0.538222	0.401048
O13	O	1.120871	-0.692745	0.644824
O14	O	0.992892	-0.675247	0.503175
O15	O	1.223049	-0.568978	0.650023
O16	O	1.234969	-0.857673	0.413043
O17	O	1.127653	-0.856992	0.509999
C18	C	0.965324	-0.604676	0.450580
C19	C	0.872896	-0.598397	0.445909
C20	C	0.703667	-0.586908	0.437387
C21	C	0.659923	-0.652009	0.485767
C22	C	0.565758	-0.645616	0.481026
C23	C	0.797840	-0.593299	0.442127
C24	C	1.181322	-0.895954	0.461536
C25	C	1.181373	-1.014264	0.461563
C26	C	1.123001	-1.083183	0.514258
C27	C	1.106603	-1.147965	0.437355
C28	C	1.197846	-1.160287	0.538483
C29	C	1.164937	-1.077483	0.384617
C30	C	1.256213	-1.089804	0.485798
C31	C	1.239847	-1.154553	0.408844
C32	C	1.398271	-0.634216	0.472556
C33	C	1.490699	-0.640523	0.477248
C34	C	1.170389	-0.632771	0.678440
C35	C	1.165707	-0.638462	0.770866
C36	C	1.181452	-0.341803	0.461577
C37	C	1.181484	-0.223501	0.461590
C38	C	1.157128	-0.648826	0.940090
C39	C	1.205598	-0.590109	0.983853
C40	C	1.200825	-0.595875	1.078015
C41	C	1.161900	-0.643061	0.845920
C42	C	1.192320	-0.606144	1.245497
C43	C	1.197022	-0.600470	1.153072
H44	H	1.073556	-1.051848	0.558748
H45	H	1.250678	-0.535507	0.950602
C46	C	0.704379	-0.732572	0.545797
C47	C	0.751587	-0.679028	0.601627
C48	C	0.792563	-0.753207	0.656927
H49	H	0.664639	-0.772614	0.575611
H50	H	0.739907	-0.779162	0.515620
H51	H	0.716062	-0.632457	0.631801
H52	H	0.791341	-0.638991	0.571838
H53	H	0.828091	-0.799797	0.626751
H54	H	0.752817	-0.793245	0.686735
H55	H	0.824604	-0.716889	0.694810
H56	H	1.112052	-0.703423	0.973339
H57	H	0.670399	-0.526378	0.392408
H58	H	1.150976	-1.041435	0.319557
C59	C	1.022280	-1.182474	0.410165
C60	C	0.988469	-1.247113	0.473502
C61	C	0.910796	-1.278928	0.448487
H62	H	0.986239	-1.121425	0.399077
H63	H	1.028573	-1.221278	0.361322
H64	H	0.982172	-1.208309	0.522330
H65	H	1.024487	-1.308176	0.484598
H66	H	0.917088	-1.317733	0.399644
H67	H	0.874761	-1.217874	0.437399
H68	H	0.887848	-1.322797	0.491453
C69	C	1.305616	-1.196210	0.349305
C70	C	1.267776	-1.252434	0.288215
C71	C	1.328332	-1.290838	0.233358
H72	H	1.333117	-1.138141	0.323764
H73	H	1.344857	-1.242210	0.379077
H74	H	1.228549	-1.206437	0.258447
H75	H	1.240280	-1.310517	0.313732
H76	H	1.367573	-1.336838	0.263129
H77	H	1.355829	-1.232763	0.207823
H78	H	1.302667	-1.328998	0.191906
C79	C	1.340476	-1.055486	0.513316
C80	C	1.357340	-1.097538	0.593916
C81	C	1.434949	-1.065933	0.619308
H82	H	1.382173	-1.081014	0.476536
H83	H	1.339979	-0.979985	0.512660
H84	H	1.357844	-1.173024	0.594567
H85	H	1.315664	-1.072016	0.630716
H86	H	1.434452	-0.990432	0.618651
H87	H	1.476639	-1.091463	0.582522
H88	H	1.446398	-1.094453	0.673999
H89	H	1.211735	-1.196457	0.603522
