data_functionalizedCrystal
_audit_creation_method	'MofGen! by Chris Wilmer'
_symmetry_space_group_name_H-M	'P1'
_symmetry_Int_Tables_number	1
_symmetry_cell_setting	triclinic
loop_
_symmetry_equiv_pos_as_xyz
  x,y,z
_cell_length_a	28.938199
_cell_length_b	28.937346
_cell_length_c	28.934044
_cell_angle_alpha	60.005004
_cell_angle_beta	60.009897
_cell_angle_gamma	59.994060
loop_
_atom_site_label
_atom_site_type_symbol
_atom_site_fract_x
_atom_site_fract_y
_atom_site_fract_z
O1	O	0.064043	-0.675186	0.564597
O2	O	0.024124	-0.525682	0.454913
O3	O	0.118795	-0.620275	0.454833
O4	O	-0.030629	-0.580593	0.564678
O5	O	0.150204	-0.588870	0.486157
O6	O	0.055533	-0.494276	0.486238
O7	O	0.095452	-0.643780	0.595921
Cu8	Cu	0.078360	-0.566161	0.543940
Cu9	Cu	0.041215	-0.603301	0.506895
O10	O	0.000780	-0.549187	0.596002
N11	N	0.104487	-0.540042	0.569998
N12	N	0.015094	-0.629425	0.480837
C13	C	0.165467	-0.323909	0.630915
C14	C	0.165587	-0.479117	0.786068
C15	C	0.165481	-0.479095	0.630906
C16	C	0.320696	-0.479083	0.630835
C17	C	0.182557	-0.375118	0.647971
C18	C	0.182626	-0.462038	0.734858
C19	C	0.269485	-0.462018	0.647928
C20	C	0.182566	-0.462025	0.647966
C21	C	0.143714	-0.258726	0.609206
C22	C	0.143738	-0.500820	0.609192
C23	C	0.204309	-0.440300	0.669680
C24	C	0.415481	-0.462740	0.580919
C25	C	0.474732	-0.482485	0.561145
C26	C	0.474757	-0.578356	0.597704
C27	C	0.415508	-0.558609	0.617479
C28	C	0.157989	-0.229089	0.550957
C29	C	0.138212	-0.169834	0.531225
C30	C	0.089890	-0.169857	0.627992
C31	C	0.109667	-0.229112	0.647725
C32	C	0.085482	-0.486515	0.623535
C33	C	0.065722	-0.506265	0.603789
C34	C	0.162467	-0.554625	0.555370
C35	C	0.182230	-0.534875	0.575110
C36	C	0.085661	-0.486557	0.880902
C37	C	0.065952	-0.506323	0.940155
C38	C	0.162734	-0.554693	0.940102
C39	C	0.182441	-0.534928	0.880847
C40	C	0.143904	-0.500859	0.851249
C41	C	0.385871	-0.500801	0.609083
C42	C	-0.110907	-0.668480	0.441278
C43	C	-0.024049	-0.668588	0.441475
C44	C	-0.045729	-0.690282	0.419668
C45	C	-0.062146	-0.785032	0.469507
C46	C	-0.042446	-0.844287	0.489286
C47	C	0.053426	-0.844399	0.452899
C48	C	0.033725	-0.785144	0.433120
C49	C	-0.140617	-0.682751	0.499509
C50	C	-0.199867	-0.662928	0.519152
C51	C	-0.199694	-0.614571	0.422330
C52	C	-0.140443	-0.634393	0.402687
C53	C	-0.038320	-0.610337	0.427144
C54	C	-0.018610	-0.590621	0.446974
C55	C	0.029642	-0.687402	0.495454
C56	C	0.009933	-0.707121	0.475630
C57	C	-0.038148	-0.610347	0.324832
C58	C	-0.018301	-0.590634	0.265579
C59	C	0.030035	-0.687421	0.265643
C60	C	0.010190	-0.707133	0.324897
C61	C	-0.023903	-0.668595	0.354491
C62	C	-0.024062	-0.755463	0.441426
N63	N	0.503527	-0.540005	0.569810
O64	O	0.684453	-0.545211	0.434650
O65	O	0.684643	-0.655237	0.584005
O66	O	0.684567	-0.654986	0.489282
O67	O	0.684529	-0.545462	0.529373
O68	O	0.590438	-0.623674	0.520735
O69	O	0.590513	-0.623924	0.615457
O70	O	0.590323	-0.513899	0.466102
Cu71	Cu	0.581823	-0.566053	0.543652
Cu72	Cu	0.693143	-0.603083	0.506456
O73	O	0.590399	-0.514149	0.560825
N74	N	0.771439	-0.629131	0.480292
N75	N	0.104456	-0.141061	0.570015
O76	O	-0.030629	0.039964	0.564688
O77	O	0.118732	0.039984	0.454661
O78	O	0.023980	0.039958	0.454946
O79	O	0.064123	0.039990	0.564403
O80	O	0.055392	-0.054179	0.486321
O81	O	0.150144	-0.054153	0.486036
O82	O	0.000784	-0.054173	0.596063
Cu83	Cu	0.078332	-0.062759	0.543914
Cu84	Cu	0.041183	0.048570	0.506810
O85	O	0.095535	-0.054147	0.595778
N86	N	0.015053	0.126872	0.480710
N87	N	0.104760	-0.540096	0.968910
O88	O	0.099447	-0.675167	1.149923
O89	O	-0.010552	-0.525757	1.149951
O90	O	-0.010297	-0.620493	1.149918
O91	O	0.099192	-0.580431	1.149956
O92	O	0.021064	-0.589100	1.055785
O93	O	0.020809	-0.494365	1.055818
O94	O	0.130808	-0.643774	1.055790
Cu95	Cu	0.078672	-0.566203	1.047209
Cu96	Cu	0.041584	-0.603328	1.158532
O97	O	0.130553	-0.549038	1.055823
N98	N	0.015495	-0.629442	1.236831
C99	C	0.036087	-0.491140	0.455465
C100	C	0.153325	-0.608283	0.455364
C101	C	0.083488	-0.678322	0.595370
C102	C	-0.033750	-0.561180	0.595470
C103	C	0.637601	-0.654732	0.618548
C104	C	0.637509	-0.654422	0.501245
C105	C	0.637362	-0.514403	0.431560
C106	C	0.637458	-0.514713	0.548862
C107	C	0.153215	-0.006966	0.455158
C108	C	0.035916	-0.007114	0.455550
C109	C	-0.033739	-0.007106	0.595527
C110	C	0.083600	-0.007076	0.595174
C111	C	-0.010020	-0.491238	1.102888
C112	C	-0.009698	-0.608550	1.102828
C113	C	0.130276	-0.678293	1.102853
C114	C	0.129961	-0.560974	1.102892
H115	H	0.018524	-0.494668	0.964293
C116	C	0.189362	-0.503896	1.054513
C117	C	0.176401	-0.549407	1.102896
H118	H	0.218035	-0.496758	1.054515
H119	H	0.156422	-0.471185	1.054524
H120	H	0.202429	-0.512884	1.021686
H121	H	0.163330	-0.540417	1.135724
H122	H	0.209347	-0.582125	1.102890
C123	C	0.421410	-0.369960	0.542799
C124	C	0.382903	-0.399194	0.571694
H125	H	0.401298	-0.330730	0.537106
H126	H	0.444501	-0.375454	0.507200
H127	H	0.444539	-0.383863	0.564502
H128	H	0.359777	-0.385294	0.549989
H129	H	0.359803	-0.393696	0.607299
C130	C	-0.126715	-0.007106	0.622019
C131	C	-0.091648	-0.007099	0.642156
H132	H	-0.162468	-0.007095	0.650804
H133	H	-0.109790	-0.039939	0.611750
H134	H	-0.131677	0.025717	0.589849
H135	H	-0.086683	-0.039925	0.674323
H136	H	-0.108577	0.025737	0.652432
C137	C	0.589110	-0.681619	0.476470
C138	C	0.637526	-0.700873	0.489670
H139	H	0.589120	-0.710298	0.469329
H140	H	0.589069	-0.648676	0.443770
H141	H	0.556307	-0.672835	0.507367
H142	H	0.670329	-0.709653	0.458772
H143	H	0.637572	-0.733827	0.522374
C144	C	0.588872	-0.454682	0.363529
C145	C	0.637281	-0.467767	0.373658
H146	H	0.588824	-0.425893	0.327781
H147	H	0.556068	-0.441730	0.392345
H148	H	0.588900	-0.487550	0.363582
H149	H	0.637251	-0.434900	0.373610
H150	H	0.670093	-0.480717	0.344834
C151	C	0.059612	-0.800811	0.525538
C152	C	0.025621	-0.771152	0.491375
H153	H	0.069301	-0.840340	0.535253
H154	H	0.039464	-0.791077	0.559030
H155	H	0.093129	-0.791136	0.505495
H156	H	-0.007898	-0.780824	0.511420
H157	H	0.045770	-0.780890	0.457878
H158	H	0.092195	-0.007066	0.629560
H159	H	0.164813	-0.721202	1.102837
H160	H	0.229870	-0.546579	0.856706
C161	C	0.203390	0.041879	0.361149
C162	C	0.211000	-0.006612	0.408405
H163	H	0.239065	0.042091	0.332285
H164	H	0.186337	0.074631	0.371578
H165	H	0.179614	0.041794	0.347529
H166	H	0.234773	-0.006526	0.422028
H167	H	0.228063	-0.039374	0.397975
C168	C	0.011111	-0.055548	0.428426
C169	C	0.024332	-0.007141	0.409125
H170	H	0.003968	-0.055570	0.399763
H171	H	-0.021592	-0.055541	0.461361
H172	H	0.041998	-0.088363	0.437235
H173	H	-0.006556	0.025673	0.400319
H174	H	0.057040	-0.007143	0.376180
C175	C	0.637497	-0.488659	0.615669
C176	C	0.637439	-0.468263	0.560439
H177	H	0.637481	-0.459981	0.622816
H178	H	0.670346	-0.520828	0.619855
H179	H	0.604695	-0.498993	0.641793
H180	H	0.670243	-0.457933	0.534315
H181	H	0.604587	-0.436084	0.556248
H182	H	0.194117	-0.582425	0.964198
C183	C	-0.011987	-0.440728	0.886913
C184	C	0.043297	-0.449106	0.848371
H185	H	-0.038139	-0.417611	0.866828
H186	H	-0.017661	-0.422641	0.910023
H187	H	-0.017655	-0.476250	0.910022
H188	H	0.048967	-0.413584	0.825264
H189	H	0.048973	-0.467191	0.825252
C190	C	-0.036494	-0.398267	1.102918
C191	C	-0.056643	-0.433312	1.102900
H192	H	-0.065280	-0.362508	1.102929
H193	H	-0.004340	-0.393312	1.070096
H194	H	-0.026206	-0.415212	1.135749
H195	H	-0.066927	-0.416369	1.070067
H196	H	-0.088808	-0.438266	1.135726
H197	H	-0.044080	-0.617108	1.102779
C198	C	-0.012135	-0.440687	0.669401
C199	C	0.043170	-0.449077	0.660991
H200	H	-0.038256	-0.417570	0.692523
H201	H	-0.017813	-0.476200	0.687491
H202	H	-0.017845	-0.422590	0.633891
H203	H	0.048882	-0.467177	0.696501
H204	H	0.048851	-0.413557	0.642902
C205	C	-0.012667	-0.460895	0.570179
C206	C	0.001685	-0.490541	0.619552
H207	H	-0.052201	-0.451185	0.579913
H208	H	0.007425	-0.484001	0.547059
H209	H	-0.002966	-0.427389	0.550086
H210	H	-0.008012	-0.524051	0.639644
H211	H	-0.018413	-0.467435	0.642682
H212	H	0.637649	-0.689271	0.661445
H213	H	0.229667	-0.546519	0.563426
C214	C	0.260088	-0.600446	0.509493
C215	C	0.204783	-0.592062	0.517908
H216	H	0.286209	-0.623554	0.486362
H217	H	0.265804	-0.618544	0.544995
H218	H	0.265761	-0.564925	0.491404
H219	H	0.199109	-0.627583	0.536001
H220	H	0.199065	-0.573965	0.482399
H221	H	0.498884	-0.625426	0.604536
C222	C	0.421493	-0.655358	0.651622
C223	C	0.382963	-0.600450	0.648437
H224	H	0.401400	-0.681188	0.670731
H225	H	0.444619	-0.665266	0.671798
H226	H	0.444585	-0.656857	0.614494
H227	H	0.359874	-0.598950	0.685564
H228	H	0.359827	-0.590539	0.628261
C229	C	0.203757	-0.223111	0.453320
C230	C	0.195411	-0.261640	0.508616
H231	H	0.226856	-0.243209	0.427182
H232	H	0.221845	-0.199997	0.447620
H233	H	0.168226	-0.200003	0.447655
H234	H	0.230941	-0.284745	0.514282
H235	H	0.177323	-0.284764	0.514318
H236	H	0.498841	-0.451490	0.538213
C237	C	0.044122	-0.175830	0.725628
C238	C	0.052468	-0.137302	0.670332
H239	H	0.021016	-0.155732	0.751766
H240	H	0.079646	-0.198934	0.731295
H241	H	0.026034	-0.198949	0.731326
H242	H	0.070560	-0.114186	0.664633
H243	H	0.016938	-0.114188	0.664663
H244	H	0.149834	-0.145702	0.483792
H245	H	0.098041	-0.253238	0.695156
H246	H	0.057785	-0.718806	0.241554
C247	C	-0.068090	-0.496944	0.271476
C248	C	-0.033972	-0.526602	0.232985
H249	H	-0.077767	-0.457414	0.251351
H250	H	-0.048038	-0.506673	0.294645
H251	H	-0.101609	-0.506624	0.294530
H252	H	-0.000451	-0.516925	0.209933
H253	H	-0.054024	-0.516869	0.209806
H254	H	-0.065911	-0.578960	0.348925
H255	H	-0.076669	-0.552723	0.629962
C256	C	0.203958	-0.613423	0.361397
C257	C	0.211259	-0.619697	0.408795
H258	H	0.239725	-0.620474	0.332650
H259	H	0.180214	-0.575965	0.347678
H260	H	0.186992	-0.639583	0.371720
H261	H	0.228222	-0.593534	0.398473
H262	H	0.235013	-0.657161	0.422516
H263	H	-0.065985	-0.578958	0.399332
C264	C	0.059955	-0.800824	0.319006
C265	C	0.025847	-0.771164	0.357496
H266	H	0.069617	-0.840353	0.339132
H267	H	0.093478	-0.791159	0.295958
H268	H	0.039898	-0.791082	0.295831
H269	H	0.045905	-0.780904	0.380669
H270	H	-0.007681	-0.780834	0.380554
H271	H	0.057315	-0.718782	0.523258
C272	C	-0.068253	-0.496930	0.397030
C273	C	-0.034276	-0.526590	0.431207
H274	H	-0.077916	-0.457401	0.387289
H275	H	-0.101780	-0.506580	0.417069
H276	H	-0.048101	-0.506689	0.363547
H277	H	-0.054430	-0.516834	0.464692
H278	H	-0.000744	-0.516935	0.411167
H279	H	0.100481	-0.868567	0.446139
C280	C	0.115636	-0.767010	0.353755
C281	C	0.075591	-0.752641	0.402253
H282	H	0.141484	-0.746946	0.334701
H283	H	0.096955	-0.757280	0.329321
H284	H	0.135634	-0.806550	0.364356
H285	H	0.055590	-0.713102	0.391652
H286	H	0.094274	-0.762368	0.426692
C287	C	-0.111934	-0.862418	0.484233
C288	C	-0.084348	-0.876757	0.520211
H289	H	-0.137816	-0.882453	0.503344
H290	H	-0.084799	-0.872204	0.451349
H291	H	-0.131902	-0.822873	0.473614
H292	H	-0.064376	-0.916302	0.530826
H293	H	-0.111486	-0.866975	0.553105
C294	C	-0.133649	-0.718334	0.426093
C295	C	-0.125662	-0.752397	0.478626
H296	H	-0.172862	-0.698181	0.431721
H297	H	-0.119732	-0.741462	0.404392
H298	H	-0.113778	-0.692251	0.406544
H299	H	-0.145531	-0.778483	0.498173
H300	H	-0.139587	-0.729267	0.500336
H301	H	0.027560	-0.448192	0.421017
H302	H	-0.224058	-0.674545	0.566571
C303	C	-0.146740	-0.728549	0.597189
C304	C	-0.108148	-0.720217	0.541927
H305	H	-0.126695	-0.751676	0.623376
H306	H	-0.169852	-0.746605	0.602825
H307	H	-0.169841	-0.693014	0.602845
H308	H	-0.085050	-0.755752	0.536270
H309	H	-0.085027	-0.702162	0.536289
H310	H	-0.116252	-0.622767	0.355267
C311	C	-0.193574	-0.568777	0.324649
C312	C	-0.232165	-0.577107	0.379912
H313	H	-0.213621	-0.545645	0.298463
H314	H	-0.170478	-0.604306	0.318993
H315	H	-0.170459	-0.550720	0.319012
H316	H	-0.255278	-0.595168	0.385551
H317	H	-0.255271	-0.541571	0.385570
C318	C	0.150220	-0.771233	0.621561
C319	C	0.094993	-0.736299	0.641876
H320	H	0.157320	-0.807027	0.650272
H321	H	0.176348	-0.754240	0.611248
H322	H	0.154441	-0.776133	0.589391
H323	H	0.090773	-0.731396	0.674044
H324	H	0.068858	-0.753296	0.652197
