data_functionalizedCrystal
_audit_creation_method	'MofGen! by Chris Wilmer'
_symmetry_space_group_name_H-M	'P1'
_symmetry_Int_Tables_number	1
_symmetry_cell_setting	triclinic
loop_
_symmetry_equiv_pos_as_xyz
  x,y,z
_cell_length_a	19.805407
_cell_length_b	16.625546
_cell_length_c	19.805399
_cell_angle_alpha	90.027867
_cell_angle_beta	90.019573
_cell_angle_gamma	90.022468
loop_
_atom_site_label
_atom_site_type_symbol
_atom_site_fract_x
_atom_site_fract_y
_atom_site_fract_z
Zn1	Zn	1.034754	-0.321020	0.382718
Zn2	Zn	1.034677	-0.455857	0.269529
Zn3	Zn	0.921569	-0.321043	0.269543
Zn4	Zn	0.921540	-0.455815	0.382676
O5	O	0.978135	-0.388434	0.326117
O6	O	1.129461	-0.338915	0.367716
O7	O	1.019652	-0.438001	0.174815
O8	O	0.936628	-0.208207	0.284579
O9	O	1.129404	-0.437980	0.284556
O10	O	1.019784	-0.208191	0.367729
O11	O	0.936553	-0.338953	0.174825
O12	O	0.826848	-0.338912	0.284538
O13	O	0.936579	-0.437907	0.477398
O14	O	0.826827	-0.437928	0.367657
O15	O	1.019756	-0.338874	0.477429
O16	O	1.019625	-0.568684	0.284515
O17	O	0.936504	-0.568653	0.367644
C18	C	0.802279	-0.388418	0.326095
C19	C	0.727047	-0.388431	0.326102
C20	C	0.691710	-0.440067	0.369311
C21	C	0.621021	-0.440068	0.369321
C22	C	0.585671	-0.388437	0.326117
C23	C	0.621014	-0.336796	0.282905
C24	C	0.691701	-0.336791	0.282899
C25	C	0.335941	-0.336814	0.282927
C26	C	0.265248	-0.336825	0.282935
C27	C	0.265261	-0.440091	0.369349
C28	C	0.335948	-0.440086	0.369343
C29	C	0.371284	-0.388442	0.326134
C30	C	0.447932	-0.388440	0.326125
C31	C	0.509024	-0.388443	0.326122
C32	C	0.978071	-0.597925	0.326088
C33	C	0.978105	-0.687546	0.326099
C34	C	0.978224	-1.015721	0.326169
C35	C	0.978189	-0.924413	0.326152
C36	C	0.978164	-0.851636	0.326134
C37	C	0.978130	-0.760322	0.326117
C38	C	1.154678	-0.388450	0.326139
C39	C	1.229910	-0.388457	0.326149
C40	C	0.978173	-0.388383	0.502660
C41	C	0.978189	-0.388361	0.577892
C42	C	0.978218	-0.178125	0.326160
C43	C	0.978253	-0.088504	0.326178
C44	C	0.978136	-0.388426	0.150261
C45	C	0.978251	-0.388221	0.075029
C46	C	1.021501	-0.336792	0.613253
C47	C	1.021508	-0.336769	0.683941
C48	C	0.978206	-0.388319	0.719267
C49	C	0.934889	-0.439890	0.683901
C50	C	0.934880	-0.439909	0.613214
C51	C	0.934928	-0.439815	0.968974
C52	C	0.934942	-0.439794	1.039667
C53	C	1.021556	-0.336675	1.039702
C54	C	1.021546	-0.336694	0.969015
C55	C	0.978227	-0.388262	0.933655
C56	C	0.978219	-0.388285	0.857006
C57	C	0.978217	-0.388300	0.795914
H58	H	0.236481	-0.482139	0.404534
C59	C	1.069203	-0.279944	1.078597
H60	H	1.094996	-0.249253	1.047433
H61	H	1.043333	-0.244799	1.106174
H62	H	1.098688	-0.310789	1.106170
C63	C	1.069166	-0.280065	0.722839
H64	H	1.062971	-0.287434	0.769997
H65	H	1.114632	-0.291892	0.711254
H66	H	1.059293	-0.225883	0.711270
C67	C	0.226362	-0.280021	0.235417
H68	H	0.179202	-0.287427	0.241606
H69	H	0.237964	-0.225862	0.245410
H70	H	0.237921	-0.291744	0.189916
C71	C	0.730588	-0.496860	0.416838
H72	H	0.699416	-0.527606	0.442577
H73	H	0.758144	-0.531951	0.390894
H74	H	0.758182	-0.466054	0.446376
C75	C	0.582153	-0.496916	0.416810
H76	H	0.613330	-0.527686	0.442522
H77	H	0.554579	-0.466168	0.446366
H78	H	0.554577	-0.531994	0.390825
C79	C	1.069175	-0.279989	0.930157
H80	H	1.062969	-0.287391	0.882994
H81	H	1.059293	-0.225810	0.941751
H82	H	1.114653	-0.291794	0.941746
H83	H	0.720472	-0.294740	0.247717
C84	C	0.887309	-0.496500	1.078527
H85	H	0.893527	-0.489108	1.125690
H86	H	0.841834	-0.484698	1.066941
H87	H	0.897193	-0.550682	1.066932
C88	C	0.887266	-0.496521	0.930087
H89	H	0.861479	-0.527218	0.961252
H90	H	0.857787	-0.465664	0.902523
H91	H	0.913125	-0.531674	0.902500
C92	C	0.887238	-0.496634	0.574313
H93	H	0.893429	-0.489256	0.527155
H94	H	0.897121	-0.550808	0.585886
H95	H	0.841766	-0.484818	0.585893
C96	C	0.374829	-0.496877	0.416870
H97	H	0.343659	-0.527624	0.442611
H98	H	0.402386	-0.531966	0.390926
H99	H	0.402422	-0.466068	0.446406
H100	H	0.592226	-0.294754	0.247730
H101	H	0.364703	-0.294769	0.247739
H102	H	0.899630	-0.481861	0.712669
H103	H	1.056764	-0.294817	0.584496
