data_functionalizedCrystal
_audit_creation_method	'MofGen! by Chris Wilmer'
_symmetry_space_group_name_H-M	'P1'
_symmetry_Int_Tables_number	1
_symmetry_cell_setting	triclinic
loop_
_symmetry_equiv_pos_as_xyz
  x,y,z
_cell_length_a	15.944551
_cell_length_b	16.109302
_cell_length_c	15.186229
_cell_angle_alpha	89.994701
_cell_angle_beta	89.998855
_cell_angle_gamma	96.519741
loop_
_atom_site_label
_atom_site_type_symbol
_atom_site_fract_x
_atom_site_fract_y
_atom_site_fract_z
O1	O	-0.107969	1.103165	-0.073258
O2	O	0.142031	1.353165	0.176742
O3	O	0.392031	1.603165	0.426742
O4	O	0.642031	1.853165	0.676742
O5	O	-0.121405	0.861108	-0.073250
O6	O	0.128595	1.111108	0.176750
O7	O	0.378595	1.361108	0.426750
O8	O	0.628595	1.611108	0.676750
O9	O	0.007590	0.988746	-0.073260
O10	O	0.257590	1.238746	0.176740
O11	O	0.507590	1.488746	0.426740
O12	O	0.757590	1.738746	0.676740
O13	O	-0.236964	0.975526	-0.073249
O14	O	0.013036	1.225526	0.176751
O15	O	0.263036	1.475526	0.426751
O16	O	0.513036	1.725526	0.676751
O17	O	0.007592	0.988738	0.073198
O18	O	0.257592	1.238738	0.323198
O19	O	0.507592	1.488738	0.573198
O20	O	0.757592	1.738738	0.823198
O21	O	-0.121403	0.861099	0.073207
O22	O	0.128597	1.111099	0.323207
O23	O	0.378597	1.361099	0.573207
O24	O	0.628597	1.611099	0.823207
O25	O	-0.107967	1.103157	0.073199
O26	O	0.142033	1.353157	0.323199
O27	O	0.392033	1.603157	0.573199
O28	O	0.642033	1.853157	0.823199
Zn29	Zn	-0.114685	0.982127	0.096456
Zn30	Zn	0.135315	1.232127	0.346456
Zn31	Zn	0.385315	1.482127	0.596456
Zn32	Zn	0.635315	1.732127	0.846456
Zn33	Zn	-0.114687	0.982138	-0.096508
Zn34	Zn	0.135313	1.232138	0.153492
Zn35	Zn	0.385313	1.482138	0.403492
Zn36	Zn	0.635313	1.732138	0.653492
O37	O	-0.236962	0.975518	0.073208
O38	O	0.013038	1.225518	0.323208
O39	O	0.263038	1.475518	0.573208
O40	O	0.513038	1.725518	0.823208
C41	C	-0.120860	0.830128	-0.000021
C42	C	0.129140	1.080128	0.249979
C43	C	0.379140	1.330128	0.499979
C44	C	0.629140	1.580128	0.749979
C45	C	-0.119228	0.737833	-0.000018
C46	C	0.130772	0.987833	0.249982
C47	C	0.380772	1.237833	0.499982
C48	C	0.630772	1.487833	0.749982
C49	C	-0.115453	0.525486	0.079807
C50	C	0.134547	0.775486	0.329807
C51	C	0.384547	1.025486	0.579807
C52	C	0.634547	1.275486	0.829807
C53	C	-0.113910	0.438765	0.079804
C54	C	0.136090	0.688765	0.329804
C55	C	0.386090	0.938765	0.579804
C56	C	0.636090	1.188765	0.829804
C57	C	-0.113917	0.438785	-0.079872
C58	C	0.136083	0.688785	0.170128
C59	C	0.386083	0.938785	0.420128
C60	C	0.636083	1.188785	0.670128
C61	C	-0.115453	0.525505	-0.079868
C62	C	0.134547	0.775505	0.170132
C63	C	0.384547	1.025505	0.420132
C64	C	0.634547	1.275505	0.670132
C65	C	-0.116225	0.568852	-0.000026
C66	C	0.133775	0.818852	0.249974
C67	C	0.383775	1.068852	0.499974
C68	C	0.633775	1.318852	0.749974
C69	C	-0.113147	0.395412	-0.000033
C70	C	0.136853	0.645412	0.249967
C71	C	0.386853	0.895412	0.499967
C72	C	0.636853	1.145412	0.749967
C73	C	-0.111474	0.301386	-0.000037
C74	C	0.138526	0.551386	0.249963
C75	C	0.388526	0.801386	0.499963
C76	C	0.638526	1.051386	0.749963
C77	C	-0.117896	0.662885	-0.000022
C78	C	0.132104	0.912885	0.249978
C79	C	0.382104	1.162885	0.499978
C80	C	0.632104	1.412885	0.749978
C81	C	-0.268257	0.976071	-0.000019
C82	C	-0.018257	1.226071	0.249981
C83	C	0.231743	1.476071	0.499981
C84	C	0.481743	1.726071	0.749981
C85	C	-0.361502	0.977716	-0.000015
C86	C	-0.111502	1.227716	0.249985
C87	C	0.138498	1.477716	0.499985
C88	C	0.388498	1.727716	0.749985
C89	C	-0.576332	1.060766	-0.000032
C90	C	-0.326332	1.310766	0.249968
C91	C	-0.076332	1.560766	0.499968
C92	C	0.173668	1.810766	0.749968
C93	C	-0.637360	1.022196	0.072182
C94	C	-0.387360	1.272196	0.322182
C95	C	-0.137360	1.522196	0.572182
C96	C	0.112640	1.772196	0.822182
C97	C	-0.532227	0.980693	-0.000023
C98	C	-0.282227	1.230693	0.249977
C99	C	-0.032227	1.480693	0.499977
C100	C	0.217773	1.730693	0.749977
C101	C	-0.637347	1.022186	-0.072214
C102	C	-0.387347	1.272186	0.177786
C103	C	-0.137347	1.522186	0.427786
C104	C	0.112653	1.772186	0.677786
C105	C	-0.697139	0.983574	-0.000035
C106	C	-0.447139	1.233574	0.249965
C107	C	-0.197139	1.483574	0.499965
C108	C	0.052861	1.733574	0.749965
C109	C	-0.592027	0.942101	0.072249
C110	C	-0.342027	1.192101	0.322249
C111	C	-0.092027	1.442101	0.572249
C112	C	0.157973	1.692101	0.822249
C113	C	-0.592008	0.942102	-0.072211
C114	C	-0.342008	1.192102	0.177789
C115	C	-0.092008	1.442102	0.427789
C116	C	0.157992	1.692102	0.677789
C117	C	-0.653018	0.903474	0.000020
C118	C	-0.403018	1.153474	0.250020
C119	C	-0.153018	1.403474	0.500020
C120	C	0.096982	1.653474	0.750020
C121	C	-0.437225	0.979035	-0.000016
C122	C	-0.187225	1.229035	0.249984
C123	C	0.062775	1.479035	0.499984
C124	C	0.312775	1.729035	0.749984
C125	C	-0.792140	0.985225	-0.000036
C126	C	-0.542140	1.235225	0.249964
C127	C	-0.292140	1.485225	0.499964
C128	C	-0.042140	1.735225	0.749964
C129	C	0.038885	0.988193	-0.000034
C130	C	0.288885	1.238193	0.249966
C131	C	0.538885	1.488193	0.499966
C132	C	0.788885	1.738193	0.749966
C133	C	0.132130	0.986548	-0.000044
C134	C	0.382130	1.236548	0.249956
C135	C	0.632130	1.486548	0.499956
C136	C	0.882130	1.736548	0.749956
C137	C	-0.108513	1.134136	-0.000033
C138	C	0.141487	1.384136	0.249967
C139	C	0.391487	1.634136	0.499967
C140	C	0.641487	1.884136	0.749967
C141	C	-0.110145	1.226432	-0.000041
C142	C	0.139855	1.476432	0.249959
C143	C	0.389855	1.726432	0.499959
C144	C	0.639855	1.976432	0.749959
N145	N	-0.114683	0.982125	0.228149
N146	N	0.135317	1.232125	0.478149
N147	N	0.385317	1.482125	0.728149
N148	N	0.635317	1.732125	0.978149
N149	N	-0.114683	0.982146	-0.228200
N150	N	0.135317	1.232146	0.021800
N151	N	0.385317	1.482146	0.271800
N152	N	0.635317	1.732146	0.521800
C153	C	-0.057583	1.038663	0.453867
C154	C	0.192417	1.288663	0.703867
C155	C	0.442417	1.538663	0.953867
C156	C	0.692417	1.788663	1.203867
C157	C	-0.057581	1.038665	0.546057
C158	C	0.192419	1.288665	0.796057
C159	C	0.442419	1.538665	1.046057
C160	C	0.692419	1.788665	1.296057
C161	C	-0.171785	0.925602	0.546075
C162	C	0.078215	1.175602	0.796075
C163	C	0.328215	1.425602	1.046075
C164	C	0.578215	1.675602	1.296075
C165	C	-0.171782	0.925596	0.453887
C166	C	0.078218	1.175596	0.703887
C167	C	0.328218	1.425596	0.953887
C168	C	0.578218	1.675596	1.203887
C169	C	-0.114682	0.982131	0.407785
C170	C	0.135318	1.232131	0.657785
C171	C	0.385318	1.482131	0.907785
C172	C	0.635318	1.732131	1.157785
C173	C	-0.114683	0.982140	0.592163
C174	C	0.135317	1.232140	0.842163
C175	C	0.385317	1.482140	1.092163
C176	C	0.635317	1.732140	1.342163
C177	C	-0.114681	0.982142	0.692119
C178	C	0.135319	1.232142	0.942119
C179	C	0.385319	1.482142	1.192119
C180	C	0.635319	1.732142	1.442119
C181	C	-0.114683	0.982128	0.307823
C182	C	0.135317	1.232128	0.557823
C183	C	0.385317	1.482128	0.807823
C184	C	0.635317	1.732128	1.057823
H185	H	-0.113282	0.403460	0.144811
H186	H	0.136718	0.653460	0.394811
H187	H	0.386718	0.903460	0.644811
H188	H	0.636718	1.153460	0.894811
Br189	Br	-0.116498	0.584313	0.188163
Br190	Br	0.133502	0.834313	0.438163
Br191	Br	0.383502	1.084313	0.688163
Br192	Br	0.633502	1.334313	0.938163
Br193	Br	-0.116491	0.584366	-0.188221
Br194	Br	0.133509	0.834366	0.061779
Br195	Br	0.383509	1.084366	0.311779
Br196	Br	0.633509	1.334366	0.561779
H197	H	-0.218280	0.879558	0.416364
H198	H	0.031720	1.129558	0.666364
H199	H	0.281720	1.379558	0.916364
H200	H	0.531720	1.629558	1.166364
Br201	Br	-0.249277	0.848881	0.608643
Br202	Br	0.000723	1.098881	0.858643
Br203	Br	0.250723	1.348881	1.108643
Br204	Br	0.500723	1.598881	1.358643
H205	H	-0.657427	1.056072	-0.133261
H206	H	-0.407427	1.306072	0.116739
H207	H	-0.157427	1.556072	0.366739
H208	H	0.092573	1.806072	0.616739
H209	H	-0.011085	1.084697	0.583575
H210	H	0.238915	1.334697	0.833575
H211	H	0.488915	1.584697	1.083575
H212	H	0.738915	1.834697	1.333575
Br213	Br	0.019911	1.115387	0.391305
Br214	Br	0.269911	1.365387	0.641305
Br215	Br	0.519911	1.615387	0.891305
Br216	Br	0.769911	1.865387	1.141305
H217	H	-0.572046	0.908257	0.133366
H218	H	-0.322046	1.158257	0.383366
H219	H	-0.072046	1.408257	0.633366
H220	H	0.177954	1.658257	0.883366
H221	H	-0.657455	1.056060	0.133230
H222	H	-0.407455	1.306060	0.383230
H223	H	-0.157455	1.556060	0.633230
H224	H	0.092545	1.806060	0.883230
H225	H	-0.113289	0.403481	-0.144877
H226	H	0.136711	0.653481	0.105123
H227	H	0.386711	0.903481	0.355123
H228	H	0.636711	1.153481	0.605123
Br229	Br	-0.708314	0.792597	0.000078
Br230	Br	-0.458314	1.042597	0.250078
Br231	Br	-0.208314	1.292597	0.500078
Br232	Br	0.041686	1.542597	0.750078
Br233	Br	-0.520780	1.171542	0.000077
Br234	Br	-0.270780	1.421542	0.250077
Br235	Br	-0.020780	1.671542	0.500077
Br236	Br	0.229220	1.921542	0.750077
H237	H	-0.571891	0.908267	-0.133263
H238	H	-0.321891	1.158267	0.116737
H239	H	-0.071891	1.408267	0.366737
H240	H	0.178109	1.658267	0.616737
