data_functionalizedCrystal
_audit_creation_method	'MofGen! by Chris Wilmer'
_symmetry_space_group_name_H-M	'P1'
_symmetry_Int_Tables_number	1
_symmetry_cell_setting	triclinic
loop_
_symmetry_equiv_pos_as_xyz
  x,y,z
_cell_length_a	19.077105
_cell_length_b	19.077068
_cell_length_c	19.076919
_cell_angle_alpha	94.470751
_cell_angle_beta	89.923776
_cell_angle_gamma	89.884684
loop_
_atom_site_label
_atom_site_type_symbol
_atom_site_fract_x
_atom_site_fract_y
_atom_site_fract_z
Zn1	Zn	1.044048	0.340450	0.453500
Zn2	Zn	1.377382	0.673784	0.786833
Zn3	Zn	1.710715	1.007117	1.120166
Zn4	Zn	1.043962	0.453600	0.340340
Zn5	Zn	1.377295	0.786934	0.673674
Zn6	Zn	1.710628	1.120267	1.007007
Zn7	Zn	0.931660	0.331023	0.330931
Zn8	Zn	1.264993	0.664357	0.664264
Zn9	Zn	1.598327	0.997690	0.997597
Zn10	Zn	0.921801	0.453176	0.453077
Zn11	Zn	1.255134	0.786509	0.786410
Zn12	Zn	1.588468	1.119842	1.119743
O13	O	0.985368	0.394562	0.394462
O14	O	1.318701	0.727896	0.727795
O15	O	1.652034	1.061229	1.061129
O16	O	1.142196	0.359583	0.442604
O17	O	1.475530	0.692916	0.775937
O18	O	1.808863	1.026250	1.109270
O19	O	1.033154	0.433572	0.240616
O20	O	1.366488	0.766906	0.573950
O21	O	1.699821	1.100239	0.907283
O22	O	0.950731	0.233799	0.343429
O23	O	1.284064	0.567132	0.676762
O24	O	1.617398	0.900466	1.010095
O25	O	1.142133	0.442714	0.359466
O26	O	1.475466	0.776047	0.692800
O27	O	1.808799	1.109380	1.026133
O28	O	1.033302	0.240725	0.433479
O29	O	1.366636	0.574058	0.766813
O30	O	1.699969	0.907392	1.100146
O31	O	0.950647	0.343516	0.233703
O32	O	1.283980	0.676849	0.567036
O33	O	1.617313	1.010182	0.900370
O34	O	0.832193	0.343104	0.343019
O35	O	1.165526	0.676437	0.676352
O36	O	1.498859	1.009771	1.009685
O37	O	0.933928	0.441990	0.551609
O38	O	1.267261	0.775324	0.884942
O39	O	1.600594	1.108657	1.218276
O40	O	0.824949	0.432849	0.432759
O41	O	1.158283	0.766182	0.766092
O42	O	1.491616	1.099516	1.099426
O43	O	1.023742	0.359171	0.551919
O44	O	1.357076	0.692505	0.885253
O45	O	1.690409	1.025838	1.218586
O46	O	1.023594	0.552019	0.359056
O47	O	1.356928	0.885352	0.692390
O48	O	1.690261	1.218685	1.025723
O49	O	0.933844	0.551707	0.441883
O50	O	1.267177	0.885040	0.775217
O51	O	1.600510	1.218374	1.108550
C52	C	0.803119	0.386908	0.386822
C53	C	1.136453	0.720241	0.720156
C54	C	1.469786	1.053575	1.053489
C55	C	0.725151	0.383651	0.383571
C56	C	1.058485	0.716984	0.716905
C57	C	1.391818	1.050318	1.050238
C58	C	0.977745	0.401585	0.578012
C59	C	1.311078	0.734918	0.911345
C60	C	1.644412	1.068252	1.244679
C61	C	0.974497	0.404578	0.656230
C62	C	1.307830	0.737911	0.989563
C63	C	1.641163	1.071244	1.322897
C64	C	0.977658	0.577398	0.401461
C65	C	1.310992	0.910731	0.734794
C66	C	1.644325	1.244064	1.068128
C67	C	0.974423	0.655619	0.404482
C68	C	1.307756	0.988952	0.737815
C69	C	1.641090	1.322285	1.071148
C70	C	0.684769	0.428912	0.428699
C71	C	1.018102	0.762245	0.762032
C72	C	1.351436	1.095578	1.095365
C73	C	0.611510	0.425842	0.425647
C74	C	0.944843	0.759175	0.758981
C75	C	1.278176	1.092509	1.092314
C76	C	0.578634	0.377515	0.377464
C77	C	0.911968	0.710849	0.710798
C78	C	1.245301	1.044182	1.044131
C79	C	0.619022	0.332250	0.332335
C80	C	0.952355	0.665583	0.665668
C81	C	1.285689	0.998917	0.999001
C82	C	0.692280	0.335317	0.335390
C83	C	1.025613	0.668650	0.668724
C84	C	1.358946	1.001983	1.002057
C85	C	0.359940	0.363323	0.363326
C86	C	0.693273	0.696657	0.696660
C87	C	1.026607	1.029990	1.029993
C88	C	0.286677	0.360262	0.360273
C89	C	0.620010	0.693595	0.693606
C90	C	0.953344	1.026928	1.026939
C91	C	0.279170	0.453853	0.453586
C92	C	0.612503	0.787187	0.786920
C93	C	0.945836	1.120520	1.120253
C94	C	0.352429	0.456918	0.456635
C95	C	0.685762	0.790252	0.789968
C96	C	1.019096	1.123585	1.123301
C97	C	0.392810	0.411651	0.411508
C98	C	0.726144	0.744984	0.744841
C99	C	1.059477	1.078317	1.078175
N100	N	0.503752	0.374378	0.374342
N101	N	0.837085	0.707711	0.707676
N102	N	1.170419	1.041045	1.041009
N103	N	0.467691	0.414785	0.414634
N104	N	0.801025	0.748118	0.747967
N105	N	1.134358	1.081451	1.081300
C106	C	1.168328	0.402247	0.402132
C107	C	1.501661	0.735581	0.735465
C108	C	1.834995	1.068914	1.068798
C109	C	1.246295	0.405522	0.405400
C110	C	1.579628	0.738855	0.738734
C111	C	1.912961	1.072189	1.072067
C112	C	0.993126	0.211015	0.387451
C113	C	1.326459	0.544348	0.720785
C114	C	1.659793	0.877681	1.054118
C115	C	0.996432	0.132798	0.384464
C116	C	1.329765	0.466131	0.717797
C117	C	1.663099	0.799464	1.051131
C118	C	1.019665	0.692509	0.362816
C119	C	1.352998	1.025843	0.696149
C120	C	1.686332	1.359176	1.029483
C121	C	1.016626	0.766007	0.365661
C122	C	1.349960	1.099340	0.698995
C123	C	1.683293	1.432673	1.032328
C124	C	0.968342	0.802612	0.410169
C125	C	1.301675	1.135945	0.743502
C126	C	1.635009	1.469279	1.076836
C127	C	0.923098	0.765717	0.451839
C128	C	1.256431	1.099050	0.785173
C129	C	1.589765	1.432383	1.118506
C130	C	0.926141	0.692221	0.448997
C131	C	1.259474	1.025554	0.782331
C132	C	1.592807	1.358888	1.115664
C133	C	0.954231	1.022406	0.423292
C134	C	1.287564	1.355740	0.756626
C135	C	1.620897	1.689073	1.089959
C136	C	0.951190	1.095907	0.426130
C137	C	1.284523	1.429241	0.759463
C138	C	1.617857	1.762574	1.092796
C139	C	1.044720	1.096192	0.339952
C140	C	1.378053	1.429526	0.673286
C141	C	1.711386	1.762859	1.006619
C142	C	1.047755	1.022695	0.337111
C143	C	1.381089	1.356028	0.670444
C144	C	1.714422	1.689361	1.003778
C145	C	1.002514	0.985806	0.378784
C146	C	1.335847	1.319139	0.712117
C147	C	1.669181	1.652473	1.045451
N148	N	0.965233	0.877738	0.413077
N149	N	1.298566	1.211072	0.746410
N150	N	1.631900	1.544405	1.079743
N151	N	1.005627	0.910681	0.375880
N152	N	1.338960	1.244015	0.709213
N153	N	1.672293	1.577348	1.042546
C154	C	0.993003	0.387518	0.211626
C155	C	1.326337	0.720851	0.544959
C156	C	1.659670	1.054185	0.878292
C157	C	0.996396	0.384333	0.133406
C158	C	1.329729	0.717666	0.466739
C159	C	1.663063	1.051000	0.800073
C160	C	1.019730	0.362866	0.693140
C161	C	1.353063	0.696200	1.026473
C162	C	1.686396	1.029533	1.359806
C163	C	1.016669	0.365675	0.766634
C164	C	1.350002	0.699008	1.099967
C165	C	1.683336	1.032342	1.433300
C166	C	0.968378	0.410200	0.803216
C167	C	1.301712	0.743533	1.136550
C168	C	1.635045	1.076866	1.469883
C169	C	0.923140	0.451913	0.766301
C170	C	1.256474	0.785246	1.099635
C171	C	1.589807	1.118579	1.432968
C172	C	0.926198	0.449100	0.692809
C173	C	1.259531	0.782433	1.026142
C174	C	1.592865	1.115766	1.359475
C175	C	0.954216	0.423233	1.022998
C176	C	1.287549	0.756566	1.356332
C177	C	1.620882	1.089900	1.689665
C178	C	0.951163	0.426044	1.096496
C179	C	1.284496	0.759378	1.429830
C180	C	1.617830	1.092711	1.763163
C181	C	1.044691	0.339805	1.096823
C182	C	1.378025	0.673139	1.430157
C183	C	1.711358	1.006472	1.763490
C184	C	1.047748	0.337000	1.023329
C185	C	1.381081	0.670333	1.356663
C186	C	1.714414	1.003666	1.689996
C187	C	1.002507	0.378710	0.986421
C188	C	1.335840	0.712043	1.319754
C189	C	1.669174	1.045376	1.653087
N190	N	0.965250	0.413073	0.878339
N191	N	1.298583	0.746407	1.211672
N192	N	1.631917	1.079740	1.545006
N193	N	1.005632	0.375832	0.911299
N194	N	1.338966	0.709165	1.244632
N195	N	1.672299	1.042498	1.577966
H196	H	0.711530	0.468267	0.467932
H197	H	1.044864	0.801600	0.801266
H198	H	1.378197	1.134933	1.134599
H199	H	0.911879	1.125710	0.462386
H200	H	1.245212	1.459044	0.795719
H201	H	1.578546	1.792377	1.129053
C202	C	0.876439	0.494987	0.652208
C203	C	1.209772	0.828320	0.985542
C204	C	1.543106	1.161653	1.318875
N205	N	0.838958	0.529549	0.621629
N206	N	1.172291	0.862883	0.954962
N207	N	1.505624	1.196216	1.288296
H208	H	0.911836	0.462303	1.126280
H209	H	1.245170	0.795636	1.459613
H210	H	1.578503	1.128970	1.792947
H211	H	0.917388	0.457207	0.992957
H212	H	1.250721	0.790540	1.326290
H213	H	1.584054	1.123874	1.659623
C214	C	0.736700	0.285528	0.285745
C215	C	1.070034	0.618861	0.619078
C216	C	1.403367	0.952195	0.952412
N217	N	0.770157	0.248024	0.248351
N218	N	1.103490	0.581358	0.581685
N219	N	1.436824	0.914691	0.915018
H220	H	1.058980	0.662710	0.326570
H221	H	1.392314	0.996043	0.659903
H222	H	1.725647	1.329376	0.993236
H223	H	1.059056	0.326612	0.663360
H224	H	1.392389	0.659945	0.996693
H225	H	1.725722	0.993279	1.330026
H226	H	0.578633	0.462699	0.462394
H227	H	0.911967	0.796032	0.795728
H228	H	1.245300	1.129365	1.129061
C229	C	1.066392	0.806582	0.319821
C230	C	1.399725	1.139916	0.653154
C231	C	1.733059	1.473249	0.986487
N232	N	1.103877	0.837144	0.285290
N233	N	1.437210	1.170477	0.618624
N234	N	1.770544	1.503810	0.951957
H235	H	1.087072	0.992892	0.300869
H236	H	1.420406	1.326225	0.634203
H237	H	1.753739	1.659559	0.967536
H238	H	1.053504	0.331711	0.796682
H239	H	1.386838	0.665044	1.130016
H240	H	1.720171	0.998378	1.463349
H241	H	0.917392	0.992377	0.457223
H242	H	1.250726	1.325710	0.790556
H243	H	1.584059	1.659044	1.123890
C244	C	0.869982	0.805985	0.500796
C245	C	1.203315	1.139319	0.834129
C246	C	1.536649	1.472652	1.167463
N247	N	0.829971	0.836315	0.537668
N248	N	1.163304	1.169648	0.871001
N249	N	1.496638	1.502981	1.204335
C250	C	0.388586	0.510085	0.509637
C251	C	0.721920	0.843418	0.842970
C252	C	1.055253	1.176751	1.176303
N253	N	0.415820	0.550134	0.549556
N254	N	0.749153	0.883467	0.882889
N255	N	1.082486	1.216800	1.216222
C256	C	1.094484	1.136776	0.294117
C257	C	1.427817	1.470109	0.627451
C258	C	1.761151	1.803443	0.960784
N259	N	1.131970	1.167344	0.259594
N260	N	1.465303	1.500677	0.592927
N261	N	1.798636	1.834011	0.926261
H262	H	0.246283	0.490707	0.490327
H263	H	0.579617	0.824040	0.823660
H264	H	0.912950	1.157373	1.156994
C265	C	0.876371	0.651642	0.494833
C266	C	1.209704	0.984975	0.828167
C267	C	1.543038	1.318309	1.161500
N268	N	0.838885	0.621079	0.529360
N269	N	1.172218	0.954412	0.862694
N270	N	1.505552	1.287745	1.196027
C271	C	1.100865	0.288012	0.983093
C272	C	1.434198	0.621345	1.316427
C273	C	1.767531	0.954679	1.649760
N274	N	1.140872	0.251113	0.952787
N275	N	1.474206	0.584446	1.286121
N276	N	1.807539	0.917779	1.619454
C277	C	0.250516	0.307095	0.307266
C278	C	0.583849	0.640428	0.640600
C279	C	0.917183	0.973762	0.973933
N280	N	0.223279	0.267053	0.267343
N281	N	0.556613	0.600386	0.600676
N282	N	0.889946	0.933720	0.934010
C283	C	1.094444	0.293918	1.137428
C284	C	1.427777	0.627252	1.470762
C285	C	1.761111	0.960585	1.804095
N286	N	1.131916	0.259350	1.168012
N287	N	1.465250	0.592684	1.501345
N288	N	1.798583	0.926017	1.834679
H289	H	0.883818	0.488163	0.796093
H290	H	1.217152	0.821496	1.129426
H291	H	1.550485	1.154829	1.462759
H292	H	0.592249	0.292898	0.293106
H293	H	0.925583	0.626232	0.626439
H294	H	1.258916	0.959565	0.959773
C295	C	0.404350	0.313531	0.313681
C296	C	0.737683	0.646865	0.647014
C297	C	1.071017	0.980198	0.980347
N298	N	0.437802	0.276027	0.276284
N299	N	0.771136	0.609360	0.609617
N300	N	1.104469	0.942693	0.942951
