data_functionalizedCrystal
_audit_creation_method	'MofGen! by Chris Wilmer'
_symmetry_space_group_name_H-M	'P1'
_symmetry_Int_Tables_number	1
_symmetry_cell_setting	triclinic
loop_
_symmetry_equiv_pos_as_xyz
  x,y,z
_cell_length_a	19.188929
_cell_length_b	19.188925
_cell_length_c	9.798715
_cell_angle_alpha	90.004381
_cell_angle_beta	89.975087
_cell_angle_gamma	96.856335
loop_
_atom_site_label
_atom_site_type_symbol
_atom_site_fract_x
_atom_site_fract_y
_atom_site_fract_z
O1	O	-0.087148	0.926146	0.113585
O2	O	-0.098886	0.722834	0.113590
O3	O	0.008639	0.830358	0.113503
O4	O	-0.194673	0.818623	0.113672
O5	O	0.008639	0.830350	-0.113479
O6	O	-0.098886	0.722827	-0.113392
O7	O	-0.087148	0.926139	-0.113397
Zn8	Zn	-0.093017	0.824482	-0.149433
Zn9	Zn	-0.093017	0.824492	0.149626
O10	O	-0.194673	0.818616	-0.113310
C11	C	-0.098507	0.696820	0.000098
C12	C	-0.097367	0.619315	0.000096
C13	C	-0.152831	0.057545	0.000145
C14	C	-0.153908	0.130368	0.000154
C15	C	-0.090816	0.175302	0.000099
C16	C	-0.026642	0.147408	0.000070
C17	C	-0.025568	0.074586	0.000076
N18	N	-0.045139	0.295977	-0.077206
N19	N	-0.046165	0.365154	-0.077214
C20	C	-0.094050	0.394712	0.000085
N21	N	-0.140882	0.352477	0.077375
N22	N	-0.139858	0.283293	0.077377
C23	C	-0.091974	0.254267	0.000094
C24	C	-0.159386	0.501561	0.000132
C25	C	-0.160460	0.574385	0.000149
C26	C	-0.033193	0.591425	0.000052
C27	C	-0.032121	0.518601	0.000049
C28	C	-0.095220	0.473673	0.000082
C29	C	-0.220684	0.819000	0.000203
C30	C	-0.298188	0.820140	0.000268
C31	C	-0.343113	0.757049	0.000242
C32	C	-0.415937	0.758121	0.000211
C33	C	-0.443833	0.822287	0.000179
C34	C	-0.398897	0.885386	0.000212
C35	C	-0.326075	0.884313	0.000257
N36	N	-0.551800	0.871332	-0.077156
N37	N	-0.620978	0.872347	-0.077201
C38	C	-0.663241	0.825525	0.000047
N39	N	-0.633713	0.777639	0.077326
N40	N	-0.564528	0.776622	0.077365
C41	C	-0.522795	0.823458	0.000131
C42	C	-0.787131	0.763592	-0.000010
C43	C	-0.859955	0.764666	-0.000032
C44	C	-0.842914	0.891934	-0.000045
C45	C	-0.770091	0.890857	-0.000009
C46	C	-0.742204	0.826685	0.000002
C47	C	0.034650	0.829974	-0.000007
C48	C	0.112154	0.828833	-0.000062
C49	C	-0.087527	0.952154	0.000098
C50	C	-0.088666	1.029658	0.000109
N51	N	-0.093016	0.824480	-0.353532
C52	C	-0.052998	0.784243	-0.421376
C53	C	-0.052996	0.784253	-0.578539
N54	N	-0.093012	0.824499	0.353726
H55	H	0.024728	0.183999	0.000030
Br56	Br	-0.305270	0.669958	0.000268
H57	H	-0.212713	0.597088	0.000189
Br58	Br	0.054965	0.480752	0.000011
Br59	Br	-0.238465	-0.003426	0.000206
Br60	Br	-0.150115	0.881926	-0.549050
H61	H	-0.206160	0.153078	0.000170
H62	H	0.026685	0.051883	0.000047
Br63	Br	-0.920928	0.679035	-0.000044
Br64	Br	-0.880764	0.979018	-0.000068
H65	H	0.018178	0.628010	0.000018
Br66	Br	0.004117	0.726840	-0.675772
Br67	Br	-0.476919	0.672491	0.000173
H68	H	-0.210765	0.464978	0.000162
H69	H	-0.733512	0.942233	0.000004
Br70	Br	-0.749279	0.676503	0.000009
Br71	Br	-0.436753	0.972470	0.000184
H72	H	-0.127279	0.858932	-0.411801
Br73	Br	0.004099	0.726806	-0.324272
H74	H	-0.289496	0.935691	0.000279
