data_functionalizedCrystal
_audit_creation_method	'MofGen! by Chris Wilmer'
_symmetry_space_group_name_H-M	'P1'
_symmetry_Int_Tables_number	1
_symmetry_cell_setting	triclinic
loop_
_symmetry_equiv_pos_as_xyz
  x,y,z
_cell_length_a	17.699083
_cell_length_b	12.996460
_cell_length_c	17.699092
_cell_angle_alpha	90.004461
_cell_angle_beta	83.284691
_cell_angle_gamma	89.999557
loop_
_atom_site_label
_atom_site_type_symbol
_atom_site_fract_x
_atom_site_fract_y
_atom_site_fract_z
O1	O	1.004080	0.085419	0.095712
O2	O	0.783702	0.085452	0.108165
O3	O	0.900114	0.085432	-0.008250
O4	O	0.887668	0.085439	0.212127
O5	O	0.900102	-0.085702	-0.008257
O6	O	0.783690	-0.085682	0.108158
O7	O	1.004068	-0.085715	0.095706
Cu8	Cu	0.893877	-0.101324	0.101931
Cu9	Cu	0.893892	0.101061	0.101939
O10	O	0.887656	-0.085695	0.212121
C11	C	0.755499	-0.000111	0.107715
C12	C	0.671480	-0.000098	0.106377
C13	C	0.622862	-0.000096	0.174710
C14	C	0.543918	-0.000109	0.173448
C15	C	0.513595	-0.000117	0.103851
C16	C	0.562220	-0.000122	0.035513
C17	C	0.641162	-0.000116	0.036776
C18	C	0.243857	-0.000148	0.030418
C19	C	0.164909	-0.000151	0.029160
C20	C	0.146613	-0.000141	0.167089
C21	C	0.225555	-0.000135	0.168352
C22	C	0.274173	-0.000145	0.100014
C23	C	0.359772	-0.000133	0.101384
C24	C	0.427998	-0.000122	0.102481
N25	N	0.893873	-0.243671	0.101926
C26	C	0.893891	-0.663486	0.101940
C27	C	0.893883	-0.546681	0.101938
C28	C	0.893882	-0.453582	0.101933
C29	C	0.893874	-0.336770	0.101931
C30	C	1.032271	-0.000150	0.096155
C31	C	1.116289	-0.000156	0.097494
N32	N	0.893902	0.243408	0.101939
C33	C	0.899661	-0.000133	-0.036450
C34	C	0.898319	-0.000128	-0.120468
C35	C	0.897698	0.093158	-0.159932
C36	C	0.896433	0.093159	-0.238875
C37	C	0.895795	-0.000126	-0.278353
C38	C	0.896415	-0.093420	-0.238884
C39	C	0.897674	-0.093420	-0.159941
C40	C	0.891334	-0.093421	-0.557249
C41	C	0.890077	-0.093413	-0.636197
C42	C	0.890093	0.093159	-0.636182
C43	C	0.891352	0.093159	-0.557240
C44	C	0.891968	-0.000134	-0.517777
C45	C	0.893338	-0.000134	-0.432178
C46	C	0.894430	-0.000127	-0.363952
C47	C	0.888109	-0.000128	0.240321
C48	C	0.889450	-0.000126	0.324339
H49	H	0.680748	-0.000117	-0.018868
H50	H	0.898170	-0.169384	-0.127809
Cl51	Cl	0.898505	0.210439	-0.110311
H52	H	0.283433	-0.000157	-0.025227
Cl53	Cl	0.482800	-0.000101	0.259356
Cl54	Cl	0.126791	-0.000161	-0.058339
H55	H	0.647544	-0.000089	0.231383
Cl56	Cl	0.263670	-0.000120	0.255848
H57	H	0.895930	0.169123	-0.271004
H58	H	0.889556	-0.169382	-0.668337
Cl59	Cl	0.892158	0.210437	-0.507615
Cl60	Cl	0.889317	0.210444	-0.685798
H61	H	0.107018	-0.000138	0.222733
H62	H	0.537525	-0.000143	-0.021154
Cl63	Cl	0.892096	-0.210704	-0.507646
Cl64	Cl	0.895604	-0.210695	-0.288512
