data_functionalizedCrystal
_audit_creation_method	'MofGen! by Chris Wilmer'
_symmetry_space_group_name_H-M	'P1'
_symmetry_Int_Tables_number	1
_symmetry_cell_setting	triclinic
loop_
_symmetry_equiv_pos_as_xyz
  x,y,z
_cell_length_a	11.792241
_cell_length_b	11.792241
_cell_length_c	10.868271
_cell_angle_alpha	90.005281
_cell_angle_beta	90.000107
_cell_angle_gamma	84.193416
loop_
_atom_site_label
_atom_site_type_symbol
_atom_site_fract_x
_atom_site_fract_y
_atom_site_fract_z
O1	O	-1.506908	-0.155568	-0.102203
O2	O	-1.173575	0.177765	0.231130
O3	O	-0.840242	0.511098	0.564463
O4	O	-1.176567	-0.171601	-0.102232
O5	O	-0.843234	0.161732	0.231101
O6	O	-0.509901	0.495065	0.564435
O7	O	-1.349754	0.001586	-0.102208
O8	O	-1.016421	0.334919	0.231125
O9	O	-0.683088	0.668252	0.564458
O10	O	-1.333721	-0.328755	-0.102227
O11	O	-1.000388	0.004578	0.231106
O12	O	-0.667055	0.337911	0.564440
O13	O	-1.349740	0.001592	0.102436
O14	O	-1.016407	0.334926	0.435770
O15	O	-0.683073	0.668259	0.769103
O16	O	-1.176553	-0.171595	0.102413
O17	O	-0.843220	0.161739	0.435746
O18	O	-0.509886	0.495072	0.769079
O19	O	-1.506894	-0.155562	0.102441
O20	O	-1.173561	0.177772	0.435775
O21	O	-0.840227	0.511105	0.769108
Zn22	Zn	-1.341721	-0.163577	0.134919
Zn23	Zn	-1.008388	0.169756	0.468252
Zn24	Zn	-0.675055	0.503090	0.801585
Zn25	Zn	-1.341740	-0.163586	-0.134709
Zn26	Zn	-1.008407	0.169747	0.198624
Zn27	Zn	-0.675073	0.503081	0.531957
O28	O	-1.333707	-0.328749	0.102418
O29	O	-1.000374	0.004585	0.435751
O30	O	-0.667040	0.337918	0.769084
C31	C	-1.134269	-0.170591	0.000087
C32	C	-0.800936	0.162742	0.333420
C33	C	-0.467603	0.496076	0.666753
C34	C	-1.008255	-0.167576	0.000076
C35	C	-0.674922	0.165757	0.333409
C36	C	-0.341589	0.499090	0.666743
C37	C	-1.348740	0.043880	0.000114
C38	C	-1.015407	0.377213	0.333447
C39	C	-0.682073	0.710547	0.666780
C40	C	-1.345726	0.169894	0.000112
C41	C	-1.012392	0.503227	0.333445
C42	C	-0.679059	0.836560	0.666779
N43	N	-1.341717	-0.163570	0.318933
N44	N	-1.008383	0.169763	0.652266
N45	N	-0.675050	0.503096	0.985600
C46	C	-1.549192	-0.156572	0.000120
C47	C	-1.215859	0.176761	0.333453
C48	C	-0.882525	0.510095	0.666787
C49	C	-1.675206	-0.159587	0.000123
C50	C	-1.341873	0.173747	0.333456
C51	C	-1.008539	0.507080	0.666789
C52	C	-0.777543	-0.162034	0.000112
C53	C	-0.444210	0.171300	0.333445
C54	C	-0.110877	0.504633	0.666778
C55	C	-0.905928	-0.165113	0.000092
C56	C	-0.572595	0.168220	0.333425
C57	C	-0.239262	0.501553	0.666759
C58	C	-1.334721	-0.371043	0.000093
C59	C	-1.001388	-0.037710	0.333426
C60	C	-0.668055	0.295624	0.666760
C61	C	-1.337736	-0.497057	0.000087
C62	C	-1.004402	-0.163723	0.333420
C63	C	-0.671069	0.169610	0.666753
C64	C	-1.340183	0.400606	0.000091
C65	C	-1.006849	0.733939	0.333424
C66	C	-0.673516	1.067272	0.666758
C67	C	-1.343262	0.272221	0.000102
C68	C	-1.009929	0.605554	0.333436
C69	C	-0.676596	0.938887	0.666769
N70	N	-1.341754	-0.163584	-0.318723
N71	N	-1.008420	0.169749	0.014610
N72	N	-0.675087	0.503083	0.347943
C73	C	-1.341734	-0.163584	0.569939
C74	C	-1.008401	0.169750	0.903272
C75	C	-0.675068	0.503083	1.236606
C76	C	-1.341721	-0.163580	0.430261
C77	C	-1.008387	0.169754	0.763595
C78	C	-0.675054	0.503087	1.096928
