data_functionalizedCrystal
_audit_creation_method	'MofGen! by Chris Wilmer'
_symmetry_space_group_name_H-M	'P1'
_symmetry_Int_Tables_number	1
_symmetry_cell_setting	triclinic
loop_
_symmetry_equiv_pos_as_xyz
  x,y,z
_cell_length_a	10.489741
_cell_length_b	14.971486
_cell_length_c	8.965430
_cell_angle_alpha	90.007333
_cell_angle_beta	90.002666
_cell_angle_gamma	95.923349
loop_
_atom_site_label
_atom_site_type_symbol
_atom_site_fract_x
_atom_site_fract_y
_atom_site_fract_z
O1	O	-1.692596	0.126187	-0.123927
O2	O	-1.321263	0.138032	-0.123948
O3	O	-1.516882	0.001966	-0.123948
O4	O	-1.496977	0.262253	-0.123927
O5	O	-1.516860	0.001979	0.124131
O6	O	-1.321241	0.138045	0.124131
O7	O	-1.692573	0.126200	0.124152
Cu8	Cu	-1.506905	0.132124	0.146793
Cu9	Cu	-1.506932	0.132108	-0.146589
O10	O	-1.496954	0.262266	0.124152
C11	C	-1.273731	0.137144	0.000088
C12	C	-1.132132	0.134468	0.000079
C13	C	-1.515981	-0.031357	0.000085
C14	C	-1.513313	-0.130669	0.000067
C15	C	-1.740106	0.127088	0.000112
C16	C	-1.881704	0.129765	0.000111
C17	C	-1.064994	0.047893	0.000086
C18	C	-0.972405	0.088783	-0.122223
C19	C	-0.972416	0.088817	0.122363
C20	C	-1.041408	0.175394	-0.122331
C21	C	-1.041429	0.175415	0.122365
C22	C	-0.948867	0.216369	0.000026
C23	C	-1.497856	0.295589	0.000115
C24	C	-1.500523	0.394902	0.000123
C25	C	-1.385603	0.451473	0.000115
C26	C	-1.388117	0.544787	0.000095
C27	C	-1.505553	0.581527	0.000094
C28	C	-1.620483	0.524949	0.000098
C29	C	-1.617967	0.431637	0.000107
C30	C	-1.625718	0.719441	0.000082
C31	C	-1.628234	0.812759	0.000075
C32	C	-1.395867	0.832591	0.000070
C33	C	-1.393352	0.739279	0.000079
C34	C	-1.508282	0.682707	0.000086
N35	N	-1.506895	0.132134	0.353142
C36	C	-1.416398	0.195041	0.450448
C37	C	-1.531682	0.213142	0.549870
C38	C	-1.391652	0.114047	0.549847
C39	C	-1.622238	0.150275	0.450375
C40	C	-1.482132	0.051145	0.450344
C41	C	-1.597500	0.069212	0.549721
N42	N	-1.506926	0.132108	0.647062
H43	H	-1.115507	-0.023277	-0.000073
O44	O	-1.258939	0.411845	0.000125
H45	H	-1.203723	0.434490	-0.100998
H46	H	-1.072042	0.212023	0.225781
O47	O	-1.454306	-0.039534	0.392384
H48	H	-1.528492	-0.091855	0.433895
H49	H	-1.711548	0.385577	0.000107
H50	H	-1.294536	0.590844	0.000084
H51	H	-1.719732	0.165644	0.406865
O52	O	-0.931871	0.040259	-0.259196
H53	H	-0.978818	-0.029662	-0.258951
O54	O	-1.081682	0.223839	-0.259494
H55	H	-1.187237	0.225405	-0.258470
H56	H	-1.297725	0.709368	0.000088
O57	O	-1.271900	0.893600	0.000048
H58	H	-1.293374	0.964659	0.000020
O59	O	-1.315114	0.265562	0.392701
H60	H	-1.315386	0.264523	0.268911
O61	O	-1.699000	-0.001268	0.607116
H62	H	-1.679178	-0.068275	0.565474
O63	O	-1.559423	0.303836	0.607872
H64	H	-1.484147	0.355950	0.568154
O65	O	-1.262546	0.093785	0.607729
H66	H	-1.187590	0.146107	0.567954
H67	H	-1.723861	0.842670	0.000072
H68	H	-1.719307	0.673382	0.000075
H69	H	-0.941853	0.052175	0.225766
O70	O	-0.882313	0.310743	-0.000025
H71	H	-0.909947	0.346450	-0.101647
O72	O	-1.747152	0.564569	0.000087
H73	H	-1.753859	0.606611	0.101203
