data_functionalizedCrystal
_audit_creation_method	'MofGen! by Chris Wilmer'
_symmetry_space_group_name_H-M	'P1'
_symmetry_Int_Tables_number	1
_symmetry_cell_setting	triclinic
loop_
_symmetry_equiv_pos_as_xyz
  x,y,z
_cell_length_a	19.121112
_cell_length_b	19.121073
_cell_length_c	12.645323
_cell_angle_alpha	87.594102
_cell_angle_beta	92.460596
_cell_angle_gamma	90.128326
loop_
_atom_site_label
_atom_site_type_symbol
_atom_site_fract_x
_atom_site_fract_y
_atom_site_fract_z
Zn1	Zn	1.059865	-0.324893	0.688416
Zn2	Zn	1.054761	-0.442134	0.518343
Zn3	Zn	0.942621	-0.319910	0.503303
Zn4	Zn	0.937587	-0.437083	0.687701
O5	O	0.998708	-0.381005	0.599441
O6	O	1.157293	-0.344645	0.672449
O7	O	1.039857	-0.425948	0.368001
O8	O	0.962416	-0.222468	0.521862
O9	O	1.153543	-0.430781	0.547497
O10	O	1.048554	-0.226129	0.657864
O11	O	0.957467	-0.336151	0.356950
O12	O	0.843848	-0.331254	0.521170
O13	O	0.953836	-0.422173	0.836144
O14	O	0.840149	-0.417341	0.656647
O15	O	1.043673	-0.339748	0.836668
O16	O	1.034975	-0.539567	0.546805
O17	O	0.948888	-0.535857	0.671232
C18	C	0.816561	-0.373209	0.587200
C19	C	0.738637	-0.369891	0.581989
C20	C	0.298010	-0.348838	0.548984
C21	C	0.371228	-0.351960	0.553886
C22	C	0.405924	-0.398415	0.626767
C23	C	0.367399	-0.441747	0.694758
C24	C	0.294183	-0.438621	0.689860
C25	C	0.626895	-0.410096	0.645082
C26	C	0.700117	-0.413220	0.649973
C27	C	0.703941	-0.323432	0.509101
C28	C	0.630723	-0.320313	0.504206
C29	C	0.592204	-0.363642	0.572200
C30	C	0.480765	-0.401609	0.631777
C31	C	0.517365	-0.360444	0.567195
C32	C	0.990850	-0.563150	0.610597
C33	C	0.987553	-0.641075	0.615410
C34	C	0.966677	-1.081708	0.645961
C35	C	0.969775	-1.008489	0.641428
C36	C	1.016179	-0.973792	0.574429
C37	C	1.059493	-1.012318	0.511969
C38	C	1.056397	-1.085535	0.516509
C39	C	1.027772	-0.752818	0.557489
C40	C	1.030862	-0.679595	0.552951
C41	C	0.941145	-0.675771	0.682412
C42	C	0.938051	-0.748990	0.686942
C43	C	0.981367	-0.787510	0.624485
C44	C	1.019345	-0.898951	0.569791
C45	C	0.978204	-0.862350	0.629129
C46	C	1.181567	-0.388832	0.611730
C47	C	1.259490	-0.392168	0.616968
C48	C	0.998762	-0.380953	0.875946
C49	C	0.998785	-0.380931	0.993777
C50	C	1.006616	-0.198150	0.588265
C51	C	1.009986	-0.120228	0.583503
C52	C	0.998697	-0.381008	0.324010
C53	C	0.998818	-0.380839	0.206178
C54	C	0.942112	-0.432522	1.160984
C55	C	0.942243	-0.432795	1.038450
C56	C	1.071795	-0.404137	1.044478
C57	C	1.071483	-0.404463	1.167077
C58	C	0.983159	-0.305861	1.155157
C59	C	0.981492	-0.306236	1.032468
H60	H	0.489112	-0.322618	0.507860
H61	H	1.085737	-0.458484	1.018170
H62	H	0.509022	-0.439435	0.691114
Cl63	Cl	0.245757	-0.493092	0.775333
H64	H	0.940424	-0.890604	0.683683
H65	H	0.402588	-0.316679	0.498522
Cl66	Cl	0.578481	-0.464571	0.730557
H67	H	1.091666	-1.116898	0.465651
Cl68	Cl	1.077679	-0.855325	0.485566
Cl69	Cl	0.411017	-0.500152	0.786376
H70	H	0.602478	-0.282489	0.444851
H71	H	0.928890	-1.109953	0.700520
Cl72	Cl	1.092545	-0.489229	1.218043
H73	H	0.905879	-0.644402	0.733263
Cl74	Cl	0.902650	-0.274153	1.195656
Cl75	Cl	0.915329	-0.960066	0.719954
Cl76	Cl	0.879722	-0.792605	0.771187
H77	H	0.735311	-0.288155	0.453745
Cl78	Cl	1.046984	-0.246350	1.200239
Cl79	Cl	0.898558	-0.279306	0.980497
H80	H	0.269766	-0.311009	0.489635
Cl81	Cl	0.858503	-0.409808	0.985112
H82	H	0.887706	-0.417749	1.186012
Cl83	Cl	0.957845	-0.518505	0.999681
H84	H	0.728364	-0.451050	0.709327
H85	H	1.068652	-0.651348	0.498389
Cl86	Cl	0.957467	-0.517689	1.215089
Cl87	Cl	1.040999	-0.243247	0.984997
Cl88	Cl	1.082225	-0.801233	0.478969
Cl89	Cl	1.117834	-0.968699	0.427748
Cl90	Cl	1.138626	-0.349090	1.213671
H91	H	1.115040	-0.367823	1.015795
