data_functionalizedCrystal
_audit_creation_method	'MofGen! by Chris Wilmer'
_symmetry_space_group_name_H-M	'P1'
_symmetry_Int_Tables_number	1
_symmetry_cell_setting	triclinic
loop_
_symmetry_equiv_pos_as_xyz
  x,y,z
_cell_length_a	10.686220
_cell_length_b	12.827892
_cell_length_c	10.686551
_cell_angle_alpha	94.405078
_cell_angle_beta	89.691918
_cell_angle_gamma	94.396976
loop_
_atom_site_label
_atom_site_type_symbol
_atom_site_fract_x
_atom_site_fract_y
_atom_site_fract_z
Zn1	Zn	1.972286	-0.254771	0.562389
Zn2	Zn	1.956055	-0.443915	0.352633
Zn3	Zn	1.746404	-0.281503	0.368707
Zn4	Zn	1.762485	-0.441797	0.578411
O5	O	1.859307	-0.355496	0.465535
O6	O	2.145674	-0.269560	0.521133
O7	O	1.914721	-0.434445	0.179220
O8	O	1.776430	-0.131715	0.394421
O9	O	2.133750	-0.408523	0.367026
O10	O	1.942384	-0.112075	0.536719
O11	O	1.760692	-0.315121	0.191029
O12	O	1.572995	-0.313068	0.409957
O13	O	1.803838	-0.404914	0.751831
O14	O	1.584810	-0.430835	0.564025
O15	O	1.957978	-0.267506	0.740060
O16	O	1.930315	-0.589876	0.382561
O17	O	1.788100	-0.588320	0.548439
C18	C	1.533386	-0.374623	0.490474
C19	C	1.393958	-0.382829	0.501173
C20	C	1.859227	-0.627013	0.465519
C21	C	1.859311	-0.743159	0.465545
C22	C	1.929780	-0.795668	0.383541
C23	C	1.929868	-0.915711	0.383567
C24	C	2.186501	-0.336296	0.440499
C25	C	2.325931	-0.328114	0.429830
C26	C	1.884512	-0.332992	0.792735
C27	C	1.895253	-0.323402	0.932168
C28	C	1.859424	-0.082916	0.465576
C29	C	1.859474	0.033241	0.465594
C30	C	1.834273	-0.377834	0.139602
C31	C	1.823775	-0.387115	0.000151
H32	H	1.374357	-0.274993	0.360564
H33	H	1.964676	-0.261517	0.980641
C34	C	1.328534	-0.454604	0.594751
N35	N	1.279255	-0.508663	0.665233
C36	C	2.011199	-0.736343	0.288665
N37	N	2.072524	-0.691662	0.217200
C38	C	1.777889	-0.802483	0.560418
N39	N	1.716557	-0.847165	0.631878
C40	C	2.011374	-0.976708	0.288714
N41	N	2.072766	-1.022655	0.217269
H42	H	1.799133	-0.921614	0.535800
C43	C	1.729996	-0.470719	0.934677
N44	N	1.659359	-0.533690	0.885353
