data_functionalizedCrystal
_audit_creation_method	'MofGen! by Chris Wilmer'
_symmetry_space_group_name_H-M	'P1'
_symmetry_Int_Tables_number	1
_symmetry_cell_setting	triclinic
loop_
_symmetry_equiv_pos_as_xyz
  x,y,z
_cell_length_a	10.654550
_cell_length_b	10.654550
_cell_length_c	9.730223
_cell_angle_alpha	89.998791
_cell_angle_beta	89.996251
_cell_angle_gamma	84.484916
loop_
_atom_site_label
_atom_site_type_symbol
_atom_site_fract_x
_atom_site_fract_y
_atom_site_fract_z
O1	O	-1.667834	-0.176393	0.114403
O2	O	-1.302356	-0.193199	0.114381
O3	O	-1.493498	-0.002057	0.114383
O4	O	-1.476692	-0.367535	0.114400
O5	O	-1.493496	-0.002062	-0.114196
O6	O	-1.302353	-0.193204	-0.114199
O7	O	-1.667832	-0.176398	-0.114177
Zn8	Zn	-1.485092	-0.184802	-0.150480
Zn9	Zn	-1.485095	-0.184795	0.150684
O10	O	-1.476690	-0.367540	-0.114180
C11	C	-1.255556	-0.191968	0.000088
C12	C	-1.116113	-0.188276	0.000079
C13	C	-1.492263	0.044739	0.000094
C14	C	-1.488571	0.184182	0.000096
C15	C	-1.714631	-0.177630	0.000119
C16	C	-1.854074	-0.181321	0.000136
C17	C	-1.036627	-0.300817	0.000104
C18	C	-0.905607	-0.297341	0.000128
C19	C	-0.933570	-0.068771	0.000107
C20	C	-1.064588	-0.072249	0.000074
C21	C	-1.020482	-0.432780	0.000122
C22	C	-0.889461	-0.429304	0.000146
C23	C	-1.477925	-0.414336	0.000112
C24	C	-1.481617	-0.553779	0.000119
N25	N	-1.485099	-0.184805	-0.356017
C26	C	-1.601112	0.263667	0.000103
C27	C	-1.597636	0.394688	0.000120
C28	C	-1.369066	0.366725	0.000116
C29	C	-1.372544	0.235707	0.000109
C30	C	-1.569759	-0.100197	-0.427941
C31	C	-1.569756	-0.100181	-0.571824
C32	C	-1.400429	-0.269395	-0.571845
C33	C	-1.400427	-0.269403	-0.427965
C34	C	-1.667522	-0.002506	-0.427931
C35	C	-1.667519	-0.002491	-0.571814
N36	N	-1.485098	-0.184782	0.356220
H37	H	-1.129302	0.019393	0.000033
H38	H	-1.646080	0.094027	-0.388882
H39	H	-1.274601	0.408693	0.000124
H40	H	-1.758706	-0.033094	-0.383297
Cl41	Cl	-1.816522	-0.035702	-0.632105
H42	H	-1.049812	-0.484393	-0.095541
H43	H	-1.695588	0.221721	0.000095
H44	H	-1.689279	0.459401	0.000129
Cl45	Cl	-1.620400	0.138340	-0.640718
H46	H	-0.891602	0.025694	0.000124
H47	H	-0.843789	-0.469187	-0.098537
Cl48	Cl	-0.825021	-0.506061	0.147848
Cl49	Cl	-1.075544	-0.497649	0.152488
Cl50	Cl	-1.293979	-0.375754	-0.337544
H51	H	-1.280893	0.170986	0.000108
H52	H	-1.331490	-0.338271	-0.630441
