data_functionalizedCrystal
_audit_creation_method	'MofGen! by Chris Wilmer'
_symmetry_space_group_name_H-M	'P1'
_symmetry_Int_Tables_number	1
_symmetry_cell_setting	triclinic
loop_
_symmetry_equiv_pos_as_xyz
  x,y,z
_cell_length_a	10.654550
_cell_length_b	15.944551
_cell_length_c	9.130313
_cell_angle_alpha	89.997799
_cell_angle_beta	89.996220
_cell_angle_gamma	83.991820
loop_
_atom_site_label
_atom_site_type_symbol
_atom_site_fract_x
_atom_site_fract_y
_atom_site_fract_z
O1	O	1.666308	0.117973	-0.121923
O2	O	1.300684	0.129213	-0.121900
O3	O	1.493480	0.001376	-0.121899
O4	O	1.473511	0.245810	-0.121924
O5	O	1.493478	0.001379	0.121700
O6	O	1.300681	0.129216	0.121699
O7	O	1.666305	0.117976	0.121676
Cu8	Cu	1.483493	0.123596	0.143930
Cu9	Cu	1.483496	0.123592	-0.144154
O10	O	1.473509	0.245813	0.121675
C11	C	1.253895	0.128389	-0.000098
C12	C	1.114484	0.125920	-0.000088
C13	C	1.034024	0.201188	-0.000117
C14	C	0.903034	0.198863	-0.000142
C15	C	0.932975	0.045995	-0.000116
C16	C	1.063963	0.048321	-0.000080
C17	C	1.016737	0.289446	-0.000139
C18	C	0.885746	0.287121	-0.000164
C19	C	1.492650	-0.029921	-0.000099
C20	C	1.490165	-0.123182	-0.000098
C21	C	1.364720	-0.338765	-0.000111
C22	C	1.422971	-0.399443	0.119995
C23	C	1.485668	-0.293934	-0.000109
C24	C	1.423002	-0.399430	-0.120175
C25	C	1.481317	-0.458872	-0.000126
C26	C	1.543953	-0.353384	0.120095
C27	C	1.543967	-0.353364	-0.120182
C28	C	1.602306	-0.414024	-0.000048
C29	C	1.488172	-0.198917	-0.000098
C30	C	1.478822	-0.553887	-0.000127
C31	C	1.713094	0.118800	-0.000130
C32	C	1.852505	0.121269	-0.000149
C33	C	1.474339	0.277110	-0.000128
C34	C	1.476824	0.370371	-0.000139
N35	N	1.483500	0.123599	0.346552
N36	N	1.483499	0.123583	-0.346777
C37	C	1.568892	0.067012	0.423205
C38	C	1.568889	0.067002	0.576542
C39	C	1.398098	0.180173	0.576560
C40	C	1.398096	0.180178	0.423226
C41	C	1.667501	0.001676	0.423195
C42	C	1.667498	0.001666	0.576532
H43	H	0.839729	0.313795	0.105001
H44	H	1.763823	0.016057	0.618141
C45	C	1.305318	0.241703	0.340267
C46	C	1.230552	0.291264	0.440238
C47	C	1.145078	0.347958	0.363870
H48	H	1.252931	0.211255	0.280450
H49	H	1.350449	0.277004	0.280479
H50	H	1.185424	0.255968	0.500000
H51	H	1.282904	0.321730	0.500057
H52	H	1.190209	0.383259	0.304082
H53	H	1.092700	0.317504	0.304056
H54	H	1.094347	0.381597	0.431688
H55	H	1.595080	-0.332939	-0.221733
H56	H	1.371831	-0.419804	-0.221721
C57	C	1.639936	-0.084447	0.367983
C58	C	1.623077	-0.137134	0.487504
C59	C	1.597665	-0.216470	0.436699
H60	H	1.708687	-0.108422	0.310210
H61	H	1.565361	-0.078548	0.310232
H62	H	1.697643	-0.143035	0.545230
H63	H	1.554323	-0.113186	0.545289
H64	H	1.523090	-0.210571	0.378948
H65	H	1.666419	-0.240437	0.378925
H66	H	1.586211	-0.252225	0.517785
C67	C	0.829762	0.331455	-0.136229
C68	C	0.926472	0.360898	-0.219433
C69	C	0.874950	0.401733	-0.344786
H70	H	0.771188	0.377680	-0.108112
H71	H	0.787799	0.292950	-0.192956
H72	H	0.968415	0.399400	-0.162717
H73	H	0.985053	0.314690	-0.247588
H74	H	0.832987	0.363228	-0.401513
H75	H	0.816377	0.447954	-0.316654
H76	H	0.940560	0.421708	-0.401262
H77	H	1.758420	0.022134	0.375629
H78	H	1.052030	0.317547	-0.105314
H79	H	1.595065	-0.333096	0.221746
C80	C	1.230836	-0.295165	0.000351
C81	C	1.168089	-0.318380	0.126409
C82	C	1.044764	-0.278223	0.126901
H83	H	1.187286	-0.311558	-0.084006
H84	H	1.233297	-0.235776	-0.000443
H85	H	1.165621	-0.377756	0.127190
H86	H	1.211601	-0.301986	0.210786
H87	H	1.047225	-0.218834	0.126107
H88	H	1.001225	-0.294619	0.042539
H89	H	1.002178	-0.293963	0.212436
H90	H	1.129470	-0.012970	-0.000035
H91	H	1.371814	-0.419846	0.221540
H92	H	0.891824	-0.017184	-0.000131
H93	H	1.328563	0.226238	0.639004
H94	H	1.637774	-0.059344	0.624087
C95	C	1.736306	-0.457427	0.000330
C96	C	1.799028	-0.434077	0.126304
C97	C	1.922462	-0.474053	0.126718
H98	H	1.779743	-0.440985	-0.084086
H99	H	1.734050	-0.516834	-0.000400
H100	H	1.801291	-0.374683	0.127020
H101	H	1.755630	-0.450520	0.210740
H102	H	1.920206	-0.533460	0.125989
H103	H	1.965886	-0.457608	0.042297
H104	H	1.965030	-0.458222	0.212196
H105	H	1.045620	0.323965	0.101809
