data_functionalizedCrystal
_audit_creation_method	'MofGen! by Chris Wilmer'
_symmetry_space_group_name_H-M	'P1'
_symmetry_Int_Tables_number	1
_symmetry_cell_setting	triclinic
loop_
_symmetry_equiv_pos_as_xyz
  x,y,z
_cell_length_a	10.540539
_cell_length_b	14.853567
_cell_length_c	13.330367
_cell_angle_alpha	89.997285
_cell_angle_beta	89.996860
_cell_angle_gamma	95.919789
loop_
_atom_site_label
_atom_site_type_symbol
_atom_site_fract_x
_atom_site_fract_y
_atom_site_fract_z
O1	O	1.684492	-0.127047	-0.083367
O2	O	1.314947	-0.139017	-0.083378
O3	O	1.509590	-0.001857	-0.083375
O4	O	1.489848	-0.264207	-0.083370
O5	O	1.509569	-0.001863	0.083472
O6	O	1.314926	-0.139023	0.083469
O7	O	1.684471	-0.127052	0.083480
Cu8	Cu	1.499696	-0.133038	0.098709
Cu9	Cu	1.499721	-0.133032	-0.098607
O10	O	1.489827	-0.264213	0.083477
C11	C	1.267643	-0.138122	0.000044
C12	C	1.126725	-0.135437	0.000039
C13	C	1.508685	0.031734	0.000045
C14	C	1.506005	0.131832	0.000036
C15	C	0.944430	-0.032519	0.000426
C16	C	1.091018	-0.035242	0.000040
C17	C	1.064534	-0.183651	-0.095234
C18	C	0.918027	-0.180232	-0.095304
C19	C	0.917492	-0.182276	0.094433
C20	C	1.064464	-0.183199	0.095681
C21	C	1.731774	-0.127947	0.000056
C22	C	1.872693	-0.130633	0.000054
C23	C	1.490732	-0.297803	0.000054
C24	C	1.493413	-0.397902	0.000057
N25	N	1.499688	-0.133042	0.237490
C26	C	1.379051	0.545071	0.000052
C27	C	1.610292	0.565068	0.000059
C28	C	1.612812	0.471021	0.000053
C29	C	1.498450	0.413994	0.000048
C30	C	1.381568	0.451014	0.000049
C31	C	1.729693	0.433993	0.000062
C32	C	1.732218	0.339940	0.000057
C33	C	1.617854	0.282911	0.000045
C34	C	1.500967	0.319937	0.000045
C35	C	1.386605	0.262910	0.000040
C36	C	1.269717	0.299934	0.000033
C37	C	1.267204	0.393985	0.000037
C38	C	1.620367	0.188860	0.000041
C39	C	1.389122	0.168853	0.000037
C40	C	1.413488	-0.193758	0.290014
C41	C	1.585896	-0.072323	0.289995
C42	C	1.585908	-0.072321	0.395013
C43	C	1.499708	-0.133037	0.447537
C44	C	1.413495	-0.193756	0.395042
C45	C	1.672111	-0.011597	0.447515
C46	C	1.672126	-0.011591	0.552540
C47	C	1.585930	-0.072313	0.605066
C48	C	1.499715	-0.133035	0.552565
C49	C	1.413515	-0.193751	0.605089
C50	C	1.327305	-0.254478	0.552590
C51	C	1.327300	-0.254477	0.447568
C52	C	1.585935	-0.072313	0.710087
C53	C	1.413522	-0.193748	0.710117
N54	N	1.499735	-0.133030	0.762611
H55	H	1.134041	0.002696	0.068336
N56	N	0.883156	-0.135507	-0.184642
N57	N	0.928076	-0.055758	-0.201552
H58	H	0.903457	-0.024167	-0.264648
N59	N	1.760136	0.050421	0.393850
N60	N	1.760115	0.050406	0.300081
H61	H	1.822286	0.094208	0.262174
H62	H	1.257110	-0.303918	0.404817
H63	H	1.822800	0.480431	0.000076
H64	H	1.343300	-0.243204	0.247267
N65	N	0.878391	-0.141589	0.185030
N66	N	0.960044	-0.110529	0.247373
H67	H	0.932431	-0.081784	0.311354
N68	N	1.760189	0.050444	0.606146
N69	N	1.837142	0.104651	0.559236
H70	H	1.899341	0.148463	0.597095
N71	N	1.325466	-0.255781	0.763750
N72	N	1.248509	-0.309993	0.716861
H73	H	1.186318	-0.353805	0.754738
N74	N	1.674008	-0.010304	0.763710
N75	N	1.752861	-0.039446	0.822299
H76	H	1.815072	0.004348	0.860169
N77	N	1.739748	0.151038	0.000073
N78	N	1.816861	0.168227	0.070417
H79	H	1.901180	0.141516	0.070441
N80	N	1.239235	-0.316481	0.606248
N81	N	1.160401	-0.287326	0.664849
H82	H	1.098201	-0.331113	0.702750
H83	H	1.703400	0.611505	0.000071
N84	N	1.673922	-0.010305	0.236331
N85	N	1.673896	-0.010311	0.142562
H86	H	1.736068	0.033492	0.104658
N87	N	0.856853	-0.270624	-0.100767
N88	N	0.784698	-0.293769	-0.172706
H89	H	0.741501	-0.357608	-0.176575
N90	N	0.909178	0.017098	0.086191
N91	N	0.830763	-0.019266	0.148039
H92	H	0.805889	0.015766	0.208632
H93	H	1.087886	-0.256248	0.101436
N94	N	1.091560	-0.275955	-0.099713
N95	N	1.049622	-0.325264	-0.170772
H96	H	1.068711	-0.390454	-0.173935
N97	N	1.143955	0.012691	-0.085778
N98	N	1.224221	0.079979	-0.074622
H99	H	1.261608	0.113835	-0.135235
N100	N	0.907094	0.016954	-0.084794
N101	N	0.953680	0.096880	-0.098253
H102	H	0.927304	0.131823	-0.158437
N103	N	1.118450	-0.141668	-0.184200
N104	N	1.235481	-0.139848	-0.200446
H105	H	1.273565	-0.110203	-0.263280
N106	N	1.116309	-0.138995	0.184096
N107	N	1.198810	-0.072561	0.176775
H108	H	1.235435	-0.041339	0.239216
H109	H	1.295993	0.122427	0.000029
N110	N	0.857226	-0.273056	0.095243
N111	N	0.738327	-0.287302	0.098344
H112	H	0.695756	-0.351412	0.098909
H113	H	1.172040	0.424139	0.000032
N114	N	1.152914	0.241665	0.000040
N115	N	1.155191	0.157693	0.000049
H116	H	1.072702	0.116536	0.000056
N117	N	1.259668	0.582899	0.000034
N118	N	1.257429	0.666873	0.000028
H119	H	1.173114	0.693591	0.000015
H120	H	1.827395	0.309804	0.000062
