data_functionalizedCrystal
_audit_creation_method	'MofGen! by Chris Wilmer'
_symmetry_space_group_name_H-M	'P1'
_symmetry_Int_Tables_number	1
_symmetry_cell_setting	triclinic
loop_
_symmetry_equiv_pos_as_xyz
  x,y,z
_cell_length_a	10.654550
_cell_length_b	10.723023
_cell_length_c	9.730223
_cell_angle_alpha	89.999649
_cell_angle_beta	89.996251
_cell_angle_gamma	84.476225
loop_
_atom_site_label
_atom_site_type_symbol
_atom_site_fract_x
_atom_site_fract_y
_atom_site_fract_z
O1	O	1.667807	0.175269	-0.114400
O2	O	1.302326	0.191968	-0.114377
O3	O	1.493497	0.002044	-0.114383
O4	O	1.476636	0.365194	-0.114394
O5	O	1.493495	0.002049	0.114197
O6	O	1.302324	0.191973	0.114203
O7	O	1.667805	0.175274	0.114180
Zn8	Zn	1.485064	0.183624	0.150483
Zn9	Zn	1.485067	0.183618	-0.150681
O10	O	1.476634	0.365199	0.114186
C11	C	1.255527	0.190745	-0.000085
C12	C	1.116085	0.187076	-0.000076
C13	C	1.036582	0.298901	-0.000099
C14	C	0.905561	0.295446	-0.000123
C15	C	0.933560	0.068333	-0.000106
C16	C	1.064577	0.071789	-0.000072
C17	C	1.020416	0.430023	-0.000115
C18	C	0.889396	0.426569	-0.000139
C19	C	1.492270	-0.044454	-0.000095
C20	C	1.488599	-0.183008	-0.000099
C21	C	1.486964	-0.244777	-0.118512
C22	C	1.483170	-0.387980	-0.118519
C23	C	1.714604	0.176498	-0.000116
C24	C	1.854046	0.180166	-0.000133
C25	C	1.477861	0.411696	-0.000105
C26	C	1.481532	0.550251	-0.000110
N27	N	1.485071	0.183628	0.356020
N28	N	1.485070	0.183605	-0.356217
C29	C	1.569744	0.099558	0.427943
C30	C	1.569741	0.099543	0.571826
C31	C	1.400388	0.267679	0.571850
C32	C	1.400386	0.267687	0.427969
C33	C	1.667522	0.002490	0.427931
C34	C	1.667519	0.002475	0.571814
H35	H	0.843717	0.466197	0.098544
H36	H	0.847656	0.475971	-0.095808
H37	H	1.646094	-0.093427	0.388881
H38	H	1.487182	-0.236143	0.101273
H39	H	1.758701	0.032884	0.383298
H40	H	1.481770	-0.441101	-0.219897
H41	H	0.891606	-0.025530	-0.000124
H42	H	1.331428	0.336132	0.369411
C43	C	1.796248	0.030726	0.623974
C44	C	1.848653	-0.069755	0.703810
C45	C	1.967236	-0.043782	0.751870
H46	H	1.787470	0.104646	0.678311
H47	H	1.849929	0.042564	0.548072
H48	H	1.794984	-0.081578	0.779701
H49	H	1.857461	-0.143686	0.649502
H50	H	2.020917	-0.031944	0.675967
H51	H	1.958447	0.030140	0.806201
H52	H	2.002813	-0.111958	0.806033
C53	C	1.483453	-0.379171	0.135224
C54	C	1.481232	-0.463922	0.244461
C55	C	1.483012	-0.398943	0.369150
H56	H	1.411706	-0.319497	0.140526
H57	H	1.557935	-0.337290	0.140414
H58	H	1.406757	-0.505783	0.239274
H59	H	1.552973	-0.523598	0.239205
H60	H	1.557494	-0.357063	0.374340
H61	H	1.411264	-0.339272	0.374438
H62	H	1.481517	-0.456439	0.443282
C63	C	1.150686	-0.049758	-0.000098
C64	C	1.077531	-0.151456	-0.000137
C65	C	1.156811	-0.263449	-0.000176
H66	H	1.202380	-0.053296	0.079607
H67	H	1.202385	-0.053214	-0.079825
H68	H	1.025854	-0.148002	0.079582
H69	H	1.025840	-0.147960	-0.079836
H70	H	1.208510	-0.266904	-0.079904
H71	H	1.208501	-0.266974	0.079530
H72	H	1.107188	-0.332464	-0.000216
C73	C	1.059284	0.498380	0.127556
C74	C	0.952075	0.536741	0.205619
C75	C	0.987833	0.599696	0.323245
H76	H	1.100024	0.569655	0.101174
H77	H	1.115512	0.443774	0.180793
H78	H	0.895867	0.591345	0.152393
H79	H	0.911321	0.465491	0.232037
H80	H	1.044062	0.545089	0.376482
H81	H	1.028575	0.670965	0.296850
H82	H	0.915100	0.625722	0.376231
H83	H	1.637020	-0.088167	0.616434
H84	H	1.331439	0.336116	0.630446
C85	C	1.067711	0.485788	-0.131768
C86	C	0.965492	0.519197	-0.219025
C87	C	1.009011	0.570581	-0.340310
H88	H	1.125308	0.425725	-0.176212
H89	H	1.108959	0.558064	-0.110402
H90	H	0.924264	0.446929	-0.240392
H91	H	0.907885	0.579271	-0.174624
H92	H	1.050259	0.642858	-0.318944
H93	H	1.066609	0.510512	-0.384742
H94	H	0.939662	0.593266	-0.399523
H95	H	1.488367	-0.191641	-0.219884
