data_functionalizedCrystal
_audit_creation_method	'MofGen! by Chris Wilmer'
_symmetry_space_group_name_H-M	'P1'
_symmetry_Int_Tables_number	1
_symmetry_cell_setting	triclinic
loop_
_symmetry_equiv_pos_as_xyz
  x,y,z
_cell_length_a	22.863218
_cell_length_b	22.862586
_cell_length_c	22.858745
_cell_angle_alpha	60.006856
_cell_angle_beta	60.013818
_cell_angle_gamma	59.991795
loop_
_atom_site_label
_atom_site_type_symbol
_atom_site_fract_x
_atom_site_fract_y
_atom_site_fract_z
O1	O	0.081006	-0.854581	0.714630
O2	O	0.030492	-0.665350	0.575795
O3	O	0.150314	-0.785089	0.575706
O4	O	-0.038816	-0.734841	0.714718
O5	O	0.190066	-0.745348	0.615369
O6	O	0.070244	-0.625609	0.615458
O7	O	0.120758	-0.814840	0.754293
Zn8	Zn	0.101812	-0.713914	0.691173
Zn9	Zn	0.049438	-0.766275	0.638915
O10	O	0.000936	-0.695100	0.754381
N11	N	0.137558	-0.678184	0.726840
N12	N	0.013698	-0.802011	0.603247
C13	C	0.187224	-0.518558	0.776483
C14	C	0.187235	-0.628552	0.776467
C15	C	0.214753	-0.601061	0.803961
C16	C	0.334724	-0.580392	0.740801
C17	C	0.409718	-0.605392	0.715784
C18	C	0.409746	-0.726732	0.762051
C19	C	0.334754	-0.701730	0.787070
C20	C	0.205297	-0.481049	0.702756
C21	C	0.180267	-0.406048	0.677779
C22	C	0.119099	-0.406071	0.800259
C23	C	0.144128	-0.481071	0.825236
C24	C	0.113501	-0.610437	0.794610
C25	C	0.088492	-0.635428	0.769607
C26	C	0.210943	-0.696652	0.708337
C27	C	0.235956	-0.671660	0.733331
C28	C	0.113585	-0.610461	0.923980
C29	C	0.088635	-0.635476	0.998978
C30	C	0.211128	-0.696714	0.998930
C31	C	0.236077	-0.671700	0.923930
C32	C	0.187303	-0.628571	0.886457
C33	C	0.297246	-0.628559	0.776441
C34	C	-0.117796	-0.823430	0.581283
C35	C	-0.007671	-0.823587	0.471446
C36	C	-0.007879	-0.933535	0.581483
C37	C	-0.007861	-0.823583	0.581554
C38	C	-0.035301	-0.851035	0.553942
N39	N	0.446162	-0.678198	0.726752
O40	O	0.691234	-0.690164	0.550341
O41	O	0.691462	-0.829422	0.739388
O42	O	0.691373	-0.829102	0.619485
O43	O	0.691323	-0.690484	0.670244
O44	O	0.572233	-0.789455	0.659278
O45	O	0.572322	-0.789775	0.779181
O46	O	0.572094	-0.650517	0.590134
Zn47	Zn	0.553292	-0.713851	0.690976
Zn48	Zn	0.710264	-0.766088	0.638547
O49	O	0.572183	-0.650837	0.710037
N50	N	0.817394	-0.801741	0.602763
N51	N	0.137538	-0.369628	0.726874
O52	O	-0.038795	-0.124419	0.714761
O53	O	0.150256	-0.124417	0.575522
O54	O	0.030331	-0.124432	0.575860
O55	O	0.081131	-0.124404	0.714423
O56	O	0.070086	-0.243584	0.615573
O57	O	0.190011	-0.243569	0.615236
O58	O	0.000960	-0.243571	0.754474
Zn59	Zn	0.101797	-0.262488	0.691160
Zn60	Zn	0.049419	-0.105500	0.638836
O61	O	0.120885	-0.243556	0.754137
N62	N	0.013669	0.001640	0.603123
N63	N	0.137749	-0.678230	1.035381
O64	O	0.125655	-0.854547	1.280566
O65	O	-0.013567	-0.665426	1.280590
O66	O	-0.013245	-0.785328	1.280537
O67	O	0.125333	-0.734644	1.280618
O68	O	0.026456	-0.745599	1.161392
O69	O	0.026134	-0.625697	1.161444
O70	O	0.165355	-0.814817	1.161420
Zn71	Zn	0.102048	-0.713949	1.142516
Zn72	Zn	0.049740	-0.766294	1.299495
O73	O	0.165033	-0.694915	1.161473
N74	N	0.014038	-0.802020	1.406629
C75	C	0.045634	-0.621635	0.576499
C76	C	0.194019	-0.769918	0.576389
C77	C	0.105616	-0.858555	0.753588
C78	C	-0.042769	-0.710272	0.753698
C79	C	0.631920	-0.828776	0.783102
C80	C	0.631811	-0.828380	0.634616
C81	C	0.631633	-0.651162	0.546422
C82	C	0.631745	-0.651559	0.694907
C83	C	0.193900	-0.183846	0.576155
C84	C	0.045437	-0.184012	0.576622
C85	C	-0.042734	-0.183994	0.753792
C86	C	0.105780	-0.183977	0.753375
C87	C	-0.012889	-0.621735	1.221020
C88	C	-0.012483	-0.770211	1.220931
C89	C	0.164678	-0.858508	1.220991
C90	C	0.164280	-0.710023	1.221052
H91	H	0.073862	-0.575336	0.893474
H92	H	-0.056598	-0.567419	1.221026
H93	H	0.208389	-0.912821	1.220975
H94	H	0.116656	-0.183968	0.796904
C95	C	0.631502	-0.592756	0.474091
C96	C	0.631445	-0.531540	0.474197
C97	C	0.631315	-0.477720	0.407582
H98	H	0.673021	-0.609058	0.437557
H99	H	0.589922	-0.581462	0.465369
H100	H	0.673021	-0.542834	0.482911
H101	H	0.589929	-0.515218	0.510716
H102	H	0.589735	-0.466425	0.398860
H103	H	0.672834	-0.494028	0.371054
H104	H	0.631269	-0.436177	0.407648
H105	H	-0.056000	-0.781036	1.220859
H106	H	0.207816	-0.699179	1.221068
C107	C	-0.115165	-0.696148	0.811988
C108	C	-0.115163	-0.757371	0.873245
C109	C	-0.181845	-0.744389	0.926953
H110	H	-0.123947	-0.657127	0.823288
H111	H	-0.151621	-0.684845	0.795569
H112	H	-0.078719	-0.768665	0.889661
H113	H	-0.106394	-0.796399	0.861968
H114	H	-0.218300	-0.733086	0.910534
H115	H	-0.190621	-0.705367	0.938246
H116	H	-0.181855	-0.785928	0.968519
H117	H	0.250848	-0.731818	1.029432
C118	C	0.008564	-0.615690	1.039581
C119	C	-0.028804	-0.572550	0.990708
C120	C	-0.102564	-0.554303	1.028086
H121	H	-0.003818	-0.658038	1.068838
H122	H	-0.003744	-0.590214	1.068825
H123	H	-0.016501	-0.598026	0.961476
H124	H	-0.016444	-0.530194	0.961449
H125	H	-0.114872	-0.528827	1.057330
H126	H	-0.114938	-0.596654	1.057342
H127	H	-0.127927	-0.525025	0.994931
H128	H	0.631977	-0.872492	0.837399
C129	C	0.631836	-0.593596	0.709447
C130	C	0.693154	-0.618148	0.726161
C131	C	0.693258	-0.564776	0.739570
H132	H	0.631816	-0.551860	0.668091
H133	H	0.590333	-0.582482	0.748573
H134	H	0.734647	-0.629252	0.687039
H135	H	0.693187	-0.659876	0.767520
H136	H	0.651754	-0.553662	0.778696
H137	H	0.693236	-0.523044	0.698212
H138	H	0.734858	-0.581429	0.750919
H139	H	0.296108	-0.686456	0.893383
C140	C	0.266177	-0.183364	0.517796
C141	C	0.310361	-0.183201	0.543407
C142	C	0.376944	-0.182747	0.489664
H143	H	0.287870	-0.224812	0.504550
H144	H	0.259676	-0.141707	0.477214
H145	H	0.316864	-0.224854	0.583976
H146	H	0.288691	-0.141756	0.556648
H147	H	0.370443	-0.141090	0.449082
H148	H	0.398630	-0.224196	0.476421
H149	H	0.406929	-0.182630	0.507030
C150	C	0.631687	-0.886372	0.620147
C151	C	0.570352	-0.861836	0.603465
C152	C	0.570208	-0.915241	0.590142
H153	H	0.673164	-0.897535	0.581036
H154	H	0.631704	-0.928080	0.661546
H155	H	0.570342	-0.820141	0.562071
H156	H	0.528865	-0.850678	0.642568
H157	H	0.570226	-0.956949	0.631541
H158	H	0.611688	-0.926401	0.551032
H159	H	0.528591	-0.898604	0.578829
C160	C	0.008410	-0.615723	0.789415
C161	C	-0.028908	-0.572642	0.832563
C162	C	-0.102678	-0.554486	0.850833
H163	H	-0.004020	-0.590231	0.747079
H164	H	-0.003891	-0.658126	0.814889
H165	H	-0.016613	-0.530246	0.807088
H166	H	-0.016500	-0.598119	0.874907
H167	H	-0.114979	-0.596890	0.876308
H168	H	-0.115101	-0.528998	0.808494
H169	H	-0.128007	-0.525260	0.880116
C170	C	0.030824	-0.184083	0.518688
C171	C	-0.039104	-0.184116	0.544680
C172	C	-0.052584	-0.184203	0.491338
H173	H	0.036088	-0.142554	0.477902
H174	H	0.063847	-0.225661	0.505666
H175	H	-0.072118	-0.142542	0.557691
H176	H	-0.044385	-0.225642	0.585458
H177	H	-0.019561	-0.225781	0.478317
H178	H	-0.047317	-0.142673	0.450556
H179	H	-0.100029	-0.184232	0.508968
C180	C	0.294099	-0.754044	0.825629
C181	C	0.312303	-0.788863	0.779987
C182	C	0.274860	-0.837053	0.815481
H183	H	0.306387	-0.788454	0.867297
H184	H	0.244056	-0.728697	0.838989
H185	H	0.362334	-0.814209	0.766638
H186	H	0.300013	-0.754471	0.738319
H187	H	0.224817	-0.811706	0.828841
H188	H	0.287151	-0.871458	0.857148
H189	H	0.287201	-0.860679	0.784517
C190	C	0.263957	-0.743420	0.661488
C191	C	0.333881	-0.753919	0.650945
C192	C	0.382737	-0.796990	0.607782
H193	H	0.256864	-0.788412	0.684322
H194	H	0.256766	-0.720512	0.616517
H195	H	0.341069	-0.776828	0.695908
H196	H	0.340997	-0.708940	0.628104
H197	H	0.375547	-0.774083	0.562811
H198	H	0.375638	-0.841979	0.630620
H199	H	0.430186	-0.804114	0.600617
C200	C	0.450565	-0.806173	0.773633
C201	C	0.493666	-0.831916	0.814110
C202	C	0.531283	-0.905089	0.824787
H203	H	0.417584	-0.831367	0.798469
H204	H	0.479840	-0.813150	0.728576
H205	H	0.464393	-0.824944	0.859159
H206	H	0.526660	-0.806742	0.789286
H207	H	0.560558	-0.912067	0.779730
H208	H	0.498296	-0.930276	0.849621
H209	H	0.560536	-0.922564	0.852245
H210	H	0.295996	-0.686402	0.718551
C211	C	0.450372	-0.553042	0.676960
C212	C	0.432103	-0.502525	0.615575
C213	C	0.469546	-0.454293	0.579787
H214	H	0.438127	-0.529256	0.707735
H215	H	0.500414	-0.578379	0.663537
H216	H	0.382071	-0.477190	0.629000
H217	H	0.444349	-0.526290	0.584784
H218	H	0.519589	-0.479630	0.566363
H219	H	0.457299	-0.430513	0.610567
H220	H	0.457161	-0.420016	0.538130
C221	C	0.293913	-0.500982	0.729409
C222	C	0.250877	-0.490929	0.795921
C223	C	0.213263	-0.417787	0.785454
H224	H	0.326896	-0.475799	0.704636
H225	H	0.264594	-0.483370	0.701971
H226	H	0.280193	-0.508533	0.823348
H227	H	0.217880	-0.516095	0.820704
H228	H	0.183944	-0.400174	0.758016
H229	H	0.246251	-0.392610	0.760680
H230	H	0.184053	-0.410957	0.830580
H231	H	-0.097027	-0.183996	0.797505
H232	H	0.073825	-0.575337	0.829731
H233	H	0.194981	-0.375507	0.617742
C234	C	0.251958	-0.521714	0.649796
C235	C	0.214254	-0.503479	0.606806
C236	C	0.257211	-0.540933	0.558016
H237	H	0.294362	-0.509450	0.620456
H238	H	0.264262	-0.571761	0.675207
H239	H	0.201960	-0.453444	0.581398
H240	H	0.171853	-0.515746	0.636127
H241	H	0.269515	-0.590980	0.583427
H242	H	0.299613	-0.528666	0.528681
H243	H	0.231633	-0.528571	0.528846
C244	C	0.072296	-0.365495	0.853302
C245	C	0.061823	-0.414398	0.923218
C246	C	0.018704	-0.377047	0.972099
H247	H	0.095133	-0.336231	0.846180
H248	H	0.027303	-0.336257	0.846162
H249	H	0.106808	-0.443623	0.930355
H250	H	0.038978	-0.443663	0.930362
H251	H	-0.026290	-0.347809	0.964959
H252	H	0.041545	-0.347785	0.964970
H253	H	0.011587	-0.410222	1.019542
C254	C	0.266507	-0.784321	0.518281
C255	C	0.310665	-0.854233	0.544070
C256	C	0.377448	-0.867523	0.490564
H257	H	0.260349	-0.778989	0.477542
H258	H	0.288019	-0.751247	0.505239
H259	H	0.289157	-0.887297	0.557101
H260	H	0.316843	-0.859581	0.584802
H261	H	0.398961	-0.834449	0.477523
H262	H	0.371283	-0.862188	0.449828
H263	H	0.407420	-0.914956	0.508057
H264	H	0.129402	-0.511613	0.885274
H265	H	0.034845	-0.567275	0.532897
H266	H	0.116407	-0.912913	0.797192
