data_functionalizedCrystal
_audit_creation_method	'MofGen! by Chris Wilmer'
_symmetry_space_group_name_H-M	'P1'
_symmetry_Int_Tables_number	1
_symmetry_cell_setting	triclinic
loop_
_symmetry_equiv_pos_as_xyz
  x,y,z
_cell_length_a	16.959454
_cell_length_b	19.077105
_cell_length_c	19.077174
_cell_angle_alpha	94.516248
_cell_angle_beta	92.276377
_cell_angle_gamma	92.283412
loop_
_atom_site_label
_atom_site_type_symbol
_atom_site_fract_x
_atom_site_fract_y
_atom_site_fract_z
Zn1	Zn	-0.384059	-1.093734	-0.441867
Zn2	Zn	0.115941	-0.593734	0.058133
Zn3	Zn	-0.510707	-1.088928	-0.323986
Zn4	Zn	-0.010707	-0.588928	0.176014
Zn5	Zn	-0.373009	-0.971118	-0.319263
Zn6	Zn	0.126991	-0.471118	0.180737
Zn7	Zn	-0.510655	-0.975822	-0.437104
Zn8	Zn	-0.010655	-0.475822	0.062896
O9	O	-0.444608	-1.032400	-0.380555
O10	O	0.055392	-0.532400	0.119445
O11	O	-0.405505	-1.191747	-0.430199
O12	O	0.094495	-0.691747	0.069801
O13	O	-0.487839	-1.069320	-0.224710
O14	O	0.012161	-0.569320	0.275290
O15	O	-0.263867	-0.987426	-0.335543
O16	O	0.236133	-0.487426	0.164457
O17	O	-0.498553	-1.188216	-0.343593
O18	O	0.001447	-0.688216	0.156407
O19	O	-0.271985	-1.077511	-0.425619
O20	O	0.228015	-0.577511	0.074381
O21	O	-0.386673	-0.982766	-0.221240
O22	O	0.113327	-0.482766	0.278760
O23	O	-0.386623	-0.873091	-0.330926
O24	O	0.113377	-0.373091	0.169074
O25	O	-0.498465	-0.995443	-0.536386
O26	O	0.001535	-0.495443	-0.036386
O27	O	-0.487751	-0.876547	-0.417503
O28	O	0.012249	-0.376547	0.082497
O29	O	-0.405455	-1.082072	-0.539885
O30	O	0.094545	-0.582072	-0.039885
O31	O	-0.621309	-1.073881	-0.338975
O32	O	-0.121309	-0.573881	0.161025
O33	O	-0.621271	-0.990783	-0.422082
O34	O	-0.121271	-0.490783	0.077918
C35	C	-0.435983	-0.849240	-0.373185
C36	C	0.064017	-0.349240	0.126815
C37	C	-0.432312	-0.770884	-0.370049
C38	C	0.067688	-0.270884	0.129951
C39	C	-0.649971	-1.032341	-0.380541
C40	C	-0.149971	-0.532341	0.119459
C41	C	-0.737830	-1.032381	-0.380561
C42	C	-0.237830	-0.532381	0.119439
C43	C	-0.453186	-1.039818	-0.564429
C44	C	0.046814	-0.539818	-0.064429
C45	C	-0.456842	-1.042979	-0.642786
C46	C	0.043158	-0.542979	-0.142786
C47	C	-1.109319	-0.989196	-0.423827
C48	C	-0.609319	-0.489196	0.076173
C49	C	-1.109306	-1.075804	-0.337363
C50	C	-0.609306	-0.575804	0.162637
C51	C	-1.026758	-1.075779	-0.337356
C52	C	-0.526758	-0.575779	0.162644
C53	C	-0.985487	-1.032461	-0.380584
C54	C	-0.485487	-0.532461	0.119416
C55	C	-1.026764	-0.989168	-0.423819
C56	C	-0.526764	-0.489168	0.076181
C57	C	-0.985475	-1.119066	-0.294116
C58	C	-0.485475	-0.619066	0.205884
C59	C	-0.902923	-1.119042	-0.294106
C60	C	-0.402923	-0.619042	0.205894
C61	C	-0.861651	-1.075727	-0.337338
C62	C	-0.361651	-0.575727	0.162662
C63	C	-0.902932	-1.032433	-0.380576
C64	C	-0.402932	-0.532433	0.119424
C65	C	-0.861662	-0.989116	-0.423804
C66	C	-0.361662	-0.489116	0.076196
C67	C	-0.902942	-0.945825	-0.467046
C68	C	-0.402942	-0.445825	0.032954
C69	C	-0.985492	-0.945854	-0.467051
C70	C	-0.485492	-0.445854	0.032949
C71	C	-0.779101	-1.075698	-0.337333
C72	C	-0.279101	-0.575698	0.162667
C73	C	-0.779106	-0.989088	-0.423796
C74	C	-0.279106	-0.489088	0.076204
C75	C	-0.238444	-1.032480	-0.380586
C76	C	0.261556	-0.532480	0.119414
C77	C	-0.150590	-1.032514	-0.380599
C78	C	0.349410	-0.532514	0.119401
C79	C	-0.453267	-1.216275	-0.387954
C80	C	0.046733	-0.716275	0.112046
C81	C	-0.456957	-1.294632	-0.391107
C82	C	0.043043	-0.794632	0.108893
C83	C	-0.483313	-0.735888	-0.413581
C84	C	0.016687	-0.235888	0.086419
C85	C	-0.479854	-0.662264	-0.410638
C86	C	0.020146	-0.162264	0.089362
C87	C	-0.425398	-0.623638	-0.364158
C88	C	0.074602	-0.123638	0.135842
C89	C	-0.374392	-0.658640	-0.320625
C90	C	0.125608	-0.158640	0.179375
C91	C	-0.377848	-0.732263	-0.323572
C92	C	0.122152	-0.232263	0.176428
C93	C	-0.409407	-0.403256	-0.350521
C94	C	0.090593	0.096744	0.149479
C95	C	-0.405957	-0.329629	-0.347575
C96	C	0.094043	0.170371	0.152425
C97	C	-0.511418	-0.333258	-0.437590
C98	C	-0.011418	0.166742	0.062410
C99	C	-0.514872	-0.406881	-0.440530
C100	C	-0.014872	0.093119	0.059470
C101	C	-0.463863	-0.441877	-0.396999
C102	C	0.036137	0.058123	0.103001
N103	N	-0.421864	-0.548383	-0.361147
N104	N	0.078136	-0.048383	0.138853
N105	N	-0.467395	-0.517131	-0.400014
N106	N	0.032605	-0.017131	0.099986
C107	C	-0.405889	-0.999402	-0.677791
C108	C	0.094111	-0.499402	-0.177791
C109	C	-0.409330	-1.002370	-0.751415
C110	C	0.090670	-0.502370	-0.251415
C111	C	-0.463722	-1.048919	-0.790032
C112	C	0.036278	-0.548919	-0.290032
C113	C	-0.514680	-1.092497	-0.755023
C114	C	-0.014680	-0.592497	-0.255023
C115	C	-0.511242	-1.089526	-0.681400
C116	C	-0.011242	-0.589526	-0.181400
C117	C	-0.479656	-1.062635	-1.010415
C118	C	0.020344	-0.562635	-0.510415
C119	C	-0.483088	-1.065604	-1.084043
C120	C	0.016912	-0.565604	-0.584043
C121	C	-0.377739	-0.975475	-1.080429
C122	C	0.122261	-0.475475	-0.580429
C123	C	-0.374303	-0.972511	-1.006806
C124	C	0.125697	-0.472511	-0.506806
C125	C	-0.425264	-1.016087	-0.971802
C126	C	0.074736	-0.516087	-0.471802
N127	N	-0.467239	-1.051954	-0.865288
N128	N	0.032761	-0.551954	-0.365288
N129	N	-0.421750	-1.013047	-0.896548
N130	N	0.078250	-0.513047	-0.396548
C131	C	-0.436007	-1.025052	-0.197398
C132	C	0.063993	-0.525052	0.302602
C133	C	-0.432135	-1.022027	-0.119047
C134	C	0.067865	-0.522027	0.380953
H135	H	-0.745509	-0.953816	-0.459001
H136	H	-0.245509	-0.453816	0.040999
H137	H	-1.142933	-0.953952	-0.459035
H138	H	-0.642933	-0.453952	0.040965
H139	H	-0.869329	-0.910552	-0.502239
H140	H	-0.369329	-0.410552	-0.002239
O141	O	-0.347216	-0.949200	-0.636143
O142	O	0.152784	-0.449200	-0.136143
H143	H	-0.379332	-0.911967	-0.601145
H144	H	0.120668	-0.411967	-0.101145
H145	H	-0.869317	-1.154292	-0.258897
H146	H	-0.369317	-0.654292	0.241103
H147	H	-0.367877	-0.431741	-0.315070
H148	H	0.132123	0.068259	0.184930
O149	O	-0.566197	-1.136534	-0.643647
O150	O	-0.066197	-0.636534	-0.143647
H151	H	-0.603366	-1.103613	-0.608833
H152	H	-0.103366	-0.603613	-0.108833
H153	H	-0.558971	-1.130395	-0.786471
H154	H	-0.058971	-0.630395	-0.286471
H155	H	-1.019110	-0.910608	-0.502256
H156	H	-0.519110	-0.410608	-0.002256
H157	H	-0.336314	-0.760756	-0.288128
H158	H	0.163686	-0.260756	0.211872
O159	O	-1.153815	-1.122544	-0.290760
O160	O	-0.653815	-0.622544	0.209240
H161	H	-1.218153	-1.115300	-0.298038
H162	H	-0.718153	-0.615300	0.201962
O163	O	-0.541763	-1.115808	-1.125697
O164	O	-0.041763	-0.615808	-0.625697
H165	H	-0.530164	-1.170572	-1.113790
H166	H	-0.030164	-0.670572	-0.613790
O167	O	-1.029972	-1.165791	-0.247490
O168	O	-0.529972	-0.665791	0.252510
H169	H	-1.017227	-1.221589	-0.261851
H170	H	-0.517227	-0.721589	0.238149
O171	O	-0.734574	-1.122386	-0.290702
O172	O	-0.234574	-0.622386	0.209298
H173	H	-0.777141	-1.152513	-0.260646
H174	H	-0.277141	-0.652513	0.239354
O175	O	-0.542039	-0.777551	-0.463719
O176	O	-0.042039	-0.277551	0.036281
H177	H	-0.602825	-0.762913	-0.450979
H178	H	-0.102825	-0.262913	0.049021
O179	O	-0.535006	-0.624509	-0.457454
O180	O	-0.035006	-0.124509	0.042546
H181	H	-0.573512	-0.663734	-0.490213
H182	H	-0.073512	-0.163734	0.009787
H183	H	-0.559218	-0.438325	-0.478377
H184	H	-0.059218	0.061675	0.021623
H185	H	-0.552946	-0.304756	-0.473031
H186	H	-0.052946	0.195244	0.026969
H187	H	-0.361603	-0.298182	-0.309731
H188	H	0.138397	0.201818	0.190269
H189	H	-0.521160	-1.098110	-0.981923
H190	H	-0.021160	-0.598110	-0.481923
O191	O	-0.315674	-0.616985	-0.270474
O192	O	0.184326	-0.116985	0.229526
H193	H	-0.321851	-0.559910	-0.275725
H194	H	0.178149	-0.059910	0.224275
H195	H	-0.330013	-0.934604	-0.975368
H196	H	0.169987	-0.434604	-0.475368
H197	H	-0.367842	-0.966882	-0.779912
H198	H	0.132158	-0.466882	-0.279912
H199	H	-0.336250	-0.939997	-1.108937
H200	H	0.163750	-0.439997	-0.608937
