data_functionalizedCrystal
_audit_creation_method	'MofGen! by Chris Wilmer'
_symmetry_space_group_name_H-M	'P1'
_symmetry_Int_Tables_number	1
_symmetry_cell_setting	triclinic
loop_
_symmetry_equiv_pos_as_xyz
  x,y,z
_cell_length_a	15.995292
_cell_length_b	15.995350
_cell_length_c	14.586319
_cell_angle_alpha	89.998440
_cell_angle_beta	89.995321
_cell_angle_gamma	83.480495
loop_
_atom_site_label
_atom_site_type_symbol
_atom_site_fract_x
_atom_site_fract_y
_atom_site_fract_z
O1	O	1.111015	0.107694	-0.076261
O2	O	0.867233	0.121072	-0.076256
O3	O	0.995788	-0.007506	-0.076258
O4	O	0.982460	0.236272	-0.076259
O5	O	0.995779	-0.007508	0.076223
O6	O	0.867224	0.121070	0.076224
O7	O	1.111006	0.107692	0.076220
Cu8	Cu	0.989114	0.114381	0.090145
Cu9	Cu	0.989125	0.114383	-0.090181
O10	O	0.982451	0.236270	0.076222
C11	C	0.836033	0.120527	-0.000016
C12	C	0.743080	0.118894	-0.000014
C13	C	0.405341	0.112893	-0.000024
C14	C	0.428654	0.205697	-0.000365
C15	C	0.525329	0.207461	-0.000018
C16	C	0.572897	0.115871	-0.000020
C17	C	0.543790	0.069472	0.087051
C18	C	0.447000	0.068355	0.087120
C19	C	0.447155	0.066462	-0.086279
C20	C	0.543647	0.069901	-0.087426
C21	C	0.667593	0.117549	-0.000014
C22	C	0.310646	0.111212	-0.000024
C23	C	0.995232	-0.038702	-0.000019
C24	C	0.993580	-0.131652	-0.000024
C25	C	0.987648	-0.469398	-0.000021
C26	C	0.896094	-0.421945	-0.000361
C27	C	0.897746	-0.325255	-0.000018
C28	C	0.990591	-0.301838	-0.000023
C29	C	1.035743	-0.342926	0.087048
C30	C	1.033444	-0.439561	0.087121
C31	C	1.035345	-0.439918	-0.086278
C32	C	1.035323	-0.342972	-0.087429
C33	C	0.992259	-0.207141	-0.000021
C34	C	0.985983	-0.564095	-0.000017
C35	C	1.142206	0.108237	-0.000023
C36	C	1.235159	0.109870	-0.000030
C37	C	0.983006	0.267466	-0.000019
C38	C	0.984658	0.360416	-0.000020
N39	N	0.989113	0.114379	0.216977
N40	N	0.989133	0.114379	-0.217013
C41	C	1.046056	0.057463	0.451983
C42	C	1.046058	0.057461	0.547964
C43	C	0.932184	0.171297	0.547975
C44	C	0.932178	0.171294	0.451995
C45	C	0.989119	0.114378	0.404002
C46	C	0.989127	0.114379	0.595962
C47	C	0.989129	0.114377	0.700029
C48	C	0.989116	0.114379	0.299928
H49	H	0.544359	0.243794	-0.062436
C50	C	0.869562	0.233906	0.600770
H51	H	0.877725	0.225764	0.664804
H52	H	0.813680	0.224797	0.585053
H53	H	0.878661	0.289792	0.585032
C54	C	1.108680	-0.005148	0.399193
H55	H	1.142584	-0.039050	0.441519
H56	H	1.143533	0.024979	0.361741
H57	H	1.078551	-0.040017	0.361761
C58	C	0.849801	-0.286840	-0.084334
H59	H	0.850753	-0.227561	-0.084239
H60	H	0.793172	-0.299319	-0.082182
H61	H	0.875913	-0.309935	-0.138606
H62	H	0.562221	0.103684	-0.151840
C63	C	0.588176	-0.020413	-0.094531
H64	H	0.625351	-0.031318	-0.044056
H65	H	0.619243	-0.026439	-0.150104
H66	H	0.547400	-0.059209	-0.093794
H67	H	1.092420	0.011115	0.587027
C68	C	0.428248	-0.025816	-0.087083
H69	H	0.395038	-0.036031	-0.035140
H70	H	0.479595	-0.062001	-0.085173
H71	H	0.398427	-0.036336	-0.141428
C72	C	0.846655	-0.446962	-0.084709
H73	H	0.791577	-0.417637	-0.083635
H74	H	0.843150	-0.505840	-0.083557
H75	H	0.874735	-0.432828	-0.138981
C76	C	0.390829	0.254031	-0.084711
H77	H	0.360476	0.218051	-0.120473
H78	H	0.434789	0.272504	-0.120566
H79	H	0.353866	0.301354	-0.065125
C80	C	0.389462	0.253752	0.083520
H81	H	0.358956	0.217503	0.118751
H82	H	0.352448	0.300865	0.063502
H83	H	0.432812	0.272520	0.120071
H84	H	0.418831	0.095470	-0.152274
H85	H	0.432449	0.000310	0.091074
C86	C	0.550196	0.256811	0.084464
H87	H	0.501185	0.275853	0.118709
H88	H	0.577031	0.303799	0.065071
H89	H	0.587707	0.221211	0.121750
C90	C	0.410762	0.111770	0.175042
H91	H	0.455215	0.129927	0.210378
H92	H	0.382729	0.073196	0.209854
H93	H	0.371994	0.158989	0.159129
H94	H	0.885809	0.217641	0.412926
H95	H	0.575658	0.002074	0.090288
H96	H	1.103954	-0.328815	0.090283
C97	C	0.570871	0.112999	0.174592
H98	H	0.599907	0.159441	0.158265
H99	H	0.606928	0.074100	0.209822
H100	H	0.522475	0.132329	0.209689
C101	C	0.846873	-0.448393	0.083525
H102	H	0.881877	-0.488227	0.118757
H103	H	0.798674	-0.472927	0.063509
H104	H	0.829716	-0.400337	0.120076
H105	H	0.862006	-0.297384	0.062506
C106	C	0.988944	-0.464280	0.175044
H107	H	0.972436	-0.415285	0.210379
H108	H	1.026350	-0.502259	0.209858
H109	H	0.940578	-0.490532	0.159134
H110	H	1.004375	-0.314539	0.151848
C111	C	1.124243	-0.483149	0.092471
H112	H	1.162371	-0.441773	0.094598
H113	H	1.135797	-0.517669	0.039967
H114	H	1.130580	-0.516884	0.146169
C115	C	0.994912	-0.467647	-0.175432
H116	H	0.948557	-0.497466	-0.160880
H117	H	1.035312	-0.503130	-0.209435
H118	H	0.975899	-0.419445	-0.210976
C119	C	1.126530	-0.482848	-0.087083
H120	H	1.135524	-0.518569	-0.035139
H121	H	1.164359	-0.441194	-0.085175
H122	H	1.135954	-0.515285	-0.141427
C123	C	0.990793	-0.306081	-0.174450
H124	H	0.945133	-0.265775	-0.157595
H125	H	0.970228	-0.349977	-0.208639
H126	H	1.029547	-0.279713	-0.210795
C127	C	1.126791	-0.322246	-0.094538
H128	H	1.138952	-0.288088	-0.044064
H129	H	1.133886	-0.292902	-0.150113
H130	H	1.163971	-0.372971	-0.093800
