data_functionalizedCrystal
_audit_creation_method	'MofGen! by Chris Wilmer'
_symmetry_space_group_name_H-M	'P1'
_symmetry_Int_Tables_number	1
_symmetry_cell_setting	triclinic
loop_
_symmetry_equiv_pos_as_xyz
  x,y,z
_cell_length_a	11.792241
_cell_length_b	10.654541
_cell_length_c	9.730217
_cell_angle_alpha	90.003041
_cell_angle_beta	89.997209
_cell_angle_gamma	84.338672
loop_
_atom_site_label
_atom_site_type_symbol
_atom_site_fract_x
_atom_site_fract_y
_atom_site_fract_z
O1	O	-1.507300	-0.172133	-0.114156
O2	O	-1.177000	-0.189874	-0.114188
O3	O	-1.349746	0.001757	-0.114163
O4	O	-1.334554	-0.363765	-0.114181
O5	O	-1.349740	0.001759	0.114417
O6	O	-1.176995	-0.189872	0.114392
O7	O	-1.507295	-0.172132	0.114424
Zn8	Zn	-1.342144	-0.181002	0.150700
Zn9	Zn	-1.342151	-0.181004	-0.150464
O10	O	-1.334549	-0.363763	0.114399
C11	C	-1.134704	-0.188759	0.000098
C12	C	-1.008682	-0.185423	0.000086
C13	C	-1.549591	-0.173247	0.000135
C14	C	-1.675612	-0.176582	0.000138
C15	C	-1.348628	0.048553	0.000126
C16	C	-1.345293	0.187987	0.000124
C17	C	-0.777956	-0.179290	0.000126
C18	C	-0.906349	-0.182698	0.000104
C19	C	-1.335667	-0.410559	0.000107
C20	C	-1.339002	-0.549993	0.000101
N21	N	-1.342147	-0.180999	0.356237
C22	C	-1.551857	0.216542	0.000161
C23	C	-1.653568	0.296324	0.000183
C24	C	-1.650427	0.427333	0.000178
C25	C	-1.545564	0.478562	0.000148
C26	C	-1.443854	0.398780	0.000127
C27	C	-1.447006	0.267770	0.000135
C28	C	-1.237292	0.370225	0.000079
C29	C	-1.240430	0.239216	0.000094
C30	C	-1.132429	0.421454	0.000049
C31	C	-1.030716	0.341672	0.000038
C32	C	-1.033861	0.210655	0.000044
C33	C	-1.138720	0.159434	0.000072
N34	N	-1.342156	-0.180996	-0.356000
C35	C	-1.495177	-0.011359	0.356250
C36	C	-1.571699	0.073457	0.428196
C37	C	-1.571711	0.073458	0.572076
C38	C	-1.495189	-0.011365	0.644013
C39	C	-1.418667	-0.096181	0.572066
C40	C	-1.418666	-0.096175	0.428183
C41	C	-1.265634	-0.265813	0.572053
C42	C	-1.265626	-0.265822	0.428174
C43	C	-1.189113	-0.350635	0.643990
C44	C	-1.112594	-0.435459	0.572044
C45	C	-1.112587	-0.435457	0.428155
C46	C	-1.189104	-0.350638	0.356227
H47	H	-1.738945	0.254599	0.000219
H48	H	-1.554425	0.109869	0.000184
H49	H	-1.733248	0.492293	0.000184
C50	C	-0.923304	0.124248	0.000086
C51	C	-0.830808	0.197159	0.000090
C52	C	-0.728944	0.117610	0.000146
H53	H	-0.920085	0.072514	-0.079600
H54	H	-0.920160	0.072573	0.079832
H55	H	-0.833951	0.248812	-0.079648
H56	H	-0.833989	0.248891	0.079770
H57	H	-0.725800	0.065936	0.079891
H58	H	-0.725737	0.065880	-0.079542
H59	H	-0.666174	0.167069	0.000160
C60	C	-1.495034	-0.011604	0.200037
C61	C	-1.411661	-0.104056	0.152426
C62	C	-1.411509	-0.104328	0.008531
H63	H	-1.478840	0.068708	0.167317
H64	H	-1.567683	-0.029410	0.167441
H65	H	-1.339028	-0.086242	0.185008
H66	H	-1.427836	-0.184382	0.185108
H67	H	-1.484158	-0.122134	-0.024065
H68	H	-1.395317	-0.024012	-0.024176
H69	H	-1.354949	-0.167063	-0.023791
C70	C	-0.916990	0.397534	0.000073
C71	C	-0.936009	0.529341	0.000093
C72	C	-0.831270	0.580848	0.000146
H73	H	-0.874985	0.370327	-0.079621
H74	H	-0.875049	0.370284	0.079811
H75	H	-0.977932	0.556580	-0.079637
H76	H	-0.977996	0.556583	0.079781
H77	H	-0.789329	0.553599	0.079884
H78	H	-0.789273	0.553633	-0.079550
H79	H	-0.844160	0.670284	0.000172
H80	H	-1.050269	-0.504520	0.369584
C81	C	-1.654627	0.165543	0.349877
C82	C	-1.593620	0.242870	0.267207
C83	C	-1.669986	0.327675	0.195015
H84	H	-1.700263	0.216181	0.413143
H85	H	-1.702168	0.119970	0.293694
H86	H	-1.546099	0.288439	0.323385
H87	H	-1.547988	0.192267	0.203916
H88	H	-1.717527	0.282103	0.138832
H89	H	-1.715618	0.378304	0.258291
H90	H	-1.628604	0.380144	0.138906
H91	H	-1.189108	-0.350633	0.239073
H92	H	-1.634018	0.142527	0.630655
C93	C	-1.029336	-0.527391	0.650076
C94	C	-0.917648	-0.506159	0.615101
C95	C	-0.840920	-0.590812	0.686976
H96	H	-1.042153	-0.611363	0.626563
H97	H	-1.040221	-0.515227	0.746081
H98	H	-0.906767	-0.518333	0.519117
H99	H	-0.904795	-0.422205	0.638617
H100	H	-0.851805	-0.578648	0.782982
H101	H	-0.853747	-0.674778	0.663458
H102	H	-0.765131	-0.576410	0.663265
H103	H	-1.141291	0.052761	0.000086
H104	H	-1.543016	0.585238	0.000127
H105	H	-1.495194	-0.011348	0.761167
H106	H	-1.129879	0.528129	0.000037
H107	H	-1.189121	-0.350625	0.761145
