data_functionalizedCrystal
_audit_creation_method	'MofGen! by Chris Wilmer'
_symmetry_space_group_name_H-M	'P1'
_symmetry_Int_Tables_number	1
_symmetry_cell_setting	triclinic
loop_
_symmetry_equiv_pos_as_xyz
  x,y,z
_cell_length_a	28.938199
_cell_length_b	28.937346
_cell_length_c	28.934044
_cell_angle_alpha	60.005004
_cell_angle_beta	60.009897
_cell_angle_gamma	59.994060
loop_
_atom_site_label
_atom_site_type_symbol
_atom_site_fract_x
_atom_site_fract_y
_atom_site_fract_z
O1	O	0.064043	-0.675186	0.564597
O2	O	0.564043	-0.175186	1.064597
O3	O	0.024124	-0.525682	0.454913
O4	O	0.524124	-0.025682	0.954913
O5	O	0.118795	-0.620275	0.454833
O6	O	0.618795	-0.120275	0.954833
O7	O	-0.030629	-0.580593	0.564678
O8	O	0.469371	-0.080593	1.064678
O9	O	0.150204	-0.588870	0.486157
O10	O	0.650204	-0.088870	0.986157
O11	O	0.055533	-0.494276	0.486238
O12	O	0.555533	0.005724	0.986238
O13	O	0.095452	-0.643780	0.595921
O14	O	0.595452	-0.143780	1.095921
Cu15	Cu	0.078360	-0.566161	0.543940
Cu16	Cu	0.578360	-0.066161	1.043940
Cu17	Cu	0.041215	-0.603301	0.506895
Cu18	Cu	0.541215	-0.103301	1.006895
O19	O	0.000780	-0.549187	0.596002
O20	O	0.500780	-0.049187	1.096002
N21	N	0.104487	-0.540042	0.569998
N22	N	0.604487	-0.040042	1.069998
N23	N	0.015094	-0.629425	0.480837
N24	N	0.515094	-0.129425	0.980837
C25	C	0.165467	-0.323909	0.630915
C26	C	0.665467	0.176091	1.130915
C27	C	0.165587	-0.479117	0.786068
C28	C	0.665587	0.020883	1.286068
C29	C	0.165481	-0.479095	0.630906
C30	C	0.665481	0.020905	1.130906
C31	C	0.320696	-0.479083	0.630835
C32	C	0.820696	0.020917	1.130835
C33	C	0.182557	-0.375118	0.647971
C34	C	0.682557	0.124882	1.147971
C35	C	0.182626	-0.462038	0.734858
C36	C	0.682626	0.037962	1.234858
C37	C	0.269485	-0.462018	0.647928
C38	C	0.769485	0.037982	1.147928
C39	C	0.182566	-0.462025	0.647966
C40	C	0.682566	0.037975	1.147966
C41	C	0.143714	-0.258726	0.609206
C42	C	0.643714	0.241274	1.109206
C43	C	0.143738	-0.500820	0.609192
C44	C	0.643738	-0.000820	1.109192
C45	C	0.204309	-0.440300	0.669680
C46	C	0.704309	0.059700	1.169680
C47	C	0.415481	-0.462740	0.580919
C48	C	0.915481	0.037260	1.080919
C49	C	0.474732	-0.482485	0.561145
C50	C	0.974732	0.017515	1.061145
C51	C	0.474757	-0.578356	0.597704
C52	C	0.974757	-0.078356	1.097704
C53	C	0.415508	-0.558609	0.617479
C54	C	0.915508	-0.058609	1.117479
C55	C	0.157989	-0.229089	0.550957
C56	C	0.657989	0.270911	1.050957
C57	C	0.138212	-0.169834	0.531225
C58	C	0.638212	0.330166	1.031225
C59	C	0.089890	-0.169857	0.627992
C60	C	0.589890	0.330143	1.127992
C61	C	0.109667	-0.229112	0.647725
C62	C	0.609667	0.270888	1.147725
C63	C	0.085482	-0.486515	0.623535
C64	C	0.585482	0.013485	1.123535
C65	C	0.065722	-0.506265	0.603789
C66	C	0.565722	-0.006265	1.103789
C67	C	0.162467	-0.554625	0.555370
C68	C	0.662467	-0.054625	1.055370
C69	C	0.182230	-0.534875	0.575110
C70	C	0.682230	-0.034875	1.075110
C71	C	0.085661	-0.486557	0.880902
C72	C	0.585661	0.013443	1.380902
C73	C	0.065952	-0.506323	0.940155
C74	C	0.565952	-0.006323	1.440155
C75	C	0.162734	-0.554693	0.940102
C76	C	0.662734	-0.054693	1.440102
C77	C	0.182441	-0.534928	0.880847
C78	C	0.682441	-0.034928	1.380847
C79	C	0.143904	-0.500859	0.851249
C80	C	0.643904	-0.000859	1.351249
C81	C	0.385871	-0.500801	0.609083
C82	C	0.885871	-0.000801	1.109083
C83	C	-0.110907	-0.668480	0.441278
C84	C	0.389093	-0.168480	0.941278
C85	C	-0.024049	-0.668588	0.441475
C86	C	0.475951	-0.168588	0.941475
C87	C	-0.045729	-0.690282	0.419668
C88	C	0.454271	-0.190282	0.919668
C89	C	-0.062146	-0.785032	0.469507
C90	C	0.437854	-0.285032	0.969507
C91	C	-0.042446	-0.844287	0.489286
C92	C	0.457554	-0.344287	0.989286
C93	C	0.053426	-0.844399	0.452899
C94	C	0.553426	-0.344399	0.952899
C95	C	0.033725	-0.785144	0.433120
C96	C	0.533725	-0.285144	0.933120
C97	C	-0.140617	-0.682751	0.499509
C98	C	0.359383	-0.182751	0.999509
C99	C	-0.199867	-0.662928	0.519152
C100	C	0.300133	-0.162928	1.019152
C101	C	-0.199694	-0.614571	0.422330
C102	C	0.300306	-0.114571	0.922330
C103	C	-0.140443	-0.634393	0.402687
C104	C	0.359557	-0.134393	0.902687
C105	C	-0.038320	-0.610337	0.427144
C106	C	0.461680	-0.110337	0.927144
C107	C	-0.018610	-0.590621	0.446974
C108	C	0.481390	-0.090621	0.946974
C109	C	0.029642	-0.687402	0.495454
C110	C	0.529642	-0.187402	0.995454
C111	C	0.009933	-0.707121	0.475630
C112	C	0.509933	-0.207121	0.975630
C113	C	-0.038148	-0.610347	0.324832
C114	C	0.461852	-0.110347	0.824832
C115	C	-0.018301	-0.590634	0.265579
C116	C	0.481699	-0.090634	0.765579
C117	C	0.030035	-0.687421	0.265643
C118	C	0.530035	-0.187421	0.765643
C119	C	0.010190	-0.707133	0.324897
C120	C	0.510190	-0.207133	0.824897
C121	C	-0.023903	-0.668595	0.354491
C122	C	0.476097	-0.168595	0.854491
C123	C	-0.024062	-0.755463	0.441426
C124	C	0.475938	-0.255463	0.941426
N125	N	0.503527	-0.540005	0.569810
N126	N	1.003527	-0.040005	1.069810
O127	O	0.684453	-0.545211	0.434650
O128	O	1.184453	-0.045211	0.934650
O129	O	0.684643	-0.655237	0.584005
O130	O	1.184643	-0.155237	1.084005
O131	O	0.684567	-0.654986	0.489282
O132	O	1.184567	-0.154986	0.989282
O133	O	0.684529	-0.545462	0.529373
O134	O	1.184529	-0.045462	1.029373
O135	O	0.590438	-0.623674	0.520735
O136	O	1.090438	-0.123674	1.020735
O137	O	0.590513	-0.623924	0.615457
O138	O	1.090513	-0.123924	1.115457
O139	O	0.590323	-0.513899	0.466102
O140	O	1.090323	-0.013899	0.966102
Cu141	Cu	0.581823	-0.566053	0.543652
Cu142	Cu	1.081823	-0.066053	1.043652
Cu143	Cu	0.693143	-0.603083	0.506456
Cu144	Cu	1.193143	-0.103083	1.006456
O145	O	0.590399	-0.514149	0.560825
O146	O	1.090399	-0.014149	1.060825
N147	N	0.771439	-0.629131	0.480292
N148	N	1.271439	-0.129131	0.980292
N149	N	0.104456	-0.141061	0.570015
N150	N	0.604456	0.358939	1.070015
O151	O	-0.030629	0.039964	0.564688
O152	O	0.469371	0.539964	1.064688
O153	O	0.118732	0.039984	0.454661
O154	O	0.618732	0.539984	0.954661
O155	O	0.023980	0.039958	0.454946
O156	O	0.523980	0.539958	0.954946
O157	O	0.064123	0.039990	0.564403
O158	O	0.564123	0.539990	1.064403
O159	O	0.055392	-0.054179	0.486321
O160	O	0.555392	0.445821	0.986321
O161	O	0.150144	-0.054153	0.486036
O162	O	0.650144	0.445847	0.986036
O163	O	0.000784	-0.054173	0.596063
O164	O	0.500784	0.445827	1.096063
Cu165	Cu	0.078332	-0.062759	0.543914
Cu166	Cu	0.578332	0.437241	1.043914
Cu167	Cu	0.041183	0.048570	0.506810
Cu168	Cu	0.541183	0.548570	1.006810
O169	O	0.095535	-0.054147	0.595778
O170	O	0.595535	0.445853	1.095778
N171	N	0.015053	0.126872	0.480710
N172	N	0.515053	0.626872	0.980710
N173	N	0.104760	-0.540096	0.968910
N174	N	0.604760	-0.040096	1.468910
O175	O	0.099447	-0.675167	1.149923
O176	O	0.599447	-0.175167	1.649923
O177	O	-0.010552	-0.525757	1.149951
O178	O	0.489448	-0.025757	1.649951
O179	O	-0.010297	-0.620493	1.149918
O180	O	0.489703	-0.120493	1.649918
O181	O	0.099192	-0.580431	1.149956
O182	O	0.599192	-0.080431	1.649956
O183	O	0.021064	-0.589100	1.055785
O184	O	0.521064	-0.089100	1.555785
O185	O	0.020809	-0.494365	1.055818
O186	O	0.520809	0.005635	1.555818
O187	O	0.130808	-0.643774	1.055790
O188	O	0.630808	-0.143774	1.555790
Cu189	Cu	0.078672	-0.566203	1.047209
Cu190	Cu	0.578672	-0.066203	1.547209
Cu191	Cu	0.041584	-0.603328	1.158532
Cu192	Cu	0.541584	-0.103328	1.658532
O193	O	0.130553	-0.549038	1.055823
O194	O	0.630553	-0.049038	1.555823
N195	N	0.015495	-0.629442	1.236831
N196	N	0.515495	-0.129442	1.736831
C197	C	0.036087	-0.491140	0.455465
C198	C	0.536087	0.008860	0.955465
C199	C	0.153325	-0.608283	0.455364
C200	C	0.653325	-0.108283	0.955364
C201	C	0.083488	-0.678322	0.595370
C202	C	0.583488	-0.178322	1.095370
C203	C	-0.033750	-0.561180	0.595470
C204	C	0.466250	-0.061180	1.095470
C205	C	0.637601	-0.654732	0.618548
C206	C	1.137601	-0.154732	1.118548
C207	C	0.637509	-0.654422	0.501245
C208	C	1.137509	-0.154422	1.001245
C209	C	0.637362	-0.514403	0.431560
C210	C	1.137362	-0.014403	0.931560
C211	C	0.637458	-0.514713	0.548862
C212	C	1.137458	-0.014713	1.048862
C213	C	0.153215	-0.006966	0.455158
C214	C	0.653215	0.493034	0.955158
C215	C	0.035916	-0.007114	0.455550
C216	C	0.535916	0.492886	0.955550
C217	C	-0.033739	-0.007106	0.595527
C218	C	0.466261	0.492894	1.095527
C219	C	0.083600	-0.007076	0.595174
C220	C	0.583600	0.492924	1.095174
C221	C	-0.010020	-0.491238	1.102888
C222	C	0.489980	0.008762	1.602888
C223	C	-0.009698	-0.608550	1.102828
C224	C	0.490302	-0.108550	1.602828
C225	C	0.130276	-0.678293	1.102853
C226	C	0.630276	-0.178293	1.602853
C227	C	0.129961	-0.560974	1.102892
C228	C	0.629961	-0.060974	1.602892
H229	H	0.054276	-0.458811	0.856808
H230	H	0.554276	0.041189	1.356808
O231	O	0.637191	-0.473138	0.380434
O232	O	1.137191	0.026862	0.880434
C233	C	0.588420	-0.425466	0.387940
C234	C	1.088420	0.074534	0.887940
H235	H	0.554388	-0.439138	0.429400
H236	H	1.054388	0.060862	0.929400
H237	H	0.572010	-0.405209	0.351248
H238	H	1.072010	0.094791	0.851248
H239	H	0.599423	-0.393503	0.389243
H240	H	1.099423	0.106497	0.889243
H241	H	0.637525	-0.688829	0.492664
H242	H	1.137525	-0.188829	0.992664
O243	O	0.204480	-0.618375	0.414159
O244	O	0.704480	-0.118375	0.914159
C245	C	0.197035	-0.612020	0.366471
C246	C	0.697035	-0.112020	0.866471
H247	H	0.155572	-0.618242	0.380105
H248	H	0.655572	-0.118242	0.880105
H249	H	0.233731	-0.644906	0.346277
H250	H	0.733731	-0.144906	0.846277
H251	H	0.195780	-0.567775	0.334472
H252	H	0.695780	-0.067775	0.834472
O253	O	-0.084954	-0.007004	0.636687
O254	O	0.415046	0.492996	1.136687
C255	C	-0.127638	0.041739	0.617335
C256	C	0.372362	0.541739	1.117335
H257	H	-0.108361	0.075812	0.582079
H258	H	0.391639	0.575812	1.082079
H259	H	-0.161409	0.058113	0.653820
H260	H	0.338591	0.558113	1.153820
H261	H	-0.147658	0.030707	0.600458
H262	H	0.352342	0.530707	1.100458
H263	H	-0.044554	-0.448327	1.102896
H264	H	0.455446	0.051673	1.602896
O265	O	0.204303	-0.006619	0.413897
O266	O	0.704303	0.493381	0.913897
C267	C	0.239511	-0.006513	0.434223
C268	C	0.739511	0.493487	0.934223
H269	H	0.212289	0.011124	0.470688
H270	H	0.712289	0.511124	0.970688
H271	H	0.266404	0.021039	0.398680
H272	H	0.766404	0.521039	0.898680
H273	H	0.268310	-0.051613	0.449737
H274	H	0.768310	0.448387	0.949737
H275	H	0.164358	-0.552401	1.102897
H276	H	0.664358	-0.052401	1.602897
H277	H	-0.076669	-0.552723	0.629962
H278	H	0.423331	-0.052723	1.129962
O279	O	-0.111862	-0.715802	0.536940
O280	O	0.388138	-0.215802	1.036940
C281	C	-0.077596	-0.688914	0.528501
C282	C	0.422404	-0.188914	1.028501
H283	H	-0.068640	-0.657628	0.483531
H284	H	0.431360	-0.157628	0.983531
H285	H	-0.035971	-0.722033	0.535175
H286	H	0.464029	-0.222033	1.035175
H287	H	-0.100469	-0.665338	0.559973
H288	H	0.399531	-0.165338	1.059973
O289	O	0.093748	-0.007044	0.636256
O290	O	0.593748	0.492956	1.136256
C291	C	0.045169	-0.007065	0.685112
C292	C	0.545169	0.492935	1.185112
H293	H	0.006243	0.010749	0.672767
H294	H	0.506243	0.510749	1.172767
H295	H	0.040223	0.020270	0.706185
H296	H	0.540223	0.520270	1.206185
H297	H	0.049758	-0.052228	0.715892
H298	H	0.549758	0.447772	1.215892
H299	H	0.027560	-0.448192	0.421017
H300	H	0.527560	0.051808	0.921017
O301	O	0.025586	-0.007165	0.414600
O302	O	0.525586	0.492835	0.914600
C303	C	-0.030051	-0.007170	0.435229
C304	C	0.469949	0.492830	0.935229
H305	H	-0.044926	-0.024974	0.483440
H306	H	0.455074	0.475026	0.983440
H307	H	-0.030867	-0.034526	0.418021
H308	H	0.469133	0.465474	0.918021
H309	H	-0.059348	0.037984	0.420906
H310	H	0.440652	0.537984	0.920906
O311	O	0.171460	-0.729480	1.102766
O312	O	0.671460	-0.229480	1.602766
C313	C	0.184612	-0.739625	1.053995
C314	C	0.684612	-0.239625	1.553995
H315	H	0.147198	-0.713211	1.037740
H316	H	0.647198	-0.213211	1.537740
H317	H	0.193859	-0.786429	1.064944
H318	H	0.693859	-0.286429	1.564944
H319	H	0.223413	-0.727438	1.019863
H320	H	0.723413	-0.227438	1.519863
H321	H	0.229870	-0.546579	0.856706
H322	H	0.729870	-0.046579	1.356706
O323	O	0.637519	-0.473735	0.559135
O324	O	1.137519	0.026265	1.059135
C325	C	0.686304	-0.493201	0.572402
C326	C	1.186304	0.006799	1.072402
H327	H	0.702601	-0.541450	0.588634
H328	H	1.202601	-0.041450	1.088634
H329	H	0.675360	-0.476852	0.606461
H330	H	1.175360	0.023148	1.106461
H331	H	0.720401	-0.477043	0.532839
H332	H	1.220401	0.022957	1.032839
O333	O	0.009354	-0.492346	0.968868
O334	O	0.509354	0.007654	1.468868
C335	C	-0.020428	-0.458047	0.930034
C336	C	0.479572	0.041953	1.430034
H337	H	0.007810	-0.436500	0.887791
H338	H	0.507810	0.063500	1.387791
H339	H	-0.059966	-0.424525	0.947172
H340	H	0.440034	0.075475	1.447172
H341	H	-0.033212	-0.485378	0.923736
H342	H	0.466788	0.014622	1.423736
O343	O	0.200246	-0.587800	0.968766
O344	O	0.700246	-0.087800	1.468766
C345	C	0.255880	-0.596173	0.929887
C346	C	0.755880	-0.096173	1.429887
H347	H	0.255743	-0.589539	0.887655
H348	H	0.755743	-0.089539	1.387655
H349	H	0.284029	-0.641115	0.946984
H350	H	0.784029	-0.141115	1.446984
H351	H	0.272853	-0.564638	0.923585
H352	H	0.772853	-0.064638	1.423585
O353	O	0.093741	-0.729596	0.636398
O354	O	0.593741	-0.229596	1.136398
C355	C	0.149369	-0.764698	0.615866
C356	C	0.649369	-0.264698	1.115866
H357	H	0.164297	-0.749274	0.567656
H358	H	0.664297	-0.249274	1.067656
H359	H	0.150139	-0.810068	0.633155
H360	H	0.650139	-0.310068	1.133155
H361	H	0.178652	-0.763138	0.630185
H362	H	0.678652	-0.263138	1.130185
H363	H	-0.044080	-0.617108	1.102779
H364	H	0.455920	-0.117108	1.602779
O365	O	0.048014	-0.453417	0.656611
O366	O	0.548014	0.046583	1.156611
C367	C	-0.007641	-0.445034	0.665040
C368	C	0.492359	0.054966	1.165040
H369	H	-0.007557	-0.451649	0.629322
H370	H	0.492443	0.048351	1.129322
H371	H	-0.035778	-0.400097	0.665364
H372	H	0.464222	0.099903	1.165364
H373	H	-0.024591	-0.476578	0.707251
H374	H	0.475409	0.023422	1.207251
O375	O	0.009146	-0.492474	0.617740
O376	O	0.509146	0.007526	1.117740
C377	C	-0.005145	-0.542268	0.647571
C378	C	0.494855	-0.042268	1.147571
H379	H	0.033909	-0.579491	0.636859
H380	H	0.533909	-0.079491	1.136859
H381	H	-0.039518	-0.536971	0.634980
H382	H	0.460482	-0.036971	1.134980
H383	H	-0.021381	-0.550609	0.694996
H384	H	0.478619	-0.050609	1.194996
H385	H	0.229667	-0.546519	0.563426
H386	H	0.729667	-0.046519	1.063426
O387	O	0.199939	-0.587684	0.522251
O388	O	0.699939	-0.087684	1.022251
C389	C	0.255594	-0.596088	0.513843
C390	C	0.755594	-0.096088	1.013843
H391	H	0.255491	-0.560367	0.520465
H392	H	0.755491	-0.060367	1.020465
H393	H	0.283700	-0.596389	0.468898
H394	H	0.783700	-0.096389	0.968898
H395	H	0.272596	-0.638303	0.545366
H396	H	0.772596	-0.138303	1.045366
H397	H	0.498884	-0.625426	0.604536
H398	H	0.998884	-0.125426	1.104536
O399	O	0.386834	-0.595658	0.644805
O400	O	0.886834	-0.095658	1.144805
C401	C	0.425703	-0.650915	0.647982
C402	C	0.925703	-0.150915	1.147982
H403	H	0.467923	-0.648653	0.612973
H404	H	0.967923	-0.148653	1.112973
H405	H	0.408580	-0.675238	0.642626
H406	H	0.908580	-0.175238	1.142626
H407	H	0.432036	-0.673535	0.690913
H408	H	0.932036	-0.173535	1.190913
H409	H	0.498841	-0.451490	0.538213
H410	H	0.998841	0.048510	1.038213
O411	O	0.386779	-0.406569	0.572740
O412	O	0.886779	0.093431	1.072740
C413	C	0.425623	-0.377210	0.543629
C414	C	0.925623	0.122790	1.043629
H415	H	0.467871	-0.407621	0.550449
H416	H	0.967871	0.092379	1.050449
H417	H	0.408510	-0.341476	0.560408
H418	H	0.908510	0.158524	1.060408
H419	H	0.431897	-0.358792	0.496490
H420	H	0.931897	0.141208	0.996490
H421	H	0.637649	-0.689271	0.661445
H422	H	1.137649	-0.189271	1.161445
H423	H	0.149834	-0.145702	0.483792
H424	H	0.649834	0.354298	0.983792
O425	O	0.191035	-0.257767	0.513463
O426	O	0.691035	0.242233	1.013463
C427	C	0.199400	-0.218900	0.457817
C428	C	0.699400	0.281100	0.957817
H429	H	0.163667	-0.176667	0.457943
H430	H	0.663667	0.323333	0.957943
H431	H	0.199691	-0.236017	0.429692
H432	H	0.699691	0.263983	0.929692
H433	H	0.241604	-0.212588	0.440821
H434	H	0.741604	0.287412	0.940821
O435	O	0.095769	-0.257940	0.704300
O436	O	0.595769	0.242060	1.204300
C437	C	0.065975	-0.292255	0.718650
C438	C	0.565975	0.207745	1.218650
H439	H	0.045863	-0.274397	0.685290
H440	H	0.545863	0.225603	1.185290
H441	H	0.031497	-0.292968	0.761693
H442	H	0.531497	0.207032	1.261693
H443	H	0.096472	-0.337148	0.720573
H444	H	0.596472	0.162852	1.220573
O445	O	0.056888	-0.141151	0.665465
O446	O	0.556888	0.358849	1.165465
C447	C	0.086848	-0.155621	0.699685
C448	C	0.586848	0.344379	1.199685
H449	H	0.121350	-0.198637	0.700244
H450	H	0.621350	0.301363	1.200244
H451	H	0.056475	-0.157663	0.744630
H452	H	0.556475	0.342337	1.244630
H453	H	0.106944	-0.122264	0.681855
H454	H	0.606944	0.377736	1.181855
O455	O	-0.032222	-0.534030	0.236862
O456	O	0.467778	-0.034030	0.736862
C457	C	-0.066558	-0.504246	0.275692
C458	C	0.433442	-0.004246	0.775692
H459	H	-0.088157	-0.532472	0.317905
H460	H	0.411843	-0.032472	0.817905
H461	H	-0.100033	-0.464682	0.258502
H462	H	0.399967	0.035318	0.758502
H463	H	-0.039250	-0.491502	0.282066
H464	H	0.460750	0.008498	0.782066
H465	H	-0.065911	-0.578960	0.348925
H466	H	0.434089	-0.078960	0.848925
H467	H	0.021795	-0.754566	0.349042
H468	H	0.521795	-0.254566	0.849042
O469	O	0.063159	-0.724936	0.236988
O470	O	0.563159	-0.224936	0.736988
C471	C	0.071459	-0.780573	0.275874
C472	C	0.571459	-0.280573	0.775874
H473	H	0.064772	-0.780454	0.318134
H474	H	0.564772	-0.280454	0.818134
H475	H	0.116395	-0.808755	0.258830
H476	H	0.616395	-0.308755	0.758830
H477	H	0.039921	-0.797500	0.282104
H478	H	0.539921	-0.297500	0.782104
H479	H	-0.065985	-0.578958	0.399332
H480	H	0.434015	-0.078958	0.899332
H481	H	-0.030233	-0.543188	0.435308
H482	H	0.469767	-0.043188	0.935308
H483	H	0.057315	-0.718782	0.523258
H484	H	0.557315	-0.218782	1.023258
H485	H	0.021552	-0.754553	0.487300
H486	H	0.521552	-0.254553	0.987300
H487	H	0.064741	-0.761071	0.410254
H488	H	0.564741	-0.261071	0.910254
H489	H	0.100481	-0.868567	0.446139
H490	H	0.600481	-0.368567	0.946139
O491	O	-0.079530	-0.872924	0.516641
O492	O	0.420470	-0.372924	1.016641
C493	C	-0.134762	-0.834019	0.519755
C494	C	0.365238	-0.334019	1.019755
H495	H	-0.137025	-0.791775	0.515810
H496	H	0.362975	-0.291775	1.015810
H497	H	-0.166101	-0.851070	0.562109
H498	H	0.333899	-0.351070	1.062109
H499	H	-0.145823	-0.827754	0.483865
H500	H	0.354177	-0.327754	0.983865
H501	H	-0.224058	-0.674545	0.566571
H502	H	0.275942	-0.174545	1.066571
O503	O	-0.118254	-0.756132	0.477467
O504	O	0.381746	-0.256132	0.977467
C505	C	-0.126205	-0.721876	0.424527
C506	C	0.373795	-0.221876	0.924527
H507	H	-0.085430	-0.713061	0.391577
H508	H	0.414570	-0.213061	0.891577
H509	H	-0.161759	-0.680177	0.427886
H510	H	0.338241	-0.180177	0.927886
H511	H	-0.137857	-0.744689	0.411309
H512	H	0.362143	-0.244689	0.911309
H513	H	-0.223743	-0.586821	0.390905
H514	H	0.276257	-0.086821	0.890905
H515	H	-0.116252	-0.622767	0.355267
H516	H	0.383748	-0.122767	0.855267
