data_functionalizedCrystal
_audit_creation_method	'MofGen! by Chris Wilmer'
_symmetry_space_group_name_H-M	'P1'
_symmetry_Int_Tables_number	1
_symmetry_cell_setting	triclinic
loop_
_symmetry_equiv_pos_as_xyz
  x,y,z
_cell_length_a	23.532407
_cell_length_b	11.792254
_cell_length_c	10.868271
_cell_angle_alpha	89.994692
_cell_angle_beta	90.001021
_cell_angle_gamma	83.523638
loop_
_atom_site_label
_atom_site_type_symbol
_atom_site_fract_x
_atom_site_fract_y
_atom_site_fract_z
O1	O	0.756079	0.137771	-0.102169
O2	O	0.590334	0.157705	-0.102206
O3	O	0.677225	-0.017526	-0.102178
O4	O	0.669188	0.313002	-0.102197
O5	O	0.677218	-0.017533	0.102467
O6	O	0.590327	0.157698	0.102439
O7	O	0.756072	0.137764	0.102475
Zn8	Zn	0.673198	0.147730	0.134949
Zn9	Zn	0.673208	0.147739	-0.134679
O10	O	0.669181	0.312995	0.102448
C11	C	0.569112	0.157194	0.000112
C12	C	0.505885	0.155668	0.000099
C13	C	0.676715	-0.059808	0.000144
C14	C	0.675200	-0.185786	0.000143
C15	C	0.673969	-0.288093	0.000138
C16	C	0.672429	-0.416444	0.000126
C17	C	0.107342	0.249793	0.000149
C18	C	0.047934	0.248376	0.000157
O19	O	0.011708	0.335631	0.000196
N20	N	0.024688	0.144201	0.000161
C21	C	0.060854	0.041437	0.000169
O22	O	0.035626	-0.047302	0.000175
C23	C	0.120261	0.042856	0.000171
C24	C	0.143504	0.147037	0.000154
C25	C	0.130585	0.353967	0.000134
C26	C	0.189990	0.355384	0.000124
C27	C	0.226151	0.252628	0.000129
C28	C	0.202908	0.148455	0.000144
C29	C	0.156427	-0.059907	0.000188
C30	C	0.215838	-0.058479	0.000190
C31	C	0.239080	0.045703	0.000174
C32	C	0.298475	0.047116	0.000140
N33	N	0.321721	0.151291	0.000136
C34	C	0.285559	0.254047	0.000130
C35	C	-0.063906	0.038465	0.000169
C36	C	-0.123313	0.037045	0.000159
C37	C	-0.136229	0.243984	0.000148
C38	C	-0.076821	0.245403	0.000150
C39	C	-0.040660	0.142640	0.000165
C40	C	0.410313	0.257016	0.000108
C41	C	0.469724	0.258424	0.000093
C42	C	0.482635	0.051485	0.000111
C43	C	0.423230	0.050076	0.000119
C44	C	0.387070	0.152851	0.000122
O45	O	0.334735	-0.040094	0.000105
O46	O	0.310795	0.342771	0.000141
C47	C	0.777294	0.138275	0.000155
C48	C	0.840521	0.139801	0.000160
C49	C	0.669691	0.355277	0.000123
C50	C	0.671206	0.481255	0.000116
N51	N	0.673196	0.147723	0.318963
N52	N	0.673215	0.147737	-0.318693
C53	C	0.673205	0.147737	0.569969
C54	C	0.673198	0.147733	0.430292
H55	H	0.488644	0.343264	0.000079
H56	H	0.380878	0.340705	0.000115
C57	C	0.010394	-0.080031	0.105364
C58	C	-0.024161	-0.074504	0.000165
H59	H	0.034926	-0.149777	0.105363
H60	H	0.032743	-0.017802	0.105354
H61	H	-0.013054	-0.076283	0.176721
H62	H	-0.000712	-0.078244	-0.071193
H63	H	-0.046511	-0.136751	0.000164
C64	C	0.175186	-0.264306	0.000246
C65	C	0.130889	-0.174429	0.000224
H66	H	0.159420	-0.335010	0.000279
H67	H	0.198082	-0.259451	-0.071121
H68	H	0.198091	-0.259418	0.071608
H69	H	0.107986	-0.179312	-0.071143
H70	H	0.107984	-0.179286	0.071598
H71	H	0.404305	-0.034757	0.000114
C72	C	0.197240	0.532218	-0.105083
C73	C	0.215525	0.469913	0.000116
H74	H	0.212996	0.602932	-0.105080
H75	H	0.209639	0.489950	-0.176432
H76	H	0.156682	0.546041	-0.105068
H77	H	0.256082	0.456082	0.000097
H78	H	0.203129	0.512190	0.071484
C79	C	0.056287	0.472459	0.105314
C80	C	0.090842	0.466930	0.000120
H81	H	0.031757	0.542207	0.105298
H82	H	0.033936	0.410232	0.105313
H83	H	0.079735	0.468707	0.176674
H84	H	0.067394	0.470673	-0.071241
H85	H	0.113195	0.529173	0.000109
C86	C	0.290137	-0.176945	-0.105000
C87	C	0.255587	-0.171440	0.000202
H88	H	0.314678	-0.246679	-0.104990
H89	H	0.266690	-0.173201	-0.176348
H90	H	0.312482	-0.114696	-0.104997
H91	H	0.233239	-0.233685	0.000194
H92	H	0.279037	-0.175195	0.071567
C93	C	-0.095569	0.449806	0.000140
C94	C	-0.051276	0.359921	0.000146
H95	H	-0.079800	0.520506	0.000148
H96	H	-0.118468	0.444947	-0.071222
H97	H	-0.118473	0.444931	0.071507
H98	H	-0.028375	0.364792	-0.071225
H99	H	-0.028368	0.364783	0.071516
C100	C	-0.182620	-0.084618	0.105360
C101	C	-0.148859	-0.077472	0.000159
H102	H	-0.198392	-0.155316	0.105358
H103	H	-0.159710	-0.079770	0.176708
H104	H	-0.212660	-0.023622	0.105348
H105	H	-0.118816	-0.138464	0.000176
H106	H	-0.171770	-0.082332	-0.071207
C107	C	0.511944	-0.124458	0.105323
C108	C	0.522388	-0.061465	0.000116
H109	H	0.536485	-0.194192	0.105325
H110	H	0.519029	-0.081710	0.176667
H111	H	0.473236	-0.140210	0.105314
H112	H	0.561096	-0.045706	0.000129
H113	H	0.515308	-0.104222	-0.071246
C114	C	-0.233036	0.333680	0.000163
C115	C	-0.175986	0.356938	0.000153
H116	H	-0.257580	0.403410	0.000172
H117	H	-0.240114	0.290946	-0.071195
H118	H	-0.240106	0.290926	0.071534
H119	H	-0.168915	0.399685	-0.071223
H120	H	-0.168905	0.399691	0.071518
