data_functionalizedCrystal
_audit_creation_method	'MofGen! by Chris Wilmer'
_symmetry_space_group_name_H-M	'P1'
_symmetry_Int_Tables_number	1
_symmetry_cell_setting	triclinic
loop_
_symmetry_equiv_pos_as_xyz
  x,y,z
_cell_length_a	12.759401
_cell_length_b	13.897448
_cell_length_c	12.759393
_cell_angle_alpha	89.968008
_cell_angle_beta	89.981798
_cell_angle_gamma	90.017853
loop_
_atom_site_label
_atom_site_type_symbol
_atom_site_fract_x
_atom_site_fract_y
_atom_site_fract_z
Zn1	Zn	1.606230	-0.383967	-0.593968
Zn2	Zn	2.106230	0.116033	-0.093968
Zn3	Zn	1.606117	-0.545292	-0.418283
Zn4	Zn	2.106117	-0.045292	0.081717
Zn5	Zn	1.430533	-0.384013	-0.418308
Zn6	Zn	1.930533	0.115987	0.081692
Zn7	Zn	1.430512	-0.545222	-0.593924
Zn8	Zn	1.930512	-0.045222	-0.093924
O9	O	1.518348	-0.464624	-0.506121
O10	O	2.018348	0.035376	-0.006121
O11	O	1.753236	-0.405377	-0.570671
O12	O	2.253236	0.094623	-0.070671
O13	O	1.582786	-0.523947	-0.271265
O14	O	2.082786	-0.023947	0.228735
O15	O	1.453897	-0.249026	-0.441638
O16	O	1.953897	0.250974	0.058362
O17	O	1.753153	-0.523902	-0.441596
O18	O	2.253153	-0.023902	0.058404
O19	O	1.582981	-0.248991	-0.570695
O20	O	2.082981	0.251009	-0.070695
O21	O	1.453786	-0.405456	-0.271283
O22	O	1.953786	0.094544	0.228717
O23	O	1.283509	-0.405388	-0.441596
O24	O	1.783509	0.094612	0.058404
O25	O	1.453860	-0.523782	-0.740951
O26	O	1.953860	-0.023782	-0.240951
O27	O	1.283494	-0.523827	-0.570621
O28	O	1.783494	-0.023827	-0.070621
O29	O	1.582960	-0.405309	-0.740984
O30	O	2.082960	0.094691	-0.240984
O31	O	1.582766	-0.680265	-0.441554
O32	O	2.082766	-0.180265	0.058446
O33	O	1.453750	-0.680213	-0.570597
O34	O	1.953750	-0.180213	-0.070597
C35	C	1.245381	-0.464606	-0.506107
C36	C	1.745381	0.035394	-0.006107
C37	C	1.128604	-0.464622	-0.506125
C38	C	1.628604	0.035378	-0.006125
C39	C	1.518271	-0.715238	-0.506090
C40	C	2.018271	-0.215238	-0.006090
C41	C	1.518335	-0.822452	-0.506113
C42	C	2.018335	-0.322452	-0.006113
C43	C	1.073761	-0.526392	-0.573198
C44	C	1.573761	-0.026392	-0.073198
C45	C	0.964037	-0.526404	-0.573209
C46	C	1.464037	-0.026404	-0.073209
C47	C	0.964008	-0.402873	-0.439067
C48	C	1.464008	0.097127	0.060933
C49	C	1.073730	-0.402857	-0.439062
C50	C	1.573730	0.097143	0.060938
C51	C	1.128635	-0.588156	-0.640261
C52	C	1.628635	-0.088156	-0.140261
C53	C	1.073792	-0.649932	-0.707338
C54	C	1.573792	-0.149932	-0.207338
C55	C	0.964068	-0.649944	-0.707349
C56	C	1.464068	-0.149944	-0.207349
C57	C	0.909187	-0.588181	-0.640284
C58	C	1.409187	-0.088181	-0.140284
C59	C	1.518445	-1.018747	-0.506178
C60	C	2.018445	-0.518747	-0.006178
C61	C	1.518381	-0.909514	-0.506145
C62	C	2.018381	-0.409514	-0.006145
C63	C	1.792381	-0.464642	-0.506136
C64	C	2.292381	0.035358	-0.006136
C65	C	1.909158	-0.464650	-0.506142
C66	C	2.409158	0.035350	-0.006142
C67	C	1.518420	-0.464532	-0.780154
C68	C	2.018420	0.035468	-0.280154
C69	C	1.518451	-0.464493	-0.896931
C70	C	2.018451	0.035507	-0.396931
C71	C	1.518454	-0.213031	-0.506174
C72	C	2.018454	0.286969	-0.006174
C73	C	1.518499	-0.105817	-0.506197
C74	C	2.018499	0.394183	-0.006197
C75	C	1.585660	-0.526122	-1.061513
C76	C	2.085660	-0.026122	-0.561513
C77	C	1.585628	-0.526165	-0.951788
C78	C	2.085628	-0.026165	-0.451788
C79	C	1.451293	-0.402781	-0.951804
C80	C	1.951293	0.097219	-0.451804
C81	C	1.451320	-0.402743	-1.061526
C82	C	1.951320	0.097257	-0.561526
C83	C	1.652849	-0.587790	-1.116364
C84	C	2.152849	-0.087790	-0.616364
C85	C	1.720006	-0.649504	-1.061499
C86	C	2.220006	-0.149504	-0.561499
C87	C	1.719974	-0.649547	-0.951775
C88	C	2.219974	-0.149547	-0.451775
C89	C	1.652786	-0.587877	-0.896916
C90	C	2.152786	-0.087877	-0.396916
C91	C	1.518337	-0.464645	-0.233154
C92	C	2.018337	0.035355	0.266846
C93	C	1.518509	-0.464412	-0.116377
C94	C	2.018509	0.035588	0.383623
H95	H	1.217978	-0.588155	-0.640258
H96	H	1.717978	-0.088155	-0.140258
H97	H	1.118484	-0.700211	-0.761947
H98	H	1.618484	-0.200211	-0.261947
Cl99	Cl	1.142681	-0.325202	-0.354741
Cl100	Cl	1.642681	0.174798	0.145259
H101	H	1.396644	-0.352491	-1.106198
H102	H	1.896644	0.147509	-0.606198
Cl103	Cl	1.652897	-0.587737	-1.254303
Cl104	Cl	2.152897	-0.087737	-0.754303
Cl105	Cl	1.804455	-0.727037	-1.130463
Cl106	Cl	2.304455	-0.227037	-0.630463
Cl107	Cl	0.895125	-0.727596	-0.791681
Cl108	Cl	1.395125	-0.227596	-0.291681
Cl109	Cl	1.366846	-0.325248	-0.882837
Cl110	Cl	1.866846	0.174752	-0.382837
H111	H	0.919315	-0.352589	-0.384465
H112	H	1.419315	0.147411	0.115535
H113	H	0.819842	-0.588187	-0.640308
H114	H	1.319842	-0.088187	-0.140308
H115	H	1.774650	-0.699803	-0.907107
H116	H	2.274650	-0.199803	-0.407107
Cl117	Cl	1.652734	-0.587947	-0.758975
Cl118	Cl	2.152734	-0.087947	-0.258975
