data_functionalizedCrystal
_audit_creation_method	'MofGen! by Chris Wilmer'
_symmetry_space_group_name_H-M	'P1'
_symmetry_Int_Tables_number	1
_symmetry_cell_setting	triclinic
loop_
_symmetry_equiv_pos_as_xyz
  x,y,z
_cell_length_a	16.625547
_cell_length_b	21.295417
_cell_length_c	16.625527
_cell_angle_alpha	89.910215
_cell_angle_beta	89.935872
_cell_angle_gamma	90.029639
loop_
_atom_site_label
_atom_site_type_symbol
_atom_site_fract_x
_atom_site_fract_y
_atom_site_fract_z
Zn1	Zn	1.232953	-0.250252	-0.455979
Zn2	Zn	1.482953	-0.000252	-0.205979
Zn3	Zn	1.732953	0.249748	0.044021
Zn4	Zn	1.982953	0.499748	0.294021
Zn5	Zn	1.232747	-0.355631	-0.321137
Zn6	Zn	1.482747	-0.105631	-0.071137
Zn7	Zn	1.732747	0.144369	0.178863
Zn8	Zn	1.982747	0.394369	0.428863
Zn9	Zn	1.098022	-0.250379	-0.321150
Zn10	Zn	1.348022	-0.000379	-0.071150
Zn11	Zn	1.598022	0.249621	0.178850
Zn12	Zn	1.848022	0.499621	0.428850
Zn13	Zn	1.098068	-0.355487	-0.455917
Zn14	Zn	1.348068	-0.105487	-0.205917
Zn15	Zn	1.598068	0.144513	0.044083
Zn16	Zn	1.848068	0.394513	0.294083
O17	O	1.165448	-0.302937	-0.388546
O18	O	1.415448	-0.052937	-0.138546
O19	O	1.665448	0.197063	0.111454
O20	O	1.915448	0.447063	0.361454
O21	O	1.345758	-0.264238	-0.438113
O22	O	1.595758	-0.014238	-0.188113
O23	O	1.845758	0.235762	0.061887
O24	O	2.095758	0.485762	0.311887
O25	O	1.214770	-0.341783	-0.208306
O26	O	1.464770	-0.091783	0.041694
O27	O	1.714770	0.158217	0.291694
O28	O	1.964770	0.408217	0.541694
O29	O	1.115988	-0.162273	-0.339066
O30	O	1.365988	0.087727	-0.089066
O31	O	1.615988	0.337727	0.160934
O32	O	1.865988	0.587727	0.410934
O33	O	1.345606	-0.341659	-0.339045
O34	O	1.595606	-0.091659	-0.089045
O35	O	1.845606	0.158341	0.160955
O36	O	2.095606	0.408341	0.410955
O37	O	1.215121	-0.162179	-0.438125
O38	O	1.465121	0.087821	-0.188125
O39	O	1.715121	0.337821	0.061875
O40	O	1.965121	0.587821	0.311875
O41	O	1.115788	-0.264455	-0.208315
O42	O	1.365788	-0.014455	0.041685
O43	O	1.615788	0.235545	0.291685
O44	O	1.865788	0.485545	0.541685
O45	O	0.985196	-0.264315	-0.339006
O46	O	1.235196	-0.014315	-0.089006
O47	O	1.485196	0.235685	0.160994
O48	O	1.735196	0.485685	0.410994
O49	O	1.116067	-0.341414	-0.568758
O50	O	1.366067	-0.091414	-0.318758
O51	O	1.616067	0.158586	-0.068758
O52	O	1.866067	0.408586	0.181242
O53	O	0.985230	-0.341538	-0.438019
O54	O	1.235230	-0.091538	-0.188019
O55	O	1.485230	0.158462	0.061981
O56	O	1.735230	0.408462	0.311981
O57	O	1.215166	-0.264098	-0.568804
O58	O	1.465166	-0.014098	-0.318804
O59	O	1.715166	0.235902	-0.068804
O60	O	1.965166	0.485902	0.181196
O61	O	1.214814	-0.443701	-0.338984
O62	O	1.464814	-0.193701	-0.088984
O63	O	1.714814	0.056299	0.161016
O64	O	1.964814	0.306299	0.411016
O65	O	1.115866	-0.443596	-0.438007
O66	O	1.365866	-0.193596	-0.188007
O67	O	1.615866	0.056404	0.061993
O68	O	1.865866	0.306404	0.311993
C69	C	0.955957	-0.302925	-0.388508
C70	C	1.205957	-0.052925	-0.138508
C71	C	1.455957	0.197075	0.111492
C72	C	1.705957	0.447075	0.361492
C73	C	0.866336	-0.302935	-0.388510
C74	C	1.116336	-0.052935	-0.138510
C75	C	1.366336	0.197065	0.111490
C76	C	1.616336	0.447065	0.361490
C77	C	0.793553	-0.302936	-0.388520
C78	C	1.043553	-0.052936	-0.138520
C79	C	1.293553	0.197064	0.111480
C80	C	1.543553	0.447064	0.361480
C81	C	0.702245	-0.302940	-0.388541
C82	C	0.952245	-0.052940	-0.138541
C83	C	1.202245	0.197060	0.111459
C84	C	1.452245	0.447060	0.361459
C85	C	0.629468	-0.302945	-0.388561
C86	C	0.879468	-0.052945	-0.138561
C87	C	1.129468	0.197055	0.111439
C88	C	1.379468	0.447055	0.361439
C89	C	0.538154	-0.302950	-0.388580
C90	C	0.788154	-0.052950	-0.138580
C91	C	1.038154	0.197050	0.111420
C92	C	1.288154	0.447050	0.361420
C93	C	1.165345	-0.466489	-0.388505
C94	C	1.415345	-0.216489	-0.138505
C95	C	1.665345	0.033511	0.111495
C96	C	1.915345	0.283511	0.361495
C97	C	1.165375	-0.536457	-0.388514
C98	C	1.415375	-0.286457	-0.138514
C99	C	1.665375	-0.036457	0.111486
C100	C	1.915375	0.213543	0.361486
C101	C	1.216964	-0.569218	-0.440131
C102	C	1.466964	-0.319218	-0.190131
C103	C	1.716964	-0.069218	0.059869
C104	C	1.966964	0.180782	0.309869
C105	C	1.216992	-0.634960	-0.440151
C106	C	1.466992	-0.384960	-0.190151
C107	C	1.716992	-0.134960	0.059849
C108	C	1.966992	0.115040	0.309849
C109	C	1.165440	-0.667940	-0.388540
C110	C	1.415440	-0.417940	-0.138540
C111	C	1.665440	-0.167940	0.111460
C112	C	1.915440	0.082060	0.361460
C113	C	1.113841	-0.635171	-0.336919
C114	C	1.363841	-0.385171	-0.086919
C115	C	1.613841	-0.135171	0.163081
C116	C	1.863841	0.114829	0.413081
C117	C	1.113808	-0.569430	-0.336907
C118	C	1.363808	-0.319430	-0.086907
C119	C	1.613808	-0.069430	0.163093
C120	C	1.863808	0.180570	0.413093
N121	N	1.159300	-0.771258	-0.317974
N122	N	1.409300	-0.521258	-0.067974
N123	N	1.659300	-0.271258	0.182026
N124	N	1.909300	-0.021258	0.432026
N125	N	1.159336	-0.833710	-0.317988
N126	N	1.409336	-0.583710	-0.067988
N127	N	1.659336	-0.333710	0.182012
N128	N	1.909336	-0.083710	0.432012
C129	C	1.165534	-0.866014	-0.388576
C130	C	1.415534	-0.616014	-0.138576
C131	C	1.665534	-0.366014	0.111424
C132	C	1.915534	-0.116014	0.361424
N133	N	1.171711	-0.833508	-0.459151
N134	N	1.421711	-0.583508	-0.209151
N135	N	1.671711	-0.333508	0.040849
N136	N	1.921711	-0.083508	0.290849
N137	N	1.171679	-0.771051	-0.459136
N138	N	1.421679	-0.521051	-0.209136
N139	N	1.671679	-0.271051	0.040864
N140	N	1.921679	-0.021051	0.290864
C141	C	1.165469	-0.739225	-0.388548
C142	C	1.415469	-0.489225	-0.138548
C143	C	1.665469	-0.239225	0.111452
C144	C	1.915469	0.010775	0.361452
C145	C	1.217157	-0.970060	-0.440219
C146	C	1.467157	-0.720060	-0.190219
C147	C	1.717157	-0.470060	0.059781
C148	C	1.967157	-0.220060	0.309781
C149	C	1.217180	-1.035804	-0.440240
C150	C	1.467180	-0.785804	-0.190240
C151	C	1.717180	-0.535804	0.059760
C152	C	1.967180	-0.285804	0.309760
C153	C	1.114033	-1.036014	-0.337001
C154	C	1.364033	-0.786014	-0.087001
C155	C	1.614033	-0.536014	0.162999
C156	C	1.864033	-0.286014	0.412999
C157	C	1.114006	-0.970271	-0.336987
C158	C	1.364006	-0.720271	-0.086987
C159	C	1.614006	-0.470271	0.163013
C160	C	1.864006	-0.220271	0.413013
C161	C	1.165572	-0.937299	-0.388595
C162	C	1.415572	-0.687299	-0.138595
C163	C	1.665572	-0.437299	0.111405
C164	C	1.915572	-0.187299	0.361405
C165	C	1.375756	-0.302950	-0.388584
C166	C	1.625756	-0.052950	-0.138584
C167	C	1.875756	0.197050	0.111416
C168	C	2.125756	0.447050	0.361416
C169	C	1.465378	-0.302955	-0.388601
C170	C	1.715378	-0.052955	-0.138601
C171	C	1.965378	0.197045	0.111399
C172	C	2.215378	0.447045	0.361399
C173	C	1.165644	-0.302726	-0.598855
C174	C	1.415644	-0.052726	-0.348855
C175	C	1.665644	0.197274	-0.098855
C176	C	1.915644	0.447274	0.151145
C177	C	1.165728	-0.302636	-0.688477
C178	C	1.415728	-0.052636	-0.438477
C179	C	1.665728	0.197364	-0.188477
C180	C	1.915728	0.447364	0.061523
C181	C	1.165573	-0.138747	-0.388604
C182	C	1.415573	0.111253	-0.138604
C183	C	1.665573	0.361253	0.111396
C184	C	1.915573	0.611253	0.361396
C185	C	1.165626	-0.068779	-0.388629
C186	C	1.415626	0.181221	-0.138629
C187	C	1.665626	0.431221	0.111371
C188	C	1.915626	0.681221	0.361371
C189	C	1.165298	-0.303103	-0.179054
C190	C	1.415298	-0.053103	0.070946
C191	C	1.665298	0.196897	0.320946
C192	C	1.915298	0.446897	0.570946
C193	C	1.165370	-0.303016	-0.089434
C194	C	1.415370	-0.053016	0.160566
C195	C	1.665370	0.196984	0.410566
C196	C	1.915370	0.446984	0.660566
C197	C	1.165670	-0.302707	0.238741
C198	C	1.415670	-0.052707	0.488741
C199	C	1.665670	0.197293	0.738741
C200	C	1.915670	0.447293	0.988741
C201	C	1.165589	-0.302795	0.147433
C202	C	1.415589	-0.052795	0.397433
C203	C	1.665589	0.197205	0.647433
C204	C	1.915589	0.447205	0.897433
C205	C	1.165520	-0.302862	0.074657
C206	C	1.415520	-0.052862	0.324657
C207	C	1.665520	0.197138	0.574657
C208	C	1.915520	0.447138	0.824657
C209	C	1.165439	-0.302949	-0.016657
C210	C	1.415439	-0.052949	0.233343
C211	C	1.665439	0.197051	0.483343
C212	C	1.915439	0.447051	0.733343
H213	H	1.258950	-0.542373	-0.482155
H214	H	1.508950	-0.292373	-0.232155
H215	H	1.758950	-0.042373	0.017845
H216	H	2.008950	0.207627	0.267845
H217	H	1.071865	-0.662027	-0.294899
H218	H	1.321865	-0.412027	-0.044899
H219	H	1.571865	-0.162027	0.205101
H220	H	1.821865	0.087973	0.455101
H221	H	1.259143	-0.943213	-0.482244
H222	H	1.509143	-0.693213	-0.232244
H223	H	1.759143	-0.443213	0.017756
H224	H	2.009143	-0.193213	0.267756
H225	H	1.071797	-0.542755	-0.294873
H226	H	1.321797	-0.292755	-0.044873
H227	H	1.571797	-0.042755	0.205127
H228	H	1.821797	0.207245	0.455127
H229	H	1.259189	-1.062477	-0.482276
H230	H	1.509189	-0.812477	-0.232276
H231	H	1.759189	-0.562477	0.017724
H232	H	2.009189	-0.312477	0.267724
H233	H	1.258995	-0.661639	-0.482193
H234	H	1.508995	-0.411639	-0.232193
H235	H	1.758995	-0.161639	0.017807
H236	H	2.008995	0.088361	0.267807
H237	H	1.072053	-1.062865	-0.294983
H238	H	1.322053	-0.812865	-0.044983
H239	H	1.572053	-0.562865	0.205017
H240	H	1.822053	-0.312865	0.455017
H241	H	1.072000	-0.943596	-0.294952
H242	H	1.322000	-0.693596	-0.044952
H243	H	1.572000	-0.443596	0.205048
H244	H	1.822000	-0.193596	0.455048
