data_functionalizedCrystal
_audit_creation_method	'MofGen! by Chris Wilmer'
_symmetry_space_group_name_H-M	'P1'
_symmetry_Int_Tables_number	1
_symmetry_cell_setting	triclinic
loop_
_symmetry_equiv_pos_as_xyz
  x,y,z
_cell_length_a	17.699097
_cell_length_b	26.809956
_cell_length_c	27.732048
_cell_angle_alpha	90.000636
_cell_angle_beta	97.034473
_cell_angle_gamma	89.986911
loop_
_atom_site_label
_atom_site_type_symbol
_atom_site_fract_x
_atom_site_fract_y
_atom_site_fract_z
O1	O	-1.003536	0.041534	0.061149
O2	O	-0.503536	0.541534	0.561149
O3	O	-0.783089	0.041525	0.069095
O4	O	-0.283089	0.541525	0.569095
O5	O	-0.900159	0.041521	-0.005250
O6	O	-0.400159	0.541521	0.494750
O7	O	-0.886466	0.041539	0.135494
O8	O	-0.386466	0.541539	0.635494
O9	O	-0.900137	-0.041439	-0.005238
O10	O	-0.400137	0.458561	0.494762
O11	O	-0.783067	-0.041434	0.069107
O12	O	-0.283067	0.458566	0.569107
O13	O	-1.003514	-0.041425	0.061161
O14	O	-0.503514	0.458575	0.561161
Zn15	Zn	-0.893287	-0.054601	0.065135
Zn16	Zn	-0.393287	0.445399	0.565135
Zn17	Zn	-0.893316	0.054701	0.065121
Zn18	Zn	-0.393316	0.554701	0.565121
O19	O	-0.886444	-0.041420	0.135506
O20	O	-0.386444	0.458580	0.635506
C21	C	-0.754884	0.000044	0.068815
C22	C	-0.254884	0.500044	0.568815
C23	C	-0.670874	0.000040	0.067958
C24	C	-0.170874	0.500040	0.567958
C25	C	-0.155214	0.045277	0.062696
C26	C	0.344786	0.545277	0.562696
C27	C	-0.234151	0.045275	0.063498
C28	C	0.265849	0.545275	0.563498
C29	C	-0.273601	0.000052	0.063906
C30	C	0.226399	0.500052	0.563906
C31	C	-0.234112	-0.045172	0.063507
C32	C	0.265888	0.454828	0.563507
C33	C	-0.155177	-0.045169	0.062702
C34	C	0.344823	0.454831	0.562702
C35	C	-0.552447	-0.045182	0.066756
C36	C	-0.052447	0.454818	0.566756
C37	C	-0.631387	-0.045181	0.067564
C38	C	-0.131387	0.454819	0.567564
C39	C	-0.631421	0.045263	0.067553
C40	C	-0.131421	0.545263	0.567553
C41	C	-0.552487	0.045265	0.066747
C42	C	-0.052487	0.545265	0.566747
C43	C	-0.513004	0.000041	0.066346
C44	C	-0.013004	0.500041	0.566346
C45	C	-0.427412	0.000044	0.065475
C46	C	0.072588	0.500044	0.565475
C47	C	-0.359192	0.000049	0.064781
C48	C	0.140808	0.500049	0.564781
N49	N	-0.893273	-0.129197	0.065145
N50	N	-0.393273	0.370803	0.565145
C51	C	-0.945148	-0.473825	0.032209
C52	C	-0.445148	0.026175	0.532209
C53	C	-0.945166	-0.682703	0.032201
C54	C	-0.445166	-0.182703	0.532201
O55	O	-0.989242	-0.709708	0.004200
O56	O	-0.489242	-0.209708	0.504200
N57	N	-0.893321	-0.708824	0.065110
N58	N	-0.393321	-0.208824	0.565110
C59	C	-0.841463	-0.682723	0.098020
C60	C	-0.341463	-0.182723	0.598020
O61	O	-0.797361	-0.709733	0.126008
O62	O	-0.297361	-0.209733	0.626008
C63	C	-0.841442	-0.473846	0.098025
C64	C	-0.341442	0.026154	0.598025
C65	C	-0.893297	-0.447727	0.065118
C66	C	-0.393297	0.052273	0.565118
C67	C	-0.996998	-0.447707	-0.000696
C68	C	-0.496998	0.052293	0.499304
C69	C	-0.996996	-0.395490	-0.000692
C70	C	-0.496996	0.104510	0.499308
C71	C	-0.945144	-0.369393	0.032217
C72	C	-0.445144	0.130607	0.532217
C73	C	-0.893294	-0.395511	0.065122
C74	C	-0.393294	0.104489	0.565122
C75	C	-0.789582	-0.447746	0.130933
C76	C	-0.289582	0.052254	0.630933
C77	C	-0.789580	-0.395523	0.130930
C78	C	-0.289580	0.104477	0.630930
C79	C	-0.841434	-0.369405	0.098023
C80	C	-0.341434	0.130595	0.598023
C81	C	-0.841440	-0.317197	0.098035
C82	C	-0.341440	0.182803	0.598035
N83	N	-0.893286	-0.291076	0.065126
N84	N	-0.393286	0.208924	0.565126
C85	C	-0.945138	-0.317174	0.032217
C86	C	-0.445138	0.182826	0.532217
C87	C	-0.841479	-0.792386	0.098016
C88	C	-0.341479	-0.292386	0.598016
C89	C	-0.841485	-0.844605	0.098016
C90	C	-0.341485	-0.344605	0.598016
C91	C	-0.945187	-0.844581	0.032196
C92	C	-0.445187	-0.344581	0.532196
C93	C	-0.945184	-0.792362	0.032199
C94	C	-0.445184	-0.292362	0.532199
C95	C	-0.893325	-0.766265	0.065108
C96	C	-0.393325	-0.266265	0.565108
C97	C	-0.945130	-0.207516	0.032228
C98	C	-0.445130	0.292484	0.532228
C99	C	-0.945125	-0.155295	0.032236
C100	C	-0.445125	0.344705	0.532236
C101	C	-0.841420	-0.155323	0.098054
C102	C	-0.341420	0.344677	0.598054
C103	C	-0.841427	-0.207539	0.098048
C104	C	-0.341427	0.292461	0.598048
C105	C	-0.893285	-0.233634	0.065131
C106	C	-0.393285	0.266366	0.565131
O107	O	-0.797382	-0.290159	0.126017
O108	O	-0.297382	0.209841	0.626017
O109	O	-0.989223	-0.290154	0.004227
O110	O	-0.489223	0.209846	0.504227
C111	C	-0.945151	-0.526041	0.032205
C112	C	-0.445151	-0.026041	0.532205
C113	C	-0.893301	-0.552160	0.065110
C114	C	-0.393301	-0.052160	0.565110
C115	C	-0.841449	-0.526062	0.098019
C116	C	-0.341449	-0.026062	0.598019
C117	C	-0.893307	-0.604379	0.065109
C118	C	-0.393307	-0.104379	0.565109
C119	C	-0.945159	-0.630477	0.032200
C120	C	-0.445159	-0.130477	0.532200
C121	C	-0.997005	-0.604355	-0.000708
C122	C	-0.497005	-0.104355	0.499292
C123	C	-0.997002	-0.552139	-0.000704
C124	C	-0.497002	-0.052139	0.499296
C125	C	-0.789604	-0.552184	0.130927
C126	C	-0.289604	-0.052184	0.630927
C127	C	-0.789611	-0.604400	0.130921
C128	C	-0.289611	-0.104400	0.630921
C129	C	-0.841462	-0.630498	0.098012
C130	C	-0.341462	-0.130498	0.598012
C131	C	-0.031720	0.000055	0.061441
C132	C	0.468280	0.500055	0.561441
C133	C	-0.115730	0.000056	0.062298
C134	C	0.384270	0.500056	0.562298
C135	C	-0.899861	0.000040	-0.023252
C136	C	-0.399861	0.500040	0.476748
C137	C	-0.898995	0.000035	-0.076910
C138	C	-0.398995	0.500035	0.423090
N139	N	-0.893337	0.129297	0.065107
N140	N	-0.393337	0.629297	0.565107
C141	C	-0.962727	0.000064	-0.415494
C142	C	-0.462727	0.500064	0.084506
C143	C	-0.959516	0.000070	-0.617165
C144	C	-0.459516	0.500070	-0.117165
O145	O	-1.017794	0.000095	-0.648209
O146	O	-0.517794	0.500095	-0.148209
N147	N	-0.890098	0.000067	-0.636541
N148	N	-0.390098	0.500067	-0.136541
C149	C	-0.821478	0.000065	-0.605495
C150	C	-0.321478	0.500065	-0.105495
O151	O	-0.762361	0.000068	-0.626602
O152	O	-0.262361	0.500068	-0.126602
C153	C	-0.824691	0.000062	-0.403824
C154	C	-0.324691	0.500062	0.096176
C155	C	-0.894113	0.000060	-0.384452
C156	C	-0.394113	0.500060	0.115548
C157	C	-1.032144	0.000062	-0.396121
C158	C	-0.532144	0.500062	0.103879
C159	C	-1.032946	0.000058	-0.345706
C160	C	-0.532946	0.500058	0.154294
C161	C	-0.964331	0.000055	-0.314664
C162	C	-0.464331	0.500055	0.185336
C163	C	-0.894915	0.000056	-0.334037
C164	C	-0.394915	0.500056	0.165963
C165	C	-0.756072	0.000064	-0.372780
C166	C	-0.256072	0.500064	0.127220
C167	C	-0.756881	0.000064	-0.322359
C168	C	-0.256881	0.500064	0.177641
C169	C	-0.826303	0.000063	-0.302987
C170	C	-0.326303	0.500063	0.197013
C171	C	-0.827102	0.000048	-0.252580
C172	C	-0.327102	0.500048	0.247420
N173	N	-0.896520	0.000052	-0.233205
N174	N	-0.396520	0.500052	0.266795
C175	C	-0.965135	0.000055	-0.264247
C176	C	-0.465135	0.500055	0.235753
C177	C	-0.819797	0.000066	-0.711375
C178	C	-0.319797	0.500066	-0.211375
C179	C	-0.818994	0.000066	-0.761792
C180	C	-0.318994	0.500066	-0.261792
C181	C	-0.957032	0.000072	-0.773459
C182	C	-0.457032	0.500072	-0.273459
C183	C	-0.957834	0.000069	-0.723041
C184	C	-0.457834	0.500069	-0.223041
C185	C	-0.889215	0.000069	-0.692000
C186	C	-0.389215	0.500069	-0.192000
C187	C	-0.966814	0.000045	-0.158372
C188	C	-0.466814	0.500045	0.341628
C189	C	-0.967610	0.000039	-0.107952
C190	C	-0.467610	0.500039	0.392048
C191	C	-0.829573	0.000035	-0.096289
C192	C	-0.329573	0.500035	0.403711
C193	C	-0.828776	0.000039	-0.146705
C194	C	-0.328776	0.500039	0.353295
C195	C	-0.897403	0.000046	-0.177745
C196	C	-0.397403	0.500046	0.322255
O197	O	-0.768855	0.000030	-0.221508
O198	O	-0.268855	0.500030	0.278492
O199	O	-1.024244	0.000063	-0.243130
O200	O	-0.524244	0.500063	0.256870
C201	C	-0.961925	0.000068	-0.465909
C202	C	-0.461925	0.500068	0.034091
C203	C	-0.892509	0.000069	-0.485282
C204	C	-0.392509	0.500069	0.014718
C205	C	-0.823894	0.000066	-0.454240
C206	C	-0.323894	0.500066	0.045760
C207	C	-0.891705	0.000069	-0.535699
C208	C	-0.391705	0.500069	-0.035699
C209	C	-0.960320	0.000072	-0.566741
C210	C	-0.460320	0.500072	-0.066741
C211	C	-1.029738	0.000076	-0.547365
C212	C	-0.529738	0.500076	-0.047365
C213	C	-1.030540	0.000071	-0.496951
C214	C	-0.530540	0.500071	0.003049
C215	C	-0.754476	0.000063	-0.473615
C216	C	-0.254476	0.500063	0.026385
C217	C	-0.753680	0.000066	-0.524031
C218	C	-0.253680	0.500066	-0.024031
C219	C	-0.822294	0.000070	-0.555073
C220	C	-0.322294	0.500070	-0.055073
C221	C	-0.886743	0.000062	0.153508
C222	C	-0.386743	0.500062	0.653508
C223	C	-0.887608	0.000069	0.207166
C224	C	-0.387608	0.500069	0.707166
H225	H	-0.520312	-0.082006	0.066422
H226	H	-0.020312	0.417994	0.566422
O227	O	-0.785541	-0.764242	0.133512
O228	O	-0.285541	-0.264242	0.633512
H229	H	-0.817116	-0.740440	0.156981
H230	H	-0.317116	-0.240440	0.656981
O231	O	-1.001043	-0.127123	-0.003266
O232	O	-0.501043	0.372877	0.496734
H233	H	-1.037595	-0.103327	0.017048
H234	H	-0.537595	0.396673	0.517048
H235	H	-0.987408	-0.771099	0.005403
H236	H	-0.487408	-0.271099	0.505403
O237	O	-0.733649	-0.367375	0.166428
O238	O	-0.233649	0.132625	0.666428
H239	H	-0.697601	-0.394313	0.189310
H240	H	-0.197601	0.105687	0.689310
H241	H	-0.698601	0.000061	-0.448345
H242	H	-0.198601	0.500061	0.051655
H243	H	-0.663506	-0.082009	0.067896
H244	H	-0.163506	0.417991	0.567896
H245	H	-0.747386	-0.625662	0.157723
H246	H	-0.247386	-0.125662	0.657723
H247	H	-1.024144	0.000036	-0.092182
H248	H	-0.524144	0.500036	0.407818
H249	H	-1.022697	0.000052	-0.183639
H250	H	-0.522697	0.500052	0.316361
H251	H	-0.697144	0.000064	-0.539798
H252	H	-0.197144	0.500064	-0.039798
H253	H	-0.987356	-0.228756	0.005423
H254	H	-0.487356	0.271244	0.505423
O255	O	-1.052918	-0.523972	-0.036206
O256	O	-0.552918	-0.023972	0.463794
H257	H	-1.089472	-0.500174	-0.015894
H258	H	-0.589472	-0.000174	0.484106
H259	H	-0.266239	-0.081993	0.063837
H260	H	0.233761	0.418007	0.563837
O261	O	-0.755572	0.000031	-0.062801
O262	O	-0.255572	0.500031	0.437199
H263	H	-0.707160	0.000028	-0.084739
H264	H	-0.207160	0.500028	0.415261
H265	H	-0.123029	-0.081993	0.062383
H266	H	0.376971	0.418007	0.562383
H267	H	-0.799210	-0.228805	0.124849
H268	H	-0.299210	0.271195	0.624849
H269	H	-1.039227	-0.625613	-0.027503
H270	H	-0.539227	-0.125613	0.472497
H271	H	-1.087070	0.000070	-0.481183
H272	H	-0.587070	0.500070	0.018817
O273	O	-0.509929	0.094038	0.066306
O274	O	-0.009929	0.594038	0.566306
H275	H	-0.481095	0.096189	0.033007
H276	H	0.018905	0.596189	0.533007
H277	H	-0.799205	-0.134066	0.124850
H278	H	-0.299205	0.365934	0.624850
H279	H	-0.663578	0.082086	0.067878
H280	H	-0.163578	0.582086	0.567878
H281	H	-0.266296	0.082098	0.063819
H282	H	0.233704	0.582098	0.563819
H283	H	-0.987408	-0.865839	0.005401
H284	H	-0.487408	-0.365839	0.505401
O285	O	-1.032710	0.000070	-0.702148
O286	O	-0.532710	0.500070	-0.202148
H287	H	-1.036386	0.033882	-0.679456
H288	H	-0.536386	0.533882	-0.179456
H289	H	-1.089477	0.000059	-0.329938
H290	H	-0.589477	0.500059	0.170062
H291	H	-1.039218	-0.374227	-0.027490
H292	H	-0.539218	0.125773	0.472510
O293	O	-0.733680	-0.524038	0.166427
O294	O	-0.233680	-0.024038	0.666427
H295	H	-0.697638	-0.550979	0.189310
H296	H	-0.197638	-0.050979	0.689310
O297	O	-1.106155	0.000059	-0.429599
O298	O	-0.606155	0.500059	0.070401
H299	H	-1.154552	0.000053	-0.407649
H300	H	-0.654552	0.500053	0.092351
O301	O	-0.744118	0.000061	-0.782686
O302	O	-0.244118	0.500061	-0.282686
H303	H	-0.696545	0.000064	-0.752625
H304	H	-0.196545	0.500064	-0.252625
H305	H	-1.012900	0.000074	-0.798742
H306	H	-0.512900	0.500074	-0.298742
O307	O	-0.745776	0.000060	-0.677902
O308	O	-0.245776	0.500060	-0.177902
H309	H	-0.742832	0.033874	-0.654654
H310	H	-0.242832	0.533874	-0.154654
O311	O	-1.052938	-0.475851	-0.036187
O312	O	-0.552938	0.024149	0.463813
H313	H	-1.088992	-0.448908	-0.059060
H314	H	-0.588992	0.051092	0.440940
H315	H	-0.772247	0.000027	-0.162478
H316	H	-0.272247	0.500027	0.337522
O317	O	-0.681194	0.000067	-0.393667
O318	O	-0.181194	0.500067	0.106333
H319	H	-0.633625	0.000071	-0.363605
H320	H	-0.133625	0.500071	0.136395
O321	O	-0.785582	-0.872774	0.133524
O322	O	-0.285582	-0.372774	0.633524
H323	H	-0.749530	-0.845849	0.156407
H324	H	-0.249530	-0.345849	0.656407
H325	H	-0.747357	-0.469004	0.157729
H326	H	-0.247357	0.030996	0.657729
H327	H	-1.085606	0.000076	-0.572649
H328	H	-0.585606	0.500076	-0.072649
O329	O	-0.112667	0.094053	0.062246
O330	O	0.387333	0.594053	0.562246
H331	H	-0.153390	0.125497	0.062649
H332	H	0.346610	0.625497	0.562649
O333	O	-0.682869	0.000059	-0.288878
O334	O	-0.182869	0.500059	0.211122
H335	H	-0.634466	0.000056	-0.310823
H336	H	-0.134466	0.500056	0.189177
