data_functionalizedCrystal
_audit_creation_method	'MofGen! by Chris Wilmer'
_symmetry_space_group_name_H-M	'P1'
_symmetry_Int_Tables_number	1
_symmetry_cell_setting	triclinic
loop_
_symmetry_equiv_pos_as_xyz
  x,y,z
_cell_length_a	18.215405
_cell_length_b	11.169417
_cell_length_c	11.169409
_cell_angle_alpha	90.021649
_cell_angle_beta	89.960202
_cell_angle_gamma	89.976893
loop_
_atom_site_label
_atom_site_type_symbol
_atom_site_fract_x
_atom_site_fract_y
_atom_site_fract_z
Zn1	Zn	-0.292960	-1.834841	-0.678539
Zn2	Zn	-0.416051	-1.834679	-0.477830
Zn3	Zn	-0.292999	-1.634127	-0.477867
Zn4	Zn	-0.415985	-1.634083	-0.678468
O5	O	-0.354499	-1.734433	-0.578176
O6	O	-0.309299	-2.002769	-0.651928
O7	O	-0.399771	-1.808026	-0.309885
O8	O	-0.190009	-1.660838	-0.504532
O9	O	-0.399733	-2.002651	-0.504468
O10	O	-0.189981	-1.808302	-0.651964
O11	O	-0.309366	-1.660681	-0.309912
O12	O	-0.309302	-1.466171	-0.504463
O13	O	-0.399622	-1.660764	-0.846427
O14	O	-0.399660	-1.466140	-0.651844
O15	O	-0.309235	-1.808260	-0.846479
O16	O	-0.519026	-1.807984	-0.504400
O17	O	-0.518978	-1.660607	-0.651808
C18	C	-0.354479	-1.422608	-0.578151
C19	C	-0.354488	-1.289208	-0.578168
C20	C	-0.545705	-1.734306	-0.578118
C21	C	-0.627504	-1.734362	-0.578134
C22	C	-0.815698	-1.811281	-0.501519
C23	C	-0.892557	-1.811335	-0.501548
C24	C	-0.892547	-1.657738	-0.654919
C25	C	-0.815689	-1.657691	-0.654895
C26	C	-0.777267	-1.734461	-0.578188
C27	C	-0.930983	-1.734561	-0.578241
C28	C	-1.014317	-1.734619	-0.578273
C29	C	-0.693928	-1.734405	-0.578157
C30	C	-0.162546	-1.734593	-0.578260
C31	C	-0.080747	-1.734661	-0.578296
C32	C	-0.354417	-1.734525	-0.891218
C33	C	-0.354382	-1.734564	-1.024619
C34	C	-0.354512	-1.047475	-0.578194
C35	C	-0.354500	-1.180875	-0.578181
C36	C	-0.354527	-1.734410	-0.266351
C37	C	-0.354354	-1.734603	-0.132952
H38	H	-0.784417	-1.873793	-0.439062
H39	H	-0.923840	-1.595233	-0.717368
H40	H	-0.784397	-1.595135	-0.717334
H41	H	-0.923844	-1.873891	-0.439119
