data_functionalizedCrystal
_audit_creation_method	'MofGen! by Chris Wilmer'
_symmetry_space_group_name_H-M	'P1'
_symmetry_Int_Tables_number	1
_symmetry_cell_setting	triclinic
loop_
_symmetry_equiv_pos_as_xyz
  x,y,z
_cell_length_a	11.169417
_cell_length_b	15.297327
_cell_length_c	11.169409
_cell_angle_alpha	80.360209
_cell_angle_beta	90.019513
_cell_angle_gamma	99.707539
loop_
_atom_site_label
_atom_site_type_symbol
_atom_site_fract_x
_atom_site_fract_y
_atom_site_fract_z
Zn1	Zn	1.752168	-0.359055	0.761120
Zn2	Zn	1.717263	-0.509948	0.595144
Zn3	Zn	1.551441	-0.359111	0.560468
Zn4	Zn	1.516684	-0.509875	0.795773
O5	O	1.634389	-0.434497	0.678126
O6	O	1.915486	-0.379078	0.739112
O7	O	1.695205	-0.489993	0.422607
O8	O	1.607222	-0.232859	0.558071
O9	O	1.889842	-0.489939	0.617170
O10	O	1.754695	-0.232818	0.705488
O11	O	1.573376	-0.379174	0.397131
O12	O	1.378883	-0.379103	0.591673
O13	O	1.547983	-0.489815	0.959114
O14	O	1.353347	-0.489869	0.764550
O15	O	1.720993	-0.379008	0.933654
O16	O	1.661503	-0.636183	0.650772
O17	O	1.514138	-0.636130	0.798174
C18	C	1.322567	-0.434485	0.678110
C19	C	1.189164	-0.434502	0.678136
C20	C	1.580293	-0.668890	0.732022
C21	C	1.557261	-0.769164	0.755119
C22	C	1.799502	-1.051806	0.513457
C23	C	1.821141	-0.957593	0.491750
C24	C	1.755174	-0.910481	0.557591
C25	C	1.667561	-0.957591	0.645142
C26	C	1.645913	-1.051813	0.666844
C27	C	1.601585	-0.910488	0.710978
C28	C	1.513973	-0.957598	0.798529
C29	C	1.492329	-1.051811	0.820228
C30	C	1.558297	-1.098923	0.754387
C31	C	1.623233	-0.816267	0.689275
C32	C	1.469645	-0.816274	0.842662
C33	C	1.448005	-0.910486	0.864369
C34	C	1.947429	-0.434510	0.678144
C35	C	2.080827	-0.434516	0.678151
C36	C	1.634505	-0.434397	0.991146
C37	C	1.634554	-0.434355	1.124536
C38	C	1.688729	-0.199190	0.624046
C39	C	1.711885	-0.098915	0.601000
C40	C	1.634359	-0.434532	0.366310
C41	C	1.634601	-0.434321	0.232861
H42	H	1.694567	-0.777918	0.617990
C43	C	1.351624	-0.962319	0.960664
N44	N	1.279027	-1.001361	1.033190
H45	H	1.892473	-0.919240	0.420466
C46	C	1.872043	-1.103635	0.441031
N47	N	1.926682	-1.142674	0.386471
C48	C	1.534493	-1.202563	0.778256
N49	N	1.516563	-1.280626	0.796228
H50	H	1.415925	-0.777916	0.896273
C51	C	1.779003	-0.806844	0.533731
N52	N	1.796965	-0.728781	0.515767
C53	C	1.395942	-1.103629	0.916526
N54	N	1.323343	-1.142657	0.989058
