data_functionalizedCrystal
_audit_creation_method	'MofGen! by Chris Wilmer'
_symmetry_space_group_name_H-M	'P1'
_symmetry_Int_Tables_number	1
_symmetry_cell_setting	triclinic
loop_
_symmetry_equiv_pos_as_xyz
  x,y,z
_cell_length_a	19.288867
_cell_length_b	18.366186
_cell_length_c	19.288865
_cell_angle_alpha	89.989632
_cell_angle_beta	96.863342
_cell_angle_gamma	90.007594
loop_
_atom_site_label
_atom_site_type_symbol
_atom_site_fract_x
_atom_site_fract_y
_atom_site_fract_z
O1	O	0.921352	0.060532	-0.086654
O2	O	1.421352	0.560532	0.413346
O3	O	0.719092	0.060541	-0.098341
O4	O	1.219092	0.560541	0.401659
O5	O	0.826066	0.060522	0.008632
O6	O	1.326066	0.560522	0.508632
O7	O	0.814377	0.060551	-0.193628
O8	O	1.314377	0.560551	0.306372
O9	O	0.826048	-0.060578	0.008635
O10	O	1.326048	0.439422	0.508635
O11	O	0.719073	-0.060559	-0.098338
O12	O	1.219073	0.439441	0.401662
O13	O	0.921334	-0.060567	-0.086651
O14	O	1.421334	0.439433	0.413349
Zn15	Zn	0.820200	-0.079790	-0.092494
Zn16	Zn	1.320200	0.420210	0.407506
Zn17	Zn	0.820225	0.079764	-0.092498
Zn18	Zn	1.320225	0.579764	0.407502
O19	O	0.814359	-0.060548	-0.193625
O20	O	1.314359	0.439452	0.306375
C21	C	0.693206	-0.000008	-0.097964
C22	C	1.193206	0.499992	0.402036
C23	C	0.616102	-0.000006	-0.096834
C24	C	1.116102	0.499994	0.403166
N25	N	0.820189	-0.188681	-0.092491
N26	N	1.320189	0.311319	0.407509
C27	C	0.060547	0.065996	-0.088699
C28	C	0.560547	0.565996	0.411301
C29	C	0.132995	0.065999	-0.089757
C30	C	0.632995	0.565999	0.410243
C31	C	0.169213	-0.000012	-0.090287
C32	C	0.669213	0.499988	0.409713
C33	C	0.132981	-0.066031	-0.089742
C34	C	0.632981	0.433969	0.410258
C35	C	0.060535	-0.066032	-0.088678
C36	C	0.560535	0.433968	0.411322
C37	C	0.278533	-0.050579	-0.132653
C38	C	0.778533	0.449421	0.367347
C39	C	0.350976	-0.050575	-0.133722
C40	C	0.850976	0.449425	0.366278
C41	C	0.392659	-0.000012	-0.093566
C42	C	0.892659	0.499988	0.406434
C43	C	0.361888	0.050560	-0.052351
C44	C	0.861888	0.550560	0.447649
C45	C	0.289443	0.050559	-0.051287
C46	C	0.789443	0.550559	0.448713
C47	C	0.247768	-0.000019	-0.091440
C48	C	0.747768	0.499981	0.408560
C49	C	0.507439	0.066006	-0.095252
C50	C	1.007439	0.566006	0.404748
C51	C	0.579889	0.066006	-0.096305
C52	C	1.079889	0.566006	0.403695
C53	C	0.579872	-0.066026	-0.096297
C54	C	1.079872	0.433974	0.403703
C55	C	0.507425	-0.066024	-0.095238
C56	C	1.007425	0.433976	0.404762
C57	C	0.471213	-0.000006	-0.094718
C58	C	0.971213	0.499994	0.405282
C59	C	0.862176	-0.226771	-0.134515
C60	C	1.362176	0.273229	0.365485
C61	C	0.862188	-0.302999	-0.134513
C62	C	1.362188	0.197001	0.365487
C63	C	0.820199	-0.341134	-0.092495
C64	C	1.320199	0.158866	0.407505
C65	C	0.778208	-0.303035	-0.050463
C66	C	1.278208	0.196965	0.449537
C67	C	0.778204	-0.226809	-0.050461
C68	C	1.278204	0.273191	0.449539
C69	C	0.757587	-0.461913	-0.090738
C70	C	1.257587	0.038087	0.409262
C71	C	0.757590	-0.538138	-0.090745
C72	C	1.257590	-0.038138	0.409255
C73	C	0.820214	-0.576241	-0.092498
C74	C	1.320214	-0.076241	0.407502
C75	C	0.882836	-0.538110	-0.094258
C76	C	1.382836	-0.038110	0.405742
C77	C	0.882831	-0.461884	-0.094256
C78	C	1.382831	0.038116	0.405744
C79	C	0.820199	-0.423789	-0.092493
C80	C	1.320199	0.076211	0.407507
C81	C	0.862218	-0.696986	-0.134522
C82	C	1.362218	-0.196986	0.365478
C83	C	0.862230	-0.773215	-0.134515
C84	C	1.362230	-0.273215	0.365485
C85	C	0.778245	-0.773250	-0.050469
C86	C	1.278245	-0.273250	0.449531
C87	C	0.778238	-0.697022	-0.050471
C88	C	1.278238	-0.197022	0.449529
C89	C	0.820224	-0.658895	-0.092502
C90	C	1.320224	-0.158895	0.407498
C91	C	0.947219	-0.000016	-0.087029
C92	C	1.447219	0.499984	0.412971
C93	C	1.024323	-0.000014	-0.088159
C94	C	1.524323	0.499986	0.411841
C95	C	0.825681	-0.000030	0.034510
C96	C	1.325681	0.499970	0.534510
C97	C	0.824552	-0.000036	0.111614
C98	C	1.324552	0.499964	0.611614
N99	N	0.820242	0.188655	-0.092496
N100	N	1.320242	0.688655	0.407504
C101	C	0.814744	0.000005	-0.219503
C102	C	1.314744	0.500005	0.280497
C103	C	0.815873	0.000016	-0.296607
C104	C	1.315873	0.500016	0.203393
C105	C	0.887320	-0.000042	0.156310
C106	C	1.387320	0.499958	0.656310
C107	C	0.886259	-0.000031	0.228757
C108	C	1.386259	0.499969	0.728757
C109	C	0.822427	-0.000028	0.256505
C110	C	1.322427	0.499972	0.756505
C111	C	0.759651	-0.000018	0.211799
C112	C	1.259651	0.499982	0.711799
C113	C	0.760713	-0.000022	0.139354
C114	C	1.260713	0.499978	0.639354
C115	C	0.772241	-0.042444	0.364794
C116	C	1.272241	0.457556	0.864794
C117	C	0.771181	-0.042445	0.437238
C118	C	1.271181	0.457555	0.937238
C119	C	0.819147	-0.000011	0.479951
C120	C	1.319147	0.499989	0.979951
C121	C	0.868185	0.042413	0.450211
C122	C	1.368185	0.542413	0.950211
C123	C	0.869248	0.042408	0.377766
C124	C	1.369248	0.542408	0.877766
C125	C	0.821268	-0.000023	0.335059
C126	C	1.321268	0.499977	0.835059
C127	C	0.880769	-0.000004	0.603202
C128	C	1.380769	0.499996	1.103202
C129	C	0.879706	0.000012	0.675650
C130	C	1.379706	0.500012	1.175650
C131	C	0.753096	0.000018	0.658691
C132	C	1.253096	0.500018	1.158691
C133	C	0.754161	0.000009	0.586245
C134	C	1.254161	0.500009	1.086245
C135	C	0.818000	-0.000005	0.558505
C136	C	1.318000	0.499995	1.058505
H137	H	0.031068	0.119753	-0.088274
H138	H	0.531068	0.619753	0.411726
H139	H	0.701123	0.000024	0.681283
H140	H	1.201123	0.500024	1.181283
C141	C	0.732057	-0.815195	-0.004247
C142	C	1.232057	-0.315195	0.495753
N143	N	0.697268	-0.846791	0.030570
N144	N	1.197268	-0.346791	0.530570
H145	H	0.896427	-0.804227	-0.168734
H146	H	1.396427	-0.304227	0.331266
H147	H	0.744011	-0.195796	-0.016239
H148	H	1.244011	0.304204	0.483761
H149	H	0.031041	-0.119787	-0.088240
H150	H	0.531041	0.380213	0.411760
C151	C	0.172848	0.138618	-0.090359
C152	C	0.672848	0.638618	0.409641
N153	N	0.202864	0.193315	-0.090817
N154	N	0.702864	0.693315	0.409183
C155	C	0.255599	0.106179	-0.005942
C156	C	0.755599	0.606179	0.494058
N157	N	0.230108	0.148069	0.028217
N158	N	0.730108	0.648069	0.528217
H159	H	0.707678	-0.000014	0.234396
H160	H	1.207678	0.499986	0.734396
H161	H	0.706600	-0.569178	-0.089316
H162	H	1.206600	-0.069178	0.410684
C163	C	0.908370	-0.184835	-0.180742
C164	C	1.408370	0.315165	0.319258
N165	N	0.943166	-0.153248	-0.215558
N166	N	1.443166	0.346752	0.284442
H167	H	0.703049	0.000010	0.549852
H168	H	1.203049	0.500010	1.049852
C169	C	0.957544	-0.000052	0.125801
C170	C	1.457544	0.499948	0.625801
N171	N	1.010438	-0.000058	0.102820
N172	N	1.510438	0.499942	0.602820
H173	H	0.930821	0.000011	0.712042
H174	H	1.430821	0.500011	1.212042
H175	H	0.731249	-0.076984	0.461446
H176	H	1.231249	0.423016	0.961446
C177	C	0.619709	-0.138639	-0.096873
C178	C	1.119709	0.361361	0.403127
N179	N	0.649719	-0.193333	-0.097304
N180	N	1.149719	0.306667	0.402696
H181	H	0.937374	-0.000033	0.265155
H182	H	1.437374	0.499967	0.765155
H183	H	0.909174	0.076953	0.353555
H184	H	1.409174	0.576953	0.853555
H185	H	0.733179	-0.077002	0.330022
H186	H	1.233179	0.422998	0.830022
C187	C	0.172820	-0.138643	-0.090345
C188	C	0.672820	0.361357	0.409655
N189	N	0.202826	-0.193337	-0.090804
N190	N	0.702826	0.306663	0.409196
H191	H	0.709598	-0.000017	0.102962
H192	H	1.209598	0.499983	0.602962
C193	C	0.951728	-0.580018	-0.096183
C194	C	1.451728	-0.080018	0.403817
N195	N	1.003616	-0.611587	-0.097634
N196	N	1.503616	-0.111587	0.402366
C197	C	0.908379	-0.344906	-0.180745
C198	C	1.408379	0.155094	0.319255
N199	N	0.943170	-0.376468	-0.215568
N200	N	1.443170	0.123532	0.284432
H201	H	0.744045	-0.666009	-0.016254
H202	H	1.244045	-0.166009	0.483746
C203	C	0.950992	-0.000009	0.572686
C204	C	1.450992	0.499991	1.072686
N205	N	1.003885	-0.000010	0.549704
N206	N	1.503885	0.499990	1.049704
C207	C	0.920950	0.089096	0.497189
C208	C	1.420950	0.589096	0.997189
N209	N	0.960691	0.124256	0.532576
N210	N	1.460691	0.624256	1.032576
C211	C	0.467575	-0.138641	-0.094659
C212	C	0.967575	0.361359	0.405341
N213	N	0.437559	-0.193340	-0.094225
N214	N	0.937559	0.306660	0.405775
C215	C	0.951714	-0.419943	-0.096182
C216	C	1.451714	0.080057	0.403818
N217	N	1.003599	-0.388353	-0.097629
N218	N	1.503599	0.111647	0.402371
H219	H	0.706587	-0.430895	-0.089316
H220	H	1.206587	0.069105	0.410684
C221	C	0.407734	0.106184	-0.008175
C222	C	0.907734	0.606184	0.491825
N223	N	0.442268	0.148079	0.025096
N224	N	0.942268	0.648079	0.525096
H225	H	0.477954	0.119761	-0.094827
H226	H	0.977954	0.619761	0.405173
H227	H	0.376021	-0.091739	-0.167299
H228	H	0.876021	0.408261	0.332701
C229	C	0.619736	0.138626	-0.096892
C230	C	1.119736	0.638626	0.403108
N231	N	0.649751	0.193325	-0.097332
N232	N	1.149751	0.693325	0.402668
H233	H	0.896405	-0.665941	-0.168745
H234	H	1.396405	-0.165941	0.331255
C235	C	0.232689	-0.106211	-0.176826
C236	C	0.732689	0.393789	0.323174
N237	N	0.198160	-0.148112	-0.210095
N238	N	0.698160	0.351888	0.289905
H239	H	0.744021	-0.334090	-0.016251
H240	H	1.244021	0.165910	0.483749
