data_functionalizedCrystal
_audit_creation_method	'MofGen! by Chris Wilmer'
_symmetry_space_group_name_H-M	'P1'
_symmetry_Int_Tables_number	1
_symmetry_cell_setting	triclinic
loop_
_symmetry_equiv_pos_as_xyz
  x,y,z
_cell_length_a	19.805407
_cell_length_b	15.297327
_cell_length_c	19.805398
_cell_angle_alpha	80.352693
_cell_angle_beta	90.013121
_cell_angle_gamma	99.707092
loop_
_atom_site_label
_atom_site_type_symbol
_atom_site_fract_x
_atom_site_fract_y
_atom_site_fract_z
Zn1	Zn	0.988051	-0.359179	0.429335
Zn2	Zn	0.968387	-0.510050	0.335727
Zn3	Zn	0.874875	-0.359207	0.316163
Zn4	Zn	0.855244	-0.510000	0.448867
O5	O	0.921639	-0.434609	0.382523
O6	O	1.080158	-0.379202	0.416931
O7	O	0.955968	-0.490073	0.238420
O8	O	0.906333	-0.232955	0.314814
O9	O	1.065710	-0.490047	0.348158
O10	O	0.989483	-0.232935	0.397960
O11	O	0.887265	-0.379249	0.224046
O12	O	0.777555	-0.379200	0.333753
O13	O	0.872875	-0.489960	0.540989
O14	O	0.763133	-0.489987	0.431251
O15	O	0.970448	-0.379153	0.526638
O16	O	0.936933	-0.636291	0.367097
O17	O	0.853807	-0.636254	0.450221
C18	C	0.745785	-0.434592	0.382499
C19	C	0.670551	-0.434606	0.382508
C20	C	0.627704	-0.492380	0.433216
C21	C	0.557015	-0.492381	0.433225
C22	C	0.529175	-0.434613	0.382524
C23	C	0.572028	-0.376833	0.331813
C24	C	0.642716	-0.376828	0.331807
C25	C	0.286952	-0.376853	0.331838
C26	C	0.216259	-0.376865	0.331847
C27	C	0.201251	-0.492407	0.433257
C28	C	0.271939	-0.492401	0.433250
C29	C	0.314787	-0.434618	0.382542
C30	C	0.391435	-0.434616	0.382533
C31	C	0.452527	-0.434619	0.382529
C32	C	0.891125	-0.669007	0.412916
C33	C	0.878132	-0.769284	0.425942
C34	C	1.014776	-1.051899	0.289662
C35	C	1.026982	-0.957684	0.277421
C36	C	0.989771	-0.910580	0.314550
C37	C	0.940351	-0.957699	0.363922
C38	C	0.928139	-1.051923	0.376161
C39	C	0.903135	-0.910604	0.401049
C40	C	0.853714	-0.957723	0.450421
C41	C	0.841505	-1.051938	0.462658
C42	C	0.878717	-1.099043	0.425529
C43	C	0.915346	-0.816379	0.388810
C44	C	0.828710	-0.816403	0.475309
C45	C	0.816503	-0.910618	0.487550
C46	C	1.098179	-0.434627	0.382548
C47	C	1.173410	-0.434635	0.382558
C48	C	0.921665	-0.434548	0.559058
C49	C	0.921676	-0.434522	0.634287
C50	C	0.952291	-0.199295	0.352026
C51	C	0.965353	-0.099019	0.339030
C52	C	0.921660	-0.434605	0.206667
C53	C	0.921814	-0.434377	0.131405
C54	C	0.957575	-0.492085	1.103541
C55	C	0.957553	-0.492109	1.032856
C56	C	0.921773	-0.434420	0.990035
C57	C	0.886007	-0.376709	1.017904
C58	C	0.886026	-0.376690	1.088589
C59	C	0.885932	-0.376787	0.732841
C60	C	0.885918	-0.376809	0.662151
C61	C	0.957459	-0.492206	0.677108
C62	C	0.957478	-0.492186	0.747792
C63	C	0.921709	-0.434479	0.775656
C64	C	0.921732	-0.434455	0.852301
C65	C	0.921754	-0.434440	0.913391
H66	H	0.166356	-0.539453	0.474548
H67	H	0.856906	-0.329697	1.111274
H68	H	0.321830	-0.329809	0.290544
Cl69	Cl	0.181261	-0.304235	0.268104
Cl70	Cl	0.841038	-0.304173	0.964071
H71	H	0.522131	-0.539427	0.474516
Cl72	Cl	1.002424	-0.564756	0.642076
Cl73	Cl	0.696582	-0.304192	0.268058
Cl74	Cl	0.779374	-1.111172	0.524723
H75	H	0.955584	-0.778023	0.348611
Cl76	Cl	1.002514	-0.564658	0.997830
Cl77	Cl	0.754377	-0.969865	0.549616
Cl78	Cl	0.840930	-0.304281	0.767865
H79	H	0.650365	-0.539424	0.474501
H80	H	0.856780	-0.329829	0.627288
H81	H	0.549356	-0.329793	0.290533
Cl82	Cl	1.089114	-0.898455	0.215362
Cl83	Cl	0.306934	-0.565030	0.496990
Cl84	Cl	1.005303	-0.792137	0.299346
Cl85	Cl	1.061547	-1.111120	0.242990
H86	H	0.868782	-1.175760	0.435494
Cl87	Cl	0.781923	-0.757193	0.521985
Cl88	Cl	1.002461	-0.564712	0.801620
Cl89	Cl	1.002563	-0.564607	1.157366
