data_functionalizedCrystal
_audit_creation_method	'MofGen! by Chris Wilmer'
_symmetry_space_group_name_H-M	'P1'
_symmetry_Int_Tables_number	1
_symmetry_cell_setting	triclinic
loop_
_symmetry_equiv_pos_as_xyz
  x,y,z
_cell_length_a	6.817900
_cell_length_b	17.253917
_cell_length_c	12.200737
_cell_angle_alpha	97.956418
_cell_angle_beta	107.141108
_cell_angle_gamma	102.659311
loop_
_atom_site_label
_atom_site_type_symbol
_atom_site_fract_x
_atom_site_fract_y
_atom_site_fract_z
V1	V	-4.070518	-0.111488	-0.368568
O2	O	-4.054911	0.005164	-0.350348
O3	O	-4.023936	-0.220875	-0.376823
O4	O	-4.040198	-0.109857	-0.524397
O5	O	-4.038537	-0.106622	-0.201752
V6	V	-4.551568	-0.097525	-0.347306
O7	O	-4.337202	-0.142116	-0.415207
O8	O	-4.735082	-0.066896	-0.300667
O9	O	-4.374944	0.011863	-0.339051
O10	O	-4.684572	-0.214176	-0.365526
O11	O	-4.700946	-0.102390	-0.514122
O12	O	-4.358682	-0.099155	-0.191477
C13	C	-3.868794	-0.247539	-0.373789
C14	C	-3.912115	-0.336965	-0.381577
C15	C	-3.879791	-0.367435	-0.279058
C16	C	-3.920516	-0.451461	-0.286379
C17	C	-3.993550	-0.505016	-0.396221
C18	C	-4.025881	-0.474542	-0.498748
C19	C	-3.985171	-0.390518	-0.491426
C20	C	-4.120967	-0.757553	-0.429507
C21	C	-4.161670	-0.841582	-0.436821
C22	C	-4.056305	-0.818496	-0.224451
C23	C	-4.015587	-0.734470	-0.217138
C24	C	-4.047932	-0.704003	-0.319666
N25	N	-4.035172	-0.590905	-0.403707
N26	N	-4.006324	-0.618117	-0.312179
C27	C	-3.889536	-0.105924	-0.562033
C28	C	-3.946041	-0.105315	-0.689494
C29	C	-3.991927	-0.104819	-0.793007
C30	C	-4.049509	-0.104194	-0.922868
C31	C	-4.193427	0.038523	-0.342082
C32	C	-4.129346	0.127948	-0.334302
C33	C	-4.172685	-0.103091	-0.153836
C34	C	-4.095418	-0.103696	-0.026372
H35	H	-3.820305	-0.323834	-0.189612
N36	N	-4.104710	-0.532302	-0.617225
H37	H	-4.125604	-0.590156	-0.606310
H38	H	-3.996266	-0.519875	-0.658167
H39	H	-4.147281	-0.732757	-0.512991
H40	H	-3.956131	-0.690870	-0.127694
N41	N	-3.885661	-0.484326	-0.175806
H42	H	-3.833206	-0.437649	-0.105111
H43	H	-3.775906	-0.515902	-0.170055
N44	N	-4.021572	-0.851359	-0.113879
H45	H	-4.058492	-0.912715	-0.135181
H46	H	-4.115881	-0.834402	-0.070458
H47	H	-4.221135	-0.885187	-0.526272
N48	N	-4.020042	-0.357650	-0.601999
H49	H	-4.072484	-0.404326	-0.672696
H50	H	-3.881092	-0.320502	-0.599424
