data_functionalizedCrystal
_audit_creation_method	'MofGen! by Chris Wilmer'
_symmetry_space_group_name_H-M	'P1'
_symmetry_Int_Tables_number	1
_symmetry_cell_setting	triclinic
loop_
_symmetry_equiv_pos_as_xyz
  x,y,z
_cell_length_a	21.295417
_cell_length_b	17.077404
_cell_length_c	17.077396
_cell_angle_alpha	89.980301
_cell_angle_beta	90.033192
_cell_angle_gamma	89.972425
loop_
_atom_site_label
_atom_site_type_symbol
_atom_site_fract_x
_atom_site_fract_y
_atom_site_fract_z
Zn1	Zn	-0.250658	-1.200013	0.443821
Zn2	Zn	0.082675	-0.866680	0.777154
Zn3	Zn	0.416008	-0.533346	1.110488
Zn4	Zn	-0.355931	-1.199903	0.312544
Zn5	Zn	-0.022598	-0.866569	0.645878
Zn6	Zn	0.310735	-0.533236	0.979211
Zn7	Zn	-0.250675	-1.068745	0.312569
Zn8	Zn	0.082659	-0.735411	0.645902
Zn9	Zn	0.415992	-0.402078	0.979235
Zn10	Zn	-0.355888	-1.068695	0.443767
Zn11	Zn	-0.022555	-0.735362	0.777101
Zn12	Zn	0.310778	-0.402029	1.110434
O13	O	-0.303288	-1.134339	0.378175
O14	O	0.030045	-0.801006	0.711509
O15	O	0.363378	-0.467672	1.044842
O16	O	-0.264634	-1.309845	0.426419
O17	O	0.068699	-0.976512	0.759753
O18	O	0.402032	-0.643179	1.093086
O19	O	-0.341994	-1.182479	0.202701
O20	O	-0.008661	-0.849145	0.536034
O21	O	0.324673	-0.515812	0.869367
O22	O	-0.162583	-1.086225	0.330012
O23	O	0.170750	-0.752891	0.663345
O24	O	0.504083	-0.419558	0.996679
O25	O	-0.341978	-1.309764	0.329971
O26	O	-0.008645	-0.976431	0.663304
O27	O	0.324689	-0.643098	0.996637
O28	O	-0.162571	-1.182667	0.426443
O29	O	0.170762	-0.849334	0.759776
O30	O	0.504095	-0.516000	1.093109
O31	O	-0.264662	-1.086118	0.202718
O32	O	0.068671	-0.752784	0.536052
O33	O	0.402005	-0.419451	0.869385
O34	O	-0.264620	-0.958891	0.329960
O35	O	0.068713	-0.625558	0.663293
O36	O	0.402046	-0.292225	0.996627
O37	O	-0.341904	-1.086140	0.553622
O38	O	-0.008571	-0.752807	0.886955
O39	O	0.324762	-0.419474	1.220288
O40	O	-0.341920	-0.958855	0.426351
O41	O	-0.008587	-0.625522	0.759685
O42	O	0.324746	-0.292188	1.093018
O43	O	-0.264593	-1.182619	0.553661
O44	O	0.068741	-0.849286	0.886994
O45	O	0.402074	-0.515952	1.220328
O46	O	-0.444015	-1.182431	0.329919
O47	O	-0.110682	-0.849097	0.663252
O48	O	0.222651	-0.515764	0.996585
O49	O	-0.443983	-1.086033	0.426328
O50	O	-0.110650	-0.752700	0.759661
O51	O	0.222683	-0.419367	1.092994
C52	C	-0.303268	-0.930391	0.378153
C53	C	0.030065	-0.597058	0.711486
C54	C	0.363399	-0.263724	1.044820
C55	C	-0.303274	-0.843141	0.378162
C56	C	0.030059	-0.509808	0.711495
C57	C	0.363392	-0.176475	1.044829
C58	C	-0.263073	-0.802194	0.428458
C59	C	0.070261	-0.468861	0.761792
C60	C	0.403594	-0.135527	1.095125
C61	C	-0.263076	-0.720214	0.428460
C62	C	0.070258	-0.386880	0.761794
C63	C	0.403591	-0.053547	1.095127
C64	C	-0.303284	-0.679182	0.378169
C65	C	0.030049	-0.345849	0.711502
C66	C	0.363383	-0.012515	1.044836
C67	C	-0.343487	-0.720135	0.327867
C68	C	-0.010154	-0.386802	0.661200
C69	C	0.323179	-0.053468	0.994534
C70	C	-0.343481	-0.802114	0.327862
C71	C	-0.010147	-0.468780	0.661195
C72	C	0.323186	-0.135447	0.994528
C73	C	-0.343500	-0.549265	0.327882
C74	C	-0.010166	-0.215931	0.661216
C75	C	0.323167	0.117402	0.994549
C76	C	-0.343507	-0.467280	0.327888
C77	C	-0.010174	-0.133947	0.661222
C78	C	0.323159	0.199386	0.994555
C79	C	-0.263094	-0.467365	0.428481
C80	C	0.070239	-0.134031	0.761814
C81	C	0.403572	0.199302	1.095147
C82	C	-0.263088	-0.549344	0.428476
C83	C	0.070246	-0.216010	0.761809
C84	C	0.403579	0.117323	1.095142
C85	C	-0.303292	-0.590291	0.378175
C86	C	0.030041	-0.256958	0.711508
C87	C	0.363374	0.076376	1.044841
C88	C	-0.466840	-1.134236	0.378132
C89	C	-0.133507	-0.800903	0.711465
C90	C	0.199827	-0.467569	1.044799
C91	C	-0.536808	-1.134264	0.378140
C92	C	-0.203475	-0.800931	0.711473
C93	C	0.129859	-0.467597	1.044806
C94	C	-0.569670	-1.184503	0.327991
C95	C	-0.236337	-0.851169	0.661324
C96	C	0.096996	-0.517836	0.994657
C97	C	-0.635413	-1.184539	0.328008
C98	C	-0.302079	-0.851206	0.661342
C99	C	0.031254	-0.517873	0.994675
C100	C	-0.668290	-1.134323	0.378167
C101	C	-0.334957	-0.800990	0.711500
C102	C	-0.001624	-0.467657	1.044833
C103	C	-0.635420	-1.084081	0.428325
C104	C	-0.302087	-0.750748	0.761658
C105	C	0.031246	-0.417414	1.094992
C106	C	-0.569679	-1.084051	0.428312
C107	C	-0.236346	-0.750718	0.761645
C108	C	0.096988	-0.417385	1.094978
N109	N	-0.771553	-1.065655	0.384143
N110	N	-0.438220	-0.732321	0.717477
N111	N	-0.104887	-0.398988	1.050810
N112	N	-0.834005	-1.065685	0.384152
N113	N	-0.500671	-0.732352	0.717485
N114	N	-0.167338	-0.399019	1.050818
C115	C	-0.866365	-1.134411	0.378212
C116	C	-0.533032	-0.801078	0.711545
C117	C	-0.199698	-0.467745	1.044878
N118	N	-0.833915	-1.203107	0.372248
N119	N	-0.500582	-0.869774	0.705581
N120	N	-0.167248	-0.536441	1.038914
N121	N	-0.771458	-1.203076	0.372235
N122	N	-0.438124	-0.869743	0.705569
N123	N	-0.104791	-0.536409	1.038902
C124	C	-0.739576	-1.134350	0.378187
C125	C	-0.406243	-0.801017	0.711521
C126	C	-0.072909	-0.467684	1.044854
C127	C	-0.970513	-1.184694	0.328079
C128	C	-0.637180	-0.851361	0.661413
C129	C	-0.303846	-0.518028	0.994746
C130	C	-1.036257	-1.184732	0.328102
C131	C	-0.702923	-0.851399	0.661436
C132	C	-0.369590	-0.518066	0.994769
C133	C	-1.036263	-1.084267	0.428415
C134	C	-0.702930	-0.750934	0.761748
C135	C	-0.369596	-0.417600	1.095082
C136	C	-0.970520	-1.084236	0.428396
C137	C	-0.637187	-0.750903	0.761729
C138	C	-0.303854	-0.417569	1.095063
C139	C	-0.937649	-1.134448	0.378224
C140	C	-0.604316	-0.801115	0.711557
C141	C	-0.270983	-0.467782	1.044891
C142	C	-0.139098	-1.134464	0.378236
C143	C	0.194235	-0.801130	0.711570
C144	C	0.527569	-0.467797	1.044903
C145	C	-0.069130	-1.134517	0.378262
C146	C	0.264203	-0.801183	0.711595
C147	C	0.597537	-0.467850	1.044929
C148	C	-0.303242	-1.134386	0.582920
C149	C	0.030091	-0.801053	0.916253
C150	C	0.363425	-0.467720	1.249586
C151	C	-0.303222	-1.134407	0.670170
C152	C	0.030111	-0.801073	1.003503
C153	C	0.363445	-0.467740	1.336836
C154	C	-0.303306	-0.339083	0.378192
C155	C	0.030027	-0.005750	0.711526
C156	C	0.363361	0.327583	1.044859
C157	C	-0.303306	-0.426333	0.378185
C158	C	0.030028	-0.093000	0.711518
C159	C	0.363361	0.240334	1.044851
C160	C	-0.303289	-1.134337	0.174228
C161	C	0.030044	-0.801003	0.507561
C162	C	0.363378	-0.467670	0.840894
C163	C	-0.303131	-1.134469	0.086978
C164	C	0.030202	-0.801135	0.420312
C165	C	0.363535	-0.467802	0.753645
C166	C	-0.262962	-1.184645	0.711182
C167	C	0.070371	-0.851312	1.044515
C168	C	0.403704	-0.517978	1.377848
C169	C	-0.262941	-1.184654	0.793162
C170	C	0.070392	-0.851321	1.126495
C171	C	0.403725	-0.517988	1.459829
C172	C	-0.303184	-1.134429	0.834129
C173	C	0.030149	-0.801096	1.167462
C174	C	0.363483	-0.467762	1.500796
C175	C	-0.343445	-1.084185	0.793111
C176	C	-0.010112	-0.750852	1.126445
C177	C	0.323221	-0.417519	1.459778
C178	C	-0.343463	-1.084172	0.711132
C179	C	-0.010129	-0.750839	1.044466
C180	C	0.323204	-0.417506	1.377799
C181	C	-0.343407	-1.084217	0.963982
C182	C	-0.010074	-0.750884	1.297315
C183	C	0.323259	-0.417550	1.630648
C184	C	-0.343391	-1.084231	1.045966
C185	C	-0.010058	-0.750897	1.379300
C186	C	0.323276	-0.417564	1.712633
C187	C	-0.262886	-1.184699	1.046011
C188	C	0.070447	-0.851365	1.379345
C189	C	0.403780	-0.518032	1.712678
C190	C	-0.262904	-1.184686	0.964032
C191	C	0.070430	-0.851353	1.297366
C192	C	0.403763	-0.518019	1.630699
C193	C	-0.303166	-1.134443	0.923020
C194	C	0.030167	-0.801110	1.256353
C195	C	0.363501	-0.467776	1.589687
H196	H	-0.542909	-1.225390	0.287140
H197	H	-0.209575	-0.892057	0.620473
H198	H	0.123758	-0.558724	0.953806
H199	H	-0.230332	-0.835596	0.469414
H200	H	0.103002	-0.502263	0.802747
H201	H	0.436335	-0.168930	1.136080
H202	H	-0.376249	-0.433874	0.286937
H203	H	-0.042916	-0.100541	0.620271
H204	H	0.290418	0.232792	0.953604
H205	H	-0.230350	-0.582750	0.469432
H206	H	0.102983	-0.249416	0.802765
H207	H	0.436317	0.083917	1.136099
H208	H	-0.376237	-0.582602	0.286920
H209	H	-0.042904	-0.249268	0.620253
H210	H	0.290430	0.084065	0.953586
H211	H	-0.230160	-1.225565	0.826550
H212	H	0.103174	-0.892232	1.159884
H213	H	0.436507	-0.558899	1.493217
H214	H	-0.230194	-1.225547	0.677832
H215	H	0.103139	-0.892213	1.011165
H216	H	0.436472	-0.558880	1.344499
H217	H	-0.376209	-1.043288	0.826473
H218	H	-0.042876	-0.709955	1.159807
H219	H	0.290458	-0.376621	1.493140
C220	C	-0.218869	-0.422326	0.483809
C221	C	0.114465	-0.088993	0.817143
C222	C	0.447798	0.244340	1.150476
H223	H	-0.224625	-0.367626	0.476605
H224	H	0.108708	-0.034293	0.809938
H225	H	0.442042	0.299040	1.143272
H226	H	-0.228137	-0.435778	0.536528
H227	H	0.105196	-0.102444	0.869861
H228	H	0.438530	0.230889	1.203195
H229	H	-0.176558	-0.435779	0.472417
H230	H	0.156775	-0.102446	0.805750
H231	H	0.490108	0.230887	1.139083
C232	C	-0.387764	-1.028930	0.666019
C233	C	-0.054430	-0.695597	0.999353
C234	C	0.278903	-0.362263	1.332686
H235	H	-0.411737	-0.999029	0.702157
H236	H	-0.078403	-0.665696	1.035491
H237	H	0.254930	-0.332363	1.368824
H238	H	-0.363700	-0.994736	0.634033
H239	H	-0.030367	-0.661403	0.967366
H240	H	0.302967	-0.328069	1.300700
H241	H	-0.415199	-1.058952	0.634044
H242	H	-0.081866	-0.725619	0.967377
H243	H	0.251467	-0.392286	1.300710
H244	H	-0.230138	-1.225588	0.930679
H245	H	0.103195	-0.892255	1.264012
H246	H	0.436528	-0.558922	1.597346
H247	H	-1.063012	-1.225648	0.287267
H248	H	-0.729679	-0.892314	0.620600
H249	H	-0.396345	-0.558981	0.953934
C250	C	-0.218855	-0.675175	0.483788
C251	C	0.114478	-0.341842	0.817121
C252	C	0.447812	-0.008508	1.150455
H253	H	-0.194913	-0.711353	0.513745
H254	H	0.138420	-0.378020	0.847079
H255	H	0.471754	-0.044687	1.180412
H256	H	-0.191397	-0.643197	0.453828
H257	H	0.141936	-0.309864	0.787161
H258	H	0.475270	0.023469	1.120495
H259	H	-0.242977	-0.643197	0.517938
H260	H	0.090357	-0.309864	0.851271
H261	H	0.423690	0.023470	1.184604
H262	H	-0.230102	-1.225607	1.079407
H263	H	0.103231	-0.892274	1.412740
H264	H	0.436565	-0.558940	1.746074
C265	C	-0.387717	-0.675006	0.272546
C266	C	-0.054384	-0.341672	0.605880
C267	C	0.278949	-0.008339	0.939213
H268	H	-0.411656	-0.711136	0.242586
H269	H	-0.078322	-0.377803	0.575920
H270	H	0.255011	-0.044469	0.909253
H271	H	-0.415179	-0.643026	0.302513
H272	H	-0.081845	-0.309692	0.635846
H273	H	0.251488	0.023641	0.969180
H274	H	-0.363602	-0.643023	0.238399
H275	H	-0.030269	-0.309690	0.571732
H276	H	0.303065	0.023643	0.905066
H277	H	-0.376159	-1.043331	1.079319
H278	H	-0.042825	-0.709998	1.412653
H279	H	0.290508	-0.376664	1.745986
H280	H	-0.376217	-0.835452	0.286905
H281	H	-0.042883	-0.502119	0.620238
H282	H	0.290450	-0.168785	0.953571
C283	C	-1.072420	-1.029034	0.483592
C284	C	-0.739087	-0.695701	0.816925
C285	C	-0.405754	-0.362367	1.150259
H286	H	-1.116281	-1.036244	0.476417
H287	H	-0.782947	-0.702911	0.809750
H288	H	-0.449614	-0.369578	1.143083
H289	H	-1.061605	-1.040488	0.536341
H290	H	-0.728271	-0.707154	0.869674
H291	H	-0.394938	-0.373821	1.203007
H292	H	-1.061691	-0.976290	0.472050
H293	H	-0.728358	-0.642957	0.805383
H294	H	-0.395025	-0.309623	1.138716
H295	H	-0.662174	-1.225453	0.287171
H296	H	-0.328841	-0.892119	0.620505
H297	H	0.004492	-0.558786	0.953838
C298	C	-0.934370	-1.028963	0.483550
C299	C	-0.601037	-0.695629	0.816884
C300	C	-0.267704	-0.362296	1.150217
H301	H	-0.963365	-0.999055	0.513421
H302	H	-0.630032	-0.665722	0.846755
H303	H	-0.296698	-0.332389	1.180088
H304	H	-0.908681	-1.058955	0.517775
H305	H	-0.575348	-0.725622	0.851109
H306	H	-0.242015	-0.392288	1.184442
H307	H	-0.908769	-0.994764	0.453477
H308	H	-0.575435	-0.661431	0.786810
H309	H	-0.242102	-0.328098	1.120144
H310	H	-0.376184	-1.043291	0.930592
H311	H	-0.042850	-0.709958	1.263925
H312	H	0.290483	-0.376625	1.597259
H313	H	-0.662194	-1.043196	0.469166
H314	H	-0.328860	-0.709863	0.802499
H315	H	0.004473	-0.376530	1.135832
H316	H	-0.542922	-1.043140	0.469150
H317	H	-0.209589	-0.709807	0.802483
H318	H	0.123745	-0.376474	1.135816
H319	H	-0.943748	-1.225583	0.287229
H320	H	-0.610415	-0.892250	0.620562
H321	H	-0.277082	-0.558916	0.953895
