data_functionalizedCrystal
_audit_creation_method	'MofGen! by Chris Wilmer'
_symmetry_space_group_name_H-M	'P1'
_symmetry_Int_Tables_number	1
_symmetry_cell_setting	triclinic
loop_
_symmetry_equiv_pos_as_xyz
  x,y,z
_cell_length_a	17.639617
_cell_length_b	21.295417
_cell_length_c	17.640968
_cell_angle_alpha	78.766059
_cell_angle_beta	70.333968
_cell_angle_gamma	101.213894
loop_
_atom_site_label
_atom_site_type_symbol
_atom_site_fract_x
_atom_site_fract_y
_atom_site_fract_z
Zn1	Zn	1.354403	0.083268	-0.721258
Zn2	Zn	1.854403	0.583268	-0.221258
Zn3	Zn	1.326407	-0.048705	-0.583393
Zn4	Zn	1.826407	0.451295	-0.083393
Zn5	Zn	1.188681	0.029917	-0.555520
Zn6	Zn	1.688681	0.529917	-0.055520
Zn7	Zn	1.216497	-0.048643	-0.693275
Zn8	Zn	1.716497	0.451357	-0.193275
O9	O	1.271497	0.003959	-0.638362
O10	O	1.771497	0.503959	-0.138362
O11	O	1.466042	0.088064	-0.726346
O12	O	1.966042	0.588064	-0.226346
O13	O	1.284781	-0.060629	-0.464347
O14	O	1.784781	0.439371	0.035653
O15	O	1.210740	0.125103	-0.577552
O16	O	1.710740	0.625103	-0.077552
O17	O	1.445474	-0.008896	-0.625057
O18	O	1.945474	0.491104	-0.125057
O19	O	1.332494	0.164300	-0.699319
O20	O	1.832494	0.664300	-0.199319
O21	O	1.183594	-0.002865	-0.443869
O22	O	1.683594	0.497135	0.056131
O23	O	1.077018	-0.002806	-0.550418
O24	O	1.577018	0.497194	-0.050418
O25	O	1.258147	-0.008792	-0.812336
O26	O	1.758147	0.491208	-0.312336
O27	O	1.097454	-0.060524	-0.651626
O28	O	1.597454	0.439476	-0.151626
O29	O	1.359466	0.088123	-0.832894
O30	O	1.859466	0.588123	-0.332894
O31	O	1.311752	-0.136805	-0.597923
O32	O	1.811752	0.363195	-0.097923
O33	O	1.231002	-0.136760	-0.678653
O34	O	1.731002	0.363240	-0.178653
C35	C	1.057327	-0.037448	-0.594961
C36	C	1.557327	0.462552	-0.094961
C37	C	0.965707	-0.055174	-0.576414
C38	C	1.465707	0.444826	-0.076414
C39	C	0.717973	0.138672	-0.779467
C40	C	1.217973	0.638672	-0.279467
C41	C	0.631880	0.121997	-0.762022
C42	C	1.131880	0.621997	-0.262022
C43	C	0.610454	0.021137	-0.656398
C44	C	1.110454	0.521137	-0.156398
C45	C	0.696548	0.037802	-0.673837
C46	C	1.196548	0.537802	-0.173837
C47	C	0.750301	0.096570	-0.735371
C48	C	1.250301	0.596570	-0.235371
C49	C	0.728875	-0.004300	-0.629741
C50	C	1.228875	0.495700	-0.129741
C51	C	0.814961	0.012366	-0.647176
C52	C	1.314961	0.512366	-0.147176
C53	C	0.868720	0.071133	-0.708706
C54	C	1.368720	0.571133	-0.208706
C55	C	0.836387	0.113236	-0.752806
C56	C	1.336387	0.613236	-0.252806
C57	C	0.675120	-0.063066	-0.568203
C58	C	1.175120	0.436934	-0.068203
C59	C	0.707447	-0.105167	-0.524107
C60	C	1.207447	0.394833	-0.024107
C61	C	0.793536	-0.088504	-0.541545
C62	C	1.293536	0.411496	-0.041545
C63	C	0.847294	-0.029738	-0.603075
C64	C	1.347294	0.470262	-0.103075
C65	C	0.825868	-0.130608	-0.497445
C66	C	1.325868	0.369392	0.002555
C67	C	0.911954	-0.113942	-0.514880
C68	C	1.411954	0.386058	-0.014880
C69	C	0.933380	-0.013072	-0.620510
C70	C	1.433380	0.486928	-0.120510
C71	C	1.271384	-0.159621	-0.638299
C72	C	1.771384	0.340379	-0.138299
C73	C	1.271416	-0.229581	-0.638314
C74	C	1.771416	0.270419	-0.138314
C75	C	1.334791	-0.241979	-0.701750
C76	C	1.834791	0.258021	-0.201750
C77	C	1.334824	-0.307712	-0.701776
C78	C	1.834824	0.192288	-0.201776
C79	C	1.271488	-0.361045	-0.638354
C80	C	1.771488	0.138955	-0.138354
C81	C	1.208102	-0.348642	-0.574913
C82	C	1.708102	0.151358	-0.074913
C83	C	1.208066	-0.282910	-0.574893
C84	C	1.708066	0.217090	-0.074893
N85	N	1.250671	-0.479474	-0.564958
N86	N	1.750671	0.020526	-0.064958
N87	N	1.250711	-0.541915	-0.564980
N88	N	1.750711	-0.041915	-0.064980
C89	C	1.271592	-0.559094	-0.638411
C90	C	1.771592	-0.059094	-0.138411
N91	N	1.292448	-0.511469	-0.711824
N92	N	1.792448	-0.011469	-0.211824
N93	N	1.292413	-0.449022	-0.711801
N94	N	1.792413	0.050978	-0.211801
C95	C	1.271520	-0.432323	-0.638369
C96	C	1.771520	0.067677	-0.138369
C97	C	1.335007	-0.642766	-0.701880
C98	C	1.835007	-0.142766	-0.201880
C99	C	1.335034	-0.708501	-0.701906
C100	C	1.835034	-0.208501	-0.201906
C101	C	1.208315	-0.749431	-0.575036
C102	C	1.708315	-0.249431	-0.075036
C103	C	1.208284	-0.683696	-0.575016
C104	C	1.708284	-0.183696	-0.075016
C105	C	1.271634	-0.630367	-0.638438
C106	C	1.771634	-0.130367	-0.138438
C107	C	1.486504	0.045528	-0.681932
C108	C	1.986504	0.545528	-0.181932
C109	C	1.578127	0.063242	-0.700499
C110	C	2.078127	0.563242	-0.200499
C111	C	1.315032	0.045624	-0.853360
C112	C	1.815032	0.545624	-0.353360
C113	C	1.333584	0.063379	-0.944979
C114	C	1.833584	0.563379	-0.444979
C115	C	1.271637	0.168186	-0.638447
C116	C	1.771637	0.668186	-0.138447
C117	C	1.271697	0.238170	-0.638484
C118	C	1.771697	0.738170	-0.138484
C119	C	1.130875	-0.130519	-1.192791
C120	C	1.630875	0.369481	-0.692791
C121	C	1.148325	-0.113824	-1.278885
C122	C	1.648325	0.386176	-0.778885
C123	C	1.253819	-0.012915	-1.300281
C124	C	1.753819	0.487085	-0.800281
C125	C	1.236375	-0.029600	-1.214186
C126	C	1.736375	0.470400	-0.714186
C127	C	1.174903	-0.088403	-1.160448
C128	C	1.674903	0.411597	-0.660448
C129	C	1.280403	0.012516	-1.181843
C130	C	1.780403	0.512516	-0.681843
C131	C	1.262964	-0.004169	-1.095757
C132	C	1.762964	0.495831	-0.595757
C133	C	1.201496	-0.062971	-1.042014
C134	C	1.701496	0.437029	-0.542014
C135	C	1.157463	-0.105088	-1.074362
C136	C	1.657463	0.394912	-0.574362
C137	C	1.341879	0.071316	-1.235584
C138	C	1.841879	0.571316	-0.735584
C139	C	1.385907	0.113432	-1.203241
C140	C	1.885907	0.613432	-0.703241
C141	C	1.368464	0.096749	-1.117152
C142	C	1.868464	0.596749	-0.617152
C143	C	1.306996	0.037948	-1.063409
C144	C	1.806996	0.537948	-0.563409
C145	C	1.412496	0.138867	-1.084804
C146	C	1.912496	0.638867	-0.584804
C147	C	1.395057	0.122182	-0.998718
C148	C	1.895057	0.622182	-0.498718
C149	C	1.289556	0.021263	-0.977322
C150	C	1.789556	0.521263	-0.477322
C151	C	1.228179	-0.037488	-0.424209
C152	C	1.728179	0.462512	0.075791
C153	C	1.209786	-0.055035	-0.332623
C154	C	1.709786	0.444965	0.167377
H155	H	0.938815	0.084702	-0.722897
H156	H	1.438815	0.584702	-0.222897
H157	H	1.112468	-0.148124	-1.305214
H158	H	1.612468	0.351876	-0.805214
H159	H	1.386588	-0.599344	-0.753524
H160	H	1.886588	-0.099344	-0.253524
H161	H	1.080799	-0.178391	-1.149030
H162	H	1.580799	0.321609	-0.649030
H163	H	1.430907	0.156477	-0.972384
H164	H	1.930907	0.656477	-0.472384
H165	H	0.977150	0.034782	-0.670620
H166	H	1.477150	0.534782	-0.170620
H167	H	1.156532	-0.392070	-0.523275
H168	H	1.656532	0.107930	-0.023275
H169	H	0.605563	0.156288	-0.797931
H170	H	1.105563	0.656288	-0.297931
H171	H	1.356079	0.084898	-1.305680
H172	H	1.856079	0.584898	-0.805680
H173	H	1.156741	-0.792854	-0.523400
H174	H	1.656741	-0.292854	-0.023400
H175	H	1.462553	0.186741	-1.128571
H176	H	1.962553	0.686741	-0.628571
H177	H	1.156457	-0.272817	-0.523235
H178	H	1.656457	0.227183	-0.023235
H179	H	1.386643	-0.718592	-0.753567
H180	H	1.886643	-0.218592	-0.253567
H181	H	0.880157	0.161090	-0.802916
H182	H	1.380157	0.661090	-0.302916
H183	H	0.761744	0.186526	-0.829578
H184	H	1.261744	0.686526	-0.329578
H185	H	0.566676	-0.026711	-0.606294
H186	H	1.066676	0.473289	-0.106294
H187	H	1.303872	0.034961	-1.344046
H188	H	1.803872	0.534961	-0.844046
H189	H	1.386427	-0.317809	-0.753442
H190	H	1.886427	0.182191	-0.253442
H191	H	1.435960	0.161308	-1.247006
H192	H	1.935960	0.661308	-0.747006
H193	H	1.156681	-0.673602	-0.523358
H194	H	1.656681	-0.173602	-0.023358
H195	H	1.239480	-0.026609	-0.933561
H196	H	1.739480	0.473391	-0.433561
H197	H	0.663670	-0.153015	-0.474003
H198	H	1.163670	0.346985	0.025997
H199	H	0.938275	-0.148226	-0.478973
H200	H	1.438275	0.351774	0.021027
H201	H	1.187301	-0.076557	-0.971918
H202	H	1.687301	0.423443	-0.471918
H203	H	0.605020	-0.076622	-0.553992
H204	H	1.105020	0.423378	-0.053992
H205	H	0.782089	-0.178454	-0.447338
H206	H	1.282089	0.321546	0.052662
H207	H	1.107387	-0.152960	-1.030600
H208	H	1.607387	0.347040	-0.530600
H209	H	1.386373	-0.198560	-0.753393
H210	H	1.886373	0.301440	-0.253393
