data_functionalizedCrystal
_audit_creation_method	'MofGen! by Chris Wilmer'
_symmetry_space_group_name_H-M	'P1'
_symmetry_Int_Tables_number	1
_symmetry_cell_setting	triclinic
loop_
_symmetry_equiv_pos_as_xyz
  x,y,z
_cell_length_a	16.120530
_cell_length_b	29.839131
_cell_length_c	16.120297
_cell_angle_alpha	92.867727
_cell_angle_beta	90.128140
_cell_angle_gamma	87.136742
loop_
_atom_site_label
_atom_site_type_symbol
_atom_site_fract_x
_atom_site_fract_y
_atom_site_fract_z
Zn1	Zn	1.247310	-0.227600	-0.534529
Zn2	Zn	1.580643	0.105734	-0.201195
Zn3	Zn	1.913977	0.439067	0.132138
Zn4	Zn	1.254220	-0.299116	-0.395460
Zn5	Zn	1.587553	0.034217	-0.062126
Zn6	Zn	1.920887	0.367551	0.271207
Zn7	Zn	1.115305	-0.220008	-0.388448
Zn8	Zn	1.448638	0.113325	-0.055115
Zn9	Zn	1.781971	0.446659	0.278219
Zn10	Zn	1.108176	-0.298702	-0.527429
Zn11	Zn	1.441510	0.034631	-0.194096
Zn12	Zn	1.774843	0.367964	0.139237
O13	O	1.181253	-0.261356	-0.461466
O14	O	1.514586	0.071977	-0.128133
O15	O	1.847919	0.405310	0.205200
O16	O	1.364591	-0.240437	-0.521987
O17	O	1.697924	0.092897	-0.188653
O18	O	2.031258	0.426230	0.144680
O19	O	1.241667	-0.285618	-0.278165
O20	O	1.575001	0.047715	0.055169
O21	O	1.908334	0.381048	0.388502
O22	O	1.132907	-0.158152	-0.407863
O23	O	1.466240	0.175182	-0.074529
O24	O	1.799574	0.508515	0.258804
O25	O	1.369668	-0.292979	-0.419813
O26	O	1.703001	0.040354	-0.086480
O27	O	2.036334	0.373687	0.246853
O28	O	1.229891	-0.163729	-0.515187
O29	O	1.563224	0.169604	-0.181854
O30	O	1.896557	0.502938	0.151479
O31	O	1.139607	-0.227498	-0.273013
O32	O	1.472940	0.105835	0.060320
O33	O	1.806274	0.439169	0.393654
O34	O	0.997995	-0.227097	-0.400978
O35	O	1.331328	0.106236	-0.067645
O36	O	1.664661	0.439570	0.265688
O37	O	1.120758	-0.292274	-0.644736
O38	O	1.454091	0.041059	-0.311403
O39	O	1.787425	0.374392	0.021931
O40	O	0.992758	-0.284913	-0.503087
O41	O	1.326091	0.048420	-0.169754
O42	O	1.659424	0.381754	0.163579
O43	O	1.222979	-0.240035	-0.649952
O44	O	1.556312	0.093298	-0.316619
O45	O	1.889645	0.426631	0.016715
O46	O	1.234755	-0.361925	-0.412929
O47	O	1.568089	-0.028591	-0.079596
O48	O	1.901422	0.304742	0.253738
O49	O	1.127458	-0.361621	-0.509886
O50	O	1.460791	-0.028287	-0.176553
O51	O	1.794125	0.305046	0.156780
C52	C	0.965204	-0.255137	-0.450502
C53	C	1.298538	0.078197	-0.117169
C54	C	1.631871	0.411530	0.216165
C55	C	0.872777	-0.252487	-0.445831
C56	C	1.206110	0.080846	-0.112498
C57	C	1.539443	0.414179	0.220835
C58	C	0.703550	-0.247640	-0.437311
C59	C	1.036883	0.085694	-0.103977
C60	C	1.370217	0.419027	0.229356
C61	C	0.659793	-0.275108	-0.485683
C62	C	0.993126	0.058225	-0.152350
C63	C	1.326460	0.391559	0.180984
C64	C	0.565629	-0.272411	-0.480942
C65	C	0.898963	0.060922	-0.147609
C66	C	1.232296	0.394256	0.185725
C67	C	0.797722	-0.250336	-0.442050
C68	C	1.131055	0.082997	-0.108717
C69	C	1.464389	0.416330	0.224616
C70	C	1.181105	-0.378074	-0.461418
C71	C	1.514438	-0.044740	-0.128084
C72	C	1.847771	0.288593	0.205249
C73	C	1.181116	-0.428009	-0.461428
C74	C	1.514449	-0.094675	-0.128095
C75	C	1.847783	0.238658	0.205238
C76	C	1.237215	-0.737807	-0.411063
C77	C	1.570549	-0.404474	-0.077730
C78	C	1.903882	-0.071141	0.255603
C79	C	1.237316	-0.925484	-0.411101
C80	C	1.570650	-0.592151	-0.077767
C81	C	1.903983	-0.258817	0.255566
O82	O	1.284896	-0.949877	-0.368241
O83	O	1.618230	-0.616543	-0.034908
O84	O	1.951563	-0.283210	0.298426
N85	N	1.181422	-0.948805	-0.461538
N86	N	1.514755	-0.615472	-0.128205
N87	N	1.848089	-0.282138	0.205129
C88	C	1.125502	-0.925204	-0.511973
C89	C	1.458835	-0.591871	-0.178640
C90	C	1.792169	-0.258538	0.154693
O91	O	1.077969	-0.949347	-0.554880
O92	O	1.411302	-0.616014	-0.221547
O93	O	1.744635	-0.282680	0.111786
C94	C	1.125406	-0.737528	-0.511940
C95	C	1.458739	-0.404195	-0.178606
C96	C	1.792072	-0.070862	0.154727
C97	C	1.181298	-0.714210	-0.461493
C98	C	1.514631	-0.380876	-0.128160
C99	C	1.847965	-0.047543	0.205174
C100	C	1.293104	-0.714488	-0.360622
C101	C	1.626437	-0.381155	-0.027288
C102	C	1.959770	-0.047822	0.306045
C103	C	1.293075	-0.667572	-0.360609
C104	C	1.626408	-0.334238	-0.027276
C105	C	1.959741	-0.000905	0.306057
C106	C	1.237158	-0.643974	-0.411039
C107	C	1.570491	-0.310641	-0.077706
C108	C	1.903824	0.022693	0.255628
C109	C	1.181269	-0.667293	-0.461481
C110	C	1.514603	-0.333960	-0.128147
C111	C	1.847936	-0.000626	0.205186
C112	C	1.069491	-0.713929	-0.562379
C113	C	1.402824	-0.380595	-0.229045
C114	C	1.736157	-0.047262	0.104288
C115	C	1.069473	-0.667007	-0.562367
C116	C	1.402806	-0.333674	-0.229034
C117	C	1.736139	-0.000340	0.104299
C118	C	1.125365	-0.643688	-0.511921
C119	C	1.458698	-0.310355	-0.178587
C120	C	1.792032	0.022979	0.154746
C121	C	1.125323	-0.596779	-0.511898
C122	C	1.458656	-0.263445	-0.178565
C123	C	1.791990	0.069888	0.154769
N124	N	1.181217	-0.573458	-0.461461
N125	N	1.514551	-0.240124	-0.128128
N126	N	1.847884	0.093209	0.205206
C127	C	1.237135	-0.597055	-0.411031
C128	C	1.570468	-0.263722	-0.077698
C129	C	1.903801	0.069611	0.255635
C130	C	1.125556	-1.023737	-0.511986
C131	C	1.458889	-0.690403	-0.178653
C132	C	1.792222	-0.357070	0.154681
C133	C	1.125579	-1.070655	-0.511994
C134	C	1.458912	-0.737322	-0.178660
C135	C	1.792245	-0.403989	0.154673
C136	C	1.237394	-1.070932	-0.411122
C137	C	1.570727	-0.737599	-0.077789
C138	C	1.904061	-0.404265	0.255545
C139	C	1.237366	-1.024012	-0.411111
C140	C	1.570700	-0.690679	-0.077777
C141	C	1.904033	-0.357346	0.255556
C142	C	1.181450	-1.000416	-0.461549
C143	C	1.514783	-0.667082	-0.128216
C144	C	1.848117	-0.333749	0.205118
C145	C	1.237069	-0.498527	-0.411009
C146	C	1.570403	-0.165194	-0.077676
C147	C	1.903736	0.168139	0.255658
C148	C	1.237033	-0.451606	-0.410999
C149	C	1.570367	-0.118273	-0.077665
C150	C	1.903700	0.215060	0.255668
C151	C	1.125221	-0.451334	-0.511873
C152	C	1.458554	-0.118001	-0.178540
C153	C	1.791888	0.215333	0.154794
C154	C	1.125254	-0.498251	-0.511880
C155	C	1.458587	-0.164917	-0.178547
C156	C	1.791921	0.168416	0.154786
C157	C	1.181185	-0.521846	-0.461446
C158	C	1.514518	-0.188513	-0.128113
C159	C	1.847852	0.144820	0.205221
O160	O	1.077774	-0.572358	-0.554742
O161	O	1.411108	-0.239024	-0.221409
O162	O	1.744441	0.094309	0.111924
O163	O	1.284673	-0.572905	-0.368145
O164	O	1.618007	-0.239572	-0.034811
O165	O	1.951340	0.093761	0.298522
C166	C	1.237244	-0.784724	-0.411076
C167	C	1.570577	-0.451391	-0.077742
C168	C	1.903911	-0.118057	0.255591
C169	C	1.181356	-0.808043	-0.461517
C170	C	1.514689	-0.474709	-0.128184
C171	C	1.848022	-0.141376	0.205149
C172	C	1.125439	-0.784445	-0.511947
C173	C	1.458772	-0.451112	-0.178614
C174	C	1.792105	-0.117778	0.154720
C175	C	1.181379	-0.854961	-0.461525
C176	C	1.514712	-0.521628	-0.128191
C177	C	1.848045	-0.188295	0.205142
C178	C	1.237296	-0.878559	-0.411095
C179	C	1.570629	-0.545226	-0.077762
C180	C	1.903963	-0.211892	0.255571
C181	C	1.293190	-0.855238	-0.360658
C182	C	1.626524	-0.521905	-0.027325
C183	C	1.959857	-0.188571	0.306008
C184	C	1.293161	-0.808322	-0.360646
C185	C	1.626495	-0.474988	-0.027313
C186	C	1.959828	-0.141655	0.306021
C187	C	1.069544	-0.807766	-0.562384
C188	C	1.402878	-0.474433	-0.229051
C189	C	1.736211	-0.141099	0.104283
C190	C	1.069577	-0.854683	-0.562391
C191	C	1.402910	-0.521349	-0.229058
C192	C	1.736244	-0.188016	0.104275
C193	C	1.125494	-0.878280	-0.511962
C194	C	1.458828	-0.544947	-0.178628
C195	C	1.792161	-0.211614	0.154705
C196	C	1.398145	-0.267601	-0.472474
C197	C	1.731478	0.065732	-0.139141
C198	C	2.064812	0.399066	0.194193
C199	C	1.490571	-0.270262	-0.477165
C200	C	1.823905	0.063071	-0.143832
C201	C	2.157238	0.396405	0.189502
C202	C	1.170302	-0.266955	-0.678360
C203	C	1.503636	0.066378	-0.345026
C204	C	1.836969	0.399711	-0.011693
C205	C	1.165636	-0.269341	-0.770787
C206	C	1.498969	0.063992	-0.437453
C207	C	1.832303	0.397325	-0.104120
C208	C	1.181423	-0.144185	-0.461535
C209	C	1.514756	0.189149	-0.128201
C210	C	1.848090	0.522482	0.205132
C211	C	1.181496	-0.094253	-0.461564
C212	C	1.514829	0.239080	-0.128231
C213	C	1.848162	0.572414	0.205103
C214	C	1.157086	-0.273687	-0.940011
C215	C	1.490419	0.059647	-0.606677
C216	C	1.823752	0.392980	-0.273344
C217	C	1.205584	-0.248896	-0.983782
C218	C	1.538917	0.084437	-0.650449
C219	C	1.872250	0.417770	-0.317116
C220	C	1.200826	-0.251314	-1.077944
C221	C	1.534160	0.082019	-0.744611
C222	C	1.867493	0.415352	-0.411278
C223	C	1.161842	-0.271269	-0.845840
C224	C	1.495175	0.062064	-0.512507
C225	C	1.828509	0.395397	-0.179173
C226	C	1.192208	-0.255748	-0.245419
C227	C	1.525542	0.077585	0.087914
C228	C	1.858875	0.410918	0.421247
C229	C	1.197036	-0.253240	-0.153001
C230	C	1.530369	0.080093	0.180332
C231	C	1.863703	0.413426	0.513666
H232	H	0.670294	-0.222100	-0.392340
H233	H	1.003628	0.111234	-0.059007
H234	H	1.336961	0.444567	0.274326
H235	H	1.282547	-0.432622	-0.369916
H236	H	1.615881	-0.099288	-0.036583
H237	H	1.949214	0.234045	0.296750
H238	H	1.111997	-0.296725	-0.973252
H239	H	1.445330	0.036609	-0.639919
H240	H	1.778664	0.369942	-0.306586
H241	H	1.250676	-0.225857	-0.950538
H242	H	1.584009	0.107477	-0.617205
H243	H	1.917343	0.440810	-0.283872
H244	H	1.282615	-0.517733	-0.369942
H245	H	1.615949	-0.184400	-0.036609
H246	H	1.949282	0.148933	0.296724
H247	H	1.338589	-0.648588	-0.319534
H248	H	1.671923	-0.315255	0.013799
H249	H	2.005256	0.018078	0.347133
H250	H	1.338643	-0.733697	-0.319556
H251	H	1.671976	-0.400363	0.013778
H252	H	2.005309	-0.067030	0.347111
H253	H	1.080058	-1.089637	-0.553064
H254	H	1.413391	-0.756304	-0.219731
H255	H	1.746725	-0.422970	0.113603
H256	H	1.282879	-1.005029	-0.370033
H257	H	1.616212	-0.671695	-0.036700
H258	H	1.949546	-0.338362	0.296633
H259	H	0.693051	-0.300650	-0.530658
H260	H	1.026384	0.032684	-0.197324
H261	H	1.359717	0.366017	0.136009
H262	H	1.282924	-1.090153	-0.370061
H263	H	1.616258	-0.756820	-0.036727
H264	H	1.949591	-0.423487	0.296606
H265	H	1.080020	-1.004527	-0.553060
H266	H	1.413353	-0.671194	-0.219727
H267	H	1.746686	-0.337861	0.113607
H268	H	1.023973	-0.732907	-0.603454
H269	H	1.357307	-0.399573	-0.270120
H270	H	1.690640	-0.066240	0.063213
H271	H	1.079744	-0.517238	-0.552961
H272	H	1.413078	-0.183905	-0.219628
H273	H	1.746411	0.149429	0.113706
H274	H	1.023940	-0.647797	-0.603443
H275	H	1.357273	-0.314464	-0.270110
H276	H	1.690606	0.018870	0.063224
H277	H	1.079691	-0.432113	-0.552930
H278	H	1.413025	-0.098780	-0.219596
H279	H	1.746358	0.234553	0.113737
H280	H	1.338674	-0.789339	-0.319568
H281	H	1.672008	-0.456005	0.013765
H282	H	2.005341	-0.122672	0.347099
H283	H	1.024056	-0.873665	-0.603470
H284	H	1.357389	-0.540331	-0.270137
H285	H	1.690722	-0.206998	0.063197
H286	H	1.338718	-0.874459	-0.319594
H287	H	1.672051	-0.541126	0.013739
H288	H	2.005384	-0.207793	0.347073
H289	H	1.024011	-0.788557	-0.603451
H290	H	1.357344	-0.455223	-0.270118
H291	H	1.690677	-0.121890	0.063216
