data_functionalizedCrystal
_audit_creation_method	'MofGen! by Chris Wilmer'
_symmetry_space_group_name_H-M	'P1'
_symmetry_Int_Tables_number	1
_symmetry_cell_setting	triclinic
loop_
_symmetry_equiv_pos_as_xyz
  x,y,z
_cell_length_a	14.044220
_cell_length_b	15.538191
_cell_length_c	14.750779
_cell_angle_alpha	82.427828
_cell_angle_beta	76.182253
_cell_angle_gamma	109.769514
loop_
_atom_site_label
_atom_site_type_symbol
_atom_site_fract_x
_atom_site_fract_y
_atom_site_fract_z
O1	O	-0.272382	-1.206574	-0.079830
O2	O	-0.166009	-0.941253	-0.079832
O3	O	-0.355813	-1.069934	-0.079822
O4	O	-0.082578	-1.077894	-0.079840
O5	O	-0.409464	-1.106310	0.079832
O6	O	-0.219660	-0.977630	0.079821
O7	O	-0.326033	-1.242951	0.079823
Zn8	Zn	-0.281365	-1.116066	0.105171
Zn9	Zn	-0.210677	-1.068138	-0.105179
O10	O	-0.136229	-1.114271	0.079813
C11	C	-0.181705	-0.925281	-0.000006
C12	C	-0.148554	-0.823493	-0.000006
C13	C	-0.416754	-1.084636	0.000005
C14	C	-0.518402	-1.074236	0.000007
C15	C	-0.310337	-1.258923	-0.000005
C16	C	-0.343485	-1.360709	-0.000011
C17	C	-0.704517	-1.055220	-0.000007
C18	C	-0.787527	-1.128978	-0.000010
C19	C	-0.891088	-1.118398	-0.000018
C20	C	-0.600946	-1.065800	0.000000
C21	C	-0.075288	-1.099569	-0.000016
C22	C	0.026362	-1.109967	-0.000024
N23	N	-0.329610	-1.148782	0.248729
C24	C	-0.477901	-0.508030	0.000002
C25	C	-0.446726	-0.412383	-0.000001
C26	C	-0.271379	-0.404671	-0.000013
C27	C	-0.302541	-0.500321	-0.000005
C28	C	-0.405802	-0.551992	0.000001
C29	C	-0.230442	-0.544283	-0.000006
C30	C	-0.261599	-0.639923	-0.000004
C31	C	-0.364855	-0.691600	-0.000000
C32	C	-0.436960	-0.647632	0.000003
C33	C	-0.127179	-0.492608	-0.000020
C34	C	-0.055080	-0.536570	-0.000020
C35	C	-0.086239	-0.632213	-0.000011
C36	C	-0.189495	-0.683891	-0.000008
C37	C	-0.014135	-0.676182	-0.000015
C38	C	-0.045293	-0.771821	-0.000012
C39	C	-0.220653	-0.779531	-0.000005
N40	N	-0.162442	-1.035429	-0.248738
C41	C	-0.027741	-0.944054	0.600530
C42	C	-0.061544	-0.966986	0.701031
C43	C	-0.229579	-1.080962	0.701003
C44	C	-0.195791	-1.058036	0.600500
C45	C	-0.094871	-0.989582	0.550272
C46	C	-0.262921	-1.103564	0.550242
C47	C	-0.229134	-1.080643	0.449748
C48	C	-0.128217	-1.012193	0.399512
C49	C	-0.061084	-0.966661	0.449778
C50	C	-0.363838	-1.172023	0.600472
C51	C	-0.430968	-1.217551	0.550214
C52	C	-0.397185	-1.194625	0.449718
C53	C	-0.296267	-1.126176	0.399482
C54	C	-0.464318	-1.240158	0.399452
C55	C	-0.430530	-1.217236	0.298958
C56	C	-0.262480	-1.103254	0.298988
H57	H	-0.780794	-1.200056	-0.000074
F58	F	-0.713287	-0.962302	-0.000013
F59	F	-0.523476	-0.365602	0.000012
F60	F	-0.330560	-0.834532	0.000012
H61	H	-0.390218	-0.769474	-0.000011
F62	F	-0.546867	-0.702633	0.000021
H63	H	-0.561988	-0.550106	0.000013
F64	F	-0.161482	-0.349668	-0.000025
F65	F	-0.538371	-1.290405	0.603679
F66	F	0.079666	-0.871187	0.547071
F67	F	0.046323	-0.893794	0.396318
F68	F	-0.571716	-1.313018	0.452920
F69	F	0.009918	-0.918523	0.754514
F70	F	-0.094020	-0.390818	-0.000023
F71	F	-0.336981	-1.153817	0.754469
F72	F	0.031443	-0.818612	-0.000015
H73	H	0.028997	-0.494485	-0.000030
H74	H	0.069943	-0.634094	-0.000030
H75	H	-0.180305	-1.047505	0.258090
H76	H	-0.100707	-0.993535	0.317683
F77	F	-0.399790	-1.196418	0.707429
H78	H	-0.485195	-1.254311	0.258037
