data_functionalizedCrystal
_audit_creation_method	'MofGen! by Chris Wilmer'
_symmetry_space_group_name_H-M	'P1'
_symmetry_Int_Tables_number	1
_symmetry_cell_setting	triclinic
loop_
_symmetry_equiv_pos_as_xyz
  x,y,z
_cell_length_a	26.455835
_cell_length_b	26.455273
_cell_length_c	26.451828
_cell_angle_alpha	60.005170
_cell_angle_beta	60.010757
_cell_angle_gamma	59.993435
loop_
_atom_site_label
_atom_site_type_symbol
_atom_site_fract_x
_atom_site_fract_y
_atom_site_fract_z
O1	O	0.069940	-0.738516	0.617604
O2	O	0.026299	-0.574986	0.497618
O3	O	0.129847	-0.678463	0.497546
O4	O	-0.033607	-0.635040	0.617676
O5	O	0.164197	-0.644116	0.531822
O6	O	0.060649	-0.540639	0.531894
O7	O	0.104290	-0.704170	0.651880
Cu8	Cu	0.085606	-0.619268	0.595016
Cu9	Cu	0.044984	-0.659887	0.554481
O10	O	0.000742	-0.600693	0.651952
N11	N	0.114179	-0.590703	0.623530
N12	N	0.016416	-0.688458	0.525968
C13	C	0.157553	-0.547535	0.933368
C14	C	0.424104	-0.547506	0.666656
C15	C	0.157413	-0.547503	0.666729
C16	C	0.157397	-0.280846	0.666749
C17	C	0.200330	-0.409550	0.709625
C18	C	0.200339	-0.504608	0.709615
C19	C	0.224118	-0.480848	0.733375
C20	C	0.327800	-0.462984	0.678792
C21	C	0.392611	-0.484588	0.657175
C22	C	0.392630	-0.589450	0.697162
C23	C	0.327821	-0.567844	0.718781
C24	C	0.215955	-0.377135	0.645910
C25	C	0.194327	-0.312320	0.624323
C26	C	0.141457	-0.312339	0.730169
C27	C	0.163084	-0.377154	0.751756
C28	C	0.136618	-0.488954	0.725292
C29	C	0.115007	-0.510553	0.703686
C30	C	0.220833	-0.563461	0.650740
C31	C	0.242447	-0.541861	0.672339
C32	C	0.136680	-0.488971	0.837094
C33	C	0.115112	-0.510589	0.901907
C34	C	0.220969	-0.563508	0.901868
C35	C	0.242535	-0.541892	0.837053
C36	C	0.200389	-0.504622	0.804668
C37	C	0.295409	-0.504610	0.709593
C38	C	0.132990	-0.570876	1.004655
C39	C	0.495389	-0.570440	0.642547
C40	C	0.132802	-0.570856	0.643399
C41	C	0.133212	-0.209553	0.643833
C42	C	-0.097217	-0.706972	0.506986
C43	C	-0.002040	-0.707108	0.412067
C44	C	-0.002230	-0.802124	0.507163
C45	C	-0.002214	-0.707101	0.507221
C46	C	-0.025925	-0.730827	0.483360
N47	N	0.553723	-0.590712	0.623415
O48	O	0.751638	-0.596429	0.475603
O49	O	0.751819	-0.716773	0.638980
O50	O	0.751753	-0.716500	0.535361
O51	O	0.751705	-0.596703	0.579222
O52	O	0.648791	-0.682239	0.569747
O53	O	0.648858	-0.682512	0.673366
O54	O	0.648676	-0.562169	0.509989
Cu55	Cu	0.639366	-0.619212	0.594817
Cu56	Cu	0.761130	-0.659729	0.554152
O57	O	0.648743	-0.562442	0.613609
N58	N	0.846773	-0.688230	0.525548
N59	N	0.114157	-0.151217	0.623565
O60	O	-0.033591	0.046803	0.617717
O61	O	0.129795	0.046806	0.497390
O62	O	0.026157	0.046789	0.497680
O63	O	0.070046	0.046819	0.617427
O64	O	0.060509	-0.056181	0.532004
O65	O	0.164146	-0.056164	0.531714
O66	O	0.000760	-0.056167	0.652041
Cu67	Cu	0.085590	-0.065568	0.595012
Cu68	Cu	0.044965	0.056206	0.554419
O69	O	0.104397	-0.056151	0.651751
N70	N	0.016390	0.141855	0.525867
N71	N	0.114410	-0.590756	1.062992
O72	O	0.108565	-0.738494	1.260998
O73	O	-0.011747	-0.575059	1.261012
O74	O	-0.011470	-0.678679	1.260970
O75	O	0.108287	-0.634874	1.261040
O76	O	0.022849	-0.644347	1.158004
O77	O	0.022572	-0.540726	1.158046
O78	O	0.142884	-0.704162	1.158033
Cu79	Cu	0.085861	-0.619309	1.148638
Cu80	Cu	0.045275	-0.659911	1.270406
O81	O	0.142606	-0.600541	1.158074
N82	N	0.016726	-0.688471	1.356052
C83	C	0.039385	-0.537207	0.498225
C84	C	0.167616	-0.665350	0.498136
C85	C	0.091204	-0.741950	0.651272
C86	C	-0.037027	-0.613806	0.651361
C87	C	0.700360	-0.716215	0.676756
C88	C	0.700279	-0.715877	0.548436
C89	C	0.700133	-0.562725	0.472214
C90	C	0.700218	-0.563065	0.600533
C91	C	0.167511	-0.004552	0.497940
C92	C	0.039211	-0.004699	0.498341
C93	C	-0.036999	-0.004682	0.651449
C94	C	0.091344	-0.004663	0.651090
C95	C	-0.011156	-0.537302	1.209530
C96	C	-0.010806	-0.665617	1.209458
C97	C	0.142293	-0.741918	1.209514
C98	C	0.141950	-0.613596	1.209563
H99	H	0.102355	-0.458618	0.810728
C100	C	0.026799	-0.473748	0.447312
C101	C	0.009757	-0.414592	0.458663
C102	C	-0.002829	-0.351134	0.407750
C103	C	0.001626	-0.346832	0.345486
C104	C	0.018668	-0.405990	0.334132
C105	C	0.031254	-0.469448	0.385045
H106	H	0.006459	-0.417775	0.504757
H107	H	-0.015445	-0.307341	0.416155
H108	H	-0.007692	-0.299856	0.307797
H109	H	0.021966	-0.402807	0.288038
H110	H	0.043870	-0.513241	0.376640
H111	H	0.700073	-0.524942	0.425295
C112	C	-0.061613	-0.678248	1.209369
C113	C	-0.048930	-0.741732	1.209318
C114	C	-0.099737	-0.754363	1.209229
C115	C	-0.163227	-0.703511	1.209191
C116	C	-0.175913	-0.640023	1.209242
C117	C	-0.125106	-0.627392	1.209331
H118	H	-0.001928	-0.779379	1.209346
H119	H	-0.090345	-0.801361	1.209191
H120	H	-0.200837	-0.712862	1.209125
H121	H	-0.222915	-0.602376	1.209214
H122	H	-0.134497	-0.580394	1.209369
C123	C	-0.062188	-0.473892	1.209535
C124	C	-0.125586	-0.461499	1.209512
C125	C	-0.176617	-0.398089	1.209516
C126	C	-0.164251	-0.347073	1.209543
C127	C	-0.100851	-0.359465	1.209565
C128	C	-0.049819	-0.422875	1.209561
H129	H	-0.134742	-0.499265	1.209493
H130	H	-0.223550	-0.388916	1.209500
H131	H	-0.202028	-0.300133	1.209546
H132	H	-0.091694	-0.321698	1.209585
H133	H	-0.002886	-0.432048	1.209577
C134	C	-0.100387	-0.004681	0.702486
C135	C	-0.151420	-0.004690	0.690126
C136	C	-0.214809	-0.004689	0.741162
C137	C	-0.227164	-0.004678	0.804558
C138	C	-0.176130	-0.004669	0.816921
C139	C	-0.112742	-0.004670	0.765884
H140	H	-0.142275	-0.004698	0.643194
H141	H	-0.252588	-0.004696	0.732010
H142	H	-0.274088	-0.004677	0.842338
H143	H	-0.185275	-0.004660	0.863853
H144	H	-0.074963	-0.004663	0.775036
C145	C	-0.100449	-0.601308	0.702327
C146	C	-0.151416	-0.537869	0.689844
C147	C	-0.214838	-0.525371	0.740810
C148	C	-0.227293	-0.576312	0.804258
C149	C	-0.176325	-0.639756	0.816743
C150	C	-0.112903	-0.652254	0.765778
H151	H	-0.142196	-0.500155	0.642874
H152	H	-0.252567	-0.478406	0.731567
H153	H	-0.274242	-0.567061	0.841986
H154	H	-0.185544	-0.677469	0.863714
H155	H	-0.075173	-0.699219	0.775020
H156	H	0.214562	-0.674609	0.460411
H157	H	0.100739	-0.004653	0.688708
H158	H	0.029814	-0.004702	0.460721
H159	H	0.100526	-0.788925	0.688956
C160	C	0.700301	-0.766721	0.535760
C161	C	0.753808	-0.828982	0.540141
C162	C	0.753830	-0.879826	0.527465
C163	C	0.700346	-0.868408	0.510409
C164	C	0.646835	-0.806144	0.506028
C165	C	0.646813	-0.755300	0.518703
H166	H	0.793404	-0.837437	0.552768
H167	H	0.793443	-0.925918	0.530709
H168	H	0.700362	-0.906046	0.501026
H169	H	0.607239	-0.797689	0.493401
H170	H	0.607200	-0.709208	0.515459
H171	H	0.700405	-0.753994	0.723681
C172	C	0.700197	-0.512222	0.613208
C173	C	0.753622	-0.485545	0.573115
C174	C	0.753601	-0.434702	0.585790
C175	C	0.700156	-0.410536	0.638558
C176	C	0.646728	-0.437213	0.678655
C177	C	0.646748	-0.488056	0.665980
H178	H	0.793189	-0.503434	0.534049
H179	H	0.793153	-0.414953	0.556107
H180	H	0.700141	-0.372899	0.647941
H181	H	0.607161	-0.419324	0.717720
H182	H	0.607196	-0.507804	0.695663
H183	H	0.180068	-0.788855	1.209502
C184	C	0.192781	-0.600941	1.209582
C185	C	0.181337	-0.583857	1.263061
C186	C	0.232167	-0.571202	1.263080
C187	C	0.294442	-0.575631	1.209619
C188	C	0.305889	-0.592717	1.156135
C189	C	0.255058	-0.605372	1.156117
H190	H	0.135235	-0.580577	1.302640
H191	H	0.223693	-0.558554	1.302672
H192	H	0.332070	-0.566263	1.209632
H193	H	0.351991	-0.595997	1.116556
H194	H	0.263532	-0.618019	1.116524
C195	C	0.045026	-0.493360	0.937569
C196	C	-0.001328	-0.452361	0.901942
C197	C	-0.071412	-0.435132	0.937606
C198	C	-0.095142	-0.458903	1.008896
C199	C	-0.048787	-0.499905	1.044527
C200	C	0.021297	-0.517133	1.008863
H201	H	0.016238	-0.434762	0.849165
H202	H	-0.105727	-0.404780	0.911229
H203	H	-0.147023	-0.446149	1.035297
H204	H	-0.066353	-0.517503	1.097304
H205	H	0.055612	-0.547485	1.035240
C206	C	0.267331	-0.604495	0.937487
C207	C	0.337410	-0.621704	0.901816
C208	C	0.383775	-0.662693	0.937435
C209	C	0.360060	-0.686472	1.008726
C210	C	0.289977	-0.669263	1.044401
C211	C	0.243612	-0.628274	1.008782
H212	H	0.354968	-0.604101	0.849039
H213	H	0.435655	-0.675433	0.911026
H214	H	0.394381	-0.716814	1.035093
H215	H	0.272418	-0.686865	1.097178
H216	H	0.191732	-0.615534	1.035191
H217	H	0.150353	-0.403547	0.803641
C218	C	0.292187	-0.613636	0.752662
C219	C	0.247661	-0.620049	0.819693
C220	C	0.212027	-0.665841	0.853575
C221	C	0.220920	-0.705219	0.820427
C222	C	0.265448	-0.698807	0.753393
C223	C	0.301082	-0.653015	0.719510
H224	H	0.241076	-0.590898	0.844234
H225	H	0.179064	-0.670587	0.903198
H226	H	0.194541	-0.739117	0.845509
H227	H	0.272033	-0.727958	0.728851
H228	H	0.334045	-0.648269	0.669887
C229	C	0.312620	-0.559109	0.801385
C230	C	0.342001	-0.507871	0.756826
C231	C	0.412085	-0.525089	0.721160
C232	C	0.452788	-0.593544	0.730052
C233	C	0.423407	-0.644787	0.774613
C234	C	0.353323	-0.627569	0.810279
H235	H	0.311871	-0.457193	0.750242
H236	H	0.433834	-0.487155	0.688173
H237	H	0.504668	-0.606290	0.703649
H238	H	0.453538	-0.695465	0.781197
H239	H	0.331574	-0.665502	0.843266
H240	H	0.214338	-0.004265	0.460069
H241	H	0.102328	-0.458621	0.755642
H242	H	0.255124	-0.593799	0.620395
C243	C	0.044914	-0.493340	0.720929
C244	C	-0.001406	-0.452369	0.761936
C245	C	-0.071499	-0.435157	0.779180
C246	C	-0.095271	-0.458916	0.755417
C247	C	-0.048950	-0.499890	0.714407
C248	C	0.021142	-0.517103	0.697163
H249	H	0.016191	-0.434778	0.779529
H250	H	-0.105789	-0.404825	0.809538
H251	H	-0.147158	-0.446175	0.768182
H252	H	-0.066547	-0.517481	0.696814
H253	H	0.055432	-0.547434	0.666805
H254	H	0.294333	-0.554601	0.659567
H255	H	0.418982	-0.450689	0.632093
C256	C	0.428290	-0.659009	0.707264
C257	C	0.392661	-0.704801	0.741147
C258	C	0.428319	-0.774358	0.751250
C259	C	0.499608	-0.798124	0.727471
C260	C	0.535241	-0.752331	0.693586
C261	C	0.499582	-0.682773	0.683482
H262	H	0.339885	-0.687209	0.758751
H263	H	0.401941	-0.808257	0.776335
H264	H	0.526004	-0.849614	0.734950
H265	H	0.588016	-0.769922	0.675981
H266	H	0.525961	-0.648874	0.658398
C267	C	0.211512	-0.276658	0.554232
C268	C	0.279954	-0.285559	0.513530
C269	C	0.297141	-0.249898	0.443441
C270	C	0.245886	-0.205335	0.414053
C271	C	0.177440	-0.196432	0.454755
C272	C	0.160253	-0.232094	0.524845
H273	H	0.317900	-0.318549	0.535285
H274	H	0.347810	-0.256489	0.413311
H275	H	0.258609	-0.178937	0.362168
H276	H	0.139494	-0.163443	0.433001
H277	H	0.109584	-0.225503	0.554975
C278	C	0.292149	-0.393426	0.668687
C279	C	0.247615	-0.370995	0.724718
C280	C	0.211963	-0.301436	0.714612
C281	C	0.220845	-0.254309	0.648476
C282	C	0.265381	-0.276740	0.592441
C283	C	0.301033	-0.346299	0.602547
H284	H	0.241038	-0.405881	0.773679
H285	H	0.178994	-0.284831	0.756093
H286	H	0.194453	-0.202818	0.640996
H287	H	0.271958	-0.241853	0.543479
H288	H	0.334002	-0.362903	0.561066
C289	C	0.256924	-0.412773	0.599570
C290	C	0.274103	-0.377116	0.529483
C291	C	0.315074	-0.412752	0.483139
C292	C	0.338866	-0.484046	0.506883
C293	C	0.321688	-0.519707	0.576973
C294	C	0.280717	-0.484070	0.623317
H295	H	0.256490	-0.324336	0.511903
H296	H	0.327790	-0.386353	0.431253
H297	H	0.369195	-0.510427	0.472577
H298	H	0.339300	-0.572487	0.594553
H299	H	0.268001	-0.510469	0.675203
H300	H	0.111138	-0.285961	0.764475
