data_functionalizedCrystal
_audit_creation_method	'MofGen! by Chris Wilmer'
_symmetry_space_group_name_H-M	'P1'
_symmetry_Int_Tables_number	1
_symmetry_cell_setting	triclinic
loop_
_symmetry_equiv_pos_as_xyz
  x,y,z
_cell_length_a	16.109301
_cell_length_b	16.109301
_cell_length_c	9.730223
_cell_angle_alpha	89.994178
_cell_angle_beta	89.999073
_cell_angle_gamma	83.461532
loop_
_atom_site_label
_atom_site_type_symbol
_atom_site_fract_x
_atom_site_fract_y
_atom_site_fract_z
O1	O	1.103130	0.106868	-0.114219
O2	O	0.861068	0.120167	-0.114239
O3	O	0.988749	-0.007514	-0.114214
O4	O	0.975450	0.234548	-0.114243
O5	O	0.988741	-0.007517	0.114366
O6	O	0.861060	0.120164	0.114341
O7	O	1.103122	0.106864	0.114361
Zn8	Zn	0.982090	0.113513	0.150643
Zn9	Zn	0.982101	0.113518	-0.150521
O10	O	0.975442	0.234545	0.114337
C11	C	0.830089	0.119627	0.000049
C12	C	0.737794	0.118011	0.000042
C13	C	0.428796	0.188494	0.000057
C14	C	0.515516	0.190020	0.000049
C15	C	0.535389	0.038531	0.000049
C16	C	0.448671	0.037007	0.000047
C17	C	0.395376	0.111991	0.000059
C18	C	0.568815	0.115041	0.000052
C19	C	0.662841	0.116694	0.000043
C20	C	0.301344	0.110338	0.000065
C21	C	0.988206	-0.038490	0.000076
C22	C	0.986591	-0.130785	0.000078
C23	C	1.058599	-0.353058	0.000062
C24	C	1.057075	-0.439778	0.000051
C25	C	0.905586	-0.419904	0.000044
C26	C	0.907111	-0.333185	0.000046
C27	C	0.983620	-0.299765	0.000062
C28	C	0.980571	-0.473204	0.000049
C29	C	0.978918	-0.567230	0.000036
C30	C	0.985273	-0.205733	0.000072
C31	C	1.134101	0.107405	0.000071
C32	C	1.226396	0.109020	0.000069
C33	C	0.975984	0.265522	0.000043
C34	C	0.977599	0.357817	0.000032
N35	N	0.982089	0.113510	0.356180
N36	N	0.982109	0.113515	-0.356057
C37	C	1.038645	0.056997	0.428116
C38	C	1.038653	0.056997	0.571999
C39	C	0.925546	0.170031	0.571996
C40	C	0.925535	0.170026	0.428116
H41	H	0.385405	0.249551	0.000065
O42	O	1.093491	0.001963	0.358329
C43	C	1.142260	-0.142608	0.314503
C44	C	1.080088	-0.080360	0.393572
H45	H	1.131457	-0.209180	0.342989
H46	H	1.132559	-0.133003	0.199285
H47	H	1.208838	-0.131716	0.342772
H48	H	1.013485	-0.091214	0.365418
H49	H	1.089862	-0.089980	0.508771
H50	H	1.120897	-0.325850	0.000073
H51	H	1.084705	0.010978	0.630566
O52	O	1.129986	-0.491428	0.000117
C53	C	1.280403	-0.501983	0.000048
C54	C	1.197889	-0.443395	0.000009
H55	H	1.335324	-0.463172	-0.000068
H56	H	1.283532	-0.543073	0.095727
H57	H	1.283435	-0.543087	-0.095593
H58	H	1.194803	-0.402238	0.095586
H59	H	1.194795	-0.402362	-0.095734
H60	H	0.843295	-0.447126	0.000033
O61	O	0.870502	0.224847	0.641820
C62	C	0.725932	0.273546	0.685812
C63	C	0.788177	0.211406	0.606679
H64	H	0.659358	0.262712	0.657408
H65	H	0.735584	0.263843	0.801020
H66	H	0.736780	0.340135	0.657519
H67	H	0.777367	0.144792	0.634857
H68	H	0.778509	0.221182	0.491490
H69	H	0.542722	0.252317	0.000047
H70	H	0.846050	-0.289791	0.000041
H71	H	0.578792	-0.022518	0.000043
O72	O	0.416340	-0.037386	0.000110
C73	C	0.445195	-0.187482	0.000024
C74	C	0.481922	-0.103297	-0.000007
H75	H	0.498200	-0.240793	-0.000100
H76	H	0.405120	-0.192045	0.095704
H77	H	0.405065	-0.191928	-0.095617
H78	H	0.522089	-0.098794	0.095569
H79	H	0.521949	-0.098771	-0.095750
O80	O	0.870676	0.225043	0.358291
C81	C	0.821872	0.369592	0.314294
C82	C	0.884058	0.307384	0.393429
H83	H	0.832658	0.436178	0.342696
H84	H	0.831575	0.359951	0.199086
H85	H	0.755298	0.358692	0.342587
H86	H	0.950656	0.318246	0.365251
H87	H	0.874282	0.317040	0.508618
