data_functionalizedCrystal
_audit_creation_method	'MofGen! by Chris Wilmer'
_symmetry_space_group_name_H-M	'P1'
_symmetry_Int_Tables_number	1
_symmetry_cell_setting	triclinic
loop_
_symmetry_equiv_pos_as_xyz
  x,y,z
_cell_length_a	15.625020
_cell_length_b	15.538191
_cell_length_c	14.750779
_cell_angle_alpha	82.430615
_cell_angle_beta	85.134135
_cell_angle_gamma	66.738808
loop_
_atom_site_label
_atom_site_type_symbol
_atom_site_fract_x
_atom_site_fract_y
_atom_site_fract_z
O1	O	1.013759	0.233528	-0.432743
O2	O	0.773929	0.226835	-0.349250
O3	O	0.940528	0.097275	-0.407253
O4	O	0.847160	0.363089	-0.374739
O5	O	0.987622	0.060654	-0.263999
O6	O	0.821023	0.190214	-0.205996
O7	O	1.060853	0.196907	-0.289489
Zn8	Zn	0.948415	0.187746	-0.224997
Zn9	Zn	0.886367	0.235996	-0.413741
O10	O	0.894255	0.326468	-0.231485
C11	C	0.767531	0.205197	-0.267198
C12	C	0.678309	0.195271	-0.236137
C13	C	0.578221	0.161319	-0.114276
C14	C	0.662056	0.170649	-0.143471
C15	C	0.610726	0.210568	-0.299644
C16	C	0.526887	0.201237	-0.270463
C17	C	0.510642	0.176613	-0.177777
C18	C	0.459307	0.216532	-0.333964
C19	C	0.375473	0.207206	-0.304783
C20	C	0.359219	0.182586	-0.212101
C21	C	0.426808	0.167288	-0.148596
C22	C	0.475552	0.241162	-0.426648
C23	C	0.407972	0.256457	-0.490149
C24	C	0.324139	0.247125	-0.460970
C25	C	0.307885	0.222504	-0.368288
C26	C	0.256550	0.262423	-0.524475
C27	C	0.172716	0.253097	-0.495294
C28	C	0.224051	0.213179	-0.339107
C29	C	0.973843	0.044753	-0.339030
C30	C	1.002938	-0.057187	-0.349168
C31	C	0.713859	-0.371123	-0.248509
C32	C	0.741222	-0.466915	-0.258033
C33	C	0.895132	-0.475441	-0.311615
C34	C	0.867780	-0.379647	-0.302099
C35	C	0.777143	-0.327495	-0.270545
C36	C	0.931063	-0.336019	-0.324136
C37	C	0.903715	-0.240234	-0.314616
C38	C	0.813082	-0.188077	-0.283061
C39	C	0.749794	-0.231711	-0.261026
C40	C	1.021702	-0.388173	-0.355683
C41	C	1.084986	-0.344545	-0.377720
C42	C	1.057635	-0.248757	-0.368207
C43	C	0.967003	-0.196600	-0.336651
C44	C	1.120924	-0.205123	-0.390242
C45	C	1.093575	-0.109339	-0.380722
C46	C	0.939655	-0.100815	-0.327132
C47	C	1.067250	0.218546	-0.371542
C48	C	1.156471	0.228473	-0.402609
C49	C	0.860939	0.378990	-0.299711
C50	C	0.831841	0.480932	-0.289577
N51	N	0.990768	0.154817	-0.096187
N52	N	0.844023	0.268918	-0.542554
C53	C	0.725751	0.360844	0.347900
C54	C	0.755433	0.337776	0.438065
C55	C	0.902964	0.223098	0.386663
C56	C	0.873293	0.246153	0.296492
C57	C	0.784686	0.315028	0.277118
C58	C	0.932228	0.200337	0.225711
C59	C	0.902560	0.223394	0.135547
C60	C	0.813958	0.292267	0.116165
C61	C	0.755018	0.338085	0.186955
C62	C	1.020838	0.131468	0.245085
C63	C	1.079773	0.085651	0.174304
C64	C	1.050103	0.108703	0.084139
C65	C	0.961500	0.177577	0.064757
C66	C	1.109043	0.062886	0.013349
C67	C	1.079375	0.085943	-0.076814
C68	C	0.931833	0.200634	-0.025406
H69	H	0.717079	0.158198	-0.091753
H70	H	0.623964	0.230621	-0.375109
H71	H	1.044991	0.112701	0.318503
Cl72	Cl	0.253825	0.170867	-0.175414
Cl73	Cl	0.635845	-0.166140	-0.221366
Cl74	Cl	0.776663	0.321258	0.002815
H75	H	0.210819	0.193139	-0.263632
Cl76	Cl	0.087752	0.272329	-0.575125
H77	H	1.151919	0.029575	0.190088
H78	H	1.127367	0.048635	-0.134447
H79	H	0.543813	0.248761	-0.450403
H80	H	0.640051	-0.328657	-0.222821
Cl81	Cl	0.428405	0.287409	-0.606665
H82	H	0.269787	0.282481	-0.599938
H83	H	1.158784	-0.387020	-0.403408
Cl84	Cl	0.825705	-0.035244	-0.287472
H85	H	0.682861	0.394162	0.171184
Cl86	Cl	1.220436	-0.023686	0.037714
Cl87	Cl	0.820432	0.287211	-0.049762
Cl88	Cl	0.778701	-0.067662	-0.271085
H89	H	0.653594	0.416921	0.332128
H90	H	0.689686	-0.502436	-0.240074
H91	H	0.968930	-0.517916	-0.337303
Cl92	Cl	1.056085	-0.508591	-0.367644
H93	H	1.194723	-0.247601	-0.415924
H94	H	1.145108	-0.073816	-0.398665
Cl95	Cl	1.014354	0.136518	0.411025
Cl96	Cl	0.406390	0.136305	-0.032079
Cl97	Cl	0.557803	0.130336	0.002242
Cl98	Cl	0.681330	0.395387	0.527044
