data_functionalizedCrystal
_audit_creation_method	'MofGen! by Chris Wilmer'
_symmetry_space_group_name_H-M	'P1'
_symmetry_Int_Tables_number	1
_symmetry_cell_setting	triclinic
loop_
_symmetry_equiv_pos_as_xyz
  x,y,z
_cell_length_a	19.188905
_cell_length_b	19.188930
_cell_length_c	15.455301
_cell_angle_alpha	93.013164
_cell_angle_beta	93.015694
_cell_angle_gamma	83.139668
loop_
_atom_site_label
_atom_site_type_symbol
_atom_site_fract_x
_atom_site_fract_y
_atom_site_fract_z
O1	O	0.928882	0.089809	0.072285
O2	O	1.262215	0.423142	0.405618
O3	O	1.595548	0.756476	0.738951
O4	O	0.725567	0.101561	0.072256
O5	O	1.058900	0.434894	0.405590
O6	O	1.392233	0.768227	0.738923
O7	O	0.833091	-0.005972	0.072254
O8	O	1.166424	0.327361	0.405588
O9	O	1.499757	0.660695	0.738921
O10	O	0.821358	0.197342	0.072287
O11	O	1.154691	0.530675	0.405620
O12	O	1.488024	0.864008	0.738953
O13	O	0.827642	-0.011413	-0.072010
O14	O	1.160975	0.321920	0.261323
O15	O	1.494308	0.655253	0.594657
O16	O	0.720118	0.096119	-0.072008
O17	O	1.053451	0.429453	0.261325
O18	O	1.386784	0.762786	0.594659
O19	O	0.923433	0.084368	-0.071980
O20	O	1.256766	0.417701	0.261354
O21	O	1.590099	0.751034	0.594687
Cu22	Cu	0.821278	0.089747	-0.085166
Cu23	Cu	1.154611	0.423080	0.248167
Cu24	Cu	1.487944	0.756413	0.581500
Cu25	Cu	0.827722	0.096182	0.085443
Cu26	Cu	1.161055	0.429515	0.418776
Cu27	Cu	1.494388	0.762848	0.752110
O28	O	0.815909	0.191900	-0.071978
O29	O	1.149242	0.525234	0.261356
O30	O	1.482575	0.858567	0.594689
C31	C	0.696831	0.098462	0.000120
C32	C	1.030164	0.431795	0.333454
C33	C	1.363497	0.765129	0.666787
C34	C	0.619325	0.097328	0.000109
C35	C	0.952658	0.430661	0.333442
C36	C	1.285992	0.763995	0.666775
C37	C	0.829986	-0.034704	0.000120
C38	C	1.163319	0.298630	0.333453
C39	C	1.496653	0.631963	0.666786
C40	C	0.828845	-0.112208	0.000112
C41	C	1.162178	0.221125	0.333445
C42	C	1.495512	0.554458	0.666779
C43	C	0.585904	0.099750	0.078749
C44	C	0.919237	0.433083	0.412083
C45	C	1.252570	0.766416	0.745416
C46	C	0.513080	0.098677	0.078760
C47	C	0.846414	0.432010	0.412093
C48	C	1.179747	0.765344	0.745427
C49	C	0.473683	0.095169	0.000126
C50	C	0.807016	0.428502	0.333459
C51	C	1.140350	0.761835	0.666792
C52	C	0.507112	0.092751	-0.078526
C53	C	0.840446	0.426084	0.254808
C54	C	1.173779	0.759417	0.588141
C55	C	0.579933	0.093830	-0.078534
C56	C	0.913267	0.427164	0.254799
C57	C	1.246600	0.760497	0.588133
N58	N	0.362452	0.051532	-0.058401
N59	N	0.695785	0.384866	0.274932
N60	N	1.029119	0.718199	0.608266
N61	N	0.293276	0.050505	-0.058388
N62	N	0.626609	0.383839	0.274946
N63	N	0.959942	0.717172	0.608279
C64	C	0.254277	0.091917	0.000146
C65	C	0.587610	0.425250	0.333479
C66	C	0.920944	0.758583	0.666813
N67	N	0.287070	0.134385	0.058679
N68	N	0.620403	0.467719	0.392012
N69	N	0.953737	0.801052	0.725346
N70	N	0.356253	0.135409	0.058668
N71	N	0.689587	0.468743	0.392002
N72	N	1.022920	0.802076	0.725335
C73	C	0.394720	0.093998	0.000126
C74	C	0.728054	0.427331	0.333459
C75	C	1.061387	0.760664	0.666792
C76	C	0.141892	0.093176	0.078804
C77	C	0.475226	0.426510	0.412137
C78	C	0.808559	0.759843	0.745470
C79	C	0.069067	0.092108	0.078811
C80	C	0.402401	0.425441	0.412144
C81	C	0.735734	0.758775	0.745478
C82	C	0.063101	0.086174	-0.078477
C83	C	0.396435	0.419508	0.254856
C84	C	0.729768	0.752841	0.588190
C85	C	0.135924	0.087250	-0.078482
C86	C	0.469258	0.420583	0.254851
C87	C	0.802591	0.753917	0.588185
C88	C	0.175316	0.090748	0.000161
C89	C	0.508649	0.424081	0.333494
C90	C	0.841983	0.757414	0.666827
C91	C	0.891937	-0.157138	0.000117
C92	C	1.225270	0.176196	0.333450
C93	C	1.558604	0.509529	0.666783
C94	C	0.890866	-0.229961	0.000130
C95	C	1.224199	0.103372	0.333464
C96	C	1.557532	0.436706	0.666797
C97	C	0.826699	-0.257852	0.000122
C98	C	1.160032	0.075481	0.333455
C99	C	1.493365	0.408815	0.666789
C100	C	0.763599	-0.212913	0.000122
C101	C	1.096932	0.120421	0.333456
C102	C	1.430265	0.453754	0.666789
C103	C	0.764672	-0.140091	0.000117
C104	C	1.098005	0.193243	0.333451
C105	C	1.431339	0.526576	0.666784
N106	N	0.775796	-0.367705	-0.048981
N107	N	1.109129	-0.034371	0.284353
N108	N	1.442463	0.298962	0.617686
N109	N	0.774781	-0.436883	-0.048978
N110	N	1.108114	-0.103550	0.284356
N111	N	1.441447	0.229784	0.617689
C112	C	0.823461	-0.477260	0.000139
C113	C	1.156794	-0.143926	0.333473
C114	C	1.490128	0.189407	0.666806
N115	N	0.873205	-0.445847	0.049242
N116	N	1.206539	-0.112513	0.382576
N117	N	1.539872	0.220820	0.715909
N118	N	0.874223	-0.376662	0.049235
N119	N	1.207556	-0.043329	0.382569
N120	N	1.540889	0.290004	0.715902
C121	C	0.825528	-0.336814	0.000128
C122	C	1.158861	-0.003481	0.333462
C123	C	1.492194	0.329852	0.666795
C124	C	0.885396	-0.601153	0.000160
C125	C	1.218729	-0.267820	0.333493
C126	C	1.552062	0.065514	0.666827
C127	C	0.884322	-0.673977	0.000179
C128	C	1.217655	-0.340644	0.333512
C129	C	1.550989	-0.007310	0.666846
C130	C	0.757053	-0.656927	0.000162
C131	C	1.090386	-0.323594	0.333496
C132	C	1.423720	0.009739	0.666829
C133	C	0.758129	-0.584105	0.000152
C134	C	1.091462	-0.250771	0.333485
C135	C	1.424795	0.082562	0.666819
C136	C	0.822302	-0.556222	0.000147
C137	C	1.155635	-0.222889	0.333480
C138	C	1.488969	0.110444	0.666813
C139	C	0.952169	0.087466	0.000158
C140	C	1.285502	0.420800	0.333492
C141	C	1.618835	0.754133	0.666825
C142	C	1.029675	0.088601	0.000176
C143	C	1.363008	0.421934	0.333509
C144	C	1.696341	0.755267	0.666842
C145	C	0.819013	0.220632	0.000159
C146	C	1.152347	0.553965	0.333492
C147	C	1.485680	0.887299	0.666826
C148	C	0.820154	0.298137	0.000172
C149	C	1.153488	0.631470	0.333506
C150	C	1.486821	0.964804	0.666839
N151	N	0.816750	0.085220	-0.205164
N152	N	1.150083	0.418554	0.128170
N153	N	1.483417	0.751887	0.461503
C154	C	0.857253	0.125749	-0.250541
C155	C	1.190586	0.459082	0.082792
C156	C	1.523920	0.792415	0.416125
C157	C	0.853839	0.122321	-0.341351
C158	C	1.187172	0.455654	-0.008017
C159	C	1.520505	0.788988	0.325316
C160	C	0.809917	0.078368	-0.386781
C161	C	1.143250	0.411702	-0.053447
C162	C	1.476583	0.745035	0.279886
C163	C	0.769412	0.037835	-0.341396
C164	C	1.102746	0.371169	-0.008063
C165	C	1.436079	0.704502	0.325270
C166	C	0.772831	0.041260	-0.250589
C167	C	1.106165	0.374593	0.082744
C168	C	1.439498	0.707926	0.416078
C169	C	0.795169	0.063594	-0.658368
C170	C	1.128502	0.396927	-0.325035
C171	C	1.461836	0.730261	0.008299
C172	C	0.791752	0.060174	-0.749182
C173	C	1.125085	0.393508	-0.415849
C174	C	1.458418	0.726841	-0.082515
C175	C	0.876179	0.144659	-0.749130
C176	C	1.209513	0.477993	-0.415796
C177	C	1.542846	0.811326	-0.082463
C178	C	0.879591	0.148083	-0.658320
C179	C	1.212924	0.481416	-0.324987
C180	C	1.546258	0.814750	0.008346
C181	C	0.839089	0.107547	-0.612944
C182	C	1.172423	0.440881	-0.279611
C183	C	1.505756	0.774214	0.053722
N184	N	0.806424	0.074865	-0.479602
N185	N	1.139757	0.408199	-0.146269
N186	N	1.473091	0.741532	0.187064
N187	N	0.842587	0.111047	-0.520124
N188	N	1.175920	0.444380	-0.186791
N189	N	1.509253	0.777714	0.146542
N190	N	0.832255	0.100703	0.205440
N191	N	1.165588	0.434036	0.538774
N192	N	1.498921	0.767369	0.872107
H193	H	0.617972	0.102598	0.142787
H194	H	0.951305	0.435931	0.476120
H195	H	1.284639	0.769264	0.809453
H196	H	0.909154	0.177661	-0.786085
H197	H	1.242487	0.510994	-0.452751
H198	H	1.575820	0.844327	-0.119418
H199	H	0.706752	-0.547522	0.000143
H200	H	1.040086	-0.214189	0.333477
H201	H	1.373419	0.119145	0.666810
Br202	Br	0.972485	-0.563308	0.000144
Br203	Br	1.305818	-0.229975	0.333477
Br204	Br	1.639152	0.103358	0.666811
H205	H	0.944192	-0.134441	0.000115
H206	H	1.277525	0.198892	0.333449
H207	H	1.610858	0.532226	0.666782
Br208	Br	0.740173	0.008610	-0.596797
Br209	Br	1.073507	0.341943	-0.263464
Br210	Br	1.406840	0.675276	0.069869
H211	H	0.893015	0.161544	-0.213559
H212	H	1.226348	0.494877	0.119775
H213	H	1.559681	0.828211	0.453108
H214	H	0.739849	0.008257	-0.213643
H215	H	1.073182	0.341590	0.119690
H216	H	1.406516	0.674924	0.453023
H217	H	0.935701	-0.710558	0.000188
H218	H	1.269035	-0.377225	0.333521
H219	H	1.602368	-0.043892	0.666854
H220	H	0.485863	0.100650	0.142801
H221	H	0.819196	0.433983	0.476134
H222	H	1.152530	0.767317	0.809467
Br223	Br	0.669967	-0.694771	0.000160
Br224	Br	1.003301	-0.361438	0.333493
Br225	Br	1.336634	-0.028104	0.666826
H226	H	0.475030	0.089896	-0.142550
H227	H	0.808363	0.423229	0.190783
H228	H	1.141697	0.756562	0.524116
H229	H	0.733654	0.002044	-0.378393
H230	H	1.066987	0.335378	-0.045059
H231	H	1.400321	0.668711	0.288274
Br232	Br	0.625294	0.090545	-0.185269
Br233	Br	0.958627	0.423878	0.148064
Br234	Br	1.291961	0.757212	0.481398
H235	H	0.755982	0.024383	-0.786168
H236	H	1.089315	0.357716	-0.452835
H237	H	1.422648	0.691049	-0.119502
H238	H	0.886822	0.155322	-0.378293
H239	H	1.220155	0.488656	-0.044960
H240	H	1.553488	0.821989	0.288374
H241	H	0.711353	-0.235626	0.000118
H242	H	1.044687	0.097707	0.333451
H243	H	1.378020	0.431041	0.666784
Br244	Br	0.939166	0.207771	-0.596672
Br245	Br	1.272499	0.541104	-0.263338
Br246	Br	1.605833	0.874437	0.069995
H247	H	0.041857	0.094084	0.142852
H248	H	0.375190	0.427418	0.476186
H249	H	0.708523	0.760751	0.809519
Br250	Br	0.195356	0.097928	0.185530
Br251	Br	0.528690	0.431261	0.518863
Br252	Br	0.862023	0.764595	0.852196
H253	H	0.713293	-0.103508	0.000113
H254	H	1.046627	0.229825	0.333447
H255	H	1.379960	0.563158	0.666780
Br256	Br	0.009640	0.081423	-0.185198
Br257	Br	0.342973	0.414757	0.148136
Br258	Br	0.676307	0.748090	0.481469
H259	H	0.163137	0.085274	-0.142520
H260	H	0.496470	0.418607	0.190813
H261	H	0.829803	0.751940	0.524147
H262	H	0.942244	-0.266549	0.000138
H263	H	1.275578	0.066784	0.333471
H264	H	1.608911	0.400117	0.666804
