data_functionalizedCrystal
_audit_creation_method	'MofGen! by Chris Wilmer'
_symmetry_space_group_name_H-M	'P1'
_symmetry_Int_Tables_number	1
_symmetry_cell_setting	triclinic
loop_
_symmetry_equiv_pos_as_xyz
  x,y,z
_cell_length_a	18.215407
_cell_length_b	16.120484
_cell_length_c	18.215399
_cell_angle_alpha	92.869789
_cell_angle_beta	89.980167
_cell_angle_gamma	92.926015
loop_
_atom_site_label
_atom_site_type_symbol
_atom_site_fract_x
_atom_site_fract_y
_atom_site_fract_z
Zn1	Zn	1.110213	-0.331906	-0.430960
Zn2	Zn	1.103879	-0.471328	-0.314129
Zn3	Zn	0.987144	-0.331934	-0.307908
Zn4	Zn	0.980871	-0.471282	-0.437152
O5	O	1.045527	-0.401612	-0.372537
O6	O	1.212356	-0.350409	-0.415474
O7	O	1.088368	-0.452868	-0.210321
O8	O	1.008745	-0.215264	-0.319037
O9	O	1.207703	-0.452841	-0.329639
O10	O	1.099163	-0.215244	-0.409442
O11	O	1.002604	-0.350456	-0.205751
O12	O	0.883328	-0.350411	-0.325041
O13	O	0.998054	-0.452762	-0.539313
O14	O	0.878719	-0.452789	-0.419995
O15	O	1.093081	-0.350364	-0.534764
O16	O	1.082286	-0.587988	-0.335643
O17	O	0.991913	-0.587954	-0.426027
C18	C	0.854321	-0.401598	-0.372516
C19	C	0.772522	-0.401612	-0.372525
C20	C	0.581943	-0.455004	-0.421912
C21	C	0.505085	-0.455007	-0.421921
C22	C	0.509861	-0.348236	-0.323179
C23	C	0.586719	-0.348229	-0.323174
C24	C	0.622758	-0.401619	-0.372540
C25	C	0.469041	-0.401627	-0.372554
C26	C	0.385708	-0.401630	-0.372564
C27	C	0.706097	-0.401615	-0.372531
C28	C	1.035751	-0.618221	-0.382198
C29	C	1.031637	-0.710887	-0.386356
C30	C	1.024129	-0.880549	-0.393961
C31	C	1.067056	-0.921836	-0.351125
C32	C	1.062879	-1.016241	-0.355357
C33	C	1.028305	-0.786135	-0.389730
C34	C	1.237479	-0.401627	-0.372560
C35	C	1.319277	-0.401634	-0.372569
C36	C	1.045574	-0.401555	-0.564488
C37	C	1.045594	-0.401530	-0.646286
C38	C	1.055360	-0.184158	-0.362855
C39	C	1.059551	-0.091492	-0.358729
C40	C	1.095094	-0.348162	-0.832110
C41	C	1.095104	-0.348138	-0.908967
C42	C	0.996153	-0.454770	-0.913694
C43	C	0.996140	-0.454790	-0.836837
C44	C	1.045615	-0.401487	-0.796047
C45	C	1.045637	-0.401443	-0.949761
C46	C	1.045648	-0.401417	-1.033094
C47	C	1.045603	-0.401511	-0.712709
C48	C	1.045524	-0.401610	-0.181331
C49	C	1.045657	-0.401399	-0.099523
H50	H	0.471857	-0.498478	-0.462126
O51	O	0.976443	-0.922864	-0.441458
C52	C	0.904019	-0.901767	-0.424362
H53	H	0.905253	-0.838539	-0.393295
H54	H	0.871108	-0.898893	-0.477315
H55	H	0.877132	-0.950808	-0.388652
O56	O	1.143174	-0.296302	-0.792596
C57	C	1.186858	-0.249245	-0.840912
H58	H	1.156853	-0.246346	-0.895563
H59	H	1.197671	-0.183563	-0.815785
H60	H	1.241374	-0.279772	-0.850455
H61	H	0.619951	-0.304751	-0.282969
O62	O	1.114743	-0.879462	-0.303658
C63	C	1.187168	-0.900588	-0.320716
H64	H	1.189819	-0.924539	-0.380564
H65	H	1.226014	-0.843240	-0.311885
H66	H	1.204236	-0.951065	-0.283495
H67	H	1.135393	-0.304714	-0.938326
O68	O	0.947999	-0.506463	-0.953281
C69	C	0.875471	-0.488261	-0.933664
H70	H	0.874759	-0.421662	-0.909575
H71	H	0.838797	-0.495432	-0.984520
H72	H	0.854208	-0.532967	-0.891035
O73	O	0.616838	-0.506885	-0.469939
C74	C	0.564328	-0.554017	-0.513507
H75	H	0.511082	-0.519876	-0.514581
H76	H	0.586152	-0.562987	-0.571878
H77	H	0.553289	-0.617300	-0.489294
H78	H	0.955843	-0.498213	-0.807474
H79	H	0.480509	-0.304769	-0.282986
