data_functionalizedCrystal
_audit_creation_method	'MofGen! by Chris Wilmer'
_symmetry_space_group_name_H-M	'P1'
_symmetry_Int_Tables_number	1
_symmetry_cell_setting	triclinic
loop_
_symmetry_equiv_pos_as_xyz
  x,y,z
_cell_length_a	10.654546
_cell_length_b	9.730223
_cell_length_c	10.654554
_cell_angle_alpha	90.001705
_cell_angle_beta	95.514837
_cell_angle_gamma	90.001147
loop_
_atom_site_label
_atom_site_type_symbol
_atom_site_fract_x
_atom_site_fract_y
_atom_site_fract_z
O1	O	1.667839	0.114310	-0.176372
O2	O	1.302361	0.114305	-0.193183
O3	O	1.493500	0.114309	-0.002038
O4	O	1.476700	0.114306	-0.367516
O5	O	1.493498	-0.114271	-0.002043
O6	O	1.302359	-0.114275	-0.193188
O7	O	1.667837	-0.114270	-0.176377
Zn8	Zn	1.485098	-0.150564	-0.184783
Zn9	Zn	1.485100	0.150599	-0.184777
O10	O	1.476698	-0.114274	-0.367521
C11	C	1.255562	0.000015	-0.191952
C12	C	1.116118	0.000013	-0.188262
C13	C	1.050624	0.124618	-0.186513
C14	C	0.919604	0.124629	-0.183035
C15	C	0.919582	-0.124581	-0.183051
C16	C	1.050600	-0.124591	-0.186537
C17	C	1.116143	0.249222	-0.188237
C18	C	1.050649	0.373837	-0.186487
C19	C	0.919629	0.373849	-0.183010
C20	C	0.854101	0.249244	-0.181283
N21	N	1.485105	-0.356101	-0.184787
C22	C	1.569763	-0.428025	-0.100177
C23	C	1.569760	-0.571908	-0.100162
C24	C	1.400436	-0.571930	-0.269377
C25	C	1.400434	-0.428049	-0.269385
C26	C	1.654434	-0.356076	-0.015578
C27	C	1.739100	-0.428001	0.069037
C28	C	1.739097	-0.571884	0.069053
C29	C	1.654427	-0.643842	-0.015548
C30	C	1.714636	0.000023	-0.177608
C31	C	1.854080	0.000034	-0.181298
N32	N	1.485103	0.356136	-0.184763
C33	C	1.492264	0.000022	0.044757
C34	C	1.488570	0.000032	0.184200
C35	C	1.477934	0.000016	-0.414317
C36	C	1.481628	0.000015	-0.553760
C37	C	1.369083	0.000013	0.366760
C38	C	1.372554	0.000027	0.235739
C39	C	1.601123	0.000038	0.263690
C40	C	1.597652	0.000034	0.394709
C41	C	1.253060	-0.000006	0.418291
C42	C	1.140506	-0.000009	0.338810
C43	C	1.143976	0.000005	0.207788
C44	C	1.260000	0.000022	0.156248
H45	H	0.866306	0.475316	-0.181597
F46	F	1.829194	-0.648429	0.159115
H47	H	0.866220	-0.226028	-0.181643
H48	H	1.331496	-0.369488	-0.338281
F49	F	1.249357	-0.000027	0.557734
F50	F	1.654448	-0.202944	-0.015593
F51	F	1.017032	-0.000009	0.393665
H52	H	1.262817	0.000039	0.049561
H53	H	0.747414	0.249263	-0.178465
F54	F	1.724596	0.000052	0.208832
F55	F	1.024189	0.000020	0.123202
F56	F	1.120388	0.506442	-0.188337
H57	H	1.222827	0.249227	-0.191066
F58	F	1.120306	-0.257210	-0.188401
H59	H	1.689296	0.000042	0.459425
H60	H	1.808029	-0.369405	0.137924
H61	H	1.654423	-0.761002	-0.015520
F62	F	1.310333	-0.648517	-0.359411
