data_functionalizedCrystal
_audit_creation_method	'MofGen! by Chris Wilmer'
_symmetry_space_group_name_H-M	'P1'
_symmetry_Int_Tables_number	1
_symmetry_cell_setting	triclinic
loop_
_symmetry_equiv_pos_as_xyz
  x,y,z
_cell_length_a	16.120484
_cell_length_b	16.959455
_cell_length_c	16.959447
_cell_angle_alpha	89.985299
_cell_angle_beta	92.866538
_cell_angle_gamma	92.924951
loop_
_atom_site_label
_atom_site_type_symbol
_atom_site_fract_x
_atom_site_fract_y
_atom_site_fract_z
Zn1	Zn	-0.331903	1.192397	-0.462856
Zn2	Zn	0.001430	1.525730	-0.129523
Zn3	Zn	0.334764	1.859063	0.203810
Zn4	Zn	-0.471331	1.185603	-0.337374
Zn5	Zn	-0.137998	1.518936	-0.004041
Zn6	Zn	0.195335	1.852270	0.329293
Zn7	Zn	-0.331935	1.060223	-0.330695
Zn8	Zn	0.001398	1.393557	0.002639
Zn9	Zn	0.334732	1.726890	0.335972
Zn10	Zn	-0.471275	1.053476	-0.469509
Zn11	Zn	-0.137942	1.386810	-0.136176
Zn12	Zn	0.195392	1.720143	0.197158
O13	O	-0.401611	1.122925	-0.400108
O14	O	-0.068278	1.456258	-0.066775
O15	O	0.265056	1.789591	0.266558
O16	O	-0.350409	1.302106	-0.446222
O17	O	-0.017075	1.635439	-0.112889
O18	O	0.316258	1.968772	0.220445
O19	O	-0.452877	1.168952	-0.225879
O20	O	-0.119544	1.502285	0.107455
O21	O	0.213789	1.835618	0.440788
O22	O	-0.215265	1.083423	-0.342647
O23	O	0.118068	1.416757	-0.009313
O24	O	0.451401	1.750090	0.324020
O25	O	-0.452846	1.297115	-0.354031
O26	O	-0.119513	1.630448	-0.020697
O27	O	0.213821	1.963781	0.312636
O28	O	-0.215242	1.180530	-0.439745
O29	O	0.118092	1.513864	-0.106412
O30	O	0.451425	1.847197	0.226921
O31	O	-0.350463	1.076836	-0.220971
O32	O	-0.017130	1.410169	0.112362
O33	O	0.316203	1.743503	0.445695
O34	O	-0.350409	0.948718	-0.349097
O35	O	-0.017075	1.282051	-0.015764
O36	O	0.316258	1.615385	0.317569
O37	O	-0.452750	1.071924	-0.579236
O38	O	-0.119417	1.405257	-0.245902
O39	O	0.213917	1.738590	0.087431
O40	O	-0.452781	0.943761	-0.451084
O41	O	-0.119448	1.277094	-0.117750
O42	O	0.213885	1.610428	0.215583
O43	O	-0.350354	1.173988	-0.574348
O44	O	-0.017021	1.507321	-0.241015
O45	O	0.316313	1.840655	0.092319
O46	O	-0.587989	1.162409	-0.360481
O47	O	-0.254656	1.495743	-0.027148
O48	O	0.078677	1.829076	0.306185
O49	O	-0.587948	1.065336	-0.457560
O50	O	-0.254615	1.398670	-0.124227
O51	O	0.078719	1.732003	0.209106
C52	C	-0.618219	1.112425	-0.410485
C53	C	-0.284886	1.445758	-0.077151
C54	C	0.048448	1.779092	0.256182
C55	C	-0.710885	1.108005	-0.414950
C56	C	-0.377551	1.441339	-0.081617
C57	C	-0.044218	1.774672	0.251716
C58	C	-0.401593	0.917559	-0.400088
C59	C	-0.068260	1.250893	-0.066755
C60	C	0.265074	1.584226	0.266579
C61	C	-0.401605	0.829702	-0.400099
C62	C	-0.068272	1.163036	-0.066766
C63	C	0.265061	1.496369	0.266568
C64	C	-0.454864	0.785831	-0.352024
C65	C	-0.121531	1.119165	-0.018690
C66	C	0.211803	1.452498	0.314643
C67	C	-0.348353	0.791019	-0.448181
C68	C	-0.015020	1.124353	-0.114848
C69	C	0.318313	1.457686	0.218486
C70	C	-0.348360	0.708473	-0.448191
C71	C	-0.015027	1.041806	-0.114857
C72	C	0.318307	1.375140	0.218476
C73	C	-0.401618	0.664602	-0.400115
C74	C	-0.068285	0.997935	-0.066782
C75	C	0.265048	1.331269	0.266551
C76	C	-0.454870	0.703277	-0.352030
C77	C	-0.121537	1.036611	-0.018697
C78	C	0.211796	1.369944	0.314636
C79	C	-0.295103	0.669792	-0.496269
C80	C	0.038230	1.003125	-0.162936
C81	C	0.371564	1.336458	0.170397
C82	C	-0.295107	0.587241	-0.496280
C83	C	0.038226	0.920574	-0.162947
C84	C	0.371560	1.253907	0.170386
C85	C	-0.348370	0.543368	-0.448208
C86	C	-0.015037	0.876701	-0.114875
C87	C	0.318296	1.210035	0.218458
C88	C	-0.401625	0.582048	-0.400122
C89	C	-0.068292	0.915382	-0.066789
C90	C	0.265042	1.248715	0.266545
C91	C	-0.454883	0.538177	-0.352047
C92	C	-0.121550	0.871511	-0.018713
C93	C	0.211783	1.204844	0.314620
C94	C	-0.508143	0.576856	-0.303964
C95	C	-0.174810	0.910189	0.029370
C96	C	0.158524	1.243523	0.362703
C97	C	-0.508134	0.659405	-0.303958
C98	C	-0.174800	0.992738	0.029375
C99	C	0.158533	1.326072	0.362708
C100	C	-0.348379	0.460819	-0.448214
C101	C	-0.015046	0.794152	-0.114880
C102	C	0.318287	1.127486	0.218453
C103	C	-0.454890	0.455624	-0.352053
C104	C	-0.121557	0.788957	-0.018720
C105	C	0.211777	1.122290	0.314614
C106	C	-0.880546	1.099941	-0.423119
C107	C	-0.547212	1.433274	-0.089786
C108	C	-0.213879	1.766608	0.243547
C109	C	-0.921836	1.146050	-0.377111
C110	C	-0.588503	1.479384	-0.043777
C111	C	-0.255169	1.812717	0.289556
C112	C	-1.016241	1.141563	-0.381656
C113	C	-0.682908	1.474897	-0.048323
C114	C	-0.349575	1.808230	0.285011
C115	C	-0.786132	1.104427	-0.418575
C116	C	-0.452799	1.437760	-0.085242
C117	C	-0.119465	1.771094	0.248092
C118	C	-0.184158	1.133487	-0.389709
C119	C	0.149176	1.466821	-0.056376
C120	C	0.482509	1.800154	0.276958
C121	C	-0.091492	1.137988	-0.385277
C122	C	0.241841	1.471322	-0.051944
C123	C	0.575175	1.804655	0.281389
C124	C	-0.401630	1.329092	-0.400129
C125	C	-0.068297	1.662425	-0.066796
C126	C	0.265037	1.995759	0.266537
C127	C	-0.401638	1.416948	-0.400138
C128	C	-0.068305	1.750282	-0.066805
C129	C	0.265029	2.083615	0.266528
C130	C	-0.401542	1.122961	-0.606273
C131	C	-0.068209	1.456294	-0.272940
C132	C	0.265125	1.789628	0.060393
C133	C	-0.401513	1.122976	-0.694129
C134	C	-0.068179	1.456310	-0.360795
C135	C	0.265154	1.789643	-0.027462
C136	C	-0.454738	1.069935	-1.068147
C137	C	-0.121404	1.403268	-0.734814
C138	C	0.211929	1.736602	-0.401481
C139	C	-0.348112	1.176215	-1.063053
C140	C	-0.014779	1.509549	-0.729720
C141	C	0.318555	1.842882	-0.396386
C142	C	-0.348130	1.176193	-0.980508
C143	C	-0.014796	1.509527	-0.647175
C144	C	0.318537	1.842860	-0.313841
C145	C	-0.401453	1.123042	-0.941779
C146	C	-0.068120	1.456376	-0.608446
C147	C	0.265214	1.789709	-0.275112
C148	C	-0.454759	1.069913	-0.985595
C149	C	-0.121425	1.403246	-0.652262
C150	C	0.211908	1.736580	-0.318928
C151	C	-0.294831	1.229327	-0.936686
C152	C	0.038503	1.562660	-0.603353
C153	C	0.371836	1.895994	-0.270019
C154	C	-0.294847	1.229308	-0.854136
C155	C	0.038486	1.562641	-0.520803
C156	C	0.371820	1.895974	-0.187469
C157	C	-0.348167	1.176152	-0.815405
C158	C	-0.014833	1.509486	-0.482072
C159	C	0.318500	1.842819	-0.148739
C160	C	-0.401474	1.123020	-0.859226
C161	C	-0.068141	1.456354	-0.525893
C162	C	0.265193	1.789687	-0.192560
C163	C	-0.454797	1.069869	-0.820497
C164	C	-0.121464	1.403203	-0.487164
C165	C	0.211869	1.736536	-0.153831
C166	C	-0.508101	1.016733	-0.864317
C167	C	-0.174768	1.350066	-0.530983
C168	C	0.158565	1.683399	-0.197650
C169	C	-0.508079	1.016757	-0.946864
C170	C	-0.174745	1.350091	-0.613531
C171	C	0.158588	1.683424	-0.280197
C172	C	-0.348189	1.176128	-0.732858
C173	C	-0.014856	1.509461	-0.399524
C174	C	0.318477	1.842794	-0.066191
C175	C	-0.454819	1.069847	-0.737945
C176	C	-0.121485	1.403181	-0.404611
C177	C	0.211848	1.736514	-0.071278
C178	C	-0.401620	1.122937	-0.194743
C179	C	-0.068286	1.456270	0.138591
C180	C	0.265047	1.789604	0.471924
C181	C	-0.401414	1.123086	-0.106877
C182	C	-0.068081	1.456419	0.226457
C183	C	0.265252	1.789753	0.559790
H184	H	-0.498263	0.419909	-0.312907
H185	H	-0.164930	0.753243	0.020426
H186	H	0.168403	1.086576	0.353760
H187	H	-0.551521	0.973461	-0.832773
H188	H	-0.218187	1.306794	-0.499440
H189	H	0.115146	1.640127	-0.166106
C190	C	-0.289559	1.234566	-0.684660
C191	C	0.043774	1.567899	-0.351327
C192	C	0.377108	1.901232	-0.017993
H193	H	-0.257796	1.266221	-0.719548
H194	H	0.075537	1.599554	-0.386215
H195	H	0.408870	1.932887	-0.052882
H196	H	-0.321458	1.267446	-0.653975
H197	H	0.011876	1.600779	-0.320642
H198	H	0.345209	1.934112	0.012691
H199	H	-0.253234	1.206077	-0.650729
H200	H	0.080100	1.539410	-0.317396
H201	H	0.413433	1.872744	0.015938
H202	H	-0.251423	1.272604	-0.968226
H203	H	0.081910	1.605938	-0.634892
H204	H	0.415244	1.939271	-0.301559
C205	C	-0.289802	0.418272	-0.501094
C206	C	0.043532	0.751605	-0.167761
C207	C	0.376865	1.084939	0.165573
H208	H	-0.297429	0.362826	-0.494210
H209	H	0.035904	0.696159	-0.160877
H210	H	0.369237	1.029492	0.172456
H211	H	-0.302059	0.431226	-0.554772
H212	H	0.031274	0.764559	-0.221438
H213	H	0.364608	1.097892	0.111895
H214	H	-0.233769	0.434509	-0.486913
H215	H	0.099565	0.767842	-0.153579
H216	H	0.432898	1.101176	0.179754
C217	C	-0.873815	1.203908	-0.319265
C218	C	-0.540482	1.537242	0.014069
C219	C	-0.207149	1.870575	0.347402
H220	H	-0.815744	1.199359	-0.323746
H221	H	-0.482411	1.532693	0.009588
H222	H	-0.149078	1.866026	0.342921
H223	H	-0.887964	1.256358	-0.331525
H224	H	-0.554631	1.589691	0.001808
H225	H	-0.221297	1.923025	0.335142
H226	H	-0.888102	1.191682	-0.266825
H227	H	-0.554768	1.525015	0.066509
H228	H	-0.221435	1.858348	0.399842
C229	C	-0.928566	1.042057	-0.480931
C230	C	-0.595233	1.375390	-0.147598
C231	C	-0.261899	1.708724	0.185736
H232	H	-0.986636	1.046594	-0.476430
H233	H	-0.653303	1.379927	-0.143097
H234	H	-0.319970	1.713260	0.190236
H235	H	-0.914298	1.054245	-0.533380
H236	H	-0.580964	1.387578	-0.200047
H237	H	-0.247631	1.720912	0.133287
H238	H	-0.914405	0.989614	-0.468634
H239	H	-0.581072	1.322948	-0.135300
H240	H	-0.247739	1.656281	0.198033
C241	C	-0.566725	0.528593	-0.251085
C242	C	-0.233391	0.861926	0.082248
C243	C	0.099942	1.195259	0.415582
H244	H	-0.559099	0.473891	-0.257981
H245	H	-0.225766	0.807225	0.075352
H246	H	0.107568	1.140558	0.408686
H247	H	-0.554464	0.542696	-0.197405
H248	H	-0.221131	0.876030	0.135928
H249	H	0.112202	1.209363	0.469262
H250	H	-0.622758	0.539405	-0.265261
H251	H	-0.289424	0.872739	0.068072
H252	H	0.043909	1.206072	0.401405
H253	H	-0.551478	0.973499	-0.982549
H254	H	-0.218145	1.306832	-0.649216
H255	H	0.115188	1.640166	-0.315883
C256	C	-0.513487	1.011390	-0.695349
C257	C	-0.180154	1.344724	-0.362016
C258	C	0.153179	1.678057	-0.028683
H259	H	-0.545234	0.979758	-0.733271
H260	H	-0.211901	1.313091	-0.399938
H261	H	0.121432	1.646424	-0.066604
H262	H	-0.481614	0.978489	-0.661615
H263	H	-0.148280	1.311822	-0.328282
H264	H	0.185053	1.645156	0.005051
H265	H	-0.549826	1.039869	-0.664893
H266	H	-0.216493	1.373203	-0.331559
H267	H	0.116841	1.706536	0.001774
H268	H	-0.551493	0.690905	-0.264810
H269	H	-0.218159	1.024238	0.068523
H270	H	0.115174	1.357571	0.401857
H271	H	-0.498134	1.026671	-1.103829
H272	H	-0.164801	1.360004	-0.770495
H273	H	0.168533	1.693337	-0.437162
H274	H	-0.304703	1.219493	-1.094592
H275	H	0.028630	1.552826	-0.761258
H276	H	0.361964	1.886159	-0.427925
C277	C	-0.236522	0.718049	-0.549144
C278	C	0.096811	1.051382	-0.215811
C279	C	0.430144	1.384715	0.117522
H280	H	-0.244154	0.772751	-0.542259
H281	H	0.089179	1.106084	-0.208926
H282	H	0.422513	1.439417	0.124407
H283	H	-0.180493	0.707234	-0.534975
H284	H	0.152840	1.040567	-0.201642
H285	H	0.486174	1.373900	0.131691
H286	H	-0.248791	0.703944	-0.602827
H287	H	0.084542	1.037277	-0.269494
H288	H	0.417875	1.370610	0.063839
C289	C	-0.513442	0.828373	-0.299134
C290	C	-0.180109	1.161706	0.034199
C291	C	0.153224	1.495039	0.367533
H292	H	-0.505811	0.883820	-0.306010
H293	H	-0.172478	1.217153	0.027324
H294	H	0.160856	1.550486	0.360657
H295	H	-0.569473	0.812132	-0.313301
H296	H	-0.236139	1.145465	0.020032
H297	H	0.097194	1.478798	0.353365
H298	H	-0.501168	0.815421	-0.245454
H299	H	-0.167835	1.148754	0.087879
H300	H	0.165498	1.482088	0.421212
H301	H	-0.251741	0.555756	-0.535433
H302	H	0.081592	0.889089	-0.202100
H303	H	0.414926	1.222422	0.131233
C304	C	-0.236210	1.287748	-0.805941
C305	C	0.097124	1.621081	-0.472608
C306	C	0.430457	1.954414	-0.139275
H307	H	-0.204446	1.319401	-0.840831
H308	H	0.128887	1.652734	-0.507497
H309	H	0.462221	1.986068	-0.174164
H310	H	-0.268107	1.320630	-0.775257
H311	H	0.065227	1.653963	-0.441924
H312	H	0.398560	1.987297	-0.108591
H313	H	-0.199886	1.259259	-0.772010
H314	H	0.133448	1.592592	-0.438677
H315	H	0.466781	1.925925	-0.105344
H316	H	-0.304989	0.826744	-0.487318
H317	H	0.028344	1.160077	-0.153985
H318	H	0.361678	1.493411	0.179349
