data_functionalizedCrystal
_audit_creation_method	'MofGen! by Chris Wilmer'
_symmetry_space_group_name_H-M	'P1'
_symmetry_Int_Tables_number	1
_symmetry_cell_setting	triclinic
loop_
_symmetry_equiv_pos_as_xyz
  x,y,z
_cell_length_a	15.297327
_cell_length_b	11.169417
_cell_length_c	11.169409
_cell_angle_alpha	89.978317
_cell_angle_beta	80.360209
_cell_angle_gamma	80.294369
loop_
_atom_site_label
_atom_site_type_symbol
_atom_site_fract_x
_atom_site_fract_y
_atom_site_fract_z
Zn1	Zn	-0.359108	-1.752156	0.761198
Zn2	Zn	-0.510000	-1.717252	0.595221
Zn3	Zn	-0.359158	-1.551430	0.560538
Zn4	Zn	-0.509921	-1.516674	0.795841
O5	O	-0.434547	-1.634378	0.678200
O6	O	-0.379136	-1.915473	0.739198
O7	O	-0.490044	-1.695193	0.422683
O8	O	-0.232908	-1.607211	0.558143
O9	O	-0.489996	-1.889829	0.617255
O10	O	-0.232871	-1.754683	0.705567
O11	O	-0.379221	-1.573365	0.397201
O12	O	-0.379145	-1.378873	0.591734
O13	O	-0.489862	-1.547973	0.959183
O14	O	-0.489910	-1.353337	0.764611
O15	O	-0.379060	-1.720981	0.933731
O16	O	-0.636233	-1.661491	0.650847
O17	O	-0.636175	-1.514127	0.798242
C18	C	-0.434525	-1.322558	0.678169
C19	C	-0.434538	-1.189155	0.678189
C20	C	-0.668938	-1.580282	0.732093
C21	C	-0.769211	-1.557250	0.755189
C22	C	-1.051860	-1.799489	0.513538
C23	C	-0.957648	-1.821129	0.491832
C24	C	-0.910534	-1.755161	0.557670
C25	C	-0.957642	-1.667550	0.645217
C26	C	-1.051863	-1.645901	0.666918
C27	C	-0.910537	-1.601574	0.711050
C28	C	-0.957644	-1.513962	0.798597
C29	C	-1.051856	-1.492318	0.820295
C30	C	-1.098970	-1.558286	0.754457
C31	C	-0.816316	-1.623222	0.689348
C32	C	-0.816318	-1.469634	0.842728
C33	C	-0.910530	-1.447995	0.864434
C34	C	-0.199241	-1.688717	0.624122
C35	C	-0.098967	-1.711873	0.601077
C36	C	-0.434447	-1.634493	0.991219
C37	C	-0.434404	-1.634542	1.124609
C38	C	-0.434562	-0.947417	0.678220
C39	C	-0.434548	-1.080820	0.678200
C40	C	-0.434582	-1.634347	0.366383
C41	C	-0.434370	-1.634589	0.232935
H42	H	-0.777969	-1.694556	0.618066
H43	H	-1.175685	-1.540674	0.772128
N44	N	-1.102667	-1.397806	0.914698
H45	H	-1.058528	-1.359298	0.953113
H46	H	-1.141699	-1.437658	0.979273
N47	N	-0.961338	-1.353494	0.958852
H48	H	-1.000366	-1.393276	1.023499
H49	H	-1.000438	-1.288935	0.918947
H50	H	-0.777959	-1.415915	0.896337
N51	N	-0.808921	-1.778495	0.534262
H52	H	-0.786227	-1.844006	0.468813
H53	H	-0.786235	-1.805696	0.611427
N54	N	-1.102665	-1.870638	0.442529
H55	H	-1.086329	-1.855789	0.353000
H56	H	-1.169483	-1.843598	0.469652
H57	H	-0.919297	-1.892460	0.420551
