data_functionalizedCrystal
_audit_creation_method	'MofGen! by Chris Wilmer'
_symmetry_space_group_name_H-M	'P1'
_symmetry_Int_Tables_number	1
_symmetry_cell_setting	triclinic
loop_
_symmetry_equiv_pos_as_xyz
  x,y,z
_cell_length_a	16.974897
_cell_length_b	16.992695
_cell_length_c	16.053802
_cell_angle_alpha	87.258926
_cell_angle_beta	83.774775
_cell_angle_gamma	92.972799
loop_
_atom_site_label
_atom_site_type_symbol
_atom_site_fract_x
_atom_site_fract_y
_atom_site_fract_z
O1	O	1.061806	-0.093271	-0.141098
O2	O	1.561806	0.406729	0.358902
O3	O	0.831707	-0.106726	-0.125569
O4	O	1.331707	0.393274	0.374431
O5	O	0.945834	0.014140	-0.133265
O6	O	1.445834	0.514140	0.366735
O7	O	0.947679	-0.214137	-0.133403
O8	O	1.447679	0.285863	0.366597
O9	O	0.939550	0.007514	0.006018
O10	O	1.439550	0.507514	0.506018
O11	O	0.825423	-0.113351	0.013713
O12	O	1.325423	0.386649	0.513713
O13	O	1.055523	-0.099897	-0.001816
O14	O	1.555523	0.400103	0.498184
Zn15	Zn	0.939475	-0.107676	0.028063
Zn16	Zn	1.439475	0.392324	0.528063
Zn17	Zn	0.947754	-0.098947	-0.155448
Zn18	Zn	1.447754	0.401053	0.344552
O19	O	0.941396	-0.220762	0.005880
O20	O	1.441396	0.279238	0.505880
C21	C	0.798987	-0.109648	-0.053932
C22	C	1.298987	0.390352	0.446068
C23	C	0.710851	-0.108474	-0.047983
C24	C	1.210851	0.391526	0.452017
C25	C	0.672862	-0.104314	-0.121106
C26	C	1.172862	0.395686	0.378894
C27	C	0.590048	-0.103224	-0.115504
C28	C	1.090048	0.396776	0.384496
C29	C	0.545225	-0.106289	-0.036780
C30	C	1.045225	0.393711	0.463220
C31	C	0.583219	-0.110453	0.036348
C32	C	1.083219	0.389547	0.536348
C33	C	0.666031	-0.111548	0.030746
C34	C	1.166031	0.388452	0.530746
C35	C	0.297185	-0.103407	-0.011883
C36	C	0.797185	0.396593	0.488117
C37	C	0.214368	-0.102309	-0.006287
C38	C	0.714368	0.397691	0.493713
C39	C	0.221203	-0.095081	-0.158140
C40	C	0.721203	0.404919	0.341860
C41	C	0.304017	-0.096172	-0.163735
C42	C	0.804017	0.403828	0.336265
C43	C	0.342003	-0.100339	-0.090607
C44	C	0.842003	0.399661	0.409393
N45	N	0.460575	-0.105173	-0.031052
N46	N	0.960575	0.394827	0.468948
N47	N	0.426651	-0.101461	-0.096335
N48	N	0.926651	0.398539	0.403665
C49	C	0.940319	0.040030	-0.063464
C50	C	1.440319	0.540030	0.436536
C51	C	0.933238	0.127044	-0.062986
C52	C	1.433238	0.627044	0.437014
C53	C	1.088243	-0.096974	-0.073455
C54	C	1.588243	0.403026	0.426545
C55	C	1.176379	-0.098148	-0.079409
C56	C	1.676379	0.401852	0.420591
C57	C	0.946911	-0.246652	-0.063923
C58	C	1.446911	0.253348	0.436077
C59	C	0.953992	-0.333666	-0.064406
C60	C	1.453992	0.166334	0.435594
N61	N	0.933831	-0.113633	0.153304
N62	N	1.433831	0.386367	0.653304
C63	C	1.001560	0.177574	-0.067596
C64	C	1.501560	0.677574	0.432404
C65	C	0.994903	0.259332	-0.067155
C66	C	1.494903	0.759332	0.432845
C67	C	0.919921	0.290560	-0.062097
C68	C	1.419921	0.790560	0.437903
C69	C	0.851594	0.240024	-0.057489
C70	C	1.351594	0.740024	0.442511
C71	C	0.858253	0.158267	-0.057936
C72	C	1.358253	0.658267	0.442064
C73	C	0.892324	0.534041	-0.060246
C74	C	1.392324	1.034041	0.439754
C75	C	0.885670	0.615804	-0.059796
C76	C	1.385670	1.115804	0.440204
C77	C	1.028979	0.635108	-0.069463
C78	C	1.528979	1.135108	0.430537
C79	C	1.035631	0.553348	-0.069905
C80	C	1.535631	1.053348	0.430095
C81	C	0.967304	0.502819	-0.065302
C82	C	1.467304	1.002819	0.434698
N83	N	0.913114	0.374130	-0.061643
N84	N	1.413114	0.874130	0.438357
N85	N	0.974112	0.419251	-0.065762
N86	N	1.474112	0.919251	0.434238
N87	N	0.953405	-0.092983	-0.280689
N88	N	1.453405	0.407017	0.219311
C89	C	0.982412	-0.062223	0.193722
C90	C	1.482412	0.437777	0.693722
C91	C	0.978472	-0.066397	0.281394
C92	C	1.478472	0.433603	0.781394
C93	C	0.925954	-0.121986	0.328647
C94	C	1.425954	0.378014	0.828647
C95	C	0.877367	-0.173399	0.288223
C96	C	1.377367	0.326601	0.788223
C97	C	0.881304	-0.169220	0.200553
C98	C	1.381304	0.330780	0.700553
C99	C	0.908755	-0.140217	0.591216
C100	C	1.408755	0.359783	1.091216
C101	C	0.904823	-0.144394	0.678893
C102	C	1.404823	0.355606	1.178893
C103	C	1.005928	-0.037390	0.672058
C104	C	1.505928	0.462610	1.172058
C105	C	1.009863	-0.033220	0.584386
C106	C	1.509863	0.466780	1.084386
C107	C	0.961274	-0.084630	0.543970
C108	C	1.461274	0.415370	1.043970
N109	N	0.921926	-0.126256	0.418262
N110	N	1.421926	0.373744	0.918262
N111	N	0.965298	-0.080355	0.454356
N112	N	1.465298	0.419645	0.954356
H113	H	0.328104	-0.106795	0.047662
H114	H	0.828104	0.393205	0.547662
F115	F	1.065760	0.025944	0.534097
F116	F	1.565760	0.525944	1.034097
H117	H	1.096689	0.527929	-0.074024
H118	H	1.596689	1.027929	0.425976
F119	F	1.057635	0.017322	0.715077
F120	F	1.557635	0.517322	1.215077
H121	H	1.084607	0.676256	-0.073213
H122	H	1.584607	1.176256	0.426787
F123	F	1.081366	0.144347	-0.072971
F124	F	1.581366	0.644347	0.427029
F125	F	0.351716	-0.092905	-0.247524
F126	F	0.851716	0.407095	0.252476
H127	H	0.802617	0.117125	-0.054183
H128	H	1.302617	0.617125	0.445817
H129	H	0.869193	-0.182079	0.558316
H130	H	1.369193	0.317921	1.058316
H131	H	0.709352	-0.101815	-0.185212
H132	H	1.209352	0.398185	0.314788
F133	F	0.821468	-0.232558	0.338514
F134	F	1.321468	0.267442	0.838514
F135	F	0.706460	-0.115979	0.108573
F136	F	1.206460	0.384021	0.608573
H137	H	0.841743	-0.211083	0.167645
H138	H	1.341743	0.288917	0.667645
H139	H	0.862055	-0.189664	0.717362
H140	H	1.362055	0.310336	1.217362
F141	F	0.549622	-0.098796	-0.193331
F142	F	1.049622	0.401204	0.306669
F143	F	0.180770	-0.090639	-0.235962
F144	F	0.680770	0.409361	0.264038
H145	H	0.177873	-0.104827	0.057823
H146	H	0.677873	0.395173	0.557823
F147	F	1.067621	0.313107	-0.072060
F148	F	1.567621	0.813107	0.427940
F149	F	0.805861	0.649036	-0.054409
F150	F	1.305861	1.149036	0.445591
F151	F	0.819603	0.480275	-0.055349
F152	F	1.319603	0.980275	0.444651
F153	F	0.535511	-0.113722	0.120133
F154	F	1.035511	0.386278	0.620133
H155	H	1.025182	-0.016959	0.155254
H156	H	1.525182	0.483041	0.655254
F157	F	0.771793	0.273260	-0.052116
F158	F	1.271793	0.773260	0.447884
F159	F	1.030176	-0.011679	0.324410
F160	F	1.530176	0.488321	0.824410
