data_functionalizedCrystal
_audit_creation_method	'MofGen! by Chris Wilmer'
_symmetry_space_group_name_H-M	'P1'
_symmetry_Int_Tables_number	1
_symmetry_cell_setting	triclinic
loop_
_symmetry_equiv_pos_as_xyz
  x,y,z
_cell_length_a	10.685904
_cell_length_b	10.686285
_cell_length_c	19.805399
_cell_angle_alpha	85.609337
_cell_angle_beta	85.609525
_cell_angle_gamma	89.665902
loop_
_atom_site_label
_atom_site_type_symbol
_atom_site_fract_x
_atom_site_fract_y
_atom_site_fract_z
Zn1	Zn	1.956273	-0.352462	-0.448794
Zn2	Zn	2.456273	0.147538	0.051206
Zn3	Zn	1.972291	-0.562251	-0.327658
Zn4	Zn	2.472291	-0.062251	0.172342
Zn5	Zn	1.746504	-0.368575	-0.326322
Zn6	Zn	2.246504	0.131425	0.173678
Zn7	Zn	1.762584	-0.578247	-0.431516
Zn8	Zn	2.262584	-0.078247	0.068484
O9	O	1.859413	-0.465384	-0.383572
O10	O	2.359413	0.034616	0.116428
O11	O	2.133950	-0.366853	-0.440515
O12	O	2.633950	0.133147	0.059485
O13	O	1.942314	-0.536609	-0.232761
O14	O	2.442314	-0.036609	0.267239
O15	O	1.760897	-0.190892	-0.349239
O16	O	2.260897	0.309108	0.150761
O17	O	2.145719	-0.520984	-0.351517
O18	O	2.645719	-0.020984	0.148483
O19	O	1.915013	-0.179054	-0.439219
O20	O	2.415013	0.320946	0.060781
O21	O	1.776429	-0.394316	-0.231779
O22	O	2.276429	0.105684	0.268221
O23	O	1.573084	-0.409827	-0.332486
O24	O	2.073084	0.090173	0.167514
O25	O	1.788303	-0.548247	-0.528528
O26	O	2.288303	-0.048247	-0.028528
O27	O	1.584898	-0.563872	-0.409772
O28	O	2.084898	-0.063872	0.090228
O29	O	1.930606	-0.382364	-0.541221
O30	O	2.430606	0.117636	-0.041221
O31	O	1.957906	-0.739919	-0.334764
O32	O	2.457906	-0.239919	0.165236
O33	O	1.803835	-0.751671	-0.411068
O34	O	2.303835	-0.251671	0.088932
C35	C	1.533472	-0.490334	-0.369109
C36	C	2.033472	0.009666	0.130891
C37	C	1.394036	-0.501038	-0.362937
C38	C	1.894036	-0.001038	0.137063
C39	C	1.884388	-0.791309	-0.371202
C40	C	2.384388	-0.291309	0.128798
C41	C	1.895187	-0.930733	-0.365938
C42	C	2.395187	-0.430733	0.134062
C43	C	2.186626	-0.440337	-0.398093
C44	C	2.686626	0.059663	0.101907
C45	C	2.326065	-0.429663	-0.404280
C46	C	2.826065	0.070337	0.095720
C47	C	1.859461	-0.465293	-0.560121
C48	C	2.359461	0.034707	-0.060121
C49	C	1.859482	-0.465254	-0.635355
C50	C	2.359482	0.034746	-0.135355
C51	C	1.834375	-0.138183	-0.396007
C52	C	2.334375	0.361817	0.103993
C53	C	1.823705	0.001250	-0.401306
C54	C	2.323705	0.501250	0.098694
C55	C	1.773128	-0.391153	-0.670189
C56	C	2.273128	0.108847	-0.170189
C57	C	1.773143	-0.391127	-0.740879
C58	C	2.273143	0.108873	-0.240879
C59	C	1.859519	-0.465196	-0.776735
C60	C	2.359519	0.034804	-0.276735
C61	C	1.945878	-0.539306	-0.741896
C62	C	2.445878	-0.039306	-0.241896
C63	C	1.945855	-0.539338	-0.671207
C64	C	2.445855	-0.039338	-0.171207
C65	C	1.945968	-0.539181	-1.026979
C66	C	2.445968	-0.039181	-0.526979
C67	C	1.945986	-0.539141	-1.097673
C68	C	2.445986	-0.039141	-0.597673
C69	C	1.773256	-0.390970	-1.096651
C70	C	2.273256	0.109030	-0.596651
C71	C	1.773233	-0.391002	-1.025961
C72	C	2.273233	0.108998	-0.525961
C73	C	1.859587	-0.465116	-0.991129
C74	C	2.359587	0.034884	-0.491129
C75	C	1.859568	-0.465145	-0.914478
C76	C	2.359568	0.034855	-0.414478
C77	C	1.859545	-0.465162	-0.853385
C78	C	2.359545	0.034838	-0.353385
C79	C	1.859430	-0.465379	-0.207717
C80	C	2.359430	0.034621	0.292283
C81	C	1.859625	-0.465046	-0.132507
C82	C	2.359625	0.034954	0.367493
H83	H	1.345556	-0.570329	-0.322818
H84	H	1.845556	-0.070329	0.177182
Br85	Br	2.063220	-0.639670	-1.146335
Br86	Br	2.563220	-0.139670	-0.646335
Br87	Br	1.707928	-0.918033	-0.458489
Br88	Br	2.207928	-0.418033	0.041511
Br89	Br	1.406866	-0.314150	-0.471145
Br90	Br	1.906866	0.185850	0.028855
H91	H	1.964642	-0.979171	-0.331623
H92	H	2.464642	-0.479171	0.168377
H93	H	1.702796	-0.330829	-0.641001
H94	H	2.202796	0.169171	-0.141001
Br95	Br	2.063169	-0.639757	-0.979715
Br96	Br	2.563169	-0.139757	-0.479715
Br97	Br	2.063094	-0.639843	-0.790556
Br98	Br	2.563094	-0.139843	-0.290556
H99	H	1.702820	-0.330791	-0.769237
H100	H	2.202820	0.169209	-0.269237
H101	H	1.702901	-0.330682	-0.996771
H102	H	2.202901	0.169318	-0.496771
Br103	Br	1.656057	-0.290386	-1.143927
Br104	Br	2.156057	0.209614	-0.643927
H105	H	2.016182	-0.599669	-0.642847
H106	H	2.516182	-0.099669	-0.142847
