data_functionalizedCrystal
_audit_creation_method	'MofGen! by Chris Wilmer'
_symmetry_space_group_name_H-M	'P1'
_symmetry_Int_Tables_number	1
_symmetry_cell_setting	triclinic
loop_
_symmetry_equiv_pos_as_xyz
  x,y,z
_cell_length_a	17.699083
_cell_length_b	9.198806
_cell_length_c	17.699104
_cell_angle_alpha	90.004383
_cell_angle_beta	83.287266
_cell_angle_gamma	89.997927
loop_
_atom_site_label
_atom_site_type_symbol
_atom_site_fract_x
_atom_site_fract_y
_atom_site_fract_z
O1	O	1.004083	0.120692	0.095709
O2	O	1.504083	0.620692	0.595709
O3	O	0.783705	0.120740	0.108161
O4	O	1.283705	0.620740	0.608161
O5	O	0.900112	0.120701	-0.008253
O6	O	1.400112	0.620701	0.491747
O7	O	0.887676	0.120730	0.212123
O8	O	1.387676	0.620730	0.712123
O9	O	0.900103	-0.121084	-0.008254
O10	O	1.400103	0.378916	0.491746
O11	O	0.783696	-0.121045	0.108160
O12	O	1.283696	0.378955	0.608160
O13	O	1.004073	-0.121093	0.095708
O14	O	1.504073	0.378907	0.595708
Cu15	Cu	0.893884	-0.143146	0.101934
Cu16	Cu	1.393884	0.356854	0.601934
Cu17	Cu	0.893895	0.142793	0.101935
Cu18	Cu	1.393895	0.642793	0.601935
O19	O	0.887667	-0.121055	0.212122
O20	O	1.387667	0.378945	0.712122
C21	C	0.755503	-0.000147	0.107715
C22	C	1.255503	0.499853	0.607715
C23	C	0.671485	-0.000129	0.106376
C24	C	1.171485	0.499871	0.606376
N25	N	0.893882	-0.344260	0.101933
N26	N	1.393882	0.155740	0.601933
C27	C	0.622869	-0.000120	0.174709
C28	C	1.122869	0.499880	0.674709
C29	C	0.543926	-0.000139	0.173446
C30	C	1.043926	0.499861	0.673446
C31	C	0.513600	-0.000156	0.103851
C32	C	1.013600	0.499844	0.603851
C33	C	0.562222	-0.000169	0.035513
C34	C	1.062222	0.499831	0.535513
C35	C	0.641164	-0.000161	0.036776
C36	C	1.141164	0.499839	0.536776
C37	C	0.243859	-0.000206	0.030418
C38	C	0.743859	0.499794	0.530418
C39	C	0.164911	-0.000210	0.029160
C40	C	0.664911	0.499790	0.529160
C41	C	0.146621	-0.000185	0.167088
C42	C	0.646621	0.499815	0.667088
C43	C	0.225563	-0.000176	0.168351
C44	C	0.725563	0.499824	0.668351
C45	C	0.274178	-0.000196	0.100014
C46	C	0.774178	0.499804	0.600014
C47	C	0.359777	-0.000179	0.101383
C48	C	0.859777	0.499821	0.601383
C49	C	0.428002	-0.000164	0.102480
C50	C	0.928002	0.499836	0.602480
C51	C	0.937564	-0.416462	0.145365
C52	C	1.437564	0.083538	0.645365
C53	C	0.937576	-0.583875	0.145364
C54	C	1.437576	-0.083875	0.645364
C55	C	1.032275	-0.000204	0.096155
C56	C	1.532275	0.499796	0.596155
C57	C	1.116293	-0.000212	0.097493
C58	C	1.616293	0.499788	0.597493
C59	C	0.899659	-0.000191	-0.036450
C60	C	1.399659	0.499809	0.463550
C61	C	0.898314	-0.000192	-0.120467
C62	C	1.398314	0.499808	0.379533
N63	N	0.893903	0.343907	0.101930
N64	N	1.393903	0.843907	0.601930
C65	C	0.959058	-0.000164	-0.645338
C66	C	1.459058	0.499836	-0.145338
C67	C	0.960317	-0.000177	-0.566395
C68	C	1.460317	0.499823	-0.066395
C69	C	0.891982	-0.000165	-0.517777
C70	C	1.391982	0.499835	-0.017777
C71	C	0.822383	-0.000155	-0.548107
C72	C	1.322383	0.499845	-0.048107
C73	C	0.821125	-0.000152	-0.627049
C74	C	1.321125	0.499848	-0.127049
C75	C	0.827456	-0.000168	-0.229741
C76	C	1.327456	0.499832	0.270259
C77	C	0.828720	-0.000167	-0.150794
C78	C	1.328720	0.499833	0.349206
C79	C	0.966648	-0.000193	-0.169086
C80	C	1.466648	0.499807	0.330914
C81	C	0.965390	-0.000190	-0.248029
C82	C	1.465390	0.499810	0.251971
C83	C	0.895792	-0.000188	-0.278352
C84	C	1.395792	0.499812	0.221648
C85	C	0.894427	-0.000176	-0.363951
C86	C	1.394427	0.499824	0.136049
C87	C	0.893345	-0.000166	-0.432179
C88	C	1.393345	0.499834	0.067821
C89	C	0.888120	-0.000159	0.240319
C90	C	1.388120	0.499841	0.740319
C91	C	0.889464	-0.000149	0.324337
C92	C	1.389464	0.499851	0.824337
H93	H	0.647554	-0.000105	0.231382
H94	H	1.147554	0.499895	0.731382
H95	H	1.021036	-0.000192	-0.287610
H96	H	1.521036	0.499808	0.212390
H97	H	0.504346	-0.000131	0.229090
H98	H	1.004346	0.499869	0.729090
H99	H	0.856494	-0.406386	0.064747
H100	H	1.356494	0.093614	0.564747
F101	F	0.986457	-0.665028	0.193971
F102	F	1.486457	-0.165028	0.693971
H103	H	0.856499	-0.594011	0.064748
H104	H	1.356499	-0.094011	0.564748
F105	F	0.753383	-0.000155	-0.262003
F106	F	1.253383	0.499845	0.237997
F107	F	0.749655	-0.000150	-0.496362
F108	F	1.249655	0.499850	0.003638
F109	F	0.132638	-0.000229	-0.044917
F110	F	0.632638	0.499771	0.455083
H111	H	1.014705	-0.000161	-0.684918
H112	H	1.514705	0.499839	-0.184918
H113	H	1.016987	-0.000190	-0.541708
H114	H	1.516987	0.499810	-0.041708
F115	F	1.040722	-0.000202	-0.136808
F116	F	1.540722	0.499798	0.363192
H117	H	0.974957	-0.354337	0.182546
H118	H	1.474957	0.145663	0.682546
F119	F	0.755984	-0.000156	-0.099052
F120	F	1.255984	0.499844	0.400948
F121	F	0.094875	-0.000169	0.239820
F122	F	0.594875	0.499831	0.739820
H123	H	0.764455	-0.000153	-0.651738
H124	H	1.264455	0.499847	-0.151738
H125	H	0.283432	-0.000224	-0.025227
H126	H	0.783432	0.499776	0.474773
F127	F	0.257833	-0.000149	0.242424
F128	F	0.757833	0.499851	0.742424
H129	H	0.680747	-0.000167	-0.018868
H130	H	1.180747	0.499833	0.481132
F131	F	0.529945	-0.000197	-0.038557
F132	F	1.029945	0.499803	0.461443
