data_functionalizedCrystal
_audit_creation_method	'MofGen! by Chris Wilmer'
_symmetry_space_group_name_H-M	'P1'
_symmetry_Int_Tables_number	1
_symmetry_cell_setting	triclinic
loop_
_symmetry_equiv_pos_as_xyz
  x,y,z
_cell_length_a	19.288867
_cell_length_b	19.288857
_cell_length_c	17.766277
_cell_angle_alpha	89.991474
_cell_angle_beta	89.992126
_cell_angle_gamma	83.135089
loop_
_atom_site_label
_atom_site_type_symbol
_atom_site_fract_x
_atom_site_fract_y
_atom_site_fract_z
O1	O	0.921350	0.086656	-0.062571
O2	O	1.421350	0.586656	0.437429
O3	O	0.719089	0.098343	-0.062579
O4	O	1.219089	0.598343	0.437421
O5	O	0.826066	-0.008631	-0.062566
O6	O	1.326066	0.491369	0.437434
O7	O	0.814372	0.193630	-0.062585
O8	O	1.314372	0.693630	0.437415
O9	O	0.826048	-0.008637	0.062623
O10	O	1.326048	0.491363	0.562623
O11	O	0.719070	0.098338	0.062609
O12	O	1.219070	0.598338	0.562609
O13	O	0.921331	0.086650	0.062617
O14	O	1.421331	0.586650	0.562617
Cu15	Cu	0.820199	0.092493	0.074044
Cu16	Cu	1.320199	0.592493	0.574044
Cu17	Cu	0.820221	0.092500	-0.074006
Cu18	Cu	1.320221	0.592500	0.425994
O19	O	0.814353	0.193625	0.062604
O20	O	1.314353	0.693625	0.562604
C21	C	0.693203	0.097964	0.000014
C22	C	1.193203	0.597964	0.500014
C23	C	0.616100	0.096834	0.000012
C24	C	1.116100	0.596834	0.500012
C25	C	0.060545	0.088701	-0.068219
C26	C	0.560545	0.588701	0.431781
C27	C	0.132992	0.089758	-0.068222
C28	C	0.632992	0.589758	0.431778
C29	C	0.169211	0.090287	0.000018
C30	C	0.669211	0.590287	0.500018
C31	C	0.132978	0.089741	0.068266
C32	C	0.632978	0.589741	0.568266
C33	C	0.060533	0.088677	0.068267
C34	C	0.560533	0.588677	0.568267
C35	C	0.278529	0.132653	0.052295
C36	C	0.778529	0.632653	0.552295
C37	C	0.350972	0.133721	0.052291
C38	C	0.850972	0.633721	0.552291
C39	C	0.392656	0.093566	0.000018
C40	C	0.892656	0.593566	0.500018
C41	C	0.361887	0.052352	-0.052264
C42	C	0.861887	0.552352	0.447736
C43	C	0.289442	0.051288	-0.052263
C44	C	0.789442	0.551288	0.447737
C45	C	0.247765	0.091441	0.000024
C46	C	0.747765	0.591441	0.500024
C47	C	0.507437	0.095254	-0.068229
C48	C	1.007437	0.595254	0.431771
C49	C	0.579886	0.096307	-0.068229
C50	C	1.079886	0.596307	0.431771
C51	C	0.579869	0.096296	0.068261
C52	C	1.079869	0.596296	0.568261
C53	C	0.507422	0.095237	0.068259
C54	C	1.007422	0.595237	0.568259
C55	C	0.471210	0.094719	0.000012
C56	C	0.971210	0.594719	0.500012
C57	C	0.825682	-0.034511	0.000029
C58	C	1.325682	0.465489	0.500029
C59	C	0.824555	-0.111614	0.000031
C60	C	1.324555	0.388386	0.500031
C61	C	0.824039	-0.147822	-0.068209
C62	C	1.324039	0.352178	0.431791
C63	C	0.822970	-0.220268	-0.068215
C64	C	1.322970	0.279732	0.431785
C65	C	0.822431	-0.256506	0.000024
C66	C	1.322431	0.243494	0.500024
C67	C	0.822943	-0.220289	0.068273
C68	C	1.322943	0.279711	0.568273
C69	C	0.824005	-0.147843	0.068277
C70	C	1.324005	0.352157	0.568277
C71	C	0.861425	-0.376739	0.052300
C72	C	1.361425	0.123261	0.552300
C73	C	0.860368	-0.449184	0.052294
C74	C	1.360368	0.050816	0.552294
C75	C	0.819154	-0.479951	0.000015
C76	C	1.319154	0.020049	0.500015
C77	C	0.779006	-0.438266	-0.052270
C78	C	1.279006	0.061734	0.447730
C79	C	0.780068	-0.365821	-0.052266
C80	C	1.280068	0.134179	0.447734
C81	C	0.821280	-0.335061	0.000027
C82	C	1.321280	0.164939	0.500027
C83	C	0.817478	-0.594713	-0.068236
C84	C	1.317478	-0.094713	0.431764
C85	C	0.816405	-0.667160	-0.068239
C86	C	1.316405	-0.167160	0.431761
C87	C	0.816385	-0.667180	0.068251
C88	C	1.316385	-0.167180	0.568251
C89	C	0.817451	-0.594734	0.068252
C90	C	1.317451	-0.094734	0.568252
C91	C	0.818001	-0.558505	0.000006
C92	C	1.318001	-0.058505	0.500006
C93	C	0.947217	0.087029	0.000022
C94	C	1.447217	0.587029	0.500022
C95	C	1.024320	0.088159	0.000020
C96	C	1.524320	0.588159	0.500020
C97	C	0.814738	0.219504	0.000007
C98	C	1.314738	0.719504	0.500007
C99	C	0.815865	0.296608	0.000000
C100	C	1.315865	0.796608	0.500000
N101	N	0.820188	0.092489	0.178174
N102	N	1.320188	0.592489	0.678174
N103	N	0.820237	0.092499	-0.178136
N104	N	1.320237	0.592499	0.321864
C105	C	0.867573	0.045143	0.217567
C106	C	1.367573	0.545143	0.717567
C107	C	0.867577	0.045140	0.296369
C108	C	1.367577	0.545140	0.796369
C109	C	0.820203	0.092494	0.335775
C110	C	1.320203	0.592494	0.835775
C111	C	0.772809	0.139843	0.296373
C112	C	1.272809	0.639843	0.796373
C113	C	0.772802	0.139840	0.217572
C114	C	1.272802	0.639840	0.717572
C115	C	0.810902	0.155782	0.460607
C116	C	1.310902	0.655782	0.960607
C117	C	0.810915	0.155786	0.539406
C118	C	1.310915	0.655786	1.039406
C119	C	0.820222	0.092502	0.578821
C120	C	1.320222	0.592502	1.078821
C121	C	0.829531	0.029213	0.539428
C122	C	1.329531	0.529213	1.039428
C123	C	0.829524	0.029210	0.460628
C124	C	1.329524	0.529210	0.960628
C125	C	0.820205	0.092502	0.421221
C126	C	1.320205	0.592502	0.921221
C127	C	0.867613	0.045150	0.703660
C128	C	1.367613	0.545150	1.203660
C129	C	0.867613	0.045146	0.782463
C130	C	1.367613	0.545146	1.282463
C131	C	0.772848	0.139854	0.782465
C132	C	1.272848	0.639854	1.282465
C133	C	0.772845	0.139852	0.703664
C134	C	1.272845	0.639852	1.203664
C135	C	0.820232	0.092501	0.664266
C136	C	1.320232	0.592501	1.164266
H137	H	0.477951	0.094830	-0.123800
H138	H	0.977951	0.594830	0.376200
H139	H	0.906156	0.006586	0.185491
H140	H	1.406156	0.506586	0.685491
F141	F	0.171525	0.090301	0.140892
F142	F	0.671525	0.590301	0.640892
H143	H	0.609358	0.096724	0.123823
H144	H	1.109358	0.596724	0.623823
F145	F	0.722367	0.190233	0.175646
F146	F	1.222367	0.690233	0.675646
F147	F	0.918014	-0.005254	0.338300
F148	F	1.418014	0.494746	0.838300
F149	F	0.818059	-0.556153	-0.140868
F150	F	1.318059	-0.056153	0.359132
F151	F	0.839426	-0.038145	0.418706
F152	F	1.339426	0.461855	0.918706
F153	F	0.021978	0.088102	0.140899
F154	F	0.521978	0.588102	0.640899
F155	F	0.256697	0.007424	-0.107902
F156	F	0.756697	0.507424	0.392098
F157	F	0.801011	0.223143	0.581323
F158	F	1.301011	0.723143	1.081323
F159	F	0.468867	0.094669	0.140889
F160	F	0.968867	0.594669	0.640889
F161	F	0.824553	-0.109307	0.140911
F162	F	1.324553	0.390693	0.640911
H163	H	0.824485	-0.118329	-0.123780
H164	H	1.324485	0.381671	0.376220
H165	H	0.376017	0.167297	0.094846
H166	H	0.876017	0.667297	0.594846
F167	F	0.234173	0.175387	0.107941
F168	F	0.734173	0.675387	0.607941
H169	H	0.609380	0.096743	-0.123800
H170	H	1.109380	0.596743	0.376200
H171	H	0.395824	0.019656	-0.094832
H172	H	0.895824	0.519656	0.405168
H173	H	0.837109	-0.022318	0.571519
H174	H	1.337109	0.477682	1.071519
H175	H	0.906196	0.006591	0.671581
H176	H	1.406196	0.506591	1.171581
H177	H	0.734235	0.178398	0.328461
H178	H	1.234235	0.678398	0.828461
H179	H	0.734272	0.178408	0.814549
H180	H	1.234272	0.678408	1.314549
F181	F	0.822421	-0.258811	-0.140849
F182	F	1.322421	0.241189	0.359151
F183	F	0.918044	-0.005251	0.824389
F184	F	1.418044	0.494749	1.324389
H185	H	0.803312	0.207318	0.428521
H186	H	1.303312	0.707318	0.928521
F187	F	0.722415	0.190247	0.661736
F188	F	1.222415	0.690247	1.161736
H189	H	0.031065	0.088277	-0.123791
H190	H	0.531065	0.588277	0.376209
H191	H	0.162492	0.090204	-0.123792
H192	H	0.662492	0.590204	0.376208
H193	H	0.815982	-0.696639	-0.123811
H194	H	1.315982	-0.196639	0.376189
H195	H	0.747377	-0.331884	-0.094836
H196	H	1.247377	0.168116	0.405164
F197	F	0.735137	-0.471005	-0.107910
F198	F	1.235137	0.028995	0.392090
F199	F	0.822365	-0.258855	0.140897
F200	F	1.322365	0.241145	0.640897
F201	F	0.905308	-0.344003	0.107933
F202	F	1.405308	0.155997	0.607933
H203	H	0.817877	-0.565254	0.123821
H204	H	1.317877	-0.065254	0.623821
F205	F	0.815808	-0.705741	0.140876
F206	F	1.315808	-0.205741	0.640876
H207	H	0.893061	-0.483119	0.094864
H208	H	1.393061	0.016881	0.594864
