data_functionalizedCrystal
_audit_creation_method	'MofGen! by Chris Wilmer'
_symmetry_space_group_name_H-M	'P1'
_symmetry_Int_Tables_number	1
_symmetry_cell_setting	triclinic
loop_
_symmetry_equiv_pos_as_xyz
  x,y,z
_cell_length_a	18.050591
_cell_length_b	18.050589
_cell_length_c	18.050583
_cell_angle_alpha	90.031910
_cell_angle_beta	90.022021
_cell_angle_gamma	90.024227
loop_
_atom_site_label
_atom_site_type_symbol
_atom_site_fract_x
_atom_site_fract_y
_atom_site_fract_z
Zn1	Zn	1.135301	-0.295685	0.420054
Zn2	Zn	1.635301	0.204315	0.920054
Zn3	Zn	1.135209	-0.419898	0.295873
Zn4	Zn	1.635209	0.080102	0.795873
Zn5	Zn	1.011117	-0.295718	0.295865
Zn6	Zn	1.511117	0.204282	0.795865
Zn7	Zn	1.011068	-0.419829	0.420009
Zn8	Zn	1.511068	0.080171	0.920009
O9	O	1.073174	-0.357783	0.357950
O10	O	1.573174	0.142217	0.857950
O11	O	1.239213	-0.312178	0.403604
O12	O	1.739213	0.187822	0.903604
O13	O	1.118730	-0.403468	0.191948
O14	O	1.618730	0.096532	0.691948
O15	O	1.027650	-0.191789	0.312354
O16	O	1.527650	0.308211	0.812354
O17	O	1.239146	-0.403436	0.312369
O18	O	1.739146	0.096564	0.812369
O19	O	1.118887	-0.191765	0.403595
O20	O	1.618887	0.308235	0.903595
O21	O	1.027561	-0.312233	0.191942
O22	O	1.527561	0.187767	0.691942
O23	O	0.907186	-0.312166	0.312311
O24	O	1.407186	0.187834	0.812311
O25	O	1.027565	-0.403319	0.523940
O26	O	1.527565	0.096681	1.023940
O27	O	0.907150	-0.403350	0.403519
O28	O	1.407150	0.096650	0.903519
O29	O	1.118838	-0.312111	0.523973
O30	O	1.618838	0.187889	1.023973
O31	O	1.118682	-0.523814	0.312325
O32	O	1.618682	-0.023814	0.812325
O33	O	1.027476	-0.523763	0.403527
O34	O	1.527476	-0.023763	0.903527
C35	C	0.880222	-0.357755	0.357909
C36	C	1.380222	0.142245	0.857909
C37	C	0.797676	-0.357761	0.357909
C38	C	1.297676	0.142239	0.857909
C39	C	0.598223	-0.308118	0.308425
C40	C	1.098223	0.191882	0.808425
C41	C	0.548803	-0.375858	0.290154
C42	C	1.048803	0.124142	0.790154
C43	C	0.646545	-0.357784	0.357943
C44	C	1.146545	0.142216	0.857943
C45	C	0.548884	-0.290067	0.376212
C46	C	1.048884	0.209933	0.876212
C47	C	0.500560	-0.357799	0.357974
C48	C	1.000560	0.142201	0.857974
C49	C	0.598213	-0.425559	0.339637
C50	C	1.098213	0.074441	0.839637
C51	C	0.598297	-0.339723	0.425726
C52	C	1.098297	0.160277	0.925726
C53	C	0.548900	-0.407510	0.407481
C54	C	1.048900	0.092490	0.907481
C55	C	0.730644	-0.357774	0.357923
C56	C	1.230644	0.142226	0.857923
C57	C	0.416464	-0.357817	0.357994
C58	C	0.916464	0.142183	0.857994
C59	C	1.073084	-0.550735	0.357938
C60	C	1.573084	-0.050735	0.857938
C61	C	1.073114	-0.633281	0.357958
C62	C	1.573114	-0.133281	0.857958
C63	C	1.023565	-0.832731	0.407536
C64	C	1.523565	-0.332731	0.907536
C65	C	1.005465	-0.882180	0.339767
C66	C	1.505465	-0.382180	0.839767
C67	C	1.073187	-0.784411	0.357967
C68	C	1.573187	-0.284411	0.857967
C69	C	1.091322	-0.882044	0.425744
C70	C	1.591322	-0.382044	0.925744
C71	C	1.073256	-0.930396	0.357983
C72	C	1.573256	-0.430396	0.857983
C73	C	1.055052	-0.832773	0.290162
C74	C	1.555052	-0.332773	0.790162
C75	C	1.140940	-0.832632	0.376186
C76	C	1.640940	-0.332632	0.876186
C77	C	1.122867	-0.882059	0.308370
C78	C	1.622867	-0.382059	0.808370
C79	C	1.073145	-0.700313	0.357959
C80	C	1.573145	-0.200313	0.857959
C81	C	1.073297	-1.014493	0.357983
C82	C	1.573297	-0.514493	0.857983
C83	C	1.266879	-0.357811	0.357992
C84	C	1.766879	0.142189	0.857992
C85	C	1.349425	-0.357823	0.358010
C86	C	1.849425	0.142177	0.858010
C87	C	1.073207	-0.357703	0.551656
C88	C	1.573207	0.142297	1.051656
C89	C	1.073221	-0.357670	0.634202
C90	C	1.573221	0.142330	1.134202
C91	C	1.073284	-0.164077	0.357979
C92	C	1.573284	0.335923	0.857979
C93	C	1.073331	-0.081531	0.357991
C94	C	1.573331	0.418469	0.857991
C95	C	1.073184	-0.357808	0.164998
C96	C	1.573184	0.142192	0.664998
C97	C	1.073314	-0.357633	0.082453
C98	C	1.573314	0.142367	0.582453
C99	C	1.122905	-0.308047	0.833671
C100	C	1.622905	0.191953	1.333671
C101	C	1.055171	-0.289866	0.883057
C102	C	1.555171	0.210134	1.383057
C103	C	1.073250	-0.357657	0.785332
C104	C	1.573250	0.142343	1.285332
C105	C	1.141011	-0.375791	0.883028
C106	C	1.641011	0.124209	1.383028
C107	C	1.073285	-0.357643	0.931317
C108	C	1.573285	0.142357	1.431317
C109	C	1.005481	-0.339441	0.833631
C110	C	1.505481	0.160559	1.333631
C111	C	1.091367	-0.425397	0.833598
C112	C	1.591367	0.074603	1.333598
C113	C	1.023586	-0.407242	0.882962
C114	C	1.523586	0.092758	1.382962
C115	C	1.073231	-0.357663	0.701234
C116	C	1.573231	0.142337	1.201234
C117	C	1.073296	-0.357637	1.015414
C118	C	1.573296	0.142363	1.515414
H119	H	0.527176	-0.232801	0.391625
H120	H	1.027176	0.267199	0.891625
C121	C	0.627418	-0.319210	0.502052
C122	C	1.127418	0.180790	1.002052
C123	C	0.671196	-0.255387	0.496712
C124	C	1.171196	0.244613	0.996712
C125	C	0.698044	-0.236464	0.567006
C126	C	1.198044	0.263536	1.067006
H127	H	0.586956	-0.310051	0.534413
H128	H	1.086956	0.189949	1.034413
H129	H	0.656411	-0.358828	0.520992
H130	H	1.156411	0.141172	1.020992
H131	H	0.642204	-0.215778	0.477782
H132	H	1.142204	0.284222	0.977782
H133	H	0.711668	-0.264529	0.464365
H134	H	1.211668	0.235471	0.964365
H135	H	0.727036	-0.276082	0.585946
H136	H	1.227036	0.223918	1.085946
H137	H	0.657578	-0.227308	0.599361
H138	H	1.157578	0.272692	1.099361
H139	H	0.727755	-0.193163	0.563391
H140	H	1.227755	0.306837	1.063391
C141	C	1.217304	-0.803548	0.396601
C142	C	1.717304	-0.303548	0.896601
C143	C	1.245165	-0.760941	0.338103
C144	C	1.745165	-0.260941	0.838103
C145	C	1.315514	-0.734145	0.356888
C146	C	1.815514	-0.234145	0.856888
H147	H	1.213813	-0.773772	0.439865
H148	H	1.713813	-0.273772	0.939865
H149	H	1.249623	-0.844054	0.405749
H150	H	1.749623	-0.344054	0.905749
H151	H	1.212854	-0.720441	0.328964
H152	H	1.712854	-0.220441	0.828964
H153	H	1.248674	-0.790701	0.294834
H154	H	1.748674	-0.290701	0.794834
H155	H	1.347833	-0.774651	0.366036
H156	H	1.847833	-0.274651	0.866036
H157	H	1.312016	-0.704372	0.400152
H158	H	1.812016	-0.204372	0.900152
H159	H	1.334429	-0.705239	0.317198
H160	H	1.834429	-0.205239	0.817198
C161	C	0.967415	-0.803883	0.463253
C162	C	1.467415	-0.303883	0.963253
C163	C	0.896613	-0.828978	0.443835
C164	C	1.396613	-0.328978	0.943835
C165	C	0.844869	-0.802409	0.495134
C166	C	1.344869	-0.302409	0.995134
H167	H	0.979702	-0.821461	0.511301
H168	H	1.479702	-0.321461	1.011301
H169	H	0.968047	-0.751254	0.463164
H170	H	1.468047	-0.251254	0.963164
H171	H	0.895984	-0.881596	0.443932
H172	H	1.395984	-0.381596	0.943932
H173	H	0.884303	-0.811402	0.395795
H174	H	1.384303	-0.311402	0.895795
H175	H	0.845500	-0.749780	0.495046
H176	H	1.345500	-0.249780	0.995046
H177	H	0.857162	-0.819989	0.543180
H178	H	1.357162	-0.319989	1.043180
H179	H	0.796823	-0.819426	0.481963
H180	H	1.296823	-0.319426	0.981963
H181	H	0.619880	-0.266162	0.266503
H182	H	1.119880	0.233838	0.766503
H183	H	0.619791	-0.482850	0.324134
H184	H	1.119791	0.017150	0.824134
C185	C	0.967438	-0.463077	0.911607
C186	C	1.467438	0.036923	1.411607
C187	C	0.896657	-0.443741	0.886457
C188	C	1.396657	0.056259	1.386457
C189	C	0.844912	-0.495149	0.912839
C190	C	1.344912	0.004851	1.412839
H191	H	0.979785	-0.511087	0.893939
H192	H	1.479785	-0.011087	1.393939
H193	H	0.967994	-0.463046	0.964237
H194	H	1.467994	0.036954	1.464237
H195	H	0.896103	-0.443780	0.833837
H196	H	1.396103	0.056220	1.333837
H197	H	0.884287	-0.395739	0.904122
H198	H	1.384287	0.104261	1.404122
H199	H	0.845469	-0.495118	0.965470
H200	H	1.345469	0.004882	1.465470
H201	H	0.857266	-0.543156	0.895170
H202	H	1.357266	-0.043156	1.395170
H203	H	0.796881	-0.482032	0.895785
H204	H	1.296881	0.017968	1.395785
H205	H	1.198301	-0.391133	0.904728
H206	H	1.698301	0.108867	1.404728
H207	H	0.948201	-0.903959	0.324371
H208	H	1.448201	-0.403959	0.824371
C209	C	1.111896	-0.910860	0.502137
C210	C	1.611896	-0.410860	1.002137
C211	C	1.182321	-0.884695	0.521512
C212	C	1.682321	-0.384695	1.021512
C213	C	1.201296	-0.911230	0.591876
C214	C	1.701296	-0.411230	1.091876
H215	H	1.076641	-0.893987	0.537363
H216	H	1.576641	-0.393987	1.037363
H217	H	1.112262	-0.963488	0.501494
H218	H	1.612262	-0.463488	1.001494
H219	H	1.181950	-0.832078	0.522161
H220	H	1.681950	-0.332078	1.022161
H221	H	1.217591	-0.901565	0.486305
H222	H	1.717591	-0.401565	0.986305
H223	H	1.201662	-0.963858	0.591233
H224	H	1.701662	-0.463858	1.091233
H225	H	1.166036	-0.894356	0.627096
H226	H	1.666036	-0.394356	1.127096
H227	H	1.249083	-0.893486	0.605028
H228	H	1.749083	-0.393486	1.105028
C229	C	1.111657	-0.501793	0.804561
C230	C	1.611657	-0.001793	1.304561
C231	C	1.053109	-0.529631	0.761918
C232	C	1.553109	-0.029631	1.261918
C233	C	1.071779	-0.600009	0.735164
C234	C	1.571779	-0.100009	1.235164
H235	H	1.154922	-0.498351	0.774819
H236	H	1.654922	0.001649	1.274819
H237	H	1.120760	-0.534098	0.845087
H238	H	1.620760	-0.034098	1.345087
H239	H	1.044016	-0.497334	0.721398
H240	H	1.544016	0.002666	1.221398
H241	H	1.009839	-0.533091	0.791644
H242	H	1.509839	-0.033091	1.291644
H243	H	1.080882	-0.632313	0.775690
H244	H	1.580882	-0.132313	1.275690
H245	H	1.115045	-0.596560	0.705425
H246	H	1.615045	-0.096560	1.205425
H247	H	1.032055	-0.618908	0.706234
H248	H	1.532055	-0.118908	1.206234
C249	C	1.178707	-0.251958	0.804842
C250	C	1.678707	0.248042	1.304842
C251	C	1.159405	-0.181126	0.829890
C252	C	1.659405	0.318874	1.329890
C253	C	1.210782	-0.129437	0.803339
C254	C	1.710782	0.370563	1.303339
H255	H	1.226738	-0.264272	0.822463
H256	H	1.726738	0.235728	1.322463
H257	H	1.178609	-0.252620	0.752213
H258	H	1.678609	0.247380	1.252213
H259	H	1.159511	-0.180466	0.882509
H260	H	1.659511	0.319534	1.382509
H261	H	1.111382	-0.168789	0.812271
H262	H	1.611382	0.331211	1.312271
H263	H	1.210685	-0.130099	0.750710
H264	H	1.710685	0.369901	1.250710
H265	H	1.258811	-0.141758	0.820962
H266	H	1.758811	0.358242	1.320962
H267	H	1.197690	-0.081371	0.820324
H268	H	1.697690	0.418629	1.320324
C269	C	1.178751	-0.910870	0.252369
C270	C	1.678751	-0.410870	0.752369
C271	C	1.142268	-0.954595	0.199652
C272	C	1.642268	-0.454595	0.699652
C273	C	1.193721	-0.981157	0.148057
C274	C	1.693721	-0.481157	0.648057
H275	H	1.202101	-0.870276	0.228380
H276	H	1.702101	-0.370276	0.728380
H277	H	1.215048	-0.939836	0.277123
H278	H	1.715048	-0.439836	0.777123
H279	H	1.105984	-0.925630	0.174901
H280	H	1.605984	-0.425630	0.674901
H281	H	1.118922	-0.995199	0.223620
H282	H	1.618922	-0.495199	0.723620
H283	H	1.230019	-1.010123	0.172810
H284	H	1.730019	-0.510123	0.672810
H285	H	1.217068	-0.940560	0.124073
H286	H	1.717068	-0.440560	0.624073
H287	H	1.168977	-1.010833	0.112287
H288	H	1.668977	-0.510833	0.612287
H289	H	0.527065	-0.391146	0.232844
H290	H	1.027065	0.108854	0.732844
C291	C	1.034520	-0.803895	0.213782
C292	C	1.534520	-0.303895	0.713782
C293	C	1.034674	-0.726333	0.214678
C294	C	1.534674	-0.226333	0.714678
C295	C	1.015751	-0.699705	0.144336
C296	C	1.515751	-0.199705	0.644336
H297	H	1.069542	-0.821100	0.178484
H298	H	1.569542	-0.321100	0.678484
H299	H	0.986545	-0.821232	0.200760
H300	H	1.486545	-0.321232	0.700760
H301	H	1.082641	-0.709004	0.227691
H302	H	1.582641	-0.209004	0.727691
H303	H	0.999651	-0.709109	0.249960
H304	H	1.499651	-0.209109	0.749960
H305	H	0.967776	-0.717041	0.131314
H306	H	1.467776	-0.217041	0.631314
H307	H	1.050775	-0.716915	0.109044
H308	H	1.550775	-0.216915	0.609044
H309	H	1.015846	-0.647077	0.144936
H310	H	1.515846	-0.147077	0.644936
C311	C	0.520236	-0.463700	0.463237
C312	C	1.020236	0.036300	0.963237
C313	C	0.545350	-0.534461	0.443783
C314	C	1.045350	-0.034461	0.943783
C315	C	0.518950	-0.586245	0.495119
C316	C	1.018950	-0.086245	0.995119
H317	H	0.537915	-0.451375	0.511261
H318	H	1.037915	0.048625	1.011261
H319	H	0.467606	-0.463162	0.463223
H320	H	0.967606	0.036838	0.963223
H321	H	0.597969	-0.534997	0.443806
H322	H	1.097969	-0.034997	0.943806
H323	H	0.527673	-0.546810	0.395768
H324	H	1.027673	-0.046810	0.895768
H325	H	0.466320	-0.585706	0.495104
H326	H	0.966320	-0.085706	0.995104
H327	H	0.536631	-0.573912	0.543140
H328	H	1.036631	-0.073912	1.043140
H329	H	0.535981	-0.634262	0.481923
H330	H	1.035981	-0.134262	0.981923
H331	H	0.948174	-0.324031	0.812025
H332	H	1.448174	0.175969	1.312025
H333	H	1.039859	-0.232573	0.904782
H334	H	1.539859	0.267427	1.404782
