data_functionalizedCrystal
_audit_creation_method	'MofGen! by Chris Wilmer'
_symmetry_space_group_name_H-M	'P1'
_symmetry_Int_Tables_number	1
_symmetry_cell_setting	triclinic
loop_
_symmetry_equiv_pos_as_xyz
  x,y,z
_cell_length_a	16.974885
_cell_length_b	16.992695
_cell_length_c	15.455301
_cell_angle_alpha	87.173129
_cell_angle_beta	89.355145
_cell_angle_gamma	92.976847
loop_
_atom_site_label
_atom_site_type_symbol
_atom_site_fract_x
_atom_site_fract_y
_atom_site_fract_z
O1	O	1.055361	-0.099821	-0.001883
O2	O	1.555361	0.400179	0.498117
O3	O	0.826692	-0.113236	0.014156
O4	O	1.326692	0.386764	0.514156
O5	O	0.940110	0.007611	0.006194
O6	O	1.440110	0.507611	0.506194
O7	O	0.941944	-0.220668	0.006079
O8	O	1.441944	0.279332	0.506079
O9	O	0.933554	0.013714	-0.137609
O10	O	1.433554	0.513714	0.362391
O11	O	0.820137	-0.107133	-0.129647
O12	O	1.320137	0.392867	0.370353
O13	O	1.048806	-0.093718	-0.145686
O14	O	1.548806	0.406282	0.354314
Cu15	Cu	0.933873	-0.099868	-0.150797
Cu16	Cu	1.433873	0.400132	0.349203
Cu17	Cu	0.941625	-0.107086	0.019267
Cu18	Cu	1.441625	0.392914	0.519267
O19	O	0.935388	-0.214564	-0.137724
O20	O	1.435388	0.285436	0.362276
C21	C	0.794020	-0.109788	-0.055684
C22	C	1.294020	0.390212	0.444316
C23	C	0.706432	-0.108599	-0.049540
C24	C	1.206432	0.391401	0.450460
C25	C	0.213795	-0.102240	-0.006486
C26	C	0.713795	0.397760	0.493514
C27	C	0.296092	-0.103357	-0.012270
C28	C	0.796092	0.396643	0.487730
C29	C	0.333659	-0.100594	-0.093550
C30	C	0.833659	0.399406	0.406450
C31	C	0.288925	-0.096706	-0.169051
C32	C	0.788925	0.403294	0.330949
C33	C	0.206629	-0.095584	-0.163266
C34	C	0.706629	0.404416	0.336734
C35	C	0.579402	-0.103589	-0.119256
C36	C	1.079402	0.396411	0.380744
C37	C	0.661703	-0.104714	-0.125035
C38	C	1.161703	0.395286	0.374965
C39	C	0.668866	-0.111363	0.031746
C40	C	1.168866	0.388637	0.531746
C41	C	0.586568	-0.110245	0.037523
C42	C	1.086568	0.389755	0.537523
C43	C	0.541841	-0.106353	-0.037977
C44	C	1.041841	0.393647	0.462023
N45	N	0.417780	-0.101738	-0.099464
N46	N	0.917780	0.398262	0.400536
N47	N	0.457722	-0.105204	-0.032063
N48	N	0.957722	0.394796	0.467937
C49	C	0.934473	0.039865	-0.065542
C50	C	1.434473	0.539865	0.434458
C51	C	0.927436	0.126881	-0.065048
C52	C	1.427436	0.626881	0.434952
C53	C	1.081478	-0.097165	-0.075844
C54	C	1.581478	0.402835	0.424156
C55	C	1.169066	-0.098355	-0.081982
C56	C	1.669066	0.401645	0.418018
N57	N	0.928425	-0.094791	-0.270411
N58	N	1.428425	0.405209	0.229589
C59	C	0.941025	-0.246819	-0.065986
C60	C	1.441025	0.253181	0.434014
C61	C	0.948062	-0.333835	-0.066474
C62	C	1.448062	0.166165	0.433526
C63	C	0.995334	0.177399	-0.069811
C64	C	1.495334	0.677399	0.430189
C65	C	0.988718	0.259158	-0.069339
C66	C	1.488718	0.759158	0.430661
C67	C	0.914203	0.290398	-0.064109
C68	C	1.414203	0.790398	0.435891
C69	C	0.846300	0.239873	-0.059343
C70	C	1.346300	0.739873	0.440657
C71	C	0.852917	0.158116	-0.059809
C72	C	1.352917	0.658116	0.440191
C73	C	0.886776	0.533883	-0.062174
C74	C	1.386776	1.033883	0.437826
C75	C	0.880164	0.615648	-0.061711
C76	C	1.380164	1.115648	0.438289
C77	C	1.022583	0.634926	-0.071705
C78	C	1.522583	1.134926	0.428295
C79	C	1.029193	0.553166	-0.072176
C80	C	1.529193	1.053166	0.427824
C81	C	0.961291	0.502649	-0.067405
C82	C	1.461291	1.002649	0.432595
N83	N	0.907438	0.373969	-0.063629
N84	N	1.407438	0.873969	0.436371
N85	N	0.968057	0.419079	-0.067879
N86	N	1.468057	0.919079	0.432121
C87	C	0.977159	-0.140249	-0.319217
C88	C	1.477159	0.359751	0.180783
C89	C	0.973050	-0.136404	-0.409737
C90	C	1.473050	0.363596	0.090263
C91	C	0.920202	-0.087105	-0.451449
C92	C	1.420202	0.412895	0.048551
C93	C	0.871467	-0.041642	-0.402637
C94	C	1.371467	0.458358	0.097363
C95	C	0.875581	-0.045483	-0.312119
C96	C	1.375581	0.454517	0.187881
C97	C	0.902456	-0.070534	-0.721788
C98	C	1.402456	0.429466	-0.221788
C99	C	0.898345	-0.066698	-0.812313
C100	C	1.398345	0.433302	-0.312313
C101	C	0.999929	-0.161460	-0.819407
C102	C	1.499929	0.338540	-0.319407
C103	C	1.004035	-0.165300	-0.728886
C104	C	1.504035	0.334700	-0.228886
C105	C	0.955302	-0.119834	-0.680082
C106	C	1.455302	0.380166	-0.180082
N107	N	0.915999	-0.083176	-0.543975
N108	N	1.415999	0.416824	-0.043975
N109	N	0.959510	-0.123759	-0.587558
N110	N	1.459510	0.376241	-0.087558
N111	N	0.947078	-0.112157	0.138881
N112	N	1.447078	0.387843	0.638881
H113	H	0.183214	-0.104495	0.059700
H114	H	0.683214	0.395505	0.559700
H115	H	0.319518	-0.094452	-0.235231
H116	H	0.819518	0.405548	0.264769
H117	H	0.542996	-0.100408	-0.180735
H118	H	1.042996	0.399592	0.319265
C119	C	0.821971	0.004515	-0.258428
C120	C	1.321971	0.504515	0.241572
H121	H	0.831994	-0.004828	-0.198546
H122	H	1.331994	0.495172	0.301454
H123	H	0.768290	-0.009609	-0.269553
H124	H	1.268290	0.490391	0.230447
H125	H	0.832568	0.058836	-0.274055
H126	H	1.332568	0.558836	0.225945
H127	H	0.170211	-0.092428	-0.224743
H128	H	0.670211	0.407572	0.275257
H129	H	0.855306	-0.026553	-0.846272
H130	H	1.355306	0.473447	-0.346272
C131	C	0.345290	-0.107635	0.070775
C132	C	0.845290	0.392365	0.570775
H133	H	0.311129	-0.109130	0.120010
H134	H	0.811129	0.390870	0.620010
H135	H	0.380677	-0.062502	0.071557
H136	H	0.880677	0.437498	0.571557
H137	H	0.374407	-0.153925	0.071998
H138	H	0.874407	0.346075	0.571998
H139	H	0.555987	-0.112494	0.103710
H140	H	1.055987	0.387506	0.603710
H141	H	0.705291	-0.114531	0.093214
H142	H	1.205291	0.385469	0.593214
C143	C	0.703029	-0.101673	-0.214445
C144	C	1.203029	0.398327	0.285555
H145	H	0.758447	-0.102909	-0.207073
H146	H	1.258447	0.397091	0.292927
H147	H	0.691211	-0.054414	-0.245932
H148	H	1.191211	0.445586	0.254068
H149	H	0.684934	-0.145837	-0.245481
H150	H	1.184934	0.354163	0.254519
C151	C	1.063405	0.314725	-0.074587
C152	C	1.563405	0.814725	0.425413
H153	H	1.108730	0.284410	-0.077781
H154	H	1.608730	0.784410	0.422219
H155	H	1.066078	0.344889	-0.024468
H156	H	1.566078	0.844889	0.475532
H157	H	1.061491	0.349149	-0.124767
H158	H	1.561491	0.849149	0.375233
C159	C	1.053535	-0.211466	-0.873089
C160	C	1.553535	0.288534	-0.373089
H161	H	1.085594	-0.241380	-0.835281
H162	H	1.585594	0.258620	-0.335281
H163	H	1.086180	-0.177720	-0.910801
H164	H	1.586180	0.322280	-0.410801
H165	H	1.021901	-0.246163	-0.906293
H166	H	1.521901	0.253837	-0.406293
C167	C	1.097271	0.690492	-0.076943
C168	C	1.597271	1.190492	0.423057
H169	H	1.142596	0.660177	-0.080129
H170	H	1.642596	1.160177	0.419871
H171	H	1.099937	0.720655	-0.026822
H172	H	1.599937	1.220655	0.473178
H173	H	1.095365	0.724918	-0.127123
H174	H	1.595365	1.224918	0.372877
H175	H	1.056012	0.151970	-0.074075
H176	H	1.556012	0.651970	0.425925
C177	C	1.111160	0.518807	-0.077917
C178	C	1.611160	1.018807	0.422083
H179	H	1.150652	0.560604	-0.080677
H180	H	1.650652	1.060604	0.419323
H181	H	1.114420	0.489443	-0.128451
H182	H	1.614420	0.989443	0.371549
H183	H	1.118983	0.485185	-0.028150
H184	H	1.618983	0.985185	0.471850
H185	H	1.012735	-0.173420	-0.449471
H186	H	1.512735	0.326580	0.050529
H187	H	0.819481	0.641080	-0.057466
H188	H	1.319481	1.141080	0.442534
C189	C	0.812086	0.478325	-0.056941
C190	C	1.312086	0.978325	0.443059
H191	H	0.766761	0.508643	-0.053772
H192	H	1.266761	1.008643	0.446228
H193	H	0.813985	0.443896	-0.006770
H194	H	1.313985	0.943896	0.493230
H195	H	0.809423	0.448166	-0.107071
H196	H	1.309423	0.948166	0.392929
C197	C	0.764335	0.274236	-0.053593
C198	C	1.264335	0.774236	0.446407
H199	H	0.770116	0.330163	-0.054008
H200	H	1.270116	0.830163	0.445992
H201	H	0.738445	0.254745	-0.001471
H202	H	1.238445	0.754745	0.498529
H203	H	0.733878	0.259005	-0.101772
H204	H	1.233878	0.759005	0.398228
H205	H	0.797627	0.116984	-0.055930
H206	H	1.297627	0.616984	0.444070
H207	H	1.020189	-0.180399	-0.285261
H208	H	1.520189	0.319601	0.214739
C209	C	1.062167	-0.219530	-0.683009
C210	C	1.562167	0.280470	-0.183009
H211	H	1.090607	-0.246050	-0.725041
H212	H	1.590607	0.253950	-0.225041
H213	H	1.033743	-0.257216	-0.645595
H214	H	1.533743	0.242784	-0.145595
H215	H	1.098024	-0.188775	-0.650096
H216	H	1.598024	0.311225	-0.150096
H217	H	0.862775	-0.033511	-0.682063
H218	H	1.362775	0.466489	-0.182063
C219	C	0.813334	0.012585	-0.448518
C220	C	1.313334	0.512585	0.051482
H221	H	0.817857	0.008356	-0.509418
H222	H	1.317857	0.508356	-0.009418
H223	H	0.825273	0.065643	-0.434479
H224	H	1.325273	0.565643	0.065521
H225	H	0.761000	-0.002805	-0.429971
H226	H	1.261000	0.497195	0.070029
