data_functionalizedCrystal
_audit_creation_method	'MofGen! by Chris Wilmer'
_symmetry_space_group_name_H-M	'P1'
_symmetry_Int_Tables_number	1
_symmetry_cell_setting	triclinic
loop_
_symmetry_equiv_pos_as_xyz
  x,y,z
_cell_length_a	23.096457
_cell_length_b	23.096457
_cell_length_c	23.096457
_cell_angle_alpha	60.008701
_cell_angle_beta	90.011236
_cell_angle_gamma	59.998679
loop_
_atom_site_label
_atom_site_type_symbol
_atom_site_fract_x
_atom_site_fract_y
_atom_site_fract_z
Zr1	Zr	0.557774	0.633717	-0.075967
O2	O	0.465305	0.754507	-0.168410
O3	O	0.586119	0.512930	-0.047632
O4	O	0.586093	0.633718	-0.168418
O5	O	0.465353	0.633717	0.047658
O6	O	0.681375	0.633716	-0.168420
O7	O	0.465330	0.633719	-0.047624
O8	O	0.681421	0.417648	0.047644
O9	O	0.465307	0.849785	-0.168406
O10	O	0.669318	0.562609	-0.035544
O11	O	0.598227	0.562609	0.035565
O12	O	0.598197	0.704822	-0.106645
O13	O	0.527105	0.704822	-0.035535
Zr14	Zr	0.709774	0.633711	0.075994
Zr15	Zr	0.709738	0.633714	-0.075970
Zr16	Zr	0.557810	0.633715	0.075997
Zr17	Zr	0.557778	0.785675	-0.075961
Zr18	Zr	0.709771	0.481754	0.075987
O19	O	0.681430	0.754498	0.047658
O20	O	0.681378	0.754502	-0.168415
O21	O	0.465356	0.754503	0.047663
O22	O	0.802244	0.512921	0.168437
O23	O	0.802192	0.512925	-0.047636
O24	O	0.586170	0.512927	0.168441
O25	O	0.802195	0.633711	-0.047631
O26	O	0.681455	0.633710	0.168444
O27	O	0.586173	0.633712	0.168446
O28	O	0.802218	0.633709	0.047651
O29	O	0.586099	0.849782	-0.168408
O30	O	0.681450	0.417646	0.168435
O31	O	0.802241	0.417643	0.168433
O32	O	0.802213	0.417645	0.047642
O33	O	0.465336	0.849783	-0.047615
O34	O	0.586127	0.849780	-0.047618
O35	O	0.669352	0.562607	0.106671
O36	O	0.740443	0.562606	0.035562
O37	O	0.669322	0.704819	-0.035538
O38	O	0.598230	0.704819	0.035571
C39	C	0.633769	0.443639	0.000005
C40	C	0.633768	0.379129	0.000003
C41	C	0.670872	0.348828	-0.037118
C42	C	0.670879	0.288205	-0.037113
C43	C	0.633768	0.257898	0.000005
C44	C	0.596662	0.288203	0.037134
C45	C	0.596662	0.348819	0.037133
N46	N	0.573361	0.195504	-0.005141
N47	N	0.573362	0.137923	-0.005144
C48	C	0.633767	0.075266	0.000011
N49	N	0.694169	0.072372	0.005155
N50	N	0.694166	0.129961	0.005154
C51	C	0.633764	0.192170	0.000010
C52	C	0.670882	-0.020770	-0.037105
C53	C	0.670891	-0.081397	-0.037094
C54	C	0.596667	-0.081391	0.037147
C55	C	0.596665	-0.020771	0.037141
C56	C	0.633771	0.009539	0.000011
C57	C	0.443690	0.633719	0.000017
C58	C	0.379177	0.633720	0.000019
C59	C	0.348862	0.633727	-0.052476
C60	C	0.288250	0.633720	-0.052476
C61	C	0.257947	0.633722	0.000014
C62	C	0.288272	0.633710	0.052518
C63	C	0.348887	0.633709	0.052520
N64	N	0.139600	0.680076	0.015907
N65	N	0.082017	0.680079	0.015900
C66	C	0.075317	0.633722	0.000010
N67	N	0.128371	0.587373	-0.015887
N68	N	0.185957	0.587374	-0.015883
C69	C	0.192220	0.633722	0.000017
C70	C	-0.020720	0.633720	-0.052488
C71	C	-0.081331	0.633707	-0.052483
C72	C	-0.081312	0.633706	0.052508
C73	C	-0.020698	0.633710	0.052506
C74	C	0.009592	0.633721	0.000004
C75	C	0.823858	0.633710	0.000009
C76	C	0.888371	0.633708	0.000008
C77	C	0.633729	0.633717	-0.190070
C78	C	0.633714	0.633718	-0.254583
C79	C	0.633779	0.823790	0.000021
C80	C	0.633781	0.888299	0.000024
C81	C	0.596593	0.707950	-0.322000
C82	C	0.596611	0.707951	-0.382617
C83	C	0.633740	0.633716	-0.375812
C84	C	0.670870	0.559475	-0.308382
C85	C	0.670856	0.559476	-0.247768
N86	N	0.628616	0.578461	-0.443369
N87	N	0.628625	0.578465	-0.500953
C88	C	0.633784	0.633709	-0.558437
N89	N	0.638920	0.688962	-0.556168
N90	N	0.638907	0.688960	-0.498580
C91	C	0.633759	0.633707	-0.441533
C92	C	0.596681	0.707947	-0.691584
C93	C	0.596704	0.707945	-0.752200
C94	C	0.670958	0.559467	-0.677963
C95	C	0.670939	0.559471	-0.617350
C96	C	0.633797	0.633713	-0.624165
C97	C	0.633819	0.633711	0.190097
C98	C	0.633835	0.633710	0.254609
C99	C	0.823854	0.443634	0.000001
C100	C	0.888365	0.379123	-0.000003
C101	C	0.633815	0.443635	0.190089
C102	C	0.633828	0.379124	0.254599
C103	C	0.823899	0.443631	0.190085
C104	C	0.888425	0.379118	0.254593
C105	C	0.443650	0.823797	-0.190058
C106	C	0.379123	0.888310	-0.254567
C107	C	0.443695	0.823794	0.000025
C108	C	0.379184	0.888306	0.000029
C109	C	0.633734	0.823793	-0.190062
C110	C	0.633720	0.888304	-0.254572
C111	C	0.881533	0.348829	-0.037128
C112	C	0.942143	0.288222	-0.037146
C113	C	1.009583	0.257906	-0.000034
C114	C	1.016413	0.288206	0.037092
C115	C	0.955804	0.348815	0.037105
C116	C	0.670961	0.348828	0.322016
C117	C	0.670971	0.288222	0.382636
C118	C	0.633852	0.257909	0.375837
C119	C	0.596715	0.288211	0.308412
C120	C	0.596701	0.348821	0.247794
C121	C	0.955843	0.348822	0.247769
C122	C	1.016478	0.288214	0.308376
C123	C	1.009694	0.257900	0.375806
C124	C	0.942270	0.288202	0.382629
C125	C	0.881636	0.348812	0.322023
C126	C	0.311706	0.918613	-0.247742
C127	C	0.251070	0.979240	-0.308349
C128	C	0.257854	1.009558	-0.375780
C129	C	0.325279	0.979252	-0.382603
C130	C	0.385913	0.918631	-0.321997
C131	C	0.386015	0.918606	0.037148
C132	C	0.325406	0.979229	0.037150
C133	C	0.257966	1.009548	0.000036
C134	C	0.251136	0.979245	-0.037088
C135	C	0.311744	0.918627	-0.037093
C136	C	0.670846	0.918597	-0.247750
C137	C	0.670847	0.979204	-0.308358
C138	C	0.633718	1.009520	-0.375788
C139	C	0.596590	0.979221	-0.382608
C140	C	0.596594	0.918611	-0.322001
H141	H	0.566446	0.373490	0.067361
H142	H	0.208620	1.058907	0.000046
H143	H	0.566447	0.263523	0.067355
N144	N	0.963170	0.381505	0.175045
H145	H	1.015084	0.353109	0.179929
H146	H	0.939629	0.442353	0.148277
H147	H	0.263562	0.633725	-0.095225
N148	N	0.934760	0.255553	-0.077192
H149	H	0.907990	0.230404	-0.057713
H150	H	0.983407	0.212592	-0.071567
N151	N	-0.114035	0.633718	-0.109106
H152	H	-0.113934	0.583233	-0.086211
H153	H	-0.085627	0.633758	-0.142347
N154	N	0.556543	0.885948	-0.329371
H155	H	0.504616	0.932206	-0.356151
H156	H	0.562228	0.842939	-0.280727
N157	N	1.089194	0.255538	0.301007
H158	H	1.084285	0.283936	0.249093
H159	H	1.115969	0.194690	0.324539
H160	H	0.566478	0.768395	-0.807096
N161	N	0.381532	0.633738	-0.109100
H162	H	0.353127	0.633741	-0.142356
H163	H	0.431930	0.583253	-0.086149
N164	N	0.255586	0.633721	0.109127
H165	H	0.283991	0.633717	0.142385
H166	H	0.255682	0.583238	0.136652
H167	H	0.003984	0.633710	0.095250
H168	H	0.566465	0.373480	0.192901
H169	H	1.059072	0.208546	0.425150
N170	N	1.074952	0.192526	-0.000043
H171	H	1.104126	0.213616	-0.021169
H172	H	1.060329	0.177961	-0.029182
N173	N	1.089153	0.255504	0.077117
H174	H	1.126506	0.212510	0.071473
H175	H	1.094786	0.230391	0.129026
N176	N	0.556564	0.788021	-0.455339
H177	H	0.519220	0.791321	-0.482151
H178	H	0.590655	0.791288	-0.482076
N179	N	0.710887	0.255520	-0.077161
H180	H	0.748247	0.194674	-0.043126
H181	H	0.734348	0.283976	-0.100684
N182	N	0.633883	0.192526	0.441223
H183	H	0.604737	0.177913	0.426691
H184	H	0.612788	0.213670	0.470372
H185	H	0.701087	0.373502	-0.067350
N186	N	0.556540	1.011927	-0.455338
H187	H	0.576001	0.965691	-0.461031
H188	H	0.562186	1.054933	-0.492646
N189	N	0.808926	0.381468	0.329398
H190	H	0.782121	0.370911	0.305911
H191	H	0.782159	0.442305	0.305921
H192	H	0.701190	0.499024	-0.672421
H193	H	0.936757	0.263510	0.437539
N194	N	0.332587	1.011951	-0.455334
H195	H	0.384496	0.983559	-0.450469
H196	H	0.309048	1.072798	-0.482095
N197	N	0.178395	1.011936	-0.077102
H198	H	0.141042	1.054927	-0.071454
H199	H	0.172791	0.965637	-0.057599
N200	N	0.304378	0.885917	-0.175018
H201	H	0.252465	0.914323	-0.179902
H202	H	0.327922	0.896459	-0.148249
N203	N	0.458622	0.885944	-0.329372
H204	H	0.485424	0.825100	-0.305890
H205	H	0.485393	0.896536	-0.305892
N206	N	0.178354	1.011918	-0.300981
H207	H	0.183263	0.983502	-0.249066
H208	H	0.151576	1.001377	-0.324516
H209	H	0.961376	0.373473	0.067341
H210	H	0.306172	0.893958	-0.067317
H211	H	0.330981	1.003891	0.067382
N212	N	0.710913	-0.114076	-0.077137
H213	H	0.676860	-0.103533	-0.114483
H214	H	0.748277	-0.174911	-0.043051
N215	N	0.381594	0.633692	0.109147
H216	H	0.353205	0.633686	0.142404
H217	H	0.381497	0.684175	0.086200
H218	H	0.701098	0.003907	-0.067336
N219	N	0.192453	1.074942	-0.441145
H220	H	0.148717	1.089532	-0.426583
H221	H	0.192474	1.053804	-0.470295
H222	H	0.566451	-0.106067	0.067369
H223	H	0.701102	0.499033	-0.302845
N224	N	0.556693	0.255500	0.301086
H225	H	0.533165	0.283884	0.249180
H226	H	0.519384	0.266046	0.324623
H227	H	0.701188	0.373502	0.327566
H228	H	0.440923	0.893925	0.067375
H229	H	0.701082	0.893923	-0.192851
N230	N	0.711031	0.255543	0.455352
H231	H	0.734548	0.283940	0.450456
H232	H	0.748351	0.194695	0.482119
H233	H	0.566448	0.003903	0.067366
N234	N	0.710895	1.011875	-0.300992
H235	H	0.734410	0.983475	-0.249078
H236	H	0.676815	1.072723	-0.324523
N237	N	0.808800	0.381516	-0.077157
H238	H	0.781985	0.442363	-0.114503
H239	H	0.782066	0.370903	-0.043063
N240	N	0.633725	1.074885	-0.441154
H241	H	0.662881	1.089470	-0.426594
H242	H	0.583432	1.125148	-0.470306
H243	H	-0.105981	0.633703	0.095249
N244	N	0.011958	0.633728	-0.109109
H245	H	-0.016444	0.633724	-0.142362
H246	H	0.062356	0.583245	-0.086155
H247	H	0.566351	0.768403	-0.327556
H248	H	0.701085	0.499026	-0.192872
H249	H	0.566437	0.768399	-0.697134
H250	H	0.701164	0.499024	-0.562454
