data_functionalizedCrystal
_audit_creation_method	'MofGen! by Chris Wilmer'
_symmetry_space_group_name_H-M	'P1'
_symmetry_Int_Tables_number	1
_symmetry_cell_setting	triclinic
loop_
_symmetry_equiv_pos_as_xyz
  x,y,z
_cell_length_a	8.559649
_cell_length_b	13.596369
_cell_length_c	8.559649
_cell_angle_alpha	89.995606
_cell_angle_beta	69.778664
_cell_angle_gamma	89.994083
loop_
_atom_site_label
_atom_site_type_symbol
_atom_site_fract_x
_atom_site_fract_y
_atom_site_fract_z
O1	O	-2.126883	0.081792	0.055032
O2	O	-1.651398	0.081792	-0.028749
O3	O	-1.931031	0.081791	0.250884
O4	O	-1.847250	0.081793	-0.224601
O5	O	-1.931008	-0.081792	0.250894
O6	O	-1.651375	-0.081791	-0.028739
O7	O	-2.126860	-0.081791	0.055043
Zn8	Zn	-1.889113	-0.107763	0.013154
Zn9	Zn	-1.889144	0.107765	0.013140
O10	O	-1.847227	-0.081790	-0.224590
C11	C	-1.591077	0.000001	-0.035093
C12	C	-1.411378	0.000001	-0.053992
N13	N	-1.889105	-0.254855	0.013165
C14	C	-1.889142	-0.656146	0.013138
C15	C	-1.889126	-0.544494	0.013140
C16	C	-1.889124	-0.455504	0.013151
C17	C	-1.889107	-0.343845	0.013154
C18	C	-1.187180	0.000001	0.061387
C19	C	-1.366879	0.000001	0.080286
C20	C	-1.937369	0.000002	0.311198
C21	C	-1.956268	0.000007	0.490898
N22	N	-1.889167	0.254856	0.013143
C23	C	-1.840889	0.000002	-0.284904
C24	C	-1.821990	0.000003	-0.464604
H25	H	-1.311990	0.000006	-0.183420
N26	N	-2.127709	0.000002	0.622544
H27	H	-2.190324	0.060644	0.609638
H28	H	-2.190168	-0.060677	0.609559
H29	H	-1.692570	0.000000	0.436018
H30	H	-1.466258	0.000006	0.209705
