data_functionalizedCrystal
_audit_creation_method	'MofGen! by Chris Wilmer'
_symmetry_space_group_name_H-M	'P1'
_symmetry_Int_Tables_number	1
_symmetry_cell_setting	triclinic
loop_
_symmetry_equiv_pos_as_xyz
  x,y,z
_cell_length_a	17.699083
_cell_length_b	22.010155
_cell_length_c	17.699104
_cell_angle_alpha	89.990213
_cell_angle_beta	83.287266
_cell_angle_gamma	90.002416
loop_
_atom_site_label
_atom_site_type_symbol
_atom_site_fract_x
_atom_site_fract_y
_atom_site_fract_z
O1	O	1.004089	0.050433	0.095700
O2	O	1.337422	0.383766	0.429033
O3	O	1.670755	0.717099	0.762366
O4	O	0.783711	0.050451	0.108152
O5	O	1.117044	0.383785	0.441485
O6	O	1.450378	0.717118	0.774819
O7	O	0.900118	0.050446	-0.008262
O8	O	1.233451	0.383779	0.325071
O9	O	1.566784	0.717113	0.658404
O10	O	0.887682	0.050438	0.212114
O11	O	1.221015	0.383771	0.545447
O12	O	1.554348	0.717105	0.878781
O13	O	0.900097	-0.050604	-0.008245
O14	O	1.233430	0.282729	0.325089
O15	O	1.566763	0.616062	0.658422
O16	O	0.783690	-0.050599	0.108170
O17	O	1.117023	0.282734	0.441503
O18	O	1.450357	0.616068	0.774836
O19	O	1.004067	-0.050618	0.095717
O20	O	1.337401	0.282716	0.429051
O21	O	1.670734	0.616049	0.762384
Cu22	Cu	0.893877	-0.059835	0.101945
Cu23	Cu	1.227210	0.273498	0.435278
Cu24	Cu	1.560543	0.606832	0.768612
Cu25	Cu	0.893902	0.059669	0.101924
Cu26	Cu	1.227235	0.393002	0.435258
Cu27	Cu	1.560568	0.726335	0.768591
O28	O	0.887661	-0.050612	0.212131
O29	O	1.220994	0.282721	0.545465
O30	O	1.554327	0.616054	0.878798
C31	C	0.755503	-0.000071	0.107715
C32	C	1.088837	0.333262	0.441048
C33	C	1.422170	0.666596	0.774381
C34	C	0.671485	-0.000064	0.106376
C35	C	1.004819	0.333270	0.439709
C36	C	1.338152	0.666603	0.773043
N37	N	0.893865	-0.143888	0.101959
N38	N	1.227198	0.189446	0.435292
N39	N	1.560531	0.522779	0.768626
C40	C	0.622869	-0.000066	0.174709
C41	C	0.956203	0.333267	0.508042
C42	C	1.289536	0.666600	0.841375
C43	C	0.543926	-0.000074	0.173447
C44	C	0.877259	0.333259	0.506780
C45	C	1.210593	0.666593	0.840113
C46	C	0.513600	-0.000075	0.103851
C47	C	0.846933	0.333258	0.437184
C48	C	1.180267	0.666592	0.770517
C49	C	0.562222	-0.000074	0.035513
C50	C	0.895555	0.333259	0.368846
C51	C	1.228889	0.666593	0.702179
C52	C	0.641164	-0.000071	0.036776
C53	C	0.974497	0.333263	0.370109
C54	C	1.307831	0.666596	0.703442
C55	C	0.243859	-0.000089	0.030418
C56	C	0.577192	0.333245	0.363751
C57	C	0.910525	0.666578	0.697084
C58	C	0.164911	-0.000090	0.029160
C59	C	0.498244	0.333243	0.362493
C60	C	0.831577	0.666576	0.695826
C61	C	0.146621	-0.000092	0.167088
C62	C	0.479954	0.333241	0.500422
C63	C	0.813287	0.666574	0.833755
C64	C	0.225563	-0.000089	0.168351
C65	C	0.558896	0.333244	0.501685
C66	C	0.892229	0.666578	0.835018
C67	C	0.274178	-0.000091	0.100014
C68	C	0.607511	0.333242	0.433347
C69	C	0.940844	0.666575	0.766680
C70	C	0.359777	-0.000084	0.101383
C71	C	0.693110	0.333249	0.434717
C72	C	1.026444	0.666583	0.768050
C73	C	0.428002	-0.000078	0.102480
C74	C	0.761336	0.333256	0.435814
C75	C	1.094669	0.666589	0.769147
C76	C	0.945450	-0.563669	0.050383
C77	C	1.278783	-0.230336	0.383717
C78	C	1.612116	0.102997	0.717050
C79	C	0.945453	-0.627277	0.050378
C80	C	1.278786	-0.293944	0.383712
C81	C	1.612120	0.039390	0.717045
O82	O	0.989282	-0.660170	0.006537
O83	O	1.322615	-0.326837	0.339870
O84	O	1.655949	0.006496	0.673203
N85	N	0.893901	-0.659095	0.101909
N86	N	1.227235	-0.325761	0.435242
N87	N	1.560568	0.007572	0.768575
C88	C	0.842337	-0.627301	0.153442
C89	C	1.175671	-0.293968	0.486776
C90	C	1.509004	0.039365	0.820109
O91	O	0.798488	-0.660206	0.197272
O92	O	1.131822	-0.326872	0.530605
O93	O	1.465155	0.006461	0.863938
C94	C	0.842331	-0.563695	0.153443
C95	C	1.175664	-0.230362	0.486777
C96	C	1.508998	0.102972	0.820110
C97	C	0.893891	-0.531881	0.101915
C98	C	1.227225	-0.198547	0.435248
C99	C	1.560558	0.134786	0.768581
C100	C	0.997005	-0.531855	-0.001142
C101	C	1.330339	-0.198522	0.332192
C102	C	1.663672	0.134812	0.665525
C103	C	0.997002	-0.468252	-0.001135
C104	C	1.330336	-0.134918	0.332198
C105	C	1.663669	0.198415	0.665532
C106	C	0.945444	-0.436463	0.050396
C107	C	1.278777	-0.103130	0.383729
C108	C	1.612111	0.230204	0.717063
C109	C	0.893888	-0.468277	0.101921
C110	C	1.227222	-0.134944	0.435254
C111	C	1.560555	0.198389	0.768588
C112	C	0.790764	-0.531903	0.204973
C113	C	1.124097	-0.198570	0.538306
C114	C	1.457431	0.134764	0.871639
C115	C	0.790762	-0.468292	0.204969
C116	C	1.124095	-0.134959	0.538302
C117	C	1.457428	0.198374	0.871635
C118	C	0.842322	-0.436478	0.153440
C119	C	1.175655	-0.103144	0.486774
C120	C	1.508989	0.230189	0.820107
C121	C	0.842327	-0.372885	0.153459
C122	C	1.175661	-0.039552	0.486792
C123	C	1.508994	0.293781	0.820125
N124	N	0.893879	-0.341068	0.101928
N125	N	1.227213	-0.007734	0.435262
N126	N	1.560546	0.325599	0.768595
C127	C	0.945438	-0.372856	0.050397
C128	C	1.278771	-0.039523	0.383730
C129	C	1.612104	0.293810	0.717064
C130	C	0.842354	-0.760879	0.153435
C131	C	1.175688	-0.427546	0.486769
C132	C	1.509021	-0.094213	0.820102
C133	C	0.842364	-0.824485	0.153439
C134	C	1.175697	-0.491151	0.486772
C135	C	1.509030	-0.157818	0.820105
C136	C	0.945479	-0.824456	0.050373
C137	C	1.278812	-0.491122	0.383707
C138	C	1.612145	-0.157789	0.717040
C139	C	0.945472	-0.760849	0.050374
C140	C	1.278805	-0.427516	0.383708
C141	C	1.612139	-0.094183	0.717041
C142	C	0.893906	-0.729062	0.101905
C143	C	1.227239	-0.395728	0.435238
C144	C	1.560573	-0.062395	0.768572
C145	C	0.945428	-0.239285	0.050415
C146	C	1.278762	0.094048	0.383748
C147	C	1.612095	0.427382	0.717081
C148	C	0.945423	-0.175676	0.050428
C149	C	1.278756	0.157657	0.383761
C150	C	1.612090	0.490990	0.717094
C151	C	0.842306	-0.175711	0.153490
C152	C	1.175639	0.157623	0.486823
C153	C	1.508972	0.490956	0.820157
C154	C	0.842313	-0.239314	0.153480
C155	C	1.175647	0.094019	0.486813
C156	C	1.508980	0.427353	0.820147
C157	C	0.893877	-0.271100	0.101936
C158	C	1.227211	0.062234	0.435269
C159	C	1.560544	0.395567	0.768603
O160	O	0.798519	-0.339952	0.197276
O161	O	1.131852	-0.006618	0.530609
O162	O	1.465185	0.326715	0.863942
O163	O	0.989273	-0.339945	0.006568
O164	O	1.322606	-0.006611	0.339902
O165	O	1.655939	0.326722	0.673235
C166	C	1.032275	-0.000094	0.096155
C167	C	1.365608	0.333239	0.429488
C168	C	1.698942	0.666573	0.762821
C169	C	1.116293	-0.000097	0.097493
C170	C	1.449626	0.333236	0.430827
C171	C	1.782960	0.666569	0.764160
C172	C	0.899659	-0.000077	-0.036450
C173	C	1.232992	0.333257	0.296883
C174	C	1.566326	0.666590	0.630216
C175	C	0.898314	-0.000069	-0.120467
C176	C	1.231647	0.333264	0.212866
C177	C	1.564981	0.666597	0.546199
N178	N	0.893920	0.143721	0.101904
N179	N	1.227253	0.477055	0.435238
N180	N	1.560586	0.810388	0.768571
C181	C	0.888120	-0.000088	0.240319
C182	C	1.221453	0.333245	0.573653
C183	C	1.554786	0.666578	0.906986
C184	C	0.889464	-0.000092	0.324337
C185	C	1.222798	0.333241	0.657670
C186	C	1.556131	0.666575	0.991003
C187	C	0.828721	-0.000063	0.849208
C188	C	1.162054	0.333270	1.182541
C189	C	1.495387	0.666603	1.515874
C190	C	0.827461	-0.000070	0.770264
C191	C	1.160795	0.333264	1.103597
C192	C	1.494128	0.666597	1.436931
C193	C	0.895797	-0.000077	0.721646
C194	C	1.229130	0.333256	1.054980
C195	C	1.562463	0.666589	1.388313
C196	C	0.965395	-0.000085	0.751976
C197	C	1.298729	0.333248	1.085310
C198	C	1.632062	0.666582	1.418643
C199	C	0.966654	-0.000083	0.830919
C200	C	1.299987	0.333250	1.164252
C201	C	1.633320	0.666584	1.497585
C202	C	0.960322	-0.000093	0.433610
C203	C	1.293656	0.333240	0.766944
C204	C	1.626989	0.666573	1.100277
C205	C	0.959059	-0.000093	0.354663
C206	C	1.292392	0.333240	0.687996
C207	C	1.625725	0.666573	1.021330
C208	C	0.821130	-0.000080	0.372956
C209	C	1.154463	0.333254	0.706289
C210	C	1.487797	0.666587	1.039622
C211	C	0.822388	-0.000078	0.451898
C212	C	1.155722	0.333255	0.785231
C213	C	1.489055	0.666589	1.118565
C214	C	0.891987	-0.000089	0.482221
C215	C	1.225320	0.333245	0.815554
C216	C	1.558653	0.666578	1.148888
C217	C	0.893351	-0.000083	0.567821
C218	C	1.226684	0.333250	0.901154
C219	C	1.560018	0.666583	1.234487
C220	C	0.894433	-0.000079	0.636048
C221	C	1.227766	0.333255	0.969381
C222	C	1.561100	0.666588	1.302715
H223	H	0.647554	-0.000065	0.231382
H224	H	0.980887	0.333268	0.564715
H225	H	1.314221	0.666602	0.898048
H226	H	0.764460	-0.000074	0.348258
H227	H	1.097793	0.333260	0.681591
H228	H	1.431126	0.666593	1.014924
H229	H	0.987416	-0.265158	0.008442
H230	H	1.320749	0.068176	0.341775
H231	H	1.654082	0.401509	0.675109
H232	H	1.038985	-0.442352	-0.043096
H233	H	1.372318	-0.109019	0.290237
H234	H	1.705652	0.224315	0.623571
H235	H	0.537525	-0.000083	-0.021153
H236	H	0.870858	0.333250	0.312180
H237	H	1.204191	0.666583	0.645513
Cl238	Cl	0.736478	-0.000064	0.513013
Cl239	Cl	1.069811	0.333269	0.846347
Cl240	Cl	1.403145	0.666603	1.179680
H241	H	0.800387	-0.850383	0.195406
H242	H	1.133720	-0.517050	0.528739
H243	H	1.467053	-0.183717	0.862072
Cl244	Cl	0.702282	-0.000070	-0.049132
Cl245	Cl	1.035615	0.333264	0.284201
Cl246	Cl	1.368948	0.666597	0.617535
Cl247	Cl	1.051303	-0.000102	0.690857
Cl248	Cl	1.384637	0.333232	1.024190
Cl249	Cl	1.717970	0.666565	1.357523
H250	H	0.987457	-0.734950	0.008415
H251	H	1.320790	-0.401616	0.341748
H252	H	1.654123	-0.068283	0.675082
H253	H	0.773074	-0.000054	0.888787
H254	H	1.106407	0.333279	1.222121
H255	H	1.439741	0.666613	1.555454
Cl256	Cl	1.010247	-0.135684	-0.014354
Cl257	Cl	1.343581	0.197649	0.318979
Cl258	Cl	1.676914	0.530982	0.652312
H259	H	0.800365	-0.735001	0.195404
H260	H	1.133698	-0.401667	0.528737
H261	H	1.467031	-0.068334	0.862071
Cl262	Cl	0.482812	-0.000074	0.259355
Cl263	Cl	0.816145	0.333260	0.592688
Cl264	Cl	1.149478	0.666593	0.926021
Cl265	Cl	1.044973	-0.000105	0.293544
Cl266	Cl	1.378306	0.333229	0.626877
Cl267	Cl	1.711639	0.666562	0.960210
Cl268	Cl	1.047817	-0.000086	0.471720
Cl269	Cl	1.381151	0.333248	0.805053
Cl270	Cl	1.714484	0.666581	1.138387
Cl271	Cl	0.725941	-0.571885	0.269752
Cl272	Cl	1.059274	-0.238552	0.603086
Cl273	Cl	1.392607	0.094781	0.936419
H274	H	1.038990	-0.557732	-0.043108
H275	H	1.372323	-0.224398	0.290225
H276	H	1.705657	0.108935	0.623559
Cl277	Cl	1.010293	-0.864432	-0.014410
Cl278	Cl	1.343627	-0.531098	0.318923
Cl279	Cl	1.676960	-0.197765	0.652256
Cl280	Cl	0.725930	-0.428335	0.269754
Cl281	Cl	1.059263	-0.095002	0.603087
Cl282	Cl	1.392596	0.238331	0.936420
H283	H	0.800336	-0.265218	0.195446
H284	H	1.133669	0.068116	0.528780
H285	H	1.467002	0.401449	0.862113
H286	H	1.023324	-0.000089	0.855607
H287	H	1.356657	0.333244	1.188941
H288	H	1.689991	0.666578	1.522274
Cl289	Cl	0.777493	-0.135738	0.218270
Cl290	Cl	1.110826	0.197596	0.551603
Cl291	Cl	1.444159	0.530929	0.884937
H292	H	0.107028	-0.000094	0.222732
H293	H	0.440362	0.333240	0.556065
H294	H	0.773695	0.666573	0.889399
Cl295	Cl	0.263682	-0.000084	0.255846
Cl296	Cl	0.597015	0.333249	0.589180
Cl297	Cl	0.930349	0.666582	0.922513
H298	H	0.140223	-0.000092	-0.027517
H299	H	0.473556	0.333241	0.305817
H300	H	0.806889	0.666575	0.639150
Cl301	Cl	0.304965	-0.000091	-0.055493
Cl302	Cl	0.638298	0.333242	0.277840
Cl303	Cl	0.971631	0.666575	0.611174
Cl304	Cl	0.739968	-0.000061	0.732145
Cl305	Cl	1.073302	0.333273	1.065478
Cl306	Cl	1.406635	0.666606	1.398812
