data_functionalizedCrystal
_audit_creation_method	'MofGen! by Chris Wilmer'
_symmetry_space_group_name_H-M	'P1'
_symmetry_Int_Tables_number	1
_symmetry_cell_setting	triclinic
loop_
_symmetry_equiv_pos_as_xyz
  x,y,z
_cell_length_a	19.188931
_cell_length_b	14.519709
_cell_length_c	12.996460
_cell_angle_alpha	90.007090
_cell_angle_beta	89.995944
_cell_angle_gamma	96.587537
loop_
_atom_site_label
_atom_site_type_symbol
_atom_site_fract_x
_atom_site_fract_y
_atom_site_fract_z
O1	O	0.926556	-0.115137	-0.085532
O2	O	1.426556	0.384863	0.414468
O3	O	0.723300	-0.130636	-0.085542
O4	O	1.223300	0.369364	0.414458
O5	O	0.830317	0.011385	-0.085528
O6	O	1.330317	0.511385	0.414472
O7	O	0.819539	-0.257159	-0.085547
O8	O	1.319539	0.242841	0.414453
O9	O	0.830305	0.011393	0.085606
O10	O	1.330305	0.511393	0.585606
O11	O	0.723288	-0.130629	0.085591
O12	O	1.223288	0.369371	0.585591
O13	O	0.926544	-0.115129	0.085602
O14	O	1.426544	0.384871	0.585602
Cu15	Cu	0.824915	-0.122878	0.101222
Cu16	Cu	1.324915	0.377122	0.601222
Cu17	Cu	0.824929	-0.122887	-0.101163
Cu18	Cu	1.324929	0.377113	0.398837
O19	O	0.819527	-0.257151	0.085587
O20	O	1.319527	0.242849	0.585587
C21	C	0.697281	-0.130130	0.000023
C22	C	1.197281	0.369870	0.500023
C23	C	0.619771	-0.128624	0.000019
C24	C	1.119771	0.371376	0.500019
C25	C	0.829809	0.045746	0.000039
C26	C	1.329809	0.545746	0.500039
C27	C	0.828304	0.148118	0.000040
C28	C	1.328304	0.648118	0.500040
C29	C	0.952563	-0.115635	0.000034
C30	C	1.452563	0.384365	0.500034
C31	C	1.030073	-0.117142	0.000031
C32	C	1.530073	0.382858	0.500031
C33	C	1.074700	-0.033808	0.000028
C34	C	1.574700	0.466192	0.500028
C35	C	1.147529	-0.035224	0.000034
C36	C	1.647529	0.464776	0.500034
C37	C	1.175727	-0.119978	0.000022
C38	C	1.675727	0.380022	0.500022
C39	C	1.131090	-0.203322	0.000031
C40	C	1.631090	0.296678	0.500031
C41	C	1.058263	-0.201904	0.000035
C42	C	1.558263	0.298096	0.500035
N43	N	1.283956	-0.184764	-0.058239
N44	N	1.783956	0.315236	0.441761
N45	N	1.353140	-0.186105	-0.058246
N46	N	1.853140	0.313895	0.441754
C47	C	1.395151	-0.124255	0.000012
C48	C	1.895151	0.375745	0.500012
N49	N	1.365367	-0.060998	0.058263
N50	N	1.865367	0.439002	0.558263
N51	N	1.296177	-0.059654	0.058264
N52	N	1.796177	0.440346	0.558264
C53	C	1.254695	-0.121524	0.000018
C54	C	1.754695	0.378476	0.500018
C55	C	1.518748	-0.042450	0.000017
C56	C	2.018748	0.457550	0.500017
C57	C	1.591578	-0.043869	0.000029
C58	C	2.091578	0.456131	0.500029
C59	C	1.575138	-0.211970	0.000016
C60	C	2.075138	0.288030	0.500016
C61	C	1.502309	-0.210549	0.000014
C62	C	2.002309	0.289451	0.500014
C63	C	1.474119	-0.125786	0.000010
C64	C	1.974119	0.374214	0.500010
C65	C	0.820035	-0.291511	0.000018
C66	C	1.320035	0.208489	0.500018
C67	C	0.821541	-0.393883	0.000010
C68	C	1.321541	0.106117	0.500010
N69	N	0.824911	-0.122871	0.243570
N70	N	1.324911	0.377129	0.743570
C71	C	0.822762	0.522979	0.000013
C72	C	1.322762	1.022979	0.500013
C73	C	0.824301	0.418681	0.000021
C74	C	1.324301	0.918681	0.500021
C75	C	0.825533	0.335552	0.000027
C76	C	1.325533	0.835552	0.500027
C77	C	0.827072	0.231247	0.000033
C78	C	1.327072	0.731247	0.500033
N79	N	0.824938	-0.122887	-0.243510
N80	N	1.324938	0.377113	0.256490
C81	C	0.824928	-0.122888	0.663384
C82	C	1.324928	0.377112	1.163384
C83	C	0.824921	-0.122887	0.546579
C84	C	1.324921	0.377113	1.046579
C85	C	0.824920	-0.122880	0.453480
C86	C	1.324920	0.377120	0.953480
C87	C	0.824912	-0.122877	0.336668
C88	C	1.324912	0.377123	0.836668
H89	H	1.051753	0.035212	0.000028
H90	H	1.551753	0.535212	0.500028
O91	O	1.458925	-0.291474	0.000183
O92	O	1.958925	0.208526	0.500183
C93	C	1.367124	-0.387402	0.088795
C94	C	1.867124	0.112598	0.588795
C95	C	1.416229	-0.295726	0.088743
C96	C	1.916229	0.204274	0.588743
H97	H	1.332582	-0.390860	0.160378
H98	H	1.832582	0.109140	0.660378
H99	H	1.399749	-0.448261	0.088852
H100	H	1.899749	0.051739	0.588852
H101	H	1.332653	-0.390925	0.017143
H102	H	1.832653	0.109075	0.517143
H103	H	1.450710	-0.292112	0.160384
H104	H	1.950710	0.207888	0.660384
H105	H	1.383562	-0.234910	0.088633
H106	H	1.883562	0.265090	0.588633
O107	O	1.634832	0.037171	-0.000016
O108	O	2.134832	0.537171	0.499984
C109	C	1.643449	0.204050	0.000043
C110	C	2.143449	0.704050	0.500043
C111	C	1.594384	0.112341	0.000070
C112	C	2.094384	0.612341	0.500070
H113	H	1.610767	0.264849	0.000135
H114	H	2.110767	0.764849	0.500135
H115	H	1.677948	0.207645	-0.071591
H116	H	2.177948	0.707645	0.428409
H117	H	1.677966	0.207546	0.071647
H118	H	2.177966	0.707546	0.571647
H119	H	1.559823	0.108784	-0.071486
H120	H	2.059823	0.608784	0.428514
H121	H	1.559933	0.108785	0.071752
H122	H	2.059933	0.608785	0.571752
O123	O	1.158363	-0.285733	0.000062
O124	O	1.658363	0.214267	0.500062
C125	C	1.134372	-0.452313	-0.000010
C126	C	1.634372	0.047687	0.499990
C127	C	1.103395	-0.359045	-0.000027
C128	C	1.603395	0.140955	0.499973
H129	H	1.089945	-0.511610	-0.000103
H130	H	1.589945	-0.011610	0.499897
H131	H	1.168033	-0.457239	0.071621
H132	H	1.668033	0.042761	0.571621
H133	H	1.168080	-0.457132	-0.071617
H134	H	1.668080	0.042868	0.428383
H135	H	1.069655	-0.354163	0.071532
H136	H	1.569655	0.145837	0.571532
H137	H	1.069774	-0.354159	-0.071705
H138	H	1.569774	0.145841	0.428295
H139	H	1.183871	0.032639	0.000028
H140	H	1.683871	0.532639	0.500028
H141	H	1.021927	-0.269767	0.000039
H142	H	1.521927	0.230233	0.500039
O143	O	1.491324	0.039859	-0.000157
O144	O	1.991324	0.539859	0.499843
C145	C	1.418608	0.138989	-0.088774
C146	C	1.918608	0.638989	0.411226
C147	C	1.449630	0.045753	-0.088718
C148	C	1.949630	0.545753	0.411282
H149	H	1.384880	0.143776	-0.160357
H150	H	1.884880	0.643776	0.339643
H151	H	1.462989	0.198348	-0.088830
H152	H	1.962989	0.698348	0.411170
H153	H	1.384948	0.143840	-0.017122
H154	H	1.884948	0.643840	0.482878
H155	H	1.483282	0.040811	-0.160358
H156	H	1.983282	0.540811	0.339642
H157	H	1.405216	-0.013562	-0.088608
H158	H	1.905216	0.486438	0.411392
H159	H	1.598096	-0.280978	0.000013
H160	H	2.098096	0.219022	0.500013
