data_functionalizedCrystal
_audit_creation_method	'MofGen! by Chris Wilmer'
_symmetry_space_group_name_H-M	'P1'
_symmetry_Int_Tables_number	1
_symmetry_cell_setting	triclinic
loop_
_symmetry_equiv_pos_as_xyz
  x,y,z
_cell_length_a	11.792254
_cell_length_b	19.188925
_cell_length_c	10.868271
_cell_angle_alpha	89.995220
_cell_angle_beta	89.995741
_cell_angle_gamma	83.670573
loop_
_atom_site_label
_atom_site_type_symbol
_atom_site_fract_x
_atom_site_fract_y
_atom_site_fract_z
O1	O	1.505464	0.095737	-0.102320
O2	O	1.838797	0.429071	0.231013
O3	O	2.172130	0.762404	0.564347
O4	O	1.174977	0.105591	-0.102323
O5	O	1.508310	0.438924	0.231011
O6	O	1.841644	0.772257	0.564344
O7	O	1.349761	-0.000938	-0.102314
O8	O	1.683094	0.332396	0.231019
O9	O	2.016427	0.665729	0.564352
O10	O	1.330680	0.202266	-0.102328
O11	O	1.664013	0.535599	0.231005
O12	O	1.997347	0.868932	0.564338
O13	O	1.349746	-0.000942	0.102330
O14	O	1.683080	0.332392	0.435664
O15	O	2.016413	0.665725	0.768997
O16	O	1.174963	0.105586	0.102322
O17	O	1.508296	0.438920	0.435655
O18	O	1.841629	0.772253	0.768989
O19	O	1.505450	0.095733	0.102325
O20	O	1.838783	0.429067	0.435658
O21	O	2.172116	0.762400	0.768991
Zn22	Zn	1.340204	0.100659	0.134815
Zn23	Zn	1.673537	0.433992	0.468148
Zn24	Zn	2.006870	0.767326	0.801482
Zn25	Zn	1.340223	0.100665	-0.134813
Zn26	Zn	1.673556	0.433998	0.198520
Zn27	Zn	2.006889	0.767331	0.531853
O28	O	1.330666	0.202261	0.102316
O29	O	1.663999	0.535595	0.435650
O30	O	1.997332	0.868928	0.768983
C31	C	1.132688	0.104968	-0.000001
C32	C	1.466022	0.438301	0.333333
C33	C	1.799355	0.771634	0.666666
C34	C	1.006703	0.103110	-0.000002
C35	C	1.340037	0.436443	0.333332
C36	C	1.673370	0.769777	0.666665
C37	C	0.904389	0.101601	-0.000007
C38	C	1.237723	0.434934	0.333327
C39	C	1.571056	0.768267	0.666660
C40	C	0.776031	0.099713	-0.000007
C41	C	1.109364	0.433046	0.333326
C42	C	1.442698	0.766380	0.666659
C43	C	1.349137	-0.026954	0.000007
C44	C	1.682470	0.306379	0.333340
C45	C	2.015803	0.639712	0.666674
C46	C	1.347285	-0.104470	0.000005
C47	C	1.680618	0.228864	0.333338
C48	C	2.013952	0.562197	0.666671
C49	C	1.437443	-0.665727	-0.000026
C50	C	1.770776	-0.332393	0.333307
C51	C	2.104109	0.000940	0.666641
C52	C	1.439193	-0.592893	-0.000015
C53	C	1.772526	-0.259560	0.333319
C54	C	2.105859	0.073773	0.666652
C55	C	1.336635	-0.548543	-0.000016
C56	C	1.669968	-0.215209	0.333317
C57	C	2.003302	0.118124	0.666651
C58	C	1.232320	-0.577031	0.000003
C59	C	1.565653	-0.243697	0.333337
C60	C	1.898987	0.089636	0.666670
C61	C	1.230573	-0.649863	0.000004
C62	C	1.563906	-0.316529	0.333338
C63	C	1.897240	0.016804	0.666671
N64	N	1.262393	-0.428283	-0.069672
N65	N	1.595726	-0.094950	0.263661
N66	N	1.929059	0.238383	0.596995
N67	N	1.264059	-0.359097	-0.069676
N68	N	1.597392	-0.025763	0.263657
N69	N	1.930726	0.307570	0.596991
C70	C	1.341892	-0.329104	-0.000017
C71	C	1.675225	0.004230	0.333317
C72	C	2.008559	0.337563	0.666650
N73	N	1.418013	-0.370912	0.069631
N74	N	1.751347	-0.037579	0.402964
N75	N	2.084680	0.295754	0.736298
N76	N	1.416350	-0.440106	0.069629
N77	N	1.749683	-0.106773	0.402962
N78	N	2.083016	0.226561	0.736296
C79	C	1.338518	-0.469568	-0.000016
C80	C	1.671851	-0.136234	0.333317
C81	C	2.005184	0.197099	0.666650
C82	C	1.448098	-0.221650	-0.000015
C83	C	1.781431	0.111683	0.333318
C84	C	2.114765	0.445017	0.666652
C85	C	1.449844	-0.148815	0.000004
C86	C	1.783177	0.184518	0.333337
C87	C	2.116510	0.517851	0.666670
C88	C	1.242968	-0.132954	0.000009
C89	C	1.576301	0.200380	0.333343
C90	C	1.909635	0.533713	0.666676
C91	C	1.241225	-0.205787	0.000003
C92	C	1.574559	0.127546	0.333336
C93	C	1.907892	0.460879	0.666670
C94	C	1.343794	-0.250131	-0.000015
C95	C	1.677127	0.083202	0.333318
C96	C	2.010460	0.416535	0.666652
C97	C	1.547738	0.096356	-0.000000
C98	C	1.881071	0.429689	0.333333
C99	C	2.214405	0.763023	0.666666
C100	C	1.673723	0.098214	-0.000007
C101	C	2.007057	0.431547	0.333326
C102	C	2.340390	0.764880	0.666659
C103	C	1.331290	0.228278	-0.000008
C104	C	1.664623	0.561611	0.333325
C105	C	1.997956	0.894945	0.666659
C106	C	1.333141	0.305793	-0.000014
C107	C	1.666475	0.639127	0.333320
C108	C	1.999808	0.972460	0.666653
N109	N	1.340199	0.100655	0.318829
N110	N	1.673533	0.433988	0.652162
N111	N	2.006866	0.767322	0.985496
N112	N	1.340236	0.100663	-0.318827
N113	N	1.673569	0.433997	0.014506
N114	N	2.006903	0.767330	0.347839
C115	C	1.340217	0.100663	0.569835
C116	C	1.673550	0.433997	0.903168
C117	C	2.006883	0.767330	1.236502
C118	C	1.340203	0.100661	0.430158
C119	C	1.673537	0.433994	0.763491
C120	C	2.006870	0.767327	1.096824
H121	H	1.524130	-0.569700	-0.000024
H122	H	1.857463	-0.236367	0.333309
H123	H	2.190797	0.096966	0.666642
H124	H	1.145636	-0.673049	0.000017
H125	H	1.478969	-0.339716	0.333351
H126	H	1.812303	-0.006383	0.666684
H127	H	1.159464	-0.096844	0.000019
H128	H	1.492797	0.236489	0.333352
H129	H	1.826130	0.569823	0.666686
N130	N	1.542213	-0.711019	0.000001
N131	N	1.875546	-0.377685	0.333334
N132	N	2.208879	-0.044352	0.666668
N133	N	1.564315	-0.753426	0.086275
N134	N	1.897648	-0.420093	0.419608
N135	N	2.230982	-0.086759	0.752941
H136	H	1.638311	-0.785414	0.086301
H137	H	1.971644	-0.452081	0.419634
H138	H	2.304977	-0.118748	0.752967
H139	H	1.156292	-0.228975	0.000004
H140	H	1.489625	0.104358	0.333337
H141	H	1.822958	0.437691	0.666671
N142	N	1.127570	-0.531721	0.000013
N143	N	1.460903	-0.198388	0.333346
N144	N	1.794237	0.134946	0.666680
N145	N	1.129143	-0.466694	0.000011
N146	N	1.462476	-0.133361	0.333344
N147	N	1.795809	0.199972	0.666678
H148	H	1.055160	-0.434693	0.000024
H149	H	1.388493	-0.101360	0.333357
H150	H	1.721827	0.231973	0.666691
H151	H	1.531615	-0.257757	-0.000029
H152	H	1.864949	0.075576	0.333304
H153	H	2.198282	0.408910	0.666638
N154	N	1.556382	-0.119711	0.000008
N155	N	1.889715	0.213622	0.333341
N156	N	2.223049	0.546956	0.666675
N157	N	1.580436	-0.080847	0.086274
N158	N	1.913770	0.252486	0.419607
N159	N	2.247103	0.585820	0.752941
H160	H	1.655681	-0.060290	0.086279
H161	H	1.989014	0.273043	0.419612
H162	H	2.322347	0.606376	0.752946
