data_functionalizedCrystal
_audit_creation_method	'MofGen! by Chris Wilmer'
_symmetry_space_group_name_H-M	'P1'
_symmetry_Int_Tables_number	1
_symmetry_cell_setting	triclinic
loop_
_symmetry_equiv_pos_as_xyz
  x,y,z
_cell_length_a	15.944551
_cell_length_b	15.944551
_cell_length_c	15.455446
_cell_angle_alpha	87.325026
_cell_angle_beta	92.669387
_cell_angle_gamma	83.498738
loop_
_atom_site_label
_atom_site_type_symbol
_atom_site_fract_x
_atom_site_fract_y
_atom_site_fract_z
O1	O	1.110857	0.111999	-0.072041
O2	O	1.610857	0.611999	0.427959
O3	O	0.866306	0.125357	-0.072063
O4	O	1.366306	0.625357	0.427937
O5	O	0.995260	-0.003597	-0.072044
O6	O	1.495260	0.496403	0.427956
O7	O	0.981903	0.240953	-0.072061
O8	O	1.481903	0.740953	0.427939
O9	O	1.002593	-0.010945	0.072216
O10	O	1.502593	0.489055	0.572216
O11	O	0.873639	0.118009	0.072197
O12	O	1.373639	0.618009	0.572197
O13	O	1.118190	0.104652	0.072219
O14	O	1.618190	0.604652	0.572219
Cu15	Cu	0.996584	0.110659	0.085380
Cu16	Cu	1.496584	0.610659	0.585380
Cu17	Cu	0.987912	0.119349	-0.085224
Cu18	Cu	1.487912	0.619349	0.414776
O19	O	0.989236	0.233606	0.072199
O20	O	1.489236	0.733606	0.572199
C21	C	0.838678	0.121129	0.000064
C22	C	1.338678	0.621129	0.500064
C23	C	0.745432	0.119467	0.000056
C24	C	1.245432	0.619467	0.500056
C25	C	0.998372	-0.038565	0.000086
C26	C	1.498372	0.461435	0.500086
C27	C	0.996710	-0.131811	0.000087
C28	C	1.496710	0.368189	0.500087
C29	C	0.530576	0.035561	0.000079
C30	C	1.030576	0.535561	0.500079
C31	C	0.465941	0.078146	-0.071052
C32	C	0.965941	0.578146	0.428948
C33	C	0.574706	0.116459	0.000066
C34	C	1.074706	0.616459	0.500066
C35	C	0.473192	0.070921	0.071177
C36	C	0.973192	0.570921	0.571177
C37	C	0.409794	0.113547	0.000080
C38	C	0.909794	0.613547	0.500080
C39	C	0.511296	0.159069	-0.071123
C40	C	1.011296	0.659069	0.428877
C41	C	0.518557	0.151830	0.071170
C42	C	1.018557	0.651830	0.571170
C43	C	0.453938	0.194475	0.000022
C44	C	0.953938	0.694475	0.500022
C45	C	0.669708	0.118134	0.000058
C46	C	1.169708	0.618134	0.500058
C47	C	0.314793	0.111879	0.000083
C48	C	0.814793	0.611879	0.500083
C49	C	0.912804	-0.346667	0.000067
C50	C	1.412804	0.153333	0.500067
C51	C	0.955382	-0.411307	0.071200
C52	C	1.455382	0.088693	0.571200
C53	C	0.993702	-0.302537	0.000080
C54	C	1.493702	0.197463	0.500080
C55	C	0.948172	-0.404046	-0.071030
C56	C	1.448172	0.095954	0.428970
C57	C	0.990791	-0.467449	0.000069
C58	C	1.490791	0.032551	0.500069
C59	C	1.036305	-0.365952	0.071271
C60	C	1.536305	0.134048	0.571271
C61	C	1.029080	-0.358681	-0.071022
C62	C	1.529080	0.141319	0.428978
C63	C	1.071718	-0.423305	0.000128
C64	C	1.571718	0.076695	0.500128
C65	C	0.995377	-0.207535	0.000086
C66	C	1.495377	0.292465	0.500086
C67	C	0.989122	-0.562450	0.000069
C68	C	1.489122	-0.062450	0.500069
C69	C	1.145817	0.108880	0.000089
C70	C	1.645817	0.608880	0.500089
C71	C	1.239063	0.110542	0.000092
C72	C	1.739063	0.610542	0.500092
C73	C	0.986124	0.268574	0.000067
C74	C	1.486124	0.768574	0.500067
C75	C	0.987786	0.361820	0.000061
C76	C	1.487786	0.861820	0.500061
N77	N	1.002689	0.104547	0.205374
N78	N	1.502689	0.604547	0.705374
N79	N	0.981813	0.125455	-0.205218
N80	N	1.481813	0.625455	0.294782
C81	C	1.036607	0.070692	0.749373
C82	C	1.536607	0.570692	1.249373
C83	C	1.031970	0.075325	0.658566
C84	C	1.531970	0.575325	1.158566
C85	C	0.972535	0.134717	0.613170
C86	C	1.472535	0.634717	1.113170
C87	C	0.917739	0.189485	0.658585
C88	C	1.417739	0.689485	1.158585
C89	C	0.922380	0.184856	0.749390
C90	C	1.422380	0.684856	1.249390
C91	C	0.952534	0.154686	0.341594
C92	C	1.452534	0.654686	0.841594
C93	C	0.947895	0.159310	0.250782
C94	C	1.447895	0.659310	0.750782
C95	C	1.062128	0.045150	0.250770
C96	C	1.562128	0.545150	0.750770
C97	C	1.066761	0.040522	0.341577
C98	C	1.566761	0.540522	0.841577
C99	C	1.011967	0.095294	0.386984
C100	C	1.511967	0.595294	0.886984
N101	N	0.967793	0.139452	0.520351
N102	N	1.467793	0.639452	1.020351
N103	N	1.016715	0.090562	0.479801
N104	N	1.516715	0.590562	0.979801
H105	H	0.563905	-0.031573	-0.000005
H106	H	1.063905	0.468427	0.499995
Cl107	Cl	1.175482	-0.474507	0.000195
Cl108	Cl	1.675482	0.025493	0.500195
Cl109	Cl	0.883649	0.223537	0.398671
Cl110	Cl	1.383649	0.723537	0.898671
Cl111	Cl	1.093815	-0.339828	0.164220
Cl112	Cl	1.593815	0.160172	0.664220
H113	H	0.877762	0.229451	0.786361
H114	H	1.377762	0.729451	1.286361
H115	H	1.060210	-0.335488	-0.131156
H116	H	1.560210	0.164512	0.368844
Cl117	Cl	0.843023	0.264155	0.601517
Cl118	Cl	1.343023	0.764155	1.101517
Cl119	Cl	0.890604	-0.430336	-0.163869
Cl120	Cl	1.390604	0.069664	0.336131
H121	H	0.899492	0.207677	0.213825
H122	H	1.399492	0.707677	0.713825
Cl123	Cl	1.111326	-0.003981	0.806433
Cl124	Cl	1.611326	0.496019	1.306433
H125	H	1.106740	0.000558	0.213792
H126	H	1.606740	0.500558	0.713792
Cl127	Cl	0.402736	0.298238	-0.000043
Cl128	Cl	0.902736	0.798238	0.499957
H129	H	0.442774	0.046993	-0.131183
H130	H	0.942774	0.546993	0.368817
Cl131	Cl	0.537425	0.216591	-0.164070
Cl132	Cl	1.037425	0.716591	0.335930
H133	H	0.541745	0.182955	0.131304
H134	H	1.041745	0.682955	0.631304
Cl135	Cl	0.446902	0.013346	0.164020
Cl136	Cl	0.946902	0.513346	0.664020
H137	H	1.076589	0.030733	0.621595
H138	H	1.576589	0.530733	1.121595
H139	H	0.845659	-0.313362	0.000132
H140	H	1.345659	0.186638	0.500132
H141	H	0.924222	-0.434478	0.131330
H142	H	1.424222	0.065522	0.631330
Cl143	Cl	1.141479	-0.034144	0.398647
Cl144	Cl	1.641479	0.465856	0.898647
