data_functionalizedCrystal
_audit_creation_method	'MofGen! by Chris Wilmer'
_symmetry_space_group_name_H-M	'P1'
_symmetry_Int_Tables_number	1
_symmetry_cell_setting	triclinic
loop_
_symmetry_equiv_pos_as_xyz
  x,y,z
_cell_length_a	10.908937
_cell_length_b	22.610064
_cell_length_c	23.532407
_cell_angle_alpha	89.976667
_cell_angle_beta	71.467316
_cell_angle_gamma	89.993806
loop_
_atom_site_label
_atom_site_type_symbol
_atom_site_fract_x
_atom_site_fract_y
_atom_site_fract_z
O1	O	1.704953	-0.049194	-0.088046
O2	O	1.330525	-0.049195	-0.043521
O3	O	1.529030	-0.049184	-0.149756
O4	O	1.506448	-0.049205	0.018189
O5	O	1.529031	0.049186	-0.149783
O6	O	1.330526	0.049174	-0.043548
O7	O	1.704955	0.049175	-0.088073
Zn8	Zn	1.517741	0.064793	-0.065814
Zn9	Zn	1.517739	-0.064813	-0.065779
O10	O	1.506449	0.049164	0.018162
C11	C	1.282631	-0.000010	-0.039373
C12	C	1.139922	-0.000010	-0.026982
C13	C	0.943993	-0.000017	-0.059396
C14	C	1.091491	-0.000008	-0.072204
N15	N	1.517738	-0.153265	-0.065759
C16	C	1.440395	-0.561902	-0.093126
C17	C	1.440399	-0.623822	-0.093134
O18	O	1.374645	-0.655836	-0.116378
N19	N	1.517756	-0.654802	-0.065827
C20	C	1.595124	-0.623860	-0.038516
O21	O	1.660923	-0.655897	-0.015291
C22	C	1.595126	-0.561941	-0.038512
C23	C	1.517754	-0.530964	-0.065815
C24	C	1.363030	-0.530924	-0.120427
C25	C	1.363025	-0.469009	-0.120419
C26	C	1.440385	-0.438071	-0.093108
C27	C	1.517749	-0.469048	-0.065806
C28	C	1.672500	-0.530999	-0.011205
C29	C	1.672497	-0.469076	-0.011204
C30	C	1.595125	-0.438099	-0.038507
C31	C	1.595103	-0.376194	-0.038487
N32	N	1.517746	-0.345213	-0.065794
C33	C	1.440387	-0.376152	-0.093104
C34	C	1.595115	-0.753893	-0.038527
C35	C	1.595106	-0.815811	-0.038526
C36	C	1.440382	-0.815769	-0.093145
C37	C	1.440385	-0.753850	-0.093142
C38	C	1.517758	-0.722913	-0.065833
C39	C	1.440381	-0.246124	-0.093083
C40	C	1.440379	-0.184203	-0.093070
C41	C	1.595107	-0.184251	-0.038454
C42	C	1.595105	-0.246167	-0.038464
C43	C	1.517738	-0.277102	-0.065783
O44	O	1.660827	-0.344140	-0.015257
O45	O	1.374611	-0.344107	-0.116333
C46	C	1.752848	-0.000010	-0.092220
C47	C	1.895558	-0.000014	-0.104612
C48	C	1.528456	0.000003	-0.170933
C49	C	1.526727	0.000007	-0.233990
N50	N	1.517751	0.153245	-0.065840
C51	C	1.633354	-0.000025	-0.642924
C52	C	1.631748	-0.000029	-0.702176
O53	O	1.730592	-0.000051	-0.748034
N54	N	1.513736	-0.000029	-0.713922
C55	C	1.397324	-0.000031	-0.666411
O56	O	1.296798	-0.000032	-0.681843
C57	C	1.398931	-0.000031	-0.607161
C58	C	1.516950	-0.000025	-0.595419
C59	C	1.751363	-0.000020	-0.631181
C60	C	1.752969	-0.000014	-0.571933
C61	C	1.636565	-0.000014	-0.524428
C62	C	1.518556	-0.000019	-0.536171
C63	C	1.282520	-0.000036	-0.559651
C64	C	1.284137	-0.000037	-0.500398
C65	C	1.402156	-0.000031	-0.488656
C66	C	1.403757	-0.000013	-0.429418
N67	N	1.521769	-0.000013	-0.417672
C68	C	1.638172	-0.000013	-0.465177
C69	C	1.393957	-0.000033	-0.790844
C70	C	1.392348	-0.000029	-0.850093
C71	C	1.626773	-0.000028	-0.885854
C72	C	1.628380	-0.000028	-0.826603
C73	C	1.511968	-0.000033	-0.779098
C74	C	1.641535	-0.000001	-0.340750
C75	C	1.643130	0.000007	-0.281495
C76	C	1.408706	0.000003	-0.245740
C77	C	1.407111	-0.000002	-0.304989
C78	C	1.523535	-0.000006	-0.352495
O79	O	1.304965	0.000006	-0.383530
O80	O	1.738681	-0.000020	-0.449736
C81	C	1.507024	-0.000024	0.039339
C82	C	1.508753	-0.000032	0.102397
H83	H	1.159217	-0.000003	-0.120401
Br84	Br	1.803310	0.000016	-0.265565
Br85	Br	1.008433	-0.000007	-0.184941
H86	H	1.724482	-0.000024	-0.817049
H87	H	1.072197	-0.000021	0.021215
H88	H	1.377368	-0.158984	-0.115303
H89	H	1.300035	-0.556108	-0.142670
Br90	Br	1.335394	-0.857768	-0.130210
H91	H	1.313934	0.000006	-0.207051
Br92	Br	1.799542	-0.000008	-0.405213
Br93	Br	1.235953	-0.000034	-0.726376
Br94	Br	1.126140	-0.000046	-0.435928
Br95	Br	1.232173	-0.000023	-0.866020
Br96	Br	1.335389	-0.288098	-0.130163
H97	H	1.300026	-0.443792	-0.142654
Br98	Br	1.122341	-0.000047	-0.575570
Br99	Br	0.831118	-0.000041	0.020934
Br100	Br	1.246941	0.000004	-0.320926
H101	H	1.377382	-0.728632	-0.115374
H102	H	1.846159	-0.000022	-0.669856
H103	H	1.658094	-0.841027	-0.016285
H104	H	1.849072	-0.000012	-0.562380
Br105	Br	1.777477	-0.573024	0.025870
Br106	Br	1.700121	-0.711913	-0.001457
H107	H	1.735507	-0.443891	0.011033
H108	H	1.721555	-0.000031	-0.924544
H109	H	1.658089	-0.271390	-0.016222
H110	H	1.658088	-0.159050	-0.016217
