data_functionalizedCrystal
_audit_creation_method	'MofGen! by Chris Wilmer'
_symmetry_space_group_name_H-M	'P1'
_symmetry_Int_Tables_number	1
_symmetry_cell_setting	triclinic
loop_
_symmetry_equiv_pos_as_xyz
  x,y,z
_cell_length_a	18.050589
_cell_length_b	15.297475
_cell_length_c	18.050591
_cell_angle_alpha	99.663737
_cell_angle_beta	90.002114
_cell_angle_gamma	80.331321
loop_
_atom_site_label
_atom_site_type_symbol
_atom_site_fract_x
_atom_site_fract_y
_atom_site_fract_z
Zn1	Zn	-0.492648	1.378944	0.616052
Zn2	Zn	0.007352	1.878944	1.116052
Zn3	Zn	-0.616785	1.378868	0.491861
Zn4	Zn	-0.116785	1.878868	0.991861
Zn5	Zn	-0.471098	1.228133	0.470428
Zn6	Zn	0.028902	1.728133	0.970428
Zn7	Zn	-0.595261	1.228036	0.594558
Zn8	Zn	-0.095261	1.728036	1.094558
O9	O	-0.543948	1.303495	0.543225
O10	O	-0.043948	1.803495	1.043225
O11	O	-0.527141	1.505172	0.617544
O12	O	-0.027141	2.005172	1.117544
O13	O	-0.597449	1.358882	0.385095
O14	O	-0.097449	1.858882	0.885095
O15	O	-0.370043	1.248210	0.489771
O16	O	0.129957	1.748210	0.989771
O17	O	-0.618345	1.505117	0.526301
O18	O	-0.118345	2.005117	1.026301
O19	O	-0.385875	1.359010	0.596761
O20	O	0.114125	1.859010	1.096761
O21	O	-0.490414	1.248137	0.369348
O22	O	0.009586	1.748137	0.869348
O23	O	-0.469542	1.101881	0.468928
O24	O	0.030458	1.601881	0.968928
O25	O	-0.581659	1.248046	0.701333
O26	O	-0.081659	1.748046	1.201333
O27	O	-0.560764	1.101811	0.560126
O28	O	-0.060764	1.601811	1.060126
O29	O	-0.506270	1.358917	0.717124
O30	O	-0.006270	1.858917	1.217124
O31	O	-0.717844	1.358788	0.505459
O32	O	-0.217844	1.858788	1.005459
O33	O	-0.702030	1.247973	0.580909
O34	O	-0.202030	1.747973	1.080909
C35	C	-0.510479	1.069114	0.509870
C36	C	-0.010479	1.569114	1.009870
C37	C	-0.496179	0.968844	0.495618
C38	C	0.003821	1.468844	0.995618
C39	C	-0.646158	0.686154	0.645087
C40	C	-0.146158	1.186154	1.145087
C41	C	-0.659600	0.780362	0.658476
C42	C	-0.159600	1.280362	1.158476
C43	C	-0.618746	0.827487	0.617763
C44	C	-0.118746	1.327487	1.117763
C45	C	-0.564448	0.780395	0.563658
C46	C	-0.064448	1.280395	1.063658
C47	C	-0.551010	0.686177	0.550265
C48	C	-0.051010	1.186177	1.050265
C49	C	-0.523597	0.827511	0.522940
C50	C	-0.023597	1.327511	1.022940
C51	C	-0.469300	0.780419	0.468836
C52	C	0.030700	1.280419	0.968836
C53	C	-0.455863	0.686210	0.455445
C54	C	0.044137	1.186210	0.955445
C55	C	-0.496717	0.639085	0.496158
C56	C	0.003283	1.139085	0.996158
C57	C	-0.537035	0.921728	0.536334
C58	C	-0.037035	1.421728	1.036334
C59	C	-0.441887	0.921752	0.441511
C60	C	0.058113	1.421752	0.941511
C61	C	-0.428446	0.827544	0.428122
C62	C	0.071554	1.327544	0.928122
C63	C	-0.736885	1.303386	0.543197
C64	C	-0.236885	1.803386	1.043197
C65	C	-0.819435	1.303422	0.543222
C66	C	-0.319435	1.803422	1.043222
C67	C	-1.010322	1.243220	0.584243
C68	C	-0.510322	1.743220	1.084243
C69	C	-1.056601	1.221254	0.513352
C70	C	-0.556601	1.721254	1.013352
C71	C	-0.970578	1.303511	0.543244
C72	C	-0.470578	1.803511	1.043244
C73	C	-1.071387	1.325521	0.614149
C74	C	-0.571387	1.825521	1.114149
C75	C	-1.116575	1.303595	0.543271
C76	C	-0.616575	1.803595	1.043271
C77	C	-1.015765	1.281502	0.472311
C78	C	-0.515765	1.781502	0.972311
C79	C	-1.030551	1.385807	0.573160
C80	C	-0.530551	1.885807	1.073160
C81	C	-1.076813	1.363872	0.502226
C82	C	-0.576813	1.863872	1.002226
C83	C	-0.886473	1.303460	0.543229
C84	C	-0.386473	1.803460	1.043229
C85	C	-1.200679	1.303646	0.543279
C86	C	-0.700679	1.803646	1.043279
C87	C	-0.350261	1.303629	0.543273
C88	C	0.149739	1.803629	1.043273
C89	C	-0.267724	1.303686	0.543293
C90	C	0.232276	1.803686	1.043293
C91	C	-0.543967	1.303479	0.736928
C92	C	-0.043967	1.803479	1.236928
C93	C	-0.543975	1.303472	0.819473
C94	C	-0.043975	1.803472	1.319473
C95	C	-0.577548	1.538792	0.576711
C96	C	-0.077548	2.038792	1.076711
C97	C	-0.591866	1.639062	0.590981
C98	C	-0.091866	2.139062	1.090981
C99	C	-0.584962	1.243166	1.059709
C100	C	-0.084962	1.743166	1.559709
C101	C	-0.514067	1.221145	1.007184
C102	C	-0.014067	1.721145	1.507184
C103	C	-0.543952	1.303464	1.116592
C104	C	-0.043952	1.803464	1.616592
C105	C	-0.614848	1.325446	1.022030
C106	C	-0.114848	1.825446	1.522030
C107	C	-0.543967	1.303465	0.970607
C108	C	-0.043967	1.803465	1.470607
C109	C	-0.473015	1.281400	1.065148
C110	C	0.026985	1.781400	1.565148
C111	C	-0.573848	1.385740	1.080004
C112	C	-0.073848	1.885740	1.580004
C113	C	-0.502910	1.363750	1.027506
C114	C	-0.002910	1.863750	1.527506
C115	C	-0.543944	1.303460	1.200690
C116	C	-0.043944	1.803460	1.700690
C117	C	-0.543967	1.303469	0.886511
C118	C	-0.043967	1.803469	1.386511
C119	C	-0.543946	1.303492	1.350272
C120	C	-0.043946	1.803492	1.850272
C121	C	-0.543943	1.303460	1.267722
C122	C	-0.043943	1.803460	1.767722
H123	H	-0.679420	0.647776	0.678226
H124	H	-0.179420	1.147776	1.178226
H125	H	-0.991518	1.262839	0.412330
H126	H	-0.491518	1.762839	0.912330
H127	H	-1.018703	1.455347	0.598471
H128	H	-0.518703	1.955347	1.098471
O129	O	-0.456919	1.431296	1.008586
O130	O	0.043081	1.931296	1.508586
H131	H	-0.493227	1.482780	0.982072
H132	H	0.006773	1.982780	1.482072
O133	O	-0.607366	1.477859	1.121915
O134	O	-0.107366	1.977859	1.621915
H135	H	-0.666245	1.495949	1.104757
H136	H	-0.166245	1.995949	1.604757
H137	H	-0.619578	1.192134	1.074121
H138	H	-0.119578	1.692134	1.574121
O139	O	-1.114944	1.431462	0.456260
O140	O	-0.614944	1.931462	0.956260
H141	H	-1.092443	1.413015	0.397463
H142	H	-0.592443	1.913015	0.897463
H143	H	-0.703810	0.818698	0.702526
H144	H	-0.203810	1.318698	1.202526
O145	O	-1.072275	1.129119	0.479839
O146	O	-0.572275	1.629119	0.979839
H147	H	-1.045417	1.079155	0.513954
H148	H	-0.545417	1.579155	1.013954
H149	H	-0.485775	0.562373	0.485261
H150	H	0.014225	1.062373	0.985261
O151	O	-1.103607	1.350144	0.693564
O152	O	-0.603607	1.850144	1.193564
H153	H	-1.076709	1.299954	0.727457
H154	H	-0.576709	1.799954	1.227457
O155	O	-0.595583	0.972521	0.594695
O156	O	-0.095583	1.472521	1.094695
H157	H	-0.651267	0.954412	0.579294
H158	H	-0.151267	1.454412	1.079294
O159	O	-0.480586	1.128991	0.965301
O160	O	0.019414	1.628991	1.465301
H161	H	-0.514721	1.079057	0.977952
H162	H	-0.014721	1.579057	1.477952
O163	O	-0.694258	1.350086	0.996799
O164	O	-0.194258	1.850086	1.496799
H165	H	-0.728172	1.299933	1.009441
H166	H	-0.228172	1.799933	1.509441
H167	H	-0.413037	1.262728	1.084094
H168	H	0.086963	1.762728	1.584094
H169	H	-0.981398	1.192159	0.618844
H170	H	-0.481398	1.692159	1.118844
H171	H	-0.629692	0.904196	0.628667
H172	H	-0.129692	1.404196	1.128667
H173	H	-0.408621	0.960121	0.408357
H174	H	0.091379	1.460121	0.908357
H175	H	-0.411659	0.647870	0.411382
H176	H	0.088341	1.147870	0.911382
H177	H	-0.384236	0.789188	0.384070
H178	H	0.115764	1.289188	0.884070
