data_functionalizedCrystal
_audit_creation_method	'MofGen! by Chris Wilmer'
_symmetry_space_group_name_H-M	'P1'
_symmetry_Int_Tables_number	1
_symmetry_cell_setting	triclinic
loop_
_symmetry_equiv_pos_as_xyz
  x,y,z
_cell_length_a	17.699077
_cell_length_b	12.503572
_cell_length_c	17.699083
_cell_angle_alpha	93.515225
_cell_angle_beta	96.718205
_cell_angle_gamma	93.510457
loop_
_atom_site_label
_atom_site_type_symbol
_atom_site_fract_x
_atom_site_fract_y
_atom_site_fract_z
O1	O	1.008451	0.089308	-0.091304
O2	O	1.341784	0.422642	0.242030
O3	O	1.675117	0.755975	0.575363
O4	O	0.788072	0.089314	-0.103761
O5	O	1.121405	0.422647	0.229573
O6	O	1.454739	0.755981	0.562906
O7	O	0.904487	0.089301	0.012657
O8	O	1.237820	0.422635	0.345990
O9	O	1.571154	0.755968	0.679323
O10	O	0.892035	0.089321	-0.207721
O11	O	1.225369	0.422654	0.125612
O12	O	1.558702	0.755987	0.458946
O13	O	0.895732	-0.089340	0.003887
O14	O	1.229065	0.243994	0.337220
O15	O	1.562399	0.577327	0.670554
O16	O	0.779317	-0.089327	-0.112530
O17	O	1.112650	0.244006	0.220803
O18	O	1.445983	0.577340	0.554136
O19	O	0.999695	-0.089333	-0.100073
O20	O	1.333029	0.244001	0.233260
O21	O	1.666362	0.577334	0.566593
Cu22	Cu	0.888707	-0.105641	-0.107103
Cu23	Cu	1.222040	0.227692	0.226231
Cu24	Cu	1.555373	0.561025	0.559564
Cu25	Cu	0.899061	0.105622	-0.096731
Cu26	Cu	1.232394	0.438956	0.236602
Cu27	Cu	1.565727	0.772289	0.569935
O28	O	0.883280	-0.089320	-0.216491
O29	O	1.216614	0.244013	0.116843
O30	O	1.549947	0.577346	0.450176
C31	C	0.755497	-0.000006	-0.107700
C32	C	1.088831	0.333327	0.225634
C33	C	1.422164	0.666661	0.558967
C34	C	0.671479	-0.000004	-0.106363
C35	C	1.004812	0.333329	0.226970
C36	C	1.338146	0.666662	0.560304
C37	C	0.627239	-0.097383	-0.110513
C38	C	0.960572	0.235951	0.222820
C39	C	1.293906	0.569284	0.556153
C40	C	0.548297	-0.097384	-0.109245
C41	C	0.881630	0.235949	0.224088
C42	C	1.214963	0.569283	0.557421
C43	C	0.513595	-0.000006	-0.103832
C44	C	0.846928	0.333328	0.229501
C45	C	1.180261	0.666661	0.562835
C46	C	0.557841	0.097380	-0.099679
C47	C	0.891174	0.430714	0.233654
C48	C	1.224507	0.764047	0.566988
C49	C	0.636783	0.097380	-0.100942
C50	C	0.970116	0.430714	0.232392
C51	C	1.303449	0.764047	0.565725
C52	C	0.239477	0.097382	-0.094586
C53	C	0.572811	0.430715	0.238748
C54	C	0.906144	0.764049	0.572081
C55	C	0.160529	0.097374	-0.093325
C56	C	0.493863	0.430708	0.240008
C57	C	0.827196	0.764041	0.573341
C58	C	0.150992	-0.097382	-0.102889
C59	C	0.484325	0.235951	0.230444
C60	C	0.817658	0.569284	0.563777
C61	C	0.229933	-0.097382	-0.104152
C62	C	0.563267	0.235951	0.229181
C63	C	0.896600	0.569284	0.562515
C64	C	0.274173	0.000003	-0.099995
C65	C	0.607506	0.333336	0.233339
C66	C	0.940840	0.666670	0.566672
C67	C	0.359772	0.000003	-0.101368
C68	C	0.693105	0.333336	0.231965
C69	C	1.026438	0.666670	0.565298
C70	C	0.427997	-0.000005	-0.102464
C71	C	0.761330	0.333329	0.230869
C72	C	1.094663	0.666662	0.564203
N73	N	0.881430	-0.254233	-0.114397
N74	N	1.214763	0.079101	0.218937
N75	N	1.548096	0.412434	0.552270
C76	C	0.870725	-0.473347	-0.125133
C77	C	1.204058	-0.140014	0.208200
C78	C	1.537392	0.193320	0.541534
C79	C	0.917046	-0.526679	-0.078697
C80	C	1.250379	-0.193346	0.254636
C81	C	1.583712	0.139988	0.587969
C82	C	0.911090	-0.648601	-0.084671
C83	C	1.244423	-0.315268	0.248662
C84	C	1.577756	0.018065	0.581995
C85	C	0.876680	-0.351413	-0.119160
C86	C	1.210014	-0.018080	0.214173
C87	C	1.543347	0.315253	0.547507
C88	C	1.032270	-0.000010	-0.096134
C89	C	1.365604	0.333323	0.237199
C90	C	1.698937	0.666656	0.570533
C91	C	1.116289	-0.000005	-0.097471
C92	C	1.449622	0.333328	0.235863
C93	C	1.782955	0.666661	0.569196
C94	C	0.899663	-0.000019	0.036469
C95	C	1.232997	0.333314	0.369802
C96	C	1.566330	0.666647	0.703136
C97	C	0.898325	-0.000020	0.120487
C98	C	1.231658	0.333314	0.453820
C99	C	1.564991	0.666647	0.787154
N100	N	0.906344	0.254214	-0.089431
N101	N	1.239677	0.587547	0.243902
N102	N	1.573010	0.920881	0.577235
C103	C	0.888104	0.000003	-0.240303
C104	C	1.221438	0.333336	0.093031
C105	C	1.554771	0.666669	0.426364
C106	C	0.889443	0.000010	-0.324320
C107	C	1.222777	0.333343	0.009013
C108	C	1.556110	0.666677	0.342346
C109	C	0.966658	-0.000023	0.169109
C110	C	1.299991	0.333310	0.502443
C111	C	1.633325	0.666644	0.835776
C112	C	0.965396	-0.000013	0.248053
C113	C	1.298730	0.333320	0.581386
C114	C	1.632063	0.666653	0.914720
C115	C	0.895800	-0.000008	0.278372
C116	C	1.229133	0.333325	0.611706
C117	C	1.562467	0.666658	0.945039
C118	C	0.827461	-0.000002	0.229744
C119	C	1.160795	0.333332	0.563077
C120	C	1.494128	0.666665	0.896411
C121	C	0.828724	-0.000004	0.150802
C122	C	1.162058	0.333330	0.484136
C123	C	1.495391	0.666663	0.817469
C124	C	0.822366	0.000007	0.548108
C125	C	1.155700	0.333340	0.881441
C126	C	1.489033	0.666674	1.214774
C127	C	0.821109	0.000006	0.627055
C128	C	1.154442	0.333339	0.960389
C129	C	1.487775	0.666672	1.293722
C130	C	0.959038	-0.000003	0.645358
C131	C	1.292372	0.333331	0.978691
C132	C	1.625705	0.666664	1.312025
C133	C	0.960301	-0.000004	0.566416
C134	C	1.293635	0.333329	0.899750
C135	C	1.626968	0.666662	1.233083
C136	C	0.891964	0.000008	0.517795
C137	C	1.225297	0.333341	0.851129
C138	C	1.558630	0.666674	1.184462
C139	C	0.893333	-0.000001	0.432196
C140	C	1.226666	0.333333	0.765529
C141	C	1.559999	0.666666	1.098862
C142	C	0.894430	-0.000008	0.363970
C143	C	1.227763	0.333326	0.697303
C144	C	1.561096	0.666659	1.030637
H145	H	0.655486	-0.176680	-0.114928
H146	H	0.988820	0.156654	0.218406
H147	H	1.322153	0.489987	0.551739
Cl148	Cl	0.802598	-0.544219	-0.193437
Cl149	Cl	1.135931	-0.210886	0.139896
Cl150	Cl	1.469265	0.122448	0.473230
H151	H	1.023331	-0.000034	0.144429
H152	H	1.356665	0.333300	0.477763
H153	H	1.689998	0.666633	0.811096
H154	H	0.132278	0.176676	-0.088916
H155	H	0.465612	0.510010	0.244417
H156	H	0.798945	0.843343	0.577750
Cl157	Cl	1.051305	-0.000021	0.309175
Cl158	Cl	1.384639	0.333313	0.642509
Cl159	Cl	1.717972	0.666646	0.975842
H160	H	0.512281	-0.176679	-0.112612
H161	H	0.845614	0.156654	0.220721
H162	H	1.178948	0.489987	0.554054
H163	H	0.770795	0.000009	0.254437
H164	H	1.104128	0.333342	0.587770
H165	H	1.437462	0.666676	0.921103
Cl166	Cl	0.273554	-0.219805	-0.110962
Cl167	Cl	0.606887	0.113528	0.222372
Cl168	Cl	0.940220	0.446861	0.555705
H169	H	0.114962	-0.176678	-0.106271
H170	H	0.448296	0.156655	0.227063
H171	H	0.781629	0.489988	0.560396
H172	H	0.275489	0.176679	-0.091198
H173	H	0.608822	0.510012	0.242135
H174	H	0.942155	0.843346	0.575469
Cl175	Cl	0.514219	0.219800	-0.092846
Cl176	Cl	0.847552	0.553133	0.240488
Cl177	Cl	1.180886	0.886466	0.573821
Cl178	Cl	0.692399	0.219804	-0.095720
Cl179	Cl	1.025733	0.553138	0.237613
Cl180	Cl	1.359066	0.886471	0.570947
H181	H	1.016974	-0.000014	0.541735
H182	H	1.350307	0.333319	0.875068
H183	H	1.683640	0.666653	1.208401
Cl184	Cl	1.044951	-0.000014	0.706487
Cl185	Cl	1.378284	0.333320	1.039820
Cl186	Cl	1.711617	0.666653	1.373154
H187	H	0.961176	-0.480771	-0.034457
H188	H	1.294509	-0.147437	0.298876
H189	H	1.627842	0.185896	0.632210
H190	H	0.764431	0.000008	0.651738
H191	H	1.097765	0.333341	0.985071
H192	H	1.431098	0.666674	1.318404
H193	H	0.766721	0.000017	0.508529
H194	H	1.100055	0.333350	0.841862
H195	H	1.433388	0.666683	1.175196
H196	H	0.773080	-0.000001	0.111214
H197	H	1.106413	0.333333	0.444547
H198	H	1.439747	0.666666	0.777881
