data_functionalizedCrystal
_audit_creation_method	'MofGen! by Chris Wilmer'
_symmetry_space_group_name_H-M	'P1'
_symmetry_Int_Tables_number	1
_symmetry_cell_setting	triclinic
loop_
_symmetry_equiv_pos_as_xyz
  x,y,z
_cell_length_a	19.288840
_cell_length_b	17.699092
_cell_length_c	17.766277
_cell_angle_alpha	90.006058
_cell_angle_beta	90.006284
_cell_angle_gamma	83.206192
loop_
_atom_site_label
_atom_site_type_symbol
_atom_site_fract_x
_atom_site_fract_y
_atom_site_fract_z
O1	O	0.921468	0.094330	0.062717
O2	O	0.719220	0.107086	0.062691
O3	O	0.826055	-0.009490	0.062703
O4	O	0.814633	0.210905	0.062705
O5	O	0.826057	-0.009501	-0.062486
O6	O	0.719223	0.107074	-0.062498
O7	O	0.921470	0.094318	-0.062471
Cu8	Cu	0.820347	0.100695	-0.073915
Cu9	Cu	0.820344	0.100709	0.074135
O10	O	0.814635	0.210893	-0.062484
C11	C	0.693344	0.106673	0.000093
C12	C	0.616238	0.105450	0.000083
C13	C	0.580032	0.104869	0.068325
C14	C	0.507584	0.103712	0.068334
C15	C	0.471346	0.103120	0.000098
C16	C	0.507560	0.103706	-0.068154
C17	C	0.580006	0.104871	-0.068161
C18	C	0.361964	0.056939	-0.052171
C19	C	0.289519	0.055769	-0.052161
C20	C	0.247898	0.099531	0.000117
C21	C	0.278731	0.144453	0.052398
C22	C	0.351177	0.145618	0.052391
C23	C	0.392791	0.101858	0.000098
C24	C	0.133136	0.097696	0.068374
C25	C	0.060685	0.096544	0.068380
C26	C	0.060664	0.096530	-0.068110
C27	C	0.133111	0.097690	-0.068114
C28	C	0.169344	0.098270	0.000130
C29	C	0.825646	-0.037692	0.000110
C30	C	0.824415	-0.121708	0.000113
C31	C	0.823837	-0.161168	0.068354
C32	C	0.822676	-0.240109	0.068355
C33	C	0.822098	-0.279589	0.000114
C34	C	0.822674	-0.240123	-0.068132
C35	C	0.823830	-0.161183	-0.068132
C36	C	0.818012	-0.558481	-0.068134
C37	C	0.816858	-0.637428	-0.068129
C38	C	0.816858	-0.637408	0.068353
C39	C	0.818014	-0.558467	0.068353
C40	C	0.818586	-0.519007	0.000107
C41	C	0.819843	-0.433410	0.000107
C42	C	0.820846	-0.365186	0.000113
C43	C	0.947346	0.094731	0.000128
C44	C	1.024452	0.095954	0.000143
C45	C	0.815044	0.239096	0.000111
C46	C	0.816275	0.323111	0.000113
N47	N	0.820354	0.100685	-0.178046
N48	N	0.820342	0.100713	0.178265
C49	C	0.867733	0.049194	0.217657
C50	C	0.867739	0.049192	0.296459
C51	C	0.820342	0.100703	0.335866
C52	C	0.772948	0.152232	0.296464
C53	C	0.772948	0.152237	0.217663
C54	C	0.757066	0.110674	0.460702
C55	C	0.757065	0.110664	0.539501
C56	C	0.820342	0.100692	0.578912
C57	C	0.883623	0.090715	0.539514
C58	C	0.883623	0.090719	0.460714
C59	C	0.820337	0.100704	0.421311
C60	C	0.867743	0.049169	0.703750
C61	C	0.867750	0.049173	0.782553
C62	C	0.772953	0.152209	0.782556
C63	C	0.772952	0.152208	0.703755
C64	C	0.820347	0.100684	0.664356
H65	H	0.031159	0.096053	-0.123669
H66	H	0.734360	0.194157	0.671679
H67	H	0.609484	0.105345	-0.123734
H68	H	0.264422	0.019187	-0.094728
O69	O	0.468527	0.103070	0.141944
H70	H	0.476153	0.154862	0.174681
H71	H	0.824311	-0.129029	0.123924
H72	H	0.906331	0.007238	0.328538
O73	O	0.172218	0.098317	0.141978
H74	H	0.228679	0.099209	0.130509
O75	O	0.688812	0.121432	0.418198
H76	H	0.687039	0.172954	0.382311
H77	H	0.824291	-0.129054	-0.123701
O78	O	0.918865	-0.006364	0.175170
H79	H	0.910230	-0.065376	0.190286
H80	H	0.935148	0.082597	0.428639
H81	H	0.734358	0.194174	0.328552
H82	H	0.816388	-0.669545	0.123922
H83	H	0.734365	0.194153	0.814641
H84	H	0.906345	0.007222	0.814627
O85	O	0.172168	0.098328	-0.141718
H86	H	0.134800	0.097724	-0.189168
H87	H	0.244844	0.180091	0.094966
H88	H	0.822200	-0.272274	-0.123696
H89	H	0.031207	0.096075	0.123954
O90	O	0.406855	0.009731	-0.108557
H91	H	0.373248	-0.021711	-0.144898
O92	O	0.468590	0.103160	-0.141830
H93	H	0.476313	0.154996	-0.174437
H94	H	0.822208	-0.272234	0.123924
H95	H	0.935150	0.082600	0.571600
H96	H	0.705538	0.118780	0.571573
H97	H	0.818488	-0.526327	0.123922
H98	H	0.816386	-0.669570	-0.123702
H99	H	0.734356	0.194191	0.185589
O100	O	0.818646	-0.515935	-0.141742
H101	H	0.771108	-0.524188	-0.174479
O102	O	0.619112	0.105504	0.141927
H103	H	0.581759	0.104913	0.189383
H104	H	0.906337	0.007217	0.671671
H105	H	0.376278	0.182196	0.094958
