data_functionalizedCrystal
_audit_creation_method	'MofGen! by Chris Wilmer'
_symmetry_space_group_name_H-M	'P1'
_symmetry_Int_Tables_number	1
_symmetry_cell_setting	triclinic
loop_
_symmetry_equiv_pos_as_xyz
  x,y,z
_cell_length_a	14.395555
_cell_length_b	14.395555
_cell_length_c	20.016444
_cell_angle_alpha	60.000712
_cell_angle_beta	90.004569
_cell_angle_gamma	60.001260
loop_
_atom_site_label
_atom_site_type_symbol
_atom_site_fract_x
_atom_site_fract_y
_atom_site_fract_z
Zr1	Zr	0.894939	1.016750	-0.087649
O2	O	0.746608	1.210551	-0.194331
O3	O	0.940407	0.822953	-0.054944
O4	O	0.940404	1.016747	-0.194322
O5	O	0.746618	1.016759	0.054988
O6	O	1.093278	1.016740	-0.194316
O7	O	0.746611	1.016757	-0.054953
O8	O	1.093283	0.670078	0.055006
O9	O	0.746613	1.363421	-0.194333
O10	O	1.073891	0.902658	-0.040993
O11	O	0.959808	0.902664	0.041051
O12	O	0.959805	1.130832	-0.123048
O13	O	0.845722	1.130838	-0.041004
Zr14	Zr	1.138767	1.016742	0.087705
Zr15	Zr	1.138756	1.016739	-0.087640
Zr16	Zr	0.894950	1.016753	0.087696
Zr17	Zr	0.894947	1.260560	-0.087652
Zr18	Zr	1.138759	0.772933	0.087708
O19	O	1.093299	1.210539	0.055000
O20	O	1.093284	1.210536	-0.194318
O21	O	0.746624	1.210555	0.054986
O22	O	1.287098	0.822941	0.194387
O23	O	1.287083	0.822937	-0.054931
O24	O	0.940422	0.822956	0.194374
O25	O	1.287088	1.016733	-0.054933
O26	O	1.093302	1.016745	0.194377
O27	O	0.940428	1.016752	0.194372
O28	O	1.287095	1.016735	0.055009
O29	O	0.940414	1.363412	-0.194325
O30	O	1.093292	0.670080	0.194381
O31	O	1.287093	0.670071	0.194389
O32	O	1.287085	0.670069	0.055013
O33	O	0.746621	1.363423	-0.054957
O34	O	0.940423	1.363414	-0.054950
O35	O	1.073901	0.902660	0.123104
O36	O	1.187984	0.902654	0.041060
O37	O	1.073898	1.130828	-0.040995
O38	O	0.959815	1.130834	0.041049
C39	C	1.016844	0.711778	0.000031
C40	C	1.016841	0.608274	0.000032
C41	C	0.711876	1.016760	0.000016
C42	C	0.608369	1.016764	0.000012
C43	C	0.954641	0.547685	0.044769
C44	C	0.909554	0.561943	-0.032385
C45	C	1.061900	0.409621	0.077163
C46	C	0.971691	0.623958	-0.077167
C47	C	1.124097	0.471573	0.032436
C48	C	1.079037	0.485877	-0.044764
C49	C	0.485575	1.141175	-0.044721
C50	C	0.454736	1.078981	-0.077138
C51	C	0.454785	1.078953	0.032423
C52	C	0.578893	0.954570	-0.032450
C53	C	0.578939	0.954560	0.077154
C54	C	0.548173	0.892275	0.044756
C55	C	1.321830	1.016732	0.000040
C56	C	1.425337	1.016728	0.000043
C57	C	1.016840	1.016743	-0.219302
C58	C	1.016835	1.016742	-0.293740
C59	C	1.016862	1.321714	0.000025
C60	C	1.016865	1.425218	0.000023
C61	C	0.932630	1.016759	-0.534960
C62	C	0.932625	1.016755	-0.465015
C63	C	1.101084	1.016729	-0.464988
C64	C	1.101093	1.016724	-0.534928
C65	C	1.016860	1.016746	-0.569915
C66	C	1.016846	1.016746	-0.430030
C67	C	1.016841	1.016741	-0.354192
C68	C	1.016866	1.016749	-0.645756
C69	C	1.016866	1.016749	0.219357
C70	C	1.016871	1.016750	0.293796
C71	C	1.321821	0.711764	0.000043
C72	C	1.425325	0.608256	0.000048
C73	C	1.016857	0.711781	0.219361
C74	C	1.016859	0.608279	0.293800
C75	C	1.321835	0.711767	0.219372
C76	C	1.425343	0.608260	0.293816
C77	C	0.711871	1.321725	-0.219317
C78	C	0.608363	1.425232	-0.293760
C79	C	0.711885	1.321728	0.000013
C80	C	0.608381	1.425236	0.000008
C81	C	1.016849	1.321711	-0.219305
C82	C	1.016847	1.425213	-0.293744
C83	C	1.076415	0.559671	0.371596
C84	C	1.076412	0.462433	0.441546
C85	C	1.016859	0.413798	0.433700
C86	C	0.957295	0.462415	0.355896
C87	C	0.957292	0.559658	0.285947
C88	C	1.533512	0.559649	0.285949
C89	C	1.630778	0.462407	0.355890
C90	C	1.619872	0.413771	0.433697
C91	C	1.511692	0.462392	0.441562
C92	C	1.414428	0.559639	0.371622
C93	C	0.500195	1.473855	-0.285893
C94	C	0.402928	1.571128	-0.355834
C95	C	0.413834	1.619769	-0.433641
C96	C	0.522014	1.571141	-0.441506
C97	C	0.619278	1.473877	-0.371566
C98	C	1.076412	1.473817	-0.285871
C99	C	1.076433	1.571056	-0.355809
C100	C	1.016882	1.619695	-0.433618
C101	C	0.957315	1.571082	-0.441490
C102	C	0.957302	1.473838	-0.371553
C103	C	1.548120	0.547695	0.044766
C104	C	1.578979	0.409586	0.077170
C105	C	1.578883	0.561989	-0.032393
C106	C	1.454820	0.471447	0.032497
C107	C	1.454727	0.623924	-0.077108
C108	C	1.485513	0.485824	-0.044723
H109	H	0.901970	0.574914	0.082545
Br110	Br	1.751886	0.281791	0.528609
H111	H	1.459853	0.458808	-0.082562
Br112	Br	0.365608	1.166630	0.078088
Br113	Br	0.818317	1.016786	-0.582438
H114	H	0.818858	0.599132	-0.059800
Br115	Br	0.908019	0.776568	-0.185944
Br116	Br	1.166707	0.440954	-0.107909
Br117	Br	0.590815	0.716841	0.107762
Br118	Br	0.818314	1.016763	-0.417574
H119	H	1.214772	0.434403	0.059870
Br120	Br	0.485363	1.407860	-0.180307
Br121	Br	1.125401	0.256932	0.185885
H122	H	1.401483	0.434032	0.059977
Br123	Br	1.016910	1.751672	-0.528525
Br124	Br	0.766075	1.407894	-0.382257
Br125	Br	1.496911	0.396372	0.547164
H126	H	0.314853	1.610703	-0.349414
H127	H	1.169663	1.016713	-0.436496
Br128	Br	0.443176	1.316511	-0.107863
H129	H	1.124911	0.599258	0.378001
H130	H	1.124906	1.434230	-0.222521
Br131	Br	1.215420	1.016691	-0.582367
H132	H	1.124937	1.610627	-0.349383
H133	H	0.401216	1.131561	-0.142363
Br134	Br	1.157256	0.396471	0.547126
H135	H	0.334626	1.698967	-0.490584
H136	H	1.016870	0.334617	0.490663
H137	H	0.632456	0.902025	0.142365
H138	H	0.632249	0.902026	-0.059923
Br139	Br	0.876479	0.396396	0.345260
H140	H	1.401190	0.715588	-0.142313
Br141	Br	0.876462	0.625609	0.180369
Br142	Br	0.876445	1.407898	-0.382253
Br143	Br	1.267631	0.625594	0.382313
Br144	Br	1.548343	0.625640	0.180363
Br145	Br	0.536795	1.637166	-0.547108
Br146	Br	0.876490	1.637118	-0.547095
Br147	Br	1.777579	0.396439	0.345197
Br148	Br	1.590526	0.592824	0.107916
H149	H	1.632520	0.317945	0.142389
Br150	Br	1.668030	0.624026	-0.078069
