data_functionalizedCrystal
_audit_creation_method	'MofGen! by Chris Wilmer'
_symmetry_space_group_name_H-M	'P1'
_symmetry_Int_Tables_number	1
_symmetry_cell_setting	triclinic
loop_
_symmetry_equiv_pos_as_xyz
  x,y,z
_cell_length_a	17.077404
_cell_length_b	18.050590
_cell_length_c	17.077396
_cell_angle_alpha	89.970225
_cell_angle_beta	89.981638
_cell_angle_gamma	90.016523
loop_
_atom_site_label
_atom_site_type_symbol
_atom_site_fract_x
_atom_site_fract_y
_atom_site_fract_z
Zn1	Zn	1.200078	-0.295700	-0.443812
Zn2	Zn	1.533412	0.037634	-0.110478
Zn3	Zn	1.866745	0.370967	0.222855
Zn4	Zn	1.199995	-0.419897	-0.312543
Zn5	Zn	1.533329	-0.086564	0.020791
Zn6	Zn	1.866662	0.246770	0.354124
Zn7	Zn	1.068810	-0.295721	-0.312562
Zn8	Zn	1.402143	0.037612	0.020771
Zn9	Zn	1.735477	0.370946	0.354104
Zn10	Zn	1.068788	-0.419848	-0.443769
Zn11	Zn	1.402121	-0.086515	-0.110436
Zn12	Zn	1.735455	0.246819	0.222898
O13	O	1.134418	-0.357791	-0.378171
O14	O	1.467751	-0.024458	-0.044838
O15	O	1.801085	0.308875	0.288495
O16	O	1.309914	-0.312186	-0.426408
O17	O	1.643247	0.021147	-0.093075
O18	O	1.976581	0.354480	0.240258
O19	O	1.182568	-0.403454	-0.202698
O20	O	1.515901	-0.070121	0.130635
O21	O	1.849234	0.263213	0.463968
O22	O	1.086267	-0.191793	-0.329999
O23	O	1.419600	0.141540	0.003334
O24	O	1.752934	0.474873	0.336668
O25	O	1.309853	-0.403433	-0.329966
O26	O	1.643187	-0.070100	0.003368
O27	O	1.976520	0.263233	0.336701
O28	O	1.182709	-0.191778	-0.426427
O29	O	1.516043	0.141555	-0.093094
O30	O	1.849376	0.474889	0.240239
O31	O	1.086187	-0.312222	-0.202713
O32	O	1.419520	0.021111	0.130621
O33	O	1.752853	0.354444	0.463954
O34	O	0.958960	-0.312175	-0.329957
O35	O	1.292294	0.021158	0.003376
O36	O	1.625627	0.354492	0.336709
O37	O	1.086229	-0.403350	-0.553622
O38	O	1.419563	-0.070017	-0.220288
O39	O	1.752896	0.263317	0.113045
O40	O	0.958944	-0.403371	-0.426354
O41	O	1.292277	-0.070037	-0.093021
O42	O	1.625611	0.263296	0.240312
O43	O	1.182688	-0.312139	-0.553653
O44	O	1.516021	0.021194	-0.220320
O45	O	1.849354	0.354528	0.113014
O46	O	1.182546	-0.523815	-0.329924
O47	O	1.515880	-0.190482	0.003409
O48	O	1.849213	0.142852	0.336742
O49	O	1.086149	-0.523779	-0.426336
O50	O	1.419482	-0.190446	-0.093002
O51	O	1.752816	0.142888	0.240331
C52	C	0.930470	-0.357770	-0.378154
C53	C	1.263803	-0.024437	-0.044821
C54	C	1.597137	0.308896	0.288513
C55	C	0.843220	-0.357779	-0.378165
C56	C	1.176554	-0.024446	-0.044832
C57	C	1.509887	0.308888	0.288502
C58	C	0.802263	-0.310351	-0.428459
C59	C	1.135596	0.022982	-0.095126
C60	C	1.468929	0.356315	0.238207
C61	C	0.720282	-0.310356	-0.428463
C62	C	1.053615	0.022977	-0.095130
C63	C	1.386949	0.356311	0.238204
C64	C	0.679261	-0.357793	-0.378176
C65	C	1.012594	-0.024460	-0.044842
C66	C	1.345927	0.308874	0.288491
C67	C	0.720224	-0.405223	-0.327876
C68	C	1.053558	-0.071890	0.005458
C69	C	1.386891	0.261444	0.338791
C70	C	0.802203	-0.405214	-0.327869
C71	C	1.135536	-0.071881	0.005465
C72	C	1.468870	0.261453	0.338798
C73	C	0.549354	-0.405240	-0.327895
C74	C	0.882688	-0.071907	0.005438
C75	C	1.216021	0.261427	0.338772
C76	C	0.467370	-0.405250	-0.327903
C77	C	0.800703	-0.071917	0.005430
C78	C	1.134036	0.261416	0.338764
C79	C	0.467433	-0.310382	-0.428489
C80	C	0.800766	0.022951	-0.095156
C81	C	1.134100	0.356285	0.238177
C82	C	0.549412	-0.310373	-0.428482
C83	C	0.882745	0.022960	-0.095149
C84	C	1.216079	0.356294	0.238184
C85	C	0.590370	-0.357804	-0.378183
C86	C	0.923703	-0.024471	-0.044850
C87	C	1.257036	0.308863	0.288483
C88	C	1.134358	-0.550743	-0.378140
C89	C	1.467691	-0.217410	-0.044807
C90	C	1.801024	0.115923	0.288526
C91	C	1.134404	-0.633289	-0.378153
C92	C	1.467737	-0.299956	-0.044820
C93	C	1.801070	0.033377	0.288514
C94	C	1.186934	-0.832732	-0.325798
C95	C	1.520267	-0.499399	0.007536
C96	C	1.853600	-0.166066	0.340869
C97	C	1.206108	-0.882064	-0.397440
C98	C	1.539442	-0.548731	-0.064107
C99	C	1.872775	-0.215397	0.269227
C100	C	1.134448	-0.784420	-0.378184
C101	C	1.467781	-0.451086	-0.044851
C102	C	1.801115	-0.117753	0.288482
C103	C	1.115353	-0.882170	-0.306574
C104	C	1.448686	-0.548836	0.026759
C105	C	1.782020	-0.215503	0.360092
C106	C	1.134493	-0.930405	-0.378208
C107	C	1.467826	-0.597071	-0.044875
C108	C	1.801159	-0.263738	0.288458
C109	C	1.153660	-0.832664	-0.449864
C110	C	1.486993	-0.499331	-0.116531
C111	C	1.820326	-0.165997	0.216802
C112	C	1.062871	-0.832765	-0.358950
C113	C	1.396205	-0.499432	-0.025617
C114	C	1.729538	-0.166098	0.307716
C115	C	1.082019	-0.882074	-0.430642
C116	C	1.415352	-0.548741	-0.097309
C117	C	1.748685	-0.215408	0.236025
C118	C	1.134424	-0.700321	-0.378170
C119	C	1.467758	-0.366988	-0.044836
C120	C	1.801091	-0.033655	0.288497
C121	C	1.134516	-1.014501	-0.378231
C122	C	1.467849	-0.681168	-0.044898
C123	C	1.801183	-0.347835	0.288435
C124	C	1.339162	-0.357813	-0.378190
C125	C	1.672495	-0.024480	-0.044856
C126	C	2.005829	0.308854	0.288477
C127	C	1.426412	-0.357822	-0.378197
C128	C	1.759745	-0.024489	-0.044864
C129	C	2.093079	0.308844	0.288469
C130	C	1.134465	-0.357737	-0.582916
C131	C	1.467799	-0.024403	-0.249583
C132	C	1.801132	0.308930	0.083751
C133	C	1.134486	-0.357713	-0.670166
C134	C	1.467819	-0.024380	-0.336832
C135	C	1.801152	0.308953	-0.003499
C136	C	1.134500	-0.164086	-0.378220
C137	C	1.467833	0.169248	-0.044887
C138	C	1.801167	0.502581	0.288447
C139	C	1.134535	-0.081540	-0.378241
C140	C	1.467868	0.251793	-0.044907
C141	C	1.801201	0.585127	0.288426
C142	C	1.184713	-0.310216	-0.711173
C143	C	1.518047	0.023118	-0.377840
C144	C	1.851380	0.356451	-0.044507
C145	C	1.184723	-0.310191	-0.793154
C146	C	1.518056	0.023142	-0.459821
C147	C	1.851389	0.356476	-0.126487
C148	C	1.134508	-0.357668	-0.834125
C149	C	1.467841	-0.024335	-0.500792
C150	C	1.801175	0.308999	-0.167459
C151	C	1.084275	-0.405168	-0.793112
C152	C	1.417608	-0.071835	-0.459778
C153	C	1.750941	0.261499	-0.126445
C154	C	1.084262	-0.405188	-0.711133
C155	C	1.417595	-0.071855	-0.377799
C156	C	1.750928	0.261478	-0.044466
C157	C	1.084306	-0.405123	-0.963982
C158	C	1.417640	-0.071790	-0.630648
C159	C	1.750973	0.261543	-0.297315
C160	C	1.084320	-0.405104	-1.045966
C161	C	1.417653	-0.071771	-0.712633
C162	C	1.750987	0.261563	-0.379300
C163	C	1.184767	-0.310126	-1.046003
C164	C	1.518101	0.023207	-0.712670
C165	C	1.851434	0.356541	-0.379336
C166	C	1.184754	-0.310146	-0.964024
C167	C	1.518088	0.023187	-0.630691
C168	C	1.851421	0.356520	-0.297357
C169	C	1.134522	-0.357647	-0.923016
C170	C	1.467855	-0.024314	-0.589683
C171	C	1.801189	0.309019	-0.256350
C172	C	1.134416	-0.357792	-0.174224
C173	C	1.467749	-0.024459	0.159110
C174	C	1.801082	0.308874	0.492443
C175	C	1.134548	-0.357606	-0.086974
C176	C	1.467881	-0.024273	0.246359
C177	C	1.801214	0.309060	0.579692
H178	H	0.582699	-0.443862	-0.286934
H179	H	0.916033	-0.110528	0.046399
H180	H	1.249366	0.222805	0.379732
H181	H	0.433972	-0.443878	-0.286955
H182	H	0.767306	-0.110545	0.046378
H183	H	1.100639	0.222789	0.379712
H184	H	0.686818	-0.443843	-0.286927
H185	H	1.020151	-0.110510	0.046406
H186	H	1.353485	0.222823	0.379740
H187	H	0.835656	-0.271724	-0.469411
H188	H	1.168990	0.061609	-0.136078
H189	H	1.502323	0.394942	0.197255
O190	O	1.286313	-0.910750	-0.419014
O191	O	1.619646	-0.577416	-0.085681
O192	O	1.952979	-0.244083	0.247652
H193	H	1.285451	-0.972234	-0.419381
H194	H	1.618784	-0.638901	-0.086048
H195	H	1.952117	-0.305568	0.247285
O196	O	1.023245	-0.910595	-0.489398
O197	O	1.356579	-0.577261	-0.156065
O198	O	1.689912	-0.243928	0.177269
H199	H	1.053736	-0.945171	-0.533642
H200	H	1.387070	-0.611838	-0.200308
H201	H	1.720403	-0.278504	0.133025
H202	H	1.231334	-0.811066	-0.281542
H203	H	1.564667	-0.477733	0.051792
H204	H	1.898000	-0.144400	0.385125
H205	H	0.434081	-0.271760	-0.469443
H206	H	0.767415	0.061573	-0.136110
H207	H	1.100748	0.394906	0.197223
H208	H	0.835550	-0.443834	-0.286913
H209	H	1.168883	-0.110501	0.046420
H210	H	1.502217	0.222832	0.379753
H211	H	1.169769	-0.811011	-0.510486
H212	H	1.503102	-0.477678	-0.177153
H213	H	1.836435	-0.144344	0.156181
O214	O	0.982693	-0.804042	-0.337356
O215	O	1.316026	-0.470709	-0.004022
O216	O	1.649359	-0.137375	0.329311
H217	H	0.966955	-0.823832	-0.277848
H218	H	1.300288	-0.490499	0.055486
H219	H	1.633621	-0.157166	0.388819
O220	O	1.093803	-0.910902	-0.226351
O221	O	1.427137	-0.577569	0.106983
O222	O	1.760470	-0.244236	0.440316
H223	H	1.093413	-0.972387	-0.227167
H224	H	1.426746	-0.639053	0.106166
H225	H	1.760080	-0.305720	0.439500
H226	H	1.225607	-0.271556	-0.677821
H227	H	1.558940	0.061777	-0.344487
H228	H	1.892273	0.395110	-0.011154
H229	H	1.225625	-0.271515	-0.826539
H230	H	1.558958	0.061818	-0.493206
H231	H	1.892292	0.395151	-0.159872
O232	O	1.030078	-0.456407	-0.666896
O233	O	1.363411	-0.123074	-0.333563
O234	O	1.696745	0.210259	-0.000230
H235	H	0.995162	-0.489419	-0.709157
H236	H	1.328496	-0.156086	-0.375824
H237	H	1.661829	0.177248	-0.042491
H238	H	1.225648	-0.271490	-0.930668
H239	H	1.558982	0.061843	-0.597334
H240	H	1.892315	0.395176	-0.264001
O241	O	1.238942	-0.258883	-1.090226
O242	O	1.572275	0.074450	-0.756892
O243	O	1.905609	0.407783	-0.423559
H244	H	1.230508	-0.266835	-1.154114
H245	H	1.563842	0.066498	-0.820780
H246	H	1.897175	0.399831	-0.487447
H247	H	0.686938	-0.271737	-0.469419
H248	H	1.020271	0.061596	-0.136086
H249	H	1.353605	0.394930	0.197247
H250	H	1.043429	-0.443762	-1.079323
H251	H	1.376762	-0.110429	-0.745990
H252	H	1.710095	0.222904	-0.412656
O253	O	1.030123	-0.456350	-0.919747
O254	O	1.363457	-0.123017	-0.586414
O255	O	1.696790	0.210317	-0.253080
H256	H	0.995211	-0.489365	-0.962008
H257	H	1.328545	-0.156031	-0.628674
H258	H	1.661878	0.177302	-0.295341
H259	H	1.043386	-0.443822	-0.826477
H260	H	1.376719	-0.110489	-0.493144
H261	H	1.710053	0.222845	-0.159810
H262	H	0.582809	-0.271750	-0.469435
H263	H	0.916143	0.061584	-0.136102
H264	H	1.249476	0.394917	0.197231
