data_functionalizedCrystal
_audit_creation_method	'MofGen! by Chris Wilmer'
_symmetry_space_group_name_H-M	'P1'
_symmetry_Int_Tables_number	1
_symmetry_cell_setting	triclinic
loop_
_symmetry_equiv_pos_as_xyz
  x,y,z
_cell_length_a	19.805407
_cell_length_b	12.594516
_cell_length_c	19.805399
_cell_angle_alpha	90.020797
_cell_angle_beta	90.019573
_cell_angle_gamma	90.016053
loop_
_atom_site_label
_atom_site_type_symbol
_atom_site_fract_x
_atom_site_fract_y
_atom_site_fract_z
Zn1	Zn	1.034784	-0.423767	0.382752
Zn2	Zn	1.534784	0.076233	0.882752
Zn3	Zn	1.034720	-0.601760	0.269577
Zn4	Zn	1.534720	-0.101760	0.769577
Zn5	Zn	0.921599	-0.423796	0.269576
Zn6	Zn	1.421599	0.076204	0.769576
Zn7	Zn	0.921583	-0.601704	0.382723
Zn8	Zn	1.421583	-0.101704	0.882723
O9	O	0.978172	-0.512757	0.326157
O10	O	1.478172	-0.012757	0.826157
O11	O	1.129492	-0.447389	0.367751
O12	O	1.629492	0.052611	0.867751
O13	O	1.019694	-0.578189	0.174860
O14	O	1.519694	-0.078189	0.674860
O15	O	0.936647	-0.274846	0.284601
O16	O	1.436647	0.225154	0.784601
O17	O	1.129445	-0.578160	0.284602
O18	O	1.629445	-0.078160	0.784602
O19	O	1.019804	-0.274825	0.367750
O20	O	1.519804	0.225175	0.867750
O21	O	0.936584	-0.447439	0.174860
O22	O	1.436584	0.052561	0.674860
O23	O	0.826880	-0.447385	0.284573
O24	O	1.326880	0.052615	0.784573
O25	O	0.936620	-0.578064	0.477444
O26	O	1.436620	-0.078064	0.977444
O27	O	0.826869	-0.578092	0.367702
O28	O	1.326869	-0.078092	0.867702
O29	O	1.019788	-0.447335	0.477464
O30	O	1.519788	0.052665	0.977464
O31	O	1.019678	-0.750698	0.284574
O32	O	1.519678	-0.250698	0.784574
O33	O	0.936557	-0.750657	0.367703
O34	O	1.436557	-0.250657	0.867703
C35	C	0.802316	-0.512736	0.326135
C36	C	1.302316	-0.012736	0.826135
C37	C	0.727084	-0.512753	0.326142
C38	C	1.227084	-0.012753	0.826142
C39	C	0.691751	-0.580915	0.369357
C40	C	1.191751	-0.080915	0.869357
C41	C	0.621063	-0.580917	0.369366
C42	C	1.121063	-0.080917	0.869366
C43	C	0.585708	-0.512762	0.326157
C44	C	1.085708	-0.012762	0.826157
C45	C	0.621045	-0.444592	0.282940
C46	C	1.121045	0.055408	0.782940
C47	C	0.691733	-0.444586	0.282934
C48	C	1.191733	0.055414	0.782934
C49	C	0.335972	-0.444615	0.282962
C50	C	0.835972	0.055385	0.782962
C51	C	0.265280	-0.444629	0.282970
C52	C	0.765280	0.055371	0.782970
C53	C	0.265302	-0.580947	0.369394
C54	C	0.765302	-0.080947	0.869394
C55	C	0.335989	-0.580941	0.369389
C56	C	0.835989	-0.080941	0.869389
C57	C	0.371321	-0.512768	0.326175
C58	C	0.871321	-0.012768	0.826175
C59	C	0.447969	-0.512765	0.326166
C60	C	0.947969	-0.012765	0.826166
C61	C	0.509061	-0.512769	0.326162
C62	C	1.009061	-0.012769	0.826162
C63	C	0.978127	-0.789298	0.326150
C64	C	1.478127	-0.289298	0.826150
C65	C	0.978170	-0.907603	0.326170
C66	C	1.478170	-0.407603	0.826170
C67	C	0.932956	-0.976872	0.371352
C68	C	1.432956	-0.476872	0.871352
C69	C	0.916467	-1.047728	0.309590
C70	C	1.416467	-0.547728	0.809590
C71	C	0.994721	-1.047546	0.387943
C72	C	1.494721	-0.547546	0.887943
C73	C	0.961649	-0.976901	0.264375
C74	C	1.461649	-0.476901	0.764375
C75	C	1.039931	-0.976712	0.342770
C76	C	1.539931	-0.476712	0.842770
C77	C	1.023465	-1.047536	0.280965
C78	C	1.523465	-0.547536	0.780965
C79	C	1.154714	-0.512778	0.326179
C80	C	1.654714	-0.012778	0.826179
C81	C	1.229946	-0.512787	0.326189
C82	C	1.729946	-0.012787	0.826189
C83	C	0.978209	-0.512690	0.502700
C84	C	1.478209	-0.012690	1.002700
C85	C	0.978226	-0.512661	0.577932
C86	C	1.478226	-0.012661	1.077932
C87	C	0.978235	-0.235136	0.326178
C88	C	1.478235	0.264864	0.826178
C89	C	0.978261	-0.116830	0.326188
C90	C	1.478261	0.383170	0.826188
C91	C	0.978173	-0.512747	0.150301
C92	C	1.478173	-0.012747	0.650301
C93	C	0.978288	-0.512475	0.075069
C94	C	1.478288	-0.012475	0.575069
C95	C	1.021533	-0.444587	0.613288
C96	C	1.521533	0.055413	1.113288
C97	C	1.021539	-0.444556	0.683976
C98	C	1.521539	0.055444	1.183976
C99	C	0.978242	-0.512605	0.719307
C100	C	1.478242	-0.012605	1.219307
C101	C	0.934931	-0.580683	0.683947
C102	C	1.434931	-0.080683	1.183947
C103	C	0.934921	-0.580707	0.613259
C104	C	1.434921	-0.080707	1.113259
C105	C	0.934969	-0.580583	0.969020
C106	C	1.434969	-0.080583	1.469020
C107	C	0.934984	-0.580556	1.039712
C108	C	1.434984	-0.080556	1.539712
C109	C	1.021588	-0.444432	1.039737
C110	C	1.521588	0.055568	1.539737
C111	C	1.021578	-0.444457	0.969050
C112	C	1.521578	0.055543	1.469050
C113	C	0.978264	-0.512530	0.933695
C114	C	1.478264	-0.012530	1.433695
C115	C	0.978256	-0.512561	0.857046
C116	C	1.478256	-0.012561	1.357046
C117	C	0.978253	-0.512580	0.795955
C118	C	1.478253	-0.012580	1.295955
H119	H	0.592298	-0.636423	0.404556
H120	H	1.092298	-0.136423	0.904556
C121	C	0.328909	-0.715682	0.454826
C122	C	0.828909	-0.215682	0.954826
C123	C	0.374850	-0.655856	0.416888
C124	C	0.874850	-0.155856	0.916888
H125	H	0.352901	-0.761924	0.484154
H126	H	0.852901	-0.261924	0.984154
H127	H	0.301323	-0.756340	0.425296
H128	H	0.801323	-0.256340	0.925296
H129	H	0.301353	-0.669351	0.480765
H130	H	0.801353	-0.169351	0.980765
H131	H	0.402403	-0.702186	0.390946
H132	H	0.902403	-0.202186	0.890946
H133	H	0.402448	-0.615194	0.446422
H134	H	0.902448	-0.115194	0.946422
C135	C	0.843909	-0.595369	0.889515
C136	C	1.343909	-0.095369	1.389515
C137	C	0.887363	-0.655405	0.930156
C138	C	1.387363	-0.155405	1.430156
H139	H	0.814516	-0.641563	0.865521
H140	H	1.314516	-0.141563	1.365521
H141	H	0.869695	-0.554851	0.858364
H142	H	1.369695	-0.054851	1.358364
H143	H	0.818036	-0.548989	0.917100
H144	H	1.318036	-0.048989	1.417100
H145	H	0.913240	-0.701780	0.902570
H146	H	1.413240	-0.201780	1.402570
H147	H	0.861574	-0.695941	0.961311
H148	H	1.361574	-0.195941	1.461311
C149	C	0.848990	-1.020736	0.454202
C150	C	1.348990	-0.520736	0.954202
C151	C	0.881250	-0.934975	0.422856
C152	C	1.381250	-0.434975	0.922856
H153	H	0.817066	-0.994867	0.485992
H154	H	1.317066	-0.494867	0.985992
H155	H	0.881567	-1.063198	0.476766
H156	H	1.381567	-0.563198	0.976766
H157	H	0.826450	-1.062296	0.421103
H158	H	1.326450	-0.562296	0.921103
H159	H	0.903795	-0.893419	0.455954
H160	H	1.403795	-0.393419	0.955954
H161	H	0.848668	-0.892495	0.400292
H162	H	1.348668	-0.392495	0.900292
C163	C	0.628129	-0.309837	0.197513
C164	C	1.128129	0.190163	0.697513
C165	C	0.582186	-0.369671	0.235443
C166	C	1.082186	0.130329	0.735443
H167	H	0.604139	-0.263581	0.168192
H168	H	1.104139	0.236419	0.668192
H169	H	0.655681	-0.356154	0.171572
H170	H	1.155681	0.143846	0.671572
H171	H	0.655718	-0.269184	0.227052
H172	H	1.155718	0.230816	0.727052
H173	H	0.554600	-0.410330	0.205904
H174	H	1.054600	0.089670	0.705904
H175	H	0.554622	-0.323348	0.261386
H176	H	1.054622	0.176652	0.761386
H177	H	1.056853	-0.389000	1.068531
H178	H	1.556853	0.111000	1.568531
H179	H	1.061740	-1.078369	0.242720
H180	H	1.561740	-0.578369	0.742720
H181	H	0.864280	-1.078946	0.295564
H182	H	1.364280	-0.578946	0.795564
H183	H	0.947627	-0.945998	0.212128
H184	H	1.447627	-0.445998	0.712128
C185	C	0.849320	-0.715238	0.676817
C186	C	1.349320	-0.215238	1.176817
C187	C	0.887336	-0.655485	0.722780
C188	C	1.387336	-0.155485	1.222780
H189	H	0.819935	-0.761415	0.700791
H190	H	1.319935	-0.261415	1.200791
H191	H	0.878796	-0.755962	0.649249
H192	H	1.378796	-0.255962	1.149249
H193	H	0.823437	-0.668857	0.649245
H194	H	1.323437	-0.168857	1.149245
H195	H	0.913223	-0.701865	0.750349
H196	H	1.413223	-0.201865	1.250349
H197	H	0.857856	-0.614757	0.750359
H198	H	1.357856	-0.114757	1.250359
C199	C	0.771197	-0.429607	0.191903
C200	C	1.271197	0.070393	0.691903
C201	C	0.730577	-0.369665	0.235430
C202	C	1.230577	0.130335	0.735430
H203	H	0.795180	-0.383349	0.162580
H204	H	1.295180	0.116651	0.662580
H205	H	0.743603	-0.475918	0.165965
H206	H	1.243603	0.024082	0.665965
H207	H	0.802363	-0.470194	0.217646
H208	H	1.302363	0.029806	0.717646
H209	H	0.699407	-0.329084	0.209688
H210	H	1.199407	0.170916	0.709688
H211	H	0.758172	-0.323336	0.261371
H212	H	1.258172	0.176664	0.761371
H213	H	1.056806	-0.389126	0.712760
H214	H	1.556806	0.110874	1.212760
H215	H	0.236527	-0.636453	0.404584
H216	H	0.736527	-0.136453	0.904584
H217	H	0.236496	-0.389122	0.247783
H218	H	0.736496	0.110878	0.747783
H219	H	1.092106	-0.945498	0.356826
H220	H	1.592106	-0.445498	0.856826
C221	C	0.849359	-0.715104	1.032591
C222	C	1.349359	-0.215104	1.532591
C223	C	0.887383	-0.655353	1.078550
C224	C	1.387383	-0.155353	1.578550
H225	H	0.819972	-0.761273	1.056570
H226	H	1.319972	-0.261273	1.556570
H227	H	0.878830	-0.755837	1.005024
H228	H	1.378830	-0.255837	1.505024
H229	H	0.823478	-0.668721	1.005019
H230	H	1.323478	-0.168721	1.505019
H231	H	0.913267	-0.701736	1.106119
H232	H	1.413267	-0.201736	1.606119
H233	H	0.857908	-0.614617	1.106129
H234	H	1.357908	-0.114617	1.606129
C235	C	0.925483	-0.723896	0.533742
C236	C	1.425483	-0.223896	1.033742
C237	C	0.887323	-0.655538	0.574386
C238	C	1.387323	-0.155538	1.074386
H239	H	0.896095	-0.770086	0.509740
H240	H	1.396095	-0.270086	1.009740
H241	H	0.954958	-0.764604	0.561321
H242	H	1.454958	-0.264604	1.061321
H243	H	0.951266	-0.683354	0.502592
H244	H	1.451266	-0.183354	1.002592
H245	H	0.861543	-0.696080	0.605540
H246	H	1.361543	-0.196080	1.105540
H247	H	0.857835	-0.614825	0.546805
H248	H	1.357835	-0.114825	1.046805
H249	H	0.720532	-0.636419	0.404541
H250	H	1.220532	-0.136419	0.904541
H251	H	1.008682	-1.078577	0.440176
H252	H	1.508682	-0.578577	0.940176
H253	H	1.056837	-0.389047	0.940287
H254	H	1.556837	0.110953	1.440287
H255	H	0.364730	-0.389113	0.247769
H256	H	0.864730	0.110887	0.747769
H257	H	1.056792	-0.389176	0.584526
H258	H	1.556792	0.110824	1.084526
