data_functionalizedCrystal
_audit_creation_method	'MofGen! by Chris Wilmer'
_symmetry_space_group_name_H-M	'P1'
_symmetry_Int_Tables_number	1
_symmetry_cell_setting	triclinic
loop_
_symmetry_equiv_pos_as_xyz
  x,y,z
_cell_length_a	8.497371
_cell_length_b	12.759399
_cell_length_c	12.759386
_cell_angle_alpha	90.062858
_cell_angle_beta	90.019588
_cell_angle_gamma	89.993660
loop_
_atom_site_label
_atom_site_type_symbol
_atom_site_fract_x
_atom_site_fract_y
_atom_site_fract_z
Zn1	Zn	-2.412253	0.418486	-0.593375
Zn2	Zn	-2.411988	0.594300	-0.417693
Zn3	Zn	-2.148326	0.418570	-0.417780
Zn4	Zn	-2.148411	0.594058	-0.593401
O5	O	-2.280244	0.506354	-0.505562
O6	O	-2.632980	0.441875	-0.570023
O7	O	-2.376866	0.571125	-0.270684
O8	O	-2.183411	0.271538	-0.441098
O9	O	-2.632785	0.571044	-0.440951
O10	O	-2.377317	0.271476	-0.570107
O11	O	-2.183155	0.442017	-0.270747
O12	O	-1.927575	0.441782	-0.441124
O13	O	-2.183557	0.570632	-0.740419
O14	O	-1.927637	0.570713	-0.570152
O15	O	-2.377400	0.441640	-0.740399
O16	O	-2.376949	0.741289	-0.440976
O17	O	-2.183300	0.741111	-0.570068
C18	C	-2.280148	0.779321	-0.505538
C19	C	-2.280251	0.896098	-0.505563
C20	C	-2.280517	0.506100	-0.779596
C21	C	-2.280634	0.505992	-0.896373
C22	C	-2.280384	0.232320	-0.505609
C23	C	-2.280444	0.115544	-0.505629
C24	C	-1.870365	0.506284	-0.505608
C25	C	-1.691720	0.506410	-0.505518
C26	C	-2.280063	0.506530	-0.232595
C27	C	-2.280252	0.506343	-0.115818
C28	C	-2.381199	0.951017	-0.438422
C29	C	-2.381300	1.060741	-0.438457
C30	C	-2.179491	1.060616	-0.572778
C31	C	-2.179399	0.950894	-0.572748
C32	C	-2.567486	1.210687	-0.401020
C33	C	-2.668421	1.265610	-0.333861
C34	C	-2.692632	1.230134	-0.231345
C35	C	-2.615886	1.139735	-0.195965
C36	C	-2.514940	1.084817	-0.263118
C37	C	-2.490759	1.120293	-0.365649
C38	C	-1.993211	0.800946	-0.610174
C39	C	-1.892256	0.746027	-0.677322
C40	C	-1.868028	0.781501	-0.779841
C41	C	-1.944746	0.871903	-0.815216
C42	C	-2.045701	0.926823	-0.748068
C43	C	-2.069931	0.891341	-0.645551
C44	C	-2.178760	0.439528	-0.061039
C45	C	-2.178954	0.439350	0.048685
C46	C	-2.382138	0.572809	0.048840
C47	C	-2.381950	0.572982	-0.060881
C48	C	-2.121554	0.315468	0.198361
C49	C	-2.020036	0.248663	0.253144
C50	C	-1.865879	0.233288	0.217644
C51	C	-1.813207	0.284735	0.127363
C52	C	-1.914717	0.351548	0.072585
C53	C	-2.068896	0.366902	0.108084
C54	C	-2.439334	0.696865	-0.210560
C55	C	-2.540836	0.763684	-0.265339
C56	C	-2.694997	0.779069	-0.229841
C57	C	-2.747663	0.727641	-0.139556
C58	C	-2.646160	0.660822	-0.084777
C59	C	-2.492001	0.645435	-0.120283
H60	H	-2.463320	0.906404	-0.383718
H61	H	-2.062936	0.206775	0.326651
H62	H	-1.687670	0.272221	0.098472
C63	C	-2.130107	1.026257	-0.786984
H64	H	-2.101233	1.039518	-0.857662
H65	H	-2.100437	1.084186	-0.744531
H66	H	-2.240738	1.016398	-0.782785
C67	C	-2.291136	0.332368	0.237403
H68	H	-2.344060	0.379515	0.191843
H69	H	-2.288853	0.360829	0.306213
H70	H	-2.345130	0.267182	0.238223
H71	H	-2.730908	1.339213	-0.362677
H72	H	-2.452459	1.011216	-0.234313
C73	C	-2.269754	0.679937	-0.249608
H74	H	-2.216853	0.632768	-0.204061
H75	H	-2.215739	0.745109	-0.250433
H76	H	-2.272057	0.651473	-0.318422
H77	H	-1.925020	0.900788	-0.898696
C78	C	-2.540871	1.249703	-0.513794
H79	H	-2.469779	1.204043	-0.548729
H80	H	-2.498048	1.318450	-0.512003
H81	H	-2.638373	1.250671	-0.550234
C82	C	-2.493981	0.646116	0.109274
H83	H	-2.479547	0.636453	0.182467
H84	H	-2.599786	0.630291	0.091149
H85	H	-2.471584	0.716841	0.091500
C86	C	-2.803663	1.290544	-0.157476
H87	H	-2.845906	1.349456	-0.193229
H88	H	-2.746650	1.313612	-0.097698
H89	H	-2.886962	1.245832	-0.135947
H90	H	-2.097380	1.105245	-0.627476
C91	C	-2.019833	0.761933	-0.497394
H92	H	-1.959656	0.700241	-0.485936
H93	H	-2.128270	0.746850	-0.487440
H94	H	-1.987952	0.814644	-0.449224
C95	C	-2.642513	1.100719	-0.083191
H96	H	-2.713633	1.146368	-0.048268
H97	H	-2.545027	1.099748	-0.046744
H98	H	-2.685341	1.031968	-0.084991
C99	C	-2.704083	0.604248	0.014535
H100	H	-2.621548	0.562258	0.042079
H101	H	-2.791365	0.560974	-0.002584
H102	H	-2.735041	0.654618	0.065392
H103	H	-2.873192	0.740170	-0.110651
C104	C	-2.806646	0.852572	-0.290097
H105	H	-2.753208	0.881000	-0.348953
H106	H	-2.839654	0.907843	-0.245268
H107	H	-2.895952	0.814203	-0.313261
H108	H	-1.785817	0.736777	-0.834511
H109	H	-1.829797	0.672412	-0.648512
C110	C	-2.066902	0.366229	-0.121471
H111	H	-2.081310	0.375908	-0.194664
H112	H	-2.089276	0.295506	-0.103703
H113	H	-1.961097	0.382071	-0.103338
C114	C	-1.754218	0.159800	0.277899
H115	H	-1.807665	0.131360	0.336745
H116	H	-1.664912	0.198160	0.301058
H117	H	-1.721217	0.104522	0.233066
H118	H	-1.871833	0.393435	-0.000920
H119	H	-2.497943	0.805559	-0.338855
