data_functionalizedCrystal
_audit_creation_method	'MofGen! by Chris Wilmer'
_symmetry_space_group_name_H-M	'P1'
_symmetry_Int_Tables_number	1
_symmetry_cell_setting	triclinic
loop_
_symmetry_equiv_pos_as_xyz
  x,y,z
_cell_length_a	16.625547
_cell_length_b	13.032492
_cell_length_c	13.032721
_cell_angle_alpha	90.915902
_cell_angle_beta	97.204553
_cell_angle_gamma	82.815342
loop_
_atom_site_label
_atom_site_type_symbol
_atom_site_fract_x
_atom_site_fract_y
_atom_site_fract_z
Zn1	Zn	-1.137451	-0.633740	0.335723
Zn2	Zn	-0.637451	-0.133740	0.835723
Zn3	Zn	-1.133137	-0.483581	0.529524
Zn4	Zn	-0.633137	0.016419	1.029524
Zn5	Zn	-1.017391	-0.461745	0.357560
Zn6	Zn	-0.517391	0.038255	0.857560
Zn7	Zn	-0.983597	-0.655496	0.507665
Zn8	Zn	-0.483597	-0.155496	1.007665
O9	O	-1.067894	-0.558640	0.432618
O10	O	-0.567894	-0.058640	0.932618
O11	O	-1.249707	-0.613855	0.361440
O12	O	-0.749707	-0.113855	0.861440
O13	O	-1.130121	-0.336756	0.525000
O14	O	-0.630121	0.163244	1.025000
O15	O	-1.049266	-0.466317	0.210738
O16	O	-0.549266	0.033683	0.710738
O17	O	-1.246538	-0.503533	0.503825
O18	O	-0.746538	-0.003533	1.003825
O19	O	-1.137473	-0.592682	0.194693
O20	O	-0.637473	-0.092682	0.694693
O21	O	-1.045083	-0.320713	0.398659
O22	O	-0.545083	0.179287	0.898659
O23	O	-0.900080	-0.487412	0.377463
O24	O	-0.400080	0.012588	0.877463
O25	O	-0.991668	-0.796538	0.466569
O26	O	-0.491668	-0.296538	0.966569
O27	O	-0.875252	-0.629760	0.487744
O28	O	-0.375252	-0.129760	0.987744
O29	O	-1.104704	-0.780554	0.340244
O30	O	-0.604704	-0.280554	0.840244
O31	O	-1.097352	-0.524629	0.670551
O32	O	-0.597352	-0.024629	1.170551
O33	O	-0.987486	-0.650934	0.654491
O34	O	-0.487486	-0.150934	1.154491
C35	C	-0.858411	-0.558578	0.432602
C36	C	-0.358411	-0.058578	0.932602
C37	C	-0.768788	-0.558579	0.432617
C38	C	-0.268788	-0.058579	0.932617
C39	C	-0.696005	-0.558589	0.432617
C40	C	-0.196005	-0.058589	0.932617
C41	C	-0.604694	-0.558610	0.432618
C42	C	-0.104694	-0.058610	0.932618
C43	C	-0.531915	-0.558634	0.432623
C44	C	-0.031915	-0.058634	0.932623
C45	C	-0.440598	-0.558655	0.432626
C46	C	0.059402	-0.058655	0.932626
C47	C	-1.090856	-0.291407	0.466497
C48	C	-0.590856	0.208593	0.966497
C49	C	-1.100844	-0.177051	0.480733
C50	C	-0.600844	0.322949	0.980733
C51	C	-1.038304	-0.592534	0.699836
C52	C	-0.538304	-0.092534	1.199836
C53	C	-1.025716	-0.607068	0.814149
C54	C	-0.525716	-0.107068	1.314149
C55	C	-0.278197	-0.558690	0.432632
C56	C	0.221803	-0.058690	0.932632
C57	C	-0.367819	-0.558678	0.432632
C58	C	0.132181	-0.058678	0.932632
C59	C	-1.044898	-0.826908	0.398532
C60	C	-0.544898	-0.326908	0.898532
C61	C	-1.035098	-0.941228	0.384007
C62	C	-0.535098	-0.441228	0.884007
C63	C	-1.062812	-0.118235	0.425018
C64	C	-0.562812	0.381765	0.925018
C65	C	-1.073134	-0.000042	0.439730
C66	C	-0.573134	0.499958	0.939730
C67	C	-1.097620	-0.524637	0.164354
C68	C	-0.597620	-0.024637	0.664354
C69	C	-1.110287	-0.510147	0.050035
C70	C	-0.610287	-0.010147	0.550035
C71	C	-1.074503	-0.551101	0.873019
C72	C	-0.574503	-0.051101	1.373019
C73	C	-1.061494	-0.566121	0.991167
C74	C	-0.561494	-0.066121	1.491167
H75	H	-1.022614	-0.155382	0.366423
H76	H	-0.522614	0.344618	0.866423
F77	F	-0.994309	-0.643296	1.039607
F78	F	-0.494309	-0.143296	1.539607
F79	F	-1.177479	-0.432981	1.001597
F80	F	-0.677479	0.067019	1.501597
H81	H	-1.113342	0.037101	0.498321
H82	H	-0.613342	0.537101	0.998321
H83	H	-0.994898	0.021631	0.325406
H84	H	-0.494898	0.521631	0.825406
F85	F	-1.153396	-0.128502	0.557312
F86	F	-0.653396	0.371498	1.057312
F87	F	-1.141691	-0.473942	0.824573
F88	F	-0.641691	0.026058	1.324573
H89	H	-0.974319	-0.666107	0.851217
H90	H	-0.474319	-0.166107	1.351217
