data_functionalizedCrystal
_audit_creation_method	'MofGen! by Chris Wilmer'
_symmetry_space_group_name_H-M	'P1'
_symmetry_Int_Tables_number	1
_symmetry_cell_setting	triclinic
loop_
_symmetry_equiv_pos_as_xyz
  x,y,z
_cell_length_a	21.295418
_cell_length_b	21.295417
_cell_length_c	18.215399
_cell_angle_alpha	89.967848
_cell_angle_beta	89.961117
_cell_angle_gamma	90.046319
loop_
_atom_site_label
_atom_site_type_symbol
_atom_site_fract_x
_atom_site_fract_y
_atom_site_fract_z
Zn1	Zn	0.962326	-0.250350	-0.416469
Zn2	Zn	1.462326	0.249650	0.083531
Zn3	Zn	0.962237	-0.355621	-0.293393
Zn4	Zn	1.462237	0.144379	0.206607
Zn5	Zn	0.857058	-0.250399	-0.293375
Zn6	Zn	1.357058	0.249601	0.206625
Zn7	Zn	0.857018	-0.355614	-0.416377
Zn8	Zn	1.357018	0.144386	0.083623
O9	O	0.909660	-0.302996	-0.354904
O10	O	1.409660	0.197004	0.145096
O11	O	1.050403	-0.264297	-0.400188
O12	O	1.550403	0.235703	0.099812
O13	O	0.948264	-0.341686	-0.190407
O14	O	1.448264	0.158314	0.309593
O15	O	0.871075	-0.162303	-0.309734
O16	O	1.371075	0.337697	0.190266
O17	O	1.050338	-0.341639	-0.309765
O18	O	1.550338	0.158361	0.190235
O19	O	0.948415	-0.162267	-0.400171
O20	O	1.448415	0.337733	0.099829
O21	O	0.870989	-0.264380	-0.190393
O22	O	1.370989	0.235620	0.309607
O23	O	0.768963	-0.264373	-0.309646
O24	O	1.268963	0.235627	0.190354
O25	O	0.871008	-0.341627	-0.519374
O26	O	1.371008	0.158373	-0.019374
O27	O	0.768934	-0.341675	-0.400015
O28	O	1.268934	0.158325	0.099985
O29	O	0.948377	-0.264290	-0.519441
O30	O	1.448377	0.235710	-0.019441
O31	O	0.948226	-0.443710	-0.309677
O32	O	1.448226	0.056290	0.190323
O33	O	0.870922	-0.443705	-0.400033
O34	O	1.370922	0.056295	0.099967
C35	C	0.746108	-0.303029	-0.354819
C36	C	1.246108	0.196971	0.145181
C37	C	0.676140	-0.303058	-0.354800
C38	C	1.176140	0.196942	0.145200
C39	C	0.643275	-0.343363	-0.401785
C40	C	1.143275	0.156637	0.098215
C41	C	0.577532	-0.343347	-0.401818
C42	C	1.077532	0.156653	0.098182
C43	C	0.544657	-0.303034	-0.354853
C44	C	1.044657	0.196966	0.145147
C45	C	0.577531	-0.262722	-0.307865
C46	C	1.077531	0.237278	0.192135
C47	C	0.643272	-0.262734	-0.307838
C48	C	1.143272	0.237266	0.192162
N49	N	0.441386	-0.298117	-0.290486
N50	N	0.941386	0.201883	0.209514
N51	N	0.378935	-0.298109	-0.290513
N52	N	0.878935	0.201891	0.209487
C53	C	0.346583	-0.302994	-0.354931
C54	C	0.846583	0.197006	0.145069
N55	N	0.379042	-0.307899	-0.419322
N56	N	0.879042	0.192101	0.080678
N57	N	0.441499	-0.307910	-0.419294
N58	N	0.941499	0.192090	0.080706
C59	C	0.473372	-0.303016	-0.354877
C60	C	0.973372	0.196984	0.145123
C61	C	0.242432	-0.343283	-0.401956
C62	C	0.742432	0.156717	0.098044
C63	C	0.176688	-0.343263	-0.401990
C64	C	0.676688	0.156737	0.098010
C65	C	0.176688	-0.262642	-0.308030
C66	C	0.676688	0.237358	0.191970
C67	C	0.242430	-0.262658	-0.308003
C68	C	0.742430	0.237342	0.191997
C69	C	0.275298	-0.302983	-0.354964
C70	C	0.775298	0.197017	0.145036
C71	C	0.909577	-0.466548	-0.354863
C72	C	1.409577	0.033452	0.145137
C73	C	0.909599	-0.536516	-0.354870
C74	C	1.409599	-0.036516	0.145130
C75	C	0.949887	-0.569364	-0.307870
C76	C	1.449887	-0.069364	0.192130
C77	C	0.949917	-0.635107	-0.307886
C78	C	1.449917	-0.135107	0.192114
C79	C	0.909647	-0.667998	-0.354895
C80	C	1.409647	-0.167998	0.145105
C81	C	0.869357	-0.635142	-0.401904
C82	C	1.369357	-0.135142	0.098096
C83	C	0.869333	-0.569401	-0.401892
C84	C	1.369333	-0.069401	0.098108
N85	N	0.854580	-0.771279	-0.360477
N86	N	1.354580	-0.271279	0.139523
N87	N	0.854604	-0.833731	-0.360485
N88	N	1.354604	-0.333731	0.139515
C89	C	0.909718	-0.866073	-0.354938
C90	C	1.409718	-0.366073	0.145062
N91	N	0.964807	-0.833604	-0.349368
N92	N	1.464807	-0.333604	0.150632
N93	N	0.964782	-0.771147	-0.349356
N94	N	1.464782	-0.271147	0.150644
C95	C	0.909669	-0.739284	-0.354915
C96	C	1.409669	-0.239284	0.145085
C97	C	0.950041	-0.970207	-0.307953
C98	C	1.450041	-0.470207	0.192047
C99	C	0.950071	-1.035950	-0.307975
C100	C	1.450071	-0.535950	0.192025
C101	C	0.869506	-1.035985	-0.401989
C102	C	1.369506	-0.535985	0.098011
C103	C	0.869481	-0.970242	-0.401971
C104	C	1.369481	-0.470242	0.098029
C105	C	0.909747	-0.937357	-0.354949
C106	C	1.409747	-0.437357	0.145051
C107	C	1.073850	-0.302963	-0.354989
C108	C	1.573850	0.197037	0.145011
C109	C	1.143818	-0.302949	-0.355025
C110	C	1.643818	0.197051	0.144975
C111	C	0.909698	-0.302953	-0.546857
C112	C	1.409698	0.197047	-0.046857
C113	C	0.909714	-0.302934	-0.628655
C114	C	1.409714	0.197066	-0.128655
C115	C	0.909760	-0.138806	-0.354961
C116	C	1.409760	0.361194	0.145039
C117	C	0.909802	-0.068838	-0.354985
C118	C	1.409802	0.431162	0.145015
C119	C	0.950015	-0.262627	-0.816886
C120	C	1.450015	0.237373	-0.316886
C121	C	0.950022	-0.262609	-0.893744
C122	C	1.450022	0.237391	-0.393744
C123	C	0.869458	-0.343144	-0.893663
C124	C	1.369458	0.156856	-0.393663
C125	C	0.869448	-0.343159	-0.816806
C126	C	1.369448	0.156841	-0.316806
C127	C	0.909730	-0.302901	-0.778419
C128	C	1.409730	0.197099	-0.278419
C129	C	0.909748	-0.302868	-0.932135
C130	C	1.409748	0.197132	-0.432135
C131	C	0.909756	-0.302848	-1.015469
C132	C	1.409756	0.197152	-0.515469
C133	C	0.909721	-0.302920	-0.695080
C134	C	1.409721	0.197080	-0.195080
C135	C	0.909658	-0.302994	-0.163697
C136	C	1.409658	0.197006	0.336303
C137	C	0.909763	-0.302835	-0.081899
C138	C	1.409763	0.197165	0.418101
H139	H	0.550768	-0.376167	-0.440081
H140	H	1.050768	0.123833	0.059919
C141	C	0.958969	-1.110012	-0.209085
C142	C	1.458969	-0.610012	0.290915
C143	C	0.994394	-1.072096	-0.256382
C144	C	1.494394	-0.572096	0.243618
H145	H	0.986344	-1.132340	-0.177259
H146	H	1.486344	-0.632340	0.322741
H147	H	0.931582	-1.084441	-0.180822
H148	H	1.431582	-0.584441	0.319178
H149	H	0.934965	-1.138978	-0.237100
H150	H	1.434965	-0.638978	0.262900
H151	H	1.018395	-1.043127	-0.228367
H152	H	1.518395	-0.543127	0.271633
H153	H	1.021792	-1.097670	-0.284648
H154	H	1.521792	-0.597670	0.215352
H155	H	0.982825	-0.229812	-0.925061
H156	H	1.482825	0.270188	-0.425061
H157	H	0.836639	-0.375954	-0.785486
H158	H	1.336639	0.124046	-0.285486
H159	H	0.836525	-0.542655	-0.440166
H160	H	1.336525	-0.042655	0.059834
H161	H	0.982831	-0.943431	-0.269667
H162	H	1.482831	-0.443431	0.230333
H163	H	0.982813	-0.229845	-0.785633
H164	H	1.482813	0.270155	-0.285633
H165	H	0.836664	-0.375922	-0.924927
H166	H	1.336664	0.124078	-0.424927
H167	H	0.836672	-0.943495	-0.440240
H168	H	1.336672	-0.443495	0.059760
C169	C	0.663585	-0.374167	-0.526329
C170	C	1.163585	0.125833	-0.026329
C171	C	0.679401	-0.387680	-0.453413
C172	C	1.179401	0.112320	0.046587
H173	H	0.685892	-0.401524	-0.558202
H174	H	1.185892	0.098476	-0.058202
H175	H	0.619733	-0.379929	-0.533060
H176	H	1.119733	0.120071	-0.033060
H177	H	0.674414	-0.331884	-0.537177
H178	H	1.174414	0.168116	-0.037177
H179	H	0.668568	-0.429961	-0.442563
H180	H	1.168568	0.070039	0.057437
H181	H	0.723263	-0.381923	-0.446678
H182	H	1.223263	0.118077	0.053322
C183	C	0.476753	-0.226920	-0.266172
C184	C	0.976753	0.273080	0.233828
C185	C	0.541397	-0.218415	-0.256233
C186	C	1.041397	0.281585	0.243767
H187	H	0.454447	-0.199567	-0.234292
H188	H	0.954447	0.300433	0.265708
H189	H	0.466031	-0.217755	-0.315635
H190	H	0.966031	0.282245	0.184365
H191	H	0.465938	-0.269205	-0.255317
H192	H	0.965938	0.230795	0.244683
H193	H	0.552213	-0.176131	-0.267094
H194	H	1.052213	0.323869	0.232906
H195	H	0.552123	-0.227575	-0.206758
H196	H	1.052123	0.272425	0.293242
H197	H	0.836720	-1.062764	-0.440268
H198	H	1.336720	-0.562764	0.059732
H199	H	0.269194	-0.376114	-0.440199
H200	H	0.769194	0.123886	0.059801
C201	C	0.636667	-0.183045	-0.214965
C202	C	1.136667	0.316955	0.285035
C203	C	0.679401	-0.218434	-0.256182
C204	C	1.179401	0.281566	0.243818
H205	H	0.658974	-0.155700	-0.183070
H206	H	1.158974	0.344300	0.316930
H207	H	0.611082	-0.158994	-0.247091
H208	H	1.111082	0.341006	0.252909
H209	H	0.610969	-0.210441	-0.186769
H210	H	1.110969	0.289559	0.313231
H211	H	0.705096	-0.191038	-0.284382
H212	H	1.205096	0.308962	0.215618
H213	H	0.704997	-0.242486	-0.224051
H214	H	1.204997	0.257514	0.275949
H215	H	0.149930	-0.376083	-0.440255
H216	H	0.649930	0.123917	0.059745
C217	C	0.075915	-0.226855	-0.266316
C218	C	0.575915	0.273145	0.233684
C219	C	0.140560	-0.218347	-0.256382
C220	C	0.640560	0.281653	0.243618
H221	H	0.053610	-0.199516	-0.234420
H222	H	0.553610	0.300484	0.265580
H223	H	0.065188	-0.217675	-0.315774
H224	H	0.565188	0.282325	0.184226
H225	H	0.065105	-0.269145	-0.255479
H226	H	0.565105	0.230855	0.244521
H227	H	0.151370	-0.176059	-0.267224
H228	H	0.651370	0.323941	0.232776
H229	H	0.151291	-0.227524	-0.206913
H230	H	0.651291	0.272476	0.293087
H231	H	0.269190	-0.229841	-0.269739
H232	H	0.769190	0.270159	0.230261
C233	C	1.029529	-0.575939	-0.214948
C234	C	1.529529	-0.075939	0.285052
C235	C	0.994157	-0.533218	-0.256195
C236	C	1.494157	-0.033218	0.243805
H237	H	1.056863	-0.553621	-0.183051
H238	H	1.556863	-0.053621	0.316949
H239	H	1.002125	-0.601625	-0.186760
H240	H	1.502125	-0.101625	0.313240
H241	H	1.053596	-0.601537	-0.247061
H242	H	1.553596	-0.101537	0.252939
H243	H	0.970086	-0.507623	-0.224081
H244	H	1.470086	-0.007623	0.275919
H245	H	1.021564	-0.507521	-0.284384
H246	H	1.521564	-0.007521	0.215616
C247	C	1.034607	-0.708969	-0.297764
C248	C	1.534607	-0.208969	0.202236
C249	C	0.994187	-0.671232	-0.256207
C250	C	1.494187	-0.171232	0.243793
H251	H	1.061933	-0.731269	-0.265855
H252	H	1.561933	-0.231269	0.234145
H253	H	1.010628	-0.737954	-0.325770
H254	H	1.510628	-0.237954	0.174230
H255	H	1.058679	-0.683275	-0.329843
H256	H	1.558679	-0.183275	0.170157
H257	H	0.970111	-0.696926	-0.224132
H258	H	1.470111	-0.196926	0.275868
H259	H	1.018168	-0.642244	-0.228189
H260	H	1.518168	-0.142244	0.271811
C261	C	0.833615	-0.735935	-0.443659
C262	C	1.333615	-0.235935	0.056341
C263	C	0.825089	-0.671294	-0.453576
C264	C	1.325089	-0.171294	0.046424
H265	H	0.806283	-0.758252	-0.475559
H266	H	1.306283	-0.258252	0.024441
H267	H	0.875903	-0.746650	-0.454494
H268	H	1.375903	-0.246650	0.045506
H269	H	0.824429	-0.746742	-0.394198
H270	H	1.324429	-0.246742	0.105802
H271	H	0.834280	-0.660486	-0.503036
H272	H	1.334280	-0.160486	-0.003036
H273	H	0.782791	-0.660574	-0.442745
H274	H	1.282791	-0.160574	0.057255
