data_functionalizedCrystal
_audit_creation_method	'MofGen! by Chris Wilmer'
_symmetry_space_group_name_H-M	'P1'
_symmetry_Int_Tables_number	1
_symmetry_cell_setting	triclinic
loop_
_symmetry_equiv_pos_as_xyz
  x,y,z
_cell_length_a	17.640112
_cell_length_b	13.897448
_cell_length_c	17.640968
_cell_angle_alpha	78.768361
_cell_angle_beta	92.139080
_cell_angle_gamma	101.242525
loop_
_atom_site_label
_atom_site_type_symbol
_atom_site_fract_x
_atom_site_fract_y
_atom_site_fract_z
Zn1	Zn	1.247780	-0.027714	-0.195080
Zn2	Zn	1.222024	-0.226719	-0.068097
Zn3	Zn	1.095117	-0.090459	-0.093726
Zn4	Zn	1.120765	-0.214022	-0.220679
O5	O	1.171421	-0.139729	-0.144395
O6	O	1.350631	-0.033168	-0.156796
O7	O	1.183677	-0.240217	0.034777
O8	O	1.115413	0.052860	-0.107183
O9	O	1.331709	-0.179376	-0.063502
O10	O	1.227574	0.098958	-0.181648
O11	O	1.090439	-0.140107	0.015947
O12	O	0.992251	-0.127795	-0.132005
O13	O	1.159126	-0.157736	-0.323556
O14	O	1.011094	-0.218577	-0.225277
O15	O	1.252444	-0.020856	-0.304749
O16	O	1.208547	-0.360031	-0.088325
O17	O	1.134152	-0.350703	-0.200426
C18	C	0.974119	-0.178617	-0.184201
C19	C	0.889716	-0.195272	-0.201248
C20	C	1.171362	-0.390361	-0.144385
C21	C	1.171411	-0.497561	-0.144391
C22	C	0.563040	-0.013187	-0.014898
C23	C	0.483732	-0.028853	-0.030926
C24	C	0.503374	-0.123604	-0.127883
C25	C	0.582686	-0.107942	-0.111865
C26	C	0.612512	-0.052734	-0.055371
C27	C	0.632158	-0.147488	-0.152339
C28	C	0.711462	-0.131831	-0.136319
C29	C	0.741294	-0.076628	-0.079826
C30	C	0.691816	-0.037077	-0.039352
C31	C	0.602329	-0.202701	-0.208829
C32	C	0.651801	-0.242247	-0.249302
C33	C	0.731108	-0.226585	-0.233287
C34	C	0.760940	-0.171382	-0.176794
C35	C	0.780586	-0.266136	-0.273761
C36	C	0.859889	-0.250480	-0.257742
C37	C	0.840244	-0.155726	-0.160774
C38	C	1.171500	-0.693826	-0.144423
C39	C	1.171449	-0.584610	-0.144408
C40	C	1.369495	-0.100689	-0.104435
C41	C	1.453902	-0.084053	-0.087406
C42	C	1.211519	-0.080881	-0.342478
C43	C	1.228606	-0.055803	-0.426890
C44	C	1.171506	0.111891	-0.144419
C45	C	1.171541	0.219116	-0.144429
C46	C	1.041904	-0.329658	-0.753462
C47	C	1.057976	-0.306079	-0.832776
C48	C	1.155140	-0.163558	-0.813183
C49	C	1.139073	-0.187123	-0.733866
C50	C	1.082455	-0.270175	-0.704012
C51	C	1.179624	-0.127639	-0.684416
C52	C	1.163562	-0.151206	-0.605106
C53	C	1.106948	-0.234255	-0.575246
C54	C	1.066393	-0.293741	-0.624702
C55	C	1.236246	-0.044592	-0.714271
C56	C	1.276797	0.014891	-0.664821
C57	C	1.260731	-0.008670	-0.585510
C58	C	1.204117	-0.091720	-0.555650
C59	C	1.301286	0.050815	-0.536054
C60	C	1.285224	0.027249	-0.456744
C61	C	1.188055	-0.115286	-0.476339
C62	C	1.131524	-0.198270	0.052926
C63	C	1.114584	-0.223047	0.137366
H64	H	0.864532	-0.110752	-0.114783
H65	H	0.900171	-0.282681	-0.290700
O66	O	1.011406	-0.374494	-0.595814
C67	C	0.916717	-0.513383	-0.623611
C68	C	0.978967	-0.421968	-0.656428
H69	H	0.890461	-0.551780	-0.672603
H70	H	0.944038	-0.568035	-0.579475
H71	H	0.869528	-0.487963	-0.594458
H72	H	1.026176	-0.447296	-0.685620
H73	H	0.951590	-0.367337	-0.700526
H74	H	0.443455	0.003362	0.002031
H75	H	0.805868	-0.063884	-0.066783
H76	H	1.201240	-0.095939	-0.837501
O77	O	1.091481	-0.257129	-0.498176
C78	C	1.141204	-0.301448	-0.369665
C79	C	1.158832	-0.275536	-0.456922
H80	H	1.195642	-0.316358	-0.336287
H81	H	1.121149	-0.236247	-0.351266
H82	H	1.093747	-0.370996	-0.356848
H83	H	1.206303	-0.206016	-0.469803
H84	H	1.178843	-0.340793	-0.475276
H85	H	1.347390	0.118430	-0.560372
H86	H	0.716104	0.007896	0.006640
H87	H	1.141933	-0.182896	-0.452035
O88	O	0.592152	0.040461	0.039930
C89	C	0.705618	0.106523	0.107607
C90	C	0.672753	0.045772	0.045487
H91	H	0.770785	0.110818	0.112131
H92	H	0.692816	0.185227	0.091023
H93	H	0.677567	0.068434	0.165698
H94	H	0.700784	0.083774	-0.012627
H95	H	0.685545	-0.032931	0.062136
O96	O	0.986917	-0.410411	-0.724575
C97	C	0.892229	-0.549300	-0.752371
C98	C	0.954478	-0.457885	-0.785188
H99	H	0.865973	-0.587697	-0.801363
H100	H	0.919549	-0.603952	-0.708235
H101	H	0.845039	-0.523880	-0.723218
H102	H	1.001687	-0.483213	-0.814380
H103	H	0.927101	-0.403254	-0.829286
H104	H	0.479078	-0.168557	-0.173878
H105	H	0.537754	-0.215447	-0.221869
O106	O	1.251973	-0.021754	-0.791288
C107	C	1.347830	0.001696	-0.890404
C108	C	1.330121	-0.024207	-0.803163
H109	H	1.411015	-0.000258	-0.900032
H110	H	1.309171	-0.055085	-0.920660
H111	H	1.336420	0.079685	-0.915106
H112	H	1.341537	-0.102171	-0.778394
H113	H	1.368774	0.032637	-0.772962
H114	H	0.756288	-0.311095	-0.319753
O115	O	1.018693	-0.363929	-0.880828
C116	C	1.026570	-0.469519	-0.972468
C117	C	1.071149	-0.404057	-0.918065
H118	H	1.068963	-0.501964	-1.002601
H119	H	0.983365	-0.532983	-0.937539
H120	H	0.994377	-0.422008	-1.017584
H121	H	1.103387	-0.451485	-0.872939
H122	H	1.114310	-0.340589	-0.953045
H123	H	1.322898	0.082510	-0.689139
O124	O	1.324690	0.084897	-0.408655
C125	C	1.409053	0.091450	-0.298393
C126	C	1.364403	0.026059	-0.352807
H127	H	1.441158	0.043901	-0.253216
H128	H	1.452325	0.154840	-0.333312
H129	H	1.366679	0.124014	-0.268336
H130	H	1.406718	-0.006574	-0.382877
H131	H	1.321120	-0.037276	-0.317848
O132	O	0.622703	-0.295812	-0.304178
C133	C	0.509232	-0.361976	-0.371801
C134	C	0.542083	-0.301279	-0.309644
H135	H	0.444044	-0.366434	-0.376229
H136	H	0.537186	-0.323875	-0.429935
H137	H	0.522145	-0.440623	-0.355214
H138	H	0.529179	-0.222626	-0.326158
H139	H	0.514128	-0.339460	-0.251526
