data_functionalizedCrystal
_audit_creation_method	'MofGen! by Chris Wilmer'
_symmetry_space_group_name_H-M	'P1'
_symmetry_Int_Tables_number	1
_symmetry_cell_setting	triclinic
loop_
_symmetry_equiv_pos_as_xyz
  x,y,z
_cell_length_a	15.944545
_cell_length_b	15.944493
_cell_length_c	14.421503
_cell_angle_alpha	90.010165
_cell_angle_beta	89.995153
_cell_angle_gamma	83.485608
loop_
_atom_site_label
_atom_site_type_symbol
_atom_site_fract_x
_atom_site_fract_y
_atom_site_fract_z
O1	O	1.114510	0.108298	-0.077039
O2	O	0.869957	0.121660	-0.077053
O3	O	0.998937	-0.007299	-0.077053
O4	O	0.985530	0.237258	-0.077039
O5	O	0.998916	-0.007280	0.077170
O6	O	0.869935	0.121680	0.077171
O7	O	1.114489	0.108317	0.077184
Cu8	Cu	0.992210	0.115000	0.091259
Cu9	Cu	0.992235	0.114978	-0.091128
O10	O	0.985508	0.237277	0.077185
C11	C	0.838652	0.121116	0.000057
C12	C	0.745406	0.119456	0.000051
C13	C	0.998378	-0.038584	0.000054
C14	C	0.996735	-0.131833	0.000042
C15	C	0.474791	0.034560	0.000056
C16	C	0.525354	0.075499	0.076101
C17	C	0.409764	0.113535	0.000067
C18	C	0.525355	0.075502	-0.075951
C19	C	0.574677	0.116440	0.000057
C20	C	0.459098	0.154453	0.076174
C21	C	0.459096	0.154444	-0.075946
C22	C	0.509626	0.195442	0.000117
C23	C	0.314762	0.111860	0.000073
C24	C	0.669676	0.118122	0.000058
C25	C	1.072656	-0.367594	0.000064
C26	C	1.031726	-0.418171	-0.075978
C27	C	0.993691	-0.302554	0.000054
C28	C	1.031686	-0.418128	0.076074
C29	C	0.990757	-0.467463	0.000068
C30	C	0.952782	-0.351902	-0.076051
C31	C	0.952754	-0.351856	0.076069
C32	C	0.911766	-0.402400	0.000009
C33	C	0.995384	-0.207554	0.000044
C34	C	0.989058	-0.562460	0.000071
C35	C	1.145793	0.108862	0.000072
C36	C	1.239039	0.110522	0.000072
C37	C	0.986067	0.268562	0.000075
C38	C	0.987710	0.361811	0.000081
N39	N	0.992198	0.115016	0.219540
N40	N	0.992254	0.114956	-0.219409
C41	C	0.932548	0.174620	0.469194
C42	C	1.008444	0.190926	0.531003
C43	C	0.992219	0.114996	0.408702
C44	C	0.916342	0.098709	0.530987
C45	C	0.992232	0.114978	0.591423
C46	C	1.068154	0.131339	0.469149
C47	C	0.976001	0.039090	0.469129
C48	C	1.051953	0.055364	0.530909
C49	C	0.992210	0.115008	0.303441
C50	C	0.992249	0.114965	0.696682
H51	H	0.459152	-0.033454	0.000126
H52	H	0.525104	0.263508	0.000166
H53	H	0.554283	0.042154	0.140387
H54	H	1.065042	-0.447052	0.140358
H55	H	0.430273	0.187790	0.140533
C56	C	1.154869	0.150046	0.432618
C57	C	1.170873	0.153549	0.327458
C58	C	1.257585	0.172258	0.290924
C59	C	1.328291	0.187465	0.359550
C60	C	1.312288	0.183963	0.464716
C61	C	1.225577	0.165254	0.501250
H62	H	1.118531	0.142291	0.276651
H63	H	1.269431	0.174850	0.213073
H64	H	1.392480	0.201315	0.332506
H65	H	1.364631	0.195220	0.515523
H66	H	1.213731	0.162661	0.579101
C67	C	0.864448	0.242786	0.432575
C68	C	0.868617	0.336239	0.457027
C69	C	0.800522	0.404406	0.420406
C70	C	0.728258	0.379119	0.359332
C71	C	0.724086	0.285660	0.334876
C72	C	0.792181	0.217494	0.371497
H73	H	0.922113	0.354963	0.502241
H74	H	0.803611	0.473590	0.438510
H75	H	0.677851	0.429579	0.332222
H76	H	0.670590	0.266937	0.289662
H77	H	0.789092	0.148310	0.353393
H78	H	0.554289	0.042127	-0.140237
C79	C	0.907733	-0.312709	0.162915
C80	C	0.829552	-0.247216	0.152561
C81	C	0.784539	-0.208067	0.239415
C82	C	0.817709	-0.234410	0.336625
C83	C	0.895894	-0.299906	0.346983
C84	C	0.940906	-0.339055	0.260129
H85	H	0.804994	-0.227713	0.080597
H86	H	0.726661	-0.159583	0.231747
H87	H	0.784388	-0.205430	0.400920
H88	H	0.920452	-0.319410	0.418947
H89	H	0.998785	-0.387540	0.267797
H90	H	1.102476	0.004931	0.557837
H91	H	0.430152	0.187760	-0.140234
H92	H	1.140674	-0.351967	-0.000009
C93	C	1.076783	-0.457290	-0.162823
C94	C	1.170573	-0.447528	-0.179527
C95	C	1.215635	-0.486643	-0.266370
C96	C	1.166907	-0.535520	-0.336509
C97	C	1.073111	-0.545285	-0.319807
C98	C	1.028049	-0.506170	-0.232964
H99	H	1.206649	-0.411344	-0.127604
H100	H	1.285069	-0.479415	-0.278733
H101	H	1.200264	-0.564476	-0.400795
H102	H	1.037034	-0.581469	-0.371730
H103	H	0.958615	-0.513398	-0.220601
C104	C	0.907779	-0.312988	-0.163002
C105	C	0.901076	-0.216986	-0.179098
C106	C	0.856077	-0.178071	-0.266048
C107	C	0.817781	-0.235158	-0.336902
C108	C	0.824483	-0.331166	-0.320809
C109	C	0.869481	-0.370081	-0.233858
H110	H	0.929426	-0.174721	-0.126645
H111	H	0.851116	-0.106999	-0.277961
H112	H	0.784470	-0.206351	-0.401268
H113	H	0.796132	-0.373431	-0.373261
H114	H	0.874442	-0.441153	-0.221945
C115	C	0.819810	-0.423301	-0.000048
C116	C	0.760426	-0.393256	-0.080552
C117	C	0.668472	-0.414160	-0.080614
C118	C	0.635902	-0.465109	-0.000171
C119	C	0.695288	-0.495157	0.080339
C120	C	0.787242	-0.474253	0.080401
H121	H	0.784534	-0.355538	-0.140106
H122	H	0.624511	-0.391916	-0.140213
H123	H	0.567833	-0.480583	-0.000217
H124	H	0.671179	-0.532875	0.139893
H125	H	0.831202	-0.496497	0.140000
C126	C	0.829650	0.080101	0.567682
C127	C	0.749817	0.139660	0.543325
C128	C	0.663124	0.121060	0.580016
C129	C	0.656264	0.042901	0.641064
C130	C	0.736100	-0.016663	0.665424
C131	C	0.822793	0.001937	0.628733
H132	H	0.754892	0.197522	0.498131
H133	H	0.604024	0.165153	0.561983
H134	H	0.592088	0.029132	0.668225
H135	H	0.731024	-0.074525	0.710618
H136	H	0.881893	-0.042156	0.646766
H137	H	0.962248	-0.025074	0.441930
H138	H	1.022174	0.255110	0.558180
