data_functionalizedCrystal
_audit_creation_method	'MofGen! by Chris Wilmer'
_symmetry_space_group_name_H-M	'P1'
_symmetry_Int_Tables_number	1
_symmetry_cell_setting	triclinic
loop_
_symmetry_equiv_pos_as_xyz
  x,y,z
_cell_length_a	8.497374
_cell_length_b	19.077269
_cell_length_c	19.077068
_cell_angle_alpha	90.061946
_cell_angle_beta	92.284024
_cell_angle_gamma	87.703596
loop_
_atom_site_label
_atom_site_type_symbol
_atom_site_fract_x
_atom_site_fract_y
_atom_site_fract_z
Zn1	Zn	0.825264	1.062848	0.323001
Zn2	Zn	0.572447	1.058068	0.440478
Zn3	Zn	0.571644	0.945377	0.318272
Zn4	Zn	0.846332	0.940585	0.435755
O5	O	0.703922	1.001719	0.379376
O6	O	0.783246	1.160543	0.342540
O7	O	0.351577	1.043124	0.424265
O8	O	0.596134	0.964966	0.220568
O9	O	0.597502	1.157031	0.428850
O10	O	0.782468	1.051272	0.224042
O11	O	0.350987	0.960330	0.334481
O12	O	0.616563	0.846412	0.329901
O13	O	1.064300	0.956798	0.420800
O14	O	0.818375	0.842891	0.416215
O15	O	1.048822	1.046625	0.337960
O16	O	0.617931	1.038477	0.538183
O17	O	0.819153	0.952163	0.534712
C18	C	0.719669	0.819156	0.372033
C19	C	0.726445	0.741054	0.368908
C20	C	0.720948	0.994300	0.561944
C21	C	0.728280	0.991190	0.640051
C22	C	0.632764	0.702533	0.412304
C23	C	0.639151	0.629147	0.409368
C24	C	0.739212	0.594285	0.363033
C25	C	0.832903	0.632811	0.319635
C26	C	0.826523	0.706195	0.322575
C27	C	0.768688	0.375007	0.349433
C28	C	0.775058	0.301618	0.346495
C29	C	0.581308	0.297959	0.436229
C30	C	0.574929	0.371345	0.439162
C31	C	0.668626	0.409865	0.395767
N32	N	0.745740	0.519274	0.360029
N33	N	0.662106	0.484875	0.398775
C34	C	1.115402	1.001714	0.379377
C35	C	1.294047	1.001715	0.379385
C36	C	0.688114	1.184996	0.386749
C37	C	0.681377	1.263097	0.389891
C38	C	0.686861	1.009187	0.196096
C39	C	0.679591	1.012369	0.117993
C40	C	0.627039	1.034704	0.678530
C41	C	0.633943	1.031783	0.751919
C42	C	0.742082	0.985345	0.786827
C43	C	0.843333	0.941830	0.748343
C44	C	0.836436	0.944755	0.674955
C45	C	0.773945	0.971779	1.006121
C46	C	0.780832	0.968856	1.079514
C47	C	0.571443	1.058810	1.083084
C48	C	0.564548	1.061727	1.009695
C49	C	0.665805	1.018215	0.971217
N50	N	0.749139	0.982357	0.861842
N51	N	0.658755	1.021207	0.896204
H52	H	0.551277	0.730912	0.450033
H53	H	0.914382	0.604420	0.281911
H54	H	0.902807	0.737558	0.287237
H55	H	0.476493	1.099541	0.981275
H56	H	0.489007	1.094236	1.114421
O57	O	0.548074	0.591652	0.451421
C58	C	0.343070	0.508423	0.457405
C59	C	0.446136	0.550835	0.409695
H60	H	0.260604	0.475423	0.423689
H61	H	0.421703	0.472539	0.492811
H62	H	0.270522	0.545955	0.491043
H63	H	0.518698	0.513355	0.376014
H64	H	0.367415	0.586728	0.374337
H65	H	0.505028	0.266589	0.471560
H66	H	0.493447	0.399725	0.476893
O67	O	0.521941	1.079874	0.644734
C68	C	0.314922	1.168757	0.656029
C69	C	0.433894	1.117643	0.694389
H70	H	0.243681	1.199296	0.696157
H71	H	0.380934	1.206889	0.623122
H72	H	0.231994	1.137884	0.620400
H73	H	0.516852	1.148458	0.730053
H74	H	0.367780	1.079511	0.727252
O75	O	0.872412	0.267861	0.301469
C76	C	1.063870	0.279230	0.212755
C77	C	0.953722	0.317549	0.263722
H78	H	1.129614	0.319386	0.182213
H79	H	1.152327	0.243591	0.243673
H80	H	0.991118	0.246339	0.174612
H81	H	1.026345	0.350478	0.301877
H82	H	0.865261	0.353145	0.232759
H83	H	0.868918	0.931049	1.107934
H84	H	0.551501	1.067215	0.783245
H85	H	0.844985	0.406361	0.314098
H86	H	0.856389	0.936348	0.974798
O87	O	0.948240	0.896738	0.782360
C88	C	1.051723	0.852391	0.893833
C89	C	0.932819	0.903481	0.855400
H90	H	1.039319	0.857836	0.952892
H91	H	1.027454	0.796299	0.877230
H92	H	1.176513	0.865252	0.879823
H93	H	0.807984	0.890685	0.869391
H94	H	0.957225	0.959559	0.872005
H95	H	0.918878	0.909323	0.643626
