data_functionalizedCrystal
_audit_creation_method	'MofGen! by Chris Wilmer'
_symmetry_space_group_name_H-M	'P1'
_symmetry_Int_Tables_number	1
_symmetry_cell_setting	triclinic
loop_
_symmetry_equiv_pos_as_xyz
  x,y,z
_cell_length_a	14.044220
_cell_length_b	15.944551
_cell_length_c	12.503572
_cell_angle_alpha	93.522593
_cell_angle_beta	86.164750
_cell_angle_gamma	88.343808
loop_
_atom_site_label
_atom_site_type_symbol
_atom_site_fract_x
_atom_site_fract_y
_atom_site_fract_z
O1	O	1.263178	0.198062	-0.089210
O2	O	0.987210	0.190753	-0.089237
O3	O	1.132730	0.072697	-0.089213
O4	O	1.117659	0.316117	-0.089234
O5	O	1.121786	0.081592	0.089427
O6	O	0.976267	0.199647	0.089403
O7	O	1.252235	0.206956	0.089430
Cu8	Cu	1.113251	0.204114	0.105728
Cu9	Cu	1.126194	0.193595	-0.105535
O10	O	1.106715	0.325012	0.089406
C11	C	0.946424	0.192001	0.000079
C12	C	0.841198	0.182459	0.000069
C13	C	1.126632	0.045804	0.000107
C14	C	1.124756	-0.047583	0.000107
C15	C	0.648534	0.165017	0.000092
C16	C	0.590906	0.232688	0.000091
C17	C	0.483701	0.222983	0.000104
C18	C	0.755749	0.174721	0.000079
C19	C	1.030073	-0.269530	0.000083
C20	C	1.068645	-0.322870	0.088168
C21	C	1.121363	-0.218563	0.000099
C22	C	1.079457	-0.331621	-0.087957
C23	C	1.118079	-0.383722	0.000086
C24	C	1.159956	-0.270669	0.088256
C25	C	1.170759	-0.279418	-0.087948
C26	C	1.209396	-0.332734	0.000158
C27	C	1.123252	-0.123419	0.000107
C28	C	1.116197	-0.478865	0.000085
C29	C	1.293021	0.205708	0.000111
C30	C	1.398247	0.215249	0.000114
C31	C	1.112813	0.351905	0.000083
C32	C	1.114689	0.445291	0.000076
N33	N	1.104155	0.211512	0.254318
N34	N	1.135297	0.186191	-0.254126
C35	C	1.090774	0.222403	0.473431
C36	C	1.148675	0.175303	0.526768
C37	C	1.141230	0.181362	0.648690
C38	C	1.098218	0.216344	0.351498
H39	H	0.617360	0.099799	0.000104
O40	O	1.200592	-0.239095	0.177231
C41	C	1.227238	-0.305612	0.239470
H42	H	1.236751	-0.366285	0.186148
H43	H	1.297316	-0.290955	0.276581
H44	H	1.169199	-0.313384	0.306006
O45	O	0.939736	-0.236419	0.000119
C46	C	0.942770	-0.148155	-0.000806
H47	H	1.015963	-0.129911	-0.035184
H48	H	0.885388	-0.124096	-0.052661
H49	H	0.929414	-0.119087	0.084677
H50	H	1.025471	-0.342162	0.162629
O51	O	1.024845	0.275842	0.528138
C52	C	0.932615	0.253933	0.500746
H53	H	0.933876	0.185135	0.469744
H54	H	0.880613	0.263699	0.574771
H55	H	0.908778	0.295246	0.435576
H56	H	0.622081	0.297911	0.000080
O57	O	1.299872	-0.365474	0.000411
C58	C	1.341946	-0.334137	0.093389
H59	H	1.283569	-0.313089	0.157998
H60	H	1.388973	-0.385634	0.124135
H61	H	1.387317	-0.278349	0.073220
H62	H	1.213901	-0.260107	-0.162413
O63	O	1.038693	-0.363352	-0.176767
C64	C	0.944159	-0.331017	-0.176424
H65	H	0.936456	-0.269391	-0.124859
H66	H	0.926685	-0.319273	-0.262085
H67	H	0.892892	-0.378238	-0.142053
H68	H	1.203838	0.130429	0.480864
