data_functionalizedCrystal
_audit_creation_method	'MofGen! by Chris Wilmer'
_symmetry_space_group_name_H-M	'P1'
_symmetry_Int_Tables_number	1
_symmetry_cell_setting	triclinic
loop_
_symmetry_equiv_pos_as_xyz
  x,y,z
_cell_length_a	6.817900
_cell_length_b	11.102188
_cell_length_c	11.168136
_cell_angle_alpha	91.984111
_cell_angle_beta	108.508683
_cell_angle_gamma	108.603875
loop_
_atom_site_label
_atom_site_type_symbol
_atom_site_fract_x
_atom_site_fract_y
_atom_site_fract_z
V1	V	-4.110378	-0.175858	-0.393699
O2	O	-4.069443	0.008431	-0.386205
O3	O	-4.087154	-0.348678	-0.391007
O4	O	-4.086661	-0.173161	-0.565405
O5	O	-4.069939	-0.168300	-0.210599
V6	V	-4.587546	-0.153814	-0.371799
O7	O	-4.385578	-0.224213	-0.441739
O8	O	-4.762543	-0.105458	-0.323759
O9	O	-4.387564	0.019006	-0.374492
O10	O	-4.745878	-0.338103	-0.379294
O11	O	-4.745382	-0.161371	-0.554899
O12	O	-4.388056	-0.156510	-0.200093
C13	C	-3.937480	-0.390807	-0.384796
C14	C	-3.999943	-0.532090	-0.383739
C15	C	-3.969455	-0.580310	-0.267609
C16	C	-4.028169	-0.713061	-0.266621
C17	C	-4.147851	-0.749362	-0.497903
C18	C	-4.089152	-0.616614	-0.498890
C19	C	-4.154759	-0.876832	-0.130393
C20	C	-4.124235	-0.925054	-0.014256
C21	C	-3.934075	-0.861787	0.091571
C22	C	-3.774388	-0.750298	0.081267
C23	C	-3.804898	-0.702082	-0.034872
C24	C	-3.995102	-0.765348	-0.140696
C25	C	-3.962540	-0.452839	-0.635109
C26	C	-3.993035	-0.404620	-0.751249
C27	C	-4.183187	-0.467885	-0.857086
C28	C	-4.342852	-0.579380	-0.846793
C29	C	-4.312357	-0.627599	-0.730654
C30	C	-4.122204	-0.564324	-0.624817
C31	C	-3.936851	-0.166917	-0.607257
C32	C	-3.998909	-0.165856	-0.747627
C33	C	-4.201433	-0.171411	-0.816319
C34	C	-4.265578	-0.170314	-0.961399
C35	C	-4.200580	0.061129	-0.380699
C36	C	-4.117357	0.202410	-0.381764
C37	C	-4.201209	-0.162759	-0.158235
C38	C	-4.118387	-0.163813	-0.017863
H39	H	-3.896818	-0.511493	-0.173846
O40	O	-3.904315	-0.908408	0.204501
C41	C	-3.853466	-0.868037	0.427643
C42	C	-3.887085	-0.815065	0.299844
H43	H	-3.839572	-0.792605	0.504756
H44	H	-3.695885	-0.892157	0.455977
H45	H	-4.000223	-0.958617	0.416779
H46	H	-3.740454	-0.724453	0.310608
H47	H	-4.044748	-0.791035	0.271553
H48	H	-3.674879	-0.611313	-0.043263
H49	H	-4.439077	-0.175076	-1.020451
H50	H	-3.944892	-0.159066	-0.958822
O51	O	-3.848501	-0.158983	-0.805498
C52	C	-3.494816	-0.037256	-0.817921
C53	C	-3.664993	-0.044865	-0.752303
H54	H	-3.346390	0.054988	-0.774921
H55	H	-3.573156	-0.037467	-0.924599
H56	H	-3.438857	-0.123721	-0.802763
H57	H	-3.721015	0.041580	-0.767362
H58	H	-3.586553	-0.044716	-0.645649
O59	O	-3.589698	-0.688640	0.184025
C60	C	-3.370186	-0.492397	0.331546
C61	C	-3.579396	-0.562069	0.215145
H62	H	-3.361813	-0.390061	0.356759
H63	H	-3.218138	-0.489532	0.307829
H64	H	-3.375807	-0.546063	0.416287
H65	H	-3.573990	-0.508459	0.130354
H66	H	-3.731354	-0.564947	0.238969
H67	H	-4.254269	-1.015831	-0.005875
H68	H	-4.309627	-0.928345	-0.216554
H69	H	-4.442374	-0.718387	-0.722281
O70	O	-4.527496	-0.640654	-0.949709
C71	C	-4.729451	-0.643864	-1.170987
C72	C	-4.520273	-0.574329	-1.054523
H73	H	-4.723659	-0.590284	-1.255766
H74	H	-4.881501	-0.646600	-1.147334
H75	H	-4.737982	-0.746254	-1.196100
H76	H	-4.511529	-0.471909	-1.029349
H77	H	-4.368323	-0.571697	-1.078237
O78	O	-4.212896	-0.420873	-0.969818
C79	C	-4.249344	-0.242053	-1.079979
C80	C	-4.215726	-0.295141	-0.952240
H81	H	-4.251596	-0.140383	-1.065805
H82	H	-4.412736	-0.306336	-1.153879
H83	H	-4.108415	-0.240116	-1.114808
H84	H	-4.356526	-0.297081	-0.917296
H85	H	-4.052255	-0.230842	-0.878422
H86	H	-4.220487	-0.818197	-0.591655
O87	O	-3.777760	-0.391587	-0.532258
C88	C	-3.451443	-0.406251	-0.376038
C89	C	-3.660664	-0.475777	-0.492480
H90	H	-3.356688	-0.474279	-0.343858
H91	H	-3.500016	-0.374689	-0.294741
H92	H	-3.342651	-0.318265	-0.403370
H93	H	-3.769551	-0.563809	-0.465270
H94	H	-3.611933	-0.507243	-0.573745
H95	H	-3.863002	-0.313842	-0.759627
H96	H	-4.327328	-0.176970	-0.767720
