data_functionalizedCrystal
_audit_creation_method	'MofGen! by Chris Wilmer'
_symmetry_space_group_name_H-M	'P1'
_symmetry_Int_Tables_number	1
_symmetry_cell_setting	triclinic
loop_
_symmetry_equiv_pos_as_xyz
  x,y,z
_cell_length_a	10.654550
_cell_length_b	8.559649
_cell_length_c	9.730223
_cell_angle_alpha	89.997407
_cell_angle_beta	89.999957
_cell_angle_gamma	77.131797
loop_
_atom_site_label
_atom_site_type_symbol
_atom_site_fract_x
_atom_site_fract_y
_atom_site_fract_z
O1	O	1.644681	0.224185	-0.114181
O2	O	1.276996	0.245543	-0.114206
O3	O	1.493232	0.002621	-0.114190
O4	O	1.428445	0.467107	-0.114197
O5	O	1.493220	0.002614	0.114390
O6	O	1.276985	0.245537	0.114374
O7	O	1.644669	0.224178	0.114398
Zn8	Zn	1.460825	0.234856	0.150678
Zn9	Zn	1.460841	0.234865	-0.150486
O10	O	1.428434	0.467100	0.114383
C11	C	1.230355	0.243972	0.000081
C12	C	1.091396	0.239280	0.000071
C13	C	0.997136	0.382309	0.000073
C14	C	0.866571	0.377890	0.000097
C15	C	0.924541	0.087402	0.000112
C16	C	1.055103	0.091822	0.000097
C17	C	1.498136	-0.056858	0.000097
C18	C	1.512750	-0.234076	0.000091
C19	C	1.691311	0.225750	0.000109
C20	C	1.830270	0.230442	0.000109
C21	C	1.423530	0.526579	0.000092
C22	C	1.408915	0.703797	0.000089
N23	N	1.460824	0.234849	0.356214
N24	N	1.460853	0.234860	-0.356022
C25	C	1.556598	0.127329	0.428147
C26	C	1.556610	0.127330	0.572030
C27	C	1.365070	0.342385	0.572035
C28	C	1.365053	0.342375	0.428154
H29	H	0.789827	0.494359	0.000101
H30	H	1.131856	-0.024657	0.000100
N31	N	1.036291	0.541340	0.000066
H32	H	1.089159	0.549653	-0.084676
H33	H	0.956704	0.631186	0.000126
N34	N	0.885396	-0.071636	0.000147
H35	H	0.788382	-0.052735	0.000156
H36	H	0.920867	-0.134297	-0.084586
N37	N	1.645326	-0.343207	0.000097
H38	H	1.712539	-0.276571	0.000096
H39	H	1.656010	-0.413058	0.084841
H40	H	1.634578	0.039773	0.369577
N41	N	1.276344	-0.187085	0.000101
H42	H	1.284344	-0.071708	0.000099
H43	H	1.227995	-0.208345	-0.084633
H44	H	1.634596	0.039775	0.630594
N45	N	1.261755	0.458362	0.350562
H46	H	1.276276	0.442033	0.248499
H47	H	1.174554	0.438870	0.375725
N48	N	1.261779	0.458355	0.649627
H49	H	1.276322	0.442051	0.751691
H50	H	1.265336	0.571759	0.624462
