data_functionalizedCrystal
_audit_creation_method	'MofGen! by Chris Wilmer'
_symmetry_space_group_name_H-M	'P1'
_symmetry_Int_Tables_number	1
_symmetry_cell_setting	triclinic
loop_
_symmetry_equiv_pos_as_xyz
  x,y,z
_cell_length_a	19.077105
_cell_length_b	14.908308
_cell_length_c	19.076808
_cell_angle_alpha	90.833644
_cell_angle_beta	89.927608
_cell_angle_gamma	91.114342
loop_
_atom_site_label
_atom_site_type_symbol
_atom_site_fract_x
_atom_site_fract_y
_atom_site_fract_z
Zn1	Zn	1.037483	-0.545582	-0.346518
Zn2	Zn	1.039991	-0.389142	-0.457290
Zn3	Zn	0.927268	-0.389661	-0.335091
Zn4	Zn	0.915788	-0.533487	-0.458745
O5	O	0.980132	-0.464468	-0.399411
O6	O	1.135921	-0.529674	-0.365386
O7	O	1.030892	-0.263549	-0.435688
O8	O	0.945643	-0.415623	-0.238499
O9	O	1.137763	-0.414739	-0.446769
O10	O	1.026618	-0.530177	-0.246894
O11	O	0.948075	-0.263930	-0.345909
O12	O	0.827640	-0.403895	-0.347320
O13	O	0.926077	-0.660754	-0.449249
O14	O	0.819206	-0.509564	-0.438168
O15	O	1.015486	-0.669639	-0.366796
O16	O	1.019760	-0.403011	-0.555591
O17	O	0.928508	-0.509061	-0.556659
C18	C	0.797985	-0.455474	-0.391663
C19	C	0.720060	-0.451646	-0.388366
C20	C	0.679080	-0.504770	-0.434180
C21	C	0.605861	-0.501179	-0.431073
C22	C	0.573624	-0.444458	-0.382155
C23	C	0.614610	-0.391332	-0.336335
C24	C	0.687828	-0.394929	-0.339439
C25	C	0.355117	-0.427816	-0.367789
C26	C	0.281895	-0.424222	-0.364690
C27	C	0.273150	-0.534070	-0.459427
C28	C	0.346369	-0.537658	-0.462530
C29	C	0.387349	-0.484535	-0.416708
N30	N	0.498783	-0.440784	-0.378979
N31	N	0.462188	-0.488215	-0.419881
C32	C	0.969221	-0.698690	-0.409460
C33	C	0.964571	-0.798502	-0.413742
C34	C	1.048934	-0.995314	-0.335914
C35	C	1.044567	-1.089096	-0.339936
C36	C	0.951468	-1.079850	-0.425801
C37	C	0.955835	-0.986068	-0.421780
C38	C	1.004570	-0.943803	-0.376836
C39	C	1.008940	-0.850019	-0.372819
C40	C	0.915838	-0.840775	-0.458680
C41	C	0.911471	-0.934558	-0.462701
C42	C	1.162991	-0.473498	-0.407190
C43	C	1.240914	-0.477346	-0.410505
C44	C	0.973179	-0.454688	-0.581565
C45	C	0.970267	-0.450537	-0.659495
C46	C	0.991044	-0.231161	-0.389352
C47	C	0.995837	-0.131368	-0.384878
C48	C	1.011022	-0.508274	-0.700418
C49	C	1.008283	-0.504376	-0.773642
C50	C	0.964792	-0.442735	-0.805941
C51	C	0.924032	-0.384995	-0.765013
C52	C	0.926768	-0.388899	-0.691791
C53	C	0.952090	-0.424664	-1.024470
C54	C	0.949358	-0.420762	-1.097698
C55	C	1.033609	-0.540144	-1.106322
C56	C	1.036344	-0.544039	-1.033098
C57	C	0.995581	-0.486303	-0.992176
N58	N	0.961993	-0.438746	-0.880788
N59	N	0.998377	-0.490296	-0.917331
C60	C	0.987131	-0.474307	-0.216547
C61	C	0.990114	-0.478499	-0.138621
H62	H	0.572497	-0.544437	-0.468381
O63	O	1.078669	-0.603796	-1.001687
C64	C	1.127931	-0.557211	-0.959026
H65	H	1.134778	-0.485531	-0.978264
H66	H	1.108470	-0.555976	-0.902499
C67	C	1.190371	-0.692859	-0.939169
C68	C	1.198785	-0.604823	-0.962801
H69	H	1.234077	-0.722229	-0.941494
H70	H	1.157182	-0.724245	-0.967908
H71	H	1.174151	-0.691817	-0.892065
H72	H	1.214996	-0.605866	-1.009906
H73	H	1.231979	-0.573438	-0.934069
H74	H	1.066795	-0.587151	-1.139649
H75	H	0.239777	-0.577321	-0.496732
H76	H	1.088619	-0.960901	-0.299323
O77	O	0.394815	-0.376127	-0.323249
C78	C	0.350658	-0.325312	-0.279397
H79	H	0.297522	-0.318032	-0.305768
H80	H	0.343362	-0.360789	-0.227280
C81	C	0.449322	-0.240656	-0.233888
C82	C	0.384061	-0.231708	-0.266279
H83	H	0.469927	-0.182918	-0.225793
H84	H	0.479072	-0.274893	-0.263429
H85	H	0.443233	-0.270223	-0.190461
H86	H	0.390153	-0.202152	-0.309710
H87	H	0.354313	-0.197464	-0.236745
H88	H	0.879715	-0.798825	-0.492004
H89	H	0.913939	-0.370566	-1.123994
H90	H	0.893580	-0.341885	-0.658471
H91	H	0.871791	-0.968983	-0.499292
O92	O	1.087564	-1.139172	-0.300107
C93	C	1.046853	-1.193899	-0.255468
H94	H	0.993118	-1.163146	-0.247583
H95	H	1.040302	-1.263692	-0.280089
C96	C	1.149818	-1.238715	-0.193786
C97	C	1.083821	-1.200940	-0.184096
H98	H	1.172622	-1.243063	-0.149761
H99	H	1.177246	-1.201847	-0.223861
H100	H	1.144350	-1.296872	-0.214305
H101	H	1.089291	-1.142781	-0.163586
H102	H	1.056395	-1.237799	-0.154015
H103	H	0.255650	-0.378039	-0.324847
H104	H	0.918900	-0.377651	-0.991157
O105	O	1.056184	-0.808861	-0.329116
C106	C	1.020521	-0.755098	-0.279803
H107	H	0.967104	-0.737094	-0.301675
H108	H	1.013115	-0.793657	-0.229073
C109	C	1.129335	-0.690716	-0.238055
C110	C	1.063730	-0.668596	-0.264922
H111	H	1.155989	-0.637359	-0.228873
H112	H	1.153363	-0.726939	-0.271276
H113	H	1.123154	-0.722850	-0.195783
H114	H	1.069912	-0.636473	-0.307197
H115	H	1.039704	-0.632365	-0.231708
O116	O	0.583410	-0.336213	-0.288753
C117	C	0.635285	-0.290080	-0.248993
H118	H	0.685859	-0.329560	-0.250399
H119	H	0.645266	-0.220834	-0.271986
C120	C	0.548033	-0.231403	-0.170873
C121	C	0.610147	-0.279898	-0.172596
H122	H	0.532526	-0.225118	-0.123749
H123	H	0.513083	-0.262481	-0.197662
H124	H	0.556359	-0.173704	-0.190038
H125	H	0.601818	-0.337600	-0.153440
H126	H	0.645094	-0.248829	-0.145802
O127	O	0.377719	-0.592632	-0.510113
C128	C	0.420741	-0.541069	-0.554919
H129	H	0.401796	-0.469023	-0.555201
H130	H	0.477197	-0.541905	-0.535453
C131	C	0.440333	-0.669423	-0.629430
C132	C	0.417061	-0.580937	-0.629781
H133	H	0.438066	-0.694017	-0.675608
H134	H	0.411351	-0.704164	-0.599243
H135	H	0.487378	-0.670108	-0.613205
H136	H	0.370014	-0.580254	-0.645997
H137	H	0.446035	-0.546197	-0.659973
H138	H	1.046440	-0.558465	-0.674125
O139	O	0.710470	-0.559923	-0.481608
C140	C	0.751631	-0.622240	-0.446049
H141	H	0.766094	-0.594072	-0.391991
H142	H	0.720613	-0.687826	-0.440084
C143	C	0.801192	-0.674363	-0.554681
C144	C	0.818961	-0.639763	-0.488288
H145	H	0.842723	-0.685176	-0.580737
H146	H	0.773459	-0.632382	-0.578638
H147	H	0.775343	-0.729015	-0.549701
H148	H	0.844801	-0.585108	-0.493269
H149	H	0.846699	-0.681736	-0.464332
O150	O	0.881845	-0.325143	-0.796499
C151	C	0.888158	-0.334089	-0.869902
H152	H	0.940498	-0.365697	-0.883409
H153	H	0.843540	-0.378700	-0.890989
C154	C	0.820336	-0.202080	-0.886765
C155	C	0.884624	-0.240895	-0.903355
H156	H	0.818153	-0.144595	-0.907402
H157	H	0.816080	-0.196054	-0.837312
H158	H	0.783161	-0.239265	-0.904338
H159	H	0.921796	-0.203716	-0.885774
H160	H	0.888885	-0.246913	-0.952806
H161	H	0.721194	-0.351675	-0.302129
H162	H	1.041476	-0.551385	-0.806959
H163	H	0.911790	-1.114279	-0.462392
