data_functionalizedCrystal
_audit_creation_method	'MofGen! by Chris Wilmer'
_symmetry_space_group_name_H-M	'P1'
_symmetry_Int_Tables_number	1
_symmetry_cell_setting	triclinic
loop_
_symmetry_equiv_pos_as_xyz
  x,y,z
_cell_length_a	26.374263
_cell_length_b	26.373608
_cell_length_c	26.370205
_cell_angle_alpha	60.005297
_cell_angle_beta	60.010839
_cell_angle_gamma	59.993700
loop_
_atom_site_label
_atom_site_type_symbol
_atom_site_fract_x
_atom_site_fract_y
_atom_site_fract_z
O1	O	0.070152	-0.740800	0.619517
O2	O	0.570152	-0.240800	1.119517
O3	O	0.026377	-0.576764	0.499159
O4	O	0.526377	-0.076764	0.999159
O5	O	0.130245	-0.680560	0.499088
O6	O	0.630245	-0.180560	0.999088
O7	O	-0.033715	-0.637003	0.619589
O8	O	0.466285	-0.137003	1.119589
O9	O	0.164701	-0.646107	0.533470
O10	O	0.664701	-0.146107	1.033470
O11	O	0.060833	-0.542310	0.533541
O12	O	0.560833	-0.042310	1.033541
O13	O	0.104608	-0.706346	0.653899
O14	O	0.604608	-0.206346	1.153899
Cu15	Cu	0.085867	-0.621182	0.596859
Cu16	Cu	0.585867	-0.121182	1.096859
Cu17	Cu	0.045119	-0.661927	0.556199
Cu18	Cu	0.545119	-0.161927	1.056199
O19	O	0.000741	-0.602549	0.653971
O20	O	0.500741	-0.102549	1.153971
N21	N	0.114528	-0.592529	0.625461
N22	N	0.614528	-0.092529	1.125461
N23	N	0.016463	-0.690587	0.527598
N24	N	0.516463	-0.190587	1.027598
C25	C	0.181428	-0.355400	0.692330
C26	C	0.681428	0.144600	1.192330
C27	C	0.181530	-0.525690	0.862573
C28	C	0.681530	-0.025690	1.362573
C29	C	0.181440	-0.525667	0.692313
C30	C	0.681440	-0.025667	1.192313
C31	C	0.351736	-0.525673	0.692271
C32	C	0.851736	-0.025673	1.192271
C33	C	0.200174	-0.411588	0.711047
C34	C	0.700174	0.088412	1.211047
C35	C	0.200232	-0.506954	0.806384
C36	C	0.700232	-0.006954	1.306384
C37	C	0.295546	-0.506943	0.711016
C38	C	0.795546	-0.006943	1.211016
C39	C	0.200182	-0.506940	0.711037
C40	C	0.700182	-0.006940	1.211037
C41	C	0.157567	-0.283881	0.668507
C42	C	0.657567	0.216119	1.168507
C43	C	0.157587	-0.549500	0.668479
C44	C	0.657587	-0.049500	1.168479
C45	C	0.224035	-0.483107	0.734871
C46	C	0.724035	0.016893	1.234871
C47	C	0.455739	-0.507754	0.637520
C48	C	0.955739	-0.007754	1.137520
C49	C	0.520749	-0.529425	0.615835
C50	C	1.020749	-0.029425	1.115835
C51	C	0.520768	-0.634611	0.655947
C52	C	1.020768	-0.134611	1.155947
C53	C	0.455759	-0.612939	0.677633
C54	C	0.955759	-0.112939	1.177633
C55	C	0.173240	-0.251367	0.604595
C56	C	0.673240	0.248633	1.104595
C57	C	0.151546	-0.186351	0.582941
C58	C	0.651546	0.313649	1.082941
C59	C	0.098512	-0.186369	0.689113
C60	C	0.598512	0.313631	1.189113
C61	C	0.120206	-0.251385	0.710768
C62	C	0.620206	0.248615	1.210768
C63	C	0.093669	-0.533798	0.684205
C64	C	0.593669	-0.033798	1.184205
C65	C	0.071992	-0.555464	0.662532
C66	C	0.571992	-0.055464	1.162532
C67	C	0.178144	-0.608536	0.609422
C68	C	0.678144	-0.108536	1.109422
C69	C	0.199825	-0.586869	0.631088
C70	C	0.699825	-0.086869	1.131088
C71	C	0.093821	-0.533842	0.966616
C72	C	0.593821	-0.033842	1.466616
C73	C	0.072187	-0.555526	1.031630
C74	C	0.572187	-0.055526	1.531630
C75	C	0.178370	-0.608608	1.031591
C76	C	0.678370	-0.108608	1.531591
C77	C	0.200004	-0.586926	0.966576
C78	C	0.700004	-0.086926	1.466576
C79	C	0.157728	-0.549541	0.934090
C80	C	0.657728	-0.049541	1.434090
C81	C	0.423247	-0.549509	0.668416
C82	C	0.923247	-0.049509	1.168416
C83	C	-0.097522	-0.709158	0.508557
C84	C	0.402478	-0.209158	1.008557
C85	C	-0.002050	-0.709295	0.413344
C86	C	0.497950	-0.209295	0.913344
C87	C	-0.002241	-0.804604	0.508735
C88	C	0.497759	-0.304604	1.008735
C89	C	-0.002225	-0.709288	0.508793
C90	C	0.497775	-0.209288	1.008793
C91	C	-0.026009	-0.733087	0.484858
C92	C	0.473991	-0.233087	0.984858
N93	N	0.552340	-0.592538	0.625346
N94	N	1.052340	-0.092538	1.125346
O95	O	0.750867	-0.598274	0.477076
O96	O	1.250867	-0.098274	0.977076
O97	O	0.751048	-0.718989	0.640960
O98	O	1.251048	-0.218989	1.140960
O99	O	0.750981	-0.718715	0.537020
O100	O	1.250981	-0.218715	1.037020
O101	O	0.750934	-0.598547	0.581017
O102	O	1.250934	-0.098547	1.081017
O103	O	0.647701	-0.684348	0.571512
O104	O	1.147701	-0.184348	1.071512
O105	O	0.647768	-0.684622	0.675452
O106	O	1.147768	-0.184622	1.175452
O107	O	0.647587	-0.563907	0.511569
O108	O	1.147587	-0.063907	1.011569
Cu109	Cu	0.638247	-0.621127	0.596660
Cu110	Cu	1.138247	-0.121127	1.096660
Cu111	Cu	0.760388	-0.661769	0.555869
Cu112	Cu	1.260388	-0.161769	1.055869
O113	O	0.647654	-0.564181	0.615509
O114	O	1.147654	-0.064181	1.115509
N115	N	0.846295	-0.690358	0.527176
N116	N	1.346295	-0.190358	1.027176
N117	N	0.114503	-0.154778	0.625499
N118	N	0.614503	0.345222	1.125499
O119	O	-0.033701	0.043855	0.619632
O120	O	0.466299	0.543855	1.119632
O121	O	0.130190	0.043858	0.498933
O122	O	0.630190	0.543858	0.998933
O123	O	0.026233	0.043841	0.499224
O124	O	0.526233	0.543841	0.999224
O125	O	0.070257	0.043872	0.619341
O126	O	0.570257	0.543872	1.119341
O127	O	0.060690	-0.059448	0.533654
O128	O	0.560690	0.440552	1.033654
O129	O	0.164647	-0.059431	0.533363
O130	O	0.664647	0.440569	1.033363
O131	O	0.000756	-0.059434	0.654062
O132	O	0.500756	0.440566	1.154062
Cu133	Cu	0.085848	-0.068863	0.596857
Cu134	Cu	0.585848	0.431137	1.096857
Cu135	Cu	0.045099	0.053287	0.556138
Cu136	Cu	0.545099	0.553287	1.056138
O137	O	0.104714	-0.059417	0.653771
O138	O	0.604714	0.440583	1.153771
N139	N	0.016435	0.139202	0.527497
N140	N	0.516435	0.639202	1.027497
N141	N	0.114760	-0.592585	1.063190
N142	N	0.614760	-0.092585	1.563190
O143	O	0.108896	-0.740779	1.261808
O144	O	0.608896	-0.240779	1.761808
O145	O	-0.011787	-0.576838	1.261822
O146	O	0.488213	-0.076838	1.761822
O147	O	-0.011509	-0.680779	1.261780
O148	O	0.488491	-0.180779	1.761780
O149	O	0.108618	-0.636838	1.261850
O150	O	0.608618	-0.136838	1.761850
O151	O	0.022916	-0.646341	1.158496
O152	O	0.522916	-0.146341	1.658496
O153	O	0.022638	-0.542399	1.158538
O154	O	0.522638	-0.042399	1.658538
O155	O	0.143321	-0.706341	1.158524
O156	O	0.643321	-0.206341	1.658524
Cu157	Cu	0.086123	-0.621225	1.149100
Cu158	Cu	0.586123	-0.121225	1.649100
Cu159	Cu	0.045411	-0.661953	1.271246
Cu160	Cu	0.545411	-0.161953	1.771246
O161	O	0.143044	-0.602399	1.158566
O162	O	0.643044	-0.102399	1.658566
N163	N	0.016774	-0.690600	1.357156
N164	N	0.516774	-0.190600	1.857156
C165	C	0.039504	-0.538867	0.499769
C166	C	0.539504	-0.038867	0.999769
C167	C	0.168130	-0.667407	0.499680
C168	C	0.668130	-0.167407	0.999680
C169	C	0.091482	-0.744243	0.653289
C170	C	0.591482	-0.244243	1.153289
C171	C	-0.037145	-0.615703	0.653378
C172	C	0.462855	-0.115703	1.153378
C173	C	0.699429	-0.718429	0.678853
C174	C	1.199429	-0.218429	1.178853
C175	C	0.699348	-0.718091	0.550135
C176	C	1.199348	-0.218091	1.050135
C177	C	0.699202	-0.564465	0.473677
C178	C	1.199202	-0.064465	0.973677
C179	C	0.699287	-0.564805	0.602393
C180	C	1.199287	-0.064805	1.102393
C181	C	0.168023	-0.007659	0.499484
C182	C	0.668023	0.492341	0.999484
C183	C	0.039327	-0.007807	0.499887
C184	C	0.539327	0.492193	0.999887
C185	C	-0.037119	-0.007789	0.653468
C186	C	0.462881	0.492211	1.153468
C187	C	0.091620	-0.007770	0.653109
C188	C	0.591620	0.492230	1.153109
C189	C	-0.011194	-0.538964	1.210181
C190	C	0.488806	-0.038964	1.710181
C191	C	-0.010843	-0.667676	1.210109
C192	C	0.489157	-0.167676	1.710109
C193	C	0.142729	-0.744214	1.210165
C194	C	0.642729	-0.244214	1.710165
C195	C	0.142386	-0.615494	1.210214
C196	C	0.642386	-0.115494	1.710214
H197	H	0.059391	-0.503396	0.940172
H198	H	0.559391	-0.003396	1.440172
H199	H	-0.048566	-0.677061	1.210046
H200	H	0.451434	-0.177061	1.710046
H201	H	0.215222	-0.676694	0.461838
H202	H	0.715222	-0.176694	0.961838
H203	H	0.699474	-0.756325	0.725922
H204	H	1.199474	-0.256325	1.225922
O205	O	0.102924	-0.007879	0.698151
O206	O	0.602924	0.492121	1.198151
C207	C	0.165997	-0.061374	0.763415
C208	C	0.665997	0.438626	1.263415
C209	C	0.153254	-0.061331	0.712411
C210	C	0.653254	0.438669	1.212411
H211	H	0.206697	-0.104578	0.774950
H212	H	0.706697	0.395422	1.274950
H213	H	0.122963	-0.061417	0.806823
H214	H	0.622963	0.438583	1.306823
H215	H	0.177790	-0.018128	0.746199
H216	H	0.677790	0.481872	1.246199
H217	H	0.141477	-0.104569	0.729568
H218	H	0.641477	0.395431	1.229568
H219	H	0.196299	-0.061255	0.669014
H220	H	0.696299	0.438745	1.169014
O221	O	-0.056339	-0.482769	1.210211
O222	O	0.443661	0.017231	1.710211
C223	C	-0.085195	-0.380450	1.210200
C224	C	0.414805	0.119550	1.710200
C225	C	-0.034019	-0.444067	1.210181
C226	C	0.465981	0.055933	1.710181
H227	H	-0.067164	-0.349138	1.210162
H228	H	0.432836	0.150862	1.710162
H229	H	-0.127551	-0.386930	1.253426
H230	H	0.372449	0.113070	1.753426
H231	H	-0.098745	-0.358172	1.166977
H232	H	0.401255	0.141828	1.666977
H233	H	-0.020417	-0.466380	1.253374
H234	H	0.479583	0.033620	1.753374
H235	H	0.008303	-0.437547	1.166926
H236	H	0.508303	0.062453	1.666926
O237	O	-0.093226	-0.007815	0.698754
O238	O	0.406774	0.492185	1.198754
C239	C	-0.156837	-0.007762	0.803435
C240	C	0.343163	0.492238	1.303435
C241	C	-0.093264	-0.007748	0.752209
C242	C	0.406736	0.492252	1.252209
H243	H	-0.156894	-0.007695	0.846661
H244	H	0.343106	0.492305	1.346661
H245	H	-0.165942	-0.051003	0.815222
H246	H	0.334058	0.448997	1.315222
H247	H	-0.194758	0.035449	0.786323
H248	H	0.305242	0.535449	1.286323
H249	H	-0.055303	-0.050930	0.769278
H250	H	0.444697	0.449070	1.269278
H251	H	-0.084213	0.035521	0.740429
H252	H	0.415787	0.535521	1.240429
O253	O	0.187856	-0.800426	1.210186
O254	O	0.687856	-0.300426	1.710186
C255	C	0.216741	-0.902716	1.210111
C256	C	0.716741	-0.402716	1.710111
C257	C	0.165575	-0.839091	1.210104
C258	C	0.665575	-0.339091	1.710104
H259	H	0.198750	-0.933990	1.210031
H260	H	0.698750	-0.433990	1.710031
H261	H	0.230280	-0.925071	1.253353
H262	H	0.730280	-0.425071	1.753353
H263	H	0.259096	-0.896173	1.166905
H264	H	0.759096	-0.396173	1.666905
H265	H	0.123187	-0.845579	1.253280
H266	H	0.623187	-0.345579	1.753280
H267	H	0.152089	-0.816757	1.166833
H268	H	0.652089	-0.316757	1.666833
O269	O	0.028001	-0.007862	0.454950
O270	O	0.528001	0.492138	0.954950
C271	C	-0.045796	-0.007882	0.426563
C272	C	0.454204	0.492118	0.926563
C273	C	-0.033052	-0.007822	0.477509
C274	C	0.466948	0.492178	0.977509
H275	H	-0.095161	-0.007836	0.444778
H276	H	0.404839	0.492164	0.944778
H277	H	-0.011449	-0.051129	0.413012
H278	H	0.488551	0.448871	0.913012
H279	H	-0.040222	0.035323	0.384159
H280	H	0.459778	0.535323	0.884159
H281	H	-0.038634	-0.050998	0.519946
H282	H	0.461366	0.449002	1.019946
H283	H	-0.067397	0.035454	0.491007
H284	H	0.432603	0.535454	0.991007
H285	H	0.180125	-0.606093	1.210228
H286	H	0.680125	-0.106093	1.710228
O287	O	0.699024	-0.519191	0.417578
O288	O	1.199024	-0.019191	0.917578
C289	C	0.645431	-0.415612	0.362182
C290	C	1.145431	0.084388	0.862182
C291	C	0.645549	-0.466837	0.425752
C292	C	1.145549	0.033163	0.925752
H293	H	0.602207	-0.373266	0.368771
H294	H	1.102207	0.126734	0.868771
H295	H	0.645381	-0.433563	0.330849
H296	H	1.145381	0.066437	0.830849
H297	H	0.688651	-0.402070	0.339866
H298	H	1.188651	0.097930	0.839866
H299	H	0.602337	-0.480401	0.448122
H300	H	1.102337	0.019599	0.948122
H301	H	0.645631	-0.448858	0.457041
H302	H	1.145631	0.051142	0.957041
O303	O	0.010091	-0.540290	1.063152
O304	O	0.510091	-0.040290	1.563152
C305	C	-0.087280	-0.545261	1.083092
C306	C	0.412720	-0.045261	1.583092
C307	C	-0.016967	-0.562539	1.047345
C308	C	0.483033	-0.062539	1.547345
H309	H	-0.109175	-0.563253	1.070336
H310	H	0.390825	-0.063253	1.570336
H311	H	-0.109239	-0.492617	1.070310
H312	H	0.390761	0.007383	1.570310
H313	H	-0.095470	-0.567160	1.135136
H314	H	0.404530	-0.067160	1.635136
H315	H	-0.008721	-0.540681	0.995293
H316	H	0.491279	-0.040681	1.495293
H317	H	0.004957	-0.615188	1.060179
H318	H	0.504957	-0.115188	1.560179
O319	O	0.219522	-0.644937	1.063051
O320	O	0.719522	-0.144937	1.563051
C321	C	0.327125	-0.695276	1.056151
C322	C	0.827125	-0.195276	1.556151
C323	C	0.280591	-0.654133	1.020445
C324	C	0.780591	-0.154133	1.520445
H325	H	0.376509	-0.702712	1.021720
H326	H	0.876509	-0.202712	1.521720
H327	H	0.319697	-0.742068	1.086561
H328	H	0.819697	-0.242068	1.586561
H329	H	0.319612	-0.671466	1.086613
H330	H	0.819612	-0.171466	1.586613
H331	H	0.288075	-0.677887	0.989949
H332	H	0.788075	-0.177887	1.489949
H333	H	0.288030	-0.607342	0.990074
H334	H	0.788030	-0.107342	1.490074
H335	H	0.699366	-0.755841	0.540718
H336	H	1.199366	-0.255841	1.040718
O337	O	0.102528	-0.800460	0.698409
O338	O	0.602528	-0.300460	1.198409
C339	C	0.072563	-0.891768	0.766214
C340	C	0.572563	-0.391768	1.266214
C341	C	0.059977	-0.828109	0.715129
C342	C	0.559977	-0.328109	1.215129
H343	H	0.038176	-0.914147	0.779738
H344	H	0.538176	-0.414147	1.279738
H345	H	0.066959	-0.885341	0.808610
H346	H	0.566959	-0.385341	1.308610
H347	H	0.121908	-0.922965	0.748080
H348	H	0.621908	-0.422965	1.248080
H349	H	0.010634	-0.796879	0.733205
H350	H	0.510634	-0.296879	1.233205
H351	H	0.065622	-0.834584	0.672743
H352	H	0.565622	-0.334584	1.172743
H353	H	0.252044	-0.599714	0.940097
H354	H	0.752044	-0.099714	1.440097
H355	H	-0.084239	-0.606419	0.691217
H356	H	0.415761	-0.106419	1.191217
H357	H	0.214995	-0.007372	0.461496
H358	H	0.714995	0.492628	0.961496
O359	O	0.052556	-0.497478	0.720493
O360	O	0.552556	0.002522	1.220493
C361	C	-0.055024	-0.447147	0.770908
C362	C	0.444976	0.052853	1.270908
C363	C	-0.008531	-0.488273	0.729795
C364	C	0.491469	0.011727	1.229795
H365	H	-0.104423	-0.439703	0.778453
H366	H	0.395577	0.060297	1.278453
H367	H	-0.047592	-0.400357	0.747100
H368	H	0.452408	0.099643	1.247100
H369	H	-0.047473	-0.470975	0.817650
H370	H	0.452527	0.029025	1.317650
H371	H	-0.016055	-0.464499	0.683046
H372	H	0.483945	0.035501	1.183046
H373	H	-0.015975	-0.535060	0.753652
H374	H	0.484025	-0.035060	1.253652
H375	H	0.019945	-0.542665	0.675322
H376	H	0.519945	-0.042665	1.175322
O377	O	0.028421	-0.482629	0.454685
O378	O	0.528421	0.017371	0.954685
C379	C	0.058432	-0.391353	0.386818
C380	C	0.558432	0.108647	0.886818
C381	C	0.071041	-0.455023	0.437883
C382	C	0.571041	0.044977	0.937883
H383	H	0.092891	-0.369021	0.373209
H384	H	0.592891	0.130979	0.873209
H385	H	0.009116	-0.360093	0.404930
H386	H	0.509116	0.139907	0.904930
H387	H	0.063978	-0.397829	0.344477
H388	H	0.563978	0.102171	0.844477
H389	H	0.065528	-0.448605	0.480241
H390	H	0.565528	0.051395	0.980241
H391	H	0.120352	-0.486260	0.419721
H392	H	0.620352	0.013740	0.919721
O393	O	0.219206	-0.644746	0.573013
O394	O	0.719206	-0.144746	1.073013
C395	C	0.303309	-0.653048	0.477326
C396	C	0.803309	-0.153048	0.977326
C397	C	0.256833	-0.611974	0.518493
C398	C	0.756833	-0.111974	1.018493
H399	H	0.333750	-0.626572	0.433244
H400	H	0.833750	-0.126572	0.933244
H401	H	0.276873	-0.665827	0.464481
H402	H	0.776873	-0.165827	0.964481
H403	H	0.333739	-0.697177	0.503805
H404	H	0.833739	-0.197177	1.003805
H405	H	0.226390	-0.567819	0.492052
H406	H	0.726390	-0.067819	0.992052
H407	H	0.283306	-0.599245	0.531341
H408	H	0.783306	-0.099245	1.031341
O409	O	0.261895	-0.602041	0.615852
O410	O	0.761895	-0.102041	1.115852
C411	C	0.342341	-0.592216	0.625730
C412	C	0.842341	-0.092216	1.125730
C413	C	0.272033	-0.574973	0.643018
C414	C	0.772033	-0.074973	1.143018
H415	H	0.350560	-0.570350	0.647696
H416	H	0.850560	-0.070350	1.147696
H417	H	0.364256	-0.574243	0.573091
H418	H	0.864256	-0.074243	1.073091
H419	H	0.364260	-0.644864	0.643639
H420	H	0.864260	-0.144864	1.143639
H421	H	0.250060	-0.522331	0.625150
H422	H	0.750060	-0.022331	1.125150
H423	H	0.250163	-0.592989	0.695659
H424	H	0.750163	-0.092989	1.195659
O425	O	0.424295	-0.653583	0.707610
O426	O	0.924295	-0.153583	1.207610
C427	C	0.431185	-0.760209	0.745135
C428	C	0.931185	-0.260209	1.245135
C429	C	0.466895	-0.714242	0.711164
C430	C	0.966895	-0.214242	1.211164
H431	H	0.465611	-0.809263	0.748031
H432	H	0.965611	-0.309263	1.248031
H433	H	0.400747	-0.747205	0.718564
H434	H	0.900747	-0.247205	1.218564
H435	H	0.400751	-0.758188	0.794004
H436	H	0.900751	-0.258188	1.294004
H437	H	0.497362	-0.716239	0.662295
H438	H	0.997362	-0.216239	1.162295
H439	H	0.497293	-0.727261	0.737783
H440	H	0.997293	-0.227261	1.237783
O441	O	0.552221	-0.488776	0.585807
O442	O	1.052221	0.011224	1.085807
C443	C	0.545348	-0.382163	0.548332
C444	C	1.045348	0.117837	1.048332
C445	C	0.509629	-0.428127	0.582340
C446	C	1.009629	0.071873	1.082340
H447	H	0.510928	-0.333120	0.545530
H448	H	1.010928	0.166880	1.045530
H449	H	0.575745	-0.384106	0.499432
H450	H	1.075745	0.115894	0.999432
H451	H	0.575822	-0.395249	0.574899
H452	H	1.075822	0.104751	1.074899
H453	H	0.479121	-0.415073	0.555825
H454	H	0.979121	0.084927	1.055825
H455	H	0.479271	-0.426177	0.631243
H456	H	0.979271	0.073823	1.131243
O457	O	0.699353	-0.519845	0.613667
O458	O	1.199353	-0.019845	1.113667
C459	C	0.752885	-0.490170	0.640943
C460	C	1.252885	0.009830	1.140943
C461	C	0.752880	-0.541144	0.628205
C462	C	1.252880	-0.041144	1.128205
H463	H	0.796164	-0.507367	0.652687
H464	H	1.296164	-0.007367	1.152687
H465	H	0.709713	-0.478601	0.681641
H466	H	1.209713	0.021399	1.181641
H467	H	0.752801	-0.446781	0.597883
H468	H	1.252801	0.053219	1.097883
H469	H	0.752986	-0.584565	0.671229
H470	H	1.252986	-0.084565	1.171229
H471	H	0.796049	-0.552660	0.587484
H472	H	1.296049	-0.052660	1.087484
O473	O	0.424058	-0.446153	0.628599
O474	O	0.924058	0.053847	1.128599
C475	C	0.323900	-0.366149	0.644257
C476	C	0.823900	0.133851	1.144257
C477	C	0.359697	-0.435923	0.654391
C478	C	0.859697	0.064077	1.154391
H479	H	0.271858	-0.357857	0.665116
H480	H	0.771858	0.142143	1.165116
H481	H	0.336614	-0.338918	0.592378
H482	H	0.836614	0.161082	1.092378
H483	H	0.336733	-0.350020	0.667811
H484	H	0.836733	0.149980	1.167811
H485	H	0.346883	-0.452108	0.630874
H486	H	0.846883	0.047892	1.130874
H487	H	0.346979	-0.463112	0.706279
H488	H	0.846979	0.036888	1.206279
O489	O	0.209502	-0.282835	0.563458
O490	O	0.709502	0.217165	1.063458
C491	C	0.259837	-0.275955	0.455861
C492	C	0.759837	0.224045	0.955861
C493	C	0.218754	-0.240237	0.502379
C494	C	0.718754	0.259763	1.002379
H495	H	0.267342	-0.241530	0.406469
H496	H	0.767342	0.258470	0.906469
H497	H	0.236029	-0.306379	0.463312
H498	H	0.736029	0.193621	0.963312
H499	H	0.306598	-0.306408	0.463371
H500	H	0.806598	0.193592	0.963371
H501	H	0.171987	-0.209750	0.494897
H502	H	0.671987	0.290250	0.994897
H503	H	0.242612	-0.209852	0.494916
H504	H	0.742612	0.290148	0.994916
H505	H	0.164306	-0.159876	0.530897
H506	H	0.664306	0.340124	1.030897
O507	O	0.062208	-0.154895	0.730248
O508	O	0.562208	0.345105	1.230248
C509	C	0.011940	-0.161776	0.837845
C510	C	0.511940	0.338224	1.337845
C511	C	0.053047	-0.197495	0.791327
C512	C	0.553047	0.302505	1.291327
H513	H	0.004532	-0.196202	0.887238
H514	H	0.504532	0.303798	1.387238
H515	H	-0.034863	-0.131358	0.830422
H516	H	0.465137	0.368642	1.330422
H517	H	0.035758	-0.131318	0.830307
H518	H	0.535758	0.368682	1.330307
H519	H	0.029284	-0.227987	0.798837
H520	H	0.529284	0.272013	1.298837
H521	H	0.099848	-0.227873	0.798762
H522	H	0.599848	0.272127	1.298762
H523	H	0.107441	-0.277854	0.762810
H524	H	0.607441	0.222146	1.262810
H525	H	0.547237	-0.686258	0.663446
H526	H	1.047237	-0.186258	1.163446
