data_functionalizedCrystal
_audit_creation_method	'MofGen! by Chris Wilmer'
_symmetry_space_group_name_H-M	'P1'
_symmetry_Int_Tables_number	1
_symmetry_cell_setting	triclinic
loop_
_symmetry_equiv_pos_as_xyz
  x,y,z
_cell_length_a	13.897449
_cell_length_b	18.101397
_cell_length_c	13.897441
_cell_angle_alpha	90.034904
_cell_angle_beta	90.023394
_cell_angle_gamma	90.021292
loop_
_atom_site_label
_atom_site_type_symbol
_atom_site_fract_x
_atom_site_fract_y
_atom_site_fract_z
Zn1	Zn	1.474684	-0.294790	0.545421
Zn2	Zn	1.974684	0.205210	1.045421
Zn3	Zn	1.474570	-0.418645	0.384110
Zn4	Zn	1.974570	0.081355	0.884110
Zn5	Zn	1.313373	-0.294824	0.384132
Zn6	Zn	1.813373	0.205176	0.884132
Zn7	Zn	1.313347	-0.418596	0.545355
Zn8	Zn	1.813347	0.081404	1.045355
O9	O	1.393994	-0.356714	0.464754
O10	O	1.893994	0.143286	0.964754
O11	O	1.609651	-0.311226	0.524041
O12	O	2.109651	0.188774	1.024041
O13	O	1.453150	-0.402255	0.249131
O14	O	1.953150	0.097745	0.749131
O15	O	1.334830	-0.191186	0.405564
O16	O	1.834830	0.308814	0.905564
O17	O	1.609567	-0.402222	0.405527
O18	O	2.109567	0.097778	0.905527
O19	O	1.453344	-0.191161	0.524062
O20	O	1.953344	0.308839	1.024062
O21	O	1.334720	-0.311284	0.249147
O22	O	1.834720	0.188716	0.749147
O23	O	1.178388	-0.311236	0.405500
O24	O	1.678388	0.188764	0.905500
O25	O	1.334785	-0.402137	0.680346
O26	O	1.834785	0.097863	1.180346
O27	O	1.178369	-0.402171	0.523950
O28	O	1.678369	0.097829	1.023950
O29	O	1.453319	-0.311178	0.680394
O30	O	1.953319	0.188822	1.180394
O31	O	1.453125	-0.522272	0.405463
O32	O	1.953125	-0.022272	0.905463
O33	O	1.334675	-0.522235	0.523929
O34	O	1.834675	-0.022235	1.023929
C35	C	1.143379	-0.356702	0.464721
C36	C	1.643379	0.143298	0.964721
C37	C	1.036165	-0.356715	0.464729
C38	C	1.536165	0.143285	0.964729
C39	C	1.393911	-0.549124	0.464708
C40	C	1.893911	-0.049124	0.964708
C41	C	1.393964	-0.631438	0.464720
C42	C	1.893964	-0.131438	0.964720
C43	C	0.949096	-0.356718	0.464745
C44	C	1.449096	0.143282	0.964745
C45	C	0.839863	-0.356723	0.464775
C46	C	1.339863	0.143277	0.964775
C47	C	1.394087	-0.930529	0.464808
C48	C	1.894087	-0.430529	0.964808
C49	C	1.468405	-0.899196	0.390073
C50	C	1.968405	-0.399196	0.890073
C51	C	1.468662	-0.813577	0.390266
C52	C	1.968662	-0.313577	0.890266
C53	C	1.394026	-0.782147	0.464763
C54	C	1.894026	-0.282147	0.964763
C55	C	1.421587	-0.813148	0.566438
C56	C	1.921587	-0.313148	1.066438
C57	C	1.422162	-0.898793	0.566031
C58	C	1.922162	-0.398793	1.066031
C59	C	1.292011	-0.899041	0.438749
C60	C	1.792011	-0.399041	0.938749
C61	C	1.292515	-0.813391	0.436479
C62	C	1.792515	-0.313391	0.936479
C63	C	1.393990	-0.698287	0.464745
C64	C	1.893990	-0.198287	0.964745
C65	C	1.394126	-1.014389	0.464834
C66	C	1.894126	-0.514389	0.964834
C67	C	1.645587	-0.356726	0.464789
C68	C	2.145587	0.143274	0.964789
C69	C	1.752800	-0.356731	0.464803
C70	C	2.252800	0.143269	0.964803
C71	C	1.394062	-0.356648	0.716348
C72	C	1.894062	0.143352	1.216348
C73	C	1.394091	-0.356620	0.823562
C74	C	1.894091	0.143380	1.323562
C75	C	1.394103	-0.163552	0.464822
C76	C	1.894103	0.336448	0.964822
C77	C	1.394149	-0.081238	0.464851
C78	C	1.894149	0.418762	0.964851
C79	C	1.393981	-0.356725	0.214140
C80	C	1.893981	0.143275	0.714140
C81	C	1.394139	-0.356545	0.106927
C82	C	1.894139	0.143455	0.606927
C83	C	1.394117	-0.356570	1.019857
C84	C	1.894117	0.143430	1.519857
C85	C	1.394100	-0.356600	0.910624
C86	C	1.894100	0.143400	1.410624
H87	H	1.451370	-0.919844	0.314457
H88	H	1.951370	-0.419844	0.814457
C89	C	1.604869	-0.968360	0.334384
C90	C	2.104869	-0.468360	0.834384
C91	C	1.569928	-0.928166	0.413069
C92	C	2.069928	-0.428166	0.913069
H93	H	1.667543	-0.986248	0.348584
H94	H	2.167543	-0.486248	0.848584
H95	H	1.607535	-0.937241	0.279444
H96	H	2.107535	-0.437241	0.779444
H97	H	1.563232	-1.008857	0.321771
H98	H	2.063232	-0.508857	0.821771
H99	H	1.611562	-0.887665	0.425677
H100	H	2.111562	-0.387665	0.925677
H101	H	1.567268	-0.959286	0.468025
H102	H	2.067268	-0.459286	0.968025
H103	H	1.544275	-0.793032	0.407508
H104	H	2.044275	-0.293032	0.907508
C105	C	1.582149	-0.864649	0.613862
C106	C	2.082149	-0.364649	1.113862
C107	C	1.522889	-0.925686	0.595817
C108	C	2.022889	-0.425686	1.095817
H109	H	1.644337	-0.881251	0.632243
H110	H	2.144337	-0.381251	1.132243
H111	H	1.555266	-0.835851	0.664278
H112	H	2.055266	-0.335851	1.164278
H113	H	1.587047	-0.835458	0.557293
H114	H	2.087047	-0.335458	1.057293
H115	H	1.517985	-0.954874	0.652388
H116	H	2.017985	-0.454874	1.152388
H117	H	1.549778	-0.954496	0.545397
H118	H	2.049778	-0.454496	1.045397
C119	C	1.445577	-0.707924	0.288475
C120	C	1.945577	-0.207924	0.788475
C121	C	1.445385	-0.785279	0.288495
C122	C	1.945385	-0.285279	0.788495
H123	H	1.431202	-0.690458	0.225643
H124	H	1.931202	-0.190458	0.725643
H125	H	1.507217	-0.690499	0.307419
H126	H	2.007217	-0.190499	0.807419
H127	H	1.398426	-0.690355	0.332341
H128	H	1.898426	-0.190355	0.832341
H129	H	1.492541	-0.802848	0.244634
H130	H	1.992541	-0.302848	0.744634
H131	H	1.383736	-0.802712	0.269539
H132	H	1.883736	-0.302712	0.769539
C133	C	1.381752	-0.900698	0.733968
C134	C	1.881752	-0.400698	1.233968
C135	C	1.352277	-0.926781	0.643772
C136	C	1.852277	-0.426781	1.143772
H137	H	1.338617	-0.917980	0.781964
H138	H	1.838617	-0.417980	1.281964
H139	H	1.381867	-0.848227	0.733681
H140	H	1.881867	-0.348227	1.233681
H141	H	1.444759	-0.918211	0.747435
H142	H	1.944759	-0.418211	1.247435
H143	H	1.289273	-0.909264	0.630302
H144	H	1.789273	-0.409264	1.130302
H145	H	1.352152	-0.979263	0.644058
H146	H	1.852152	-0.479263	1.144058
C147	C	1.281279	-0.740396	0.600685
C148	C	1.781279	-0.240396	1.100685
C149	C	1.350759	-0.785658	0.643639
C150	C	1.850759	-0.285658	1.143639
H151	H	1.237557	-0.723422	0.648348
H152	H	1.737557	-0.223422	1.148348
H153	H	1.247253	-0.767786	0.553306
H154	H	1.747253	-0.267786	1.053306
H155	H	1.311909	-0.699278	0.571285
H156	H	1.811909	-0.199278	1.071285
H157	H	1.320130	-0.826779	0.673033
H158	H	1.820130	-0.326779	1.173033
H159	H	1.384789	-0.758267	0.691035
H160	H	1.884789	-0.258267	1.191035
H161	H	1.495365	-0.791638	0.588885
H162	H	1.995365	-0.291638	1.088885
C163	C	1.175191	-0.865671	0.558353
C164	C	1.675191	-0.365671	1.058353
C165	C	1.217249	-0.926391	0.512222
C166	C	1.717249	-0.426391	1.012222
H167	H	1.129046	-0.882558	0.603716
H168	H	1.629046	-0.382558	1.103716
H169	H	1.144435	-0.835213	0.511991
H170	H	1.644435	-0.335213	1.011991
H171	H	1.223570	-0.838067	0.590650
H172	H	1.723570	-0.338067	1.090650
H173	H	1.168871	-0.953991	0.479918
H174	H	1.668871	-0.453991	0.979918
H175	H	1.248005	-0.956861	0.558590
H176	H	1.748005	-0.456861	1.058590
C177	C	1.250774	-0.846833	0.274548
C178	C	1.750774	-0.346833	0.774548
C179	C	1.264521	-0.786077	0.335439
C180	C	1.764521	-0.286077	0.835439
H181	H	1.233521	-0.829973	0.212160
H182	H	1.733521	-0.329973	0.712160
H183	H	1.200830	-0.877143	0.299394
H184	H	1.700830	-0.377143	0.799394
H185	H	1.308657	-0.874579	0.270784
H186	H	1.808657	-0.374579	0.770784
H187	H	1.206636	-0.758333	0.339209
H188	H	1.706636	-0.258333	0.839209
H189	H	1.314469	-0.755755	0.310587
H190	H	1.814469	-0.255755	0.810587
H191	H	1.266939	-0.920706	0.365893
H192	H	1.766939	-0.420706	0.865893
H193	H	1.234164	-0.792004	0.486926
H194	H	1.734164	-0.292004	0.986926
