data_functionalizedCrystal
_audit_creation_method	'MofGen! by Chris Wilmer'
_symmetry_space_group_name_H-M	'P1'
_symmetry_Int_Tables_number	1
_symmetry_cell_setting	triclinic
loop_
_symmetry_equiv_pos_as_xyz
  x,y,z
_cell_length_a	14.971507
_cell_length_b	14.853559
_cell_length_c	13.930277
_cell_angle_alpha	89.999495
_cell_angle_beta	89.994086
_cell_angle_gamma	96.372942
loop_
_atom_site_label
_atom_site_type_symbol
_atom_site_fract_x
_atom_site_fract_y
_atom_site_fract_z
O1	O	-1.186952	0.117572	0.079851
O2	O	-0.926556	0.131621	0.079847
O3	O	-1.063714	-0.006635	0.079848
O4	O	-1.049794	0.255828	0.079850
O5	O	-1.063700	-0.006631	-0.079814
O6	O	-0.926543	0.131625	-0.079815
O7	O	-1.186938	0.117576	-0.079811
Zn8	Zn	-1.056738	0.124601	-0.105163
Zn9	Zn	-1.056756	0.124596	0.105198
O10	O	-1.049781	0.255831	-0.079812
C11	C	-0.893225	0.130992	0.000015
C12	C	-0.793929	0.129099	0.000014
C13	C	-0.355657	0.203097	0.000018
C14	C	-0.448958	0.204869	0.000023
C15	C	-0.506165	0.123638	0.000019
C16	C	-0.470068	0.040630	0.000019
C17	C	-0.376770	0.038860	0.000021
C18	C	-0.664532	0.044327	0.000014
C19	C	-0.757837	0.046097	0.000011
C20	C	-0.736720	0.210336	0.000017
C21	C	-0.643421	0.208565	0.000018
C22	C	-0.607331	0.125557	0.000017
C23	C	-1.063077	-0.040221	0.000019
C24	C	-1.061192	-0.140305	0.000024
C25	C	-1.053199	-0.563482	0.087056
C26	C	-1.053184	-0.563472	-0.087014
C27	C	-1.054963	-0.469439	-0.087015
C28	C	-1.055859	-0.422423	0.000021
C29	C	-1.054975	-0.469439	0.087058
C30	C	-1.055838	-0.422414	-0.174049
C31	C	-1.057616	-0.328375	-0.174054
C32	C	-1.058518	-0.281358	-0.087017
C33	C	-1.057636	-0.328380	0.000023
C34	C	-1.058531	-0.281364	0.087059
C35	C	-1.057655	-0.328386	0.174100
C36	C	-1.055878	-0.422422	0.174094
C37	C	-1.060296	-0.187321	-0.087012
C38	C	-1.060308	-0.187322	0.087061
C39	C	-0.220270	0.118205	0.000019
C40	C	-0.319566	0.120096	0.000015
C41	C	-1.050417	0.289418	0.000019
C42	C	-1.052303	0.389502	0.000020
N43	N	-1.056733	0.124604	-0.248729
C44	C	-0.995991	0.185805	-0.298993
C45	C	-1.117480	0.063399	-0.298970
C46	C	-1.117489	0.063396	-0.399466
C47	C	-1.056748	0.124597	-0.449730
C48	C	-0.995997	0.185801	-0.399498
C49	C	-1.178233	0.002186	-0.449705
C50	C	-1.178244	0.002179	-0.550207
C51	C	-1.117506	0.063385	-0.600473
C52	C	-1.056754	0.124593	-0.550235
C53	C	-0.996012	0.185794	-0.600498
C54	C	-0.935263	0.247007	-0.550262
C55	C	-0.935259	0.247007	-0.449763
C56	C	-1.117510	0.063385	-0.700972
C57	C	-0.996018	0.185790	-0.701004
N58	N	-1.056769	0.124586	0.248765
H59	H	-0.804414	-0.020048	0.000016
Cl60	Cl	-0.541987	-0.061489	0.000017
H61	H	-1.052489	-0.601771	0.157922
H62	H	-0.596845	0.274711	0.000015
H63	H	-0.309084	0.269245	0.000014
H64	H	-1.052449	-0.601757	-0.157874
H65	H	-0.478338	0.272457	0.000034
H66	H	-0.635151	-0.023267	0.000018
H67	H	-0.946558	0.235631	-0.741922
Cl68	Cl	-1.193832	-0.013542	-0.235784
H69	H	-1.055103	-0.460701	-0.244909
Cl70	Cl	-1.061441	-0.128224	0.196484
Cl71	Cl	-1.054780	-0.481541	0.283507
Cl72	Cl	-1.193869	-0.013568	-0.764119
H73	H	-1.227683	-0.047646	-0.408777
Cl74	Cl	-1.058714	-0.269270	-0.283474
H75	H	-0.885798	0.296844	-0.408855
Cl76	Cl	-1.061395	-0.128212	-0.196425
Cl77	Cl	-0.858899	0.323937	-0.613462
Cl78	Cl	-0.331398	-0.065489	0.000017
Cl79	Cl	-1.058785	-0.269269	0.283511
H80	H	-0.766109	0.277924	0.000017
H81	H	-0.946532	0.235646	-0.258088
Cl82	Cl	-1.254615	-0.074768	-0.613355
