data_functionalizedCrystal
_audit_creation_method	'MofGen! by Chris Wilmer'
_symmetry_space_group_name_H-M	'P1'
_symmetry_Int_Tables_number	1
_symmetry_cell_setting	triclinic
loop_
_symmetry_equiv_pos_as_xyz
  x,y,z
_cell_length_a	13.339070
_cell_length_b	13.930277
_cell_length_c	13.339070
_cell_angle_alpha	89.997676
_cell_angle_beta	64.370706
_cell_angle_gamma	89.999983
loop_
_atom_site_label
_atom_site_type_symbol
_atom_site_fract_x
_atom_site_fract_y
_atom_site_fract_z
O1	O	1.496795	-0.079856	-0.550515
O2	O	1.181986	-0.079852	-0.478255
O3	O	1.303261	-0.079850	-0.356981
O4	O	1.375521	-0.079857	-0.671790
O5	O	1.303268	0.079811	-0.356994
O6	O	1.181993	0.079810	-0.478269
O7	O	1.496803	0.079806	-0.550528
Zn8	Zn	1.339399	0.105158	-0.514401
Zn9	Zn	1.339389	-0.105204	-0.514383
O10	O	1.375528	0.079805	-0.671803
C11	C	1.140874	-0.000020	-0.466056
C12	C	1.018360	-0.000018	-0.429672
C13	C	0.732973	-0.000040	-0.712571
C14	C	0.848081	-0.000044	-0.746759
C15	C	0.890657	-0.000037	-0.667490
C16	C	0.818112	-0.000027	-0.554028
C17	C	0.702992	-0.000030	-0.519837
C18	C	0.860676	-0.000027	-0.474756
C19	C	0.788132	-0.000017	-0.361294
C20	C	0.673023	-0.000019	-0.327109
C21	C	0.630448	-0.000026	-0.406377
C22	C	0.975796	-0.000025	-0.508947
C23	C	0.945816	-0.000015	-0.316213
C24	C	0.830707	-0.000010	-0.282025
N25	N	1.339381	-0.248770	-0.514363
C26	C	1.254209	-0.701037	-0.428971
C27	C	1.424611	-0.701010	-0.599845
C28	C	1.424605	-0.600514	-0.599838
C29	C	1.339401	-0.550275	-0.514395
C30	C	1.254203	-0.600532	-0.428959
C31	C	1.509808	-0.550250	-0.685266
C32	C	1.509806	-0.449748	-0.685261
C33	C	1.424596	-0.399508	-0.599821
C34	C	1.339394	-0.449770	-0.514383
C35	C	1.254190	-0.399531	-0.428940
C36	C	1.168982	-0.449792	-0.343504
C37	C	1.168993	-0.550291	-0.343519
C38	C	1.424586	-0.299009	-0.599806
C39	C	1.254183	-0.299026	-0.428928
C40	C	1.537914	-0.000028	-0.562728
C41	C	1.660428	-0.000036	-0.599111
C42	C	1.291058	-0.000021	-0.315872
C43	C	1.254675	-0.000024	-0.193358
N44	N	1.339414	0.248724	-0.514414
C45	C	1.387730	-0.000027	-0.712912
C46	C	1.424114	-0.000030	-0.835426
C47	C	1.537574	-0.000027	0.092030
C48	C	1.571761	-0.000019	-0.023079
C49	C	1.492492	-0.000021	-0.065654
C50	C	1.379030	-0.000030	0.006890
C51	C	1.344839	-0.000031	0.122010
C52	C	1.299758	-0.000024	-0.035674
C53	C	1.186296	-0.000034	0.036871
C54	C	1.152111	-0.000035	0.151979
C55	C	1.231380	-0.000034	0.194555
C56	C	1.333949	-0.000023	-0.150794
C57	C	1.141215	-0.000027	-0.120813
C58	C	1.107028	-0.000035	-0.005705
H59	H	0.984385	-0.000043	-0.695333
F60	F	0.986275	-0.000047	0.071515
H61	H	1.579182	-0.591162	-0.754823
F62	F	1.621923	-0.000011	0.137350
H63	H	1.184833	-0.741964	-0.359414
H64	H	1.034852	-0.000029	-0.601328
H65	H	0.771625	-0.000009	-0.189642
F66	F	0.687653	-0.000060	-0.796921
F67	F	1.194999	-0.000133	0.317067
H68	H	0.536718	-0.000022	-0.378547
F69	F	1.078309	-0.396313	-0.252569
F70	F	1.515291	-0.754480	-0.690769
F71	F	1.056845	-0.000023	-0.166119
H72	H	0.613959	-0.000021	-0.234720
F73	F	0.991121	-0.000014	-0.231842
H74	H	1.579187	-0.408834	-0.754828
H75	H	1.426331	-0.000015	-0.209849
H76	H	0.907140	-0.000060	-0.839139
H77	H	1.184795	-0.258129	-0.359352
H78	H	1.099623	-0.591223	-0.273961
H79	H	1.059723	-0.000036	0.211043
F80	F	1.515269	-0.245522	-0.690720
H81	H	1.520335	-0.000013	-0.159382
H82	H	1.664142	-0.000010	-0.082137
