data_functionalizedCrystal
_audit_creation_method	'MofGen! by Chris Wilmer'
_symmetry_space_group_name_H-M	'P1'
_symmetry_Int_Tables_number	1
_symmetry_cell_setting	triclinic
loop_
_symmetry_equiv_pos_as_xyz
  x,y,z
_cell_length_a	6.817900
_cell_length_b	19.263509
_cell_length_c	19.453103
_cell_angle_alpha	82.961669
_cell_angle_beta	101.709178
_cell_angle_gamma	81.428207
loop_
_atom_site_label
_atom_site_type_symbol
_atom_site_fract_x
_atom_site_fract_y
_atom_site_fract_z
V1	V	-3.963372	0.219331	-0.097934
V2	V	-3.463372	0.719331	0.402066
O3	O	-3.961185	0.214820	0.003933
O4	O	-3.461185	0.714820	0.503933
O5	O	-3.906577	0.218154	-0.193443
O6	O	-3.406577	0.718154	0.306557
O7	O	-3.891315	0.314841	-0.096767
O8	O	-3.391315	0.814841	0.403233
O9	O	-3.976553	0.117463	-0.093412
O10	O	-3.476553	0.617463	0.406588
V11	V	-4.451153	0.207107	-0.085709
V12	V	-3.951153	0.707107	0.414291
O13	O	-4.215290	0.246144	-0.124750
O14	O	-3.715290	0.746144	0.375250
O15	O	-4.649433	0.180294	-0.058894
O16	O	-4.149433	0.680294	0.441106
O17	O	-4.284741	0.208284	0.009799
O18	O	-3.784741	0.708284	0.509799
O19	O	-4.570737	0.211618	-0.187576
O20	O	-4.070737	0.711618	0.312424
O21	O	-4.555369	0.308975	-0.090231
O22	O	-4.055369	0.808975	0.409769
O23	O	-4.300004	0.111597	-0.086877
O24	O	-3.800004	0.611597	0.413123
C25	C	-3.750301	0.214777	-0.216715
C26	C	-3.250301	0.714777	0.283285
C27	C	-3.784994	0.214451	-0.294797
C28	C	-3.284994	0.714451	0.205203
C29	C	-3.982197	0.217811	-0.335064
C30	C	-3.482197	0.717811	0.164936
C31	C	-4.014797	0.217512	-0.408431
C32	C	-3.514797	0.717512	0.091569
C33	C	-3.850178	0.213839	-0.441527
C34	C	-3.350178	0.713839	0.058473
C35	C	-3.652949	0.210483	-0.401251
C36	C	-3.152949	0.710483	0.098749
C37	C	-3.620357	0.210789	-0.327886
C38	C	-3.120357	0.710789	0.172114
N39	N	-3.752132	0.170553	-0.547643
N40	N	-3.252132	0.670553	-0.047643
N41	N	-3.783105	0.170261	-0.617336
N42	N	-3.283105	0.670261	-0.117336
C43	C	-3.948366	0.212919	-0.662571
C44	C	-3.448366	0.712919	-0.162571
N45	N	-4.081512	0.255871	-0.635478
N46	N	-3.581512	0.755871	-0.135478
N47	N	-4.050540	0.256160	-0.565778
N48	N	-3.550540	0.756160	-0.065778
C49	C	-3.885499	0.213508	-0.521078
C50	C	-3.385499	0.713508	-0.021078
C51	C	-4.180931	0.215955	-0.782391
C52	C	-3.680931	0.715955	-0.282391
C53	C	-4.213526	0.215661	-0.855761
C54	C	-3.713526	0.715661	-0.355761
C55	C	-3.851670	0.208625	-0.848577
C56	C	-3.351670	0.708625	-0.348577
C57	C	-3.819083	0.208927	-0.775211
C58	C	-3.319083	0.708927	-0.275211
C59	C	-3.983720	0.212589	-0.742122
C60	C	-3.483720	0.712589	-0.242122
C61	C	-4.123830	0.088324	-0.090251
C62	C	-3.623830	0.588324	0.409749
C63	C	-4.080755	0.010241	-0.090570
C64	C	-3.580755	0.510241	0.409430
C65	C	-3.886726	-0.022851	-0.094245
C66	C	-3.386726	0.477149	0.405755
C67	C	-3.846257	-0.096218	-0.094549
C68	C	-3.346257	0.403782	0.405451
C69	C	-3.999839	-0.136487	-0.091192
C70	C	-3.499839	0.363513	0.408808
C71	C	-4.193893	-0.103387	-0.087512
C72	C	-3.693893	0.396613	0.412488
C73	C	-4.234351	-0.030023	-0.087201
C74	C	-3.734351	0.469977	0.412799
N75	N	-4.097729	-0.247940	-0.129251
N76	N	-3.597729	0.252060	0.370749
N77	N	-4.059285	-0.317632	-0.129549
N78	N	-3.559285	0.182368	0.370451
C79	C	-3.877950	-0.357530	-0.092127
C80	C	-3.377950	0.142470	0.407873
N81	N	-3.736489	-0.325100	-0.054407
N82	N	-3.236489	0.174900	0.445593
N83	N	-3.774934	-0.255401	-0.054113
N84	N	-3.274934	0.244599	0.445887
C85	C	-3.955988	-0.216039	-0.091528
C86	C	-3.455988	0.283961	0.408472
C87	C	-3.640026	-0.470174	-0.096132
C88	C	-3.140026	0.029826	0.403868
C89	C	-3.599560	-0.543543	-0.096431
C90	C	-3.099560	-0.043543	0.403569
C91	C	-3.947207	-0.550710	-0.089401
C92	C	-3.447207	-0.050710	0.410599
C93	C	-3.987662	-0.477344	-0.089094
C94	C	-3.487662	0.022656	0.410906
C95	C	-3.834067	-0.437079	-0.092463
C96	C	-3.334067	0.062921	0.407537
C97	C	-3.730832	0.338110	-0.093395
C98	C	-3.230832	0.838110	0.406605
C99	C	-3.753145	0.416193	-0.093072
C100	C	-3.253145	0.916193	0.406928
C101	C	-4.104360	0.211659	0.033068
C102	C	-3.604360	0.711659	0.533068
C103	C	-4.048904	0.211989	0.111149
C104	C	-3.548904	0.711989	0.611149
H105	H	-3.459769	0.208054	-0.295101
H106	H	-2.959769	0.708054	0.204899
H107	H	-3.717635	0.205639	-0.875523
H108	H	-3.217635	0.705639	-0.375523
H109	H	-4.392355	-0.003081	-0.084208
H110	H	-3.892355	0.496919	0.415792
H111	H	-3.518918	0.207495	-0.428202
H112	H	-3.018918	0.707495	0.071798
H113	H	-3.658499	0.206187	-0.742424
H114	H	-3.158499	0.706187	-0.242424
H115	H	-3.514955	-0.437390	-0.098869
H116	H	-3.014955	0.062610	0.401131
H117	H	-4.116262	0.220797	-0.308128
H118	H	-3.616262	0.720797	0.191872
O119	O	-3.737352	0.016207	-0.097386
O120	O	-3.237352	0.516207	0.402614
C121	C	-3.572953	-0.009300	-0.038464
C122	C	-3.072953	0.490700	0.461536
H123	H	-3.629464	-0.038374	0.006247
H124	H	-3.129464	0.461626	0.506247
H125	H	-3.504339	0.037300	-0.019328
H126	H	-3.004339	0.537300	0.480672
H127	H	-3.452121	-0.047449	-0.054663
H128	H	-2.952121	0.452551	0.445337
O129	O	-3.410981	-0.575573	-0.100035
O130	O	-2.910981	-0.075573	0.399965
C131	C	-3.284091	-0.524302	-0.102925
C132	C	-2.784091	-0.024302	0.397075
H133	H	-3.381713	-0.469496	-0.124026
H134	H	-2.881713	0.030504	0.375974
H135	H	-3.178172	-0.537532	-0.139754
H136	H	-2.678172	-0.037532	0.360246
H137	H	-3.189781	-0.524420	-0.047332
H138	H	-2.689781	-0.024420	0.452668
H139	H	-4.145663	-0.450400	-0.086105
H140	H	-3.645663	0.049600	0.413895
O141	O	-4.096442	-0.589828	-0.086267
O142	O	-3.596442	-0.089828	0.413733
C143	C	-4.132154	-0.622750	-0.147376
C144	C	-3.632154	-0.122750	0.352624
H145	H	-4.079776	-0.591799	-0.192016
H146	H	-3.579776	-0.091799	0.307984
H147	H	-4.301791	-0.623480	-0.164797
H148	H	-3.801791	-0.123480	0.335203
H149	H	-4.043779	-0.679592	-0.134730
H150	H	-3.543779	-0.179592	0.365270
H151	H	-3.688241	-0.123168	-0.097531
H152	H	-3.188241	0.376832	0.402469
H153	H	-4.175388	0.220247	-0.441223
H154	H	-3.675388	0.720247	0.058777
O155	O	-4.343119	-0.142512	-0.084380
O156	O	-3.843119	0.357488	0.415620
C157	C	-4.378836	-0.175430	-0.145490
C158	C	-3.878836	0.324570	0.354510
H159	H	-4.326468	-0.144475	-0.190130
H160	H	-3.826468	0.355525	0.309870
H161	H	-4.548472	-0.176162	-0.162909
H162	H	-4.048472	0.323838	0.337091
H163	H	-4.290455	-0.232272	-0.132849
H164	H	-3.790455	0.267728	0.367151
H165	H	-4.314988	0.218936	-0.755449
H166	H	-3.814988	0.718936	-0.255449
H167	H	-4.374117	0.218401	-0.888546
H168	H	-3.874117	0.718401	-0.388546
