data_functionalizedCrystal
_audit_creation_method	'MofGen! by Chris Wilmer'
_symmetry_space_group_name_H-M	'P1'
_symmetry_Int_Tables_number	1
_symmetry_cell_setting	triclinic
loop_
_symmetry_equiv_pos_as_xyz
  x,y,z
_cell_length_a	25.639243
_cell_length_b	16.959454
_cell_length_c	16.959447
_cell_angle_alpha	90.023171
_cell_angle_beta	90.021226
_cell_angle_gamma	90.022756
loop_
_atom_site_label
_atom_site_type_symbol
_atom_site_fract_x
_atom_site_fract_y
_atom_site_fract_z
Zn1	Zn	-0.799320	0.314637	-0.447007
Zn2	Zn	-0.799264	0.446821	-0.314837
Zn3	Zn	-0.711888	0.314667	-0.314836
Zn4	Zn	-0.711869	0.446784	-0.446967
O5	O	-0.755585	0.380727	-0.380912
O6	O	-0.872477	0.332175	-0.429492
O7	O	-0.787657	0.429319	-0.204226
O8	O	-0.723517	0.204052	-0.332385
O9	O	-0.872436	0.429290	-0.332387
O10	O	-0.787753	0.204030	-0.429491
O11	O	-0.723463	0.332226	-0.204225
O12	O	-0.638720	0.332189	-0.332346
O13	O	-0.723486	0.429226	-0.557583
O14	O	-0.638707	0.429255	-0.429422
O15	O	-0.787735	0.332138	-0.557613
O16	O	-0.787639	0.557427	-0.332348
O17	O	-0.723431	0.557400	-0.429423
C18	C	-0.619743	0.380722	-0.380880
C19	C	-0.561629	0.380738	-0.380885
C20	C	-0.201281	0.330238	-0.431558
C21	C	-0.146677	0.330238	-0.431563
O22	O	-0.118454	0.287286	-0.474608
N23	N	-0.119346	0.380724	-0.380933
C24	C	-0.146622	0.431209	-0.330289
O25	O	-0.118361	0.474152	-0.287224
C26	C	-0.201226	0.431206	-0.330281
C27	C	-0.228554	0.380721	-0.380920
C28	C	-0.228610	0.279757	-0.482192
C29	C	-0.283210	0.279759	-0.482188
C30	C	-0.310482	0.330242	-0.431550
C31	C	-0.283154	0.380723	-0.380916
C32	C	-0.228501	0.481686	-0.279633
C33	C	-0.283108	0.481677	-0.279629
C34	C	-0.310436	0.431193	-0.330268
C35	C	-0.365027	0.431208	-0.330273
N36	N	-0.392358	0.380721	-0.380903
C37	C	-0.365086	0.330238	-0.431542
C38	C	-0.031952	0.431213	-0.330309
C39	C	0.022651	0.431221	-0.330321
C40	C	0.022592	0.330248	-0.431594
C41	C	-0.032011	0.330244	-0.431585
C42	C	-0.059283	0.380726	-0.380939
C43	C	-0.479751	0.330247	-0.431530
C44	C	-0.534356	0.330256	-0.431524
C45	C	-0.534293	0.431225	-0.330248
C46	C	-0.479692	0.431220	-0.330257
C47	C	-0.452423	0.380724	-0.380900
O48	O	-0.393285	0.474135	-0.287248
O49	O	-0.393354	0.287296	-0.474592
C50	C	-0.755541	0.586094	-0.380898
C51	C	-0.755570	0.673950	-0.380919
C52	C	-0.755614	0.380675	-0.587080
C53	C	-0.755627	0.380652	-0.674937
C54	C	0.108042	0.380733	-0.380944
C55	C	0.049928	0.380735	-0.380956
C56	C	-0.755643	0.174559	-0.380943
C57	C	-0.755668	0.086702	-0.380956
C58	C	-0.722201	1.045441	-0.431453
C59	C	-0.789115	1.045410	-0.330451
C60	C	-0.789097	0.962864	-0.330443
C61	C	-0.755630	0.921603	-0.380941
C62	C	-0.722180	0.962888	-0.431446
C63	C	-0.822542	0.921573	-0.279933
C64	C	-0.822525	0.839022	-0.279924
C65	C	-0.789059	0.797760	-0.330426
C66	C	-0.755609	0.839050	-0.380934
C67	C	-0.722141	0.797788	-0.431431
C68	C	-0.688693	0.839077	-0.481944
C69	C	-0.688715	0.921625	-0.481948
C70	C	-0.789038	0.715211	-0.330421
C71	C	-0.722121	0.715235	-0.431424
C72	C	-0.722182	0.431192	-0.716197
C73	C	-0.789081	0.330087	-0.716230
C74	C	-0.789092	0.330061	-0.798776
C75	C	-0.755647	0.380600	-0.840036
C76	C	-0.722191	0.431166	-0.798750
C77	C	-0.822543	0.279491	-0.840068
C78	C	-0.822555	0.279463	-0.922619
C79	C	-0.789112	0.330007	-0.963881
C80	C	-0.755655	0.380574	-0.922590
C81	C	-0.722210	0.431114	-0.963850
C82	C	-0.688755	0.481686	-0.922560
C83	C	-0.688748	0.481709	-0.840012
C84	C	-0.789120	0.329983	-1.046429
C85	C	-0.722219	0.431088	-1.046403
C86	C	-0.755586	0.380723	-0.175545
C87	C	-0.755675	0.380522	-0.087689
H88	H	0.044897	0.472339	-0.289094
H89	H	-0.816308	0.288937	-0.682631
H90	H	-0.849797	0.238285	-0.956230
H91	H	-0.694869	0.681645	-0.472549
C92	C	-0.859320	0.793611	-0.224367
C93	C	-0.855095	0.805010	-0.134504
C94	C	-0.891892	0.759599	-0.078950
C95	C	-0.932915	0.702788	-0.113258
C96	C	-0.937142	0.691387	-0.203126
C97	C	-0.900345	0.736799	-0.258680
H98	H	-0.824725	0.847067	-0.109103
H99	H	-0.888762	0.768039	-0.012424
H100	H	-0.960154	0.669172	-0.072133
H101	H	-0.967511	0.649331	-0.228527
H102	H	-0.903474	0.728358	-0.325206
H103	H	-0.816360	1.079010	-0.289333
C104	C	-0.313106	0.537212	-0.223918
C105	C	-0.305571	0.530641	-0.134073
C106	C	-0.335568	0.586176	-0.078364
C107	C	-0.373100	0.648281	-0.112500
C108	C	-0.380636	0.654854	-0.202349
C109	C	-0.350639	0.599319	-0.258058
H110	H	-0.277787	0.484665	-0.108799
H111	H	-0.329990	0.581310	-0.011851
H112	H	-0.395305	0.689391	-0.071261
H113	H	-0.408420	0.700830	-0.227623
H114	H	-0.356218	0.604185	-0.324571
C115	C	-0.859331	0.223905	-0.794679
C116	C	-0.836685	0.161877	-0.737916
C117	C	-0.873476	0.106292	-0.692520
C118	C	-0.932913	0.112735	-0.703888
C119	C	-0.955563	0.174766	-0.760654
C120	C	-0.918772	0.230351	-0.806049
H121	H	-0.792683	0.157105	-0.729498
H122	H	-0.856709	0.060373	-0.650499
H123	H	-0.960148	0.071588	-0.670284
H124	H	-0.999564	0.179538	-0.769071
H125	H	-0.935539	0.276270	-0.848071
C126	C	-0.061948	0.486758	-0.274603
C127	C	-0.054408	0.480198	-0.184758
C128	C	-0.084401	0.535742	-0.129053
C129	C	-0.121932	0.597845	-0.163192
C130	C	-0.129473	0.604407	-0.253041
C131	C	-0.099481	0.548863	-0.308747
H132	H	-0.026624	0.434224	-0.159482
H133	H	-0.078818	0.530884	-0.062540
H134	H	-0.144134	0.638962	-0.121955
H135	H	-0.157258	0.650382	-0.278317
H136	H	-0.105063	0.553721	-0.375259
H137	H	-0.694969	1.079062	-0.472581
C138	C	-0.651879	0.793683	-0.537489
C139	C	-0.610832	0.736999	-0.503165
C140	C	-0.574019	0.691602	-0.558708
C141	C	-0.578253	0.702889	-0.648574
C142	C	-0.619301	0.759576	-0.682902
C143	C	-0.656115	0.804973	-0.627360
H144	H	-0.607697	0.728642	-0.436636
H145	H	-0.543632	0.649639	-0.533295
H146	H	-0.551001	0.669284	-0.689690
H147	H	-0.622437	0.767934	-0.749431
H148	H	-0.686501	0.846936	-0.652773
H149	H	-0.661510	0.522882	-0.806387
C150	C	-0.449759	0.274706	-0.487241
C151	C	-0.457296	0.281282	-0.577085
C152	C	-0.427304	0.225747	-0.632799
C153	C	-0.389775	0.163636	-0.598670
C154	C	-0.382236	0.157057	-0.508821
C155	C	-0.412228	0.212593	-0.453107
H156	H	-0.485080	0.327263	-0.602354
H157	H	-0.432885	0.230617	-0.699311
H158	H	-0.367573	0.122525	-0.639913
H159	H	-0.354452	0.111077	-0.483552
H160	H	-0.406646	0.207723	-0.386595
C161	C	-0.564299	0.486753	-0.274547
C162	C	-0.624361	0.486744	-0.274543
C163	C	-0.654368	0.542268	-0.218837
C164	C	-0.624315	0.597801	-0.163134
C165	C	-0.564250	0.597813	-0.163135
C166	C	-0.534242	0.542289	-0.218841
H167	H	-0.646611	0.445633	-0.315780
H168	H	-0.698833	0.542259	-0.218837
H169	H	-0.646528	0.638903	-0.121896
H170	H	-0.541999	0.638924	-0.121898
H171	H	-0.489778	0.542298	-0.218841
C172	C	-0.651924	0.967045	-0.537504
C173	C	-0.610904	1.023859	-0.503193
C174	C	-0.574113	1.069284	-0.558747
C175	C	-0.578342	1.057896	-0.648610
C176	C	-0.619364	1.001079	-0.682926
C177	C	-0.656155	0.955654	-0.627372
H178	H	-0.607771	1.032292	-0.436667
H179	H	-0.543746	1.111343	-0.533344
H180	H	-0.551108	1.091522	-0.689734
H181	H	-0.622496	0.992646	-0.749452
H182	H	-0.686522	0.913595	-0.652775
C183	C	-0.062070	0.274706	-0.487283
C184	C	-0.054586	0.281272	-0.577130
C185	C	-0.084642	0.225729	-0.632828
C186	C	-0.122181	0.163621	-0.598680
C187	C	-0.129667	0.157052	-0.508828
C188	C	-0.099611	0.212595	-0.453130
H189	H	-0.026795	0.327251	-0.602413
H190	H	-0.079100	0.230592	-0.699343
H191	H	-0.144430	0.122505	-0.639911
H192	H	-0.157458	0.111073	-0.483545
H193	H	-0.105153	0.207732	-0.386615
C194	C	-0.859352	0.966965	-0.224389
C195	C	-0.836730	1.023780	-0.162316
C196	C	-0.873541	1.069179	-0.106771
C197	C	-0.932974	1.057762	-0.113299
C198	C	-0.955599	1.000944	-0.175375
C199	C	-0.918788	0.955545	-0.230920
H200	H	-0.792731	1.032234	-0.157481
H201	H	-0.856792	1.111239	-0.060818
H202	H	-0.960223	1.091368	-0.072181
H203	H	-0.999597	0.992490	-0.180210
H204	H	-0.935537	0.913485	-0.276873
H205	H	0.044807	0.289140	-0.472824
C206	C	-0.825826	0.669793	-0.274865
C207	C	-0.821594	0.681188	-0.185002
C208	C	-0.858385	0.635769	-0.129443
C209	C	-0.899407	0.578955	-0.163748
C210	C	-0.903640	0.567557	-0.253615
C211	C	-0.866850	0.612976	-0.309174
H212	H	-0.791226	0.723248	-0.159604
H213	H	-0.855251	0.644207	-0.062917
H214	H	-0.926641	0.545333	-0.122620
H215	H	-0.934009	0.525497	-0.279013
H216	H	-0.869983	0.604538	-0.375700
H217	H	-0.694985	0.472246	-1.079992
H218	H	-0.816354	0.288802	-1.080043
H219	H	-0.556604	0.289144	-0.472763
H220	H	-0.305456	0.238648	-0.523423
H221	H	-0.661521	0.522831	-0.956165
H222	H	-0.206410	0.238644	-0.523428
H223	H	-0.206259	0.522795	-0.238397
H224	H	-0.457441	0.472338	-0.289032
H225	H	-0.694945	0.472369	-0.682575
