data_functionalizedCrystal
_audit_creation_method	'MofGen! by Chris Wilmer'
_symmetry_space_group_name_H-M	'P1'
_symmetry_Int_Tables_number	1
_symmetry_cell_setting	triclinic
loop_
_symmetry_equiv_pos_as_xyz
  x,y,z
_cell_length_a	17.019372
_cell_length_b	27.731996
_cell_length_c	15.500227
_cell_angle_alpha	92.797931
_cell_angle_beta	91.029586
_cell_angle_gamma	83.007937
loop_
_atom_site_label
_atom_site_type_symbol
_atom_site_fract_x
_atom_site_fract_y
_atom_site_fract_z
O1	O	1.045595	0.061749	0.005875
O2	O	0.816710	0.069074	-0.011166
O3	O	0.938282	-0.004942	-0.002096
O4	O	0.924024	0.135765	-0.003195
O5	O	0.930905	-0.000468	0.141242
O6	O	0.809333	0.073547	0.132173
O7	O	1.038218	0.066223	0.149213
Cu8	Cu	0.923102	0.070294	0.153781
Cu9	Cu	0.931826	0.065003	-0.015733
O10	O	0.916647	0.140239	0.140144
C11	C	0.783749	0.070945	0.058325
C12	C	0.696525	0.069851	0.051831
C13	C	0.934300	-0.020714	0.069554
C14	C	0.933417	-0.074376	0.069498
C15	C	0.203410	0.063521	0.011131
C16	C	0.285366	0.064550	0.017244
C17	C	0.322314	0.067506	0.098434
C18	C	0.277302	0.069430	0.173517
C19	C	0.195349	0.068397	0.167404
C20	C	0.569560	0.070742	0.120801
C21	C	0.651519	0.071775	0.126909
C22	C	0.659577	0.066895	-0.029366
C23	C	0.577621	0.065866	-0.035472
C24	C	0.532617	0.067786	0.039611
C25	C	0.406085	0.068559	0.104684
C26	C	0.448848	0.066730	0.033361
C27	C	0.931890	-0.409567	-0.009092
C28	C	0.928540	-0.611246	-0.009356
O29	O	0.931493	-0.639394	-0.075841
N30	N	0.924103	-0.634027	0.068746
C31	C	0.920497	-0.606385	0.146919
O32	O	0.916638	-0.630388	0.213343
C33	C	0.923841	-0.404706	0.147182
C34	C	0.928287	-0.381928	0.069076
C35	C	0.936334	-0.386789	-0.087192
C36	C	0.937176	-0.336372	-0.087125
C37	C	0.933573	-0.308734	-0.008957
C38	C	0.929129	-0.331512	0.069143
C39	C	0.920230	-0.377064	0.225354
C40	C	0.921065	-0.326641	0.225413
C41	C	0.925510	-0.303863	0.147307
C42	C	0.926367	-0.253456	0.147378
N43	N	0.930805	-0.230675	0.069276
C44	C	0.934407	-0.258314	-0.008892
C45	C	0.918743	-0.712269	0.146776
C46	C	0.917909	-0.762689	0.146710
C47	C	0.925950	-0.767547	-0.009566
C48	C	0.926790	-0.717127	-0.009499
C49	C	0.923181	-0.689488	0.068674
C50	C	0.936175	-0.152435	-0.008744
C51	C	0.937020	-0.102015	-0.008670
C52	C	0.928975	-0.097161	0.147605
C53	C	0.928134	-0.147578	0.147531
C54	C	0.931732	-0.175214	0.069350
O55	O	0.923408	-0.225278	0.213827
O56	O	0.938249	-0.234300	-0.075307
C57	C	0.931048	-0.459983	-0.009159
C58	C	0.926604	-0.482761	0.068941
C59	C	0.923001	-0.455123	0.147109
C60	C	0.925769	-0.533181	0.068876
C61	C	0.929372	-0.560819	-0.009292
C62	C	0.933809	-0.538038	-0.087394
C63	C	0.934651	-0.487622	-0.087326
C64	C	0.918564	-0.477904	0.225211
C65	C	0.917723	-0.528321	0.225137
C66	C	0.921326	-0.555959	0.146970
C67	C	1.071180	0.064351	0.079721
C68	C	1.158404	0.065446	0.086209
C69	C	0.920628	0.156011	0.068491
C70	C	0.921511	0.209672	0.068543
N71	N	0.916972	0.074015	0.273009
N72	N	0.937963	0.061278	-0.134960
C73	C	0.968503	0.042663	0.322130
C74	C	0.963874	0.045482	0.412357
C75	C	0.907717	0.079655	0.453462
C76	C	0.856180	0.111007	0.404334
C77	C	0.860805	0.108186	0.314108
C78	C	0.891052	0.089810	0.725686
C79	C	0.886431	0.092630	0.815919
C80	C	0.994126	0.027103	0.823935
C81	C	0.998750	0.024287	0.733707
C82	C	0.947210	0.055638	0.684587
C83	C	0.902985	0.082537	0.545689
C84	C	0.951938	0.052752	0.592361
H85	H	0.173332	0.061117	-0.054983
H86	H	0.322007	0.062980	-0.043893
F87	F	0.914723	-0.448495	0.308412
F88	F	0.316627	0.072575	0.259927
H89	H	0.818842	0.133715	0.274114
H90	H	0.914109	-0.546862	0.288746
F91	F	0.538304	0.062719	-0.121886
F92	F	0.521672	0.072796	0.200712
H93	H	0.810451	0.138830	0.437807
H94	H	0.938270	-0.469081	-0.150929
F95	F	0.931520	-0.692890	-0.092630
H96	H	0.696228	0.065330	-0.090494
H97	H	0.918114	-0.304139	0.289071
F98	F	0.941902	-0.312136	-0.170257
F99	F	0.826658	0.129004	0.859659
F100	F	0.690840	0.074922	0.213327
F101	F	0.836202	0.123177	0.673416
F102	F	1.058519	-0.012083	0.689962
F103	F	1.028278	0.006294	0.278392
H104	H	0.436177	0.070968	0.170790
H105	H	0.997659	0.024927	0.558891
H106	H	0.158705	0.069969	0.228540
H107	H	0.857262	0.110362	0.579164
H108	H	1.005835	0.019953	0.452351
H109	H	1.036086	0.001578	0.863937
F110	F	0.940005	-0.181841	-0.091954
H111	H	0.418762	0.064320	-0.032744
H112	H	0.939265	-0.409287	-0.150849
F113	F	0.941754	-0.077776	-0.091805
H114	H	0.928884	-0.790059	-0.073213
F115	F	0.914897	-0.682860	0.229983
F116	F	0.913191	-0.786926	0.229843
H117	H	0.916612	-0.395601	0.288957
H118	H	0.924522	-0.166125	0.211133
H119	H	0.926045	-0.074649	0.211247
H120	H	0.936746	-0.560551	-0.151040
