data_functionalizedCrystal
_audit_creation_method	'MofGen! by Chris Wilmer'
_symmetry_space_group_name_H-M	'P1'
_symmetry_Int_Tables_number	1
_symmetry_cell_setting	triclinic
loop_
_symmetry_equiv_pos_as_xyz
  x,y,z
_cell_length_a	14.560432
_cell_length_b	14.809374
_cell_length_c	14.809374
_cell_angle_alpha	60.797835
_cell_angle_beta	90.000461
_cell_angle_gamma	67.427239
loop_
_atom_site_label
_atom_site_type_symbol
_atom_site_fract_x
_atom_site_fract_y
_atom_site_fract_z
Zr1	Zr	1.014446	0.955226	-0.203678
O2	O	0.901942	1.113144	-0.350836
O3	O	1.033006	0.777460	-0.145601
O4	O	1.070574	0.926609	-0.332141
O5	O	0.852858	0.993491	-0.031898
O6	O	1.221713	0.926612	-0.332141
O7	O	0.864374	0.963996	-0.164296
O8	O	1.154510	0.659813	0.001545
O9	O	0.920060	1.260291	-0.365584
O10	O	1.172958	0.857932	-0.136496
O11	O	1.051571	0.879941	-0.037688
O12	O	1.095803	1.055544	-0.257315
O13	O	0.974416	1.077554	-0.158507
Zr14	Zr	1.237127	1.002274	0.007481
Zr15	Zr	1.255494	0.955232	-0.203679
Zr16	Zr	0.996079	1.002268	0.007482
Zr17	Zr	1.043342	1.189908	-0.227199
Zr18	Zr	1.208230	0.767593	0.031002
O19	O	1.218566	1.180040	-0.050596
O20	O	1.244681	1.113153	-0.350838
O21	O	0.875827	1.180032	-0.050594
O22	O	1.349630	0.844356	0.154640
O23	O	1.375746	0.777469	-0.145602
O24	O	1.006891	0.844348	0.154641
O25	O	1.398714	0.964009	-0.164298
O26	O	1.180998	1.030892	0.135944
O27	O	1.029860	1.030888	0.135945
O28	O	1.387198	0.993505	-0.031900
O29	O	1.111661	1.260296	-0.365585
O30	O	1.139911	0.697205	0.169388
O31	O	1.331512	0.697210	0.169388
O32	O	1.346111	0.659818	0.001544
O33	O	0.905461	1.297683	-0.197740
O34	O	1.097062	1.297687	-0.197741
O35	O	1.155770	0.901956	0.061119
O36	O	1.277157	0.879947	-0.037689
O37	O	1.200001	1.077559	-0.158508
O38	O	1.078614	1.099569	-0.059701
C39	C	1.089641	0.685199	-0.068677
C40	C	1.077374	0.585571	-0.058691
C41	C	1.132121	0.530235	-0.103255
C42	C	1.119444	0.427264	-0.092936
C43	C	0.824272	0.978743	-0.098097
C44	C	0.721941	0.978740	-0.098097
C45	C	0.802476	0.772428	0.028030
C46	C	0.794667	0.669276	0.091088
C47	C	0.698516	0.669280	0.091085
C48	C	0.610166	0.772450	0.028020
C49	C	0.617974	0.875603	-0.035039
C50	C	0.714133	0.875586	-0.035031
C51	C	0.537440	1.081913	-0.161158
C52	C	0.633591	1.081910	-0.161162
C53	C	0.449090	1.185083	-0.224224
C54	C	0.456898	1.288237	-0.287289
C55	C	0.553058	1.288227	-0.287285
C56	C	0.641400	1.185062	-0.224221
C57	C	1.427300	0.978758	-0.098100
C58	C	1.529631	0.978760	-0.098100
C59	C	1.148760	0.919908	-0.362227
C60	C	1.156558	0.899938	-0.451870
C61	C	1.161931	1.272301	-0.127520
C62	C	1.174198	1.371929	-0.137505
C63	C	1.121760	0.989063	-0.551770
C64	C	1.129818	0.968425	-0.644422
C65	C	1.102812	1.037592	0.166030
C66	C	1.095015	1.057563	0.255673
C67	C	1.391155	0.685207	-0.068678
C68	C	1.481219	0.585581	-0.058693
C69	C	1.066667	0.744042	0.195452
C70	C	1.046603	0.664384	0.295080
C71	C	1.368181	0.744049	0.195451
C72	C	1.450448	0.664394	0.295078
C73	C	0.883391	1.213451	-0.391647
C74	C	0.801125	1.293107	-0.491275
C75	C	0.860417	1.272293	-0.127518
C76	C	0.770353	1.371919	-0.137503
C77	C	1.184905	1.213459	-0.391648
C78	C	1.204970	1.293117	-0.491277
C79	C	1.469125	0.527302	-0.105589
C80	C	1.553743	0.433702	-0.096228
C81	C	1.650455	0.398377	-0.039964
C82	C	1.662548	0.456665	0.006932
C83	C	1.577932	0.550269	-0.002436
C84	C	1.091570	0.638469	0.393452
C85	C	1.072714	0.563637	0.487070
C86	C	1.008896	0.514714	0.482315
C87	C	0.963923	0.540636	0.383932
C88	C	0.982774	0.615473	0.290316
C89	C	1.552454	0.615498	0.290288
C90	C	1.629764	0.540665	0.383890
C91	C	1.605064	0.514722	0.482281
C92	C	1.503048	0.563626	0.487068
C93	C	1.425741	0.638465	0.393467
C94	C	0.699120	1.342014	-0.486486
C95	C	0.621814	1.416876	-0.580090
C96	C	0.646514	1.442824	-0.678482
C97	C	0.748529	1.393914	-0.683269
C98	C	0.825834	1.319059	-0.589666
C99	C	0.782450	1.430206	-0.090617
C100	C	0.697836	1.523827	-0.100004
C101	C	0.601126	1.559155	-0.156271
C102	C	0.589031	1.500863	-0.203163
C103	C	0.673645	1.407249	-0.193782
C104	C	1.268793	1.342017	-0.486487
C105	C	1.287665	1.416853	-0.580089
C106	C	1.242708	1.442795	-0.678480
C107	C	1.178882	1.393886	-0.683267
C108	C	1.160016	1.319044	-0.589665
H109	H	1.021120	0.556711	-0.012897
C110	C	0.747167	1.185049	-0.224206
H111	H	0.798661	1.108836	-0.177608
H112	H	0.758111	1.212759	-0.294158
H113	H	0.749986	1.233530	-0.200814
C114	C	1.250205	0.410893	-0.199371
H115	H	1.282913	0.362817	-0.225985
H116	H	1.214479	0.488408	-0.257006
H117	H	1.300128	0.405469	-0.153277
C118	C	0.504402	0.772455	0.028023
H119	H	0.512405	0.696245	0.074608
H120	H	0.463722	0.820948	0.051395
H121	H	0.471835	0.800160	-0.041939
H122	H	0.692161	0.585285	0.142437
H123	H	1.719346	0.322156	-0.032344
H124	H	0.880772	0.772412	0.028031
H125	H	0.559403	1.372230	-0.338622
C126	C	1.768930	0.417790	0.068828
H127	H	1.817582	0.353687	0.067696
H128	H	1.787875	0.479303	0.036640
H129	H	1.766967	0.396368	0.140353
H130	H	1.543876	0.386253	-0.134418
H131	H	1.142282	1.415019	-0.763390
C132	C	0.343326	1.185089	-0.224231
H133	H	0.351327	1.108879	-0.177653
H134	H	0.302642	1.233577	-0.200856
H135	H	0.310764	1.212800	-0.294197
H136	H	0.663781	1.359793	-0.231961
H137	H	0.384959	1.372230	-0.338628
C138	C	1.178124	0.844695	-0.621526
H139	H	1.177196	0.847055	-0.686801
H140	H	1.246752	0.805348	-0.581829
H141	H	1.140207	0.805356	-0.581835
C142	C	0.938033	1.265253	-0.594946
H143	H	0.941661	1.291423	-0.666952
H144	H	0.977229	1.287421	-0.565772
H145	H	0.964424	1.183714	-0.555387
H146	H	1.339634	1.456669	-0.576171
H147	H	1.390387	0.556059	-0.151417
H148	H	1.342684	0.678267	0.397383
H149	H	0.993555	0.453779	0.558551
C150	C	0.891849	0.555797	0.160451
H151	H	0.950235	0.570561	0.151417
H152	H	0.888585	0.523796	0.233029
H153	H	0.896688	0.503030	0.139682
H154	H	1.587792	0.597710	0.035760
H155	H	1.143534	0.678296	0.397343
C156	C	0.888820	1.391363	-0.028720
H157	H	0.883893	1.439501	-0.002154
H158	H	0.913648	1.313861	0.028950
H159	H	0.934539	1.396790	-0.074781
C160	C	1.046706	1.181294	-0.767226
H161	H	1.047620	1.178937	-0.701951
H162	H	1.084610	1.220640	-0.806923
H163	H	0.978070	1.220632	-0.806917
C164	C	1.122199	0.535126	0.595276
H165	H	1.162919	0.574968	0.584694
H166	H	1.070236	0.558273	0.628748
H167	H	1.163992	0.454541	0.639137
H168	H	1.305406	1.320909	-0.406381
C169	C	1.073451	1.112787	-0.574658
H170	H	1.074365	1.110427	-0.509383
H171	H	1.111353	1.152136	-0.614355
H172	H	1.004815	1.152123	-0.614349
H173	H	1.192318	0.808355	-0.434935
H174	H	0.911962	0.500792	0.380077
H175	H	0.946157	0.636560	0.210222
H176	H	0.678988	1.320892	-0.406378
C177	C	1.579643	0.644025	0.182070
H178	H	1.651471	0.604189	0.192637
H179	H	1.545746	0.620880	0.148603
H180	H	1.558506	0.724611	0.138213
C181	C	1.741969	0.486870	0.378605
H182	H	1.745596	0.513027	0.306601
H183	H	1.781155	0.509058	0.407764
H184	H	1.768370	0.405330	0.418178
H185	H	1.668022	0.453782	0.558489
C186	C	1.263459	1.525129	-0.781434
H187	H	1.307902	1.550542	-0.764481
H188	H	1.294520	1.485972	-0.816472
H189	H	1.200752	1.589689	-0.826855
C190	C	0.509607	1.470654	-0.574804
H191	H	0.505974	1.444458	-0.502796
H192	H	0.483195	1.552189	-0.614358
H193	H	0.470430	1.448466	-0.603982
H194	H	1.188382	0.559087	-0.149043
C195	C	1.475891	0.535070	0.595303
H196	H	1.536546	0.483484	0.650356
H197	H	1.443570	0.603903	0.595980
H198	H	1.430813	0.500175	0.606358
H199	H	0.583557	1.503777	-0.754691
C200	C	0.482648	1.539721	-0.265045
H201	H	0.487552	1.491609	-0.291635
H202	H	0.436942	1.534298	-0.218977
H203	H	0.457824	1.617230	-0.322713
H204	H	1.063185	0.398408	-0.047138
H205	H	0.707703	1.571275	-0.061813
H206	H	1.108042	1.279237	-0.593580
H207	H	0.768629	1.415050	-0.763391
H208	H	0.532236	1.635383	-0.163901
