data_functionalizedCrystal
_audit_creation_method	'MofGen! by Chris Wilmer'
_symmetry_space_group_name_H-M	'P1'
_symmetry_Int_Tables_number	1
_symmetry_cell_setting	triclinic
loop_
_symmetry_equiv_pos_as_xyz
  x,y,z
_cell_length_a	15.624953
_cell_length_b	19.288865
_cell_length_c	18.366186
_cell_angle_alpha	90.011479
_cell_angle_beta	108.076319
_cell_angle_gamma	96.285124
loop_
_atom_site_label
_atom_site_type_symbol
_atom_site_fract_x
_atom_site_fract_y
_atom_site_fract_z
O1	O	1.195844	-0.090649	0.255264
O2	O	1.695844	0.409351	0.755264
O3	O	0.933325	-0.101460	0.185931
O4	O	1.433325	0.398540	0.685931
O5	O	1.072170	0.005051	0.222615
O6	O	1.572170	0.505051	0.722615
O7	O	1.056999	-0.197159	0.218580
O8	O	1.556999	0.302841	0.718580
O9	O	1.072147	0.005056	0.343708
O10	O	1.572147	0.505056	0.843708
O11	O	0.933302	-0.101454	0.307024
O12	O	1.433302	0.398546	0.807024
O13	O	1.195820	-0.090644	0.376357
O14	O	1.695820	0.409356	0.876357
Zn15	Zn	1.064557	-0.096048	0.360917
Zn16	Zn	1.564557	0.403952	0.860917
Zn17	Zn	1.064588	-0.096055	0.201371
Zn18	Zn	1.564588	0.403945	0.701371
O19	O	1.056976	-0.197154	0.339673
O20	O	1.556976	0.302846	0.839673
C21	C	0.899728	-0.100969	0.237607
C22	C	1.399728	0.399031	0.737607
C23	C	0.799654	-0.099505	0.211177
C24	C	1.299654	0.400495	0.711177
C25	C	1.229418	-0.091135	0.324679
C26	C	1.729418	0.408865	0.824679
C27	C	1.329492	-0.092599	0.351104
C28	C	1.829492	0.407401	0.851104
C29	C	1.470536	-0.094660	0.454354
C30	C	1.970536	0.405340	0.954354
C31	C	1.376501	-0.093284	0.429516
C32	C	1.876501	0.406716	0.929516
C33	C	1.376508	-0.093293	0.297500
C34	C	1.876508	0.406707	0.797500
C35	C	1.470544	-0.094672	0.322327
C36	C	1.970544	0.405328	0.822327
C37	C	1.517551	-0.095355	0.400755
C38	C	2.017551	0.404645	0.900755
C39	C	1.517559	-0.095367	0.268728
C40	C	2.017559	0.404633	0.768728
C41	C	1.611588	-0.096742	0.293553
C42	C	2.111588	0.403258	0.793553
C43	C	1.658602	-0.097423	0.371978
C44	C	2.158602	0.402577	0.871978
C45	C	1.611580	-0.096730	0.425580
C46	C	2.111580	0.403270	0.925580
C47	C	1.470551	-0.094679	0.190300
C48	C	1.970551	0.405321	0.690300
C49	C	1.517566	-0.095373	0.136701
C50	C	2.017566	0.404627	0.636701
C51	C	1.611596	-0.096754	0.161526
C52	C	2.111596	0.403246	0.661526
C53	C	1.658610	-0.097435	0.239951
C54	C	2.158610	0.402565	0.739951
C55	C	1.658618	-0.097447	0.107924
C56	C	2.158618	0.402553	0.607924
C57	C	1.752647	-0.098822	0.132749
C58	C	2.252647	0.401178	0.632749
C59	C	1.752639	-0.098810	0.264776
C60	C	2.252639	0.401190	0.764776
C61	C	1.071670	0.030931	0.283035
C62	C	1.571670	0.530931	0.783035
C63	C	1.070205	0.108040	0.282654
C64	C	1.570205	0.608040	0.782654
C65	C	1.057476	-0.223035	0.279251
C66	C	1.557476	0.276965	0.779251
C67	C	1.058941	-0.300143	0.279627
C68	C	1.558941	0.199857	0.779627
N69	N	1.064543	-0.096043	0.469804
N70	N	1.564543	0.403957	0.969804
C71	C	1.151673	0.152463	0.304174
C72	C	1.651673	0.652463	0.804174
C73	C	1.150296	0.224915	0.303799
C74	C	1.650296	0.724915	0.803799
C75	C	1.067447	0.252940	0.281918
C76	C	1.567447	0.752940	0.781918
C77	C	0.985968	0.208506	0.260391
C78	C	1.485968	0.708506	0.760391
C79	C	0.987347	0.136056	0.260759
C80	C	1.487347	0.636056	0.760759
C81	C	1.002310	0.361447	0.307133
C82	C	1.502310	0.861447	0.807133
C83	C	1.000934	0.433896	0.306770
C84	C	1.500934	0.933896	0.806770
C85	C	1.063190	0.476400	0.280777
C86	C	1.563190	0.976400	0.780777
C87	C	1.126837	0.446447	0.255161
C88	C	1.626837	0.946447	0.755161
C89	C	1.128216	0.373997	0.255529
C90	C	1.628216	0.873997	0.755529
C91	C	1.065943	0.331499	0.281515
C92	C	1.565943	0.831499	0.781515
C93	C	1.143171	0.599384	0.301891
C94	C	1.643171	1.099384	0.801891
C95	C	1.141791	0.671837	0.301510
C96	C	1.641791	1.171837	0.801510
C97	C	0.977461	0.655427	0.258108
C98	C	1.477461	1.155427	0.758108
C99	C	0.978843	0.582976	0.258482
C100	C	1.478843	1.082976	0.758482
C101	C	1.061701	0.554959	0.280377
C102	C	1.561701	1.054959	0.780377
N103	N	1.064610	-0.096055	0.092486
N104	N	1.564610	0.403945	0.592486
C105	C	1.126043	-0.048904	0.524154
C106	C	1.626043	0.451096	1.024154
C107	C	1.126049	-0.048901	0.600383
C108	C	1.626049	0.451099	1.100383
C109	C	1.064563	-0.096049	0.622262
C110	C	1.564563	0.403951	1.122262
C111	C	1.003051	-0.143192	0.567900
C112	C	1.503051	0.356808	1.067900
C113	C	1.003041	-0.143189	0.491671
C114	C	1.503041	0.356811	0.991671
C115	C	1.052495	-0.159296	0.739826
C116	C	1.552495	0.340704	1.239826
C117	C	1.052511	-0.159300	0.816055
C118	C	1.552511	0.340700	1.316055
C119	C	1.064589	-0.096058	0.857376
C120	C	1.564589	0.403942	1.357376
C121	C	1.076669	-0.032809	0.822464
C122	C	1.576669	0.467191	1.322464
C123	C	1.076659	-0.032806	0.746235
C124	C	1.576659	0.467194	1.246235
C125	C	1.064567	-0.096057	0.704918
C126	C	1.564567	0.403943	1.204918
C127	C	1.126099	-0.048911	0.994383
C128	C	1.626099	0.451089	1.494383
C129	C	1.126098	-0.048907	1.070612
C130	C	1.626098	0.451093	1.570612
C131	C	1.003104	-0.143204	1.038129
C132	C	1.503104	0.356796	1.538129
C133	C	1.003100	-0.143202	0.961901
C134	C	1.503100	0.356798	1.461901
C135	C	1.064602	-0.096056	0.940033
C136	C	1.564602	0.403944	1.440033
H137	H	1.790913	-0.099377	0.328639
H138	H	2.290913	0.400623	0.828639
C139	C	1.193713	0.002936	0.500105
C140	C	1.693713	0.502936	1.000105
H141	H	1.184914	-0.003822	0.446925
H142	H	1.684914	0.496178	0.946925
H143	H	1.184149	0.049315	0.510075
H144	H	1.684149	0.549315	1.010075
H145	H	1.253838	-0.004721	0.528474
H146	H	1.753838	0.495279	1.028474
H147	H	1.735166	-0.098542	0.392189
H148	H	2.235166	0.401458	0.892189
H149	H	0.912503	0.546804	0.240962
H150	H	1.412503	1.046804	0.740962
C151	C	1.663297	-0.097461	0.511851
C152	C	2.163297	0.402539	1.011851
H153	H	1.621833	-0.096841	0.540221
H154	H	2.121833	0.403159	1.040221
H155	H	1.692954	-0.138461	0.522433
H156	H	2.192954	0.361539	1.022433
H157	H	1.707004	-0.057511	0.526122
H158	H	2.207004	0.442489	1.026122
C159	C	1.242812	0.121649	0.328245
C160	C	1.742812	0.621649	0.828245
H161	H	1.291135	0.158487	0.341001
H162	H	1.791135	0.658487	0.841001
H163	H	1.246762	0.093733	0.371517
H164	H	1.746762	0.593733	0.871517
H165	H	1.246771	0.093722	0.287054
H166	H	1.746771	0.593722	0.787054
H167	H	1.338222	-0.092733	0.233644
H168	H	1.838222	0.407267	0.733644
C169	C	1.522253	-0.095390	0.540625
C170	C	2.022253	0.404610	1.040625
H171	H	1.480789	-0.094771	0.568995
H172	H	1.980789	0.405229	1.068995
H173	H	1.551910	-0.136391	0.551207
H174	H	2.051910	0.363609	1.051207
H175	H	1.565960	-0.055441	0.554896
H176	H	2.065960	0.444559	1.054896
C177	C	0.935400	-0.195042	0.591956
C178	C	1.435400	0.304958	1.091956
H179	H	0.898759	-0.223110	0.548663
H180	H	1.398759	0.276890	1.048663
H181	H	0.967693	-0.224009	0.630213
H182	H	1.467693	0.275991	1.130213
H183	H	0.897987	-0.169986	0.611818
H184	H	1.397987	0.330014	1.111818
H185	H	0.921004	0.099886	0.243235
H186	H	1.421004	0.599886	0.743235
C187	C	1.193704	0.002953	0.660178
C188	C	1.693704	0.502953	1.160178
H189	H	1.230332	0.031029	0.636237
H190	H	1.730332	0.531029	1.136237
H191	H	1.161402	0.031912	0.681399
H192	H	1.661402	0.531912	1.181399
H193	H	1.231129	-0.022095	0.699781
H194	H	1.731129	0.477905	1.199781
H195	H	1.338222	-0.092735	0.473168
H196	H	1.838222	0.407265	0.973168
H197	H	0.949105	0.458277	0.327623
H198	H	1.449105	0.958277	0.827623
H199	H	1.790927	-0.099391	0.089103
H200	H	2.290927	0.400609	0.589103
H201	H	0.910003	0.678243	0.240288
H202	H	1.410003	1.178243	0.740288
H203	H	1.216639	0.261092	0.321321
H204	H	1.716639	0.761092	0.821321
C205	C	0.933823	0.314699	0.335725
C206	C	1.433823	0.814699	0.835725
H207	H	0.895730	0.342914	0.350938
H208	H	1.395730	0.842914	0.850938
H209	H	0.897965	0.282794	0.295671
H210	H	1.397965	0.782794	0.795671
H211	H	0.965528	0.289558	0.378219
H212	H	1.465528	0.789558	0.878219
C213	C	1.195318	0.493190	0.226562
C214	C	1.695318	0.993190	0.726562
H215	H	1.185376	0.540628	0.230000
H216	H	1.685376	1.040628	0.730000
H217	H	1.255189	0.487280	0.257289
H218	H	1.755189	0.987280	0.757289
H219	H	1.187622	0.480508	0.174743
H220	H	1.687622	0.980508	0.674743
H221	H	1.208135	0.708007	0.319031
H222	H	1.708135	1.208007	0.819031
C223	C	1.465856	-0.094636	0.050435
C224	C	1.965856	0.405364	0.550435
H225	H	1.507326	-0.095247	0.022069
H226	H	2.007326	0.404753	0.522069
H227	H	1.422139	-0.134574	0.036154
H228	H	1.922139	0.365426	0.536154
H229	H	1.436213	-0.053624	0.039859
H230	H	1.936213	0.446376	0.539859
C231	C	1.606907	-0.096701	0.021658
C232	C	2.106907	0.403299	0.521658
H233	H	1.648376	-0.097310	-0.006709
H234	H	2.148376	0.402690	0.493291
H235	H	1.563186	-0.136637	0.007372
H236	H	2.063186	0.363363	0.507372
H237	H	1.577268	-0.055687	0.011089
H238	H	2.077268	0.444313	0.511089
C239	C	1.367123	-0.093154	0.162989
C240	C	1.867123	0.406846	0.662989
H241	H	1.345864	-0.092834	0.108605
H242	H	1.845864	0.407166	0.608605
H243	H	1.338799	-0.133311	0.179883
H244	H	1.838799	0.366689	0.679883
H245	H	1.352903	-0.052361	0.183621
H246	H	1.852903	0.447639	0.683621
C247	C	1.198213	0.341049	0.227344
C248	C	1.698213	0.841049	0.727344
H249	H	1.235092	0.376734	0.211804
H250	H	1.735092	0.876734	0.711804
H251	H	1.235146	0.316425	0.267684
H252	H	1.735146	0.816425	0.767684
H253	H	1.167577	0.309669	0.185138
H254	H	1.667577	0.809669	0.685138
H255	H	1.210639	0.576572	0.319716
H256	H	1.710639	1.076572	0.819716
H257	H	0.918512	0.231329	0.242573
H258	H	1.418512	0.731329	0.742573
H259	H	1.086493	0.018694	0.717812
H260	H	1.586493	0.518694	1.217812
C261	C	1.089948	0.036762	0.867904
C262	C	1.589948	0.536762	1.367904
H263	H	1.088212	0.027705	0.918300
H264	H	1.588212	0.527705	1.418300
H265	H	1.146903	0.061456	0.870452
H266	H	1.646903	0.561456	1.370452
H267	H	1.042905	0.064041	0.843000
H268	H	1.542905	0.564041	1.343000
H269	H	1.176176	-0.010517	1.114866
H270	H	1.676176	0.489483	1.614866
H271	H	1.176175	-0.010520	0.976578
H272	H	1.676175	0.489480	1.476578
H273	H	0.953037	-0.181591	1.055941
H274	H	1.453037	0.318409	1.555941
C275	C	0.935467	-0.195068	0.902115
C276	C	1.435467	0.304932	1.402115
H277	H	0.944266	-0.188313	0.853582
H278	H	1.444266	0.311687	1.353582
H279	H	0.945075	-0.241436	0.917134
H280	H	1.445075	0.258564	1.417134
H281	H	0.875329	-0.187444	0.898735
H282	H	1.375329	0.312556	1.398735
C283	C	1.039229	-0.228870	0.854454
C284	C	1.539229	0.271130	1.354454
H285	H	1.032020	-0.266534	0.818925
H286	H	1.532020	0.233466	1.318925
H287	H	1.090728	-0.232799	0.897776
H288	H	1.590728	0.267201	1.397776
H289	H	0.986732	-0.230201	0.870338
H290	H	1.486732	0.269799	1.370338
H291	H	1.042644	-0.210799	0.706184
H292	H	1.542644	0.289201	1.206184
H293	H	0.952959	-0.181576	0.447417
H294	H	1.452959	0.318424	0.947417
