data_functionalizedCrystal
_audit_creation_method	'MofGen! by Chris Wilmer'
_symmetry_space_group_name_H-M	'P1'
_symmetry_Int_Tables_number	1
_symmetry_cell_setting	triclinic
loop_
_symmetry_equiv_pos_as_xyz
  x,y,z
_cell_length_a	14.044190
_cell_length_b	10.868271
_cell_length_c	11.792241
_cell_angle_alpha	90.000107
_cell_angle_beta	91.307403
_cell_angle_gamma	89.990065
loop_
_atom_site_label
_atom_site_type_symbol
_atom_site_fract_x
_atom_site_fract_y
_atom_site_fract_z
O1	O	0.129987	-0.102217	-1.519115
O2	O	0.143384	-0.102247	-1.190032
O3	O	-0.001325	-0.102208	-1.349630
O4	O	0.274696	-0.102256	-1.359517
O5	O	-0.001331	0.102436	-1.349615
O6	O	0.143378	0.102398	-1.190017
O7	O	0.129981	0.102428	-1.519100
Zn8	Zn	0.136679	0.134904	-1.354556
Zn9	Zn	0.136686	-0.134724	-1.354576
O10	O	0.274690	0.102389	-1.359502
C11	C	0.142539	0.000072	-1.147655
C12	C	0.140021	0.000061	-1.021404
C13	C	-0.036664	0.000117	-1.345297
C14	C	-0.141957	0.000127	-1.332395
N15	N	0.136673	0.318919	-1.354551
C16	C	-0.391894	0.000085	-1.400312
C17	C	-0.334735	0.000085	-1.308825
C18	C	-0.227463	0.000108	-1.321943
C19	C	-0.499176	0.000062	-1.387197
C20	C	0.310029	0.000061	-1.363835
C21	C	0.415322	0.000043	-1.376737
N22	N	0.136684	-0.318738	-1.354589
C23	C	0.136684	0.569925	-1.354570
C24	C	0.136681	0.430247	-1.354556
C25	C	0.130826	0.000106	-1.561478
C26	C	0.133344	0.000109	-1.687728
C27	C	0.135389	0.000097	-0.790257
C28	C	0.137962	0.000078	-0.918884
H29	H	-0.360267	0.000106	-1.488481
O30	O	-0.372570	-0.000091	-1.203687
C31	C	-0.429126	-0.106104	-1.190651
H32	H	-0.453176	-0.141443	-1.277702
H33	H	-0.494213	-0.082278	-1.138953
H34	H	-0.385725	-0.180313	-1.144756
