data_functionalizedCrystal
_audit_creation_method	'MofGen! by Chris Wilmer'
_symmetry_space_group_name_H-M	'P1'
_symmetry_Int_Tables_number	1
_symmetry_cell_setting	triclinic
loop_
_symmetry_equiv_pos_as_xyz
  x,y,z
_cell_length_a	10.967926
_cell_length_b	14.853559
_cell_length_c	10.065875
_cell_angle_alpha	98.803502
_cell_angle_beta	93.120479
_cell_angle_gamma	84.182888
loop_
_atom_site_label
_atom_site_type_symbol
_atom_site_fract_x
_atom_site_fract_y
_atom_site_fract_z
O1	O	1.613145	0.157222	0.265917
O2	O	1.263105	0.159797	0.183587
O3	O	1.447480	0.027585	0.226954
O4	O	1.428770	0.289433	0.222551
O5	O	1.412322	0.052902	0.445673
O6	O	1.227947	0.185113	0.402307
O7	O	1.577987	0.182539	0.484637
Zn8	Zn	1.397385	0.187846	0.478198
Zn9	Zn	1.443707	0.154490	0.190026
O10	O	1.393612	0.314750	0.441270
C11	C	1.200729	0.170355	0.282411
C12	C	1.067249	0.164086	0.251016
C13	C	0.989526	0.174406	0.350322
C14	C	0.851567	0.167927	0.317876
C15	C	1.429056	0.006627	0.336112
C16	C	1.426522	-0.093541	0.335509
C17	C	1.434932	-0.530868	0.213755
C18	C	1.396601	-0.503261	0.452211
C19	C	1.398993	-0.409150	0.452775
C20	C	1.419352	-0.375893	0.333827
C21	C	1.437320	-0.436748	0.214314
C22	C	1.381013	-0.348287	0.572282
C23	C	1.383403	-0.254169	0.572851
C24	C	1.403771	-0.220912	0.453903
C25	C	1.421741	-0.281773	0.334386
C26	C	1.442101	-0.248516	0.215437
C27	C	1.460080	-0.309377	0.095921
C28	C	1.457689	-0.403490	0.095366
C29	C	1.406162	-0.126798	0.454457
C30	C	1.444490	-0.154396	0.215997
C31	C	1.640363	0.171980	0.385810
C32	C	1.773845	0.178248	0.417197
C33	C	1.412037	0.335708	0.332109
C34	C	1.414572	0.435875	0.332704
N35	N	1.365781	0.210610	0.674870
N36	N	1.475321	0.131719	-0.006644
C37	C	1.432703	0.162404	0.758390
C38	C	1.408389	0.179931	0.909838
H39	H	1.031655	0.150451	0.141976
C40	C	1.534420	0.089119	0.703532
H41	H	1.537423	0.086956	0.608939
H42	H	1.517449	0.031131	0.722897
H43	H	1.611155	0.104069	0.744909
H44	H	1.391497	-0.077248	0.551759
H45	H	0.815979	0.154292	0.208829
H46	H	1.333084	0.234179	0.950446
H47	H	1.290480	0.264854	0.715485
H48	H	1.025121	0.188032	0.459362
C49	C	1.454702	-0.597807	0.082297
H50	H	1.450358	-0.658622	0.098991
H51	H	1.533026	-0.592570	0.049875
H52	H	1.392895	-0.583532	0.016925
H53	H	0.809432	0.191878	0.526245
C54	C	1.466885	-0.117821	0.085150
H55	H	1.477240	-0.167546	0.013896
H56	H	1.538670	-0.086196	0.096889
H57	H	1.398540	-0.077165	0.063929
H58	H	1.550617	0.077465	0.952746
C59	C	1.482473	-0.272792	-0.034918
H60	H	1.492832	-0.322511	-0.106180
H61	H	1.554256	-0.241164	-0.023171
H62	H	1.414126	-0.232135	-0.056131
H63	H	1.472325	-0.453050	-0.001937
C64	C	1.363632	-0.187228	0.704307
H65	H	1.367963	-0.126413	0.687607
H66	H	1.425422	-0.201503	0.769686
H67	H	1.285294	-0.192460	0.736716
H68	H	1.364431	-0.375372	0.669122
C69	C	1.374212	-0.539843	0.583044
H70	H	1.375370	-0.604611	0.565596
H71	H	1.296673	-0.514227	0.615657
H72	H	1.436805	-0.523272	0.648597
