data_functionalizedCrystal
_audit_creation_method	'MofGen! by Chris Wilmer'
_symmetry_space_group_name_H-M	'P1'
_symmetry_Int_Tables_number	1
_symmetry_cell_setting	triclinic
loop_
_symmetry_equiv_pos_as_xyz
  x,y,z
_cell_length_a	6.817900
_cell_length_b	17.110477
_cell_length_c	19.453114
_cell_angle_alpha	96.689185
_cell_angle_beta	101.709288
_cell_angle_gamma	99.060298
loop_
_atom_site_label
_atom_site_type_symbol
_atom_site_fract_x
_atom_site_fract_y
_atom_site_fract_z
V1	V	-3.984650	-0.110306	-0.218908
O2	O	-3.995637	0.004453	-0.214834
O3	O	-3.914651	-0.217903	-0.217321
O4	O	-3.927831	-0.108981	-0.314422
O5	O	-3.982365	-0.105223	-0.117061
V6	V	-4.472168	-0.096536	-0.206737
O7	O	-4.237146	-0.140513	-0.245605
O8	O	-4.669869	-0.066329	-0.180039
O9	O	-4.318961	0.011061	-0.208324
O10	O	-4.578579	-0.211295	-0.210811
O11	O	-4.591850	-0.101619	-0.308584
O12	O	-4.305780	-0.097860	-0.111223
C13	C	-3.754669	-0.244121	-0.213844
C14	C	-3.778667	-0.332086	-0.213184
C15	C	-3.970917	-0.377455	-0.216373
C16	C	-3.993456	-0.460108	-0.215757
C17	C	-3.823740	-0.497388	-0.211945
C18	C	-3.631476	-0.452013	-0.208757
C19	C	-3.608942	-0.369363	-0.209379
C20	C	-3.882726	-0.746736	-0.209897
C21	C	-3.905274	-0.829392	-0.209274
C22	C	-4.267253	-0.837481	-0.216275
C23	C	-4.244700	-0.754828	-0.216892
C24	C	-4.052441	-0.709461	-0.213708
C25	C	-3.846773	-0.581872	-0.211313
C26	C	-4.029414	-0.624980	-0.214345
C27	C	-3.771482	-0.105180	-0.337705
C28	C	-3.806167	-0.104809	-0.415788
C29	C	-4.003446	-0.108606	-0.456042
C30	C	-4.036037	-0.108258	-0.529409
C31	C	-3.871342	-0.104127	-0.562521
C32	C	-3.674032	-0.100325	-0.522257
C33	C	-3.641445	-0.100665	-0.448891
N34	N	-3.803209	-0.145916	-0.681276
N35	N	-3.834179	-0.145594	-0.750972
C36	C	-3.969514	-0.103099	-0.783571
N37	N	-4.072744	-0.060947	-0.743843
N38	N	-4.041778	-0.061273	-0.674141
C39	C	-3.906657	-0.103757	-0.642075
C40	C	-4.202144	-0.106517	-0.903378
C41	C	-4.234726	-0.106163	-0.976745
C42	C	-3.872719	-0.098239	-0.969593
C43	C	-3.840140	-0.098584	-0.896226
C44	C	-4.004862	-0.102728	-0.863123
C45	C	-4.142284	0.037275	-0.211798
C46	C	-4.097523	0.125239	-0.212464
C47	C	-4.125472	-0.101665	-0.087936
C48	C	-4.070026	-0.102032	-0.009852
H49	H	-3.493295	-0.482374	-0.205658
N50	N	-4.200803	-0.509090	-0.219267
H51	H	-4.196505	-0.535758	-0.175456
H52	H	-4.239715	-0.551334	-0.262952
H53	H	-3.480792	-0.097567	-0.416115
H54	H	-4.336270	-0.109888	-0.876424
N55	N	-3.496405	-0.095893	-0.557972
H56	H	-3.366479	-0.093544	-0.521336
H57	H	-3.485225	-0.046278	-0.581487
H58	H	-4.395377	-0.109250	-1.009518
N59	N	-4.153971	-0.337248	-0.220491
H60	H	-4.130889	-0.295287	-0.177169
H61	H	-4.279094	-0.378586	-0.222445
N62	N	-4.427764	-0.714624	-0.221029
H63	H	-4.552982	-0.755910	-0.222966
H64	H	-4.448064	-0.688371	-0.265185
N65	N	-3.627351	-0.094501	-0.852813
H66	H	-3.622558	-0.143772	-0.828991
H67	H	-3.589082	-0.045129	-0.815474
H68	H	-3.452396	-0.332425	-0.206785
H69	H	-4.167595	-0.594623	-0.217452
H70	H	-4.423784	-0.874427	-0.218867
N71	N	-3.663722	-0.622083	-0.207180
H72	H	-3.686800	-0.664050	-0.250497
H73	H	-3.643339	-0.648291	-0.162999
N74	N	-3.722215	-0.869604	-0.205160
H75	H	-3.596999	-0.828323	-0.203238
H76	H	-3.745507	-0.911573	-0.248486
N77	N	-3.695069	-0.093775	-1.005295
H78	H	-3.745645	-0.094132	-1.057881
H79	H	-3.627126	-0.141411	-0.997689
H80	H	-4.196692	-0.111354	-0.562191
N81	N	-4.181099	-0.113068	-0.420337
H82	H	-4.311023	-0.115418	-0.456975
H83	H	-4.158666	-0.064072	-0.383277
H84	H	-3.726178	-0.709807	-0.207300
