data_functionalizedCrystal
_audit_creation_method	'MofGen! by Chris Wilmer'
_symmetry_space_group_name_H-M	'P1'
_symmetry_Int_Tables_number	1
_symmetry_cell_setting	triclinic
loop_
_symmetry_equiv_pos_as_xyz
  x,y,z
_cell_length_a	16.109301
_cell_length_b	15.944551
_cell_length_c	15.186229
_cell_angle_alpha	89.995303
_cell_angle_beta	89.999362
_cell_angle_gamma	83.480109
loop_
_atom_site_label
_atom_site_type_symbol
_atom_site_fract_x
_atom_site_fract_y
_atom_site_fract_z
O1	O	1.103166	0.107966	-0.073175
O2	O	0.861108	0.121402	-0.073189
O3	O	0.988747	-0.007593	-0.073174
O4	O	0.975527	0.236961	-0.073190
O5	O	0.988738	-0.007594	0.073284
O6	O	0.861099	0.121401	0.073268
O7	O	1.103157	0.107964	0.073282
Zn8	Zn	0.982127	0.114682	0.096529
Zn9	Zn	0.982138	0.114685	-0.096435
O10	O	0.975518	0.236960	0.073267
C11	C	0.830129	0.120857	0.000038
C12	C	0.737833	0.119226	0.000033
C13	C	0.515584	0.191975	0.000038
C14	C	0.428863	0.190435	0.000044
C15	C	0.448688	0.037387	0.000050
C16	C	0.535407	0.038927	0.000051
C17	C	0.568853	0.116224	0.000040
C18	C	0.395412	0.113143	0.000045
C19	C	0.301386	0.111473	0.000052
C20	C	0.662885	0.117894	0.000036
C21	C	0.988194	-0.038887	0.000055
C22	C	0.986548	-0.132133	0.000056
C23	C	0.903499	-0.346962	0.000039
C24	C	0.942060	-0.407993	0.072253
C25	C	0.983572	-0.302858	0.000049
C26	C	0.942087	-0.407975	-0.072142
C27	C	0.980691	-0.467769	0.000038
C28	C	1.022155	-0.362660	0.072323
C29	C	1.022171	-0.362636	-0.072137
C30	C	1.060790	-0.423649	0.000095
C31	C	0.985229	-0.207856	0.000055
C32	C	0.979039	-0.562770	0.000038
C33	C	1.134136	0.108510	0.000054
C34	C	1.226432	0.110141	0.000053
C35	C	0.976071	0.268254	0.000036
C36	C	0.977717	0.361500	0.000030
N37	N	0.982125	0.114680	0.228221
N38	N	0.982146	0.114680	-0.228128
C39	C	1.038663	0.057580	0.453951
C40	C	1.038666	0.057578	0.546141
C41	C	0.925603	0.171783	0.546136
C42	C	0.925597	0.171780	0.453948
C43	C	0.982132	0.114680	0.407858
C44	C	0.982140	0.114680	0.592236
C45	C	0.982143	0.114679	0.692192
C46	C	0.982128	0.114680	0.307895
H47	H	0.837035	-0.313632	0.000107
H48	H	0.421446	-0.025546	0.000064
H49	H	0.578781	-0.022762	0.000055
H50	H	0.542812	0.254914	0.000036
C51	C	0.896307	-0.435150	0.154720
H52	H	0.840431	-0.408630	0.154631
H53	H	0.924211	-0.418876	0.206000
H54	H	0.896036	-0.494699	0.154394
H55	H	1.055990	-0.342682	0.133442
C56	C	1.150650	-0.468483	0.000154
H57	H	1.178953	-0.452980	0.051498
H58	H	1.179308	-0.452268	-0.050654
H59	H	1.149123	-0.527868	-0.000325
H60	H	1.056013	-0.342516	-0.133188
C61	C	0.896328	-0.435091	-0.154617
H62	H	0.840458	-0.408556	-0.154526
H63	H	0.896052	-0.494635	-0.154316
H64	H	0.924234	-0.418791	-0.205894
C65	C	1.100841	-0.005234	0.403254
H66	H	1.134503	-0.039246	0.443913
H67	H	1.135449	0.024986	0.367284
H68	H	1.070923	-0.040212	0.367302
C69	C	1.100854	-0.005228	0.596839
H70	H	1.134524	-0.039228	0.556184
H71	H	1.070952	-0.040204	0.632808
H72	H	1.135465	0.025006	0.632795
H73	H	0.879574	0.218274	0.583672
H74	H	0.879558	0.218278	0.416417
C75	C	0.370268	0.273759	0.000037
H76	H	0.313830	0.261774	0.000047
H77	H	0.380406	0.305454	-0.051038
H78	H	0.380409	0.305451	0.051114
