data_functionalizedCrystal
_audit_creation_method	'MofGen! by Chris Wilmer'
_symmetry_space_group_name_H-M	'P1'
_symmetry_Int_Tables_number	1
_symmetry_cell_setting	triclinic
loop_
_symmetry_equiv_pos_as_xyz
  x,y,z
_cell_length_a	17.699077
_cell_length_b	15.995292
_cell_length_c	16.176319
_cell_angle_alpha	89.996390
_cell_angle_beta	89.993140
_cell_angle_gamma	83.374596
loop_
_atom_site_label
_atom_site_type_symbol
_atom_site_fract_x
_atom_site_fract_y
_atom_site_fract_z
O1	O	1.004238	0.105864	-0.068730
O2	O	1.504238	0.605864	0.431270
O3	O	0.783879	0.119646	-0.068733
O4	O	1.283879	0.619646	0.431267
O5	O	0.900105	-0.009148	-0.068733
O6	O	1.400105	0.490852	0.431267
O7	O	0.888012	0.234659	-0.068730
O8	O	1.388012	0.734659	0.431270
O9	O	0.900089	-0.009156	0.068761
O10	O	1.400089	0.490844	0.568761
O11	O	0.783863	0.119638	0.068760
O12	O	1.283863	0.619638	0.568760
O13	O	1.004222	0.105856	0.068763
O14	O	1.504222	0.605856	0.568763
Cu15	Cu	0.894041	0.112746	0.081316
Cu16	Cu	1.394041	0.612746	0.581316
Cu17	Cu	0.894060	0.112756	-0.081286
Cu18	Cu	1.394060	0.612756	0.418714
O19	O	0.887996	0.234650	0.068763
O20	O	1.387996	0.734650	0.568763
C21	C	0.755673	0.119149	0.000013
C22	C	1.255673	0.619149	0.500013
C23	C	0.671653	0.117670	0.000012
C24	C	1.171653	0.617670	0.500012
C25	C	0.632176	0.116969	0.074960
C26	C	1.132176	0.616969	0.574960
C27	C	0.553231	0.115566	0.074961
C28	C	1.053231	0.615566	0.574961
C29	C	0.513764	0.114870	0.000012
C30	C	1.013764	0.614870	0.500012
C31	C	0.553247	0.115569	-0.074942
C32	C	1.053247	0.615569	0.425058
C33	C	0.632191	0.116966	-0.074942
C34	C	1.132191	0.616966	0.425058
C35	C	0.234876	0.109934	-0.074943
C36	C	0.734876	0.609934	0.425057
C37	C	0.155926	0.108540	-0.074938
C38	C	0.655926	0.608540	0.425062
C39	C	0.155915	0.108534	0.074959
C40	C	0.655915	0.608534	0.574959
C41	C	0.234859	0.109931	0.074959
C42	C	0.734859	0.609931	0.574959
C43	C	0.274336	0.110625	0.000006
C44	C	0.774336	0.610625	0.500006
C45	C	0.359937	0.112145	0.000005
C46	C	0.859937	0.612145	0.500005
C47	C	0.428164	0.113356	0.000012
C48	C	0.928164	0.613356	0.500012
C49	C	0.899605	-0.040347	0.000012
C50	C	1.399605	0.459653	0.500012
C51	C	0.898129	-0.133297	0.000006
C52	C	1.398129	0.366703	0.500006
C53	C	0.892704	-0.471024	0.000013
C54	C	1.392704	0.028976	0.500013
C55	C	0.976593	-0.447884	0.000322
C56	C	1.476593	0.052116	0.500322
C57	C	0.978188	-0.351212	0.000009
C58	C	1.478188	0.148788	0.500009
C59	C	0.895396	-0.303474	0.000010
C60	C	1.395396	0.196526	0.500010
C61	C	0.853465	-0.332484	-0.078503
C62	C	1.353465	0.167516	0.421497
C63	C	0.852455	-0.429272	-0.078566
C64	C	1.352455	0.070728	0.421434
C65	C	0.850724	-0.429135	0.077789
C66	C	1.350724	0.070865	0.577789
C67	C	0.853832	-0.332649	0.078824
C68	C	1.353832	0.167351	0.578824
C69	C	0.896913	-0.208781	0.000005
C70	C	1.396913	0.291219	0.500005
C71	C	0.891185	-0.565717	0.000012
C72	C	1.391185	-0.065717	0.500012
C73	C	1.032427	0.106353	0.000016
C74	C	1.532427	0.606353	0.500016
C75	C	1.116448	0.107832	0.000012
C76	C	1.616448	0.607832	0.500012
C77	C	0.888496	0.265849	0.000017
C78	C	1.388496	0.765849	0.500017
C79	C	0.889972	0.358799	0.000017
C80	C	1.389972	0.858799	0.500017
N81	N	0.894033	0.112739	0.195681
N82	N	1.394033	0.612739	0.695681
N83	N	0.894074	0.112757	-0.195651
N84	N	1.394074	0.612757	0.304349
C85	C	0.945513	0.055732	0.238946
C86	C	1.445513	0.555732	0.738946
C87	C	0.945517	0.055731	0.325493
C88	C	1.445517	0.555731	0.825493
C89	C	0.894044	0.112742	0.368774
C90	C	1.394044	0.612742	0.868774
C91	C	0.842558	0.169751	0.325503
C92	C	1.342558	0.669751	0.825503
C93	C	0.842551	0.169748	0.238958
C94	C	1.342551	0.669748	0.738958
C95	C	0.842584	0.169767	0.674532
C96	C	1.342584	0.669767	1.174532
C97	C	0.842596	0.169768	0.761083
C98	C	1.342596	0.669768	1.261083
C99	C	0.945550	0.055751	0.761066
C100	C	1.445550	0.555751	1.261066
C101	C	0.945543	0.055747	0.674521
C102	C	1.445543	0.555747	1.174521
C103	C	0.894055	0.112753	0.631258
C104	C	1.394055	0.612753	1.131258
C105	C	0.894051	0.112752	0.537414
C106	C	1.394051	0.612752	1.037414
C107	C	0.894051	0.112747	0.462616
C108	C	1.394051	0.612747	0.962616
H109	H	0.664332	0.117539	-0.135973
H110	H	1.164332	0.617539	0.364027
F111	F	1.018851	-0.484569	0.073918
F112	F	1.518851	0.015431	0.573918
F113	F	0.885021	-0.466195	0.155573
F114	F	1.385021	0.033805	0.655573
H115	H	0.987436	0.009312	0.360718
H116	H	1.487436	0.509312	0.860718
F117	F	1.021096	-0.326433	0.073582
F118	F	1.521096	0.173567	0.573582
H119	H	0.884365	-0.314150	0.136908
H120	H	1.384365	0.185850	0.636908
F121	F	0.787789	0.230438	0.628495
F122	F	1.287789	0.730438	1.128495
H123	H	0.664303	0.117542	0.135992
H124	H	1.164303	0.617542	0.635992
F125	F	1.021380	-0.327236	-0.073684
F126	F	1.521380	0.172764	0.426316
H127	H	0.793402	-0.299555	0.083566
H128	H	1.293402	0.200445	0.583566
F129	F	1.018633	-0.485893	-0.072859
F130	F	1.518633	0.014107	0.427141
H131	H	0.123794	0.107972	-0.135973
H132	H	0.623794	0.607972	0.364027
F133	F	0.772063	-0.448128	-0.083227
F134	F	1.272063	0.051872	0.416773
F135	F	0.890434	-0.464400	-0.155277
F136	F	1.390434	0.035600	0.344723
H137	H	0.267008	0.110497	-0.135975
H138	H	0.767008	0.610497	0.364025
H139	H	0.788975	-0.442998	0.078319
H140	H	1.288975	0.057002	0.578319
F141	F	0.773835	-0.290664	-0.082323
F142	F	1.273835	0.209336	0.417677
H143	H	0.882596	-0.312480	-0.136933
H144	H	1.382596	0.187520	0.363067
F145	F	1.000303	-0.004944	0.192891
F146	F	1.500303	0.495056	0.692891
H147	H	0.987472	0.009330	0.796300
H148	H	1.487472	0.509330	1.296300
F149	F	0.511219	0.114831	0.154731
F150	F	1.011219	0.614831	0.654731
H151	H	0.987460	0.009327	0.639284
H152	H	1.487460	0.509327	1.139284
H153	H	0.521108	0.114997	-0.135966
H154	H	1.021108	0.614997	0.364034
F155	F	0.787808	0.230449	0.807145
F156	F	1.287808	0.730449	1.307145
H157	H	0.800630	0.216167	0.203733
H158	H	1.300630	0.716167	0.703733
F159	F	0.276858	0.110676	0.154729
F160	F	0.776858	0.610676	0.654729
F161	F	0.113896	0.107791	0.154733
F162	F	0.613896	0.607791	0.654733
H163	H	0.800643	0.216168	0.360748
H164	H	1.300643	0.716168	0.860748
