data_functionalizedCrystal
_audit_creation_method	'MofGen! by Chris Wilmer'
_symmetry_space_group_name_H-M	'P1'
_symmetry_Int_Tables_number	1
_symmetry_cell_setting	triclinic
loop_
_symmetry_equiv_pos_as_xyz
  x,y,z
_cell_length_a	17.038272
_cell_length_b	14.519731
_cell_length_c	13.596369
_cell_angle_alpha	89.993029
_cell_angle_beta	90.000447
_cell_angle_gamma	87.400205
loop_
_atom_site_label
_atom_site_type_symbol
_atom_site_fract_x
_atom_site_fract_y
_atom_site_fract_z
O1	O	1.037705	0.200288	-0.081672
O2	O	1.371038	0.533621	0.251661
O3	O	1.704372	0.866954	0.584994
O4	O	0.810069	0.197107	-0.081701
O5	O	1.143402	0.530441	0.251632
O6	O	1.476736	0.863774	0.584965
O7	O	0.929914	0.064921	-0.081677
O8	O	1.263247	0.398255	0.251656
O9	O	1.596581	0.731588	0.584990
O10	O	0.917860	0.332473	-0.081697
O11	O	1.251194	0.665807	0.251637
O12	O	1.584527	0.999140	0.584970
O13	O	0.929902	0.064913	0.081906
O14	O	1.263235	0.398246	0.415239
O15	O	1.596569	0.731580	0.748572
O16	O	0.810057	0.197099	0.081882
O17	O	1.143390	0.530432	0.415215
O18	O	1.476724	0.863766	0.748548
O19	O	1.037693	0.200279	0.081911
O20	O	1.371027	0.533613	0.415244
O21	O	1.704360	0.866946	0.748577
Zn22	Zn	0.923873	0.198688	0.107868
Zn23	Zn	1.257207	0.532021	0.441202
Zn24	Zn	1.590540	0.865354	0.774535
Zn25	Zn	0.923889	0.198699	-0.107659
Zn26	Zn	1.257222	0.532032	0.225674
Zn27	Zn	1.590556	0.865365	0.559008
O28	O	0.917848	0.332465	0.081886
O29	O	1.251182	0.665798	0.415220
O30	O	1.584515	0.999132	0.748553
C31	C	0.780930	0.194211	0.000087
C32	C	1.114263	0.527544	0.333420
C33	C	1.447597	0.860877	0.666753
C34	C	0.694122	0.185581	0.000076
C35	C	1.027456	0.518914	0.333409
C36	C	1.360789	0.852247	0.666743
C37	C	0.929343	0.030515	0.000115
C38	C	1.262676	0.363848	0.333448
C39	C	1.596010	0.697181	0.666781
C40	C	0.927651	-0.071995	0.000115
C41	C	1.260984	0.261338	0.333448
C42	C	1.594317	0.594672	0.666782
C43	C	0.926276	-0.155245	0.000112
C44	C	1.259609	0.178089	0.333446
C45	C	1.592942	0.511422	0.666779
C46	C	0.924557	-0.259685	0.000105
C47	C	1.257891	0.073649	0.333438
C48	C	1.591224	0.406982	0.666771
C49	C	0.923193	-0.342928	0.000098
C50	C	1.256527	-0.009595	0.333432
C51	C	1.589860	0.323739	0.666765
C52	C	0.921475	-0.447375	0.000092
C53	C	1.254809	-0.114042	0.333426
C54	C	1.588142	0.219292	0.666759
C55	C	0.644142	0.264813	0.000071
C56	C	0.977475	0.598146	0.333404
C57	C	1.310809	0.931480	0.666738
C58	C	0.562578	0.256699	0.000085
C59	C	0.895911	0.590032	0.333418
C60	C	1.229244	0.923365	0.666752
C61	C	0.530996	0.169352	0.000097
C62	C	0.864329	0.502685	0.333431
C63	C	1.197662	0.836018	0.666764
C64	C	0.580983	0.090113	0.000105
C65	C	0.914316	0.423447	0.333438
C66	C	1.247649	0.756780	0.666772
C67	C	0.662545	0.098228	0.000098
C68	C	0.995879	0.431562	0.333431
C69	C	1.329212	0.764895	0.666765
C70	C	0.285189	0.140683	0.000126
C71	C	0.618523	0.474016	0.333459
C72	C	0.951856	0.807349	0.666792
C73	C	0.203620	0.132573	0.000130
C74	C	0.536954	0.465907	0.333463
C75	C	0.870287	0.799240	0.666796
C76	C	0.185221	0.299160	0.000112
C77	C	0.518554	0.632493	0.333445
C78	C	0.851888	0.965827	0.666778
C79	C	0.266786	0.307267	0.000099
C80	C	0.600119	0.640601	0.333432
C81	C	0.933453	0.973934	0.666765
C82	C	0.316766	0.228029	0.000112
C83	C	0.650099	0.561362	0.333445
C84	C	0.983432	0.894696	0.666778
C85	C	0.447624	0.161055	0.000109
C86	C	0.780957	0.494389	0.333442
C87	C	1.114291	0.827722	0.666775
C88	C	0.400136	0.236326	0.000107
C89	C	0.733469	0.569659	0.333441
C90	C	1.066802	0.902993	0.666774
C91	C	1.066832	0.203176	0.000121
C92	C	1.400166	0.536509	0.333454
C93	C	1.733499	0.869843	0.666787
C94	C	1.153640	0.211806	0.000125
C95	C	1.486973	0.545139	0.333458
C96	C	1.820306	0.878472	0.666791
C97	C	0.918419	0.366872	0.000093
C98	C	1.251752	0.700205	0.333426
C99	C	1.585086	1.033539	0.666759
C100	C	0.920112	0.469382	0.000086
C101	C	1.253445	0.802715	0.333419
C102	C	1.586778	1.136048	0.666752
N103	N	0.923868	0.198680	0.254960
N104	N	1.257202	0.532013	0.588294
N105	N	1.590535	0.865347	0.921627
N106	N	0.923900	0.198700	-0.254751
N107	N	1.257234	0.532033	0.078582
N108	N	1.590567	0.865366	0.411916
C109	C	0.923888	0.198700	0.656251
C110	C	1.257221	0.532033	0.989585
C111	C	1.590555	0.865366	1.322918
C112	C	0.923880	0.198697	0.544600
C113	C	1.257213	0.532030	0.877933
C114	C	1.590547	0.865364	1.211267
C115	C	0.923878	0.198691	0.455609
C116	C	1.257212	0.532024	0.788943
C117	C	1.590545	0.865357	1.122276
C118	C	0.923870	0.198687	0.343951
C119	C	1.257203	0.532020	0.677284
C120	C	1.590537	0.865353	1.010617
H121	H	0.669849	0.335940	0.000060
H122	H	1.003182	0.669274	0.333394
H123	H	1.336516	1.002607	0.666727
H124	H	0.325874	0.076161	0.000137
H125	H	0.659207	0.409494	0.333470
H126	H	0.992540	0.742827	0.666804
H127	H	0.177910	0.061441	0.000139
H128	H	0.511243	0.394775	0.333472
H129	H	0.844577	0.728108	0.666805
C130	C	0.546240	-0.005970	0.000120
C131	C	0.879573	0.327363	0.333454
C132	C	1.212906	0.660697	0.666787
N133	N	0.520072	-0.078342	0.000128
N134	N	0.853406	0.254991	0.333461
N135	N	1.186739	0.588325	0.666794
H136	H	0.703240	0.033709	0.000102
H137	H	1.036573	0.367042	0.333435
H138	H	1.369906	0.700375	0.666768
C139	C	0.434879	0.332405	0.000094
C140	C	0.768212	0.665739	0.333427
C141	C	1.101545	0.999072	0.666761
N142	N	0.461054	0.404773	0.000079
N143	N	0.794388	0.738106	0.333413
N144	N	1.127721	1.071440	0.666746
C145	C	0.412876	0.064975	0.000115
C146	C	0.746209	0.398308	0.333448
C147	C	1.079542	0.731642	0.666782
N148	N	0.386700	-0.007393	0.000121
N149	N	0.720033	0.325941	0.333454
N150	N	1.053367	0.659274	0.666787
H151	H	0.521886	0.321219	0.000080
H152	H	0.855219	0.654552	0.333413
H153	H	1.188553	0.987885	0.666747
H154	H	0.292493	0.378394	0.000077
H155	H	0.625827	0.711728	0.333411
H156	H	0.959160	1.045061	0.666744
H157	H	0.144519	0.363671	0.000103
H158	H	0.477852	0.697004	0.333436
H159	H	0.811186	1.030337	0.666770
