data_functionalizedCrystal
_audit_creation_method	'MofGen! by Chris Wilmer'
_symmetry_space_group_name_H-M	'P1'
_symmetry_Int_Tables_number	1
_symmetry_cell_setting	triclinic
loop_
_symmetry_equiv_pos_as_xyz
  x,y,z
_cell_length_a	15.297475
_cell_length_b	16.625546
_cell_length_c	15.299448
_cell_angle_alpha	99.703243
_cell_angle_beta	110.793752
_cell_angle_gamma	80.324704
loop_
_atom_site_label
_atom_site_type_symbol
_atom_site_fract_x
_atom_site_fract_y
_atom_site_fract_z
Zn1	Zn	1.512839	-0.436013	0.771474
Zn2	Zn	2.012839	0.063987	1.271474
Zn3	Zn	1.485795	-0.590728	0.615929
Zn4	Zn	1.985795	-0.090728	1.115929
Zn5	Zn	1.330387	-0.435989	0.589101
Zn6	Zn	1.830387	0.064011	1.089101
Zn7	Zn	1.357273	-0.550874	0.744545
Zn8	Zn	1.857273	-0.050874	1.244545
O9	O	1.421574	-0.503401	0.680262
O10	O	1.921574	-0.003401	1.180262
O11	O	1.639395	-0.473225	0.773338
O12	O	2.139395	0.026775	1.273338
O13	O	1.442610	-0.586870	0.482220
O14	O	1.942610	-0.086870	0.982220
O15	O	1.354657	-0.323163	0.613335
O16	O	1.854657	0.176837	1.113335
O17	O	1.619526	-0.586893	0.659060
O18	O	2.119526	-0.086893	1.159060
O19	O	1.488703	-0.323181	0.747324
O20	O	1.988703	0.176819	1.247324
O21	O	1.328433	-0.473184	0.462510
O22	O	1.828433	0.026816	0.962510
O23	O	1.203810	-0.434540	0.587223
O24	O	1.703810	0.065460	1.087223
O25	O	1.400479	-0.518969	0.878267
O26	O	1.900479	-0.018969	1.378267
O27	O	1.223563	-0.518946	0.701427
O28	O	1.723563	-0.018946	1.201427
O29	O	1.514773	-0.434581	0.898052
O30	O	2.014773	0.065419	1.398052
O31	O	1.468680	-0.698270	0.632948
O32	O	1.968680	-0.198270	1.132948
O33	O	1.374255	-0.668990	0.727441
O34	O	1.874255	-0.168990	1.227441
C35	C	1.179942	-0.472416	0.638492
C36	C	1.679942	0.027584	1.138492
C37	C	1.076574	-0.459177	0.620645
C38	C	1.576574	0.040823	1.120645
C39	C	1.421479	-0.712885	0.680208
C40	C	1.921479	-0.212885	1.180208
C41	C	1.421529	-0.802511	0.680231
C42	C	1.921529	-0.302511	1.180231
C43	C	0.826374	-0.598026	0.807821
C44	C	1.326374	-0.098026	1.307821
C45	C	0.923492	-0.610471	0.824587
C46	C	1.423492	-0.110471	1.324587
C47	C	0.961767	-0.572649	0.773603
C48	C	1.461767	-0.072649	1.273603
C49	C	0.902915	-0.522379	0.705850
C50	C	1.402915	-0.022379	1.205850
C51	C	0.805786	-0.509938	0.689078
C52	C	1.305786	-0.009938	1.189078
C53	C	0.941180	-0.484561	0.654860
C54	C	1.441180	0.015439	1.154860
C55	C	0.882327	-0.434291	0.587107
C56	C	1.382327	0.065709	1.087107
C57	C	0.785208	-0.421852	0.570338
C58	C	1.285208	0.078148	1.070338
C59	C	0.746933	-0.459675	0.621322
C60	C	1.246933	0.040325	1.121322
C61	C	1.038309	-0.497002	0.671632
C62	C	1.538309	0.002998	1.171632
C63	C	1.017721	-0.408914	0.552889
C64	C	1.517721	0.091086	1.052889
C65	C	0.920603	-0.396469	0.536123
C66	C	1.420603	0.103531	1.036123
C67	C	1.421708	-1.130695	0.680355
C68	C	1.921708	-0.630695	1.180355
C69	C	1.421655	-1.039383	0.680323
C70	C	1.921655	-0.539383	1.180323
C71	C	1.421617	-0.966606	0.680292
C72	C	1.921617	-0.466606	1.180292
C73	C	1.421567	-0.875288	0.680261
C74	C	1.921567	-0.375288	1.180261
C75	C	1.664149	-0.534507	0.722195
C76	C	2.164149	-0.034507	1.222195
C77	C	1.767520	-0.547763	0.740065
C78	C	2.267520	-0.047763	1.240065
C79	C	1.463641	-0.472332	0.922850
C80	C	1.963641	0.027668	1.422850
C81	C	1.481568	-0.459092	1.026226
C82	C	1.981568	0.040908	1.526226
C83	C	1.421698	-0.293099	0.680341
C84	C	1.921698	0.206901	1.180341
C85	C	1.421750	-0.203481	0.680375
C86	C	1.921750	0.296519	1.180375
C87	C	1.379723	-0.534297	0.438628
C88	C	1.879723	-0.034297	0.938628
C89	C	1.361976	-0.547333	0.335283
C90	C	1.861976	-0.047333	0.835283
C91	C	1.549498	-0.408934	1.085090
C92	C	2.049498	0.091066	1.585090
C93	C	1.566333	-0.396483	1.182216
C94	C	2.066333	0.103517	1.682216
C95	C	1.515246	-0.434195	1.220488
C96	C	2.015246	0.065805	1.720488
C97	C	1.447319	-0.484359	1.161624
C98	C	1.947319	0.015641	1.661624
C99	C	1.430477	-0.496806	1.064488
C100	C	1.930477	0.003194	1.564488
C101	C	1.396225	-0.522067	1.199885
C102	C	1.896225	-0.022067	1.699885
C103	C	1.328299	-0.572231	1.141021
C104	C	1.828299	-0.072231	1.641021
C105	C	1.311460	-0.584676	1.043895
C106	C	1.811460	-0.084676	1.543895
C107	C	1.362548	-0.546964	1.005623
C108	C	1.862548	-0.046964	1.505623
C109	C	1.413067	-0.509620	1.297021
C110	C	1.913067	-0.009620	1.797021
C111	C	1.294047	-0.597492	1.276418
C112	C	1.794047	-0.097492	1.776418
C113	C	1.277212	-0.609942	1.179293
C114	C	1.777212	-0.109942	1.679293
H115	H	1.086218	-0.537931	0.726798
H116	H	1.586218	-0.037931	1.226798
H117	H	0.795199	-0.628822	0.849319
H118	H	1.295199	-0.128822	1.349319
N119	N	0.721727	-0.367646	0.497252
N120	N	1.221727	0.132354	0.997252
H121	H	0.760708	-0.345573	0.467498
H122	H	1.260708	0.154427	0.967498
H123	H	0.688025	-0.320367	0.528232
H124	H	1.188025	0.179633	1.028232
N125	N	1.533417	-0.420765	1.325247
N126	N	2.033417	0.079235	1.825247
H127	H	1.554541	-0.475268	1.351586
H128	H	2.054541	0.024732	1.851586
H129	H	1.473660	-0.394739	1.337547
H130	H	1.973660	0.105261	1.837547
H131	H	1.348846	-0.557101	0.926536
H132	H	1.848846	-0.057101	1.426536
N133	N	1.486333	-0.455521	1.360495
N134	N	1.986333	0.044479	1.860495
H135	H	1.536402	-0.488648	1.408237
H136	H	2.036402	0.011352	1.908237
H137	H	1.455477	-0.408152	1.394206
H138	H	1.955477	0.091848	1.894206
N139	N	1.238166	-0.638747	0.980397
N140	N	1.738166	-0.138747	1.480397
H141	H	1.208350	-0.660742	1.019376
H142	H	1.708350	-0.160742	1.519376
H143	H	1.268986	-0.686084	0.946613
H144	H	1.768986	-0.186084	1.446613
H145	H	1.591081	-0.378230	1.053919
H146	H	2.091081	0.121770	1.553919
N147	N	0.986956	-0.664688	0.897658
N148	N	1.486956	-0.164688	1.397658
H149	H	0.981599	-0.641579	0.961221
H150	H	1.481599	-0.141579	1.461221
H151	H	1.054262	-0.666819	0.900467
H152	H	1.554262	-0.166819	1.400467
N153	N	1.639583	-0.342369	1.245687
N154	N	2.139583	0.157631	1.745687
H155	H	1.703097	-0.365572	1.240272
H156	H	2.203097	0.134428	1.740272
H157	H	1.642421	-0.340211	1.312998
H158	H	2.142421	0.159789	1.812998
H159	H	0.667852	-0.449543	0.607676
H160	H	1.167852	0.050457	1.107676
H161	H	1.221905	-0.650786	1.131352
H162	H	1.721905	-0.150786	1.631352
N163	N	1.238931	-0.638162	1.317682
N164	N	1.738931	-0.138162	1.817682
H165	H	1.259907	-0.622666	1.388146
H166	H	1.759907	-0.122666	1.888146
H167	H	1.250420	-0.699778	1.303191
H168	H	1.750420	-0.199778	1.803191
N169	N	1.066515	-0.586070	0.791681
N170	N	1.566515	-0.086070	1.291681
H171	H	1.097990	-0.623654	0.842338
H172	H	1.597990	-0.123654	1.342338
H173	H	1.092838	-0.531544	0.812899
H174	H	1.592838	-0.031544	1.312899
H175	H	0.872671	-0.355539	0.480958
H176	H	1.372671	0.144461	0.980958
H177	H	1.048884	-0.378117	0.511372
H178	H	1.548884	0.121883	1.011372
