data_functionalizedCrystal
_audit_creation_method	'MofGen! by Chris Wilmer'
_symmetry_space_group_name_H-M	'P1'
_symmetry_Int_Tables_number	1
_symmetry_cell_setting	triclinic
loop_
_symmetry_equiv_pos_as_xyz
  x,y,z
_cell_length_a	14.908571
_cell_length_b	16.625546
_cell_length_c	14.908308
_cell_angle_alpha	93.264070
_cell_angle_beta	90.175053
_cell_angle_gamma	86.718495
loop_
_atom_site_label
_atom_site_type_symbol
_atom_site_fract_x
_atom_site_fract_y
_atom_site_fract_z
Zn1	Zn	1.345280	-0.420778	-0.587557
Zn2	Zn	1.845280	0.079222	-0.087557
Zn3	Zn	1.353856	-0.548312	-0.437189
Zn4	Zn	1.853856	-0.048312	0.062811
Zn5	Zn	1.203596	-0.405291	-0.428555
Zn6	Zn	1.703596	0.094709	0.071445
Zn7	Zn	1.194884	-0.547354	-0.578841
Zn8	Zn	1.694884	-0.047354	-0.078841
O9	O	1.274404	-0.480434	-0.508036
O10	O	1.774404	0.019566	-0.008036
O11	O	1.472243	-0.444578	-0.574871
O12	O	1.972243	0.055422	-0.074871
O13	O	1.341159	-0.523260	-0.310220
O14	O	1.841159	-0.023260	0.189780
O15	O	1.222448	-0.294517	-0.449681
O16	O	1.722448	0.205483	0.050319
O17	O	1.478544	-0.538277	-0.464397
O18	O	1.978544	-0.038277	0.035603
O19	O	1.326543	-0.305896	-0.566499
O20	O	1.826543	0.194104	-0.066499
O21	O	1.230763	-0.418182	-0.303876
O22	O	1.730763	0.081818	0.196124
O23	O	1.076615	-0.417254	-0.441230
O24	O	1.576615	0.082746	0.058770
O25	O	1.207599	-0.536644	-0.705821
O26	O	1.707599	-0.036644	-0.205821
O27	O	1.070214	-0.521627	-0.551644
O28	O	1.570214	-0.021627	-0.051644
O29	O	1.318095	-0.443649	-0.712225
O30	O	1.818095	0.056351	-0.212225
O31	O	1.332711	-0.661013	-0.455945
O32	O	1.832711	-0.161013	0.044055
O33	O	1.215914	-0.660309	-0.560016
O34	O	1.715914	-0.160309	-0.060016
C35	C	1.040789	-0.467656	-0.494555
C36	C	1.540789	0.032344	0.005445
C37	C	0.940846	-0.462211	-0.488810
C38	C	1.440846	0.037789	0.011190
C39	C	0.746435	-0.560814	-0.592833
C40	C	1.246435	-0.060814	-0.092833
C41	C	0.652530	-0.555700	-0.587437
C42	C	1.152530	-0.055700	-0.087437
C43	C	0.659128	-0.446865	-0.472629
C44	C	1.159128	0.053135	0.027371
C45	C	0.753033	-0.451979	-0.478024
C46	C	1.253033	0.048021	0.021976
C47	C	0.796683	-0.508956	-0.538127
C48	C	1.296683	-0.008956	-0.038127
C49	C	0.890591	-0.514074	-0.543517
C50	C	1.390591	-0.014074	-0.043517
C51	C	0.897187	-0.405236	-0.428714
C52	C	1.397187	0.094764	0.071286
C53	C	0.803282	-0.400121	-0.423318
C54	C	1.303282	0.099879	0.076682
C55	C	1.274321	-0.689918	-0.507993
C56	C	1.774321	-0.189918	-0.007993
C57	C	1.274366	-0.779542	-0.508010
C58	C	1.774366	-0.279542	-0.008010
C59	C	1.274517	-1.107731	-0.508112
C60	C	1.774517	-0.607731	-0.008112
C61	C	1.274472	-1.016419	-0.508086
C62	C	1.774472	-0.516419	-0.008086
C63	C	1.274441	-0.943640	-0.508060
C64	C	1.774441	-0.443640	-0.008060
C65	C	1.274397	-0.852322	-0.508035
C66	C	1.774397	-0.352322	-0.008035
C67	C	1.508931	-0.493262	-0.521569
C68	C	2.008931	0.006738	-0.021569
C69	C	1.608873	-0.498728	-0.527336
C70	C	2.108873	0.001272	-0.027336
C71	C	1.260918	-0.491767	-0.742560
C72	C	1.760918	0.008233	-0.242560
C73	C	1.255172	-0.496597	-0.842501
C74	C	1.755172	0.003403	-0.342501
C75	C	1.274511	-0.270134	-0.508099
C76	C	1.774511	0.229866	-0.008099
C77	C	1.274556	-0.180516	-0.508127
C78	C	1.774556	0.319484	-0.008127
C79	C	1.359429	-0.408817	-1.036969
C80	C	1.859429	0.091183	-0.536969
C81	C	1.354033	-0.413353	-1.130872
C82	C	1.854033	0.086647	-0.630872
C83	C	1.238977	-0.510198	-1.124211
C84	C	1.738977	-0.010198	-0.624211
C85	C	1.244374	-0.505662	-1.030308
C86	C	1.744374	-0.005662	-0.530308
C87	C	1.304603	-0.454971	-0.986690
C88	C	1.804603	0.045029	-0.486690
C89	C	1.310004	-0.450441	-0.892786
C90	C	1.810004	0.049559	-0.392786
C91	C	1.194945	-0.547281	-0.886127
C92	C	1.694945	-0.047281	-0.386127
C93	C	1.189548	-0.551817	-0.980030
C94	C	1.689548	-0.051817	-0.480030
C95	C	1.287889	-0.469089	-0.274426
C96	C	1.787889	0.030911	0.225574
C97	C	1.293810	-0.464042	-0.174497
C98	C	1.793810	0.035958	0.325503
H99	H	0.611620	-0.597926	-0.631986
H100	H	1.111620	-0.097926	-0.131986
O101	O	0.616575	-0.391565	-0.414302
O102	O	1.116575	0.108435	0.085698
C103	C	0.522916	-0.398145	-0.421311
C104	C	1.022916	0.101855	0.078689
H105	H	0.508392	-0.461139	-0.449862
H106	H	1.008392	0.038861	0.050138
H107	H	0.491059	-0.387341	-0.351936
H108	H	0.991059	0.112659	0.148064
H109	H	0.493560	-0.351276	-0.467801
H110	H	0.993560	0.148724	0.032199
O111	O	0.760839	-0.344885	-0.364842
O112	O	1.260839	0.155115	0.135158
C113	C	0.709816	-0.384940	-0.303574
C114	C	1.209816	0.115060	0.196426
H115	H	0.738424	-0.449704	-0.299519
H116	H	1.238424	0.050296	0.200481
H117	H	0.712712	-0.352285	-0.234372
H118	H	1.212712	0.147715	0.265628
H119	H	0.637057	-0.385222	-0.327286
H120	H	1.137057	0.114778	0.172714
H121	H	0.938110	-0.363011	-0.384166
H122	H	1.438110	0.136989	0.115834
H123	H	1.140510	-0.593086	-1.015557
H124	H	1.640510	-0.093086	-0.515557
H125	H	1.189942	-0.551467	-1.159741
H126	H	1.689942	-0.051467	-0.659741
H127	H	0.781976	-0.607211	-0.641766
H128	H	1.281976	-0.107211	-0.141766
H129	H	0.926129	-0.560469	-0.592455
H130	H	1.426129	-0.060469	-0.092455
O131	O	1.141548	-0.592072	-0.837374
O132	O	1.641548	-0.092072	-0.337374
C133	C	1.050621	-0.570644	-0.855135
C134	C	1.550621	-0.070644	-0.355135
H135	H	1.044851	-0.542843	-0.923216
H136	H	1.544851	-0.042843	-0.423216
H137	H	1.010089	-0.626784	-0.856002
H138	H	1.510089	-0.126784	-0.356002
H139	H	1.023397	-0.524981	-0.800549
H140	H	1.523397	-0.024981	-0.300549
H141	H	1.359047	-0.409167	-0.857274
H142	H	1.859047	0.090833	-0.357274
H143	H	1.408475	-0.367547	-1.001455
H144	H	1.908475	0.132453	-0.501455
O145	O	1.407385	-0.368493	-1.179578
O146	O	1.907385	0.131507	-0.679578
C147	C	1.461681	-0.322765	-1.120938
C148	C	1.961681	0.177235	-0.620938
H149	H	1.468627	-0.352728	-1.054172
H150	H	1.968627	0.147272	-0.554172
H151	H	1.530970	-0.319345	-1.152157
H152	H	2.030970	0.180655	-0.652157
H153	H	1.429354	-0.259249	-1.109069
H154	H	1.929354	0.240751	-0.609069
