data_functionalizedCrystal
_audit_creation_method	'MofGen! by Chris Wilmer'
_symmetry_space_group_name_H-M	'P1'
_symmetry_Int_Tables_number	1
_symmetry_cell_setting	triclinic
loop_
_symmetry_equiv_pos_as_xyz
  x,y,z
_cell_length_a	19.077236
_cell_length_b	19.077432
_cell_length_c	12.759393
_cell_angle_alpha	87.666736
_cell_angle_beta	87.676977
_cell_angle_gamma	89.927472
loop_
_atom_site_label
_atom_site_type_symbol
_atom_site_fract_x
_atom_site_fract_y
_atom_site_fract_z
Zn1	Zn	1.085526	-0.236633	-0.645076
Zn2	Zn	1.090152	-0.354162	-0.462619
Zn3	Zn	0.968011	-0.241381	-0.462061
Zn4	Zn	0.972697	-0.358817	-0.630916
O5	O	1.029097	-0.297748	-0.550168
O6	O	1.184475	-0.248288	-0.627032
O7	O	1.073925	-0.339240	-0.315520
O8	O	0.979703	-0.142417	-0.492031
O9	O	1.187874	-0.334636	-0.492982
O10	O	1.066040	-0.138929	-0.626491
O11	O	0.984189	-0.256381	-0.315110
O12	O	0.870297	-0.260894	-0.478300
O13	O	0.987689	-0.342570	-0.779819
O14	O	0.873740	-0.347174	-0.602357
O15	O	1.070584	-0.252802	-0.790222
O16	O	1.078469	-0.453113	-0.479251
O17	O	0.992175	-0.456533	-0.602898
C18	C	1.036352	-0.480319	-0.539623
C19	C	1.039520	-0.558421	-0.535151
C20	C	0.846522	-0.305055	-0.538732
C21	C	0.768416	-0.308198	-0.533864
C22	C	0.996049	-0.596921	-0.597368
C23	C	0.999029	-0.670306	-0.593162
C24	C	1.045484	-0.705190	-0.526743
C25	C	1.088956	-0.666685	-0.464518
C26	C	1.085972	-0.593301	-0.468720
C27	C	1.059226	-0.924470	-0.507276
C28	C	1.062208	-0.997858	-0.503082
C29	C	0.972279	-1.001475	-0.631725
C30	C	0.969302	-0.928090	-0.635925
C31	C	1.012772	-0.889591	-0.573696
N32	N	1.048532	-0.780201	-0.522445
N33	N	1.009720	-0.814581	-0.577990
C34	C	0.729955	-0.264789	-0.601468
C35	C	0.656566	-0.267738	-0.596885
C36	C	0.621640	-0.314101	-0.524702
C37	C	0.660105	-0.357512	-0.457091
C38	C	0.733493	-0.354558	-0.461669
C39	C	0.402344	-0.327745	-0.503509
C40	C	0.328952	-0.330697	-0.498937
C41	C	0.325418	-0.240922	-0.638730
C42	C	0.398807	-0.237975	-0.643307
C43	C	0.437266	-0.281383	-0.575692
N44	N	0.546625	-0.317119	-0.520018
N45	N	0.512280	-0.278362	-0.580372
C46	C	1.212385	-0.290413	-0.561649
C47	C	1.290491	-0.287288	-0.566541
C48	C	1.029143	-0.297675	-0.824208
C49	C	1.029163	-0.297644	-0.940988
C50	C	1.021832	-0.114463	-0.560778
C51	C	1.018737	-0.036358	-0.565300
C52	C	1.072332	-0.250897	-1.001270
C53	C	1.072348	-0.250871	-1.110996
C54	C	0.986023	-0.344345	-1.100150
C55	C	0.986004	-0.344367	-0.990425
C56	C	1.122173	-0.196933	-1.007533
C57	C	1.122189	-0.196907	-1.117259
C58	C	1.029089	-0.297768	-0.277199
C59	C	1.029197	-0.297596	-0.160439
H60	H	0.958224	-0.568524	-0.651459
H61	H	0.950884	-0.382384	-1.140415
Cl62	Cl	0.608219	-0.213166	-0.681880
Cl63	Cl	1.203171	-0.223850	-0.958232
Cl64	Cl	1.088835	-0.118327	-1.172547
H65	H	0.631662	-0.395258	-0.398313
H66	H	0.950849	-0.382430	-0.941348
H67	H	1.177196	-0.209301	-1.149603
H68	H	0.433649	-0.363092	-0.448453
Cl69	Cl	1.096335	-0.113819	-0.965018
H70	H	0.963624	-0.701650	-0.643817
Cl71	Cl	0.910902	-0.884241	-0.719431
H72	H	0.936887	-1.032828	-0.682387
H73	H	1.100041	-1.026258	-0.448996
H74	H	1.094622	-0.893130	-0.456609
Cl75	Cl	0.781843	-0.409133	-0.376679
Cl76	Cl	0.277065	-0.186353	-0.723724
H77	H	1.121370	-0.561955	-0.418054
Cl78	Cl	1.147357	-0.710539	-0.381020
Cl79	Cl	0.773856	-0.206504	-0.692222
H80	H	0.427239	-0.200224	-0.702090
Cl81	Cl	0.285045	-0.389002	-0.408209
