data_functionalizedCrystal
_audit_creation_method	'MofGen! by Chris Wilmer'
_symmetry_space_group_name_H-M	'P1'
_symmetry_Int_Tables_number	1
_symmetry_cell_setting	triclinic
loop_
_symmetry_equiv_pos_as_xyz
  x,y,z
_cell_length_a	12.811445
_cell_length_b	13.185408
_cell_length_c	11.892095
_cell_angle_alpha	92.555209
_cell_angle_beta	80.666316
_cell_angle_gamma	68.086545
loop_
_atom_site_label
_atom_site_type_symbol
_atom_site_fract_x
_atom_site_fract_y
_atom_site_fract_z
O1	O	1.372875	0.129419	-0.234733
O2	O	1.059828	0.147729	-0.202646
O3	O	1.269984	-0.020337	-0.224179
O4	O	1.162718	0.297485	-0.213200
O5	O	1.252468	-0.006345	-0.034376
O6	O	1.042311	0.161721	-0.012844
O7	O	1.355358	0.143411	-0.044931
Zn8	Zn	1.196054	0.154787	0.001248
Zn9	Zn	1.219132	0.136353	-0.248825
O10	O	1.145202	0.311477	-0.023398
C11	C	1.011848	0.154126	-0.103725
C12	C	0.894982	0.152330	-0.091746
C13	C	0.694466	0.133721	-0.276179
C14	C	0.584661	0.132034	-0.264929
C15	C	0.565560	0.147276	-0.057996
C16	C	0.675366	0.148963	-0.069246
C17	C	0.739816	0.142184	-0.178341
C18	C	0.849627	0.143864	-0.189591
C19	C	0.830521	0.159113	0.017342
C20	C	0.720716	0.157426	0.028592
C21	C	1.272101	-0.054003	-0.130392
C22	C	1.304492	-0.175162	-0.133713
C23	C	1.419818	-0.245382	-0.145532
C24	C	1.450255	-0.359218	-0.148662
C25	C	1.365368	-0.402844	-0.139964
C26	C	1.250038	-0.332623	-0.128138
C27	C	1.219599	-0.218776	-0.125016
C28	C	1.165149	-0.376238	-0.119449
C29	C	1.049819	-0.306017	-0.107622
C30	C	1.019386	-0.192182	-0.104501
C31	C	1.104273	-0.148556	-0.113198
C32	C	1.195588	-0.490085	-0.122570
C33	C	0.995369	-0.463479	-0.102055
C34	C	0.964932	-0.349643	-0.098925
C35	C	1.403339	0.137013	-0.143855
C36	C	1.520205	0.138809	-0.155841
C37	C	1.143085	0.345143	-0.117187
C38	C	1.110695	0.466301	-0.113873
N39	N	1.180311	0.167368	0.171915
N40	N	1.234886	0.123764	-0.419493
C41	C	1.344448	0.036162	0.391746
C42	C	1.333449	0.044963	0.511214
C43	C	1.147313	0.193766	0.530324
C44	C	1.158312	0.184964	0.410855
C45	C	1.256883	0.106161	0.341570
C46	C	1.267884	0.097365	0.222098
C47	C	1.081745	0.246162	0.241210
C48	C	1.070747	0.254964	0.360679
H49	H	0.513063	0.152805	0.030825
N50	N	0.919145	0.136560	-0.307249
H51	H	0.992947	0.069277	-0.319385
H52	H	0.873662	0.130993	-0.367449
H53	H	0.668224	0.162949	0.117414
N54	N	0.879436	0.168230	0.122876
H55	H	0.958780	0.168266	0.099198
H56	H	0.828258	0.238907	0.172881
H57	H	1.289490	-0.547248	-0.132202
H58	H	1.079497	-0.055862	-0.110646
H59	H	1.404752	-0.012038	0.552064
N60	N	0.964438	0.339963	0.435405
H61	H	0.894833	0.326055	0.421962
H62	H	0.970857	0.334880	0.518672
N63	N	1.398200	-0.525623	-0.143325
H64	H	1.359736	-0.542634	-0.069685
H65	H	1.372726	-0.552933	-0.210451
N66	N	1.574633	-0.434952	-0.161402
H67	H	1.598223	-0.487959	-0.233515
H68	H	1.623704	-0.389963	-0.166382
N69	N	1.374180	0.012351	0.147370
H70	H	1.367862	0.017391	0.064073
H71	H	1.443744	0.026288	0.160899
H72	H	0.746945	0.128196	-0.365009
H73	H	0.925478	-0.135011	-0.094884
H74	H	1.488919	-0.209849	-0.152597
N75	N	0.840543	-0.273899	-0.086149
H76	H	0.834147	-0.195165	-0.085485
H77	H	0.808623	-0.293158	-0.152569
H78	H	0.926247	-0.498998	-0.094975
H79	H	1.424713	-0.027996	0.335332
N80	N	1.040996	0.278742	0.605062
H81	H	1.047317	0.273687	0.688358
H82	H	1.033099	0.354608	0.585193
N83	N	0.987297	0.321676	0.187094
H84	H	1.009220	0.304148	0.100897
H85	H	0.913899	0.310798	0.215316
H86	H	0.547741	0.125145	-0.344599
