data_functionalizedCrystal
_audit_creation_method	'MofGen! by Chris Wilmer'
_symmetry_space_group_name_H-M	'P1'
_symmetry_Int_Tables_number	1
_symmetry_cell_setting	triclinic
loop_
_symmetry_equiv_pos_as_xyz
  x,y,z
_cell_length_a	15.944499
_cell_length_b	15.944493
_cell_length_c	12.996460
_cell_angle_alpha	89.999729
_cell_angle_beta	89.991825
_cell_angle_gamma	83.476327
loop_
_atom_site_label
_atom_site_type_symbol
_atom_site_fract_x
_atom_site_fract_y
_atom_site_fract_z
O1	O	1.114530	0.108130	-0.085615
O2	O	0.869971	0.121532	-0.085602
O3	O	0.998954	-0.007449	-0.085617
O4	O	0.985547	0.237110	-0.085599
O5	O	0.998941	-0.007456	0.085517
O6	O	0.869958	0.121525	0.085532
O7	O	1.114516	0.108123	0.085519
Cu8	Cu	0.992236	0.114823	0.101151
Cu9	Cu	0.992252	0.114831	-0.101234
O10	O	0.985534	0.237103	0.085534
C11	C	0.838670	0.120979	-0.000033
C12	C	0.745422	0.119334	-0.000029
C13	C	0.998400	-0.038747	-0.000055
C14	C	0.996757	-0.131995	-0.000068
C15	C	0.453871	0.194269	-0.000039
C16	C	0.514915	0.155320	-0.084422
C17	C	0.409787	0.113358	-0.000053
C18	C	0.514887	0.155291	0.084303
C19	C	0.574695	0.116299	-0.000040
C20	C	0.469603	0.074386	-0.084506
C21	C	0.469569	0.074369	0.084295
C22	C	0.530595	0.035361	-0.000109
C23	C	0.314787	0.111666	-0.000062
C24	C	0.669694	0.117984	-0.000038
C25	C	1.072679	-0.367769	-0.000052
C26	C	1.031744	-0.418326	-0.084427
C27	C	0.993713	-0.302716	-0.000055
C28	C	1.031712	-0.418309	0.084297
C29	C	0.990778	-0.467625	-0.000038
C30	C	0.952799	-0.352044	-0.084500
C31	C	0.952778	-0.352024	0.084301
C32	C	0.911785	-0.402548	-0.000095
C33	C	0.995405	-0.207716	-0.000066
C34	C	0.989079	-0.562622	-0.000035
C35	C	1.145818	0.108675	-0.000052
C36	C	1.239066	0.110320	-0.000063
C37	C	0.986088	0.268401	-0.000030
C38	C	0.987731	0.361650	-0.000024
N39	N	0.992231	0.114816	0.243498
N40	N	0.992264	0.114831	-0.243581
C41	C	0.992251	0.114832	0.663313
C42	C	0.992243	0.114831	0.546508
C43	C	0.992241	0.114825	0.453409
C44	C	0.992232	0.114822	0.336597
H45	H	0.535011	0.189547	-0.155751
H46	H	1.065098	-0.447275	-0.155765
N47	N	0.910998	-0.315874	-0.174080
N48	N	0.905560	-0.237943	-0.188562
H49	H	0.876042	-0.212394	-0.251828
H50	H	0.449637	0.040199	-0.155925
N51	N	0.910956	-0.315687	0.173785
N52	N	0.835170	-0.324665	0.189661
H53	H	0.805636	-0.299003	0.252868
N54	N	0.412011	0.278491	-0.000126
N55	N	0.363895	0.303242	0.072346
H56	H	0.334327	0.362722	0.072280
N57	N	0.572235	-0.048949	-0.000181
N58	N	0.560555	-0.097793	-0.072699
H59	H	0.589964	-0.157337	-0.072756
N60	N	1.073567	-0.454611	0.173774
N61	N	1.149699	-0.446682	0.188779
H62	H	1.179266	-0.472318	0.251968
H63	H	0.843713	-0.418002	-0.000138
H64	H	0.449454	0.040172	0.155631
H65	H	1.140699	-0.352153	-0.000141
N66	N	0.540053	0.198242	0.173788
N67	N	0.512234	0.273737	0.188806
H68	H	0.530004	0.304078	0.252001
