data_functionalizedCrystal
_audit_creation_method	'MofGen! by Chris Wilmer'
_symmetry_space_group_name_H-M	'P1'
_symmetry_Int_Tables_number	1
_symmetry_cell_setting	triclinic
loop_
_symmetry_equiv_pos_as_xyz
  x,y,z
_cell_length_a	12.759401
_cell_length_b	13.897448
_cell_length_c	12.759393
_cell_angle_alpha	89.967728
_cell_angle_beta	89.980324
_cell_angle_gamma	90.018119
loop_
_atom_site_label
_atom_site_type_symbol
_atom_site_fract_x
_atom_site_fract_y
_atom_site_fract_z
Zn1	Zn	1.606244	-0.383957	-0.593972
Zn2	Zn	2.106244	0.116043	-0.093972
Zn3	Zn	1.606126	-0.545284	-0.418286
Zn4	Zn	2.106126	-0.045284	0.081714
Zn5	Zn	1.430543	-0.384005	-0.418311
Zn6	Zn	1.930543	0.115995	0.081689
Zn7	Zn	1.430526	-0.545213	-0.593928
Zn8	Zn	1.930526	-0.045213	-0.093928
O9	O	1.518360	-0.464615	-0.506124
O10	O	2.018360	0.035385	-0.006124
O11	O	1.753250	-0.405367	-0.570675
O12	O	2.253250	0.094633	-0.070675
O13	O	1.582793	-0.523939	-0.271269
O14	O	2.082793	-0.023939	0.228731
O15	O	1.453907	-0.249017	-0.441641
O16	O	1.953907	0.250983	0.058359
O17	O	1.753163	-0.523893	-0.441600
O18	O	2.253163	-0.023893	0.058400
O19	O	1.582994	-0.248982	-0.570699
O20	O	2.082994	0.251018	-0.070699
O21	O	1.453793	-0.405449	-0.271286
O22	O	1.953793	0.094551	0.228714
O23	O	1.283520	-0.405381	-0.441598
O24	O	1.783520	0.094619	0.058402
O25	O	1.453878	-0.523773	-0.740955
O26	O	1.953878	-0.023773	-0.240955
O27	O	1.283507	-0.523819	-0.570623
O28	O	1.783507	-0.023819	-0.070623
O29	O	1.582977	-0.405299	-0.740987
O30	O	2.082977	0.094701	-0.240987
O31	O	1.582776	-0.680256	-0.441557
O32	O	2.082776	-0.180256	0.058443
O33	O	1.453763	-0.680204	-0.570600
O34	O	1.953763	-0.180204	-0.070600
C35	C	1.245393	-0.464598	-0.506109
C36	C	1.745393	0.035402	-0.006109
C37	C	1.128616	-0.464614	-0.506128
C38	C	1.628616	0.035386	-0.006128
C39	C	1.073800	-0.403010	-0.573441
C40	C	1.573800	0.096990	-0.073441
C41	C	0.964076	-0.403019	-0.573448
C42	C	1.464076	0.096981	-0.073448
C43	C	0.963994	-0.526247	-0.438826
C44	C	1.463994	-0.026247	0.061174
C45	C	1.073716	-0.526232	-0.438814
C46	C	1.573716	-0.026232	0.061186
C47	C	1.518283	-0.715229	-0.506094
C48	C	2.018283	-0.215229	-0.006094
C49	C	1.518347	-0.822443	-0.506116
C50	C	2.018347	-0.322443	-0.006116
C51	C	1.518457	-1.018738	-0.506182
C52	C	2.018457	-0.518738	-0.006182
C53	C	1.518393	-0.909506	-0.506148
C54	C	2.018393	-0.409506	-0.006148
C55	C	1.792393	-0.464632	-0.506140
C56	C	2.292393	0.035368	-0.006140
C57	C	1.909170	-0.464640	-0.506146
C58	C	2.409170	0.035360	-0.006146
C59	C	1.518439	-0.464522	-0.780158
C60	C	2.018439	0.035478	-0.280158
C61	C	1.518472	-0.464483	-0.896934
C62	C	2.018472	0.035517	-0.396934
C63	C	1.518466	-0.213022	-0.506178
C64	C	2.018466	0.286978	-0.006178
C65	C	1.518511	-0.105808	-0.506200
C66	C	2.018511	0.394192	-0.006200
C67	C	1.585699	-0.402784	-0.951815
C68	C	2.085699	0.097216	-0.451815
C69	C	1.585717	-0.402742	-1.061539
C70	C	2.085717	0.097258	-0.561539
C71	C	1.451278	-0.526107	-1.061492
C72	C	1.951278	-0.026107	-0.561492
C73	C	1.451255	-0.526143	-0.951770
C74	C	1.951255	-0.026143	-0.451770
C75	C	1.518342	-0.464638	-0.233157
C76	C	2.018342	0.035362	0.266843
C77	C	1.518512	-0.464405	-0.116381
C78	C	2.018512	0.035595	0.383619
H79	H	1.118496	-0.352834	-0.628249
H80	H	1.618496	0.147166	-0.128249
H81	H	1.640459	-0.352499	-1.106218
H82	H	2.140459	0.147501	-0.606218
Cl83	Cl	1.142633	-0.603675	-0.354174
Cl84	Cl	1.642633	-0.103675	0.145826
Cl85	Cl	1.670196	-0.325264	-0.882882
Cl86	Cl	2.170196	0.174736	-0.382882
Cl87	Cl	1.366787	-0.603624	-1.130436
Cl88	Cl	1.866787	-0.103624	-0.630436
H89	H	0.919449	-0.352853	-0.628259
H90	H	1.419449	0.147147	-0.128259
Cl91	Cl	0.894969	-0.603708	-0.354212
Cl92	Cl	1.394969	-0.103708	0.145788
Cl93	Cl	1.366728	-0.603709	-0.882772
Cl94	Cl	1.866728	-0.103709	-0.382772
