data_functionalizedCrystal
_audit_creation_method	'MofGen! by Chris Wilmer'
_symmetry_space_group_name_H-M	'P1'
_symmetry_Int_Tables_number	1
_symmetry_cell_setting	triclinic
loop_
_symmetry_equiv_pos_as_xyz
  x,y,z
_cell_length_a	19.188930
_cell_length_b	14.044190
_cell_length_c	12.503552
_cell_angle_alpha	93.836179
_cell_angle_beta	86.474913
_cell_angle_gamma	88.168277
loop_
_atom_site_label
_atom_site_type_symbol
_atom_site_fract_x
_atom_site_fract_y
_atom_site_fract_z
O1	O	-0.937485	-0.112791	0.089682
O2	O	-0.437485	0.387209	0.589682
O3	O	-0.735199	-0.128722	0.089610
O4	O	-0.235199	0.371278	0.589610
O5	O	-0.833302	0.017214	0.089624
O6	O	-0.333302	0.517214	0.589624
O7	O	-0.839382	-0.258728	0.089668
O8	O	-0.339382	0.241272	0.589668
O9	O	-0.825915	0.006229	-0.089020
O10	O	-0.325915	0.506229	0.410980
O11	O	-0.727812	-0.139707	-0.089033
O12	O	-0.227812	0.360293	0.410967
O13	O	-0.930098	-0.123776	-0.088962
O14	O	-0.430098	0.376224	0.411038
Cu15	Cu	-0.828281	-0.132745	-0.105309
Cu16	Cu	-0.328281	0.367255	0.394691
Cu17	Cu	-0.837016	-0.119754	0.105958
Cu18	Cu	-0.337016	0.380246	0.605958
O19	O	-0.831995	-0.269713	-0.088975
O20	O	-0.331995	0.230287	0.411025
C21	C	-0.705461	-0.133699	0.000279
C22	C	-0.205461	0.366301	0.500279
C23	C	-0.627855	-0.132153	0.000250
C24	C	-0.127855	0.367847	0.500250
C25	C	-0.826950	0.047025	0.000298
C26	C	-0.326950	0.547025	0.500298
C27	C	-0.819018	0.152217	0.000286
C28	C	-0.319018	0.652217	0.500286
C29	C	-0.959836	-0.118799	0.000372
C30	C	-0.459836	0.381201	0.500372
C31	C	-1.037442	-0.120345	0.000407
C32	C	-0.537442	0.379655	0.500407
C33	C	-0.588460	-0.217781	0.000281
C34	C	-0.088460	0.282219	0.500281
C35	C	-0.515543	-0.216326	0.000293
C36	C	-0.015543	0.283674	0.500293
C37	C	-0.482024	-0.129236	0.000295
C38	C	0.017976	0.370764	0.500295
C39	C	-0.521429	-0.043597	0.000258
C40	C	-0.021429	0.456403	0.500258
C41	C	-0.594344	-0.045056	0.000236
C42	C	-0.094344	0.454944	0.500236
N43	N	-0.372263	-0.058927	0.061128
N44	N	0.127737	0.441073	0.561128
N45	N	-0.302996	-0.057547	0.061151
N46	N	0.197004	0.442453	0.561151
C47	C	-0.262335	-0.124837	0.000360
C48	C	0.237665	0.375163	0.500360
N49	N	-0.293557	-0.193573	-0.060442
N50	N	0.206443	0.306427	0.439558
N51	N	-0.362830	-0.194955	-0.060461
N52	N	0.137170	0.305045	0.439539
C53	C	-0.402960	-0.127645	0.000319
C54	C	0.097040	0.372355	0.500319
C55	C	-0.143874	-0.208894	0.000402
C56	C	0.356126	0.291106	0.500402
C57	C	-0.070955	-0.207435	0.000407
C58	C	0.429045	0.292565	0.500407
C59	C	-0.076844	-0.034703	0.000383
C60	C	0.423156	0.465297	0.500383
C61	C	-0.149760	-0.036165	0.000368
C62	C	0.350240	0.463835	0.500368
C63	C	-0.183271	-0.123262	0.000382
C64	C	0.316729	0.376738	0.500382
C65	C	-0.838347	-0.299523	0.000353
C66	C	-0.338347	0.200477	0.500353
C67	C	-0.846279	-0.404715	0.000372
C68	C	-0.346279	0.095285	0.500372
C69	C	-0.860769	0.402680	0.000343
C70	C	-0.360769	0.902680	0.500343
C71	C	-0.804532	0.344816	0.000315
C72	C	-0.304532	0.844816	0.500315
C73	C	-0.812594	0.237644	0.000299
C74	C	-0.312594	0.737644	0.500299
C75	C	-0.852707	0.509862	0.000359
C76	C	-0.352707	1.009862	0.500359
N77	N	-0.822142	-0.141881	-0.253903
N78	N	-0.322142	0.358119	0.246097
C79	C	-0.852187	-0.097167	-0.526332
C80	C	-0.352187	0.402833	-0.026332
C81	C	-0.813117	-0.155321	-0.473013
C82	C	-0.313117	0.344679	0.026987
C83	C	-0.818139	-0.147841	-0.351089
C84	C	-0.318139	0.352159	0.148911
C85	C	-0.847165	-0.104645	-0.648267
C86	C	-0.347165	0.395355	-0.148267
N87	N	-0.843160	-0.110610	0.254551
N88	N	-0.343160	0.389390	0.754551
H89	H	-0.483460	-0.286057	0.000315
H90	H	0.016540	0.213943	0.500315
N91	N	-0.736534	0.383632	0.000270
N92	N	-0.236534	0.883632	0.500270
N93	N	-0.692132	0.360330	-0.075060
N94	N	-0.192132	0.860330	0.424940
H95	H	-0.644109	0.387747	-0.075098
H96	H	-0.144109	0.887747	0.424902
N97	N	-0.898842	-0.027652	-0.468677
N98	N	-0.398842	0.472348	0.031323
N99	N	-0.875501	0.034820	-0.405915
N100	N	-0.375501	0.534820	0.094085
H101	H	-0.908439	0.083916	-0.365163
H102	H	-0.408439	0.583916	0.134837
H103	H	-0.615740	-0.288703	0.000295
H104	H	-0.115740	0.211297	0.500295
H105	H	-0.171160	-0.279815	0.000398
H106	H	0.328840	0.220185	0.500398
N107	N	-0.928754	0.363843	0.000336
N108	N	-0.428754	0.863843	0.500336
N109	N	-0.943751	0.306612	-0.074977
N110	N	-0.443751	0.806612	0.425023
H111	H	-0.991764	0.279171	-0.074987
H112	H	-0.491764	0.779171	0.425013
N113	N	-0.766414	-0.224822	-0.530608
N114	N	-0.266414	0.275178	-0.030608
N115	N	-0.718649	-0.198742	-0.593417
N116	N	-0.218649	0.301258	-0.093417
H117	H	-0.685667	-0.247826	-0.634097
H118	H	-0.185667	0.252174	-0.134097
N119	N	-0.487194	0.045362	0.000240
N120	N	0.012806	0.545362	0.500240
N121	N	-0.444029	0.060812	-0.075056
N122	N	0.055971	0.560812	0.424944
H123	H	-0.419851	0.123643	-0.075076
H124	H	0.080149	0.623643	0.424924
N125	N	-0.634579	0.042424	0.000200
N126	N	-0.134579	0.542424	0.500200
N127	N	-0.604647	0.120179	0.000191
N128	N	-0.104647	0.620179	0.500191
H129	H	-0.633063	0.181964	0.000166
H130	H	-0.133063	0.681964	0.500166
N131	N	-0.030703	-0.294903	0.000414
N132	N	0.469297	0.205097	0.500414
N133	N	0.013769	-0.317989	-0.074885
N134	N	0.513769	0.182011	0.425115
H135	H	0.042197	-0.379766	-0.074885
H136	H	0.542197	0.120234	0.425115
H137	H	-0.181837	0.033563	0.000349
H138	H	0.318163	0.533563	0.500349
N139	N	-0.042603	0.054248	0.000366
N140	N	0.457397	0.554248	0.500366
N141	N	0.022500	0.055540	0.000375
N142	N	0.522500	0.555540	0.500375
H143	H	0.046687	0.118364	0.000356
H144	H	0.546687	0.618364	0.500356
