data_functionalizedCrystal
_audit_creation_method	'MofGen! by Chris Wilmer'
_symmetry_space_group_name_H-M	'P1'
_symmetry_Int_Tables_number	1
_symmetry_cell_setting	triclinic
loop_
_symmetry_equiv_pos_as_xyz
  x,y,z
_cell_length_a	21.395364
_cell_length_b	15.299816
_cell_length_c	21.395356
_cell_angle_alpha	99.661488
_cell_angle_beta	89.983617
_cell_angle_gamma	80.365592
loop_
_atom_site_label
_atom_site_type_symbol
_atom_site_fract_x
_atom_site_fract_y
_atom_site_fract_z
Zn1	Zn	1.000953	-0.358731	-0.397438
Zn2	Zn	1.019008	-0.509545	-0.310812
Zn3	Zn	0.896189	-0.358790	-0.292681
Zn4	Zn	0.914274	-0.509542	-0.415552
O5	O	0.957606	-0.434152	-0.354121
O6	O	1.091023	-0.378714	-0.385953
O7	O	1.002703	-0.489572	-0.220732
O8	O	0.894962	-0.232575	-0.291409
O9	O	1.104288	-0.489516	-0.322310
O10	O	0.971931	-0.232533	-0.368373
O11	O	0.912469	-0.378813	-0.207412
O12	O	0.810913	-0.378811	-0.308974
O13	O	0.925785	-0.489511	-0.500824
O14	O	0.824200	-0.489568	-0.399246
O15	O	0.989467	-0.378711	-0.487515
O16	O	1.020240	-0.635751	-0.339874
O17	O	0.943292	-0.635749	-0.416826
C18	C	0.794824	-0.434196	-0.354108
C19	C	0.725187	-0.434236	-0.354120
C20	C	0.685601	-0.376636	-0.387333
C21	C	0.620162	-0.376612	-0.387333
C22	C	0.594315	-0.434205	-0.354128
C23	C	0.633910	-0.491809	-0.320908
C24	C	0.699346	-0.491825	-0.320904
C25	C	0.500360	-0.515425	-0.358866
C26	C	0.434925	-0.515411	-0.358874
C27	C	0.392488	-0.434155	-0.354136
C28	C	0.415494	-0.352911	-0.349402
C29	C	0.480930	-0.352927	-0.349398
C30	C	0.523361	-0.434193	-0.354128
C31	C	0.281946	-0.376524	-0.387350
C32	C	0.216506	-0.376498	-0.387345
C33	C	0.230256	-0.491703	-0.320924
C34	C	0.295693	-0.491720	-0.320925
C35	C	0.321534	-0.434132	-0.354141
C36	C	0.985705	-0.668474	-0.382297
C37	C	0.997783	-0.768718	-0.394372
C38	C	0.871693	-1.051676	-0.268033
C39	C	0.860342	-0.957492	-0.256689
C40	C	0.894701	-0.910294	-0.291109
C41	C	0.940414	-0.957289	-0.336874
C42	C	0.951762	-1.051482	-0.348222
C43	C	0.974770	-0.910100	-0.371298
C44	C	1.020483	-0.957095	-0.417063
C45	C	1.031830	-1.051279	-0.428408
C46	C	0.997470	-1.098477	-0.393989
C47	C	0.963422	-0.815907	-0.359950
C48	C	1.043491	-0.815713	-0.440139
C49	C	1.054842	-0.909897	-0.451482
C50	C	1.121024	-0.434109	-0.354133
C51	C	1.190663	-0.434090	-0.354139
C52	C	0.957629	-0.434105	-0.517538
C53	C	0.957639	-0.434084	-0.587177
C54	C	0.929415	-0.198915	-0.325848
C55	C	0.917401	-0.098671	-0.313800
C56	C	1.004671	-0.491568	-1.095887
C57	C	1.004664	-0.491596	-1.030455
C58	C	0.957681	-0.433941	-0.990798
C59	C	0.910694	-0.376270	-1.016580
C60	C	0.910700	-0.376249	-1.082012
C61	C	0.942988	-0.352720	-0.877368
C62	C	0.942986	-0.352739	-0.811937
C63	C	0.957661	-0.434005	-0.788985
C64	C	0.972350	-0.515255	-0.831473
C65	C	0.972356	-0.515234	-0.896904
C66	C	0.957670	-0.433958	-0.919848
C67	C	1.004634	-0.491709	-0.692262
C68	C	1.004622	-0.491739	-0.626829
C69	C	0.910655	-0.376404	-0.612955
C70	C	0.910665	-0.376382	-0.678388
C71	C	0.957658	-0.434033	-0.718037
C72	C	0.957611	-0.434134	-0.191331
C73	C	0.957692	-0.433900	-0.121662
H74	H	0.209212	-0.538595	-0.293889
O75	O	1.055312	-0.553900	-0.735030
H76	H	1.082360	-0.513517	-0.759987
O77	O	0.742045	-0.553956	-0.285080
H78	H	0.791888	-0.544288	-0.290654
O79	O	0.834633	-1.102576	-0.230914
H80	H	0.843230	-1.084519	-0.179574
O81	O	0.546125	-0.603073	-0.363964
H82	H	0.595492	-0.589435	-0.363155
O83	O	0.988228	-0.602881	-0.806692
H84	H	1.036852	-0.636452	-0.823292
H85	H	0.706636	-0.329743	-0.414380
H86	H	0.926202	-0.777652	-0.322688
O87	O	0.309818	-0.314402	-0.423166
H88	H	0.361973	-0.324098	-0.417591
H89	H	0.872440	-0.329328	-0.984288
O90	O	1.009709	-1.200066	-0.406226
H91	H	1.059958	-1.224836	-0.396586
H92	H	0.587924	-0.329703	-0.414377
O93	O	0.369730	-0.265264	-0.344285
H94	H	0.378284	-0.231707	-0.384868
H95	H	0.823123	-0.919232	-0.219429
O96	O	0.860033	-0.314040	-1.109817
H97	H	0.827362	-0.273948	-1.071251
H98	H	0.416199	-0.581564	-0.362732
H99	H	0.931029	-0.286581	-0.777348
H100	H	1.042928	-0.538546	-1.009464
H101	H	1.042935	-0.538514	-1.128167
O102	O	0.927245	-0.265082	-0.902157
H103	H	0.884992	-0.266457	-0.932161
O104	O	0.606038	-0.553928	-0.285093
H105	H	0.553886	-0.544247	-0.290680
H106	H	1.069049	-1.089540	-0.465676
H107	H	0.885457	-0.833605	-0.281870
O108	O	0.988184	-0.602863	-0.942728
H109	H	1.036789	-0.636514	-0.934222
O110	O	1.104136	-0.960586	-0.500851
H111	H	1.106248	-1.034008	-0.502961
O112	O	1.080559	-0.764821	-0.477264
H113	H	1.064994	-0.691431	-0.461680
H114	H	0.327926	-0.538628	-0.293883
O115	O	1.055301	-0.553929	-0.599023
H116	H	1.087982	-0.594001	-0.637588
O117	O	0.173803	-0.314367	-0.423166
H118	H	0.202769	-0.274333	-0.446265
O119	O	0.505748	-0.265307	-0.344277
H120	H	0.465250	-0.208797	-0.340975
H121	H	0.872400	-0.329463	-0.580667
H122	H	0.872411	-0.329420	-0.699373
