data_functionalizedCrystal
_audit_creation_method	'MofGen! by Chris Wilmer'
_symmetry_space_group_name_H-M	'P1'
_symmetry_Int_Tables_number	1
_symmetry_cell_setting	triclinic
loop_
_symmetry_equiv_pos_as_xyz
  x,y,z
_cell_length_a	16.956993
_cell_length_b	16.956984
_cell_length_c	16.053802
_cell_angle_alpha	87.627659
_cell_angle_beta	92.393434
_cell_angle_gamma	76.054060
loop_
_atom_site_label
_atom_site_type_symbol
_atom_site_fract_x
_atom_site_fract_y
_atom_site_fract_z
O1	O	-1.059454	-0.029596	-0.069514
O2	O	-0.726121	0.303738	0.263820
O3	O	-0.392787	0.637071	0.597153
O4	O	-0.825443	-0.057712	-0.069497
O5	O	-0.492109	0.275621	0.263837
O6	O	-0.158776	0.608955	0.597170
O7	O	-0.956507	0.073351	-0.069500
O8	O	-0.623174	0.406685	0.263833
O9	O	-0.289840	0.740018	0.597166
O10	O	-0.928389	-0.160659	-0.069510
O11	O	-0.595056	0.172674	0.263823
O12	O	-0.261723	0.506008	0.597157
O13	O	-0.949295	0.066165	0.069359
O14	O	-0.615961	0.399498	0.402692
O15	O	-0.282628	0.732832	0.736025
O16	O	-0.818230	-0.064898	0.069362
O17	O	-0.484897	0.268435	0.402696
O18	O	-0.151564	0.601768	0.736029
O19	O	-1.052242	-0.036782	0.069346
O20	O	-0.718908	0.296551	0.402679
O21	O	-0.385575	0.629885	0.736012
Zn22	Zn	-0.934091	-0.051981	0.091401
Zn23	Zn	-0.600757	0.281352	0.424734
Zn24	Zn	-0.267424	0.614686	0.758067
Zn25	Zn	-0.943593	-0.042513	-0.091552
Zn26	Zn	-0.610260	0.290820	0.241781
Zn27	Zn	-0.276927	0.624154	0.575115
O28	O	-0.921177	-0.167845	0.069349
O29	O	-0.587844	0.165488	0.402682
O30	O	-0.254510	0.498821	0.736016
C31	C	-0.792033	-0.062745	-0.000065
C32	C	-0.458700	0.270589	0.333268
C33	C	-0.125367	0.603922	0.666602
C34	C	-0.703231	-0.067025	-0.000058
C35	C	-0.369897	0.266309	0.333275
C36	C	-0.036564	0.599642	0.666608
C37	C	-0.201821	-0.099041	-0.000078
C38	C	0.131513	0.234293	0.333255
C39	C	0.464846	0.567626	0.666588
C40	C	-0.285262	-0.095013	-0.000080
C41	C	0.048072	0.238320	0.333254
C42	C	0.381405	0.571654	0.666587
C43	C	-0.341333	-0.019412	-0.000071
C44	C	-0.008000	0.313921	0.333262
C45	C	0.325334	0.647254	0.666595
C46	C	-0.313961	0.052166	-0.000070
C47	C	0.019373	0.385499	0.333263
C48	C	0.352706	0.718832	0.666596
C49	C	-0.230521	0.048138	-0.000075
C50	C	0.102812	0.381471	0.333258
C51	C	0.436145	0.714804	0.666592
C52	C	-0.592419	0.000525	-0.000062
C53	C	-0.259086	0.333859	0.333271
C54	C	0.074248	0.667192	0.666605
C55	C	-0.675863	0.004548	-0.000055
C56	C	-0.342529	0.337881	0.333278
C57	C	-0.009196	0.671215	0.666612
C58	C	-0.647158	-0.142631	-0.000066
C59	C	-0.313825	0.190702	0.333268
C60	C	0.019509	0.524035	0.666601
C61	C	-0.563718	-0.146653	-0.000065
C62	C	-0.230385	0.186680	0.333268
C63	C	0.102948	0.520014	0.666601
C64	C	-0.536354	-0.075075	-0.000069
C65	C	-0.203020	0.258259	0.333265
C66	C	0.130313	0.591592	0.666598
N67	N	-0.426623	-0.015294	-0.000070
N68	N	-0.093290	0.318039	0.333263
N69	N	0.240044	0.651373	0.666597
N70	N	-0.451065	-0.079194	-0.000076
N71	N	-0.117732	0.254140	0.333257
N72	N	0.215602	0.587473	0.666591
C73	C	-0.085651	-0.031749	-0.000082
C74	C	0.247683	0.301584	0.333252
C75	C	0.581016	0.634918	0.666585
C76	C	-0.174453	-0.027468	-0.000075
C77	C	0.158880	0.305865	0.333259
C78	C	0.492214	0.639199	0.666592
N79	N	-0.927611	-0.058442	0.216261
N80	N	-0.594278	0.274891	0.549595
N81	N	-0.260945	0.608225	0.882928
C82	C	-0.954341	0.099561	-0.000071
C83	C	-0.621007	0.432895	0.333262
C84	C	-0.287674	0.766228	0.666596
C85	C	-0.958621	0.188364	-0.000072
C86	C	-0.625288	0.521697	0.333261
C87	C	-0.291955	0.855031	0.666594
C88	C	-0.923344	-0.194055	-0.000082
C89	C	-0.590010	0.139278	0.333251
C90	C	-0.256677	0.472612	0.666585
C91	C	-0.919063	-0.282858	-0.000086
C92	C	-0.585730	0.050476	0.333247
C93	C	-0.252396	0.383809	0.666580
C94	C	-0.887048	0.215731	-0.000071
C95	C	-0.553715	0.549064	0.333263
C96	C	-0.220382	0.882398	0.666596
C97	C	-0.891075	0.299172	-0.000069
C98	C	-0.557742	0.632505	0.333265
C99	C	-0.224409	0.965838	0.666598
C100	C	-0.966676	0.355244	-0.000074
C101	C	-0.633343	0.688577	0.333259
C102	C	-0.300010	1.021911	0.666592
C103	C	-1.038255	0.327872	-0.000073
C104	C	-0.704921	0.661206	0.333260
C105	C	-0.371588	0.994539	0.666593
C106	C	-1.034227	0.244433	-0.000069
C107	C	-0.700893	0.577766	0.333264
C108	C	-0.367560	0.911099	0.666597
C109	C	-0.986614	0.606331	-0.000081
C110	C	-0.653280	0.939664	0.333252
C111	C	-0.319947	1.272998	0.666585
C112	C	-0.990636	0.689775	-0.000088
C113	C	-0.657303	1.023109	0.333246
C114	C	-0.323970	1.356442	0.666579
C115	C	-0.843456	0.661069	-0.000082
C116	C	-0.510123	0.994402	0.333252
C117	C	-0.176789	1.327736	0.666585
C118	C	-0.839435	0.577629	-0.000083
C119	C	-0.506102	0.910963	0.333251
C120	C	-0.172768	1.244296	0.666584
C121	C	-0.911013	0.550264	-0.000077
C122	C	-0.577680	0.883598	0.333256
C123	C	-0.244346	1.216931	0.666589
N124	N	-0.970794	0.440534	-0.000075
N125	N	-0.637461	0.773867	0.333258
N126	N	-0.304128	1.107201	0.666592
N127	N	-0.906894	0.464975	-0.000071
N128	N	-0.573561	0.798309	0.333263
N129	N	-0.240227	1.131642	0.666596
N130	N	-0.950079	-0.036045	-0.216413
N131	N	-0.616746	0.297288	0.116921
N132	N	-0.283413	0.630621	0.450254
C133	C	-0.983397	-0.002692	0.259954
C134	C	-0.650064	0.330642	0.593287
C135	C	-0.316731	0.663975	0.926620
C136	C	-0.978872	-0.007218	0.347361
C137	C	-0.645539	0.326115	0.680694
C138	C	-0.312205	0.659448	1.014027
C139	C	-0.918564	-0.067499	0.391073
C140	C	-0.585230	0.265834	0.724407
C141	C	-0.251897	0.599167	1.057740
C142	C	-0.862772	-0.123252	0.347375
C143	C	-0.529439	0.210081	0.680708
C144	C	-0.196105	0.543414	1.014042
C145	C	-0.867294	-0.118721	0.259970
C146	C	-0.533961	0.214612	0.593303
C147	C	-0.200628	0.547945	0.926636
C148	C	-0.898810	-0.087267	0.652484
C149	C	-0.565477	0.246066	0.985817
C150	C	-0.232144	0.579399	1.319150
C151	C	-0.894293	-0.091796	0.739895
C152	C	-0.560960	0.241538	1.073228
C153	C	-0.227627	0.574871	1.406562
C154	C	-1.010393	0.024240	0.739875
C155	C	-0.677060	0.357573	1.073208
C156	C	-0.343726	0.690907	1.406541
C157	C	-1.014913	0.028762	0.652468
C158	C	-0.681580	0.362096	0.985801
C159	C	-0.348247	0.695429	1.319134
C160	C	-0.959119	-0.026988	0.608777
C161	C	-0.625786	0.306345	0.942110
C162	C	-0.292452	0.639679	1.275443
N163	N	-0.913938	-0.072129	0.480417
N164	N	-0.580605	0.261204	0.813751
N165	N	-0.247271	0.594538	1.147084
N166	N	-0.963742	-0.022354	0.519435
N167	N	-0.630408	0.310980	0.852768
N168	N	-0.297075	0.644313	1.186101
H169	H	-0.307540	-0.153295	-0.000090
H170	H	0.025794	0.180039	0.333243
H171	H	0.359127	0.513372	0.666576
Cl172	Cl	-0.746353	0.099596	-0.000046
Cl173	Cl	-0.413020	0.432929	0.333287
Cl174	Cl	-0.079686	0.766263	0.666621
H175	H	-1.044897	0.584062	-0.000079
H176	H	-0.711564	0.917395	0.333254
H177	H	-0.378231	1.250728	0.666588
H178	H	-0.518069	-0.208215	-0.000075
H179	H	-0.184736	0.125118	0.333259
H180	H	0.148597	0.458452	0.666592
H181	H	-1.064021	0.077848	0.616878
H182	H	-0.730688	0.411181	0.950212
H183	H	-0.397354	0.744515	1.283545
Cl184	Cl	-0.753478	0.695476	-0.000086
Cl185	Cl	-0.420145	1.028809	0.333247
Cl186	Cl	-0.086811	1.362143	0.666580
Cl187	Cl	-0.196117	0.138119	-0.000070
Cl188	Cl	0.137216	0.471452	0.333263
Cl189	Cl	0.470550	0.804785	0.666596
Cl190	Cl	-0.384451	0.147207	-0.000062
Cl191	Cl	-0.051117	0.480541	0.333272
Cl192	Cl	0.282216	0.813874	0.666605
Cl193	Cl	-0.681566	-0.232609	-0.000069
Cl194	Cl	-0.348232	0.100724	0.333265
Cl195	Cl	-0.014899	0.434057	0.666598
H196	H	-0.570149	0.058809	-0.000063
H197	H	-0.236816	0.392143	0.333271
H198	H	0.096517	0.725476	0.666604
H199	H	-0.825486	0.170081	-0.000070
H200	H	-0.492152	0.503415	0.333263
H201	H	-0.158819	0.836748	0.666596
H202	H	-1.032510	0.046392	0.224368
H203	H	-0.699177	0.379726	0.557702
H204	H	-0.365843	0.713059	0.891035
H205	H	-1.052203	0.735430	-0.000098
H206	H	-0.718870	1.068763	0.333236
H207	H	-0.385537	1.402097	0.666569
H208	H	-0.853382	-0.132663	0.616917
H209	H	-0.520048	0.200670	0.950251
H210	H	-0.186715	0.534004	1.283584
H211	H	-0.832793	0.321449	-0.000074
H212	H	-0.499460	0.654782	0.333260
H213	H	-0.166126	0.988116	0.666593
H214	H	-1.099810	0.373533	-0.000072
H215	H	-0.766477	0.706866	0.333261
H216	H	-0.433144	1.040200	0.666594
H217	H	-0.777873	0.531979	-0.000081
H218	H	-0.444539	0.865313	0.333253
H219	H	-0.111206	1.198646	0.666586
H220	H	-1.092509	0.222153	-0.000069
H221	H	-0.759176	0.555486	0.333264
H222	H	-0.425842	0.888820	0.666598
Cl223	Cl	-1.049003	0.062870	0.402290
Cl224	Cl	-0.715670	0.396203	0.735623
Cl225	Cl	-0.382337	0.729536	1.068956
Cl226	Cl	-0.818471	-0.167586	0.794843
Cl227	Cl	-0.485137	0.165747	1.128176
Cl228	Cl	-0.151804	0.499080	1.461509
H229	H	-1.055817	0.069630	0.775456
H230	H	-0.722484	0.402963	1.108789
H231	H	-0.389151	0.736297	1.442122
H232	H	-0.813664	-0.172332	0.382971
H233	H	-0.480330	0.161001	0.716304
H234	H	-0.146997	0.494335	1.049638
H235	H	-0.821867	-0.164118	0.224396
H236	H	-0.488533	0.169215	0.557729
H237	H	-0.155200	0.502548	0.891063
H238	H	-0.156171	-0.160604	-0.000079
H239	H	0.177162	0.172730	0.333255
H240	H	0.510495	0.506063	0.666588
