data_functionalizedCrystal
_audit_creation_method	'MofGen! by Chris Wilmer'
_symmetry_space_group_name_H-M	'P1'
_symmetry_Int_Tables_number	1
_symmetry_cell_setting	triclinic
loop_
_symmetry_equiv_pos_as_xyz
  x,y,z
_cell_length_a	15.625020
_cell_length_b	15.538191
_cell_length_c	11.804365
_cell_angle_alpha	82.910114
_cell_angle_beta	119.389252
_cell_angle_gamma	66.738808
loop_
_atom_site_label
_atom_site_type_symbol
_atom_site_fract_x
_atom_site_fract_y
_atom_site_fract_z
O1	O	1.321244	-0.005490	0.669651
O2	O	1.022088	0.033933	0.540449
O3	O	1.229901	-0.127664	0.630207
O4	O	1.113432	0.156108	0.579894
O5	O	1.175206	-0.085161	0.408527
O6	O	0.967393	0.076436	0.318770
O7	O	1.266549	0.037013	0.447972
Cu8	Cu	1.111977	0.060606	0.363129
Cu9	Cu	1.176660	0.010341	0.625291
O10	O	1.058736	0.198611	0.358214
C11	C	0.957389	0.057615	0.413478
C12	C	0.846096	0.064845	0.365412
C13	C	1.214740	-0.142504	0.524634
C14	C	1.251040	-0.250044	0.540323
C15	C	0.659420	0.098200	0.176837
C16	C	0.764000	0.091405	0.222016
C17	C	0.823639	0.045065	0.463687
C18	C	0.719064	0.051852	0.418529
C19	C	0.636961	0.078421	0.275102
C20	C	0.696605	0.032073	0.516795
C21	C	0.592037	0.038864	0.471639
C22	C	0.509928	0.065435	0.328218
C23	C	0.532393	0.085213	0.229947
C24	C	0.778706	0.005510	0.660220
C25	C	0.756248	-0.014269	0.758486
C26	C	0.651681	-0.007484	0.713332
C27	C	0.569572	0.019087	0.569911
C28	C	0.629216	-0.027262	0.811603
C29	C	0.524648	-0.020470	0.766447
C30	C	0.465004	0.025879	0.524755
C31	C	0.890437	-0.508383	0.384558
C32	C	0.924568	-0.609436	0.399296
C33	C	1.116549	-0.647556	0.482211
C34	C	1.082436	-0.546506	0.467486
C35	C	0.969379	-0.476926	0.418658
C36	C	1.161378	-0.515049	0.501586
C37	C	1.127265	-0.414007	0.486856
C38	C	1.014212	-0.344421	0.438025
C39	C	0.935266	-0.375884	0.403927
C40	C	1.274433	-0.584629	0.550405
C41	C	1.353374	-0.553172	0.584505
C42	C	1.319265	-0.452130	0.569784
C43	C	1.206211	-0.382544	0.520954
C44	C	1.398210	-0.420667	0.603883
C45	C	1.364098	-0.319624	0.589152
C46	C	1.172098	-0.281501	0.506223
C47	C	1.331250	0.013331	0.574946
C48	C	1.442545	0.006099	0.623020
C49	C	1.073898	0.213450	0.463790
C50	C	1.037601	0.320989	0.448109
N51	N	1.066490	0.095958	0.178742
C52	C	1.331396	-0.109932	-0.080789
C53	C	1.365808	-0.136680	0.058735
C54	C	1.290981	-0.078523	0.088744
C55	C	1.181737	0.006387	-0.020786
C56	C	1.147326	0.033142	-0.160322
C57	C	1.106911	0.064551	0.009211
C58	C	0.997667	0.149461	-0.100319
C59	C	0.963262	0.176212	-0.239841
C60	C	1.038088	0.118055	-0.269850
C61	C	1.141322	0.037796	0.148748
C62	C	0.957252	0.180870	0.069215
C63	C	0.922841	0.207618	-0.070310
N64	N	1.222158	-0.025020	0.809683
H65	H	0.398143	0.047526	0.407960
H66	H	0.874315	0.245357	-0.329021
C67	C	0.802667	0.300999	-0.190798
H68	H	0.763017	0.331798	-0.152957
H69	H	0.811129	0.348891	-0.235787
H70	H	0.759699	0.279903	-0.257979
C71	C	0.874940	0.244851	0.102210
H72	H	0.911075	0.216752	0.200993
H73	H	0.857234	0.313096	0.074134
H74	H	0.805738	0.244159	0.051881
H75	H	1.454753	-0.205812	0.147910
C76	C	1.240906	-0.724098	0.535925
H77	H	1.249920	-0.788783	0.539824
H78	H	1.255695	-0.700548	0.473252
H79	H	1.293828	-0.730196	0.627864
H80	H	0.843205	-0.319229	0.364176
H81	H	0.823107	-0.035898	0.875264
C82	C	0.976679	-0.233274	0.421817
H83	H	0.898039	-0.196341	0.387843
H84	H	1.023487	-0.232275	0.511099
H85	H	0.985336	-0.202629	0.356480
H86	H	0.863847	-0.000012	0.696980
C87	C	0.569175	0.127267	0.019104
H88	H	0.503709	0.128426	0.006302
H89	H	0.546197	0.192824	-0.035309
H90	H	0.601966	0.078420	-0.010971
C91	C	0.766078	-0.431842	0.330859
H92	H	0.723943	-0.465045	0.312656
H93	H	0.767861	-0.406458	0.400697
H94	H	0.729703	-0.376808	0.246074
C95	C	0.394901	0.072910	0.278535
H96	H	0.349219	0.091573	0.179042
H97	H	0.410044	0.008722	0.324949
H98	H	0.354464	0.123065	0.300942
C99	C	1.413692	-0.173892	-0.113805
H100	H	1.377548	-0.145798	-0.212591
H101	H	1.482889	-0.173202	-0.063475
H102	H	1.431398	-0.242142	-0.085735
H103	H	1.080038	-0.224846	0.466472
H104	H	0.860271	-0.635037	0.371504
H105	H	0.506362	-0.036574	0.846465
C106	C	1.000240	0.147479	-0.423326
H107	H	1.060454	0.100682	-0.425504
H108	H	0.932722	0.145486	-0.480706
H109	H	0.984219	0.214422	-0.458445
H110	H	1.302207	-0.666905	0.562409
C111	C	0.719531	-0.056482	0.969361
H112	H	0.785026	-0.057697	0.982180
H113	H	0.686855	-0.007726	0.999613
H114	H	0.742447	-0.122067	1.023616
C115	C	1.477731	-0.629714	0.638220
H116	H	1.486745	-0.694399	0.642118
H117	H	1.492520	-0.606164	0.575547
H118	H	1.530653	-0.635812	0.730159
H119	H	0.782274	0.107520	0.141983
H120	H	0.890498	0.023436	0.580465
C121	C	0.442148	0.114280	0.072213
H122	H	0.376682	0.115438	0.059412
H123	H	0.419170	0.179836	0.017801
H124	H	0.474939	0.065433	0.042139
H125	H	1.319004	-0.100305	0.202353
C126	C	1.522563	-0.497208	0.657584
H127	H	1.531573	-0.561891	0.661476
H128	H	1.537345	-0.473653	0.594905
H129	H	1.575493	-0.503312	0.749524
H130	H	1.230268	-0.031338	0.237916
C131	C	1.450930	-0.285018	0.626662
H132	H	1.523151	-0.340930	0.657864
H133	H	1.422538	-0.231569	0.545334
H134	H	1.460685	-0.261219	0.699952
