data_functionalizedCrystal
_audit_creation_method	'MofGen! by Chris Wilmer'
_symmetry_space_group_name_H-M	'P1'
_symmetry_Int_Tables_number	1
_symmetry_cell_setting	triclinic
loop_
_symmetry_equiv_pos_as_xyz
  x,y,z
_cell_length_a	9.065218
_cell_length_b	9.065218
_cell_length_c	8.140239
_cell_angle_alpha	90.003526
_cell_angle_beta	90.000461
_cell_angle_gamma	85.015885
loop_
_atom_site_label
_atom_site_type_symbol
_atom_site_fract_x
_atom_site_fract_y
_atom_site_fract_z
O1	O	-1.960393	-0.216359	-0.136610
O2	O	-1.627059	0.116974	0.196723
O3	O	-1.293726	0.450308	0.530056
O4	O	-1.531108	-0.234105	-0.136612
O5	O	-1.197774	0.099228	0.196721
O6	O	-0.864441	0.432561	0.530055
O7	O	-1.754623	-0.010590	-0.136608
O8	O	-1.421290	0.322744	0.196726
O9	O	-1.087957	0.656077	0.530059
O10	O	-1.736877	-0.439875	-0.136615
O11	O	-1.403544	-0.106541	0.196719
O12	O	-1.070210	0.226792	0.530052
O13	O	-1.754622	-0.010578	0.136619
O14	O	-1.421288	0.322755	0.469953
O15	O	-1.087955	0.656088	0.803286
O16	O	-1.531106	-0.234094	0.136615
O17	O	-1.197773	0.099239	0.469948
O18	O	-0.864439	0.432573	0.803282
O19	O	-1.960391	-0.216347	0.136617
O20	O	-1.627058	0.116986	0.469950
O21	O	-1.293724	0.450319	0.803283
Zn22	Zn	-1.745748	-0.225219	0.179997
Zn23	Zn	-1.412415	0.108114	0.513330
Zn24	Zn	-1.079082	0.441448	0.846663
Zn25	Zn	-1.745750	-0.225234	-0.179992
Zn26	Zn	-1.412417	0.108099	0.153341
Zn27	Zn	-1.079084	0.441433	0.486675
O28	O	-1.736875	-0.439863	0.136613
O29	O	-1.403542	-0.106530	0.469946
O30	O	-1.070209	0.226804	0.803279
C31	C	-1.476120	-0.232394	0.000001
C32	C	-1.142787	0.100939	0.333335
C33	C	-0.809454	0.434273	0.666668
C34	C	-1.312277	-0.227294	0.000000
C35	C	-0.978944	0.106039	0.333334
C36	C	-0.645611	0.439372	0.666667
C37	C	-1.752917	0.044403	0.000003
C38	C	-1.419584	0.377736	0.333336
C39	C	-1.086250	0.711069	0.666670
C40	C	-1.747817	0.208245	-0.000005
C41	C	-1.414484	0.541579	0.333329
C42	C	-1.081151	0.874912	0.666662
N43	N	-1.745753	-0.225234	-0.425674
N44	N	-1.412419	0.108100	-0.092341
N45	N	-1.079086	0.441433	0.240992
C46	C	-2.015378	-0.218059	-0.000000
C47	C	-1.682045	0.115275	0.333333
C48	C	-1.348712	0.448608	0.666667
C49	C	-2.179221	-0.223158	-0.000010
C50	C	-1.845888	0.110175	0.333323
C51	C	-1.512555	0.443508	0.666657
C52	C	-1.738582	-0.494855	-0.000002
C53	C	-1.405248	-0.161522	0.333331
C54	C	-1.071915	0.171811	0.666665
C55	C	-1.743681	-0.658698	-0.000005
C56	C	-1.410348	-0.325365	0.333328
C57	C	-1.077015	0.007968	0.666662
N58	N	-1.745757	-0.225208	0.425679
N59	N	-1.412424	0.108126	0.759012
N60	N	-1.079091	0.441459	1.092346
