data_functionalizedCrystal
_audit_creation_method	'MofGen! by Chris Wilmer'
_symmetry_space_group_name_H-M	'P1'
_symmetry_Int_Tables_number	1
_symmetry_cell_setting	triclinic
loop_
_symmetry_equiv_pos_as_xyz
  x,y,z
_cell_length_a	11.792241
_cell_length_b	11.792241
_cell_length_c	15.455425
_cell_angle_alpha	92.970651
_cell_angle_beta	92.978582
_cell_angle_gamma	84.193416
loop_
_atom_site_label
_atom_site_type_symbol
_atom_site_fract_x
_atom_site_fract_y
_atom_site_fract_z
O1	O	1.511366	0.160002	0.072046
O2	O	1.181026	0.176037	0.072066
O3	O	1.354212	0.002849	0.072049
O4	O	1.338180	0.333190	0.072063
O5	O	1.345272	-0.006036	-0.072210
O6	O	1.172086	0.167152	-0.072193
O7	O	1.502426	0.151117	-0.072214
Cu8	Cu	1.336440	0.158323	-0.085376
Cu9	Cu	1.347013	0.168831	0.085228
O10	O	1.329240	0.324305	-0.072197
C11	C	1.134265	0.170587	-0.000061
C12	C	1.008252	0.167573	-0.000054
C13	C	1.348735	-0.043885	-0.000080
C14	C	1.345721	-0.169899	-0.000079
C15	C	1.340179	-0.400610	-0.000064
C16	C	1.343258	-0.272225	-0.000072
C17	C	0.777538	0.162029	-0.000079
C18	C	0.905924	0.165109	-0.000065
C19	C	1.549187	0.156567	-0.000085
C20	C	1.675200	0.159581	-0.000086
C21	C	1.334717	0.371039	-0.000066
C22	C	1.337732	0.497053	-0.000061
N23	N	1.329011	0.150932	-0.205369
C24	C	1.288002	0.109726	-0.749365
C25	C	1.293613	0.115360	-0.658559
C26	C	1.365666	0.187486	-0.613168
C27	C	1.432121	0.253975	-0.658587
C28	C	1.426516	0.248335	-0.749392
C29	C	1.389861	0.211781	-0.341593
C30	C	1.395459	0.217419	-0.250782
C31	C	1.256951	0.078801	-0.250760
C32	C	1.251347	0.073172	-0.341567
C33	C	1.317807	0.139657	-0.386978
N34	N	1.371400	0.193249	-0.520349
N35	N	1.312079	0.133887	-0.479795
N36	N	1.354450	0.176213	0.205221
H37	H	1.239507	0.061216	-0.621588
O38	O	1.461531	0.283500	-0.390563
H39	H	1.519660	0.226935	-0.431909
H40	H	1.480626	0.302475	-0.786366
H41	H	1.454131	0.276161	-0.213827
H42	H	1.229322	0.050999	-0.786317
H43	H	1.490794	0.312697	-0.621622
H44	H	1.192676	0.014437	-0.378518
O45	O	1.185341	0.007054	-0.201758
H46	H	1.127230	0.063588	-0.160377
