data_functionalizedCrystal
_audit_creation_method	'MofGen! by Chris Wilmer'
_symmetry_space_group_name_H-M	'P1'
_symmetry_Int_Tables_number	1
_symmetry_cell_setting	triclinic
loop_
_symmetry_equiv_pos_as_xyz
  x,y,z
_cell_length_a	16.625547
_cell_length_b	18.050590
_cell_length_c	16.625539
_cell_angle_alpha	89.970044
_cell_angle_beta	89.975178
_cell_angle_gamma	90.018489
loop_
_atom_site_label
_atom_site_type_symbol
_atom_site_fract_x
_atom_site_fract_y
_atom_site_fract_z
Zn1	Zn	1.232702	-0.295659	-0.455992
Zn2	Zn	1.232615	-0.419857	-0.321155
Zn3	Zn	1.097864	-0.295685	-0.321162
Zn4	Zn	1.097844	-0.419812	-0.455935
O5	O	1.165256	-0.357753	-0.388561
O6	O	1.345523	-0.312142	-0.438126
O7	O	1.214712	-0.403415	-0.208323
O8	O	1.115796	-0.191757	-0.339074
O9	O	1.345459	-0.403390	-0.339062
O10	O	1.214861	-0.191738	-0.438133
O11	O	1.115711	-0.312186	-0.208329
O12	O	0.985029	-0.312143	-0.339019
O13	O	1.115761	-0.403313	-0.568775
O14	O	0.985014	-0.403338	-0.438036
O15	O	1.214841	-0.312099	-0.568817
O16	O	1.214692	-0.523776	-0.339007
O17	O	1.115676	-0.523742	-0.438029
C18	C	0.955766	-0.357739	-0.388523
C19	C	0.866144	-0.357751	-0.388526
C20	C	0.793362	-0.357752	-0.388536
C21	C	0.702054	-0.357756	-0.388556
C22	C	0.629277	-0.357763	-0.388576
C23	C	0.537963	-0.357768	-0.388596
C24	C	1.165194	-0.550705	-0.388529
C25	C	1.165242	-0.633251	-0.388542
C26	C	1.219198	-0.832693	-0.334769
C27	C	1.238896	-0.882024	-0.408360
C28	C	1.165287	-0.784382	-0.388574
C29	C	1.145672	-0.882132	-0.315016
C30	C	1.165333	-0.930367	-0.388599
C31	C	1.185022	-0.832625	-0.462204
C32	C	1.091765	-0.832730	-0.368810
C33	C	1.111434	-0.882038	-0.442452
C34	C	1.165263	-0.700283	-0.388559
C35	C	1.165357	-1.014463	-0.388622
C36	C	1.375565	-0.357768	-0.388600
C37	C	1.465186	-0.357775	-0.388616
C38	C	1.165309	-0.357698	-0.598870
C39	C	1.165331	-0.357674	-0.688491
C40	C	1.165341	-0.164048	-0.388611
C41	C	1.165376	-0.081502	-0.388632
C42	C	1.165368	-0.357591	-1.016667
C43	C	1.165356	-0.357617	-0.925358
C44	C	1.165350	-0.357633	-0.852582
C45	C	1.165337	-0.357658	-0.761268
C46	C	1.165251	-0.357755	-0.179070
C47	C	1.165384	-0.357569	-0.089449
H48	H	1.264804	-0.811025	-0.289314
C49	C	1.322915	-0.911280	-0.430970
C50	C	1.396124	-0.891796	-0.378351
C51	C	1.480145	-0.921047	-0.400956
C52	C	1.490958	-0.969783	-0.476180
C53	C	1.417748	-0.989270	-0.528804
C54	C	1.333726	-0.960019	-0.506199
H55	H	1.388121	-0.855716	-0.322661
H56	H	1.534341	-0.906621	-0.362000
H57	H	1.553156	-0.991437	-0.492914
H58	H	1.425750	-1.025350	-0.584494
H59	H	1.279531	-0.974445	-0.545155
C60	C	1.123226	-0.911508	-0.230966
C61	C	1.048048	-0.960349	-0.220037
C62	C	1.025610	-0.989722	-0.135987
C63	C	1.078350	-0.970253	-0.062865
C64	C	1.153533	-0.921409	-0.073792
C65	C	1.175971	-0.892036	-0.157843
H66	H	1.009002	-0.974764	-0.274168
H67	H	0.969954	-1.025880	-0.127899
H68	H	1.061740	-0.991997	-0.000646
H69	H	1.192579	-0.906995	-0.019661
H70	H	1.231627	-0.855879	-0.165931
C71	C	1.007768	-0.803445	-0.346180
C72	C	0.934290	-0.824025	-0.397926
C73	C	0.850293	-0.794738	-0.375285
C74	C	0.839773	-0.744871	-0.300898
C75	C	0.913253	-0.724288	-0.249148
C76	C	0.997250	-0.753575	-0.271788
H77	H	0.942076	-0.860942	-0.452995
H78	H	0.795899	-0.809975	-0.413595
H79	H	0.777593	-0.723191	-0.284138
H80	H	0.905467	-0.687370	-0.194078
H81	H	1.051644	-0.738337	-0.233479
H82	H	1.201570	-0.810971	-0.524475
H83	H	1.065863	-0.903568	-0.488017
