data_functionalizedCrystal
_audit_creation_method	'MofGen! by Chris Wilmer'
_symmetry_space_group_name_H-M	'P1'
_symmetry_Int_Tables_number	1
_symmetry_cell_setting	triclinic
loop_
_symmetry_equiv_pos_as_xyz
  x,y,z
_cell_length_a	19.077105
_cell_length_b	29.839131
_cell_length_c	19.076919
_cell_angle_alpha	87.732541
_cell_angle_beta	89.923776
_cell_angle_gamma	87.737628
loop_
_atom_site_label
_atom_site_type_symbol
_atom_site_fract_x
_atom_site_fract_y
_atom_site_fract_z
Zn1	Zn	1.058171	-0.217337	0.440392
Zn2	Zn	1.558171	0.282663	0.940392
Zn3	Zn	1.062777	-0.289569	0.322877
Zn4	Zn	1.562777	0.210431	0.822877
Zn5	Zn	0.945391	-0.211319	0.318186
Zn6	Zn	1.445391	0.288681	0.818186
Zn7	Zn	0.940599	-0.289298	0.435629
Zn8	Zn	1.440599	0.210702	0.935629
O9	O	1.001735	-0.251881	0.379271
O10	O	1.501735	0.248119	0.879271
O11	O	1.157112	-0.229551	0.428760
O12	O	1.657112	0.270449	0.928760
O13	O	1.051139	-0.276784	0.223924
O14	O	1.551139	0.223216	0.723924
O15	O	0.960429	-0.149253	0.334427
O16	O	1.460429	0.350747	0.834427
O17	O	1.160497	-0.282620	0.342422
O18	O	1.660497	0.217380	0.842422
O19	O	1.043288	-0.153674	0.424211
O20	O	1.543288	0.346326	0.924211
O21	O	0.964896	-0.219294	0.220477
O22	O	1.464896	0.280706	0.720477
O23	O	0.846425	-0.219031	0.329809
O24	O	1.346425	0.280969	0.829809
O25	O	0.952262	-0.282158	0.534592
O26	O	1.452262	0.217842	1.034592
O27	O	0.842904	-0.276322	0.416094
O28	O	1.342904	0.223678	0.916094
O29	O	1.038641	-0.229288	0.538091
O30	O	1.538641	0.270712	1.038091
O31	O	1.046493	-0.352398	0.337803
O32	O	1.546493	0.147602	0.837803
O33	O	0.956729	-0.352199	0.420642
O34	O	1.456729	0.147801	0.920642
C35	C	0.819169	-0.246995	0.371926
C36	C	1.319169	0.253005	0.871926
C37	C	0.741065	-0.244915	0.368801
C38	C	1.241065	0.255085	0.868801
C39	C	1.001609	-0.368599	0.379231
C40	C	1.501609	0.131401	0.879231
C41	C	1.001619	-0.418534	0.379240
C42	C	1.501619	0.081466	0.879240
C43	C	0.702560	-0.273809	0.412186
C44	C	1.202560	0.226191	0.912186
C45	C	0.629174	-0.271849	0.409252
C46	C	1.129174	0.228151	0.909252
C47	C	0.594294	-0.240998	0.362930
C48	C	1.094294	0.259002	0.862930
C49	C	0.632804	-0.212102	0.319543
C50	C	1.132804	0.287898	0.819543
C51	C	0.706189	-0.214059	0.322481
C52	C	1.206189	0.285941	0.822481
C53	C	0.375011	-0.231938	0.349338
C54	C	0.875011	0.268062	0.849338
C55	C	0.301621	-0.229984	0.346403
C56	C	0.801621	0.270016	0.846403
C57	C	0.297996	-0.289731	0.436113
C58	C	0.797996	0.210269	0.936113
C59	C	0.371382	-0.291688	0.439043
C60	C	0.871382	0.208312	0.939043
C61	C	0.409886	-0.262790	0.395659
C62	C	0.909886	0.237210	0.895659
N63	N	0.519281	-0.238996	0.359929
N64	N	1.019281	0.261004	0.859929
N65	N	0.484897	-0.264790	0.398664
N66	N	0.984897	0.235210	0.898664
C67	C	1.048554	-0.728276	0.336206
C68	C	1.548554	-0.228276	0.836206
C69	C	1.048639	-0.915952	0.336237
C70	C	1.548639	-0.415952	0.836237
O71	O	1.088445	-0.940297	0.299616
O72	O	1.588445	-0.440297	0.799616
N73	N	1.001878	-0.939328	0.379330
N74	N	1.501878	-0.439328	0.879330
C75	C	0.955095	-0.915782	0.422422
C76	C	1.455095	-0.415782	0.922422
O77	O	0.915329	-0.939972	0.459082
O78	O	1.415329	-0.439972	0.959082
C79	C	0.955014	-0.728107	0.422395
C80	C	1.455014	-0.228107	0.922395
C81	C	1.001773	-0.704734	0.379293
C82	C	1.501773	-0.204734	0.879293
C83	C	1.095310	-0.704902	0.293109
C84	C	1.595310	-0.204902	0.793109
C85	C	1.095285	-0.657986	0.293099
C86	C	1.595285	-0.157986	0.793099
C87	C	1.048505	-0.634443	0.336186
C88	C	1.548505	-0.134443	0.836186
C89	C	1.001749	-0.657817	0.379283
C90	C	1.501749	-0.157817	0.879283
C91	C	0.908235	-0.704563	0.465490
C92	C	1.408235	-0.204563	0.965490
C93	C	0.908220	-0.657641	0.465480
C94	C	1.408220	-0.157641	0.965480
C95	C	0.954979	-0.634267	0.422379
C96	C	1.454979	-0.134267	0.922379
C97	C	0.954944	-0.587358	0.422360
C98	C	1.454944	-0.087358	0.922360
N99	N	1.001705	-0.563982	0.379267
N100	N	1.501705	-0.063982	0.879267
C101	C	1.048485	-0.587525	0.336180
C102	C	1.548485	-0.087525	0.836180
C103	C	0.955141	-1.014314	0.422432
C104	C	1.455141	-0.514314	0.922432
C105	C	0.955160	-1.061233	0.422439
C106	C	1.455160	-0.561233	0.922439
C107	C	1.048705	-1.061399	0.336254
C108	C	1.548705	-0.561399	0.836254
C109	C	1.048682	-1.014480	0.336245
C110	C	1.548682	-0.514480	0.836245
C111	C	1.001902	-0.990938	0.379339
C112	C	1.501902	-0.490938	0.879339
C113	C	1.048430	-0.488997	0.336161
C114	C	1.548430	0.011003	0.836161
C115	C	1.048399	-0.442077	0.336153
C116	C	1.548399	0.057923	0.836153
C117	C	0.954857	-0.441914	0.422340
C118	C	1.454857	0.058086	0.922340
C119	C	0.954885	-0.488831	0.422346
C120	C	1.454885	0.011169	0.922346
C121	C	1.001677	-0.512371	0.379255
C122	C	1.501677	-0.012371	0.879255
O123	O	0.915164	-0.562985	0.458967
O124	O	1.415164	-0.062985	0.958967
O125	O	1.088256	-0.563328	0.299537
O126	O	1.588256	-0.063328	0.799537
C127	C	1.048578	-0.775192	0.336216
C128	C	1.548578	-0.275192	0.836216
C129	C	1.001822	-0.798566	0.379313
C130	C	1.501822	-0.298566	0.879313
C131	C	0.955041	-0.775024	0.422401
C132	C	1.455041	-0.275024	0.922401
C133	C	1.001841	-0.845485	0.379319
C134	C	1.501841	-0.345485	0.879319
C135	C	1.048622	-0.869027	0.336232
C136	C	1.548622	-0.369027	0.836232
C137	C	1.095383	-0.845651	0.293139
C138	C	1.595383	-0.345651	0.793139
C139	C	1.095359	-0.798735	0.293129
C140	C	1.595359	-0.298735	0.793129
C141	C	0.908280	-0.798400	0.465494
C142	C	1.408280	-0.298400	0.965494
C143	C	0.908308	-0.845316	0.465500
C144	C	1.408308	-0.345316	0.965500
C145	C	0.955089	-0.868859	0.422413
C146	C	1.455089	-0.368859	0.922413
C147	C	1.185013	-0.256787	0.386645
C148	C	1.685013	0.243213	0.886645
C149	C	1.263116	-0.258877	0.389788
C150	C	1.763116	0.241123	0.889788
C151	C	0.994403	-0.256364	0.562551
C152	C	1.494403	0.243636	1.062551
C153	C	0.991279	-0.258274	0.640654
C154	C	1.491279	0.241726	1.140654
C155	C	1.001879	-0.134708	0.379327
C156	C	1.501879	0.365292	0.879327
C157	C	1.001941	-0.084775	0.379351
C158	C	1.501941	0.415225	0.879351
C159	C	1.009078	-0.247384	0.196706
C160	C	1.509078	0.252616	0.696706
C161	C	1.012338	-0.245351	0.118609
C162	C	1.512338	0.254649	0.618609
C163	C	1.034782	-0.231647	0.679169
C164	C	1.534782	0.268353	1.179169
C165	C	1.031838	-0.233440	0.752555
C166	C	1.531838	0.266560	1.252555
C167	C	0.985394	-0.261863	0.787424
C168	C	1.485394	0.238137	1.287424
C169	C	0.941886	-0.288492	0.748903
C170	C	1.441886	0.211508	1.248903
C171	C	0.944827	-0.286696	0.675518
C172	C	1.444827	0.213304	1.175518
C173	C	0.971772	-0.270184	1.006704
C174	C	1.471772	0.229816	1.506704
C175	C	0.968835	-0.271978	1.080093
C176	C	1.468835	0.228022	1.580093
C177	C	1.058787	-0.216925	1.083741
C178	C	1.558787	0.283075	1.583741
C179	C	1.061727	-0.215134	1.010355
C180	C	1.561727	0.284866	1.510355
C181	C	1.018216	-0.241761	0.971840
C182	C	1.518216	0.258239	1.471840
N183	N	0.982385	-0.263698	0.862436
N184	N	1.482385	0.236302	1.362436
N185	N	1.021222	-0.239924	0.896830
N186	N	1.521222	0.260076	1.396830
H187	H	0.730954	-0.298932	0.449904
H188	H	1.230954	0.201068	0.949904
H189	H	0.916812	-0.507863	0.457445
H190	H	1.416812	-0.007863	0.957445
F191	F	0.595680	-0.179265	0.270247
F192	F	1.095680	0.320735	0.770247
F193	F	0.858472	-0.729429	0.511371
F194	F	1.358472	-0.229429	1.011371
F195	F	1.145106	-0.729951	0.247246
F196	F	1.645106	-0.229951	0.747246
H197	H	1.094209	-0.195246	1.115107
H198	H	1.594209	0.304754	1.615107
H199	H	1.086757	-0.995452	0.301148
H200	H	1.586757	-0.495452	0.801148
F201	F	0.905385	-1.086104	0.468305
F202	F	1.405385	-0.586104	0.968305
H203	H	0.904068	-0.311633	0.777298
H204	H	1.404068	0.188367	1.277298
F205	F	0.747168	-0.183306	0.276306
F206	F	1.247168	0.316694	0.776306
F207	F	0.898523	-0.315036	0.634527
F208	F	1.398523	0.184964	1.134527
F209	F	0.858535	-0.870187	0.511376
F210	F	1.358535	-0.370187	1.011376
H211	H	0.870187	-0.779235	0.500582
H212	H	1.370187	-0.279235	1.000582
H213	H	1.086796	-1.080576	0.301171
H214	H	1.586796	-0.580576	0.801171
F215	F	1.084218	-0.201397	0.642066
F216	F	1.584218	0.298603	1.142066
H217	H	0.916767	-0.422739	0.457419
H218	H	1.416767	0.077261	0.957419
F219	F	1.078164	-0.205115	0.793544
F220	F	1.578164	0.294885	1.293544
H221	H	0.870127	-0.638476	0.500576
H222	H	1.370127	-0.138476	1.000576
H223	H	1.099548	-0.191990	0.981970
H224	H	1.599548	0.308010	1.481970
H225	H	0.597826	-0.295378	0.444580
H226	H	1.097826	0.204622	0.944580
H227	H	0.931013	-0.295125	1.108481
H228	H	1.431013	0.204875	1.608481
F229	F	0.925464	-0.298523	0.965723
F230	F	1.425464	0.201477	1.465723
H231	H	0.399777	-0.316811	0.476762
H232	H	0.899777	0.183189	0.976762
F233	F	0.905347	-0.989265	0.468302
F234	F	1.405347	-0.489265	0.968302
H235	H	0.406352	-0.208411	0.314006
H236	H	0.906352	0.291589	0.814006
H237	H	0.273224	-0.204856	0.308686
H238	H	0.773224	0.295144	0.808686
F239	F	0.257013	-0.320485	0.482281
F240	F	0.757013	0.179515	0.982281
H241	H	1.086476	-0.423047	0.301052
H242	H	1.586476	0.076953	0.801052
H243	H	1.086534	-0.508158	0.301074
H244	H	1.586534	-0.008158	0.801074
F245	F	1.145129	-0.773865	0.247256
F246	F	1.645129	-0.273865	0.747256
H247	H	1.133472	-0.864828	0.258053
H248	H	1.633472	-0.364828	0.758053
F249	F	1.145061	-0.633116	0.247232
F250	F	1.645061	-0.133116	0.747232
