data_functionalizedCrystal
_audit_creation_method	'MofGen! by Chris Wilmer'
_symmetry_space_group_name_H-M	'P1'
_symmetry_Int_Tables_number	1
_symmetry_cell_setting	triclinic
loop_
_symmetry_equiv_pos_as_xyz
  x,y,z
_cell_length_a	17.000371
_cell_length_b	7.540329
_cell_length_c	9.065218
_cell_angle_alpha	89.998243
_cell_angle_beta	80.307566
_cell_angle_gamma	89.996638
loop_
_atom_site_label
_atom_site_type_symbol
_atom_site_fract_x
_atom_site_fract_y
_atom_site_fract_z
O1	O	1.056484	-0.147488	0.053109
O2	O	1.556484	0.352512	0.553109
O3	O	0.825137	-0.147488	0.106602
O4	O	1.325137	0.352512	0.606602
O5	O	0.945592	-0.147484	-0.135526
O6	O	1.445592	0.352516	0.364474
O7	O	0.936028	-0.147491	0.295237
O8	O	1.436028	0.352509	0.795237
O9	O	0.945585	0.147481	-0.135528
O10	O	1.445585	0.647481	0.364472
O11	O	0.825129	0.147477	0.106601
O12	O	1.325129	0.647477	0.606601
O13	O	1.056477	0.147477	0.053107
O14	O	1.556477	0.647477	0.553107
Cu15	Cu	0.940802	0.174410	0.079854
Cu16	Cu	1.440802	0.674410	0.579854
Cu17	Cu	0.940811	-0.174420	0.079856
Cu18	Cu	1.440811	0.325580	0.579856
O19	O	0.936021	0.147474	0.295235
O20	O	1.436021	0.647474	0.795235
C21	C	0.795500	-0.000005	0.109475
C22	C	1.295500	0.499995	0.609475
C23	C	0.707203	-0.000005	0.118019
C24	C	1.207203	0.499995	0.618019
N25	N	0.940802	0.419758	0.079850
N26	N	1.440802	0.919758	0.579850
C27	C	0.944669	-0.000005	-0.190371
C28	C	1.444669	0.499995	0.309629
C29	C	0.941921	-0.000013	-0.353789
C30	C	1.441921	0.499987	0.146211
C31	C	0.674230	-0.000000	-0.013461
C32	C	1.174230	0.500000	0.486539
C33	C	0.591265	-0.000013	-0.005425
C34	C	1.091265	0.499987	0.494575
C35	C	0.541274	-0.000019	0.134094
C36	C	1.041274	0.499981	0.634094
C37	C	0.574253	-0.000029	0.265583
C38	C	1.074253	0.499971	0.765583
C39	C	0.657217	-0.000029	0.257545
C40	C	1.157217	0.499971	0.757545
C41	C	0.290352	-0.000031	0.165142
C42	C	0.790352	0.499969	0.665142
C43	C	0.207384	-0.000026	0.173171
C44	C	0.707384	0.499974	0.673171
C45	C	0.224401	-0.000013	-0.097839
C46	C	0.724401	0.499987	0.402161
C47	C	0.307365	-0.000002	-0.105864
C48	C	0.807365	0.499998	0.394136
C49	C	0.340337	-0.000022	0.025625
C50	C	0.840337	0.499978	0.525625
C51	C	0.456471	-0.000026	0.142312
C52	C	0.956471	0.499974	0.642312
C53	C	0.425139	-0.000027	0.017406
C54	C	0.925139	0.499973	0.517406
C55	C	1.086113	-0.000009	0.050234
C56	C	1.586113	0.499991	0.550234
C57	C	1.174410	-0.000021	0.041691
C58	C	1.674410	0.499979	0.541691
N59	N	0.940817	-0.419769	0.079846
N60	N	1.440817	0.080231	0.579846
C61	C	0.936944	-0.000010	0.350081
C62	C	1.436944	0.499990	0.850081
C63	C	0.939692	-0.000013	0.513499
C64	C	1.439692	0.499987	1.013499
H65	H	0.714927	0.000012	-0.127072
H66	H	1.214927	0.500012	0.372928
F67	F	0.403261	-0.000034	0.290793
F68	F	0.903261	0.499966	0.790793
F69	F	0.521047	-0.000052	0.414070
F70	F	1.021047	0.499948	0.914070
H71	H	0.564422	-0.000010	-0.112490
H72	H	1.064422	0.499990	0.387510
F73	F	0.360563	0.000014	-0.254359
F74	F	0.860563	0.500014	0.245641
H75	H	0.197546	-0.000017	-0.204890
H76	H	0.697546	0.499983	0.295110
F77	F	0.154181	-0.000018	0.321672
F78	F	0.654181	0.499982	0.821672
H79	H	0.317187	-0.000059	0.272211
H80	H	0.817187	0.499941	0.772211
F81	F	0.692308	-0.000041	0.397485
F82	F	1.192308	0.499959	0.897485
F83	F	0.478344	-0.000029	-0.131075
F84	F	0.978344	0.499971	0.368925
