data_functionalizedCrystal
_audit_creation_method	'MofGen! by Chris Wilmer'
_symmetry_space_group_name_H-M	'P1'
_symmetry_Int_Tables_number	1
_symmetry_cell_setting	triclinic
loop_
_symmetry_equiv_pos_as_xyz
  x,y,z
_cell_length_a	12.645331
_cell_length_b	25.639240
_cell_length_c	12.645331
_cell_angle_alpha	90.024872
_cell_angle_beta	90.003059
_cell_angle_gamma	90.031994
loop_
_atom_site_label
_atom_site_type_symbol
_atom_site_fract_x
_atom_site_fract_y
_atom_site_fract_z
Zn1	Zn	1.620487	-0.208231	0.599145
Zn2	Zn	1.620362	-0.295648	0.421841
Zn3	Zn	1.443241	-0.208227	0.421911
Zn4	Zn	1.443137	-0.295636	0.599078
O5	O	1.531807	-0.251935	0.510494
O6	O	1.768818	-0.219833	0.575624
O7	O	1.596857	-0.284055	0.273503
O8	O	1.466850	-0.135062	0.445479
O9	O	1.768726	-0.284058	0.445360
O10	O	1.597072	-0.135065	0.575692
O11	O	1.466728	-0.219827	0.273554
O12	O	1.294880	-0.219815	0.445414
O13	O	1.466672	-0.284038	0.747434
O14	O	1.294804	-0.284034	0.575578
O15	O	1.596971	-0.219821	0.747483
O16	O	1.596756	-0.368811	0.445295
O17	O	1.466550	-0.368802	0.575510
C18	C	1.256377	-0.251923	0.510497
C19	C	1.138547	-0.251931	0.510523
C20	C	0.970970	-0.292552	0.591982
C21	C	1.093531	-0.292421	0.592323
C22	C	1.094092	-0.196866	0.541072
C23	C	0.971493	-0.197114	0.541646
C24	C	0.971319	-0.265931	0.398257
C25	C	1.093924	-0.267135	0.398862
C26	C	1.531657	-0.387778	0.510411
C27	C	1.531690	-0.445892	0.510411
C28	C	1.599647	-0.806218	0.578418
C29	C	1.599678	-0.860822	0.578440
O30	O	1.657280	-0.889027	0.636177
N31	N	1.531954	-0.888174	0.510596
C32	C	1.464186	-0.860919	0.442735
O33	O	1.406584	-0.889198	0.385031
C34	C	1.464150	-0.806316	0.442719
C35	C	1.531887	-0.778967	0.510559
C36	C	1.667377	-0.778868	0.646254
C37	C	1.667347	-0.724268	0.646230
C38	C	1.599587	-0.697017	0.578372
C39	C	1.531857	-0.724366	0.510536
C40	C	1.396378	-0.779062	0.374864
C41	C	1.396348	-0.724455	0.374855
C42	C	1.464084	-0.697106	0.442695
C43	C	1.464066	-0.642514	0.442654
N44	N	1.531791	-0.615162	0.510498
C45	C	1.599551	-0.642413	0.578356
C46	C	1.464265	-0.975590	0.442773
C47	C	1.464306	-1.030192	0.442783
C48	C	1.599797	-1.030091	0.578489
C49	C	1.599761	-0.975488	0.578474
C50	C	1.531990	-0.948238	0.510617
C51	C	1.599483	-0.527748	0.578302
C52	C	1.599450	-0.473143	0.578269
C53	C	1.463956	-0.473249	0.442567
C54	C	1.463992	-0.527849	0.442595
C55	C	1.531760	-0.555098	0.510471
O56	O	1.406491	-0.614275	0.384950
O57	O	1.657134	-0.614128	0.636060
C58	C	1.808312	-0.251947	0.510492
C59	C	1.926142	-0.251953	0.510491
C60	C	1.531824	-0.251929	0.786999
C61	C	1.531831	-0.251926	0.904829
C62	C	1.531986	-0.115562	0.510600
C63	C	1.532063	-0.057448	0.510646
C64	C	1.614083	-0.211675	1.072424
C65	C	1.613847	-0.211507	0.949864
C66	C	1.420147	-0.236960	0.949328
C67	C	1.420619	-0.236677	1.071927
C68	C	1.560271	-0.307270	1.071996
C69	C	1.562743	-0.306969	0.949390
C70	C	1.531794	-0.251950	1.235064
C71	C	1.531823	-0.251941	1.117234
H72	H	0.941461	-0.333522	0.573044
H73	H	1.696663	-0.220879	0.919779
H74	H	1.640272	-0.320907	1.102965
C75	C	1.135315	-0.230084	0.312427
C76	C	1.210692	-0.185171	0.341856
C77	C	1.252083	-0.148115	0.255423
C78	C	1.218098	-0.155972	0.139562
C79	C	1.142717	-0.200886	0.110127
C80	C	1.101325	-0.237942	0.196560
H81	H	1.235853	-0.179353	0.427628
H82	H	1.307885	-0.114866	0.277213
H83	H	1.248738	-0.128541	0.075579
H84	H	1.117555	-0.206704	0.024355
H85	H	1.045523	-0.271191	0.174769
H86	H	0.942907	-0.185256	0.623695
C87	C	1.673960	-0.443059	0.652903
C88	C	1.748486	-0.473040	0.727551
C89	C	1.822991	-0.442958	0.802184
C90	C	1.822968	-0.382897	0.802169
C91	C	1.748438	-0.352913	0.727519
C92	C	1.673934	-0.382995	0.652885
H93	H	1.748506	-0.517504	0.727565
H94	H	1.878162	-0.465154	0.857446
H95	H	1.878120	-0.360629	0.857417
H96	H	1.748419	-0.308449	0.727505
H97	H	1.618762	-0.360798	0.597624
C98	C	1.389724	-0.945617	0.368110
C99	C	1.398482	-0.953163	0.247609
C100	C	1.323941	-0.923194	0.172948
C101	C	1.240641	-0.885680	0.218788
C102	C	1.231880	-0.878133	0.339296
C103	C	1.306421	-0.908102	0.413957
H104	H	1.460148	-0.980934	0.213669
H105	H	1.330427	-0.928781	0.083740
H106	H	1.185461	-0.863495	0.163519
H107	H	1.170213	-0.850361	0.373235
H108	H	1.299935	-0.902515	0.503165
C109	C	1.674032	-0.557717	0.652959
C110	C	1.794545	-0.550155	0.644389
C111	C	1.869099	-0.580123	0.719039
C112	C	1.823139	-0.617653	0.802258
C113	C	1.702620	-0.625217	0.810831
C114	C	1.628066	-0.595248	0.736181
H115	H	1.828573	-0.522372	0.582782
H116	H	1.958315	-0.574524	0.712693
H117	H	1.878328	-0.639838	0.857519
H118	H	1.668593	-0.653000	0.872438
H119	H	1.538850	-0.600847	0.742528
H120	H	0.940166	-0.283423	0.674659
C121	C	1.321799	-0.694480	0.300206
C122	C	1.330541	-0.702023	0.179702
C123	C	1.255997	-0.672049	0.105053
C124	C	1.172710	-0.634532	0.150907
C125	C	1.163964	-0.626988	0.271416
C126	C	1.238509	-0.656962	0.346066
H127	H	1.392198	-0.729797	0.145753
H128	H	1.262471	-0.677634	0.015843
H129	H	1.117528	-0.612344	0.095647
H130	H	1.102307	-0.599214	0.305366
H131	H	1.232035	-0.651376	0.435275
H132	H	0.941842	-0.165781	0.485015
H133	H	1.644931	-0.318255	0.920303
H134	H	1.500363	-0.337272	1.100980
H135	H	1.123585	-0.333255	0.573174
C136	C	1.133489	-0.154889	0.463400
C137	C	1.106954	-0.159243	0.344870
C138	C	1.146353	-0.117268	0.267194
C139	C	1.212287	-0.070938	0.308050
C140	C	1.238825	-0.066582	0.426586
C141	C	1.199426	-0.108557	0.504262
H142	H	1.058143	-0.193541	0.314621
H143	H	1.126707	-0.120493	0.179446
H144	H	1.241453	-0.039866	0.250550
H145	H	1.287637	-0.032284	0.456835
H146	H	1.219072	-0.105332	0.592010
H147	H	1.722501	-0.702003	0.701475
C148	C	1.335058	-0.274598	1.111979
C149	C	1.266514	-0.305039	1.032406
C150	C	1.180975	-0.342971	1.072453
C151	C	1.163980	-0.350462	1.192073
C152	C	1.232526	-0.320020	1.271654
C153	C	1.318065	-0.282088	1.231607
H154	H	1.279093	-0.299495	0.943849
H155	H	1.130233	-0.365506	1.013542
H156	H	1.100659	-0.378541	1.221719
H157	H	1.219947	-0.325565	1.360211
H158	H	1.368806	-0.259553	1.290519
H159	H	1.697160	-0.220940	1.101902
H160	H	0.942331	-0.236358	0.337538
C161	C	1.588407	-0.156125	0.910284
C162	C	1.568237	-0.111913	0.990230
C163	C	1.542789	-0.056529	0.950650
C164	C	1.537512	-0.045356	0.831124
C165	C	1.557682	-0.089569	0.751170
C166	C	1.583130	-0.144953	0.790749
H167	H	1.572144	-0.120182	1.078718
H168	H	1.527858	-0.023799	1.009838
H169	H	1.518673	-0.004357	0.801824
H170	H	1.553775	-0.081300	0.662682
H171	H	1.598062	-0.177683	0.731561
H172	H	1.722556	-0.801050	0.701519
H173	H	1.408844	-0.550118	0.387346
C174	C	1.588978	-0.156618	1.114143
C175	C	1.481309	-0.131316	1.089676
C176	C	1.456203	-0.076265	1.131425
C177	C	1.538767	-0.046517	1.197643
C178	C	1.646442	-0.071818	1.222114
C179	C	1.671548	-0.126869	1.180364
H180	H	1.420184	-0.153338	1.040655
H181	H	1.376494	-0.057536	1.113310
H182	H	1.520182	-0.005765	1.228548
H183	H	1.707567	-0.049796	1.271135
H184	H	1.751257	-0.145599	1.198480
H185	H	1.341220	-0.801321	0.319620
C186	C	1.674265	-0.945406	0.653105
C187	C	1.794789	-0.952867	0.644553
C188	C	1.869294	-0.922788	0.719189
C189	C	1.823276	-0.885249	0.802377
C190	C	1.702746	-0.877786	0.810932
C191	C	1.628240	-0.907865	0.736296
H192	H	1.828860	-0.980658	0.582970
H193	H	1.958519	-0.928313	0.712856
H194	H	1.878429	-0.862982	0.857627
H195	H	1.668674	-0.849995	0.872515
H196	H	1.539015	-0.902340	0.742629
C197	C	1.487700	-0.349669	0.907988
C198	C	1.421970	-0.382301	0.986295
C199	C	1.346918	-0.425001	0.944898
C200	C	1.337596	-0.435069	0.825194
C201	C	1.403328	-0.402436	0.746881
C202	C	1.478380	-0.359737	0.788278
H203	H	1.428869	-0.374849	1.074913
H204	H	1.298258	-0.449157	1.002871
H205	H	1.282038	-0.466678	0.794550
H206	H	1.396429	-0.409889	0.658263
H207	H	1.527040	-0.335580	0.730304
H208	H	1.408789	-0.451052	0.387314
H209	H	1.122866	-0.283172	0.675483
H210	H	1.396503	-0.196232	1.100559
H211	H	0.940382	-0.305398	0.370495
C212	C	1.135575	-0.180551	0.650715
C213	C	1.209728	-0.217093	0.712621
C214	C	1.251211	-0.200781	0.822265
C215	C	1.218540	-0.147927	0.870003
C216	C	1.144384	-0.111382	0.808096
C217	C	1.102901	-0.127694	0.698452
H218	H	1.233916	-0.256221	0.677283
H219	H	1.306107	-0.227834	0.868092
H220	H	1.249248	-0.135852	0.951168
H221	H	1.120196	-0.072254	0.843434
H222	H	1.048005	-0.100641	0.652625
H223	H	1.654969	-1.052289	0.633746
H224	H	1.409159	-1.052455	0.387529
H225	H	1.357204	-0.265376	0.920155
H226	H	1.122990	-0.307655	0.375822
H227	H	1.395602	-0.196956	0.918656
