data_functionalizedCrystal
_audit_creation_method	'MofGen! by Chris Wilmer'
_symmetry_space_group_name_H-M	'P1'
_symmetry_Int_Tables_number	1
_symmetry_cell_setting	triclinic
loop_
_symmetry_equiv_pos_as_xyz
  x,y,z
_cell_length_a	14.853569
_cell_length_b	14.853569
_cell_length_c	9.130307
_cell_angle_alpha	89.995533
_cell_angle_beta	90.000453
_cell_angle_gamma	83.635565
loop_
_atom_site_label
_atom_site_type_symbol
_atom_site_fract_x
_atom_site_fract_y
_atom_site_fract_z
O1	O	1.196361	0.117709	-0.121736
O2	O	0.933902	0.131729	-0.121754
O3	O	1.072141	-0.006510	-0.121731
O4	O	1.058121	0.255949	-0.121760
O5	O	1.072137	-0.006512	0.121868
O6	O	0.933897	0.131728	0.121845
O7	O	1.196356	0.117708	0.121863
Cu8	Cu	1.065126	0.124718	0.144096
Cu9	Cu	1.065132	0.124719	-0.143988
O10	O	1.058117	0.255948	0.121839
C11	C	0.900311	0.131093	0.000043
C12	C	0.800227	0.129189	0.000036
C13	C	1.071503	-0.040100	0.000069
C14	C	1.069599	-0.140183	0.000070
C15	C	0.763850	0.046178	0.000040
C16	C	0.742561	0.210410	0.000039
C17	C	0.648527	0.208624	0.000041
C18	C	0.612150	0.125613	0.000045
C19	C	0.669807	0.044389	0.000047
C20	C	0.590863	0.289847	0.000053
C21	C	0.496823	0.288063	0.000057
C22	C	0.460444	0.205052	0.000050
C23	C	0.518108	0.123824	0.000051
C24	C	0.481731	0.040813	0.000055
C25	C	0.539392	-0.040415	0.000045
C26	C	0.633429	-0.038623	0.000040
C27	C	0.366408	0.203259	0.000055
C28	C	0.387688	0.039024	0.000061
C29	C	0.986588	-0.176560	0.000067
C30	C	1.150821	-0.197849	0.000063
C31	C	1.149034	-0.291883	0.000056
C32	C	1.066024	-0.328260	0.000053
C33	C	0.984799	-0.270603	0.000056
C34	C	1.230257	-0.349547	0.000038
C35	C	1.228474	-0.443588	0.000030
C36	C	1.145462	-0.479966	0.000037
C37	C	1.064234	-0.422303	0.000042
C38	C	0.981224	-0.458680	0.000039
C39	C	0.899995	-0.401018	0.000055
C40	C	0.901787	-0.306982	0.000064
C41	C	1.143670	-0.574002	0.000028
C42	C	0.979434	-0.552722	0.000028
C43	C	1.229947	0.118344	0.000062
C44	C	1.330031	0.120249	0.000059
C45	C	1.058754	0.289537	0.000036
C46	C	1.060659	0.389621	0.000025
N47	N	1.065129	0.124716	0.346719
N48	N	1.065136	0.124714	-0.346611
C49	C	1.187590	0.002340	0.346730
C50	C	1.248826	-0.058845	0.423402
C51	C	1.248835	-0.058846	0.576735
C52	C	1.187600	0.002344	0.653400
C53	C	1.126363	0.063529	0.576728
C54	C	1.126363	0.063525	0.423391
C55	C	1.003900	0.185899	0.576717
C56	C	1.003893	0.185906	0.423384
C57	C	0.942664	0.247089	0.653382
C58	C	0.881430	0.308280	0.576710
C59	C	0.881424	0.308279	0.423367
C60	C	0.942657	0.247091	0.346712
H61	H	0.358078	-0.028574	0.000057
Br62	Br	0.418576	0.398299	0.000062
H63	H	1.209805	-0.620946	0.000001
H64	H	1.298696	-0.108671	0.639162
H65	H	0.509762	-0.108003	0.000039
H66	H	1.187603	0.002332	0.778252
Br67	Br	0.798325	0.391307	0.680757
H68	H	0.832407	-0.430648	0.000043
H69	H	1.294615	-0.490528	0.000020
H70	H	0.920454	-0.129608	0.000086
Br71	Br	1.342908	-0.300175	0.000019
H72	H	0.831555	0.358100	0.360949
H73	H	1.187596	0.002342	0.221878
H74	H	0.319464	0.269394	0.000076
H75	H	0.942670	0.247082	0.778234
H76	H	1.218404	-0.168225	0.000094
Br77	Br	0.942660	0.247089	0.138615
H78	H	0.911836	-0.582332	0.000039
Br79	Br	0.640236	0.402497	0.000045
Br80	Br	0.791559	-0.228723	0.000075
Br81	Br	1.331924	-0.141891	0.319357
H82	H	0.680385	-0.104755	0.000035
H83	H	0.810802	-0.019956	0.000026
Br84	Br	0.791931	0.323062	0.000040
