data_functionalizedCrystal
_audit_creation_method	'MofGen! by Chris Wilmer'
_symmetry_space_group_name_H-M	'P1'
_symmetry_Int_Tables_number	1
_symmetry_cell_setting	triclinic
loop_
_symmetry_equiv_pos_as_xyz
  x,y,z
_cell_length_a	14.519709
_cell_length_b	14.472310
_cell_length_c	15.995350
_cell_angle_alpha	89.998838
_cell_angle_beta	96.413740
_cell_angle_gamma	89.993107
loop_
_atom_site_label
_atom_site_type_symbol
_atom_site_fract_x
_atom_site_fract_y
_atom_site_fract_z
O1	O	-1.223680	0.076705	0.109753
O2	O	-0.723680	0.576705	0.609753
O3	O	-0.955180	0.076735	0.122678
O4	O	-0.455180	0.576735	0.622678
O5	O	-1.096770	0.076718	-0.005661
O6	O	-0.596770	0.576718	0.494339
O7	O	-1.082090	0.076721	0.238092
O8	O	-0.582090	0.576721	0.738092
O9	O	-1.096733	-0.076964	-0.005654
O10	O	-0.596733	0.423036	0.494346
O11	O	-0.955143	-0.076947	0.122686
O12	O	-0.455143	0.423053	0.622686
O13	O	-1.223644	-0.076977	0.109760
O14	O	-0.723644	0.423023	0.609760
Cu15	Cu	-1.089390	-0.090995	0.116224
Cu16	Cu	-0.589390	0.409005	0.616224
Cu17	Cu	-1.089433	0.090752	0.116215
Cu18	Cu	-0.589433	0.590752	0.616215
O19	O	-1.082054	-0.076961	0.238100
O20	O	-0.582054	0.423039	0.738100
C21	C	-0.920803	-0.000102	0.122080
C22	C	-0.420803	0.499898	0.622080
C23	C	-0.818425	-0.000091	0.120275
C24	C	-0.318425	0.499909	0.620275
N25	N	-1.089367	-0.218826	0.116229
N26	N	-0.589367	0.281174	0.616229
C27	C	-0.443541	-0.000129	0.113629
C28	C	0.056459	0.499871	0.613629
C29	C	-0.547846	-0.000118	0.115475
C30	C	-0.047846	0.499882	0.615475
C31	C	-0.630980	-0.000109	0.116952
C32	C	-0.130980	0.499891	0.616952
C33	C	-0.735291	-0.000100	0.118797
C34	C	-0.235291	0.499900	0.618797
C35	C	-1.089432	-0.592917	0.116212
C36	C	-0.589432	-0.092917	0.616212
C37	C	-1.013416	-0.553742	0.184652
C38	C	-0.513416	-0.053742	0.684652
C39	C	-1.013591	-0.446654	0.184903
C40	C	-0.513591	0.053346	0.684903
C41	C	-1.089399	-0.407326	0.116220
C42	C	-0.589399	0.092674	0.616220
C43	C	-1.185624	-0.446173	0.135446
C44	C	-0.685624	0.053827	0.635446
C45	C	-1.185197	-0.553295	0.135933
C46	C	-0.685197	-0.053295	0.635933
C47	C	-1.070081	-0.553444	0.028343
C48	C	-0.570081	-0.053444	0.528343
C49	C	-1.067874	-0.446317	0.028925
C50	C	-0.567874	0.053683	0.528925
C51	C	-1.089386	-0.302438	0.116224
C52	C	-0.589386	0.197562	0.616224
C53	C	-1.089451	-0.697805	0.116210
C54	C	-0.589451	-0.197805	0.616210
C55	C	-0.258021	-0.000136	0.110359
C56	C	0.241979	0.499864	0.610359
C57	C	-0.360399	-0.000135	0.112164
C58	C	0.139601	0.499865	0.612164
C59	C	-1.096145	-0.000121	-0.036853
C60	C	-0.596145	0.499879	0.463147
C61	C	-1.094325	-0.000116	-0.129806
C62	C	-0.594325	0.499884	0.370194
N63	N	-1.089464	0.218583	0.116203
N64	N	-0.589464	0.718583	0.616203
C65	C	-1.087791	-0.000118	-0.467563
C66	C	-0.587791	0.499882	0.032437
C67	C	-0.986954	0.000238	-0.420280
C68	C	-0.486954	0.500238	0.079720
C69	C	-0.988773	-0.000109	-0.323587
C70	C	-0.488773	0.499891	0.176413
C71	C	-1.091032	-0.000116	-0.299998
C72	C	-0.591032	0.499884	0.200002
C73	C	-1.140748	-0.087880	-0.340997
C74	C	-0.640748	0.412120	0.159003
C75	C	-1.138215	-0.087953	-0.437636
C76	C	-0.638215	0.412047	0.062364
C77	C	-1.140340	0.086812	-0.438000
C78	C	-0.640340	0.586812	0.062000
C79	C	-1.140316	0.087971	-0.341054
C80	C	-0.640316	0.587971	0.158946
C81	C	-1.092869	-0.000118	-0.205298
C82	C	-0.592869	0.499882	0.294702
C83	C	-1.085957	-0.000122	-0.562264
C84	C	-0.585957	0.499878	-0.062264
C85	C	-1.082679	-0.000119	0.269292
C86	C	-0.582679	0.499881	0.769292
C87	C	-1.084498	-0.000119	0.362245
C88	C	-0.584498	0.499881	0.862245
H89	H	-0.941658	-0.579522	0.173363
H90	H	-0.441658	-0.079522	0.673363
C91	C	-1.242234	-0.092308	-0.321760
C92	C	-0.742234	0.407692	0.178240
H93	H	-1.255216	-0.040549	-0.288470
H94	H	-0.755216	0.459451	0.211530
H95	H	-1.282222	-0.091498	-0.372987
H96	H	-0.782222	0.408502	0.127013
H97	H	-1.251868	-0.147605	-0.291935
H98	H	-0.751868	0.352395	0.208065
H99	H	-1.214889	0.093264	-0.325581
H100	H	-0.714889	0.593264	0.174419
H101	H	-0.997089	-0.420927	0.014338
H102	H	-0.497089	0.079073	0.514338
H103	H	-1.025949	-0.421021	0.250105
H104	H	-0.525949	0.078979	0.750105
H105	H	-1.243530	-0.579208	0.088057
H106	H	-0.743530	-0.079208	0.588057
H107	H	-1.214687	0.087396	-0.469649
H108	H	-0.714687	0.587396	0.030351
H109	H	-1.103967	0.152897	-0.313863
H110	H	-0.603967	0.652897	0.186137
H111	H	-1.119644	-0.419549	-0.024402
H112	H	-0.619644	0.080451	0.475598
C113	C	-1.029877	-0.590086	0.272242
C114	C	-0.529877	-0.090086	0.772242
H115	H	-1.082877	-0.629027	0.267283
H116	H	-0.582877	-0.129027	0.767283
H117	H	-0.977233	-0.624184	0.295476
H118	H	-0.477233	-0.124184	0.795476
H119	H	-1.039699	-0.539460	0.308000
H120	H	-0.539699	-0.039460	0.808000
H121	H	-1.243542	-0.420697	0.086929
H122	H	-0.743542	0.079303	0.586929
H123	H	-1.125516	-0.578777	-0.022590
H124	H	-0.625516	-0.078777	0.477410
C125	C	-0.932717	-0.084290	-0.446826
C126	C	-0.432717	0.415710	0.053174
H127	H	-0.871869	-0.083540	-0.417975
H128	H	-0.371869	0.416460	0.082025
H129	H	-0.963485	-0.139256	-0.433123
H130	H	-0.463485	0.360744	0.066877
H131	H	-0.929324	-0.082210	-0.505765
H132	H	-0.429324	0.417790	-0.005765
C133	C	-0.935966	0.084870	-0.285269
C134	C	-0.435966	0.584870	0.214731
H135	H	-0.913202	0.119914	-0.328793
H136	H	-0.413202	0.619914	0.171207
H137	H	-0.976610	0.122000	-0.256919
H138	H	-0.476610	0.622000	0.243081
H139	H	-0.885486	0.065117	-0.246465
H140	H	-0.385486	0.565117	0.253535
H141	H	-1.202250	-0.578272	0.200019
H142	H	-0.702250	-0.078272	0.700019
H143	H	-1.107387	0.153331	-0.458592
H144	H	-0.607387	0.653331	0.041408
C145	C	-0.916964	-0.411168	0.169416
C146	C	-0.416964	0.088832	0.669416
H147	H	-0.877247	-0.462222	0.162918
H148	H	-0.377247	0.037778	0.662918
H149	H	-0.922023	-0.374575	0.119811
H150	H	-0.422023	0.125425	0.619811
H151	H	-0.891996	-0.374830	0.215981
H152	H	-0.391996	0.125170	0.715981
H153	H	-0.949399	-0.063120	-0.295779
H154	H	-0.449399	0.436880	0.204221
C155	C	-1.089191	-0.176562	-0.462437
C156	C	-0.589191	0.323438	0.037563
H157	H	-1.087216	-0.177390	-0.521600
H158	H	-0.587216	0.322610	-0.021600
H159	H	-1.027830	-0.177920	-0.434729
H160	H	-0.527830	0.322080	0.065271
H161	H	-1.122294	-0.229047	-0.446291
H162	H	-0.622294	0.270953	0.053709
C163	C	-1.209213	-0.409931	0.221037
C164	C	-0.709213	0.090069	0.721037
H165	H	-1.160552	-0.371136	0.245164
H166	H	-0.660552	0.128864	0.745164
H167	H	-1.265342	-0.375699	0.213230
H168	H	-0.765342	0.124301	0.713230
H169	H	-1.216279	-0.460607	0.257529
H170	H	-0.716279	0.039393	0.757529
H171	H	-1.001437	-0.580505	0.009892
H172	H	-0.501437	-0.080505	0.509892
H173	H	-0.946665	0.063176	-0.438875
H174	H	-0.446665	0.563176	0.061125
C175	C	-1.238218	-0.093365	-0.481059
C176	C	-0.738218	0.406635	0.018941
H177	H	-1.237349	-0.093444	-0.540360
H178	H	-0.737349	0.406556	-0.040360
H179	H	-1.266614	-0.148509	-0.464414
H180	H	-0.766614	0.351491	0.035586
H181	H	-1.272382	-0.041471	-0.465197
H182	H	-0.772382	0.458529	0.034803
C183	C	-1.094055	-0.176104	-0.302737
C184	C	-0.594055	0.323896	0.197263
H185	H	-1.044271	-0.159642	-0.261788
H186	H	-0.544271	0.340358	0.238212
H187	H	-1.138089	-0.211618	-0.276931
H188	H	-0.638089	0.288382	0.223069
H189	H	-1.070977	-0.211474	-0.345894
H190	H	-0.570977	0.288526	0.154106
