data_functionalizedCrystal
_audit_creation_method	'MofGen! by Chris Wilmer'
_symmetry_space_group_name_H-M	'P1'
_symmetry_Int_Tables_number	1
_symmetry_cell_setting	triclinic
loop_
_symmetry_equiv_pos_as_xyz
  x,y,z
_cell_length_a	21.295417
_cell_length_b	21.295418
_cell_length_c	12.759393
_cell_angle_alpha	89.955003
_cell_angle_beta	90.039170
_cell_angle_gamma	89.951286
loop_
_atom_site_label
_atom_site_type_symbol
_atom_site_fract_x
_atom_site_fract_y
_atom_site_fract_z
Zn1	Zn	-0.250266	-0.962338	0.594669
Zn2	Zn	0.083067	-0.629005	0.928002
Zn3	Zn	0.416401	-0.295672	1.261336
Zn4	Zn	-0.355550	-0.962246	0.418966
Zn5	Zn	-0.022217	-0.628912	0.752299
Zn6	Zn	0.311117	-0.295579	1.085632
Zn7	Zn	-0.250332	-0.857067	0.418927
Zn8	Zn	0.083001	-0.523733	0.752260
Zn9	Zn	0.416335	-0.190400	1.085594
Zn10	Zn	-0.355535	-0.857031	0.594526
Zn11	Zn	-0.022201	-0.523697	0.927859
Zn12	Zn	0.311132	-0.190364	1.261193
O13	O	-0.302921	-0.909670	0.506772
O14	O	0.030413	-0.576337	0.840105
O15	O	0.363746	-0.243004	1.173439
O16	O	-0.264211	-1.050415	0.571438
O17	O	0.069122	-0.717082	0.904771
O18	O	0.402456	-0.383749	1.238104
O19	O	-0.341627	-0.948270	0.271939
O20	O	-0.008293	-0.614937	0.605273
O21	O	0.325040	-0.281603	0.938606
O22	O	-0.162234	-0.871085	0.442283
O23	O	0.171099	-0.537751	0.775617
O24	O	0.504433	-0.204418	1.108950
O25	O	-0.341563	-1.050347	0.442349
O26	O	-0.008229	-0.717014	0.775683
O27	O	0.325104	-0.383681	1.109016
O28	O	-0.162185	-0.948427	0.571400
O29	O	0.171148	-0.615094	0.904734
O30	O	0.504481	-0.281761	1.238067
O31	O	-0.264324	-0.870995	0.271911
O32	O	0.069010	-0.537662	0.605244
O33	O	0.402343	-0.204329	0.938578
O34	O	-0.264309	-0.768972	0.442145
O35	O	0.069025	-0.435639	0.775478
O36	O	0.402358	-0.102306	1.108811
O37	O	-0.341537	-0.871024	0.741566
O38	O	-0.008203	-0.537690	1.074899
O39	O	0.325130	-0.204357	1.408233
O40	O	-0.341601	-0.768946	0.571156
O41	O	-0.008267	-0.435613	0.904490
O42	O	0.325066	-0.102279	1.237823
O43	O	-0.264196	-0.948393	0.741671
O44	O	0.069137	-0.615059	1.075005
O45	O	0.402471	-0.281726	1.408338
O46	O	-0.443637	-0.948235	0.442210
O47	O	-0.110304	-0.614902	0.775544
O48	O	0.223029	-0.281568	1.108877
O49	O	-0.443626	-0.870934	0.571194
O50	O	-0.110293	-0.537601	0.904527
O51	O	0.223040	-0.204267	1.237860
C52	C	-0.302961	-0.746119	0.506631
C53	C	0.030373	-0.412785	0.839965
C54	C	0.363706	-0.079452	1.173298
C55	C	-0.302993	-0.676151	0.506596
C56	C	0.030340	-0.342817	0.839930
C57	C	0.363674	-0.009484	1.173263
C58	C	-0.466472	-0.909588	0.506714
C59	C	-0.133139	-0.576254	0.840047
C60	C	0.200194	-0.242921	1.173380
C61	C	-0.536441	-0.909610	0.506724
C62	C	-0.203107	-0.576277	0.840057
C63	C	0.130226	-0.242943	1.173391
C64	C	-0.343294	-0.643287	0.573668
C65	C	-0.009960	-0.309953	0.907002
C66	C	0.323373	0.023380	1.240335
C67	C	-0.343281	-0.577544	0.573707
C68	C	-0.009947	-0.244211	0.907041
C69	C	0.323386	0.089123	1.240374
C70	C	-0.302974	-0.544668	0.506656
C71	C	0.030359	-0.211335	0.839989
C72	C	0.363693	0.121999	1.173323
C73	C	-0.262666	-0.577540	0.439579
C74	C	0.070668	-0.244207	0.772913
C75	C	0.404001	0.089127	1.106246
C76	C	-0.262675	-0.643281	0.439549
C77	C	0.070658	-0.309948	0.772883
C78	C	0.403992	0.023386	1.106216
N79	N	-0.298068	-0.441395	0.414752
N80	N	0.035265	-0.108061	0.748086
N81	N	0.368599	0.225272	1.081419
N82	N	-0.298063	-0.378943	0.414784
N83	N	0.035270	-0.045610	0.748117
N84	N	0.368604	0.287723	1.081451
C85	C	-0.302942	-0.346593	0.506744
C86	C	0.030391	-0.013260	0.840077
C87	C	0.363724	0.320073	1.173410
N88	N	-0.307839	-0.379054	0.598673
N89	N	0.025494	-0.045721	0.932006
N90	N	0.358827	0.287613	1.265340
N91	N	-0.307848	-0.441511	0.598640
N92	N	0.025485	-0.108178	0.931974
N93	N	0.358819	0.225155	1.265307
C94	C	-0.302959	-0.473383	0.506681
C95	C	0.030374	-0.140049	0.840015
C96	C	0.363708	0.193284	1.173348
C97	C	-0.343231	-0.242444	0.573864
C98	C	-0.009898	0.090889	0.907197
C99	C	0.323436	0.424223	1.240531
C100	C	-0.343214	-0.176700	0.573905
C101	C	-0.009881	0.156633	0.907238
C102	C	0.323453	0.489966	1.240572
C103	C	-0.262602	-0.176697	0.439767
C104	C	0.070731	0.156636	0.773101
C105	C	0.404065	0.489969	1.106434
C106	C	-0.262616	-0.242440	0.439736
C107	C	0.070717	0.090894	0.773069
C108	C	0.404051	0.424227	1.106402
C109	C	-0.302934	-0.275309	0.506783
C110	C	0.030400	0.058024	0.840116
C111	C	0.363733	0.391358	1.173449
C112	C	-0.569292	-0.949897	0.439631
C113	C	-0.235959	-0.616563	0.772965
C114	C	0.097375	-0.283230	1.106298
C115	C	-0.635035	-0.949926	0.439655
C116	C	-0.301701	-0.616593	0.772988
C117	C	0.031632	-0.283259	1.106322
C118	C	-0.667923	-0.909658	0.506760
C119	C	-0.334590	-0.576325	0.840094
C120	C	-0.001256	-0.242991	1.173427
C121	C	-0.635063	-0.869369	0.573866
C122	C	-0.301730	-0.536035	0.907199
C123	C	0.031603	-0.202702	1.240533
C124	C	-0.569322	-0.869345	0.573848
C125	C	-0.235989	-0.536011	0.907181
C126	C	0.097344	-0.202678	1.240515
N127	N	-0.771206	-0.854591	0.514722
N128	N	-0.437872	-0.521257	0.848056
N129	N	-0.104539	-0.187924	1.181389
N130	N	-0.833657	-0.854615	0.514733
N131	N	-0.500324	-0.521282	0.848067
N132	N	-0.166990	-0.187948	1.181400
C133	C	-0.865998	-0.909728	0.506821
C134	C	-0.532664	-0.576395	0.840154
C135	C	-0.199331	-0.243062	1.173487
N136	N	-0.833528	-0.964818	0.498876
N137	N	-0.500194	-0.631484	0.832209
N138	N	-0.166861	-0.298151	1.165542
N139	N	-0.771070	-0.964792	0.498859
N140	N	-0.437737	-0.631459	0.832192
N141	N	-0.104404	-0.298126	1.165526
C142	C	-0.739208	-0.909680	0.506788
C143	C	-0.405875	-0.576346	0.840121
C144	C	-0.072542	-0.243013	1.173455
C145	C	-0.970135	-0.950050	0.439750
C146	C	-0.636801	-0.616717	0.773083
C147	C	-0.303468	-0.283384	1.106417
C148	C	-1.035878	-0.950081	0.439781
C149	C	-0.702545	-0.616747	0.773114
C150	C	-0.369212	-0.283414	1.106448
C151	C	-1.035906	-0.869518	0.573987
C152	C	-0.702573	-0.536184	0.907320
C153	C	-0.369239	-0.202851	1.240653
C154	C	-0.970164	-0.869493	0.573961
C155	C	-0.636830	-0.536159	0.907294
C156	C	-0.303497	-0.202826	1.240628
C157	C	-0.937282	-0.909758	0.506837
C158	C	-0.603949	-0.576425	0.840170
C159	C	-0.270615	-0.243091	1.173504
C160	C	-0.138730	-0.909770	0.506853
C161	C	0.194603	-0.576437	0.840187
C162	C	0.527936	-0.243104	1.173520
C163	C	-0.068762	-0.909813	0.506888
C164	C	0.264571	-0.576480	0.840221
C165	C	0.597904	-0.243146	1.173555
C166	C	-0.302857	-0.909714	0.780805
C167	C	0.030476	-0.576381	1.114139
C168	C	0.363809	-0.243048	1.447472
C169	C	-0.302830	-0.909733	0.897582
C170	C	0.030503	-0.576400	1.230916
C171	C	0.363837	-0.243067	1.564249
C172	C	-0.302892	-0.073861	0.506884
C173	C	0.030442	0.259473	0.840217
C174	C	0.363775	0.592806	1.173550
C175	C	-0.302906	-0.143829	0.506854
C176	C	0.030427	0.189505	0.840187
C177	C	0.363761	0.522838	1.173521
C178	C	-0.302939	-0.909663	0.233805
C179	C	0.030395	-0.576329	0.567138
C180	C	0.363728	-0.242996	0.900471
C181	C	-0.302788	-0.909766	0.117029
C182	C	0.030545	-0.576433	0.450362
C183	C	0.363878	-0.243099	0.783695
C184	C	-0.262555	-0.950025	0.952501
C185	C	0.070778	-0.616691	1.285834
C186	C	0.404112	-0.283358	1.619167
C187	C	-0.262532	-0.950040	1.062225
C188	C	0.070801	-0.616706	1.395558
C189	C	0.404134	-0.283373	1.728892
C190	C	-0.343065	-0.869470	1.062102
C191	C	-0.009732	-0.536137	1.395436
C192	C	0.323602	-0.202803	1.728769
C193	C	-0.343084	-0.869452	0.952380
C194	C	-0.009751	-0.536119	1.285714
C195	C	0.323582	-0.202786	1.619047
C196	C	-0.222301	-0.990306	0.897703
C197	C	0.111032	-0.656972	1.231036
C198	C	0.444366	-0.323639	1.564369
C199	C	-0.182023	-1.030601	0.952621
C200	C	0.151310	-0.697268	1.285955
C201	C	0.484643	-0.363934	1.619288
C202	C	-0.182000	-1.030616	1.062345
C203	C	0.151333	-0.697283	1.395679
C204	C	0.484666	-0.363949	1.729012
C205	C	-0.222256	-0.990336	1.117151
C206	C	0.111078	-0.657002	1.450484
C207	C	0.444411	-0.323669	1.783818
H208	H	-0.376123	-0.670045	0.628265
H209	H	-0.042789	-0.336712	0.961598
H210	H	0.290544	-0.003378	1.294931
O211	O	-0.386697	-0.277910	0.646192
O212	O	-0.053364	0.055423	0.979525
O213	O	0.279970	0.388757	1.312859
H214	H	-0.436092	-0.265235	0.628051
H215	H	-0.102758	0.068099	0.961384
H216	H	0.230575	0.401432	1.294717
O217	O	-0.386773	-0.542085	0.646011
O218	O	-0.053440	-0.208752	0.979344
O219	O	0.279893	0.124581	1.312677
H220	H	-0.414820	-0.575986	0.692609
H221	H	-0.081487	-0.242653	1.025942
H222	H	0.251846	0.090680	1.359276
O223	O	-0.222224	-0.990351	1.235498
O224	O	0.111110	-0.657018	1.568831
O225	O	0.444443	-0.323685	1.902164
H226	H	-0.209500	-0.942885	1.264388
H227	H	0.123833	-0.609551	1.597721
H228	H	0.457167	-0.276218	1.931055
H229	H	-0.661845	-0.836583	0.628506
H230	H	-0.328512	-0.503250	0.961839
H231	H	0.004821	-0.169916	1.295172
H232	H	-0.661788	-0.982734	0.385020
H233	H	-0.328454	-0.649401	0.718354
H234	H	0.004879	-0.316068	1.051687
H235	H	-0.375870	-0.836634	0.907665
H236	H	-0.042537	-0.503300	1.240998
H237	H	0.290797	-0.169967	1.574331
O238	O	-0.533832	-0.993333	0.367243
O239	O	-0.200499	-0.659999	0.700577
O240	O	0.132835	-0.326666	1.033910
H241	H	-0.503944	-0.965167	0.313712
H242	H	-0.170611	-0.631834	0.647045
H243	H	0.162722	-0.298500	0.980379
H244	H	-0.229802	-0.269198	0.385113
H245	H	0.103531	0.064136	0.718446
H246	H	0.436865	0.397469	1.051780
O247	O	-0.533883	-0.825880	0.646195
O248	O	-0.200550	-0.492546	0.979528
O249	O	0.132784	-0.159213	1.312862
H250	H	-0.567794	-0.797878	0.692856
H251	H	-0.234461	-0.464544	1.026190
H252	H	0.098873	-0.131211	1.359523
O253	O	-0.386483	-0.826031	1.121213
O254	O	-0.053150	-0.492698	1.454547
O255	O	0.280183	-0.159365	1.787880
H256	H	-0.375697	-0.776630	1.100126
H257	H	-0.042364	-0.443296	1.433460
H258	H	0.290970	-0.109963	1.766793
H259	H	-0.943361	-0.982839	0.385097
H260	H	-0.610028	-0.649505	0.718430
H261	H	-0.276695	-0.316172	1.051763
H262	H	-0.376030	-0.149944	0.628530
H263	H	-0.042697	0.183390	0.961863
H264	H	0.290636	0.516723	1.295196
O265	O	-0.219204	-0.542087	0.367234
O266	O	0.114129	-0.208753	0.700567
O267	O	0.447463	0.124580	1.033900
H268	H	-0.225977	-0.490851	0.378506
H269	H	0.107356	-0.157517	0.711840
H270	H	0.440690	0.175816	1.045173
H271	H	-0.149245	-1.063392	0.907991
H272	H	0.184088	-0.730059	1.241325
H273	H	0.517421	-0.396725	1.574658
O274	O	-1.071317	-0.993533	0.367412
O275	O	-0.737983	-0.660200	0.700745
O276	O	-0.404650	-0.326867	1.034078
H277	H	-1.037404	-1.021521	0.320729
H278	H	-0.704071	-0.688188	0.654062
H279	H	-0.370738	-0.354855	0.987396
H280	H	-1.062683	-0.836733	0.628630
H281	H	-0.729350	-0.503400	0.961963
H282	H	-0.396016	-0.170067	1.295296
H283	H	-0.229781	-0.149930	0.385178
H284	H	0.103553	0.183403	0.718511
H285	H	0.436886	0.516736	1.051844
H286	H	-0.943414	-0.836685	0.628590
H287	H	-0.610081	-0.503352	0.961923
H288	H	-0.276747	-0.170018	1.295257
O289	O	-0.222331	-0.990287	0.779358
O290	O	0.111002	-0.656954	1.112692
O291	O	0.444336	-0.323620	1.446025
H292	H	-0.174862	-0.977589	0.750435
H293	H	0.158471	-0.644256	1.083768
H294	H	0.491804	-0.310922	1.417102
O295	O	-0.219218	-0.678734	0.367185
O296	O	0.114115	-0.345400	0.700518
O297	O	0.447448	-0.012067	1.033852
H298	H	-0.191192	-0.644831	0.320556
H299	H	0.142142	-0.311498	0.653890
H300	H	0.475475	0.021836	0.987223
O301	O	-0.138561	-1.074074	1.121585
O302	O	0.194772	-0.740741	1.454919
O303	O	0.528105	-0.407407	1.788252
H304	H	-0.110579	-1.102082	1.065043
H305	H	0.222754	-0.768749	1.398377
H306	H	0.556088	-0.435416	1.731710
