data_functionalizedCrystal
_audit_creation_method	'MofGen! by Chris Wilmer'
_symmetry_space_group_name_H-M	'P1'
_symmetry_Int_Tables_number	1
_symmetry_cell_setting	triclinic
loop_
_symmetry_equiv_pos_as_xyz
  x,y,z
_cell_length_a	17.052862
_cell_length_b	14.560438
_cell_length_c	17.052819
_cell_angle_alpha	67.550499
_cell_angle_beta	101.160411
_cell_angle_gamma	90.005414
loop_
_atom_site_label
_atom_site_type_symbol
_atom_site_fract_x
_atom_site_fract_y
_atom_site_fract_z
Zr1	Zr	0.846797	0.036355	-0.935731
O2	O	0.882556	0.187055	-0.944791
O3	O	0.730180	-0.021817	-0.906179
O4	O	0.757493	0.138546	-1.050545
O5	O	0.953884	-0.086184	-0.717004
O6	O	0.779027	0.113903	-1.164422
O7	O	0.855243	0.026692	-0.800426
O8	O	0.730169	-0.172957	-0.906178
O9	O	1.002742	0.200676	-0.975248
O10	O	0.824164	-0.050550	-1.010909
O11	O	0.881708	-0.116397	-0.863667
O12	O	0.913866	0.072410	-1.033639
O13	O	0.971409	0.006563	-0.886398
Zr14	Zr	1.038461	-0.182971	-0.984304
Zr15	Zr	0.881141	-0.002947	-1.117352
Zr16	Zr	1.004117	-0.143668	-0.802684
Zr17	Zr	1.038479	0.058080	-0.984306
Zr18	Zr	0.846779	-0.204695	-0.935729
O19	O	1.155078	-0.124799	-1.013856
O20	O	0.931389	0.131172	-1.203032
O21	O	1.106246	-0.068916	-0.755615
O22	O	1.002702	-0.333670	-0.975244
O23	O	0.779013	-0.077700	-1.164420
O24	O	0.953870	-0.277787	-0.717003
O25	O	0.931375	-0.060432	-1.203031
O26	O	1.127765	-0.285162	-0.869491
O27	O	1.106231	-0.260519	-0.755614
O28	O	1.030015	-0.173307	-1.119610
O29	O	1.030041	0.169436	-1.119612
O30	O	0.855218	-0.316051	-0.800423
O31	O	0.882517	-0.347292	-0.944788
O32	O	0.757468	-0.204197	-1.050542
O33	O	1.127791	0.057581	-0.869493
O34	O	1.155089	0.026341	-1.013857
O35	O	0.971393	-0.219025	-0.886396
O36	O	0.913849	-0.153178	-1.033638
O37	O	1.003550	-0.030219	-1.056368
O38	O	1.061094	-0.096066	-0.909127
C39	C	0.702864	-0.100482	-0.899258
C40	C	0.621490	-0.109705	-0.878636
C41	C	0.942651	0.228210	-0.960020
C42	C	0.942659	0.330542	-0.960020
C43	C	0.942607	-0.374826	-0.960016
C44	C	0.942599	-0.477158	-0.960015
C45	C	0.271957	0.001797	-1.127949
C46	C	0.348411	0.010469	-1.147327
C47	C	0.416684	-0.019574	-1.080156
C48	C	0.408496	-0.058290	-0.993604
C49	C	0.332035	-0.066955	-0.974225
C50	C	0.476762	-0.088326	-0.926431
C51	C	0.468574	-0.127042	-0.839879
C52	C	0.392120	-0.135706	-0.820504
C53	C	0.323847	-0.105663	-0.887674
C54	C	0.553223	-0.079661	-0.945811
C55	C	0.613301	-0.148413	-0.792086
C56	C	0.536847	-0.157085	-0.772708
C57	C	1.182394	-0.046134	-1.020778
C58	C	1.263769	-0.036911	-1.041399
C59	C	0.899670	-0.024146	-0.732838
C60	C	0.885090	-0.007461	-0.655735
C61	C	0.972678	0.344247	-0.883159
C62	C	0.972651	0.440398	-0.883156
C63	C	0.912580	0.509134	-1.036883
C64	C	0.912612	0.412985	-1.036886
C65	C	1.007357	0.304563	-0.794405
C66	C	1.007330	0.400714	-0.794403
C67	C	1.061365	-0.209184	-0.254559
C68	C	1.075062	-0.224866	-0.326999
C69	C	1.027570	-0.170516	-0.409186
C70	C	0.966379	-0.100482	-0.418927
C71	C	0.952678	-0.084803	-0.346479
C72	C	0.918883	-0.046136	-0.501106
C73	C	0.857692	0.023899	-0.510847
C74	C	0.843993	0.039575	-0.438405
C75	C	0.891484	-0.014775	-0.356218
C76	C	0.932585	-0.061814	-0.573554
C77	C	0.823897	0.062567	-0.665474
C78	C	0.810200	0.078249	-0.593034
C79	C	0.985589	-0.122470	-0.187197
C80	C	1.000172	-0.139156	-0.264298
C81	C	0.745845	0.151874	-1.126439
C82	C	0.679059	0.228299	-1.182921
C83	C	0.745823	-0.149643	-1.126437
C84	C	0.679029	-0.175551	-1.182919
C85	C	0.899648	-0.325664	-0.732836
C86	C	0.885060	-0.411311	-0.655733
C87	C	1.139435	0.003028	-0.793598
C88	C	1.206230	0.028936	-0.737117
C89	C	1.139413	-0.298490	-0.793596
C90	C	1.206200	-0.374915	-0.737114
C91	C	0.985611	0.179049	-1.187199
C92	C	1.000198	0.264696	-1.264303
C93	C	0.694520	0.328381	-1.221319
C94	C	0.631776	0.400198	-1.274402
C95	C	0.553571	0.371932	-1.289082
C96	C	0.538111	0.271840	-1.250682
C97	C	0.600855	0.200024	-1.197605
C98	C	0.600840	-0.134139	-1.197584
C99	C	0.538075	-0.158462	-1.250663
C100	C	0.553498	-0.224204	-1.289070
C101	C	0.631695	-0.265616	-1.274403
C102	C	0.694460	-0.241287	-1.221331
C103	C	0.925031	-0.505111	-0.631383
C104	C	0.911341	-0.585591	-0.558930
C105	C	0.857675	-0.572271	-0.510833
C106	C	0.817703	-0.478461	-0.535185
C107	C	0.831398	-0.397981	-0.607633
C108	C	1.284420	-0.012468	-0.722459
C109	C	1.347189	0.011878	-0.669400
C110	C	1.331766	0.077622	-0.630996
C111	C	1.253568	0.119030	-0.645659
C112	C	1.190802	0.094690	-0.698721
C113	C	1.284393	-0.346618	-0.722449
C114	C	1.347152	-0.418415	-0.669370
C115	C	1.331716	-0.518509	-0.630961
C116	C	1.253514	-0.546805	-0.645627
C117	C	1.190756	-0.475007	-0.698701
C118	C	1.053865	0.251344	-1.312383
C119	C	1.067570	0.331807	-1.384839
C120	C	1.027613	0.425623	-1.409209
C121	C	0.973939	0.438973	-1.361124
C122	C	0.960231	0.358509	-1.288674
H123	H	0.478935	-0.012511	-1.095939
O124	O	0.778788	-0.285978	-1.205503
H125	H	0.818514	-0.225364	-1.228800
O126	O	1.236941	0.189933	-0.604228
H127	H	1.211327	0.263067	-0.655625
O128	O	0.954442	-0.686770	-0.532683
H129	H	0.994043	-0.682509	-0.578316
O130	O	1.431494	-0.387887	-0.653559
H131	H	1.450770	-0.353493	-0.716348
O132	O	0.982919	-0.519488	-0.683250
H133	H	1.008414	-0.598236	-0.654129
H134	H	1.070532	0.424194	-0.780149
H135	H	0.758193	0.351415	-1.209372
O136	O	0.930834	0.540153	-1.387401
H137	H	0.975477	0.595141	-1.385472
H138	H	0.644379	0.481693	-1.305659
H139	H	0.474428	0.248838	-1.262643
O140	O	0.357246	0.052224	-1.240672
H141	H	0.296929	0.071652	-1.284124
O142	O	0.957616	0.407447	-0.732217
H143	H	0.933292	0.334493	-0.701781
O144	O	1.106417	-0.505524	-0.714534
H145	H	1.084469	-0.486025	-0.785056
H146	H	1.086409	0.174962	-1.292551
H147	H	0.502383	-0.244007	-1.332282
H148	H	0.888178	0.401831	-1.099475
H149	H	0.982407	-0.118837	-0.565615
O150	O	1.125465	0.317391	-1.436687
H151	H	1.128282	0.389095	-1.491171
H152	H	0.502488	0.430419	-1.332303
H153	H	0.261589	-0.112728	-0.871902
H154	H	0.216367	0.026262	-1.182632
H155	H	0.644242	-0.319144	-1.305683
O156	O	1.431523	-0.032802	-0.653579
H157	H	1.431693	-0.082622	-0.689185
H158	H	0.588269	-0.080598	-1.166327
O159	O	1.042357	-0.187399	-0.487327
H160	H	1.092895	-0.245214	-0.466750
H161	H	0.588254	0.118534	-1.166340
O162	O	1.106468	0.139349	-0.714524
H163	H	1.066758	0.078716	-0.691223
H164	H	1.382882	0.097433	-0.587791
O165	O	0.880167	0.598051	-1.119785
H166	H	0.885184	0.667213	-1.106871
O167	O	1.141052	-0.300401	-0.316498
H168	H	1.171777	-0.335556	-0.247181
H169	H	1.296977	-0.265121	-0.753716
H170	H	0.474408	-0.124735	-1.262593
O171	O	0.842892	-0.659083	-0.432704
H172	H	0.879697	-0.726546	-0.423868
O173	O	0.744201	0.153781	-0.603534
H174	H	0.755792	0.228583	-0.648341
H175	H	1.038783	0.491134	-1.468205
H176	H	0.774008	-0.467629	-0.496013
O177	O	1.399426	-0.595888	-0.573656
H178	H	1.445094	-0.597279	-0.611648
O179	O	0.788166	-0.296857	-0.633994
H180	H	0.748504	-0.301144	-0.588412
H181	H	1.296992	-0.066007	-0.753719
H182	H	1.240957	-0.628310	-0.614348
O183	O	1.092338	0.257478	-0.766312
H184	H	1.128833	0.303386	-0.812044
H185	H	0.916532	0.369394	-1.249529
H186	H	0.559882	-0.048138	-1.016282
H187	H	0.880336	-0.002005	-0.297230
O188	O	0.383283	-0.177397	-0.727153
H189	H	0.443599	-0.196818	-0.683700
H190	H	0.530169	-0.188606	-0.702237
H191	H	0.794162	0.096593	-0.446338
O192	O	0.686930	-0.180854	-0.719627
H193	H	0.741471	-0.168346	-0.747643
H194	H	0.965688	0.256449	-0.753572
H195	H	0.785224	0.106821	-0.732393
O196	O	1.112583	-0.267802	-0.165922
H197	H	1.092775	-0.245129	-0.117186
