data_functionalizedCrystal
_audit_creation_method	'MofGen! by Chris Wilmer'
_symmetry_space_group_name_H-M	'P1'
_symmetry_Int_Tables_number	1
_symmetry_cell_setting	triclinic
loop_
_symmetry_equiv_pos_as_xyz
  x,y,z
_cell_length_a	14.971482
_cell_length_b	9.065218
_cell_length_c	13.448316
_cell_angle_alpha	89.995277
_cell_angle_beta	89.993798
_cell_angle_gamma	84.314247
loop_
_atom_site_label
_atom_site_type_symbol
_atom_site_fract_x
_atom_site_fract_y
_atom_site_fract_z
O1	O	1.188382	0.192235	-0.082675
O2	O	0.928153	0.215265	-0.082679
O3	O	1.063647	-0.011002	-0.082675
O4	O	1.052889	0.418502	-0.082679
O5	O	1.063629	-0.011016	0.082709
O6	O	0.928136	0.215251	0.082705
O7	O	1.188365	0.192221	0.082709
Cu8	Cu	1.058249	0.203735	0.097808
Cu9	Cu	1.058269	0.203751	-0.097778
O10	O	1.052871	0.418488	0.082705
C11	C	0.894812	0.214229	0.000012
C12	C	0.795492	0.211145	0.000010
C13	C	0.748827	0.209686	0.090162
C14	C	0.655507	0.206765	0.090163
C15	C	0.608852	0.205314	0.000011
C16	C	0.655524	0.206770	-0.090147
C17	C	0.748843	0.209680	-0.090147
C18	C	0.461017	0.200708	-0.090141
C19	C	0.367691	0.197800	-0.090141
C20	C	0.367680	0.197793	0.090170
C21	C	0.461000	0.200703	0.090170
C22	C	0.507665	0.202161	0.000011
C23	C	1.062604	-0.065974	0.000015
C24	C	1.059513	-0.229754	0.000011
C25	C	1.221706	0.193257	0.000015
C26	C	1.321026	0.196341	0.000011
C27	C	1.053914	0.473460	0.000012
C28	C	1.057005	0.637240	0.000010
N29	N	1.058241	0.203722	0.235372
N30	N	1.058284	0.203752	-0.235342
C31	C	1.118256	0.103573	0.287414
C32	C	1.118262	0.103572	0.391517
C33	C	1.058256	0.203728	0.443576
C34	C	0.998234	0.303882	0.391527
C35	C	0.998224	0.303875	0.287426
C36	C	0.998258	0.303892	0.608507
C37	C	0.998269	0.303902	0.712616
C38	C	1.118296	0.103589	0.712599
C39	C	1.118287	0.103582	0.608497
C40	C	1.058266	0.203738	0.556455
H41	H	0.329707	0.196621	-0.163551
H42	H	0.949352	0.385425	0.245054
H43	H	0.617531	0.205579	-0.163550
H44	H	0.786805	0.210879	0.163574
H45	H	1.167167	0.022038	0.754978
H46	H	0.617518	0.205551	0.163574
H47	H	0.329681	0.196606	0.163581
O48	O	0.799181	0.211264	-0.187381
H49	H	0.751063	0.209782	-0.250071
H50	H	0.498982	0.201893	0.163579
H51	H	0.499009	0.201896	-0.163558
H52	H	1.167124	0.022020	0.245034
O53	O	1.183009	-0.004419	0.447653
H54	H	1.224746	-0.074043	0.393964
O55	O	1.183003	-0.004445	0.552341
H56	H	1.224734	-0.074101	0.606017
O57	O	0.933531	0.411893	0.768772
H58	H	0.891779	0.481514	0.715097
O59	O	0.933528	0.411922	0.552369
H60	H	0.891810	0.481583	0.606056
H61	H	0.949371	0.385427	0.433919
