data_functionalizedCrystal
_audit_creation_method	'MofGen! by Chris Wilmer'
_symmetry_space_group_name_H-M	'P1'
_symmetry_Int_Tables_number	1
_symmetry_cell_setting	triclinic
loop_
_symmetry_equiv_pos_as_xyz
  x,y,z
_cell_length_a	19.077236
_cell_length_b	29.839132
_cell_length_c	19.077258
_cell_angle_alpha	87.684023
_cell_angle_beta	89.918181
_cell_angle_gamma	87.662196
loop_
_atom_site_label
_atom_site_type_symbol
_atom_site_fract_x
_atom_site_fract_y
_atom_site_fract_z
Zn1	Zn	1.058141	0.140570	0.440521
Zn2	Zn	1.308141	0.390570	0.690521
Zn3	Zn	1.558141	0.640570	0.940521
Zn4	Zn	1.808141	0.890570	1.190521
Zn5	Zn	1.062756	0.218572	0.322999
Zn6	Zn	1.312756	0.468572	0.572999
Zn7	Zn	1.562756	0.718572	0.822999
Zn8	Zn	1.812756	0.968572	1.072999
Zn9	Zn	0.945373	0.146580	0.318299
Zn10	Zn	1.195373	0.396580	0.568299
Zn11	Zn	1.445373	0.646580	0.818299
Zn12	Zn	1.695373	0.896580	1.068299
Zn13	Zn	0.940557	0.218805	0.435738
Zn14	Zn	1.190557	0.468805	0.685738
Zn15	Zn	1.440557	0.718805	0.935738
Zn16	Zn	1.690557	0.968805	1.185738
O17	O	1.001706	0.181132	0.379389
O18	O	1.251706	0.431132	0.629389
O19	O	1.501706	0.681132	0.879389
O20	O	1.751706	0.931132	1.129389
O21	O	1.157087	0.148305	0.428900
O22	O	1.407087	0.398305	0.678900
O23	O	1.657087	0.648305	0.928900
O24	O	1.907087	0.898305	1.178900
O25	O	1.051132	0.211440	0.224044
O26	O	1.301132	0.461440	0.474044
O27	O	1.551132	0.711440	0.724044
O28	O	1.801132	0.961440	0.974044
O29	O	0.960416	0.082913	0.334546
O30	O	1.210416	0.332913	0.584546
O31	O	1.460416	0.582913	0.834546
O32	O	1.710416	0.832913	1.084546
O33	O	1.160478	0.205613	0.342557
O34	O	1.410478	0.455613	0.592557
O35	O	1.660478	0.705613	0.842557
O36	O	1.910478	0.955613	1.092557
O37	O	1.043266	0.078498	0.424342
O38	O	1.293266	0.328498	0.674342
O39	O	1.543266	0.578498	0.924342
O40	O	1.793266	0.828498	1.174342
O41	O	0.964891	0.158548	0.220590
O42	O	1.214891	0.408548	0.470590
O43	O	1.464891	0.658548	0.720590
O44	O	1.714891	0.908548	0.970590
O45	O	0.846399	0.158774	0.329909
O46	O	1.096399	0.408774	0.579909
O47	O	1.346399	0.658774	0.829909
O48	O	1.596399	0.908774	1.079909
O49	O	0.952207	0.206009	0.534705
O50	O	1.202207	0.456009	0.784705
O51	O	1.452207	0.706009	1.034705
O52	O	1.702207	0.956009	1.284705
O53	O	0.842861	0.211837	0.416191
O54	O	1.092861	0.461837	0.666191
O55	O	1.342861	0.711837	0.916191
O56	O	1.592861	0.961837	1.166191
O57	O	1.038596	0.148531	0.538218
O58	O	1.288596	0.398531	0.788218
O59	O	1.538596	0.648531	1.038218
O60	O	1.788596	0.898531	1.288218
O61	O	1.046462	0.281473	0.337920
O62	O	1.296462	0.531473	0.587920
O63	O	1.546462	0.781473	0.837920
O64	O	1.796462	1.031473	1.087920
O65	O	0.956683	0.281644	0.420749
O66	O	1.206683	0.531644	0.670749
O67	O	1.456683	0.781644	0.920749
O68	O	1.706683	1.031644	1.170749
C69	C	0.819133	0.185983	0.372021
C70	C	1.069133	0.435983	0.622021
C71	C	1.319133	0.685983	0.872021
C72	C	1.569133	0.935983	1.122021
C73	C	0.741027	0.188069	0.368886
C74	C	0.991027	0.438069	0.618886
C75	C	1.241027	0.688069	0.868886
C76	C	1.491027	0.938069	1.118886
C77	C	0.702565	0.159255	0.412435
C78	C	0.952565	0.409255	0.662435
C79	C	1.202565	0.659255	0.912435
C80	C	1.452565	0.909255	1.162435
C81	C	0.629176	0.161213	0.409483
C82	C	0.879176	0.411213	0.659483
C83	C	1.129176	0.661213	0.909483
C84	C	1.379176	0.911213	1.159483
C85	C	0.594250	0.191986	0.362985
C86	C	0.844250	0.441986	0.612985
C87	C	1.094250	0.691986	0.862985
C88	C	1.344250	0.941986	1.112985
C89	C	0.632717	0.220801	0.319430
C90	C	0.882717	0.470801	0.569430
C91	C	1.132717	0.720801	0.819430
C92	C	1.382717	0.970801	1.069430
C93	C	0.706105	0.218841	0.322379
C94	C	0.956105	0.468841	0.572379
C95	C	1.206105	0.718841	0.822379
C96	C	1.456105	0.968841	1.072379
C97	C	0.374954	0.201042	0.349333
C98	C	0.624954	0.451042	0.599333
C99	C	0.874954	0.701042	0.849333
C100	C	1.124954	0.951042	1.099333
C101	C	0.301561	0.203001	0.346389
C102	C	0.551561	0.453001	0.596389
C103	C	0.801561	0.703001	0.846389
C104	C	1.051561	0.953001	1.096389
C105	C	0.298024	0.143412	0.436441
C106	C	0.548024	0.393412	0.686441
C107	C	0.798024	0.643412	0.936441
C108	C	1.048024	0.893412	1.186441
C109	C	0.371413	0.141456	0.439389
C110	C	0.621413	0.391456	0.689389
C111	C	0.871413	0.641456	0.939389
C112	C	1.121413	0.891456	1.189389
C113	C	0.409874	0.170269	0.395832
C114	C	0.659874	0.420269	0.645832
C115	C	0.909874	0.670269	0.895832
C116	C	1.159874	0.920269	1.145832
N117	N	0.519235	0.193989	0.359967
N118	N	0.769235	0.443989	0.609967
N119	N	1.019235	0.693989	0.859967
N120	N	1.269235	0.943989	1.109967
N121	N	0.484888	0.168264	0.398847
N122	N	0.734888	0.418264	0.648847
N123	N	0.984888	0.668264	0.898847
N124	N	1.234888	0.918264	1.148847
C125	C	1.001569	0.297859	0.379342
C126	C	1.251569	0.547859	0.629342
C127	C	1.501569	0.797859	0.879342
C128	C	1.751569	1.047859	1.129342
C129	C	1.001574	0.347793	0.379347
C130	C	1.251574	0.597793	0.629347
C131	C	1.501574	0.847793	0.879347
C132	C	1.751574	1.097793	1.129347
C133	C	1.048485	0.657329	0.336298
C134	C	1.298485	0.907329	0.586298
C135	C	1.548485	1.157329	0.836298
C136	C	1.798485	1.407329	1.086298
C137	C	1.048551	0.845000	0.336317
C138	C	1.298551	1.095000	0.586317
C139	C	1.548551	1.345000	0.836317
C140	C	1.798551	1.595000	1.086317
O141	O	1.088362	0.869175	0.299700
O142	O	1.338362	1.119175	0.549700
O143	O	1.588362	1.369175	0.799700
O144	O	1.838362	1.619175	1.049700
N145	N	1.001780	0.868572	0.379404
N146	N	1.251780	1.118572	0.629404
N147	N	1.501780	1.368572	0.879404
N148	N	1.751780	1.618572	1.129404
C149	C	0.954991	0.845223	0.422492
C150	C	1.204991	1.095223	0.672492
C151	C	1.454991	1.345223	0.922492
C152	C	1.704991	1.595223	1.172492
O153	O	0.915216	0.869578	0.459146
O154	O	1.165216	1.119578	0.709146
O155	O	1.415216	1.369578	0.959146
O156	O	1.665216	1.619578	1.209146
C157	C	0.954929	0.657553	0.422477
C158	C	1.204929	0.907553	0.672477
C159	C	1.454929	1.157553	0.922477
C160	C	1.704929	1.407553	1.172477
C161	C	1.001699	0.633984	0.379382
C162	C	1.251699	0.883984	0.629382
C163	C	1.501699	1.133984	0.879382
C164	C	1.751699	1.383984	1.129382
C165	C	1.095251	0.633760	0.293208
C166	C	1.345251	0.883760	0.543208
C167	C	1.595251	1.133760	0.793208
C168	C	1.845251	1.383760	1.043208
C169	C	1.095232	0.586845	0.293201
C170	C	1.345232	0.836845	0.543201
C171	C	1.595232	1.086845	0.793201
C172	C	1.845232	1.336845	1.043201
C173	C	1.048445	0.563499	0.336284
C174	C	1.298445	0.813499	0.586284
C175	C	1.548445	1.063499	0.836284
C176	C	1.798445	1.313499	1.086284
C177	C	1.001679	0.587069	0.379375
C178	C	1.251679	0.837069	0.629375
C179	C	1.501679	1.087069	0.879375
C180	C	1.751679	1.337069	1.129375
C181	C	0.908144	0.634205	0.465568
C182	C	1.158144	0.884205	0.715568
C183	C	1.408144	1.134205	0.965568
C184	C	1.658144	1.384205	1.215568
C185	C	0.908134	0.587284	0.465562
C186	C	1.158134	0.837284	0.715562
C187	C	1.408134	1.087284	0.965562
C188	C	1.658134	1.337284	1.215562
C189	C	0.954904	0.563715	0.422467
C190	C	1.204904	0.813715	0.672467
C191	C	1.454904	1.063715	0.922467
C192	C	1.704904	1.313715	1.172467
C193	C	0.954873	0.516809	0.422451
C194	C	1.204873	0.766809	0.672451
C195	C	1.454873	1.016809	0.922451
C196	C	1.704873	1.266809	1.172451
N197	N	1.001645	0.493237	0.379365
N198	N	1.251645	0.743237	0.629365
N199	N	1.501645	0.993237	0.879365
N200	N	1.751645	1.243237	1.129365
C201	C	1.048431	0.516582	0.336281
C202	C	1.298431	0.766582	0.586281
C203	C	1.548431	1.016582	0.836281
C204	C	1.798431	1.266582	1.086281
C205	C	0.955026	0.943753	0.422496
C206	C	1.205026	1.193753	0.672496
C207	C	1.455026	1.443753	0.922496
C208	C	1.705026	1.693753	1.172496
C209	C	0.955041	0.990670	0.422499
C210	C	1.205041	1.240670	0.672499
C211	C	1.455041	1.490670	0.922499
C212	C	1.705041	1.740670	1.172499
C213	C	1.048602	0.990444	0.336325
C214	C	1.298602	1.240444	0.586325
C215	C	1.548602	1.490444	0.836325
C216	C	1.798602	1.740444	1.086325
C217	C	1.048583	0.943526	0.336319
C218	C	1.298583	1.193526	0.586319
C219	C	1.548583	1.443526	0.836319
C220	C	1.798583	1.693526	1.086319
C221	C	1.001798	0.920181	0.379409
C222	C	1.251798	1.170181	0.629409
C223	C	1.501798	1.420181	0.879409
C224	C	1.751798	1.670181	1.129409
C225	C	1.048386	0.418058	0.336269
C226	C	1.298386	0.668058	0.586269
C227	C	1.548386	0.918058	0.836269
C228	C	1.798386	1.168058	1.086269
C229	C	1.048360	0.371139	0.336264
C230	C	1.298360	0.621139	0.586264
C231	C	1.548360	0.871139	0.836264
C232	C	1.798360	1.121139	1.086264
C233	C	0.954802	0.371369	0.422441
C234	C	1.204802	0.621369	0.672441
C235	C	1.454802	0.871369	0.922441
C236	C	1.704802	1.121369	1.172441
C237	C	0.954825	0.418284	0.422443
C238	C	1.204825	0.668284	0.672443
C239	C	1.454825	0.918284	0.922443
C240	C	1.704825	1.168284	1.172443
C241	C	1.001622	0.441627	0.379356
C242	C	1.251622	0.691627	0.629356
C243	C	1.501622	0.941627	0.879356
C244	C	1.751622	1.191627	1.129356
O245	O	0.915089	0.492604	0.459055
O246	O	1.165089	0.742604	0.709055
O247	O	1.415089	0.992604	0.959055
O248	O	1.665089	1.242604	1.209055
O249	O	1.088211	0.492218	0.299644
O250	O	1.338211	0.742218	0.549644
O251	O	1.588211	0.992218	0.799644
O252	O	1.838211	1.242218	1.049644
C253	C	1.048504	0.704244	0.336305
C254	C	1.298504	0.954244	0.586305
C255	C	1.548504	1.204244	0.836305
C256	C	1.798504	1.454244	1.086305
C257	C	1.001738	0.727813	0.379396
C258	C	1.251738	0.977813	0.629396
C259	C	1.501738	1.227813	0.879396
C260	C	1.751738	1.477813	1.129396
C261	C	0.954952	0.704468	0.422479
C262	C	1.204952	0.954468	0.672479
C263	C	1.454952	1.204468	0.922479
C264	C	1.704952	1.454468	1.172479
C265	C	1.001753	0.774730	0.379399
C266	C	1.251753	1.024730	0.629399
C267	C	1.501753	1.274730	0.879399
C268	C	1.751753	1.524730	1.129399
C269	C	1.048539	0.798076	0.336315
C270	C	1.298539	1.048076	0.586315
C271	C	1.548539	1.298076	0.836315
C272	C	1.798539	1.548076	1.086315
C273	C	1.095310	0.774504	0.293229
C274	C	1.345310	1.024504	0.543229
C275	C	1.595310	1.274504	0.793229
C276	C	1.845310	1.524504	1.043229
C277	C	1.095291	0.727589	0.293222
C278	C	1.345291	0.977589	0.543222
C279	C	1.595291	1.227589	0.793222
C280	C	1.845291	1.477589	1.043222
C281	C	0.908180	0.728040	0.465566
C282	C	1.158180	0.978040	0.715566
C283	C	1.408180	1.228040	0.965566
C284	C	1.658180	1.478040	1.215566
C285	C	0.908203	0.774954	0.465569
C286	C	1.158203	1.024954	0.715569
C287	C	1.408203	1.274954	0.965569
C288	C	1.658203	1.524954	1.215569
C289	C	0.954989	0.798300	0.422485
C290	C	1.204989	1.048300	0.672485
C291	C	1.454989	1.298300	0.922485
C292	C	1.704989	1.548300	1.172485
C293	C	1.184993	0.176262	0.386786
C294	C	1.434993	0.426262	0.636786
C295	C	1.684993	0.676262	0.886786
C296	C	1.934993	0.926262	1.136786
C297	C	1.263098	0.174187	0.389939
C298	C	1.513098	0.424187	0.639939
C299	C	1.763098	0.674187	0.889939
C300	C	2.013098	0.924187	1.139939
C301	C	0.994350	0.176625	0.562671
C302	C	1.244350	0.426625	0.812671
C303	C	1.494350	0.676625	1.062671
C304	C	1.744350	0.926625	1.312671
C305	C	0.991214	0.174705	0.640775
C306	C	1.241214	0.424705	0.890775
C307	C	1.491214	0.674705	1.140775
C308	C	1.741214	0.924705	1.390775
C309	C	1.001837	1.063949	0.379437
C310	C	1.251837	1.313949	0.629437
C311	C	1.501837	1.563949	0.879437
C312	C	1.751837	1.813949	1.129437
C313	C	1.001827	1.014015	0.379415
C314	C	1.251827	1.264015	0.629415
C315	C	1.501827	1.514015	0.879415
C316	C	1.751827	1.764015	1.129415
C317	C	1.034639	0.201339	0.679269
C318	C	1.284639	0.451339	0.929269
C319	C	1.534639	0.701339	1.179269
C320	C	1.784639	0.951339	1.429269
C321	C	1.031693	0.199529	0.752655
C322	C	1.281693	0.449529	1.002655
C323	C	1.531693	0.699529	1.252655
C324	C	1.781693	0.949529	1.502655
C325	C	0.985319	0.171087	0.787547
C326	C	1.235319	0.421087	1.037547
C327	C	1.485319	0.671087	1.287547
C328	C	1.735319	0.921087	1.537547
C329	C	0.941892	0.144450	0.749047
C330	C	1.191892	0.394450	0.999047
C331	C	1.441892	0.644450	1.249047
C332	C	1.691892	0.894450	1.499047
C333	C	0.944842	0.146258	0.675662
C334	C	1.194842	0.396258	0.925662
C335	C	1.444842	0.646258	1.175662
C336	C	1.694842	0.896258	1.425662
C337	C	0.971685	0.162725	1.006832
C338	C	1.221685	0.412725	1.256832
C339	C	1.471685	0.662725	1.506832
C340	C	1.721685	0.912725	1.756832
C341	C	0.968737	0.160920	1.080222
C342	C	1.218737	0.410920	1.330222
C343	C	1.468737	0.660920	1.580222
C344	C	1.718737	0.910920	1.830222
C345	C	1.058540	0.215999	1.083825
C346	C	1.308540	0.465999	1.333825
C347	C	1.558540	0.715999	1.583825
C348	C	1.808540	0.965999	1.833825
C349	C	1.061482	0.217807	1.010438
C350	C	1.311482	0.467807	1.260438
C351	C	1.561482	0.717807	1.510438
C352	C	1.811482	0.967807	1.760438
C353	C	1.018059	0.191168	0.971946
C354	C	1.268059	0.441168	1.221946
C355	C	1.518059	0.691168	1.471946
C356	C	1.768059	0.941168	1.721946
N357	N	0.982305	0.169237	0.862559
N358	N	1.232305	0.419237	1.112559
N359	N	1.482305	0.669237	1.362559
N360	N	1.732305	0.919237	1.612559
N361	N	1.021076	0.193015	0.896934
N362	N	1.271076	0.443015	1.146934
N363	N	1.521076	0.693015	1.396934
N364	N	1.771076	0.943015	1.646934
C365	C	1.009029	0.185632	1.196820
C366	C	1.259029	0.435632	1.446820
C367	C	1.509029	0.685632	1.696820
C368	C	1.759029	0.935632	1.946820
C369	C	1.012162	0.187554	1.118716
C370	C	1.262162	0.437554	1.368716
C371	C	1.512162	0.687554	1.618716
C372	C	1.762162	0.937554	1.868716
H373	H	0.730996	0.134197	0.450301
H374	H	0.980996	0.384197	0.700301
H375	H	1.230996	0.634197	0.950301
H376	H	1.480996	0.884197	1.200301
H377	H	0.597863	0.137751	0.444947
H378	H	0.847863	0.387751	0.694947
H379	H	1.097863	0.637751	0.944947
H380	H	1.347863	0.887751	1.194947
H381	H	0.406260	0.224503	0.313867
H382	H	0.656260	0.474503	0.563867
H383	H	0.906260	0.724503	0.813867
H384	H	1.156260	0.974503	1.063867
H385	H	1.133354	0.652762	0.258124
H386	H	1.383354	0.902762	0.508124
H387	H	1.633354	1.152762	0.758124
H388	H	1.883354	1.402762	1.008124
H389	H	0.399844	0.116399	0.477256
H390	H	0.649844	0.366399	0.727256
H391	H	0.899844	0.616399	0.977256
H392	H	1.149844	0.866399	1.227256
H393	H	1.133403	0.793520	0.258146
H394	H	1.383403	1.043520	0.508146
H395	H	1.633403	1.293520	0.758146
H396	H	1.883403	1.543520	1.008146
H397	H	0.930975	0.137755	1.108629
H398	H	1.180975	0.387755	1.358629
H399	H	1.430975	0.637755	1.608629
H400	H	1.680975	0.887755	1.858629
H401	H	0.870111	0.794141	0.500661
H402	H	1.120111	1.044141	0.750661
H403	H	1.370111	1.294141	1.000661
H404	H	1.620111	1.544141	1.250661
H405	H	0.909483	0.124568	0.644321
H406	H	1.159483	0.374568	0.894321
H407	H	1.409483	0.624568	1.144321
H408	H	1.659483	0.874568	1.394321
H409	H	0.916707	0.352354	0.457517
H410	H	1.166707	0.602354	0.707517
H411	H	1.416707	0.852354	0.957517
H412	H	1.666707	1.102354	1.207517
H413	H	1.086668	0.924338	0.301228
H414	H	1.336668	1.174338	0.551228
H415	H	1.586668	1.424338	0.801228
H416	H	1.836668	1.674338	1.051228
H417	H	0.266701	0.119954	0.471902
H418	H	0.516701	0.369954	0.721902
H419	H	0.766701	0.619954	0.971902
H420	H	1.016701	0.869954	1.221902
H421	H	0.936324	0.141035	0.975500
H422	H	1.186324	0.391035	1.225500
H423	H	1.436324	0.641035	1.475500
H424	H	1.686324	0.891035	1.725500
H425	H	0.870082	0.709035	0.500651
H426	H	1.120082	0.959035	0.750651
H427	H	1.370082	1.209035	1.000651
H428	H	1.620082	1.459035	1.250651
H429	H	1.072405	0.224499	0.650866
H430	H	1.322405	0.474499	0.900866
H431	H	1.572405	0.724499	1.150866
H432	H	1.822405	0.974499	1.400866
H433	H	1.086697	1.009459	0.301245
H434	H	1.336697	1.259459	0.551245
H435	H	1.586697	1.509459	0.801245
H436	H	1.836697	1.759459	1.051245
H437	H	0.916950	1.009856	0.457584
H438	H	1.166950	1.259856	0.707584
H439	H	1.416950	1.509856	0.957584
H440	H	1.666950	1.759856	1.207584
H441	H	1.093894	0.237686	1.115174
H442	H	1.343894	0.487686	1.365174
H443	H	1.593894	0.737686	1.615174
H444	H	1.843894	0.987686	1.865174
H445	H	0.904136	0.121289	0.777462
H446	H	1.154136	0.371289	1.027462
H447	H	1.404136	0.621289	1.277462
H448	H	1.654136	0.871289	1.527462
H449	H	0.273126	0.228062	0.308524
H450	H	0.523126	0.478062	0.558524
H451	H	0.773126	0.728062	0.808524
H452	H	1.023126	0.978062	1.058524
H453	H	0.737420	0.242303	0.286916
H454	H	0.987420	0.492303	0.536916
H455	H	1.237420	0.742303	0.786916
H456	H	1.487420	0.992303	1.036916
H457	H	0.604275	0.245855	0.281567
H458	H	0.854275	0.495855	0.531567
H459	H	1.104275	0.745855	0.781567
H460	H	1.354275	0.995855	1.031567
H461	H	1.133318	0.567657	0.258111
H462	H	1.383318	0.817657	0.508111
H463	H	1.633318	1.067657	0.758111
H464	H	1.883318	1.317657	1.008111
H465	H	0.916926	0.924748	0.457587
H466	H	1.166926	1.174748	0.707587
H467	H	1.416926	1.424748	0.957587
H468	H	1.666926	1.674748	1.207587
H469	H	1.099234	0.240975	0.982035
H470	H	1.349234	0.490975	1.232035
H471	H	1.599234	0.740975	1.482035
H472	H	1.849234	0.990975	1.732035
H473	H	1.086494	0.437058	0.301185
H474	H	1.336494	0.687058	0.551185
H475	H	1.586494	0.937058	0.801185
H476	H	1.836494	1.187058	1.051185
H477	H	1.086445	0.351950	0.301168
H478	H	1.336445	0.601950	0.551168
H479	H	1.586445	0.851950	0.801168
H480	H	1.836445	1.101950	1.051168
H481	H	1.067055	0.221218	0.783994
H482	H	1.317055	0.471218	1.033994
H483	H	1.567055	0.721218	1.283994
H484	H	1.817055	0.971218	1.533994
H485	H	0.870056	0.653387	0.500657
H486	H	1.120056	0.903387	0.750657
H487	H	1.370056	1.153387	1.000657
H488	H	1.620056	1.403387	1.250657
H489	H	0.870036	0.568279	0.500654
H490	H	1.120036	0.818279	0.750654
H491	H	1.370036	1.068279	1.000654
H492	H	1.620036	1.318279	1.250654
H493	H	1.133375	0.708402	0.258130
H494	H	1.383375	0.958402	0.508130
H495	H	1.633375	1.208402	0.758130
H496	H	1.883375	1.458402	1.008130
H497	H	0.916743	0.437475	0.457537
H498	H	1.166743	0.687475	0.707537
H499	H	1.416743	0.937475	0.957537
H500	H	1.666743	1.187475	1.207537
