data_functionalizedCrystal
_audit_creation_method	'MofGen! by Chris Wilmer'
_symmetry_space_group_name_H-M	'P1'
_symmetry_Int_Tables_number	1
_symmetry_cell_setting	triclinic
loop_
_symmetry_equiv_pos_as_xyz
  x,y,z
_cell_length_a	12.594517
_cell_length_b	12.594516
_cell_length_c	21.395355
_cell_angle_alpha	90.011407
_cell_angle_beta	90.024858
_cell_angle_gamma	90.015853
loop_
_atom_site_label
_atom_site_type_symbol
_atom_site_fract_x
_atom_site_fract_y
_atom_site_fract_z
Zn1	Zn	1.627304	-0.423871	0.354298
Zn2	Zn	2.127304	0.076129	0.854298
Zn3	Zn	1.627184	-0.601835	0.249533
Zn4	Zn	2.127184	-0.101835	0.749533
Zn5	Zn	1.449297	-0.423871	0.249534
Zn6	Zn	1.949297	0.076129	0.749534
Zn7	Zn	1.449290	-0.601807	0.354273
Zn8	Zn	1.949290	-0.101807	0.854273
O9	O	1.538269	-0.512846	0.301909
O10	O	2.038269	-0.012846	0.801909
O11	O	1.776234	-0.447490	0.340410
O12	O	2.276234	0.052510	0.840410
O13	O	1.603539	-0.578240	0.161855
O14	O	2.103539	-0.078240	0.661855
O15	O	1.472963	-0.274925	0.263441
O16	O	1.972963	0.225075	0.763441
O17	O	1.776146	-0.578240	0.263440
O18	O	2.276146	-0.078240	0.763440
O19	O	1.603744	-0.274925	0.340411
O20	O	2.103744	0.225075	0.840411
O21	O	1.472847	-0.447490	0.161856
O22	O	1.972847	0.052510	0.661856
O23	O	1.300350	-0.447462	0.263417
O24	O	1.800350	0.052538	0.763417
O25	O	1.472951	-0.578192	0.441954
O26	O	1.972951	-0.078192	0.941954
O27	O	1.300345	-0.578192	0.340369
O28	O	1.800345	-0.078192	0.840369
O29	O	1.603737	-0.447463	0.441972
O30	O	2.103737	0.052537	0.941972
O31	O	1.603533	-0.750777	0.263416
O32	O	2.103533	-0.250777	0.763416
O33	O	1.472835	-0.750757	0.340368
O34	O	1.972835	-0.250757	0.840368
C35	C	1.261728	-0.512825	0.301891
C36	C	1.761728	-0.012825	0.801891
C37	C	1.143422	-0.512841	0.301898
C38	C	1.643422	-0.012841	0.801898
C39	C	1.538199	-0.789387	0.301903
C40	C	2.038199	-0.289387	0.801903
C41	C	1.538267	-0.907693	0.301921
C42	C	2.038267	-0.407693	0.801921
C43	C	1.074141	-0.441641	0.260124
C44	C	1.574141	0.058359	0.760124
C45	C	1.003328	-0.538723	0.244715
C46	C	1.503328	-0.038723	0.744715
C47	C	1.003436	-0.415807	0.317317
C48	C	1.503436	0.084193	0.817317
C49	C	1.074168	-0.609974	0.286459
C50	C	1.574168	-0.109974	0.786459
C51	C	1.074282	-0.486993	0.359088
C52	C	1.574282	0.013007	0.859088
C53	C	1.003501	-0.584142	0.343701
C54	C	1.503501	-0.084142	0.843701
C55	C	1.467173	-0.976973	0.343746
C56	C	1.967173	-0.476973	0.843746
C57	C	1.441234	-1.047813	0.286574
C58	C	1.941234	-0.547813	0.786574
C59	C	1.564303	-1.047651	0.359103
C60	C	2.064303	-0.547651	0.859103
C61	C	1.512276	-0.976975	0.244719
C62	C	2.012276	-0.476975	0.744719
C63	C	1.635390	-0.976806	0.317287
C64	C	2.135390	-0.476806	0.817287
C65	C	1.609488	-1.047614	0.260075
C66	C	2.109488	-0.547614	0.760075
C67	C	1.815890	-0.512868	0.301928
C68	C	2.315890	-0.012868	0.801928
C69	C	1.934195	-0.512878	0.301936
C70	C	2.434195	-0.012878	0.801936
C71	C	1.538357	-0.512825	0.465333
C72	C	2.038357	-0.012825	0.965333
C73	C	1.538395	-0.512815	0.534974
C74	C	2.038395	-0.012815	1.034974
C75	C	1.538368	-0.235225	0.301929
C76	C	2.038368	0.264775	0.801929
C77	C	1.538410	-0.116920	0.301938
C78	C	2.038410	0.383080	0.801938
C79	C	1.538242	-0.512791	0.139122
C80	C	2.038242	-0.012791	0.639122
C81	C	1.538411	-0.512500	0.069481
C82	C	2.038411	-0.012500	0.569481
C83	C	1.606492	-0.444742	0.567697
C84	C	2.106492	0.055258	1.067697
C85	C	1.606491	-0.444696	0.633133
C86	C	2.106491	0.055304	1.133133
C87	C	1.538403	-0.512743	0.665842
C88	C	2.038403	-0.012743	1.165842
C89	C	1.470292	-0.580821	0.633111
C90	C	1.970292	-0.080821	1.133111
C91	C	1.470288	-0.580857	0.567677
C92	C	1.970288	-0.080857	1.067677
C93	C	1.529974	-0.608580	0.769515
C94	C	2.029974	-0.108580	1.269515
C95	C	1.529986	-0.608546	0.834948
C96	C	2.029986	-0.108546	1.334948
C97	C	1.538410	-0.512630	0.867663
C98	C	2.038410	-0.012630	1.367663
C99	C	1.546844	-0.416747	0.834937
C100	C	2.046844	0.083253	1.334937
C101	C	1.546840	-0.416783	0.769503
C102	C	2.046840	0.083217	1.269503
C103	C	1.538399	-0.512711	0.736795
C104	C	2.038399	-0.012711	1.236795
C105	C	1.606509	-0.444502	0.971339
C106	C	2.106509	0.055498	1.471339
C107	C	1.606500	-0.444454	1.036776
C108	C	2.106500	0.055546	1.536776
C109	C	1.470307	-0.580588	1.036752
C110	C	1.970307	-0.080588	1.536752
C111	C	1.470311	-0.580626	0.971317
C112	C	1.970311	-0.080626	1.471317
C113	C	1.538417	-0.512585	0.938614
C114	C	2.038417	-0.012585	1.438614
H115	H	1.105158	-0.381487	0.224753
H116	H	1.605158	0.118513	0.724753
H117	H	1.105108	-0.692075	0.273379
H118	H	1.605108	-0.192075	0.773379
O119	O	1.679949	-0.371107	0.936059
O120	O	2.179949	0.128893	1.436059
H121	H	1.727290	-0.323748	0.969811
H122	H	2.227290	0.176252	1.469811
H123	H	1.661952	-0.389014	1.063418
H124	H	2.161952	0.110986	1.563418
O125	O	1.520896	-0.711962	0.870239
O126	O	2.020896	-0.211962	1.370239
H127	H	1.522330	-0.695826	0.921235
H128	H	2.022330	-0.195826	1.421235
H129	H	1.717440	-0.945596	0.330298
H130	H	2.217440	-0.445596	0.830298
O131	O	1.483055	-0.936024	0.180654
O132	O	1.983055	-0.436024	0.680654
H133	H	1.541798	-0.964976	0.145956
H134	H	2.041798	-0.464976	0.645956
O135	O	0.962645	-0.664004	0.390513
O136	O	1.462645	-0.164004	0.890513
H137	H	0.991121	-0.744453	0.377580
H138	H	1.491121	-0.244453	0.877580
H139	H	1.414858	-0.635983	1.063384
H140	H	1.914858	-0.135983	1.563384
H141	H	1.414830	-0.636290	0.541033
H142	H	1.914830	-0.136290	1.041033
O143	O	1.396855	-0.654214	0.668388
O144	O	1.896855	-0.154214	1.168388
H145	H	1.313325	-0.635946	0.655813
H146	H	1.813325	-0.135946	1.155813
O147	O	1.520875	-0.712036	0.734230
O148	O	2.020875	-0.212036	1.234230
H149	H	1.515023	-0.778702	0.767977
H150	H	2.015023	-0.278702	1.267977
H151	H	1.669670	-1.078437	0.224672
H152	H	2.169670	-0.578437	0.724672
H153	H	1.586267	-1.078696	0.407455
H154	H	2.086267	-0.578696	0.907455
O155	O	0.962033	-0.567717	0.180677
O156	O	1.462033	-0.067717	0.680677
H157	H	0.990313	-0.508487	0.146067
H158	H	1.490313	-0.008487	0.646067
O159	O	1.115612	-0.457971	0.423110
O160	O	1.615612	0.042029	0.923110
H161	H	1.087339	-0.377334	0.435789
H162	H	1.587339	0.122666	0.935789
H163	H	0.972310	-0.333742	0.330322
H164	H	1.472310	0.166258	0.830322
H165	H	1.406944	-0.945954	0.379064
H166	H	1.906944	-0.445954	0.879064
H167	H	1.661949	-0.389336	0.541075
H168	H	2.161949	0.110664	1.041075
H169	H	1.661941	-0.389257	0.659782
H170	H	2.161941	0.110743	1.159782
H171	H	1.359165	-1.079026	0.273591
H172	H	1.859165	-0.579026	0.773591
H173	H	1.553704	-0.338711	0.742861
H174	H	2.053704	0.161289	1.242861
H175	H	1.553705	-0.338643	0.861573
H176	H	2.053705	0.161357	1.361573
H177	H	1.414865	-0.636066	0.944673
H178	H	1.914865	-0.136066	1.444673
