data_functionalizedCrystal
_audit_creation_method	'MofGen! by Chris Wilmer'
_symmetry_space_group_name_H-M	'P1'
_symmetry_Int_Tables_number	1
_symmetry_cell_setting	triclinic
loop_
_symmetry_equiv_pos_as_xyz
  x,y,z
_cell_length_a	10.654541
_cell_length_b	11.792241
_cell_length_c	9.730217
_cell_angle_alpha	89.996588
_cell_angle_beta	89.999932
_cell_angle_gamma	84.338672
loop_
_atom_site_label
_atom_site_type_symbol
_atom_site_fract_x
_atom_site_fract_y
_atom_site_fract_z
O1	O	1.667388	0.159405	-0.114248
O2	O	1.301866	0.174596	-0.114261
O3	O	1.493497	0.001850	-0.114245
O4	O	1.475756	0.332151	-0.114264
O5	O	1.493491	0.001849	0.114336
O6	O	1.301860	0.174595	0.114320
O7	O	1.667382	0.159403	0.114332
Zn8	Zn	1.484620	0.166999	0.150618
Zn9	Zn	1.484628	0.167001	-0.150547
O10	O	1.475750	0.332149	0.114316
C11	C	1.255068	0.173481	0.000028
C12	C	1.115634	0.170145	0.000024
C13	C	1.087078	0.376710	-0.000006
C14	C	1.007297	0.478420	-0.000026
C15	C	0.876287	0.475279	-0.000027
C16	C	0.825059	0.370416	-0.000004
C17	C	0.904841	0.268706	0.000016
C18	C	1.035851	0.271858	0.000013
C19	C	0.933396	0.062144	0.000056
C20	C	1.064405	0.065282	0.000047
C21	C	0.882167	-0.042719	0.000079
C22	C	0.961949	-0.144432	0.000089
C23	C	1.092966	-0.141286	0.000089
C24	C	1.144187	-0.036428	0.000067
C25	C	1.492380	-0.040444	0.000045
C26	C	1.489044	-0.166465	0.000044
C27	C	1.482911	-0.397192	0.000020
C28	C	1.486319	-0.268799	0.000033
C29	C	1.714180	0.160519	0.000040
C30	C	1.853614	0.163854	0.000035
C31	C	1.476868	0.374443	0.000023
C32	C	1.480203	0.500465	0.000015
N33	N	1.484624	0.166997	0.356154
N34	N	1.484634	0.166994	-0.356083
C35	C	1.654383	0.014075	0.356159
C36	C	1.739271	-0.062382	0.428101
C37	C	1.739283	-0.062383	0.571981
C38	C	1.654397	0.014080	0.643922
C39	C	1.569509	0.090537	0.571979
C40	C	1.569508	0.090532	0.428096
C41	C	1.399746	0.243451	0.571975
C42	C	1.399737	0.243459	0.428095
C43	C	1.314859	0.319914	0.643916
C44	C	1.229975	0.396379	0.571973
C45	C	1.229966	0.396377	0.428085
C46	C	1.314849	0.319917	0.356153
H47	H	1.049022	0.563797	-0.000041
H48	H	1.157918	-0.224112	0.000111
N49	N	1.826009	-0.140465	0.645475
N50	N	1.904203	-0.103781	0.725748
H51	H	1.965455	-0.158926	0.777654
N52	N	0.748343	-0.045911	0.000090
N53	N	0.677121	0.044907	0.000069
H54	H	0.582605	0.042652	0.000073
H55	H	1.250860	-0.033857	0.000051
N56	N	1.314884	0.319923	0.209184
N57	N	1.390693	0.251662	0.144975
H58	H	1.390728	0.251667	0.041176
N59	N	1.654386	0.014048	0.790890
N60	N	1.633024	-0.073831	0.855096
H61	H	1.633014	-0.073858	0.958895
N62	N	1.314838	0.319906	0.790884
N63	N	1.217689	0.300298	0.855098
H64	H	1.217670	0.300290	0.958897
N65	N	1.220897	0.379940	-0.000028
N66	N	1.266621	0.473567	-0.000058
H67	H	1.361132	0.475852	-0.000075
H68	H	0.811328	0.558101	-0.000034
N69	N	0.691240	0.367186	-0.000008
N70	N	0.645516	0.273559	0.000005
H71	H	0.551005	0.271273	0.000003
N72	N	1.143272	0.474458	0.645478
N73	N	1.143285	0.474436	0.773941
H74	H	1.082050	0.529580	0.825861
N75	N	0.909601	-0.251525	0.000130
N76	N	0.792627	-0.254314	0.000147
H77	H	0.755649	-0.329950	0.000176
H78	H	1.160836	0.458634	0.369517
N79	N	1.825961	-0.140483	0.354594
N80	N	1.825942	-0.140478	0.226131
H81	H	1.887165	-0.195638	0.174218
H82	H	1.654391	0.014077	0.239004
