data_functionalizedCrystal
_audit_creation_method	'MofGen! by Chris Wilmer'
_symmetry_space_group_name_H-M	'P1'
_symmetry_Int_Tables_number	1
_symmetry_cell_setting	triclinic
loop_
_symmetry_equiv_pos_as_xyz
  x,y,z
_cell_length_a	13.032831
_cell_length_b	16.120484
_cell_length_c	16.120256
_cell_angle_alpha	95.616173
_cell_angle_beta	86.057501
_cell_angle_gamma	86.078521
loop_
_atom_site_label
_atom_site_type_symbol
_atom_site_fract_x
_atom_site_fract_y
_atom_site_fract_z
Zn1	Zn	1.523154	-0.519560	-0.651746
Zn2	Zn	2.023154	-0.019560	-0.151746
Zn3	Zn	1.523025	-0.652232	-0.519042
Zn4	Zn	2.023025	-0.152232	-0.019042
Zn5	Zn	1.359945	-0.495048	-0.494602
Zn6	Zn	1.859945	0.004952	0.005398
Zn7	Zn	1.341484	-0.639874	-0.639423
Zn8	Zn	1.841484	-0.139874	-0.139423
O9	O	1.436902	-0.576679	-0.576203
O10	O	1.936902	-0.076679	-0.076203
O11	O	1.667417	-0.552590	-0.649529
O12	O	2.167417	-0.052590	-0.149529
O13	O	1.509064	-0.626294	-0.399655
O14	O	2.009064	-0.126294	0.100345
O15	O	1.389375	-0.382166	-0.510377
O16	O	1.889375	0.117834	-0.010377
O17	O	1.667322	-0.650063	-0.552032
O18	O	2.167322	-0.150063	-0.052032
O19	O	1.509284	-0.400175	-0.625830
O20	O	2.009284	0.099825	-0.125830
O21	O	1.389249	-0.510812	-0.381699
O22	O	1.889249	-0.010812	0.118301
O23	O	1.213216	-0.498829	-0.498427
O24	O	1.713216	0.001171	0.001573
O25	O	1.357911	-0.629001	-0.757203
O26	O	1.857911	-0.129001	-0.257203
O27	O	1.199653	-0.605232	-0.604826
O28	O	1.699653	-0.105232	-0.104826
O29	O	1.491384	-0.540607	-0.766257
O30	O	1.991384	-0.040607	-0.266257
O31	O	1.491163	-0.766727	-0.540082
O32	O	1.991163	-0.266727	-0.040082
O33	O	1.357786	-0.757647	-0.628525
O34	O	1.857786	-0.257647	-0.128525
C35	C	1.169025	-0.548030	-0.547638
C36	C	1.669025	-0.048030	-0.047638
C37	C	1.054423	-0.535795	-0.535438
C38	C	1.554423	-0.035795	-0.035438
C39	C	0.996646	-0.583064	-0.582571
C40	C	1.496646	-0.083064	-0.082571
C41	C	0.878199	-0.570420	-0.569962
C42	C	1.378199	-0.070420	-0.069962
C43	C	1.422484	-0.792303	-0.585639
C44	C	1.922484	-0.292303	-0.085639
C45	C	1.416408	-0.884559	-0.589714
C46	C	1.916408	-0.384559	-0.089714
C47	C	1.405320	-1.053474	-0.597171
C48	C	1.905320	-0.553474	-0.097171
C49	C	1.468667	-1.099062	-0.555269
C50	C	1.968667	-0.599062	-0.055269
C51	C	1.462498	-1.193053	-0.559418
C52	C	1.962498	-0.693053	-0.059418
C53	C	1.411488	-0.959476	-0.593023
C54	C	1.911488	-0.459476	-0.093023
C55	C	1.705825	-0.605439	-0.604881
C56	C	2.205825	-0.105439	-0.104881
C57	C	1.820424	-0.617695	-0.617102
C58	C	2.320424	-0.117695	-0.117102
C59	C	1.422603	-0.586160	-0.792687
C60	C	1.922603	-0.086160	-0.292687
C61	C	1.416509	-0.590200	-0.884939
C62	C	1.916509	-0.090200	-0.384939
C63	C	1.451403	-0.360216	-0.566752
C64	C	1.951403	0.139784	-0.066752
C65	C	1.457583	-0.267973	-0.562724
C66	C	1.957583	0.232027	-0.062724
C67	C	1.468678	-0.555587	-1.099424
C68	C	1.968678	-0.055587	-0.599424
C69	C	1.405352	-0.597538	-1.053835
C70	C	1.905352	-0.097538	-0.553835
C71	C	1.411562	-0.593454	-0.959853
C72	C	1.911562	-0.093454	-0.459853
C73	C	1.462470	-0.559671	-1.193415
C74	C	1.962470	-0.059671	-0.693415
C75	C	1.451209	-0.567181	-0.360566
C76	C	1.951209	-0.067181	0.139434
C77	C	1.457518	-0.562928	-0.268325
C78	C	1.957518	-0.062928	0.231675
H79	H	0.839978	-0.520583	-0.520276
H80	H	1.339978	-0.020583	-0.020276
F81	F	1.545622	-0.504628	-1.058182
F82	F	2.045622	-0.004628	-0.558182
H83	H	0.858644	-0.667524	-0.666797
H84	H	1.358644	-0.167524	-0.166797
H85	H	1.346467	-0.636516	-1.085388
H86	H	1.846467	-0.136516	-0.585388
H87	H	1.527533	-1.067502	-0.516280
H88	H	2.027533	-0.567502	-0.016280
F89	F	1.046604	-0.648199	-0.647514
F90	F	1.546604	-0.148199	-0.147514
H91	H	1.016198	-0.485962	-0.485754
H92	H	1.516198	0.014038	0.014246
H93	H	1.346458	-1.085032	-0.636156
H94	H	1.846458	-0.585032	-0.136156
