data_functionalizedCrystal
_audit_creation_method	'MofGen! by Chris Wilmer'
_symmetry_space_group_name_H-M	'P1'
_symmetry_Int_Tables_number	1
_symmetry_cell_setting	triclinic
loop_
_symmetry_equiv_pos_as_xyz
  x,y,z
_cell_length_a	18.878441
_cell_length_b	14.560438
_cell_length_c	14.560438
_cell_angle_alpha	60.000069
_cell_angle_beta	89.998656
_cell_angle_gamma	60.000434
loop_
_atom_site_label
_atom_site_type_symbol
_atom_site_fract_x
_atom_site_fract_y
_atom_site_fract_z
Zr1	Zr	0.682381	1.005308	-0.120537
O2	O	0.569278	1.196907	-0.267177
O3	O	0.717053	0.813709	-0.075587
O4	O	0.717053	1.005313	-0.267187
O5	O	0.569278	1.005300	0.075564
O6	O	0.833621	1.005318	-0.267193
O7	O	0.569278	1.005302	-0.075577
O8	O	0.833621	0.662573	0.075546
O9	O	0.569278	1.348044	-0.267174
O10	O	0.818834	0.892521	-0.056417
O11	O	0.731841	0.892515	0.056382
O12	O	0.731841	1.118104	-0.169203
O13	O	0.644848	1.118098	-0.056405
Zr14	Zr	0.868294	1.005313	0.120507
Zr15	Zr	0.868293	1.005317	-0.120545
Zr16	Zr	0.682381	1.005304	0.120515
Zr17	Zr	0.682381	1.246356	-0.120533
Zr18	Zr	0.868293	0.764265	0.120502
O19	O	0.833622	1.196913	0.075556
O20	O	0.833621	1.196919	-0.267189
O21	O	0.569278	1.196900	0.075568
O22	O	0.981397	0.813715	0.267147
O23	O	0.981396	0.813721	-0.075598
O24	O	0.717053	0.813702	0.267159
O25	O	0.981397	1.005321	-0.075595
O26	O	0.833622	1.005309	0.267157
O27	O	0.717054	1.005303	0.267162
O28	O	0.981397	1.005319	0.075546
O29	O	0.717054	1.348051	-0.267181
O30	O	0.833621	0.662570	0.267151
O31	O	0.981396	0.662577	0.267144
O32	O	0.981396	0.662580	0.075540
O33	O	0.569278	1.348041	-0.075570
O34	O	0.717054	1.348048	-0.075577
O35	O	0.818834	0.892517	0.169173
O36	O	0.905827	0.892523	0.056374
O37	O	0.818834	1.118106	-0.056412
O38	O	0.731841	1.118100	0.056386
C39	C	0.775337	0.703797	-0.000021
C40	C	0.775337	0.601466	-0.000023
C41	C	0.542790	1.005300	-0.000005
C42	C	0.463865	1.005296	-0.000001
C43	C	0.820744	0.553393	-0.058903
C44	C	0.820748	0.457233	-0.058892
C45	C	0.729929	0.457232	0.058880
C46	C	0.729931	0.553383	0.058875
C47	C	0.472193	0.887545	0.058868
C48	C	0.398032	0.887550	0.058869
C49	C	0.315544	1.005306	-0.000007
C50	C	0.307217	1.123066	-0.058878
C51	C	0.381377	1.123060	-0.058872
C52	C	0.152647	1.123070	-0.058890
C53	C	0.078482	1.123076	-0.058898
C54	C	0.169302	0.887559	0.058851
C55	C	0.243462	0.887553	0.058857
C56	C	0.235130	1.005314	-0.000016
C57	C	1.007885	1.005321	-0.000025
C58	C	1.086810	1.005325	-0.000029
C59	C	0.775337	1.005316	-0.301535
C60	C	0.775337	1.005318	-0.403868
C61	C	0.775338	1.306824	-0.000009
C62	C	0.775338	1.409155	-0.000008
C63	C	0.839555	1.005322	-0.451946
C64	C	0.839557	1.005310	-0.548092
C65	C	0.711116	1.005295	-0.548075
C66	C	0.711118	1.005298	-0.451926
C67	C	0.775338	1.005305	0.301504
C68	C	0.775338	1.005303	0.403837
C69	C	1.007885	0.703808	-0.000031
C70	C	1.086809	0.601480	-0.000036
C71	C	0.775337	0.703791	0.301499
C72	C	0.775337	0.601459	0.403830
C73	C	1.007885	0.703802	0.301489
C74	C	1.086810	0.601473	0.403816
C75	C	0.542790	1.306819	-0.301519
C76	C	0.463865	1.409148	-0.403846
C77	C	0.542790	1.306814	0.000001
C78	C	0.463866	1.409141	0.000006
C79	C	0.775337	1.306830	-0.301529
C80	C	0.775338	1.409163	-0.403860
C81	C	1.078463	0.553425	-0.058925
C82	C	1.152614	0.457291	-0.058952
C83	C	1.235110	0.409207	-0.000084
C84	C	1.243454	0.457272	0.058806
C85	C	1.169304	0.553411	0.058826
C86	C	1.169291	0.553421	0.392991
C87	C	1.243456	0.457286	0.489129
C88	C	1.235138	0.409197	0.596092
C89	C	1.152648	0.457258	0.606915
C90	C	1.078485	0.553398	0.510778
C91	C	0.381384	1.457212	-0.393021
C92	C	0.307219	1.553377	-0.489159
C93	C	0.315537	1.601471	-0.596122
C94	C	0.398027	1.553404	-0.606946
C95	C	0.472190	1.457246	-0.510808
C96	C	0.472211	1.457206	0.058884
C97	C	0.398061	1.553367	0.058885
C98	C	0.315565	1.601454	0.000014
C99	C	0.307221	1.553385	-0.058872
C100	C	0.381371	1.457233	-0.058878
C101	C	0.820746	0.553382	0.510781
C102	C	0.820736	0.457238	0.606928
C103	C	0.729907	0.457253	0.489159
C104	C	0.729913	0.553402	0.393015
H105	H	0.857724	0.418093	-0.106836
H106	H	0.658823	1.005290	-0.412776
H107	H	0.240048	1.218945	-0.106810
H108	H	0.857718	0.592537	-0.106859
N109	N	0.406984	1.605282	-0.722319
H110	H	0.439733	1.531934	-0.731342
H111	H	0.439717	1.645198	-0.731274
H112	H	0.692960	0.418073	0.106831
H113	H	1.176080	0.592561	0.305905
H114	H	1.310632	0.418108	0.106734
H115	H	0.692954	0.592523	0.106827
H116	H	1.310616	0.418164	0.480296
N117	N	1.315132	0.305502	0.699778
H118	H	1.368643	0.282363	0.676679
H119	H	1.315097	0.225778	0.746015
H120	H	0.374563	1.418101	-0.106821
H121	H	1.011298	0.592574	-0.106876
N122	N	1.143593	0.405461	-0.122464
H123	H	1.172338	0.308943	-0.068473
H124	H	1.172307	0.422296	-0.181734
N125	N	1.143683	0.405384	0.722285
H126	H	1.203186	0.337184	0.781536
H127	H	1.110900	0.365547	0.731200
H128	H	0.176084	0.791674	0.106779
N129	N	0.561179	1.405371	0.122379
H130	H	0.593968	1.422105	0.068372
H131	H	0.593907	1.308872	0.181635
N132	N	0.908836	1.005308	-0.400107
H133	H	0.942579	0.925225	-0.320178
H134	H	0.880772	1.085435	-0.400327
H135	H	0.404872	1.592489	0.106841
N136	N	0.989524	0.605215	0.522462
H137	H	0.995517	0.560153	0.604813
H138	H	0.956781	0.588467	0.485147
N139	N	0.372400	1.405346	-0.277662
H140	H	0.308890	1.450400	-0.285409
H141	H	0.401195	1.422070	-0.235199
H142	H	0.240059	1.592497	-0.480325
N143	N	0.218239	1.605240	-0.122344
H144	H	0.211266	1.645146	-0.204717
H145	H	0.172597	1.673384	-0.113297
N146	N	0.561161	0.760535	0.122360
H147	H	0.555180	0.685942	0.159654
H148	H	0.593910	0.755398	0.181555
H149	H	0.404821	0.791665	0.106808
N150	N	0.332436	0.760554	0.122358
H151	H	0.365228	0.755312	0.068354
H152	H	0.326396	0.686022	0.159656
N153	N	0.235542	1.705183	-0.699809
H154	H	0.182031	1.728323	-0.676710
H155	H	0.235578	1.671652	-0.746048
N156	N	0.869737	0.605216	0.522440
H157	H	0.898501	0.560167	0.604786
H158	H	0.828047	0.701735	0.485116
H159	H	0.891850	1.005311	-0.587234
H160	H	0.539348	1.418114	-0.519636
N161	N	0.235592	1.705161	0.000027
H162	H	0.253405	1.728304	0.046265
H163	H	0.199931	1.671626	0.033514
H164	H	0.011317	1.218963	-0.106841
N165	N	0.869711	0.405384	0.722283
H166	H	0.898486	0.450421	0.714539
H167	H	0.915358	0.308864	0.764738
H168	H	0.145856	1.218963	-0.106809
H169	H	0.692926	0.418112	0.480367
H170	H	1.295481	0.330923	-0.000109
H171	H	0.692931	0.592550	0.305924
N172	N	0.372399	1.250062	-0.122363
H173	H	0.308891	1.324662	-0.159664
H174	H	0.401193	1.255192	-0.181553
H175	H	0.658830	1.005282	-0.587215
H176	H	1.176112	0.592525	0.106787
