data_functionalizedCrystal
_audit_creation_method	'MofGen! by Chris Wilmer'
_symmetry_space_group_name_H-M	'P1'
_symmetry_Int_Tables_number	1
_symmetry_cell_setting	triclinic
loop_
_symmetry_equiv_pos_as_xyz
  x,y,z
_cell_length_a	19.288864
_cell_length_b	16.992695
_cell_length_c	18.366186
_cell_angle_alpha	89.993794
_cell_angle_beta	89.977106
_cell_angle_gamma	86.902234
loop_
_atom_site_label
_atom_site_type_symbol
_atom_site_fract_x
_atom_site_fract_y
_atom_site_fract_z
O1	O	0.927052	0.097795	-0.060785
O2	O	1.427052	0.597795	0.439215
O3	O	0.725561	0.110988	-0.060736
O4	O	1.225561	0.610988	0.439264
O5	O	0.825499	-0.009748	-0.060755
O6	O	1.325499	0.490252	0.439245
O7	O	0.827114	0.218531	-0.060767
O8	O	1.327114	0.718531	0.439233
O9	O	0.825480	-0.009754	0.060345
O10	O	1.325480	0.490246	0.560345
O11	O	0.725542	0.110982	0.060363
O12	O	1.225542	0.610982	0.560363
O13	O	0.927034	0.097789	0.060314
O14	O	1.427034	0.597789	0.560314
Zn15	Zn	0.826285	0.104385	0.079566
Zn16	Zn	1.326285	0.604385	0.579566
Zn17	Zn	0.826309	0.104392	-0.079988
Zn18	Zn	1.326309	0.604392	0.420012
O19	O	0.827096	0.218525	0.060333
O20	O	1.327096	0.718525	0.560333
C21	C	0.699650	0.110560	-0.000180
C22	C	1.199650	0.610560	0.499820
C23	C	0.622472	0.109286	-0.000161
C24	C	1.122472	0.609286	0.499839
C25	C	0.581905	0.180128	-0.000176
C26	C	1.081905	0.680128	0.499824
C27	C	0.509388	0.178931	-0.000184
C28	C	1.009388	0.678931	0.499816
C29	C	0.477442	0.106888	-0.000191
C30	C	0.977442	0.606888	0.499809
C31	C	0.518018	0.036036	-0.000172
C32	C	1.018018	0.536036	0.499828
C33	C	0.590534	0.037235	-0.000157
C34	C	1.090534	0.537235	0.499843
C35	C	0.365885	0.050255	-0.042639
C36	C	0.865885	0.550255	0.457361
C37	C	0.293371	0.049059	-0.042659
C38	C	0.793371	0.549059	0.457341
C39	C	0.253780	0.103186	-0.000235
C40	C	0.753780	0.603186	0.499765
C41	C	0.286712	0.158522	0.042199
C42	C	0.786712	0.658522	0.542199
C43	C	0.359227	0.159722	0.042214
C44	C	0.859227	0.659722	0.542214
C45	C	0.398811	0.105579	-0.000207
C46	C	0.898811	0.605579	0.499793
C47	C	0.134581	0.172735	-0.000258
C48	C	0.634581	0.672735	0.499742
C49	C	0.062063	0.171535	-0.000261
C50	C	0.562063	0.671535	0.499739
C51	C	0.070695	0.028638	-0.000257
C52	C	0.570695	0.528638	0.499743
C53	C	0.143212	0.029840	-0.000246
C54	C	0.643212	0.529840	0.499754
C55	C	0.175150	0.101891	-0.000250
C56	C	0.675150	0.601891	0.499750
C57	C	0.823411	-0.038957	-0.000205
C58	C	1.323411	0.461043	0.499795
C59	C	0.817211	-0.125979	-0.000203
C60	C	1.317211	0.374021	0.499797
C61	C	0.877039	-0.176431	-0.000217
C62	C	1.377039	0.323569	0.499783
C63	C	0.871208	-0.258197	-0.000223
C64	C	1.371208	0.241803	0.499777
C65	C	0.805549	-0.289509	-0.000209
C66	C	1.305549	0.210491	0.499791
C67	C	0.745717	-0.239051	-0.000197
C68	C	1.245717	0.260949	0.499803
C69	C	0.751548	-0.157287	-0.000197
C70	C	1.251548	0.342713	0.499803
C71	C	0.781382	-0.533022	-0.000213
C72	C	1.281382	-0.033022	0.499787
C73	C	0.775556	-0.614793	-0.000211
C74	C	1.275556	-0.114793	0.499789
C75	C	0.901048	-0.633933	-0.000238
C76	C	1.401048	-0.133933	0.499762
C77	C	0.906873	-0.552166	-0.000233
C78	C	1.406873	-0.052166	0.499767
C79	C	0.847041	-0.501715	-0.000225
C80	C	1.347041	-0.001715	0.499775
N81	N	0.799588	-0.373087	-0.000212
N82	N	1.299588	0.126913	0.499788
N83	N	0.853002	-0.418138	-0.000227
N84	N	1.353002	0.081862	0.499773
C85	C	0.952944	0.098217	-0.000244
C86	C	1.452944	0.598217	0.499756
C87	C	1.030122	0.099491	-0.000268
C88	C	1.530122	0.599491	0.499732
C89	C	0.829183	0.247733	-0.000219
C90	C	1.329183	0.747733	0.499781
C91	C	0.835384	0.334756	-0.000225
C92	C	1.335384	0.834756	0.499775
N93	N	0.826273	0.104379	0.188457
N94	N	1.326273	0.604379	0.688457
N95	N	0.826326	0.104392	-0.188879
N96	N	1.326326	0.604392	0.311121
C97	C	0.870543	0.050943	0.226549
C98	C	1.370543	0.550943	0.726549
C99	C	0.870547	0.050940	0.302777
C100	C	1.370547	0.550940	0.802777
C101	C	0.826289	0.104385	0.340910
C102	C	1.326289	0.604385	0.840910
C103	C	0.782011	0.157825	0.302808
C104	C	1.282011	0.657825	0.802808
C105	C	0.782003	0.157822	0.226582
C106	C	1.282003	0.657822	0.726582
C107	C	0.821154	0.175814	0.461668
C108	C	1.321154	0.675814	0.961668
C109	C	0.821167	0.175819	0.537893
C110	C	1.321167	0.675819	1.037893
C111	C	0.826310	0.104395	0.576017
C112	C	1.326310	0.604395	1.076017
C113	C	0.831454	0.032964	0.537908
C114	C	1.331454	0.532964	1.037908
C115	C	0.831446	0.032961	0.461681
C116	C	1.331446	0.532961	0.961681
C117	C	0.826293	0.104394	0.423564
C118	C	1.326293	0.604394	0.923564
C119	C	0.870586	0.050951	0.696764
C120	C	1.370586	0.550951	1.196764
C121	C	0.870585	0.050947	0.772994
C122	C	1.370585	0.550947	1.272994
C123	C	0.782053	0.157839	0.773024
C124	C	1.282053	0.657839	1.273024
C125	C	0.782050	0.157837	0.696796
C126	C	1.282050	0.657837	1.196796
C127	C	0.826320	0.104394	0.658671
C128	C	1.326320	0.604394	1.158671
H129	H	0.044686	-0.030021	-0.000308
H130	H	0.544686	0.469979	0.499692
C131	C	0.966860	-0.689426	-0.000254
C132	C	1.466860	-0.189426	0.499746
H133	H	1.006798	-0.659066	-0.000258
H134	H	1.506798	-0.159066	0.499742
H135	H	0.967201	-0.721715	-0.042485
H136	H	1.467201	-0.221715	0.457515
H137	H	0.967189	-0.721724	0.041981
H138	H	1.467189	-0.221724	0.541981
C139	C	0.919247	-0.007840	0.344687
C140	C	1.419247	0.492160	0.844687
H141	H	0.945613	-0.039666	0.311064
H142	H	1.445613	0.460334	0.811064
H143	H	0.892462	-0.040402	0.374444
H144	H	1.392462	0.459598	0.874444
H145	H	0.949721	0.020289	0.374401
H146	H	1.449721	0.520289	0.874401
H147	H	0.492003	-0.022623	-0.000188
H148	H	0.992003	0.477377	0.499812
C149	C	0.635160	-0.040695	-0.000149
C150	C	1.135160	0.459305	0.499851
H151	H	0.605751	-0.083775	-0.000158
H152	H	1.105751	0.416225	0.499842
H153	H	0.663608	-0.043201	0.042084
H154	H	1.163608	0.456799	0.542084
H155	H	0.663646	-0.043191	-0.042381
H156	H	1.163646	0.456809	0.457619
H157	H	0.930505	-0.150943	-0.000224
H158	H	1.430505	0.349057	0.499776
H159	H	0.746014	0.201352	0.804071
H160	H	1.246014	0.701352	1.304071
H161	H	0.919927	-0.299272	-0.000232
H162	H	1.419927	0.200728	0.499768
C163	C	0.837106	-0.045607	0.579834
C164	C	1.337106	0.454393	1.079834
H165	H	0.836364	-0.035378	0.630689
H166	H	1.336364	0.464622	1.130689
H167	H	0.879351	-0.073692	0.567327
H168	H	1.379351	0.426308	1.067327
H169	H	0.799077	-0.076217	0.567361
H170	H	1.299077	0.423783	1.067361
H171	H	0.960340	-0.526677	-0.000244
H172	H	1.460340	-0.026677	0.499756
C173	C	0.715569	-0.477536	-0.000192
C174	C	1.215569	0.022464	0.499808
H175	H	0.675631	-0.507898	-0.000173
H176	H	1.175631	-0.007898	0.499827
H177	H	0.715234	-0.445234	-0.042419
H178	H	1.215234	0.054766	0.457581
H179	H	0.715231	-0.445251	0.042046
H180	H	1.215231	0.054749	0.542046
C181	C	0.017435	0.249464	-0.000279
C182	C	0.517435	0.749464	0.499721
H183	H	-0.030327	0.238432	-0.000279
H184	H	0.469673	0.738432	0.499721
H185	H	0.027569	0.279014	-0.042511
H186	H	0.527569	0.779014	0.457489
H187	H	0.027524	0.279018	0.041955
H188	H	0.527524	0.779018	0.541955
H189	H	0.266564	0.004004	-0.077214
H190	H	0.766564	0.504004	0.422786
H191	H	0.160587	0.231403	-0.000250
H192	H	0.660587	0.731403	0.499750
C193	C	0.187841	-0.048085	-0.000240
C194	C	0.687841	0.451915	0.499760
H195	H	0.235604	-0.037053	-0.000225
H196	H	0.735604	0.462947	0.499775
H197	H	0.177754	-0.077636	-0.042471
H198	H	0.677754	0.422364	0.457529
H199	H	0.177707	-0.077640	0.041994
H200	H	0.677707	0.422360	0.541994
H201	H	0.722085	-0.640283	-0.000188
H202	H	1.222085	-0.140283	0.499812
H203	H	0.692255	-0.264552	-0.000191
H204	H	1.192255	0.235448	0.499809
H205	H	0.906633	0.007429	0.804009
H206	H	1.406633	0.507429	1.304009
H207	H	0.702829	-0.116209	-0.000186
H208	H	1.202829	0.383791	0.499814
C209	C	0.919230	-0.007850	0.184615
C210	C	1.419230	0.492150	0.684615
H211	H	0.945592	-0.039680	0.218224
H212	H	1.445592	0.460320	0.718224
H213	H	0.949699	0.020263	0.154856
H214	H	1.449699	0.520263	0.654856
H215	H	0.892431	-0.040418	0.154903
H216	H	1.392431	0.459582	0.654903
C217	C	0.815513	0.254388	0.579806
C218	C	1.315513	0.754388	1.079806
H219	H	0.812437	0.296925	0.546185
H220	H	1.312437	0.796925	1.046185
H221	H	0.855438	0.258628	0.609518
H222	H	1.355438	0.758628	1.109518
H223	H	0.775165	0.256089	0.609565
H224	H	1.275165	0.756089	1.109565
C225	C	0.409428	-0.009282	-0.089315
C226	C	0.909428	0.490718	0.410685
H227	H	0.379431	-0.042399	-0.114598
H228	H	0.879431	0.457601	0.385402
H229	H	0.439615	-0.040473	-0.058729
H230	H	0.939615	0.459527	0.441271
H231	H	0.436094	0.018303	-0.123426
H232	H	0.936094	0.518303	0.376574
H233	H	0.835633	-0.025201	0.430655
H234	H	1.335633	0.474799	0.930655
H235	H	0.906632	0.007432	0.665722
H236	H	1.406632	0.507432	1.165722
C237	C	0.733368	0.216629	0.654889
C238	C	1.233368	0.716629	1.154889
H239	H	0.739700	0.208972	0.604031
H240	H	1.239700	0.708972	1.104031
H241	H	0.743818	0.268926	0.667372
H242	H	1.243818	0.768926	1.167372
H243	H	0.686545	0.208251	0.667403
H244	H	1.186545	0.708251	1.167403
H245	H	0.816954	0.233980	0.430633
H246	H	1.316954	0.733980	0.930633
H247	H	0.745974	0.201340	0.333860
H248	H	1.245974	0.701340	0.833860
C249	C	0.733314	0.216610	0.184676
C250	C	1.233314	0.716610	0.684676
H251	H	0.739648	0.208953	0.133817
H252	H	1.239648	0.708953	0.633817
H253	H	0.743759	0.268909	0.197159
H254	H	1.243759	0.768909	0.697159
H255	H	0.686492	0.208227	0.197189
H256	H	1.186492	0.708227	0.697189
C257	C	0.617033	0.259381	-0.000167
C258	C	1.117033	0.759381	0.499833
H259	H	0.582482	0.301401	-0.000169
H260	H	1.082482	0.801401	0.499831
H261	H	0.645170	0.262826	-0.042388
H262	H	1.145170	0.762826	0.457612
H263	H	0.645114	0.262814	0.042078
H264	H	1.145114	0.762814	0.542078
H265	H	0.476351	0.236621	-0.000194
H266	H	0.976351	0.736621	0.499806
H267	H	0.386037	0.204776	0.076768
H268	H	0.886037	0.704776	0.576768
H269	H	0.254478	0.202597	0.076745
H270	H	0.754478	0.702597	0.576745
