data_functionalizedCrystal
_audit_creation_method	'MofGen! by Chris Wilmer'
_symmetry_space_group_name_H-M	'P1'
_symmetry_Int_Tables_number	1
_symmetry_cell_setting	triclinic
loop_
_symmetry_equiv_pos_as_xyz
  x,y,z
_cell_length_a	12.759400
_cell_length_b	12.759401
_cell_length_c	12.759393
_cell_angle_alpha	90.019322
_cell_angle_beta	90.028927
_cell_angle_gamma	90.012197
loop_
_atom_site_label
_atom_site_type_symbol
_atom_site_fract_x
_atom_site_fract_y
_atom_site_fract_z
Zn1	Zn	0.418263	-1.606258	-0.594024
Zn2	Zn	0.593982	-1.606154	-0.418352
Zn3	Zn	0.418311	-1.430560	-0.418361
Zn4	Zn	0.593894	-1.430550	-0.593991
O5	O	0.506112	-1.518381	-0.506182
O6	O	0.441589	-1.753266	-0.570731
O7	O	0.570735	-1.582822	-0.271332
O8	O	0.271284	-1.453915	-0.441680
O9	O	0.570689	-1.753189	-0.441665
O10	O	0.271248	-1.583000	-0.570739
O11	O	0.441671	-1.453814	-0.271338
O12	O	0.441586	-1.283538	-0.441648
O13	O	0.570539	-1.453898	-0.741016
O14	O	0.570586	-1.283531	-0.570683
O15	O	0.441504	-1.582990	-0.741040
O16	O	0.740991	-1.582812	-0.441633
O17	O	0.740927	-1.453797	-0.570675
C18	C	0.506082	-1.245413	-0.506164
C19	C	0.506095	-1.128637	-0.506181
C20	C	0.779080	-1.518320	-0.506172
C21	C	0.895856	-1.518391	-0.506204
C22	C	0.232079	-1.518470	-0.506214
C23	C	0.115302	-1.518508	-0.506228
C24	C	0.573370	-1.073798	-0.573257
C25	C	0.573379	-0.964074	-0.573267
C26	C	0.438834	-0.964037	-0.439115
C27	C	0.438821	-1.073759	-0.439111
C28	C	0.640645	-1.128676	-0.640327
C29	C	0.707927	-1.073838	-0.707408
C30	C	0.707936	-0.964114	-0.707418
C31	C	0.640663	-0.909228	-0.640347
C32	C	0.950723	-1.451198	-0.573342
C33	C	1.060447	-1.451254	-0.573352
C34	C	1.060428	-1.585704	-0.439082
C35	C	0.950706	-1.585642	-0.439067
C36	C	0.895873	-1.383947	-0.640478
C37	C	0.950740	-1.316749	-0.707623
C38	C	1.060464	-1.316805	-0.707633
C39	C	1.115321	-1.384058	-0.640498
C40	C	0.506006	-1.518454	-0.780215
C41	C	0.505961	-1.518486	-0.896992
C42	C	0.506133	-0.792414	-0.506197
C43	C	0.506117	-0.909191	-0.506194
C44	C	0.438766	-1.585713	-0.951868
C45	C	0.438728	-1.585738	-1.061592
C46	C	0.573089	-1.451305	-1.061554
C47	C	0.573121	-1.451276	-0.951832
C48	C	0.371606	-1.652923	-0.897028
C49	C	0.304406	-1.720157	-0.951905
C50	C	0.304368	-1.720182	-1.061629
C51	C	0.371530	-1.652973	-1.116476
C52	C	0.506142	-1.518368	-0.233214
C53	C	0.505891	-1.518540	-0.116438
H54	H	0.640647	-1.218019	-0.640324
H55	H	0.906070	-1.261988	-0.762276
H56	H	0.762691	-1.118533	-0.762021
H57	H	0.627769	-1.396587	-1.106220
C58	C	0.365634	-0.904502	-0.366421
C59	C	0.261704	-0.931181	-0.389484
C60	C	0.194246	-0.876349	-0.322546
H61	H	0.380787	-0.922411	-0.295767
H62	H	0.375212	-0.831292	-0.376039
H63	H	0.252131	-1.004375	-0.379857
H64	H	0.246518	-0.913269	-0.460126
H65	H	0.203823	-0.803139	-0.332164
H66	H	0.209409	-0.894262	-0.251895
H67	H	0.123722	-0.894435	-0.338191
H68	H	0.806530	-1.383896	-0.640480
H69	H	0.249719	-1.774869	-0.907240
H70	H	0.640666	-0.819884	-0.640369
H71	H	1.105134	-1.262084	-0.762299
H72	H	0.249643	-1.774919	-1.106306
H73	H	0.762712	-0.919467	-0.762046
C74	C	1.234452	-1.384005	-0.640702
C75	C	1.270765	-1.310781	-0.713886
C76	C	1.380498	-1.310719	-0.714119
H77	H	1.259464	-1.365851	-0.572954
H78	H	1.259245	-1.451790	-0.658986
H79	H	1.245983	-1.243011	-0.695596
H80	H	1.245781	-1.328919	-0.781644
H81	H	1.405291	-1.378504	-0.732403
H82	H	1.405501	-1.292566	-0.646368
H83	H	1.405151	-1.261045	-0.763780
C84	C	0.365920	-1.133256	-0.366103
C85	C	0.388701	-1.106550	-0.262114
C86	C	0.321575	-1.161350	-0.194831
H87	H	0.295308	-1.115339	-0.381452
H88	H	0.375561	-1.206470	-0.375641
H89	H	0.379051	-1.033352	-0.252581
H90	H	0.459300	-1.124469	-0.246733
H91	H	0.331216	-1.234565	-0.204369
H92	H	0.250967	-1.143429	-0.210189
H93	H	0.337028	-1.143246	-0.124267
H94	H	1.105102	-1.640459	-0.384425
C95	C	0.891318	-1.658706	-0.366132
C96	C	0.962834	-1.717638	-0.307364
C97	C	0.908164	-1.784960	-0.240168
H98	H	0.848574	-1.618625	-0.320226
H99	H	0.848473	-1.704494	-0.406328
H100	H	1.005661	-1.671856	-0.267170
H101	H	1.005579	-1.757740	-0.353242
H102	H	0.865319	-1.830749	-0.280365
H103	H	0.865422	-1.744871	-0.194269
H104	H	0.956679	-1.824961	-0.200293
C105	C	0.371452	-1.653013	-0.777900
C106	C	0.298239	-1.726240	-0.741615
C107	C	0.298062	-1.726342	-0.631881
H108	H	0.439201	-1.671183	-0.752938
H109	H	0.353226	-1.585234	-0.753036
H110	H	0.316471	-1.794005	-0.766468
H111	H	0.230480	-1.708087	-0.766547
H112	H	0.279836	-1.658563	-0.607018
H113	H	0.365814	-1.744511	-0.606930
H114	H	0.248381	-1.776019	-0.607248
H115	H	0.371481	-1.652987	-1.205821
C116	C	0.646216	-1.378273	-0.892433
C117	C	0.705062	-1.319456	-0.963941
C118	C	0.772426	-1.252211	-0.909262
H119	H	0.606170	-1.332399	-0.849620
H120	H	0.692058	-1.418436	-0.849658
H121	H	0.659227	-1.279296	-1.006699
H122	H	0.745130	-1.365302	-1.006757
H123	H	0.818268	-1.292374	-0.866486
H124	H	0.732371	-1.206345	-0.866450
H125	H	0.812368	-1.212303	-0.957771
