data_functionalizedCrystal
_audit_creation_method	'MofGen! by Chris Wilmer'
_symmetry_space_group_name_H-M	'P1'
_symmetry_Int_Tables_number	1
_symmetry_cell_setting	triclinic
loop_
_symmetry_equiv_pos_as_xyz
  x,y,z
_cell_length_a	29.839131
_cell_length_b	18.215407
_cell_length_c	18.215399
_cell_angle_alpha	89.980167
_cell_angle_beta	89.969127
_cell_angle_gamma	90.041868
loop_
_atom_site_label
_atom_site_type_symbol
_atom_site_fract_x
_atom_site_fract_y
_atom_site_fract_z
Zn1	Zn	-0.178853	1.124987	-0.416101
Zn2	Zn	0.321147	1.624987	0.083899
Zn3	Zn	-0.253982	1.124860	-0.293028
Zn4	Zn	0.246018	1.624860	0.206972
Zn5	Zn	-0.178867	1.001920	-0.293048
Zn6	Zn	0.321133	1.501920	0.206952
Zn7	Zn	-0.253957	1.001850	-0.416053
Zn8	Zn	0.246043	1.501850	0.083947
O9	O	-0.216415	1.063404	-0.354558
O10	O	0.283585	1.563404	0.145442
O11	O	-0.188823	1.227955	-0.399787
O12	O	0.311177	1.727955	0.100213
O13	O	-0.244034	1.108528	-0.190047
O14	O	0.255966	1.608528	0.309953
O15	O	-0.115998	1.018327	-0.309400
O16	O	0.384002	1.518327	0.190600
O17	O	-0.244020	1.227861	-0.309366
O18	O	0.255980	1.727861	0.190634
O19	O	-0.115987	1.108745	-0.399806
O20	O	0.384013	1.608745	0.100194
O21	O	-0.188848	1.018204	-0.190061
O22	O	0.311152	1.518204	0.309939
O23	O	-0.188824	0.898926	-0.309354
O24	O	0.311176	1.398926	0.190646
O25	O	-0.243978	1.018209	-0.519044
O26	O	0.256022	1.518209	-0.019044
O27	O	-0.243992	0.898875	-0.399725
O28	O	0.256008	1.398875	0.100275
O29	O	-0.188799	1.108677	-0.519079
O30	O	0.311201	1.608677	-0.019079
O31	O	-0.316846	1.108460	-0.309320
O32	O	0.183154	1.608460	0.190680
O33	O	-0.316827	1.018086	-0.399705
O34	O	0.183173	1.518086	0.100295
C35	C	-0.216407	0.872198	-0.354537
C36	C	0.283593	1.372198	0.145463
C37	C	-0.216414	0.790399	-0.354545
C38	C	0.283586	1.290399	0.145455
C39	C	-0.245186	0.602198	-0.401542
C40	C	0.254814	1.102198	0.098458
C41	C	-0.245187	0.525339	-0.401551
C42	C	0.254813	1.025339	0.098449
C43	C	-0.187652	0.525363	-0.307589
C44	C	0.312348	1.025363	0.192411
C45	C	-0.187648	0.602220	-0.307584
C46	C	0.312352	1.102220	0.192416
C47	C	-0.216418	0.640636	-0.354560
C48	C	0.283582	1.140636	0.145440
C49	C	-0.216423	0.486920	-0.354574
C50	C	0.283577	0.986920	0.145426
C51	C	-0.216424	0.403586	-0.354583
C52	C	0.283576	0.903586	0.145417
C53	C	-0.216416	0.723975	-0.354551
C54	C	0.283584	1.223975	0.145449
C55	C	-0.333137	1.063272	-0.354521
C56	C	0.166863	1.563272	0.145479
C57	C	-0.383072	1.063282	-0.354530
C58	C	0.116928	1.563282	0.145470
C59	C	-0.692712	1.110548	-0.307563
C60	C	-0.192712	1.610548	0.192437
C61	C	-0.880385	1.110639	-0.307591
C62	C	-0.380385	1.610639	0.192409
O63	O	-0.904647	1.150721	-0.267629
O64	O	-0.404647	1.650721	0.232371
N65	N	-0.903857	1.063557	-0.354613
N66	N	-0.403857	1.563557	0.145387
C67	C	-0.880407	1.016452	-0.401635
C68	C	-0.380407	1.516452	0.098365
O69	O	-0.904678	0.976414	-0.441636
O70	O	-0.404678	1.476414	0.058364
C71	C	-0.692735	1.016366	-0.401609
C72	C	-0.192735	1.516366	0.098391
C73	C	-0.669266	1.063446	-0.354579
C74	C	-0.169266	1.563446	0.145421
C75	C	-0.669243	1.157625	-0.260536
C76	C	-0.169243	1.657625	0.239464
C77	C	-0.622327	1.157599	-0.260527
C78	C	-0.122327	1.657599	0.239473
C79	C	-0.598881	1.110496	-0.307544
C80	C	-0.098881	1.610496	0.192456
C81	C	-0.622350	1.063420	-0.354570
C82	C	-0.122350	1.563420	0.145430
C83	C	-0.669287	0.969265	-0.448634
C84	C	-0.169287	1.469265	0.051366
C85	C	-0.622365	0.969249	-0.448625
C86	C	-0.122365	1.469249	0.051375
C87	C	-0.598896	1.016329	-0.401595
C88	C	-0.098896	1.516329	0.098405
C89	C	-0.551989	1.016291	-0.401577
C90	C	-0.051989	1.516291	0.098423
N91	N	-0.528517	1.063373	-0.354554
N92	N	-0.028517	1.563373	0.145446
C93	C	-0.551963	1.110476	-0.307538
C94	C	-0.051963	1.610476	0.192462
C95	C	-0.978938	1.016500	-0.401644
C96	C	-0.478938	1.516500	0.098356
C97	C	-1.025856	1.016521	-0.401649
C98	C	-0.525856	1.516521	0.098351
C99	C	-1.025830	1.110709	-0.307606
C100	C	-0.525830	1.610709	0.192394
C101	C	-0.978911	1.110684	-0.307598
C102	C	-0.478911	1.610684	0.192402
C103	C	-0.955466	1.063582	-0.354622
C104	C	-0.455466	1.563582	0.145378
C105	C	-0.453437	1.110417	-0.307521
C106	C	0.046563	1.610417	0.192479
C107	C	-0.406518	1.110385	-0.307514
C108	C	0.093482	1.610385	0.192486
C109	C	-0.406547	1.016200	-0.401559
C110	C	0.093453	1.516200	0.098441
C111	C	-0.453463	1.016229	-0.401564
C112	C	0.046537	1.516229	0.098436
C113	C	-0.476907	1.063344	-0.354543
C114	C	0.023093	1.563344	0.145457
O115	O	-0.527698	0.976236	-0.441523
O116	O	-0.027698	1.476236	0.058477
O117	O	-0.527685	1.150520	-0.267554
O118	O	-0.027685	1.650520	0.232446
C119	C	-0.739627	1.110574	-0.307572
C120	C	-0.239627	1.610574	0.192428
C121	C	-0.763097	1.063498	-0.354598
C122	C	-0.263097	1.563498	0.145402
C123	C	-0.739651	1.016395	-0.401615
C124	C	-0.239651	1.516395	0.098385
C125	C	-0.810015	1.063518	-0.354604
C126	C	-0.310015	1.563518	0.145396
C127	C	-0.833461	1.110621	-0.307587
C128	C	-0.333461	1.610621	0.192413
C129	C	-0.809989	1.157703	-0.260565
C130	C	-0.309989	1.657703	0.239435
C131	C	-0.763074	1.157677	-0.260555
C132	C	-0.263074	1.657677	0.239445
C133	C	-0.763122	0.969313	-0.448637
C134	C	-0.263122	1.469313	0.051363
C135	C	-0.810038	0.969342	-0.448642
C136	C	-0.310038	1.469342	0.051358
C137	C	-0.833484	1.016445	-0.401625
C138	C	-0.333484	1.516445	0.098375
C139	C	-0.099236	1.063558	-0.354610
C140	C	0.400764	1.563558	0.145390
C141	C	-0.049302	1.063623	-0.354633
C142	C	0.450698	1.563623	0.145367
C143	C	-0.216384	1.063449	-0.546511
C144	C	0.283616	1.563449	-0.046511
C145	C	-0.216370	1.063468	-0.628310
C146	C	0.283630	1.563468	-0.128310
C147	C	-0.216423	1.255357	-0.354579
C148	C	0.283577	1.755357	0.145421
C149	C	-0.216426	1.337156	-0.354589
C150	C	0.283574	1.837156	0.145411
C151	C	-0.187612	1.110592	-0.816523
C152	C	0.312388	1.610592	-0.316523
C153	C	-0.187599	1.110601	-0.893382
C154	C	0.312401	1.610601	-0.393382
C155	C	-0.245059	1.016397	-0.893334
C156	C	0.254941	1.516397	-0.393334
C157	C	-0.245070	1.016385	-0.816477
C158	C	0.254930	1.516385	-0.316477
C159	C	-0.216347	1.063487	-0.778073
C160	C	0.283653	1.563487	-0.278073
C161	C	-0.216323	1.063507	-0.931789
C162	C	0.283677	1.563507	-0.431789
C163	C	-0.216309	1.063517	-1.015123
C164	C	0.283691	1.563517	-0.515123
C165	C	-0.216360	1.063477	-0.694734
C166	C	0.283640	1.563477	-0.194734
C167	C	-0.216413	1.063402	-0.163351
C168	C	0.283587	1.563402	0.336649
C169	C	-0.216300	1.063526	-0.081553
C170	C	0.283700	1.563526	0.418447
H171	H	-0.387411	1.148723	-0.269213
H172	H	0.112589	1.648723	0.230787
O173	O	-0.159688	0.639450	-0.261872
O174	O	0.340312	1.139450	0.238128
C175	C	-0.134291	0.589065	-0.220420
C176	C	0.365709	1.089065	0.279580
H177	H	-0.152691	0.534256	-0.217818
H178	H	0.347309	1.034256	0.282182
H179	H	-0.129453	0.611256	-0.162451
H180	H	0.370547	1.111256	0.337549
H181	H	-0.100192	0.580939	-0.247471
H182	H	0.399808	1.080939	0.252529
O183	O	-0.273008	0.970727	-0.779040
O184	O	0.226992	1.470727	-0.279040
C185	C	-0.302037	1.012585	-0.734588
C186	C	0.197963	1.512585	-0.234588
H187	H	-0.286195	1.068375	-0.723097
H188	H	0.213805	1.568375	-0.223097
H189	H	-0.308062	0.982595	-0.680531
H190	H	0.191938	1.482595	-0.180531
H191	H	-0.335327	1.020632	-0.764190
H192	H	0.164673	1.520632	-0.264190
H193	H	-0.164229	0.494076	-0.269342
H194	H	0.335771	0.994076	0.230658
H195	H	-0.472520	1.148784	-0.269233
H196	H	0.027480	1.648784	0.230767
O197	O	-0.273155	0.487920	-0.447086
O198	O	0.226845	0.987920	0.052914
C199	C	-0.302147	0.443425	-0.405105
C200	C	0.197853	0.943425	0.094895
H201	H	-0.286260	0.431903	-0.349383
H202	H	0.213740	0.931903	0.150617
H203	H	-0.308193	0.389386	-0.435070
H204	H	0.191807	0.889386	0.064930
H205	H	-0.335433	0.473005	-0.396917
H206	H	0.164567	0.973005	0.103083
O207	O	-0.832783	1.203555	-0.215008
O208	O	-0.332783	1.703555	0.284992
C209	C	-0.859875	1.251057	-0.256979
C210	C	-0.359875	1.751057	0.243021
H211	H	-0.845706	1.255534	-0.314942
H212	H	-0.345706	1.755534	0.185058
H213	H	-0.860377	1.307719	-0.230438
H214	H	-0.360377	1.807719	0.269562
H215	H	-0.895450	1.228330	-0.259497
H216	H	-0.395450	1.728330	0.240503
H217	H	-0.164199	1.148958	-0.924684
H218	H	0.335801	1.648958	-0.424684
O219	O	-0.273142	0.639402	-0.447247
O220	O	0.226858	1.139402	0.052753
C221	C	-0.298540	0.588990	-0.488705
C222	C	0.201460	1.088990	0.011295
H223	H	-0.280143	0.534225	-0.491307
H224	H	0.219857	1.034225	0.008693
H225	H	-0.303374	0.611214	-0.546673
H226	H	0.196626	1.111214	-0.046673
H227	H	-0.332641	0.580768	-0.461659
H228	H	0.167359	1.080768	0.038341
H229	H	-0.744036	0.930957	-0.486924
H230	H	-0.244036	1.430957	0.013076
H231	H	-0.603221	1.195937	-0.222233
H232	H	-0.103221	1.695937	0.277767
H233	H	-0.829142	0.930998	-0.486939
H234	H	-0.329142	1.430998	0.013061
O235	O	-0.159666	1.156364	-0.779331
O236	O	0.340334	1.656364	-0.279331
C237	C	-0.134309	1.197953	-0.829753
C238	C	0.365691	1.697953	-0.329753
H239	H	-0.132747	1.167819	-0.884534
H240	H	0.367253	1.667819	-0.384534
H241	H	-0.098916	1.205843	-0.807568
H242	H	0.401084	1.705843	-0.307568
H243	H	-0.150759	1.253828	-0.837930
H244	H	0.349241	1.753828	-0.337930
H245	H	-1.044960	0.978177	-0.439939
H246	H	-0.544960	1.478177	0.060061
O247	O	-0.740229	1.203450	-0.214975
O248	O	-0.240229	1.703450	0.285025
C249	C	-0.713053	1.250961	-0.256910
C250	C	-0.213053	1.750961	0.243090
H251	H	-0.706013	1.224971	-0.312655
H252	H	-0.206013	1.724971	0.187345
H253	H	-0.680068	1.260832	-0.226931
H254	H	-0.180068	1.760832	0.273069
H255	H	-0.731101	1.305499	-0.265053
H256	H	-0.231101	1.805499	0.234947
H257	H	-0.688328	1.195985	-0.222250
H258	H	-0.188328	1.695985	0.277750
H259	H	-0.959852	0.978143	-0.439938
H260	H	-0.459852	1.478143	0.060062
O261	O	-0.272947	0.970717	-0.930755
O262	O	0.227053	1.470717	-0.430755
C263	C	-0.266770	0.980815	-1.006836
C264	C	0.233230	1.480815	-0.506836
H265	H	-0.252057	1.037630	-1.017352
H266	H	0.247943	1.537630	-0.517352
H267	H	-0.300417	0.975786	-1.036027
H268	H	0.199583	1.475786	-0.536027
H269	H	-0.242842	0.937197	-1.028652
H270	H	0.257158	1.437197	-0.528652
H271	H	-0.959806	1.149021	-0.269302
H272	H	-0.459806	1.649021	0.230698
O273	O	-1.048679	1.156486	-0.262047
O274	O	-0.548679	1.656486	0.237953
C275	C	-1.095122	1.146412	-0.272153
C276	C	-0.595122	1.646412	0.227847
H277	H	-1.101509	1.122213	-0.328902
H278	H	-0.601509	1.622213	0.171098
H279	H	-1.112911	1.201564	-0.267300
H280	H	-0.612911	1.701564	0.232700
H281	H	-1.108500	1.107315	-0.228431
H282	H	-0.608500	1.607315	0.271569
O283	O	-0.692008	0.923511	-0.494393
O284	O	-0.192008	1.423511	0.005607
C285	C	-0.661243	0.881930	-0.535873
C286	C	-0.161243	1.381930	-0.035873
H287	H	-0.627781	0.912062	-0.538430
H288	H	-0.127781	1.412062	-0.038430
H289	H	-0.674775	0.874057	-0.593856
H290	H	-0.174775	1.374057	-0.093856
H291	H	-0.656298	0.826048	-0.508876
H292	H	-0.156298	1.326048	-0.008876
O293	O	-0.599570	0.923598	-0.494383
O294	O	-0.099570	1.423598	0.005617
C295	C	-0.572377	0.965456	-0.541935
C296	C	-0.072377	1.465456	-0.041935
H297	H	-0.586476	1.023424	-0.546534
H298	H	-0.086476	1.523424	-0.046534
H299	H	-0.571840	0.938809	-0.598548
H300	H	-0.071840	1.438809	-0.098548
H301	H	-0.536826	0.967983	-0.519178
H302	H	-0.036826	1.467983	-0.019178
H303	H	-0.472573	0.977895	-0.439862
H304	H	0.027427	1.477895	0.060138
O305	O	-0.383745	0.970556	-0.447309
O306	O	0.116255	1.470556	0.052691
C307	C	-0.356554	1.012428	-0.494852
C308	C	0.143446	1.512428	0.005148
H309	H	-0.370661	1.070391	-0.499448
H310	H	0.129339	1.570391	0.000552
H311	H	-0.356009	0.985787	-0.551467
H312	H	0.143991	1.485787	-0.051467
H313	H	-0.321005	1.014966	-0.472087
H314	H	0.178995	1.514966	0.027913
