data_functionalizedCrystal
_audit_creation_method	'MofGen! by Chris Wilmer'
_symmetry_space_group_name_H-M	'P1'
_symmetry_Int_Tables_number	1
_symmetry_cell_setting	triclinic
loop_
_symmetry_equiv_pos_as_xyz
  x,y,z
_cell_length_a	19.121102
_cell_length_b	25.639239
_cell_length_c	25.639243
_cell_angle_alpha	90.006746
_cell_angle_beta	92.444117
_cell_angle_gamma	87.592882
loop_
_atom_site_label
_atom_site_type_symbol
_atom_site_fract_x
_atom_site_fract_y
_atom_site_fract_z
Zn1	Zn	1.073546	-0.242438	0.329669
Zn2	Zn	1.073458	-0.329836	0.242231
Zn3	Zn	0.956125	-0.238682	0.238522
Zn4	Zn	0.956037	-0.326105	0.325910
O5	O	1.014792	-0.284265	0.284083
O6	O	1.171817	-0.257165	0.321196
O7	O	1.057893	-0.317734	0.168574
O8	O	0.971775	-0.166018	0.250635
O9	O	1.171752	-0.321375	0.256955
O10	O	1.058044	-0.168777	0.317600
O11	O	0.971689	-0.250764	0.165849
O12	O	0.857831	-0.247146	0.246989
O13	O	0.971625	-0.315017	0.399574
O14	O	0.857766	-0.311375	0.311192
O15	O	1.057959	-0.253547	0.402336
O16	O	1.057808	-0.402504	0.253310
O17	O	0.971539	-0.399763	0.314788
C18	C	0.832315	-0.278449	0.278281
C19	C	0.754251	-0.275973	0.275811
C20	C	0.717561	-0.308301	0.308025
C21	C	0.644211	-0.305968	0.305707
C22	C	0.607553	-0.271309	0.271172
C23	C	0.644248	-0.238977	0.238956
C24	C	0.717596	-0.241308	0.241277
C25	C	0.386089	-0.262593	0.262496
C26	C	0.312735	-0.260266	0.260176
C27	C	0.312703	-0.327255	0.326928
C28	C	0.386053	-0.329585	0.329244
C29	C	0.422742	-0.297252	0.297031
C30	C	0.532577	-0.268924	0.268800
C31	C	0.497716	-0.299634	0.299405
C32	C	1.014673	-0.420104	0.284055
C33	C	1.014687	-0.478219	0.284063
C34	C	1.059829	-0.840003	0.252132
C35	C	1.059856	-0.894608	0.252140
O36	O	1.098115	-0.924050	0.224961
N37	N	1.014915	-0.920508	0.284122
C38	C	0.969949	-0.891800	0.316102
O39	O	0.931726	-0.918844	0.343306
C40	C	0.969926	-0.837196	0.316096
C41	C	1.014865	-0.811299	0.284108
C42	C	1.104765	-0.814106	0.220147
C43	C	1.104737	-0.759505	0.220139
C44	C	1.059772	-0.730800	0.252115
C45	C	1.014836	-0.756698	0.284100
C46	C	0.924963	-0.808489	0.348079
C47	C	0.924945	-0.753881	0.348071
C48	C	0.969884	-0.727984	0.316083
C49	C	0.969844	-0.673392	0.316068
N50	N	1.014785	-0.647492	0.284086
C51	C	1.059749	-0.676196	0.252109
C52	C	0.970002	-1.006472	0.316111
C53	C	0.970021	-1.061075	0.316115
C54	C	1.059929	-1.063880	0.252153
C55	C	1.059906	-1.009276	0.252148
C56	C	1.014943	-0.980573	0.284130
C57	C	1.059686	-0.561529	0.252094
C58	C	1.059651	-0.506923	0.252087
C59	C	0.969746	-0.504123	0.316050
C60	C	0.969777	-0.558725	0.316055
C61	C	1.014753	-0.587427	0.284076
O62	O	0.931607	-0.643916	0.343235
O63	O	1.097972	-0.649146	0.224915
C64	C	1.197981	-0.290105	0.289908
C65	C	1.276045	-0.292594	0.292391
C66	C	1.014792	-0.284285	0.420456
C67	C	1.014792	-0.284293	0.478570
C68	C	1.014929	-0.147897	0.284123
C69	C	1.014988	-0.089784	0.284140
C70	C	1.059744	-0.252262	0.840377
C71	C	1.059743	-0.252259	0.894981
O72	O	1.097952	-0.225028	0.924445
N73	N	1.014797	-0.284263	0.920853
C74	C	0.969842	-0.316269	0.892117
O75	O	0.931611	-0.343490	0.919137
C76	C	0.969840	-0.316269	0.837514
C77	C	1.014794	-0.284266	0.811645
C78	C	1.104694	-0.220261	0.814508
C79	C	1.104695	-0.220265	0.759908
C80	C	1.059746	-0.252269	0.731176
C81	C	1.014795	-0.284270	0.757045
C82	C	0.924882	-0.348271	0.808779
C83	C	0.924883	-0.348268	0.754172
C84	C	0.969838	-0.316265	0.728303
C85	C	0.969847	-0.316278	0.673712
N86	N	1.014794	-0.284274	0.647841
C87	C	1.059743	-0.252269	0.676573
C88	C	0.969850	-0.316266	1.006788
C89	C	0.969856	-0.316269	1.061390
C90	C	1.059757	-0.252258	1.064251
C91	C	1.059754	-0.252258	1.009647
C92	C	1.014797	-0.284261	0.980916
C93	C	1.059742	-0.252280	0.561907
C94	C	1.059741	-0.252289	0.507302
C95	C	0.969839	-0.316297	0.504446
C96	C	0.969842	-0.316291	0.559047
C97	C	1.014796	-0.284279	0.587776
O98	O	0.931656	-0.343494	0.644214
O99	O	1.097961	-0.225047	0.649546
C100	C	1.014790	-0.284261	1.148241
C101	C	1.014803	-0.284263	1.090127
H102	H	0.282890	-0.232036	0.232057
C103	C	0.757957	-0.205747	0.205840
C104	C	0.808355	-0.229931	0.166346
C105	C	0.848714	-0.194366	0.130909
C106	C	0.838675	-0.134618	0.134967
C107	C	0.788275	-0.110431	0.174463
C108	C	0.747916	-0.145995	0.209900
H109	H	0.815788	-0.274164	0.163340
H110	H	0.886023	-0.212272	0.101671
H111	H	0.868551	-0.108291	0.108735
H112	H	0.780841	-0.066198	0.177469
H113	H	0.710606	-0.128090	0.239137
C114	C	0.272344	-0.362816	0.362365
C115	C	0.282378	-0.422565	0.358310
C116	C	0.242019	-0.458126	0.393750
C117	C	0.191626	-0.433938	0.433246
C118	C	0.181590	-0.374185	0.437303
C119	C	0.221949	-0.338625	0.401863
H120	H	0.319683	-0.440474	0.329071
H121	H	0.249448	-0.502359	0.390747
H122	H	0.161750	-0.460262	0.459481
H123	H	0.144284	-0.356277	0.466541
H124	H	0.214519	-0.294392	0.404866
H125	H	0.888275	-0.374331	0.829831
H126	H	1.096500	-0.988194	0.226101
H127	H	0.888265	-0.374324	0.730781
H128	H	0.933243	-0.342356	0.580110
C129	C	0.492246	-0.230804	0.230811
C130	C	0.441859	-0.188197	0.251952
C131	C	0.401523	-0.150076	0.213965
C132	C	0.411574	-0.154561	0.154837
C133	C	0.461963	-0.197169	0.133692
C134	C	0.502299	-0.235290	0.171679
H135	H	0.434416	-0.184876	0.295725
H136	H	0.364221	-0.118535	0.229618
H137	H	0.381715	-0.126341	0.126716
H138	H	0.469406	-0.200491	0.089919
H139	H	0.539601	-0.266832	0.156027
H140	H	0.933244	-0.342356	0.481043
H141	H	1.096246	-0.485839	0.226036
H142	H	1.141332	-0.738423	0.194093
H143	H	0.933381	-0.983104	0.342153
H144	H	0.888331	-0.730514	0.374116
C145	C	0.757882	-0.346426	0.346015
C146	C	0.747744	-0.405534	0.341322
C147	C	0.788063	-0.443660	0.379315
C148	C	0.838520	-0.422677	0.422000
C149	C	0.848659	-0.363566	0.426695
C150	C	0.808340	-0.325441	0.388702
H151	H	0.710391	-0.421070	0.309723
H152	H	0.780556	-0.487418	0.375839
H153	H	0.868366	-0.450900	0.450124
H154	H	0.886012	-0.348031	0.458294
H155	H	0.815847	-0.281683	0.392178
C156	C	0.875531	-0.836969	0.383267
C157	C	0.905936	-0.875441	0.425306
C158	C	0.856501	-0.903920	0.460496
C159	C	0.776661	-0.893928	0.453646
C160	C	0.746251	-0.855454	0.411605
C161	C	0.795686	-0.826974	0.376415
H162	H	0.965043	-0.882839	0.430378
H163	H	0.879012	-0.932401	0.491617
H164	H	0.740066	-0.915010	0.479696
H165	H	0.687145	-0.848055	0.406533
H166	H	0.773175	-0.798493	0.345293
H167	H	1.096355	-0.226197	1.087654
C168	C	0.920343	-0.587217	0.351238
C169	C	0.840501	-0.577238	0.344385
C170	C	0.791072	-0.605727	0.379572
C171	C	0.821486	-0.644196	0.421612
C172	C	0.901332	-0.654177	0.428466
C173	C	0.950761	-0.625688	0.393279
H174	H	0.817983	-0.548759	0.313263
H175	H	0.731964	-0.598338	0.374498
H176	H	0.784896	-0.665285	0.447659
H177	H	0.923850	-0.682655	0.459588
H178	H	1.009869	-0.633077	0.398353
H179	H	0.933134	-0.480743	0.342083
H180	H	1.096351	-0.226228	0.486243
C181	C	0.603855	-0.341531	0.341143
C182	C	0.613890	-0.401280	0.337081
C183	C	0.573536	-0.436845	0.372520
C184	C	0.523146	-0.412662	0.412021
C185	C	0.513109	-0.352910	0.416085
C186	C	0.553463	-0.317345	0.380646
H187	H	0.651193	-0.419185	0.307839
H188	H	0.580967	-0.481078	0.369512
H189	H	0.493274	-0.438990	0.438255
H190	H	0.475806	-0.335006	0.445327
H191	H	0.546032	-0.273113	0.383654
C192	C	1.154136	-0.185055	0.731455
C193	C	1.209260	-0.209457	0.695666
C194	C	1.258700	-0.174242	0.667217
C195	C	1.253016	-0.114625	0.674556
C196	C	1.197890	-0.090219	0.710347
C197	C	1.148450	-0.125434	0.738797
H198	H	1.213470	-0.253592	0.690231
H199	H	1.299508	-0.192309	0.640722
H200	H	1.289615	-0.088556	0.653497
H201	H	1.193681	-0.046084	0.715782
H202	H	1.107642	-0.107367	0.765291
H203	H	0.415952	-0.236269	0.236262
C204	C	1.109154	-0.593096	0.216913
C205	C	1.103474	-0.585420	0.157292
C206	C	1.152937	-0.616987	0.122109
C207	C	1.208080	-0.656230	0.146546
C208	C	1.213762	-0.663908	0.206171
C209	C	1.164299	-0.632341	0.241354
H210	H	1.062652	-0.556368	0.139199
H211	H	1.148730	-0.611303	0.077971
H212	H	1.244695	-0.679598	0.120502
H213	H	1.254584	-0.692960	0.224264
H214	H	1.168506	-0.638025	0.285492
C215	C	1.109398	-1.095461	0.216981
C216	C	1.079029	-1.132069	0.174956
C217	C	1.128494	-1.163651	0.139786
C218	C	1.208328	-1.158623	0.146642
C219	C	1.238701	-1.122013	0.188669
C220	C	1.189236	-1.090432	0.223839
H221	H	1.019927	-1.135792	0.169879
H222	H	1.106010	-1.190752	0.108674
H223	H	1.244945	-1.182002	0.120607
H224	H	1.297803	-1.118291	0.193746
H225	H	1.211720	-1.063331	0.254950
C226	C	0.603923	-0.200852	0.200968
C227	C	0.553535	-0.158244	0.222105
C228	C	0.513210	-0.120119	0.184116
C229	C	0.523274	-0.124602	0.124989
C230	C	0.573665	-0.167211	0.103848
C231	C	0.613989	-0.205336	0.141838
H232	H	0.546083	-0.154924	0.265877
H233	H	0.475907	-0.088577	0.199766
H234	H	0.493423	-0.096379	0.096867
H235	H	0.581117	-0.170531	0.060076
H236	H	0.651292	-0.236879	0.126188
H237	H	1.141298	-0.194197	0.837896
C238	C	1.154230	-0.845674	0.184967
C239	C	1.148552	-0.837991	0.125347
C240	C	1.198017	-0.869554	0.090162
C241	C	1.253159	-0.908800	0.114596
C242	C	1.258839	-0.916484	0.174220
C243	C	1.209375	-0.884921	0.209405
H244	H	1.107730	-0.808938	0.107256
H245	H	1.193811	-0.863866	0.046024
H246	H	1.289776	-0.932164	0.088550
H247	H	1.299661	-0.945537	0.192311
H248	H	1.213580	-0.890610	0.253543
H249	H	0.933241	-0.342330	0.983398
H250	H	0.415895	-0.357809	0.357365
C251	C	0.920582	-1.089558	0.351298
C252	C	0.871124	-1.057977	0.386469
C253	C	0.821687	-1.086457	0.421656
C254	C	0.821707	-1.146519	0.421672
C255	C	0.871166	-1.178104	0.386499
C256	C	0.920603	-1.149624	0.351312
H257	H	0.871108	-1.013512	0.386459
H258	H	0.785074	-1.063076	0.447693
H259	H	0.785110	-1.167603	0.447719
H260	H	0.871182	-1.222569	0.386509
H261	H	0.957216	-1.173005	0.325275
C262	C	1.109200	-0.217051	0.981194
C263	C	1.103527	-0.157434	0.988534
C264	C	1.152974	-0.122225	0.960084
C265	C	1.208093	-0.146633	0.924295
C266	C	1.213767	-0.206254	0.916953
C267	C	1.164321	-0.241463	0.945403
H268	H	1.062723	-0.139363	1.015029
H269	H	1.148773	-0.078089	0.965519
H270	H	1.244696	-0.120569	0.903235
H271	H	1.254572	-0.224325	0.890458
H272	H	1.168522	-0.285598	0.939968
H273	H	0.527566	-0.327851	0.327526
C274	C	0.920406	-0.351473	1.089842
C275	C	0.870962	-0.386673	1.058230
C276	C	0.821504	-0.421874	1.086679
C277	C	0.821491	-0.421875	1.146740
C278	C	0.870937	-0.386674	1.178356
C279	C	0.920394	-0.351473	1.149906
H280	H	0.870970	-0.386673	1.013766
H281	H	0.784901	-0.447932	1.063275
H282	H	0.784879	-0.447933	1.167800
H283	H	0.870928	-0.386674	1.222819
H284	H	0.956997	-0.325415	1.173311
H285	H	1.096346	-0.226211	0.585292
