data_functionalizedCrystal
_audit_creation_method	'MofGen! by Chris Wilmer'
_symmetry_space_group_name_H-M	'P1'
_symmetry_Int_Tables_number	1
_symmetry_cell_setting	triclinic
loop_
_symmetry_equiv_pos_as_xyz
  x,y,z
_cell_length_a	14.809374
_cell_length_b	23.096457
_cell_length_c	14.809374
_cell_angle_alpha	98.950603
_cell_angle_beta	73.428020
_cell_angle_gamma	52.847027
loop_
_atom_site_label
_atom_site_type_symbol
_atom_site_fract_x
_atom_site_fract_y
_atom_site_fract_z
Zr1	Zr	1.000589	0.486319	-0.008533
O2	O	1.191290	0.367973	-0.133244
O3	O	0.809885	0.530459	0.014967
O4	O	1.000589	0.500096	-0.154494
O5	O	1.000587	0.413345	0.186647
O6	O	1.000591	0.595376	-0.154499
O7	O	1.000586	0.398336	0.036217
O8	O	0.659456	0.649689	0.148635
O9	O	1.341722	0.359032	-0.116487
O10	O	0.888327	0.610894	0.042783
O11	O	0.888325	0.550989	0.155052
O12	O	1.112855	0.515241	-0.044467
O13	O	1.112853	0.455336	0.067802
Zr14	Zr	1.000593	0.662218	0.231379
Zr15	Zr	1.000593	0.638279	-0.008541
Zr16	Zr	1.000589	0.510258	0.231387
Zr17	Zr	1.240509	0.472059	0.018193
Zr18	Zr	0.760673	0.676478	0.204653
O19	O	1.191297	0.618078	0.207879
O20	O	1.191296	0.584041	-0.133256
O21	O	1.191291	0.402010	0.207891
O22	O	0.809891	0.780564	0.356090
O23	O	0.809890	0.746527	0.014955
O24	O	0.809886	0.564496	0.356102
O25	O	1.000595	0.735192	0.036198
O26	O	1.000593	0.648441	0.377340
O27	O	1.000590	0.553161	0.377345
O28	O	1.000596	0.750201	0.186629
O29	O	1.341725	0.479820	-0.116493
O30	O	0.659457	0.668717	0.339339
O31	O	0.659460	0.789505	0.339333
O32	O	0.659460	0.770477	0.148629
O33	O	1.341722	0.378059	0.074217
O34	O	1.341725	0.498847	0.074211
O35	O	0.888327	0.633296	0.267312
O36	O	0.888329	0.693201	0.155044
O37	O	1.112857	0.597548	0.067794
O38	O	1.112855	0.537643	0.180063
C39	C	0.700487	0.592106	0.077993
C40	C	0.598634	0.598160	0.066647
C41	C	0.553225	0.571142	0.117282
C42	C	0.447955	0.577398	0.105557
C43	C	1.000586	0.384190	0.111433
C44	C	1.000584	0.319678	0.111437
C45	C	0.883386	0.339301	0.156970
C46	C	0.883384	0.278687	0.156975
C47	C	1.000587	0.198447	0.111425
C48	C	1.117800	0.178825	0.065891
C49	C	1.117799	0.239441	0.065897
N50	N	1.087827	0.060949	0.025766
N51	N	1.087821	0.003370	0.025762
C52	C	1.000599	0.015811	0.111407
N53	N	0.913364	0.088015	0.197052
N54	N	0.913367	0.145600	0.197054
C55	C	1.000602	0.132713	0.111414
C56	C	0.883391	-0.030288	0.156949
C57	C	0.883394	-0.090905	0.156957
C58	C	1.117813	-0.190768	0.065863
C59	C	1.117807	-0.130150	0.065866
C60	C	1.000592	-0.049912	0.111405
C61	C	1.300695	0.556431	0.144853
C62	C	1.402547	0.550377	0.156198
C63	C	1.000590	0.544325	-0.188680
C64	C	1.000590	0.534163	-0.290532
C65	C	1.000596	0.764347	0.111413
C66	C	1.000598	0.828858	0.111409
C67	C	1.000591	0.579516	-0.335944
C68	C	1.000591	0.569014	-0.441213
C69	C	1.000592	0.604212	0.411526
C70	C	1.000592	0.614374	0.513378
C71	C	0.700492	0.782185	0.077983
C72	C	0.598641	0.852750	0.066634
C73	C	0.700488	0.622049	0.378096
C74	C	0.598636	0.638265	0.468602
C75	C	0.700493	0.812128	0.378086
C76	C	0.598642	0.892855	0.468588
C77	C	1.300689	0.336409	-0.155240
C78	C	1.402539	0.255682	-0.245743
C79	C	1.300690	0.366352	0.144863
C80	C	1.402541	0.295787	0.156212
C81	C	1.300694	0.526488	-0.155250
C82	C	1.402546	0.510271	-0.245756
C83	C	0.550810	0.842923	0.002695
C84	C	0.455123	0.909218	-0.007990
C85	C	0.407264	0.985339	0.045271
C86	C	0.455104	0.995164	0.109212
C87	C	0.550796	0.928869	0.119890
C88	C	0.550806	0.688845	0.569714
C89	C	0.455118	0.704080	0.654765
C90	C	0.407256	0.668738	0.638701
C91	C	0.455095	0.618152	0.537579
C92	C	0.550787	0.602914	0.452531
C93	C	0.550813	0.962042	0.452486
C94	C	0.455127	1.037898	0.537516
C95	C	0.407265	1.044566	0.638645
C96	C	0.455104	0.975372	0.654746
C97	C	0.550795	0.899517	0.569719
C98	C	1.450380	0.186494	-0.229639
C99	C	1.546096	0.110637	-0.314665
C100	C	1.593963	0.103968	-0.415794
C101	C	1.546118	0.173163	-0.431896
C102	C	1.450410	0.249018	-0.346870
C103	C	1.450382	0.305612	0.220142
C104	C	1.546095	0.239313	0.230804
C105	C	1.593958	0.163191	0.177540
C106	C	1.546113	0.153367	0.113602
C107	C	1.450408	0.219664	0.102936
C108	C	1.450379	0.545626	-0.229660
C109	C	1.546067	0.530405	-0.314693
C110	C	1.593928	0.479824	-0.415820
C111	C	1.546086	0.444469	-0.431915
C112	C	1.450393	0.459695	-0.346884
H113	H	0.441606	0.522607	0.208228
F114	F	1.000579	0.473251	-0.341572
H115	H	0.416183	0.901203	-0.060057
H116	H	0.589725	0.843187	0.582843
H117	H	0.559583	0.625919	0.014612
F118	F	1.000583	0.640437	-0.284898
H119	H	1.585069	0.403285	-0.514264
F120	F	0.305420	1.125304	0.729131
F121	F	0.758643	0.055109	0.205421
F122	F	0.601732	0.761914	-0.054002
H123	H	1.411458	0.430900	-0.360004
F124	F	0.396919	0.613684	0.037538
H125	H	0.416186	1.094231	0.524387
F126	F	1.000584	0.675298	-0.435579
H127	H	1.213242	-0.146133	0.028780
H128	H	0.592287	0.543376	0.169308
F129	F	1.399497	0.322649	-0.364025
H130	H	1.000583	0.522410	-0.480261
H131	H	0.329345	1.039314	0.036568
H132	H	0.589765	0.717628	0.582814
F133	F	0.404152	1.076185	0.165893
H134	H	0.416179	0.745273	0.737095
F135	F	0.404153	0.982481	0.762384
H136	H	0.589728	0.936882	0.171961
H137	H	0.329337	0.681152	0.707962
F138	F	0.404142	0.580544	0.520499
F139	F	0.601675	0.549083	0.344921
F140	F	0.601740	0.954963	0.344864
F141	F	1.399452	0.193574	-0.122017
H142	H	1.585035	0.054304	-0.301535
H143	H	1.671894	0.042197	-0.485019
H144	H	0.787941	0.404630	0.194045
H145	H	1.585103	0.167723	-0.514245
H146	H	1.411419	0.367589	0.263525
H147	H	1.585010	0.559197	-0.301567
H148	H	1.585034	0.247328	0.282871
F149	F	1.597062	0.072347	0.056923
H150	H	0.787953	-0.074919	0.194043
H151	H	1.411458	0.211654	0.050881
H152	H	1.213242	-0.256100	0.028775
F153	F	1.399458	0.599461	-0.122040
F154	F	0.758641	0.299569	0.205435
H155	H	1.213228	0.113489	0.028805
F156	F	1.242543	0.218552	0.017432
F157	F	1.695776	0.463624	-0.506308
H158	H	1.671887	0.109215	0.186234
