data_functionalizedCrystal
_audit_creation_method	'MofGen! by Chris Wilmer'
_symmetry_space_group_name_H-M	'P1'
_symmetry_Int_Tables_number	1
_symmetry_cell_setting	triclinic
loop_
_symmetry_equiv_pos_as_xyz
  x,y,z
_cell_length_a	29.839134
_cell_length_b	29.839131
_cell_length_c	12.759393
_cell_angle_alpha	90.044470
_cell_angle_beta	90.032473
_cell_angle_gamma	90.030088
loop_
_atom_site_label
_atom_site_type_symbol
_atom_site_fract_x
_atom_site_fract_y
_atom_site_fract_z
Zn1	Zn	0.686786	-0.178893	0.594241
Zn2	Zn	0.686712	-0.254030	0.418518
Zn3	Zn	0.611655	-0.178908	0.418541
Zn4	Zn	0.611624	-0.253990	0.594120
O5	O	0.649194	-0.216455	0.506355
O6	O	0.749643	-0.188871	0.570972
O7	O	0.676737	-0.244088	0.271500
O8	O	0.621664	-0.116039	0.441908
O9	O	0.749589	-0.244074	0.441870
O10	O	0.676863	-0.116028	0.570994
O11	O	0.621593	-0.188897	0.271517
O12	O	0.548783	-0.188858	0.441791
O13	O	0.621613	-0.244005	0.741158
O14	O	0.548761	-0.244020	0.570788
O15	O	0.676833	-0.188832	0.741246
O16	O	0.676708	-0.316892	0.441752
O17	O	0.621541	-0.316863	0.570766
C18	C	0.532471	-0.216436	0.506280
C19	C	0.482537	-0.216439	0.506272
C20	C	0.172892	-0.245221	0.573442
C21	C	-0.014782	-0.245234	0.573489
O22	O	-0.039048	-0.269684	0.630554
N23	N	-0.038248	-0.216472	0.506434
C24	C	-0.014793	-0.187703	0.439369
O25	O	-0.039059	-0.163236	0.382344
C26	C	0.172879	-0.187688	0.439328
C27	C	0.196343	-0.216455	0.506379
C28	C	0.196356	-0.273985	0.640488
C29	C	0.243271	-0.273983	0.640472
C30	C	0.266722	-0.245217	0.573409
C31	C	0.243258	-0.216453	0.506363
C32	C	0.196333	-0.158917	0.372268
C33	C	0.243254	-0.158916	0.372266
C34	C	0.266718	-0.187682	0.439317
C35	C	0.313625	-0.187686	0.439283
N36	N	0.337092	-0.216448	0.506338
C37	C	0.313640	-0.245213	0.573400
C38	C	-0.113324	-0.187713	0.439393
C39	C	-0.160242	-0.187717	0.439402
C40	C	-0.160227	-0.245248	0.573523
C41	C	-0.113308	-0.245245	0.573509
C42	C	-0.089858	-0.216475	0.506447
C43	C	0.412166	-0.245208	0.573360
C44	C	0.459086	-0.245205	0.573335
C45	C	0.459067	-0.187673	0.439218
C46	C	0.412151	-0.187678	0.439239
C47	C	0.388702	-0.216446	0.506318
O48	O	0.337921	-0.163245	0.382256
O49	O	0.337914	-0.269669	0.630433
C50	C	0.125976	-0.245223	0.573458
C51	C	0.102512	-0.216459	0.506412
C52	C	0.125963	-0.187693	0.439349
C53	C	0.055594	-0.216463	0.506420
C54	C	0.032143	-0.245229	0.573483
C55	C	0.055609	-0.273990	0.640537
C56	C	0.102525	-0.273988	0.640521
C57	C	0.102497	-0.158931	0.372295
C58	C	0.055581	-0.158936	0.372316
C59	C	0.032130	-0.187701	0.439379
C60	C	0.649126	-0.333178	0.506267
C61	C	0.649137	-0.383112	0.506264
C62	C	0.677930	-0.692715	0.573666
C63	C	0.677978	-0.880388	0.573729
O64	O	0.702391	-0.904618	0.630971
N65	N	0.649270	-0.903897	0.506472
C66	C	0.620546	-0.880486	0.439199
O67	O	0.596126	-0.904788	0.382001
C68	C	0.620495	-0.692813	0.439142
C69	C	0.649208	-0.669307	0.506396
C70	C	0.706640	-0.669208	0.640916
C71	C	0.706629	-0.622293	0.640895
C72	C	0.677908	-0.598884	0.573625
C73	C	0.649198	-0.622391	0.506376
C74	C	0.591769	-0.669403	0.371875
C75	C	0.591758	-0.622482	0.371868
C76	C	0.620471	-0.598975	0.439123
C77	C	0.620466	-0.552067	0.439085
N78	N	0.649174	-0.528558	0.506342
C79	C	0.677895	-0.551966	0.573612
C80	C	0.620575	-0.979016	0.439232
C81	C	0.620588	-1.025934	0.439245
C82	C	0.678020	-1.025833	0.573777
C83	C	0.678009	-0.978915	0.573758
C84	C	0.649283	-0.955507	0.506489
C85	C	0.677870	-0.453441	0.573564
C86	C	0.677858	-0.406521	0.573534
C87	C	0.620425	-0.406626	0.439006
C88	C	0.620439	-0.453541	0.439031
C89	C	0.649163	-0.476948	0.506319
O90	O	0.596062	-0.527808	0.381881
O91	O	0.702304	-0.527656	0.630818
C92	C	0.677940	-0.739631	0.573687
C93	C	0.649230	-0.763137	0.506437
C94	C	0.620509	-0.739729	0.439167
C95	C	0.649243	-0.810055	0.506450
C96	C	0.677964	-0.833464	0.573720
C97	C	0.706672	-0.809955	0.640977
C98	C	0.706662	-0.763039	0.640957
C99	C	0.591801	-0.763238	0.371909
C100	C	0.591814	-0.810154	0.371935
C101	C	0.620535	-0.833562	0.439205
C102	C	0.766372	-0.216475	0.506432
C103	C	0.816307	-0.216483	0.506465
C104	C	0.649228	-0.216412	0.780389
C105	C	0.649242	-0.216394	0.897166
C106	C	0.649275	-0.099277	0.506467
C107	C	0.649310	-0.049343	0.506515
C108	C	0.649186	-0.216466	0.233388
C109	C	0.649259	-0.216358	0.116612
C110	C	0.677998	-0.187661	0.952075
C111	C	0.678005	-0.187641	1.061800
C112	C	0.620500	-0.245092	1.061694
C113	C	0.620491	-0.245109	0.951972
C114	C	0.694107	-0.134638	1.211816
C115	C	0.722870	-0.105909	1.266729
C116	C	0.766707	-0.099025	1.231162
C117	C	0.781791	-0.120877	1.140684
C118	C	0.753031	-0.149610	1.085776
C119	C	0.709187	-0.156485	1.121341
C120	C	0.604393	-0.298113	0.801954
C121	C	0.575635	-0.326848	0.747044
C122	C	0.531797	-0.333736	0.782609
C123	C	0.516714	-0.311892	0.873091
C124	C	0.545473	-0.283157	0.928001
C125	C	0.589311	-0.276268	0.892429
H126	H	0.393079	-0.268633	0.627985
C127	C	0.560198	-0.737495	0.297915
N128	N	0.536393	-0.718108	0.242178
H129	H	0.587921	-0.344639	0.673376
C130	C	0.528879	-0.259125	1.027531
N131	N	0.516381	-0.241024	1.102496
H132	H	0.508384	-0.357139	0.737896
H133	H	0.701407	-0.164277	0.907455
H134	H	0.817490	-0.115273	1.111738
H135	H	0.765313	-0.167403	1.012113
C136	C	0.588875	-0.276677	1.121992
N137	N	0.565054	-0.300467	1.167407
H138	H	0.701257	-0.472492	0.628363
H139	H	-0.094235	-0.164284	0.384779
C140	C	0.560157	-0.596736	0.297864
N141	N	0.536356	-0.577345	0.242121
C142	C	0.484872	-0.156027	0.365464
N143	N	0.504310	-0.132187	0.309922
C144	C	0.468490	-0.319469	0.912215
N145	N	0.432166	-0.325177	0.941681
H146	H	0.036481	-0.135511	0.317705
H147	H	0.121586	-0.135506	0.317683
C148	C	-0.186032	-0.276888	0.647299
N149	N	-0.205471	-0.300715	0.702870
C150	C	0.128329	-0.305633	0.714287
N151	N	0.147762	-0.329469	0.769853
H152	H	0.790126	-0.075633	1.275881
C153	C	-0.186047	-0.156074	0.365634
N154	N	-0.205482	-0.132237	0.310075
C155	C	0.652619	-0.290538	0.762826
N156	N	0.688943	-0.284835	0.733356
C157	C	0.386340	-0.156036	0.365472
N158	N	0.366902	-0.132201	0.309915
H159	H	0.478188	-0.268632	0.627937
C160	C	0.170533	-0.127266	0.298517
N161	N	0.151101	-0.103422	0.242968
C162	C	0.029804	-0.305632	0.714309
N163	N	0.010365	-0.329461	0.769875
C164	C	0.269075	-0.305627	0.714239
N165	N	0.288508	-0.329462	0.769807
C166	C	0.588855	-0.479400	0.365043
N167	N	0.565063	-0.498873	0.309321
H168	H	0.262345	-0.135484	0.317662
C169	C	0.709448	-0.380666	0.647519
N170	N	0.733240	-0.361194	0.703244
H171	H	-0.094207	-0.268669	0.628109
H172	H	0.568388	-0.688534	0.317108
H173	H	0.597042	-0.387559	0.384232
C174	C	0.738249	-0.737188	0.714942
N175	N	0.762042	-0.717719	0.770671
C176	C	0.738218	-0.596441	0.714878
N177	N	0.762012	-0.576973	0.770604
C178	C	0.706274	-0.081869	1.366247
N179	N	0.693776	-0.063761	1.441203
C180	C	0.645881	-0.142203	1.250940
N181	N	0.609557	-0.147902	1.280414
H182	H	0.730028	-0.688262	0.695702
C183	C	0.709611	-1.051591	0.647781
N184	N	0.733402	-1.070994	0.703524
C185	C	0.589005	-1.051786	0.365251
N186	N	0.565214	-1.071257	0.309522
C187	C	0.709594	-0.953061	0.647747
N188	N	0.733384	-0.933591	0.703480
H189	H	0.568433	-0.829289	0.317158
C190	C	0.588968	-0.953274	0.365237
N191	N	0.565160	-0.933886	0.309505
C192	C	0.738265	-0.835713	0.714976
N193	N	0.762057	-0.855116	0.770714
H194	H	0.177266	-0.297410	0.695105
