data_functionalizedCrystal
_audit_creation_method	'MofGen! by Chris Wilmer'
_symmetry_space_group_name_H-M	'P1'
_symmetry_Int_Tables_number	1
_symmetry_cell_setting	triclinic
loop_
_symmetry_equiv_pos_as_xyz
  x,y,z
_cell_length_a	15.944545
_cell_length_b	15.944551
_cell_length_c	10.868271
_cell_angle_alpha	89.993912
_cell_angle_beta	89.998467
_cell_angle_gamma	83.497455
loop_
_atom_site_label
_atom_site_type_symbol
_atom_site_fract_x
_atom_site_fract_y
_atom_site_fract_z
O1	O	1.114527	0.108307	-0.102245
O2	O	0.869977	0.121669	-0.102266
O3	O	0.998930	-0.007287	-0.102244
O4	O	0.985574	0.237263	-0.102267
O5	O	0.998920	-0.007292	0.102401
O6	O	0.869966	0.121664	0.102379
O7	O	1.114517	0.108302	0.102399
Zn8	Zn	0.992240	0.114983	0.134881
Zn9	Zn	0.992254	0.114989	-0.134747
O10	O	0.985563	0.237258	0.102378
C11	C	0.838677	0.121113	0.000054
C12	C	0.745431	0.119453	0.000047
C13	C	0.998370	-0.038583	0.000079
C14	C	0.996708	-0.131829	0.000079
C15	C	0.474798	0.034559	0.000068
C16	C	0.525375	0.075485	0.100968
C17	C	0.409787	0.113532	0.000069
C18	C	0.525366	0.075512	-0.100796
C19	C	0.574701	0.116437	0.000056
C20	C	0.459135	0.154437	0.101051
C21	C	0.459123	0.154452	-0.100803
C22	C	0.509667	0.195436	0.000122
C23	C	0.314785	0.111856	0.000077
C24	C	0.669700	0.118119	0.000056
C25	C	0.912803	-0.346684	0.000055
C26	C	0.951761	-0.407705	0.100961
C27	C	0.993701	-0.302555	0.000070
C28	C	0.951790	-0.407683	-0.100803
C29	C	0.990790	-0.467468	0.000055
C30	C	1.032680	-0.362347	0.101058
C31	C	1.032698	-0.362319	-0.100796
C32	C	1.071715	-0.423322	0.000134
C33	C	0.995375	-0.207553	0.000079
C34	C	0.989122	-0.562469	0.000054
C35	C	1.145816	0.108859	0.000077
C36	C	1.239062	0.110519	0.000076
C37	C	0.986123	0.268555	0.000052
C38	C	0.987785	0.361801	0.000044
N39	N	0.992236	0.114978	0.318895
N40	N	0.992264	0.114987	-0.318761
C41	C	0.992249	0.114987	0.569901
C42	C	0.992239	0.114984	0.430224
H43	H	0.459145	-0.033453	0.000173
C44	C	0.420222	0.199455	0.216417
H45	H	0.463632	0.219317	0.264536
H46	H	0.392074	0.161003	0.263585
H47	H	0.380960	0.245830	0.192295
C48	C	0.564464	0.030428	0.216202
H49	H	0.552799	-0.026696	0.216085
H50	H	0.540907	0.057915	0.287855
H51	H	0.623811	0.032252	0.215740
H52	H	1.066863	-0.342360	0.186460
H53	H	1.138922	-0.456483	0.000197
H54	H	0.525159	0.263501	0.000174
C55	C	0.905563	-0.434818	-0.216043
H56	H	0.942994	-0.472492	-0.263559
H57	H	0.886820	-0.386434	-0.263871
H58	H	0.858354	-0.462284	-0.191785
C59	C	1.078857	-0.335061	-0.216028
H60	H	1.126659	-0.308515	-0.191792
H61	H	1.041688	-0.296568	-0.262662
H62	H	1.096700	-0.383275	-0.264719
C63	C	0.420016	0.199469	-0.216048
H64	H	0.442805	0.171319	-0.287672
H65	H	0.432557	0.256306	-0.216777
H66	H	0.360554	0.198534	-0.214808
C67	C	0.564433	0.030451	-0.216032
H68	H	0.592181	0.069035	-0.263554
H69	H	0.521158	0.010093	-0.263854
H70	H	0.604075	-0.015575	-0.191770
C71	C	0.822093	-0.301689	0.000164
H72	H	0.813404	-0.267761	-0.071568
H73	H	0.813794	-0.267004	0.071167
H74	H	0.783117	-0.342553	0.000937
C75	C	0.905535	-0.434877	0.216192
H76	H	0.849084	-0.408375	0.216067
H77	H	0.933726	-0.418596	0.287846
H78	H	0.905261	-0.494426	0.215735
