data_functionalizedCrystal
_audit_creation_method	'MofGen! by Chris Wilmer'
_symmetry_space_group_name_H-M	'P1'
_symmetry_Int_Tables_number	1
_symmetry_cell_setting	triclinic
loop_
_symmetry_equiv_pos_as_xyz
  x,y,z
_cell_length_a	13.032721
_cell_length_b	21.395364
_cell_length_c	21.395356
_cell_angle_alpha	90.017620
_cell_angle_beta	97.155355
_cell_angle_gamma	82.801232
loop_
_atom_site_label
_atom_site_type_symbol
_atom_site_fract_x
_atom_site_fract_y
_atom_site_fract_z
Zn1	Zn	-0.416226	-0.926155	-0.385974
Zn2	Zn	0.083774	-0.426155	0.114026
Zn3	Zn	-0.590984	-0.912782	-0.294504
Zn4	Zn	-0.090984	-0.412782	0.205496
Zn5	Zn	-0.416237	-0.821384	-0.281210
Zn6	Zn	0.083763	-0.321384	0.218790
Zn7	Zn	-0.590909	-0.808055	-0.399236
Zn8	Zn	-0.090909	-0.308055	0.100764
O9	O	-0.503589	-0.867094	-0.340231
O10	O	-0.003589	-0.367094	0.159769
O11	O	-0.439434	-1.012057	-0.373854
O12	O	0.060566	-0.512057	0.126146
O13	O	-0.567839	-0.900640	-0.205065
O14	O	-0.067839	-0.400640	0.294935
O15	O	-0.269998	-0.846457	-0.283993
O16	O	0.230002	-0.346457	0.216007
O17	O	-0.567828	-1.002232	-0.306651
O18	O	-0.067828	-0.502232	0.193349
O19	O	-0.269989	-0.923432	-0.360963
O20	O	0.230011	-0.423432	0.139037
O21	O	-0.439454	-0.833490	-0.195298
O22	O	0.060546	-0.333490	0.304702
O23	O	-0.439381	-0.731940	-0.296853
O24	O	0.060619	-0.231940	0.203147
O25	O	-0.567701	-0.823739	-0.485152
O26	O	-0.067701	-0.323739	0.014848
O27	O	-0.567712	-0.722147	-0.383566
O28	O	-0.067712	-0.222147	0.116434
O29	O	-0.439362	-0.910507	-0.475408
O30	O	0.060638	-0.410507	0.024592
O31	O	-0.737212	-0.887715	-0.319510
O32	O	-0.237212	-0.387715	0.180490
O33	O	-0.737157	-0.810772	-0.396457
O34	O	-0.237157	-0.310772	0.103543
C35	C	-0.503541	-0.704310	-0.340206
C36	C	-0.003541	-0.204310	0.159794
C37	C	-0.503545	-0.634669	-0.340213
C38	C	-0.003545	-0.134669	0.159787
C39	C	-0.436855	-0.137975	-0.375292
C40	C	0.063145	0.362025	0.124708
C41	C	-0.436850	-0.203411	-0.375293
C42	C	0.063150	0.296589	0.124707
C43	C	-0.503589	-0.231027	-0.340232
C44	C	-0.003589	0.268973	0.159768
C45	C	-0.570356	-0.193200	-0.305181
C46	C	-0.070356	0.306800	0.194819
C47	C	-0.570366	-0.127765	-0.305186
C48	C	-0.070366	0.372235	0.194814
C49	C	-0.511702	-0.334054	-0.284385
C50	C	-0.011702	0.165946	0.215615
C51	C	-0.511685	-0.399489	-0.284378
C52	C	-0.011685	0.100511	0.215622
C53	C	-0.503564	-0.432850	-0.340217
C54	C	-0.003564	0.067150	0.159783
C55	C	-0.495439	-0.400770	-0.396063
C56	C	0.004561	0.099230	0.103937
C57	C	-0.495449	-0.335335	-0.396068
C58	C	0.004551	0.164665	0.103932
C59	C	-0.503586	-0.301980	-0.340223
C60	C	-0.003586	0.198020	0.159777
C61	C	-0.436802	-0.541621	-0.375270
C62	C	0.063198	-0.041621	0.124730
C63	C	-0.436805	-0.607057	-0.375273
C64	C	0.063195	-0.107057	0.124727
C65	C	-0.570305	-0.596845	-0.305155
C66	C	-0.070305	-0.096845	0.194845
C67	C	-0.570307	-0.531410	-0.305158
C68	C	-0.070307	-0.031410	0.194842
C69	C	-0.503550	-0.503802	-0.340215
C70	C	-0.003550	-0.003802	0.159785
C71	C	-0.775102	-0.846363	-0.360879
C72	C	-0.275102	-0.346363	0.139121
C73	C	-0.891256	-0.837551	-0.369733
C74	C	-0.391256	-0.337551	0.130267
C75	C	-0.943034	-0.871726	-0.335638
C76	C	-0.443034	-0.371726	0.164362
C77	C	-1.063086	-0.862620	-0.344788
C78	C	-0.563086	-0.362620	0.155212
C79	C	-0.231016	-0.887923	-0.319516
C80	C	0.268984	-0.387923	0.180484
C81	C	-0.114861	-0.896800	-0.310688
C82	C	0.385139	-0.396800	0.189312
C83	C	-0.503522	-0.867128	-0.503649
C84	C	-0.003522	-0.367128	-0.003649
C85	C	-0.503493	-0.867143	-0.573288
C86	C	-0.003493	-0.367143	-0.073288
C87	C	-0.503625	-0.030515	-0.340250
C88	C	-0.003625	0.469485	0.159750
C89	C	-0.503609	-0.100157	-0.340242
C90	C	-0.003609	0.399843	0.159758
C91	C	-0.436500	-0.912394	-1.069999
C92	C	0.063500	-0.412394	-0.569999
C93	C	-0.436526	-0.912388	-1.004566
C94	C	0.063474	-0.412388	-0.504566
C95	C	-0.503354	-0.867207	-0.976916
C96	C	-0.003354	-0.367207	-0.476916
C97	C	-0.570181	-0.822040	-1.014707
C98	C	-0.070181	-0.322040	-0.514707
C99	C	-0.570161	-0.822052	-1.080140
C100	C	-0.070161	-0.322052	-0.580140
C101	C	-0.511620	-0.810109	-0.873868
C102	C	-0.011620	-0.310109	-0.373868
C103	C	-0.511632	-0.810097	-0.808436
C104	C	-0.011632	-0.310097	-0.308436
C105	C	-0.503421	-0.867170	-0.775100
C106	C	-0.003421	-0.367170	-0.275100
C107	C	-0.495175	-0.924259	-0.807203
C108	C	0.004825	-0.424259	-0.307203
C109	C	-0.495155	-0.924271	-0.872635
C110	C	0.004845	-0.424271	-0.372635
C111	C	-0.503383	-0.867189	-0.905966
C112	C	-0.003383	-0.367189	-0.405966
C113	C	-0.436630	-0.912329	-0.666367
C114	C	0.063370	-0.412329	-0.166367
C115	C	-0.436663	-0.912323	-0.600933
C116	C	0.063337	-0.412323	-0.100933
C117	C	-0.570313	-0.821970	-0.611075
C118	C	-0.070313	-0.321970	-0.111075
C119	C	-0.570286	-0.821982	-0.676509
C120	C	-0.070286	-0.321982	-0.176509
C121	C	-0.503439	-0.867161	-0.704150
C122	C	-0.003439	-0.367161	-0.204150
C123	C	-0.503580	-0.867102	-0.177443
C124	C	-0.003580	-0.367102	0.322557
C125	C	-0.503315	-0.867231	-0.107781
C126	C	-0.003315	-0.367231	0.392219
H127	H	-0.488821	-0.427931	-0.441532
H128	H	0.011179	0.072069	0.058468
C129	C	-0.951435	-0.788914	-0.418321
C130	C	-0.451435	-0.288914	0.081679
N131	N	-0.996760	-0.752279	-0.454917
N132	N	-0.496760	-0.252279	0.045083
H133	H	-0.624571	-0.785273	-1.110902
H134	H	-0.124571	-0.285273	-0.610902
C135	C	-0.643690	-0.772340	-0.984291
C136	C	-0.143690	-0.272340	-0.484291
N137	N	-0.699060	-0.734905	-0.961382
N138	N	-0.199060	-0.234905	-0.461382
H139	H	-0.382500	-0.115501	-0.403841
H140	H	0.117500	0.384499	0.096159
C141	C	-0.363379	-0.511249	-0.413840
C142	C	0.136621	-0.011249	0.086160
N143	N	-0.308079	-0.488375	-0.442892
N144	N	0.191921	0.011625	0.057108
C145	C	-0.363364	-0.648658	-0.413831
C146	C	0.136636	-0.148658	0.086169
N147	N	-0.308045	-0.679992	-0.442872
N148	N	0.191955	-0.179992	0.057128
H149	H	-0.624697	-0.215689	-0.276636
H150	H	-0.124697	0.284311	0.223364
C151	C	-0.643794	-0.086164	-0.266621
C152	C	-0.143794	0.413836	0.233379
N153	N	-0.699098	-0.054829	-0.237571
N154	N	-0.199098	0.445171	0.262429
H155	H	-0.518319	-0.306897	-0.238911
H156	H	-0.018319	0.193103	0.261089
C157	C	-0.363408	-0.245019	-0.413848
C158	C	0.136592	0.254981	0.086152
N159	N	-0.308088	-0.276357	-0.442886
N160	N	0.191912	0.223643	0.057114
C161	C	-0.882856	-0.920362	-0.287049
C162	C	-0.382856	-0.420362	0.212951
N163	N	-0.837531	-0.956994	-0.250450
N164	N	-0.337531	-0.456994	0.249550
C165	C	-0.643728	-0.489809	-0.266590
C166	C	-0.143728	0.010191	0.233410
N167	N	-0.699030	-0.458476	-0.237538
N168	N	-0.199030	0.041524	0.262462
H169	H	-1.107631	-0.826620	-0.380758
H170	H	-0.607631	-0.326620	0.119242
H171	H	-1.070317	-0.932805	-0.274723
H172	H	-0.570317	-0.432805	0.225277
H173	H	-0.382073	-0.949185	-1.092501
H174	H	0.117927	-0.449185	-0.592501
H175	H	-0.488835	-0.309218	-0.441540
H176	H	0.011165	0.190782	0.058460
H177	H	-0.382114	-0.949165	-0.973798
H178	H	0.117886	-0.449165	-0.473798
C179	C	-0.643827	-0.772272	-0.580665
C180	C	-0.143827	-0.272272	-0.080665
N181	N	-0.699201	-0.734838	-0.557756
N182	N	-0.199201	-0.234838	-0.057756
C183	C	-0.643720	-0.627219	-0.266589
C184	C	-0.143720	-0.127219	0.233411
N185	N	-0.699021	-0.650099	-0.237541
N186	N	-0.199021	-0.150099	0.262459
H187	H	-0.518295	-0.425603	-0.238904
H188	H	-0.018295	0.074397	0.261096
C189	C	-0.486098	-0.987067	-0.907947
C190	C	0.013902	-0.487067	-0.407947
N191	N	-0.479282	-1.034366	-0.934543
N192	N	0.020718	-0.534366	-0.434543
H193	H	-0.488485	-0.970733	-0.780062
H194	H	0.011515	-0.470733	-0.280062
C195	C	-0.363109	-0.962033	-0.696776
C196	C	0.136891	-0.462033	-0.196776
N197	N	-0.307734	-0.999470	-0.719679
N198	N	0.192266	-0.499470	-0.219679
H199	H	-0.382258	-0.949105	-0.570172
H200	H	0.117742	-0.449105	-0.070172
C201	C	-0.643776	-0.772292	-0.718070
C202	C	-0.143776	-0.272292	-0.218070
N203	N	-0.699133	-0.734863	-0.749374
N204	N	-0.199133	-0.234863	-0.249374
C205	C	-0.520696	-0.747299	-0.773129
C206	C	-0.020696	-0.247299	-0.273129
N207	N	-0.527522	-0.699997	-0.746538
N208	N	-0.027522	-0.199997	-0.246538
H209	H	-0.518308	-0.763630	-0.901005
H210	H	-0.018308	-0.263630	-0.401005
