data_functionalizedCrystal
_audit_creation_method	'MofGen! by Chris Wilmer'
_symmetry_space_group_name_H-M	'P1'
_symmetry_Int_Tables_number	1
_symmetry_cell_setting	triclinic
loop_
_symmetry_equiv_pos_as_xyz
  x,y,z
_cell_length_a	14.044220
_cell_length_b	15.995350
_cell_length_c	13.101039
_cell_angle_alpha	93.364563
_cell_angle_beta	86.340132
_cell_angle_gamma	88.340626
loop_
_atom_site_label
_atom_site_type_symbol
_atom_site_fract_x
_atom_site_fract_y
_atom_site_fract_z
O1	O	1.262914	0.197637	-0.085096
O2	O	1.762914	0.697637	0.414904
O3	O	0.986946	0.190352	-0.085122
O4	O	1.486946	0.690352	0.414878
O5	O	1.132474	0.072670	-0.085107
O6	O	1.632474	0.572670	0.414893
O7	O	1.117386	0.315319	-0.085111
O8	O	1.617386	0.815319	0.414889
O9	O	1.122032	0.081129	0.085321
O10	O	1.622032	0.581129	0.585321
O11	O	0.976505	0.198810	0.085307
O12	O	1.476505	0.698810	0.585307
O13	O	1.252472	0.206096	0.085333
O14	O	1.752472	0.706096	0.585333
Zn15	Zn	1.112831	0.203796	0.112379
Zn16	Zn	1.612831	0.703796	0.612379
Zn17	Zn	1.126588	0.192651	-0.112168
Zn18	Zn	1.626588	0.692651	0.387832
O19	O	1.106945	0.323777	0.085318
O20	O	1.606945	0.823777	0.585318
C21	C	0.946411	0.191392	0.000089
C22	C	1.446411	0.691392	0.500089
C23	C	0.841186	0.181881	0.000079
C24	C	1.341186	0.681881	0.500079
C25	C	1.126629	0.045658	0.000105
C26	C	1.626629	0.545658	0.500105
C27	C	1.124760	-0.047432	0.000099
C28	C	1.624760	0.452568	0.500099
C29	C	0.648524	0.164494	0.000099
C30	C	1.148524	0.664494	0.500099
C31	C	0.590890	0.231950	0.000102
C32	C	1.090890	0.731950	0.500102
C33	C	0.483686	0.222275	0.000114
C34	C	0.983686	0.722275	0.500114
C35	C	0.755738	0.174167	0.000088
C36	C	1.255738	0.674167	0.500088
C37	C	1.118044	-0.385681	0.000102
C38	C	1.618044	0.114319	0.500102
C39	C	1.014425	-0.346007	-0.000290
C40	C	1.514425	0.153993	0.499710
C41	C	1.016272	-0.249158	0.000094
C42	C	1.516272	0.250842	0.500094
C43	C	1.121375	-0.217872	0.000100
C44	C	1.621375	0.282128	0.500100
C45	C	1.166533	-0.250301	0.097426
C46	C	1.666533	0.249699	0.597426
C47	C	1.163924	-0.347127	0.097507
C48	C	1.663924	0.152873	0.597507
C49	C	1.177939	-0.356944	-0.096302
C50	C	1.677939	0.143056	0.403698
C51	C	1.177993	-0.260065	-0.097588
C52	C	1.677993	0.239935	0.402412
C53	C	1.123263	-0.123033	0.000102
C54	C	1.623263	0.376967	0.500102
C55	C	1.116159	-0.480519	0.000106
C56	C	1.616159	0.019481	0.500106
C57	C	1.293008	0.205055	0.000120
C58	C	1.793008	0.705055	0.500120
C59	C	1.398233	0.214566	0.000123
C60	C	1.898233	0.714566	0.500123
C61	C	1.112789	0.350789	0.000103
C62	C	1.612789	0.850789	0.500103
C63	C	1.114659	0.443879	0.000103
C64	C	1.614659	0.943879	0.500103
N65	N	1.103449	0.211402	0.265626
N66	N	1.603449	0.711402	0.765626
N67	N	1.135977	0.185039	-0.265416
N68	N	1.635977	0.685039	0.234584
C69	C	1.090685	0.221758	0.474668
C70	C	1.590685	0.721758	0.974668
C71	C	1.148739	0.174686	0.525549
C72	C	1.648739	0.674686	1.025549
C73	C	1.141636	0.180448	0.641867
C74	C	1.641636	0.680448	1.141867
C75	C	1.097786	0.215997	0.358340
C76	C	1.597786	0.715997	0.858340
H77	H	0.622062	0.296967	0.000097
H78	H	1.122062	0.796967	0.500097
Br79	Br	0.596572	0.056133	0.000106
Br80	Br	1.096572	0.556133	0.500106
Br81	Br	1.294864	-0.216850	0.103472
Br82	Br	1.794864	0.283150	0.603472
Br83	Br	0.956422	-0.212555	-0.116191
Br84	Br	1.456422	0.287445	0.383809
H85	H	1.148573	-0.383676	-0.170069
H86	H	1.648573	0.116324	0.329931
H87	H	1.203775	0.130059	0.481753
H88	H	1.703775	0.630059	0.981753
H89	H	0.977276	-0.371097	-0.070085
H90	H	1.477276	0.128903	0.429915
Br91	Br	0.998960	0.296138	0.547658
Br92	Br	1.498960	0.796138	1.047658
Br93	Br	0.938423	-0.378489	0.115024
Br94	Br	1.438423	0.121511	0.615024
Br95	Br	0.941705	-0.201963	0.116560
Br96	Br	1.441705	0.298037	0.616560
Br97	Br	1.123574	-0.224680	-0.217613
Br98	Br	1.623574	0.275320	0.282387
Br99	Br	1.094362	-0.376258	0.218757
Br100	Br	1.594362	0.123742	0.718757
Br101	Br	1.290293	-0.391042	0.104887
Br102	Br	1.790293	0.108958	0.604887
Br103	Br	1.099963	-0.201429	0.218140
Br104	Br	1.599963	0.298571	0.718140
Br105	Br	1.306342	-0.225400	-0.107386
Br106	Br	1.806342	0.274600	0.392614
H107	H	1.254394	-0.383030	-0.096952
H108	H	1.754394	0.116970	0.403048
