data_functionalizedCrystal
_audit_creation_method	'MofGen! by Chris Wilmer'
_symmetry_space_group_name_H-M	'P1'
_symmetry_Int_Tables_number	1
_symmetry_cell_setting	triclinic
loop_
_symmetry_equiv_pos_as_xyz
  x,y,z
_cell_length_a	19.077236
_cell_length_b	19.076808
_cell_length_c	19.077569
_cell_angle_alpha	85.471664
_cell_angle_beta	85.479541
_cell_angle_gamma	94.519737
loop_
_atom_site_label
_atom_site_type_symbol
_atom_site_fract_x
_atom_site_fract_y
_atom_site_fract_z
Zn1	Zn	1.084563	-0.219365	-0.432786
Zn2	Zn	1.074593	-0.342413	-0.309739
Zn3	Zn	0.961527	-0.229260	-0.309753
Zn4	Zn	0.961488	-0.342366	-0.422847
O5	O	1.020543	-0.283351	-0.368781
O6	O	1.182066	-0.231566	-0.420618
O7	O	1.055438	-0.331563	-0.210915
O8	O	0.982037	-0.129115	-0.330239
O9	O	1.174741	-0.321969	-0.330215
O10	O	1.072431	-0.121846	-0.420631
O11	O	0.972369	-0.248430	-0.210925
O12	O	0.862696	-0.248385	-0.320601
O13	O	0.981970	-0.321889	-0.522992
O14	O	0.862667	-0.331484	-0.403691
O15	O	1.072393	-0.231521	-0.530294
O16	O	1.055400	-0.441238	-0.320578
O17	O	0.972302	-0.441204	-0.403678
C18	C	0.837057	-0.291003	-0.361069
C19	C	0.758562	-0.294294	-0.357786
C20	C	0.725498	-0.248840	-0.403378
C21	C	0.651743	-0.251928	-0.400287
C22	C	0.611052	-0.300474	-0.351608
C23	C	0.644120	-0.345929	-0.306012
C24	C	0.717874	-0.342837	-0.309099
C25	C	0.390062	-0.314759	-0.337315
C26	C	0.316303	-0.317849	-0.334232
C27	C	0.323931	-0.223846	-0.428507
C28	C	0.397686	-0.220761	-0.431593
C29	C	0.430748	-0.266214	-0.385995
N30	N	0.535662	-0.303633	-0.348449
N31	N	0.506136	-0.263051	-0.389151
C32	C	1.012785	-0.466846	-0.361064
C33	C	1.009532	-0.545342	-0.357789
C34	C	1.055034	-0.578374	-0.403348
C35	C	1.051975	-0.652130	-0.400271
C36	C	1.003415	-0.692852	-0.351632
C37	C	0.957908	-0.659815	-0.306071
C38	C	0.960965	-0.586061	-0.309152
C39	C	0.989227	-0.913846	-0.337373
C40	C	0.986175	-0.987605	-0.334295
C41	C	1.080242	-0.979915	-0.428496
C42	C	1.083297	-0.906160	-0.431569
C43	C	1.037787	-0.873129	-0.386011
N44	N	1.000288	-0.768242	-0.348485
N45	N	1.040911	-0.797740	-0.389162
C46	C	1.204744	-0.275669	-0.376524
C47	C	1.283240	-0.272395	-0.379823
C48	C	1.028289	-0.275596	-0.552984
C49	C	1.031590	-0.272292	-0.631480
C50	C	1.028351	-0.099138	-0.376545
C51	C	1.031678	-0.020638	-0.379854
C52	C	0.986064	-0.317786	-0.664557
C53	C	0.989172	-0.314680	-0.738313
C54	C	1.037803	-0.266077	-0.778991
C55	C	1.083334	-0.220581	-0.745909
C56	C	1.080229	-0.223690	-0.672154
C57	C	1.052140	-0.251736	-0.999981
C58	C	1.055239	-0.248629	-1.073740
C59	C	0.961078	-0.342729	-1.066140
C60	C	0.957974	-0.345832	-0.992384
C61	C	1.003508	-0.300338	-0.959309
N62	N	1.040979	-0.262900	-0.854381
N63	N	1.000335	-0.303519	-0.883919
C64	C	1.012869	-0.291023	-0.185299
C65	C	1.009713	-0.294123	-0.106817
H66	H	0.610984	-0.385453	-0.266373
Br67	Br	1.120945	-0.523115	-0.469356
H68	H	1.117292	-1.006817	-0.465588
Br69	Br	0.762747	-0.404525	-0.247222
Br70	Br	1.149202	-0.850899	-0.497581
Br71	Br	0.927391	-0.376434	-0.783201
Br72	Br	0.920274	-1.042872	-0.268276
H73	H	1.089217	-0.214692	-0.973060
H74	H	1.117301	-0.186644	-0.645224
H75	H	1.122933	-0.181010	-0.779034
H76	H	0.758624	-0.209311	-0.443019
Br77	Br	0.606874	-0.190239	-0.462164
Br78	Br	0.920056	-0.383746	-0.609359
H79	H	0.918385	-0.385420	-0.959269
H80	H	0.430812	-0.181233	-0.471235
H81	H	0.924007	-0.379768	-1.093078
Br82	Br	0.891996	-0.715080	-0.240069
Br83	Br	0.279058	-0.162164	-0.490387
H84	H	0.283174	-0.357384	-0.294591
H85	H	1.089033	-0.679021	-0.437365
H86	H	0.416972	-0.351770	-0.300186
Br87	Br	0.927455	-0.869028	-0.275552
H88	H	1.094838	-0.209044	-1.106858
H89	H	0.923911	-0.559167	-0.272054
