data_functionalizedCrystal
_audit_creation_method	'MofGen! by Chris Wilmer'
_symmetry_space_group_name_H-M	'P1'
_symmetry_Int_Tables_number	1
_symmetry_cell_setting	triclinic
loop_
_symmetry_equiv_pos_as_xyz
  x,y,z
_cell_length_a	13.339070
_cell_length_b	10.654545
_cell_length_c	12.376593
_cell_angle_alpha	77.435253
_cell_angle_beta	80.988514
_cell_angle_gamma	100.056187
loop_
_atom_site_label
_atom_site_type_symbol
_atom_site_fract_x
_atom_site_fract_y
_atom_site_fract_z
O1	O	0.159914	1.743501	-0.093989
O2	O	0.173490	1.382606	-0.093993
O3	O	0.019148	1.521634	-0.093988
O4	O	0.314256	1.604474	-0.093994
O5	O	-0.015867	1.466466	0.094021
O6	O	0.138475	1.327439	0.094016
O7	O	0.124900	1.688333	0.094021
Zn8	Zn	0.126128	1.499127	0.123869
Zn9	Zn	0.172261	1.571813	-0.123842
O10	O	0.279242	1.549306	0.094016
C11	C	0.154987	1.307888	0.000011
C12	C	0.152008	1.167440	0.000009
C13	C	0.131519	1.071389	0.102494
C14	C	0.128703	0.939419	0.102494
C15	C	0.166871	0.999564	-0.102484
C16	C	0.169679	1.131530	-0.102483
C17	C	-0.036146	1.480057	0.000015
C18	C	-0.148739	1.438349	0.000010
C19	C	-0.511262	1.762661	0.000014
C20	C	-0.405477	1.801850	0.000025
C21	C	-0.341287	1.710978	0.000021
C22	C	-0.382893	1.580910	0.000006
C23	C	-0.488690	1.541715	0.000004
C24	C	-0.318716	1.490032	0.000011
C25	C	-0.360322	1.359964	-0.000004
C26	C	-0.466108	1.320775	-0.000007
C27	C	-0.530298	1.411647	-0.000002
C28	C	-0.212919	1.529228	0.000013
C29	C	-0.190347	1.308281	0.000003
C30	C	-0.296132	1.269092	-0.000008
C31	C	0.334536	1.590883	0.000010
C32	C	0.447130	1.632594	0.000008
C33	C	0.143403	1.763052	0.000014
C34	C	0.146383	1.903503	0.000008
N35	N	0.094643	1.449530	0.292925
N36	N	0.203739	1.621417	-0.292898
C37	C	0.276842	1.736563	0.647923
C38	C	0.298889	1.771268	0.529585
C39	C	0.247829	1.690837	0.470414
C40	C	0.174719	1.575694	0.529593
C41	C	0.152675	1.540979	0.647943
C42	C	0.123662	1.495253	0.470434
C43	C	0.050552	1.380110	0.529613
C44	C	0.028512	1.345402	0.647951
C45	C	0.079572	1.425833	0.707122
C46	C	0.145706	1.529967	0.352084
C47	C	0.021539	1.334384	0.352104
C48	C	-0.000508	1.299678	0.470442
H49	H	0.181259	0.970310	-0.185930
H50	H	0.112019	0.861218	0.185947
H51	H	-0.330023	1.163188	-0.000019
C52	C	0.112068	1.110882	0.215238
N53	N	0.097412	1.140622	0.300161
H54	H	0.186362	1.209740	-0.185944
C55	C	-0.167163	1.672301	0.000021
N56	N	-0.132701	1.780074	0.000024
C57	C	-0.119742	1.208315	-0.000005
N58	N	-0.066556	1.133028	-0.000010
C59	C	-0.359718	1.944921	0.000040
N60	N	-0.325252	2.052689	0.000050
H61	H	0.358415	1.865018	0.481410
H62	H	-0.255153	1.742894	0.000030
C63	C	-0.581877	1.862602	0.000027
N64	N	-0.635067	1.937884	0.000037
H65	H	0.205234	1.623716	0.303912
C66	C	0.272075	1.729027	0.340239
N67	N	0.290334	1.757802	0.242185
H68	H	-0.616437	1.379747	-0.000016
H69	H	0.061622	1.397583	0.803483
H70	H	-0.499982	1.214863	-0.000010
C71	C	0.333002	1.825020	0.713019
N72	N	0.375306	1.891653	0.762050
C73	C	-0.051900	1.218730	0.713045
N74	N	-0.112465	1.123319	0.762071
H75	H	-0.060035	1.205926	0.518642
H76	H	-0.020035	1.268886	0.303927
