data_functionalizedCrystal
_audit_creation_method	'MofGen! by Chris Wilmer'
_symmetry_space_group_name_H-M	'P1'
_symmetry_Int_Tables_number	1
_symmetry_cell_setting	triclinic
loop_
_symmetry_equiv_pos_as_xyz
  x,y,z
_cell_length_a	23.532407
_cell_length_b	23.532407
_cell_length_c	12.503572
_cell_angle_alpha	93.496478
_cell_angle_beta	86.509276
_cell_angle_gamma	82.848678
loop_
_atom_site_label
_atom_site_type_symbol
_atom_site_fract_x
_atom_site_fract_y
_atom_site_fract_z
O1	O	0.758558	0.065826	-0.089196
O2	O	1.008558	0.315826	0.160804
O3	O	1.258558	0.565826	0.410804
O4	O	1.508558	0.815826	0.660804
O5	O	0.592696	0.075828	-0.089229
O6	O	0.842696	0.325828	0.160771
O7	O	1.092696	0.575828	0.410771
O8	O	1.342696	0.825828	0.660771
O9	O	0.680627	-0.012104	-0.089192
O10	O	0.930627	0.237896	0.160808
O11	O	1.180627	0.487896	0.410808
O12	O	1.430627	0.737896	0.660808
O13	O	0.670626	0.153758	-0.089233
O14	O	0.920626	0.403758	0.160767
O15	O	1.170626	0.653758	0.410767
O16	O	1.420626	0.903758	0.660767
O17	O	0.674014	-0.005480	0.089447
O18	O	0.924014	0.244520	0.339447
O19	O	1.174014	0.494520	0.589447
O20	O	1.424014	0.744520	0.839447
O21	O	0.586082	0.082452	0.089410
O22	O	0.836082	0.332452	0.339410
O23	O	1.086082	0.582452	0.589410
O24	O	1.336082	0.832452	0.839410
O25	O	0.751945	0.072450	0.089443
O26	O	1.001945	0.322450	0.339443
O27	O	1.251945	0.572450	0.589443
O28	O	1.501945	0.822450	0.839443
Cu29	Cu	0.668410	0.078056	0.105738
Cu30	Cu	0.918410	0.328056	0.355738
Cu31	Cu	1.168410	0.578056	0.605738
Cu32	Cu	1.418410	0.828056	0.855738
Cu33	Cu	0.676230	0.070222	-0.105524
Cu34	Cu	0.926230	0.320222	0.144476
Cu35	Cu	1.176230	0.570222	0.394476
Cu36	Cu	1.426230	0.820222	0.644476
O37	O	0.664013	0.160382	0.089406
O38	O	0.914013	0.410382	0.339406
O39	O	1.164013	0.660382	0.589406
O40	O	1.414013	0.910382	0.839406
C41	C	0.568173	0.078885	0.000086
C42	C	0.818173	0.328885	0.250086
C43	C	1.068173	0.578885	0.500086
C44	C	1.318173	0.828885	0.750086
C45	C	0.504957	0.078119	0.000075
C46	C	0.754957	0.328119	0.250075
C47	C	1.004957	0.578119	0.500075
C48	C	1.254957	0.828119	0.750075
C49	C	0.105852	0.125354	0.000111
C50	C	0.355852	0.375354	0.250111
C51	C	0.605852	0.625354	0.500111
C52	C	0.855852	0.875354	0.750111
C53	C	0.046452	0.124642	0.000118
C54	C	0.296452	0.374642	0.250118
C55	C	0.546452	0.624642	0.500118
C56	C	0.796452	0.874642	0.750118
O57	O	0.009706	0.168429	0.000146
O58	O	0.259706	0.418429	0.250146
O59	O	0.509706	0.668429	0.500146
O60	O	0.759706	0.918429	0.750146
N61	N	0.023825	0.072367	0.000129
N62	N	0.273825	0.322367	0.250129
N63	N	0.523825	0.572367	0.500129
N64	N	0.773825	0.822367	0.750129
C65	C	0.060602	0.020799	0.000145
C66	C	0.310602	0.270799	0.250145
C67	C	0.560602	0.520799	0.500145
C68	C	0.810602	0.770799	0.750145
O69	O	0.035902	-0.023731	0.000156
O70	O	0.285902	0.226269	0.250156
O71	O	0.535902	0.476269	0.500156
O72	O	0.785902	0.726269	0.750156
C73	C	0.120001	0.021511	0.000146
C74	C	0.370001	0.271511	0.250146
C75	C	0.620001	0.521511	0.500146
C76	C	0.870001	0.771511	0.750146
C77	C	0.142625	0.073790	0.000124
C78	C	0.392625	0.323790	0.250124
C79	C	0.642625	0.573790	0.500124
C80	C	0.892625	0.823790	0.750124
C81	C	0.128476	0.177628	0.000090
C82	C	0.378476	0.427628	0.250090
C83	C	0.628476	0.677628	0.500090
C84	C	0.878476	0.927628	0.750090
C85	C	0.187873	0.178339	0.000082
C86	C	0.437873	0.428339	0.250082
C87	C	0.687873	0.678339	0.500082
C88	C	0.937873	0.928339	0.750082
C89	C	0.224645	0.126775	0.000094
C90	C	0.474645	0.376775	0.250094
C91	C	0.724645	0.626775	0.500094
C92	C	0.974645	0.876775	0.750094
C93	C	0.202021	0.074501	0.000115
C94	C	0.452021	0.324501	0.250115
C95	C	0.702021	0.574501	0.500115
C96	C	0.952021	0.824501	0.750115
C97	C	0.156777	-0.030056	0.000169
C98	C	0.406777	0.219944	0.250169
C99	C	0.656777	0.469944	0.500169
C100	C	0.906777	0.719944	0.750169
C101	C	0.216179	-0.029339	0.000171
C102	C	0.466179	0.220661	0.250171
C103	C	0.716179	0.470661	0.500171
C104	C	0.966179	0.720661	0.750171
C105	C	0.238803	0.022940	0.000148
C106	C	0.488803	0.272940	0.250148
C107	C	0.738803	0.522940	0.500148
C108	C	0.988803	0.772940	0.750148
C109	C	0.298190	0.023648	0.000118
C110	C	0.548190	0.273648	0.250118
C111	C	0.798190	0.523648	0.500118
C112	C	1.048190	0.773648	0.750118
N113	N	0.320817	0.075924	0.000107
N114	N	0.570817	0.325924	0.250107
N115	N	0.820817	0.575924	0.500107
N116	N	1.070817	0.825924	0.750107
C117	C	0.284044	0.127488	0.000095
C118	C	0.534044	0.377488	0.250095
C119	C	0.784044	0.627488	0.500095
C120	C	1.034044	0.877488	0.750095
C121	C	-0.064140	0.019307	0.000145
C122	C	0.185860	0.269307	0.250145
C123	C	0.435860	0.519307	0.500145
C124	C	0.685860	0.769307	0.750145
C125	C	-0.123538	0.018595	0.000136
C126	C	0.126462	0.268595	0.250136
C127	C	0.376462	0.518595	0.500136
C128	C	0.626462	0.768595	0.750136
C129	C	-0.137685	0.122438	0.000111
C130	C	0.112315	0.372438	0.250111
C131	C	0.362315	0.622438	0.500111
C132	C	0.612315	0.872438	0.750111
C133	C	-0.078286	0.123151	0.000112
C134	C	0.171714	0.373151	0.250112
C135	C	0.421714	0.623151	0.500112
C136	C	0.671714	0.873151	0.750112
C137	C	-0.041514	0.071583	0.000133
C138	C	0.208486	0.321583	0.250133
C139	C	0.458486	0.571583	0.500133
C140	C	0.708486	0.821583	0.750133
C141	C	0.408782	0.128976	0.000076
C142	C	0.658782	0.378976	0.250076
C143	C	0.908782	0.628976	0.500076
C144	C	1.158782	0.878976	0.750076
C145	C	0.468184	0.129683	0.000062
C146	C	0.718184	0.379683	0.250062
C147	C	0.968184	0.629683	0.500062
C148	C	1.218184	0.879683	0.750062
C149	C	0.482325	0.025839	0.000093
C150	C	0.732325	0.275839	0.250093
C151	C	0.982325	0.525839	0.500093
C152	C	1.232325	0.775839	0.750093
C153	C	0.422928	0.025133	0.000100
C154	C	0.672928	0.275133	0.250100
C155	C	0.922928	0.525133	0.500100
C156	C	1.172928	0.775133	0.750100
C157	C	0.386157	0.076706	0.000095
C158	C	0.636157	0.326706	0.250095
C159	C	0.886157	0.576706	0.500095
C160	C	1.136157	0.826706	0.750095
O161	O	0.334970	-0.020116	0.000095
O162	O	0.584970	0.229884	0.250095
O163	O	0.834970	0.479884	0.500095
O164	O	1.084970	0.729884	0.750095
O165	O	0.308752	0.172011	0.000098
O166	O	0.558752	0.422011	0.250098
O167	O	0.808752	0.672011	0.500098
O168	O	1.058752	0.922011	0.750098
C169	C	0.677066	-0.030008	0.000130
C170	C	0.927066	0.219992	0.250130
C171	C	1.177066	0.469992	0.500130
C172	C	1.427066	0.719992	0.750130
C173	C	0.676300	-0.093225	0.000138
C174	C	0.926300	0.156775	0.250138
C175	C	1.176300	0.406775	0.500138
C176	C	1.426300	0.656775	0.750138
C177	C	0.723535	-0.492329	0.000089
C178	C	0.973535	-0.242329	0.250089
C179	C	1.223535	0.007671	0.500089
C180	C	1.473535	0.257671	0.750089
C181	C	0.722824	-0.551730	0.000080
C182	C	0.972824	-0.301730	0.250080
C183	C	1.222824	-0.051730	0.500080
C184	C	1.472824	0.198270	0.750080
O185	O	0.766611	-0.588476	0.000050
O186	O	1.016611	-0.338476	0.250050
O187	O	1.266611	-0.088476	0.500050
O188	O	1.516611	0.161524	0.750050
N189	N	0.670548	-0.574357	0.000071
N190	N	0.920548	-0.324357	0.250071
N191	N	1.170548	-0.074357	0.500071
N192	N	1.420548	0.175643	0.750071
C193	C	0.618980	-0.537579	0.000059
C194	C	0.868980	-0.287579	0.250059
C195	C	1.118980	-0.037579	0.500059
C196	C	1.368980	0.212421	0.750059
O197	O	0.574450	-0.562279	0.000049
O198	O	0.824450	-0.312279	0.250049
O199	O	1.074450	-0.062279	0.500049
O200	O	1.324450	0.187721	0.750049
C201	C	0.619692	-0.478180	0.000059
C202	C	0.869692	-0.228180	0.250059
C203	C	1.119692	0.021820	0.500059
C204	C	1.369692	0.271820	0.750059
C205	C	0.671971	-0.455557	0.000080
C206	C	0.921971	-0.205557	0.250080
C207	C	1.171971	0.044443	0.500080
C208	C	1.421971	0.294443	0.750080
C209	C	0.775810	-0.469706	0.000108
C210	C	1.025810	-0.219706	0.250108
C211	C	1.275810	0.030294	0.500108
C212	C	1.525810	0.280294	0.750108
C213	C	0.776521	-0.410309	0.000118
C214	C	1.026521	-0.160309	0.250118
C215	C	1.276521	0.089691	0.500118
C216	C	1.526521	0.339691	0.750118
C217	C	0.724957	-0.373536	0.000109
C218	C	0.974957	-0.123536	0.250109
C219	C	1.224957	0.126464	0.500109
C220	C	1.474957	0.376464	0.750109
C221	C	0.672682	-0.396160	0.000090
C222	C	0.922682	-0.146160	0.250090
C223	C	1.172682	0.103840	0.500090
C224	C	1.422682	0.353840	0.750090
C225	C	0.568126	-0.441405	0.000039
C226	C	0.818126	-0.191405	0.250039
C227	C	1.068126	0.058595	0.500039
C228	C	1.318126	0.308595	0.750039
C229	C	0.568842	-0.382002	0.000039
C230	C	0.818842	-0.132002	0.250039
C231	C	1.068842	0.117998	0.500039
C232	C	1.318842	0.367998	0.750039
C233	C	0.621121	-0.359379	0.000060
C234	C	0.871121	-0.109379	0.250060
C235	C	1.121121	0.140621	0.500060
C236	C	1.371121	0.390621	0.750060
C237	C	0.621829	-0.299991	0.000091
C238	C	0.871829	-0.049991	0.250091
C239	C	1.121829	0.200009	0.500091
C240	C	1.371829	0.450009	0.750091
N241	N	0.674105	-0.277365	0.000101
N242	N	0.924105	-0.027365	0.250101
N243	N	1.174105	0.222635	0.500101
N244	N	1.424105	0.472635	0.750101
C245	C	0.725669	-0.314137	0.000110
C246	C	0.975669	-0.064137	0.250110
C247	C	1.225669	0.185863	0.500110
C248	C	1.475669	0.435863	0.750110
C249	C	0.617489	-0.662322	0.000055
C250	C	0.867489	-0.412322	0.250055
C251	C	1.117489	-0.162322	0.500055
C252	C	1.367489	0.087678	0.750055
C253	C	0.616776	-0.721720	0.000062
C254	C	0.866776	-0.471720	0.250062
C255	C	1.116776	-0.221720	0.500062
C256	C	1.366776	0.028280	0.750062
C257	C	0.720620	-0.735866	0.000082
C258	C	0.970620	-0.485866	0.250082
C259	C	1.220620	-0.235866	0.500082
C260	C	1.470620	0.014134	0.750082
C261	C	0.721332	-0.676467	0.000083
C262	C	0.971332	-0.426467	0.250083
C263	C	1.221332	-0.176467	0.500083
C264	C	1.471332	0.073533	0.750083
C265	C	0.669765	-0.639696	0.000065
C266	C	0.919765	-0.389696	0.250065
C267	C	1.169765	-0.139696	0.500065
C268	C	1.419765	0.110304	0.750065
C269	C	0.727158	-0.189400	0.000133
C270	C	0.977158	0.060600	0.250133
C271	C	1.227158	0.310600	0.500133
C272	C	1.477158	0.560600	0.750133
C273	C	0.727864	-0.129997	0.000147
C274	C	0.977864	0.120003	0.250147
C275	C	1.227864	0.370003	0.500147
C276	C	1.477864	0.620003	0.750147
C277	C	0.624020	-0.115856	0.000122
C278	C	0.874020	0.134144	0.250122
C279	C	1.124020	0.384144	0.500122
C280	C	1.374020	0.634144	0.750122
C281	C	0.623314	-0.175253	0.000113
C282	C	0.873314	0.074747	0.250113
C283	C	1.123314	0.324747	0.500113
C284	C	1.373314	0.574747	0.750113
C285	C	0.674887	-0.212024	0.000114
C286	C	0.924887	0.037976	0.250114
C287	C	1.174887	0.287976	0.500114
C288	C	1.424887	0.537976	0.750114
O289	O	0.578065	-0.263211	0.000118
O290	O	0.828065	-0.013211	0.250118
O291	O	1.078065	0.236789	0.500118
O292	O	1.328065	0.486789	0.750118
O293	O	0.770192	-0.289430	0.000106
O294	O	1.020192	-0.039430	0.250106
O295	O	1.270192	0.210570	0.500106
O296	O	1.520192	0.460570	0.750106
C297	C	0.776467	0.069393	0.000125
C298	C	1.026467	0.319393	0.250125
C299	C	1.276467	0.569393	0.500125
C300	C	1.526467	0.819393	0.750125
C301	C	0.839684	0.070159	0.000130
C302	C	1.089684	0.320159	0.250130
C303	C	1.339684	0.570159	0.500130
C304	C	1.589684	0.820159	0.750130
C305	C	0.667574	0.178286	0.000081
C306	C	0.917574	0.428286	0.250081
C307	C	1.167574	0.678286	0.500081
C308	C	1.417574	0.928286	0.750081
C309	C	0.668341	0.241502	0.000066
C310	C	0.918341	0.491502	0.250066
C311	C	1.168341	0.741502	0.500066
C312	C	1.418341	0.991502	0.750066
N313	N	0.662913	0.083565	0.254327
N314	N	0.912913	0.333565	0.504327
N315	N	1.162913	0.583565	0.754327
N316	N	1.412913	0.833565	1.004327
N317	N	0.681732	0.064708	-0.254114
N318	N	0.931732	0.314708	-0.004114
N319	N	1.181732	0.564708	0.245886
N320	N	1.431732	0.814708	0.495886
C321	C	0.654828	0.091674	0.473439
C322	C	0.904828	0.341674	0.723439
C323	C	1.154828	0.591674	0.973439
C324	C	1.404828	0.841674	1.223439
C325	C	0.689815	0.056601	0.526781
C326	C	0.939815	0.306601	0.776781
C327	C	1.189815	0.556601	1.026781
C328	C	1.439815	0.806601	1.276781
C329	C	0.685316	0.061113	0.648702
C330	C	0.935316	0.311113	0.898702
C331	C	1.185316	0.561113	1.148702
C332	C	1.435316	0.811113	1.398702
C333	C	0.659326	0.087163	0.351507
C334	C	0.909326	0.337163	0.601507
C335	C	1.159326	0.587163	0.851507
C336	C	1.409326	0.837163	1.101507
H337	H	0.486600	0.172256	0.000044
H338	H	0.736600	0.422256	0.250044
H339	H	0.986600	0.672256	0.500044
H340	H	1.236600	0.922256	0.750044
H341	H	0.621497	0.125088	0.519333
H342	H	0.871497	0.375088	0.769333
H343	H	1.121497	0.625088	1.019333
H344	H	1.371497	0.875088	1.269333
C345	C	0.131903	-0.087563	0.000208
C346	C	0.381903	0.162437	0.250208
C347	C	0.631903	0.412437	0.500208
C348	C	0.881903	0.662437	0.750208
H349	H	0.162318	-0.118164	0.000231
H350	H	0.412318	0.131836	0.250231
H351	H	0.662318	0.381836	0.500231
H352	H	0.912318	0.631836	0.750231
H353	H	0.111326	-0.092321	-0.062080
H354	H	0.361326	0.157679	0.187920
H355	H	0.611326	0.407679	0.437920
H356	H	0.861326	0.657679	0.687920
H357	H	0.106727	-0.087686	0.062519
H358	H	0.356727	0.162314	0.312519
H359	H	0.606727	0.412314	0.562519
H360	H	0.856727	0.662314	0.812519
H361	H	0.512276	-0.016143	0.000099
H362	H	0.762276	0.233857	0.250099
H363	H	1.012276	0.483857	0.500099
H364	H	1.262276	0.733857	0.750099
H365	H	0.378849	0.170973	0.000075
H366	H	0.628849	0.420973	0.250075
H367	H	0.878849	0.670973	0.500075
H368	H	1.128849	0.920973	0.750075
H369	H	0.769154	-0.219333	0.000130
H370	H	1.019154	0.030667	0.250130
H371	H	1.269154	0.280667	0.500130
H372	H	1.519154	0.530667	0.750130
C373	C	0.777341	-0.776324	0.000072
C374	C	1.027341	-0.526324	0.250072
C375	C	1.277341	-0.276324	0.500072
C376	C	1.527341	-0.026324	0.750072
H377	H	0.769426	-0.814940	0.000054
H378	H	1.019426	-0.564940	0.250054
H379	H	1.269426	-0.314940	0.500054
H380	H	1.519426	-0.064940	0.750054
H381	H	0.796493	-0.767200	0.062367
H382	H	1.046493	-0.517200	0.312367
H383	H	1.296493	-0.267200	0.562367
H384	H	1.546493	-0.017200	0.812367
H385	H	0.801092	-0.771801	-0.062232
H386	H	1.051092	-0.521801	0.187768
H387	H	1.301092	-0.271801	0.437768
H388	H	1.551092	-0.021801	0.687768
H389	H	0.206287	0.220910	0.000063
H390	H	0.456287	0.470910	0.250063
H391	H	0.706287	0.720910	0.500063
H392	H	0.956287	0.970910	0.750063
C393	C	0.510618	-0.466278	0.000007
C394	C	0.760618	-0.216278	0.250007
C395	C	1.010618	0.033722	0.500007
C396	C	1.260618	0.283722	0.750007
H397	H	0.480016	-0.435863	-0.000012
H398	H	0.730016	-0.185863	0.249988
H399	H	0.980016	0.064137	0.499988
H400	H	1.230016	0.314137	0.749988
H401	H	0.505865	-0.486852	0.062297
H402	H	0.755865	-0.236852	0.312297
H403	H	1.005865	0.013148	0.562297
H404	H	1.255865	0.263148	0.812297
H405	H	0.510490	-0.491457	-0.062302
H406	H	0.760490	-0.241457	0.187698
H407	H	1.010490	0.008543	0.437698
H408	H	1.260490	0.258543	0.687698
C409	C	0.734862	0.011476	0.464784
C410	C	0.984862	0.261476	0.714784
C411	C	1.234862	0.511476	0.964784
C412	C	1.484862	0.761476	1.214784
H413	H	0.732027	0.014333	0.389784
H414	H	0.982027	0.264333	0.639784
H415	H	1.232027	0.514333	0.889784
H416	H	1.482027	0.764333	1.139784
H417	H	0.728181	-0.025823	0.483141
H418	H	0.978181	0.224177	0.733141
H419	H	1.228181	0.474177	0.983141
H420	H	1.478181	0.724177	1.233141
H421	H	0.772180	0.018094	0.483165
H422	H	1.022180	0.268094	0.733165
H423	H	1.272180	0.518094	0.983165
H424	H	1.522180	0.768094	1.233165
H425	H	0.574205	-0.740133	0.000064
H426	H	0.824205	-0.490133	0.250064
H427	H	1.074205	-0.240133	0.500064
H428	H	1.324205	0.009867	0.750064
H429	H	0.098541	0.219620	0.000084
H430	H	0.348541	0.469620	0.250084
H431	H	0.598541	0.719620	0.500084
H432	H	0.848541	0.969620	0.750084
C433	C	0.560761	-0.621877	0.000056
C434	C	0.810761	-0.371877	0.250056
C435	C	1.060761	-0.121877	0.500056
C436	C	1.310761	0.128123	0.750056
H437	H	0.529528	-0.643864	0.000060
H438	H	0.779528	-0.393864	0.250060
H439	H	1.029528	-0.143864	0.500060
H440	H	1.279528	0.106136	0.750060
H441	H	0.561179	-0.600714	-0.062236
H442	H	0.811179	-0.350714	0.187764
H443	H	1.061179	-0.100714	0.437764
H444	H	1.311179	0.149286	0.687764
H445	H	0.556573	-0.596108	0.062362
H446	H	0.806573	-0.346108	0.312362
H447	H	1.056573	-0.096108	0.562362
H448	H	1.306573	0.153892	0.812362
C449	C	0.512116	-0.341556	0.000024
C450	C	0.762116	-0.091556	0.250024
C451	C	1.012116	0.158444	0.500024
C452	C	1.262116	0.408444	0.750024
H453	H	0.480883	-0.363541	0.000019
H454	H	0.730883	-0.113541	0.250019
H455	H	0.980883	0.136459	0.500019
H456	H	1.230883	0.386459	0.750019
H457	H	0.512541	-0.320393	-0.062268
H458	H	0.762541	-0.070393	0.187732
H459	H	1.012541	0.179607	0.437732
H460	H	1.262541	0.429607	0.687732
H461	H	0.507926	-0.315788	0.062331
H462	H	0.757926	-0.065788	0.312331
H463	H	1.007926	0.184212	0.562331
H464	H	1.257926	0.434212	0.812331
H465	H	0.817802	-0.499641	0.000112
H466	H	1.067802	-0.249641	0.250112
H467	H	1.317802	0.000359	0.500112
H468	H	1.567802	0.250359	0.750112
C469	C	0.567305	-0.075399	0.000106
C470	C	0.817305	0.174601	0.250106
C471	C	1.067305	0.424601	0.500106
C472	C	1.317305	0.674601	0.750106
H473	H	0.575221	-0.036785	0.000101
H474	H	0.825221	0.213215	0.250101
H475	H	1.075221	0.463215	0.500101
H476	H	1.325221	0.713215	0.750101
H477	H	0.543542	-0.079918	0.062390
H478	H	0.793542	0.170082	0.312390
H479	H	1.043542	0.420082	0.562390
H480	H	1.293542	0.670082	0.812390
H481	H	0.548166	-0.084531	-0.062209
H482	H	0.798166	0.165469	0.187791
H483	H	1.048166	0.415469	0.437791
H484	H	1.298166	0.665469	0.687791
C485	C	-0.053405	0.180657	0.000098
C486	C	0.196595	0.430657	0.250098
C487	C	0.446595	0.680657	0.500098
C488	C	0.696595	0.930657	0.750098
H489	H	-0.083818	0.211262	0.000095
H490	H	0.166182	0.461262	0.250095
H491	H	0.416182	0.711262	0.500095
H492	H	0.666182	0.961262	0.750095
H493	H	-0.028223	0.180786	-0.062195
H494	H	0.221777	0.430786	0.187805
H495	H	0.471777	0.680786	0.437805
H496	H	0.721777	0.930786	0.687805
H497	H	-0.032835	0.185405	0.062403
H498	H	0.217165	0.435405	0.312403
H499	H	0.467165	0.685405	0.562403
H500	H	0.717165	0.935405	0.812403
H501	H	-0.167636	0.164425	0.000107
H502	H	0.082364	0.414425	0.250107
H503	H	0.332364	0.664425	0.500107
H504	H	0.582364	0.914425	0.750107
C505	C	0.256625	-0.086065	0.000182
C506	C	0.506625	0.163935	0.250182
C507	C	0.756625	0.413935	0.500182
C508	C	1.006625	0.663935	0.750182
H509	H	0.234640	-0.117299	0.000185
H510	H	0.484640	0.132701	0.250185
H511	H	0.734640	0.382701	0.500185
H512	H	0.984640	0.632701	0.750185
H513	H	0.277793	-0.085640	0.062472
H514	H	0.527793	0.164360	0.312472
H515	H	0.777793	0.414360	0.562472
H516	H	1.027793	0.664360	0.812472
H517	H	0.282389	-0.090256	-0.062127
H518	H	0.532389	0.159744	0.187873
H519	H	0.782389	0.409744	0.437873
H520	H	1.032389	0.659744	0.687873
C521	C	-0.148417	-0.038912	0.000150
C522	C	0.101583	0.211088	0.250150
C523	C	0.351583	0.461088	0.500150
C524	C	0.601583	0.711088	0.750150
H525	H	-0.118005	-0.069517	0.000163
H526	H	0.131995	0.180483	0.250163
H527	H	0.381995	0.430483	0.500163
H528	H	0.631995	0.680483	0.750163
H529	H	-0.168995	-0.043662	-0.062140
H530	H	0.081005	0.206338	0.187860
H531	H	0.331005	0.456338	0.437860
H532	H	0.581005	0.706338	0.687860
H533	H	-0.173594	-0.039040	0.062459
H534	H	0.076406	0.210960	0.312459
H535	H	0.326406	0.460960	0.562459
H536	H	0.576406	0.710960	0.812459
H537	H	-0.034203	-0.022688	0.000152
H538	H	0.215797	0.227312	0.250152
H539	H	0.465797	0.477312	0.500152
H540	H	0.715797	0.727312	0.750152
C541	C	0.398041	-0.032373	0.000113
C542	C	0.648041	0.217627	0.250113
C543	C	0.898041	0.467627	0.500113
C544	C	1.148041	0.717627	0.750113
H545	H	0.428451	-0.062980	0.000122
H546	H	0.678451	0.187020	0.250122
H547	H	0.928451	0.437020	0.500122
H548	H	1.178451	0.687020	0.750122
H549	H	0.377461	-0.037119	-0.062174
H550	H	0.627461	0.212881	0.187826
H551	H	0.877461	0.462881	0.437826
H552	H	1.127461	0.712881	0.687826
H553	H	0.372866	-0.032498	0.062424
H554	H	0.622866	0.217502	0.312424
H555	H	0.872866	0.467502	0.562424
H556	H	1.122866	0.717502	0.812424
H557	H	0.770437	-0.111581	0.000167
H558	H	1.020437	0.138419	0.250167
H559	H	1.270437	0.388419	0.500167
H560	H	1.520437	0.638419	0.750167
H561	H	0.763902	-0.658052	0.000099
H562	H	1.013902	-0.408052	0.250099
H563	H	1.263902	-0.158052	0.500099
H564	H	1.513902	0.091948	0.750099
H565	H	0.819092	-0.391895	0.000131
H566	H	1.069092	-0.141895	0.250131
H567	H	1.319092	0.108105	0.500131
H568	H	1.569092	0.358105	0.750131
H569	H	0.580743	-0.193673	0.000126
H570	H	0.830743	0.056327	0.250126
H571	H	1.080743	0.306327	0.500126
H572	H	1.330743	0.556327	0.750126
