data_functionalizedCrystal
_audit_creation_method	'MofGen! by Chris Wilmer'
_symmetry_space_group_name_H-M	'P1'
_symmetry_Int_Tables_number	1
_symmetry_cell_setting	triclinic
loop_
_symmetry_equiv_pos_as_xyz
  x,y,z
_cell_length_a	6.394984
_cell_length_b	17.699083
_cell_length_c	16.776229
_cell_angle_alpha	90.001114
_cell_angle_beta	89.994970
_cell_angle_gamma	95.110816
loop_
_atom_site_label
_atom_site_type_symbol
_atom_site_fract_x
_atom_site_fract_y
_atom_site_fract_z
O1	O	0.264132	-1.006772	-0.066174
O2	O	0.298496	-0.786744	-0.066199
O3	O	-0.022767	-0.899883	-0.066184
O4	O	0.585395	-0.893633	-0.066189
O5	O	-0.022787	-0.899868	0.066393
O6	O	0.298476	-0.786728	0.066377
O7	O	0.264112	-1.006756	0.066403
Zn8	Zn	0.281291	-0.896740	0.087439
Zn9	Zn	0.281317	-0.896760	-0.087236
O10	O	0.585375	-0.893617	0.066387
C11	C	0.297255	-0.758527	0.000086
C12	C	0.293561	-0.674471	0.000076
C13	C	0.899411	-0.898632	0.000107
C14	C	0.663193	-0.894866	0.000105
C15	C	0.265353	-1.034974	0.000116
C16	C	0.269047	-1.119029	0.000121
N17	N	0.281272	-0.896731	0.206651
N18	N	0.281320	-0.896775	-0.206447
C19	C	0.482136	-0.627773	0.000074
C20	C	0.478652	-0.548794	0.000085
C21	C	0.286592	-0.516515	0.000091
C22	C	0.098003	-0.563219	0.000094
C23	C	0.101488	-0.642196	0.000090
C24	C	0.083942	-0.244712	0.000114
C25	C	0.080471	-0.165729	0.000117
C26	C	0.461106	-0.151310	0.000109
C27	C	0.464591	-0.230288	0.000104
C28	C	0.276003	-0.276985	0.000112
C29	C	0.279783	-0.362622	0.000103
C30	C	0.282810	-0.430879	0.000095
C31	C	0.139075	-0.946846	0.248375
C32	C	0.139073	-0.946850	0.331827
C33	C	0.281280	-0.896743	0.373553
C34	C	0.423484	-0.846623	0.331824
C35	C	0.423474	-0.846616	0.248373
C36	C	0.423525	-0.846651	0.668371
C37	C	0.423528	-0.846664	0.751827
C38	C	0.139124	-0.946885	0.751825
C39	C	0.139114	-0.946878	0.668374
C40	C	0.281310	-0.896756	0.626651
C41	C	0.281307	-0.896751	0.536163
C42	C	0.281294	-0.896751	0.464040
H43	H	0.638533	-0.654048	0.000069
N44	N	0.664520	-0.100944	0.000103
H45	H	0.633181	-0.046014	0.000109
H46	H	0.748241	-0.111604	0.049246
N47	N	-0.014276	-1.000913	0.623364
H48	H	0.065414	-1.035178	0.588730
H49	H	-0.104335	-1.032610	0.662507
N50	N	0.576901	-0.792608	0.796831
H51	H	0.497181	-0.758352	0.831464
H52	H	0.669261	-0.822461	0.831399
H53	H	0.620986	-0.256565	0.000096
N54	N	0.576922	-0.792604	0.623379
H55	H	0.555347	-0.800198	0.564181
H56	H	0.552993	-0.738688	0.637976
H57	H	-0.052069	-0.680217	0.000091
H58	H	0.539265	-0.805821	0.365802
N59	N	-0.126683	-0.130907	0.000137
H60	H	-0.136618	-0.098460	-0.049007
H61	H	-0.245510	-0.172514	0.000176
H62	H	-0.069619	-0.282724	0.000122
N63	N	0.576832	-0.792560	0.203366
H64	H	0.666923	-0.760819	0.242461
H65	H	0.669070	-0.822405	0.168731
H66	H	0.023334	-0.987695	0.785804
N67	N	-0.109153	-0.528408	0.000114
H68	H	-0.082750	-0.471290	0.000116
H69	H	-0.191661	-0.545360	-0.049030
H70	H	0.632209	-0.510775	0.000082
H71	H	0.023283	-0.987652	0.214406
N72	N	-0.014224	-1.000928	0.376830
H73	H	-0.104278	-1.032682	0.337734
H74	H	0.065716	-1.035134	0.411431
