data_functionalizedCrystal
_audit_creation_method	'MofGen! by Chris Wilmer'
_symmetry_space_group_name_H-M	'P1'
_symmetry_Int_Tables_number	1
_symmetry_cell_setting	triclinic
loop_
_symmetry_equiv_pos_as_xyz
  x,y,z
_cell_length_a	19.805407
_cell_length_b	11.169416
_cell_length_c	11.169409
_cell_angle_alpha	89.971970
_cell_angle_beta	90.024953
_cell_angle_gamma	89.984971
loop_
_atom_site_label
_atom_site_type_symbol
_atom_site_fract_x
_atom_site_fract_y
_atom_site_fract_z
Zn1	Zn	1.034829	0.477648	0.678743
Zn2	Zn	1.034761	0.678388	0.478075
Zn3	Zn	0.921634	0.477725	0.478059
Zn4	Zn	0.921633	0.678294	0.678702
O5	O	0.978214	0.578014	0.578395
O6	O	1.129536	0.504284	0.652148
O7	O	1.019727	0.651841	0.310123
O8	O	0.936679	0.309765	0.504691
O9	O	1.129486	0.651767	0.504718
O10	O	1.019842	0.309708	0.652132
O11	O	0.936613	0.504415	0.310112
O12	O	0.826918	0.504323	0.504651
O13	O	0.936677	0.651607	0.846657
O14	O	0.826917	0.651681	0.652062
O15	O	1.019841	0.504192	0.846687
O16	O	1.019725	0.846325	0.504678
O17	O	0.936611	0.846256	0.652078
C18	C	0.802358	0.578001	0.578351
C19	C	0.727126	0.578025	0.578361
C20	C	0.265365	0.501363	0.655326
C21	C	0.336053	0.501365	0.655317
C22	C	0.371365	0.578032	0.578434
C23	C	0.335984	0.654710	0.501562
C24	C	0.265297	0.654713	0.501578
C25	C	0.621057	0.654701	0.501499
C26	C	0.691749	0.654690	0.501487
C27	C	0.691814	0.501353	0.655238
C28	C	0.621126	0.501356	0.655253
C29	C	0.585752	0.578038	0.578387
C30	C	0.509104	0.578036	0.578399
C31	C	0.448012	0.578028	0.578415
C32	C	0.978179	0.889838	0.578401
C33	C	0.978226	1.023238	0.578444
C34	C	1.154757	0.578027	0.578439
C35	C	1.229989	0.578033	0.578458
C36	C	0.978266	0.577880	0.891437
C37	C	0.978288	0.577824	1.024837
C38	C	0.978261	1.264971	0.578427
C39	C	0.978264	1.131571	0.578473
C40	C	0.978201	0.578060	0.266570
C41	C	0.978310	0.577779	0.133171
H42	H	0.236619	0.438924	0.717926
H43	H	0.720624	0.438918	0.717829
H44	H	0.592379	0.438921	0.717855
H45	H	0.592264	0.717137	0.438906
H46	H	0.364853	0.438937	0.717914
H47	H	0.720498	0.717126	0.438877
H48	H	0.364740	0.717139	0.438967
H49	H	0.236495	0.717148	0.438987
