data_functionalizedCrystal
_audit_creation_method	'MofGen! by Chris Wilmer'
_symmetry_space_group_name_H-M	'P1'
_symmetry_Int_Tables_number	1
_symmetry_cell_setting	triclinic
loop_
_symmetry_equiv_pos_as_xyz
  x,y,z
_cell_length_a	12.759395
_cell_length_b	19.121063
_cell_length_c	12.759387
_cell_angle_alpha	87.596398
_cell_angle_beta	90.020509
_cell_angle_gamma	92.470426
loop_
_atom_site_label
_atom_site_type_symbol
_atom_site_fract_x
_atom_site_fract_y
_atom_site_fract_z
Zn1	Zn	1.588336	-0.279547	0.611793
Zn2	Zn	1.580692	-0.397015	0.443587
Zn3	Zn	1.412632	-0.279586	0.436132
Zn4	Zn	1.405095	-0.396965	0.619223
O5	O	1.496689	-0.338278	0.527684
O6	O	1.734343	-0.295134	0.589490
O7	O	1.558353	-0.381475	0.295580
O8	O	1.442293	-0.181296	0.453204
O9	O	1.728726	-0.381437	0.465911
O10	O	1.571382	-0.181268	0.582261
O11	O	1.434881	-0.295200	0.290102
O12	O	1.264611	-0.295151	0.460409
O13	O	1.429447	-0.381352	0.765256
O14	O	1.259074	-0.381389	0.594925
O15	O	1.564074	-0.295086	0.759797
O16	O	1.551045	-0.495293	0.473116
O17	O	1.422034	-0.495256	0.602155
C18	C	1.223722	-0.338270	0.527665
C19	C	1.106944	-0.338283	0.527683
C20	C	1.484921	-0.520758	0.539274
C21	C	1.479982	-0.598824	0.544267
C22	C	1.101207	-0.428228	0.667547
C23	C	1.043477	-0.473206	0.737482
C24	C	0.933755	-0.473214	0.737496
C25	C	0.881761	-0.428239	0.667569
C26	C	0.939490	-0.383261	0.597633
C27	C	1.049215	-0.383258	0.597625
C28	C	0.945228	-0.293313	0.457776
C29	C	1.054950	-0.293307	0.457756
C30	C	0.893233	-0.248337	0.387849
C31	C	0.950963	-0.203362	0.317907
C32	C	1.060691	-0.203356	0.317895
C33	C	1.112679	-0.248329	0.387821
C34	C	1.544883	-0.635495	0.479485
C35	C	1.540245	-0.708846	0.484187
C36	C	1.470700	-0.745525	0.553667
C37	C	1.405796	-0.708848	0.618456
C38	C	1.410440	-0.635499	0.613759
C39	C	1.453319	-0.966994	0.571215
C40	C	1.448677	-1.040349	0.575905
C41	C	1.583128	-1.040341	0.441637
C42	C	1.587762	-0.966990	0.436941
C43	C	1.522862	-0.930320	0.501734
C44	C	1.465955	-0.820501	0.558473
C45	C	1.527613	-0.855345	0.496933
C46	C	1.770721	-0.338287	0.527703
C47	C	1.887498	-0.338291	0.527711
C48	C	1.496772	-0.338209	0.801713
C49	C	1.496808	-0.338180	0.918488
C50	C	1.508531	-0.155086	0.516072
C51	C	1.513578	-0.077020	0.511123
C52	C	1.496669	-0.338296	0.254717
C53	C	1.496849	-0.338128	0.137931
C54	C	1.637004	-0.248357	0.912823
C55	C	1.707117	-0.203435	0.964851
C56	C	1.707144	-0.203409	1.074571
C57	C	1.637048	-0.248309	1.132266
C58	C	1.566935	-0.293231	1.080238
C59	C	1.566918	-0.293253	0.970516
C60	C	1.426736	-0.383050	1.085903
C61	C	1.426712	-0.383080	0.976183
C62	C	1.356641	-0.427949	1.143598
C63	C	1.286531	-0.472876	1.091570
C64	C	1.286507	-0.472900	0.981843
C65	C	1.356599	-0.428002	0.924155
H66	H	1.190548	-0.428231	0.667536
N67	N	1.099559	-0.521719	0.812892
H68	H	1.046337	-0.550212	0.857196
H69	H	1.146947	-0.493171	0.859770
H70	H	1.202020	-0.248330	0.387815
N71	N	1.602617	-0.815783	0.421998
H72	H	1.585525	-0.828594	0.347736
H73	H	1.676843	-0.828509	0.439279
N74	N	1.636960	-0.248397	0.794484
H75	H	1.708184	-0.261325	0.768875
H76	H	1.620718	-0.200213	0.765076
H77	H	1.601510	-0.605636	0.422902
H78	H	1.357593	-0.605642	0.666512
H79	H	1.764186	-0.166877	0.917864
N80	N	1.210870	-0.521343	0.925729
H81	H	1.166470	-0.549777	0.978931
H82	H	1.251507	-0.553866	0.882268
H83	H	1.764230	-0.166825	1.116932
N84	N	0.871482	-0.521722	0.812927
H85	H	0.921065	-0.550212	0.857225
H86	H	0.823847	-0.554189	0.772139
N87	N	1.356656	-0.427932	1.261938
H88	H	1.285424	-0.415009	1.287532
H89	H	1.411753	-0.392672	1.286073
N90	N	1.637049	-0.248265	1.250605
H91	H	1.692092	-0.212988	1.274809
H92	H	1.653207	-0.296460	1.280030
H93	H	0.792419	-0.428244	0.667594
H94	H	0.803891	-0.248344	0.387869
H95	H	1.229460	-0.509426	1.138554
H96	H	1.400473	-0.937143	0.623970
N97	N	0.894881	-0.154867	0.242482
H98	H	0.851468	-0.122356	0.283195
H99	H	0.847557	-0.183433	0.195568
N100	N	1.122955	-0.154835	0.242475
H101	H	1.073364	-0.126346	0.198186
H102	H	1.166619	-0.183375	0.195581
N103	N	1.610241	-0.748401	0.414313
H104	H	1.686111	-0.735581	0.429869
H105	H	1.594672	-0.735671	0.338447
N106	N	1.662786	-0.927431	0.362018
H107	H	1.703205	-0.961793	0.321697
H108	H	1.713307	-0.896953	0.402892
N109	N	1.653119	-1.079892	0.371752
H110	H	1.639626	-1.131924	0.385266
H111	H	1.728961	-1.067020	0.387342
N112	N	1.373664	-1.079912	0.650847
H113	H	1.333256	-1.045552	0.691183
H114	H	1.414486	-1.110297	0.701443
N115	N	1.330789	-0.748405	0.693400
H116	H	1.337690	-0.800436	0.686545
H117	H	1.256573	-0.735632	0.676163
H118	H	1.356591	-0.428020	0.834815
H119	H	1.409329	-0.850373	0.615042
