data_functionalizedCrystal
_audit_creation_method	'MofGen! by Chris Wilmer'
_symmetry_space_group_name_H-M	'P1'
_symmetry_Int_Tables_number	1
_symmetry_cell_setting	triclinic
loop_
_symmetry_equiv_pos_as_xyz
  x,y,z
_cell_length_a	10.723024
_cell_length_b	27.732048
_cell_length_c	26.210047
_cell_angle_alpha	89.999914
_cell_angle_beta	89.991203
_cell_angle_gamma	83.555262
loop_
_atom_site_label
_atom_site_type_symbol
_atom_site_fract_x
_atom_site_fract_y
_atom_site_fract_z
O1	O	1.654393	0.067783	-0.042432
O2	O	1.290973	0.074272	-0.042434
O3	O	1.483970	0.000701	-0.042423
O4	O	1.461396	0.141354	-0.042443
O5	O	1.483933	0.000713	0.042435
O6	O	1.290935	0.074284	0.042424
O7	O	1.654356	0.067795	0.042426
Cu8	Cu	1.472642	0.071040	0.050173
Cu9	Cu	1.472686	0.071026	-0.050181
O10	O	1.461359	0.141366	0.042415
C11	C	1.244474	0.073806	-0.000005
C12	C	1.105978	0.072393	-0.000006
C13	C	1.483478	-0.017303	0.000007
C14	C	1.482051	-0.070967	0.000011
C15	C	0.916037	0.028507	-0.000001
C16	C	1.059180	0.029967	-0.000000
C17	C	1.587117	-0.409130	-0.000014
C18	C	1.581823	-0.610822	-0.000021
O19	O	1.677898	-0.641481	-0.000043
N20	N	1.467383	-0.630656	-0.000022
C21	C	1.354259	-0.600064	-0.000023
O22	O	1.256800	-0.621562	-0.000029
C23	C	1.359554	-0.398373	-0.000020
C24	C	1.474001	-0.378541	-0.000014
C25	C	1.701554	-0.389298	-0.000009
C26	C	1.702877	-0.338877	-0.000005
C27	C	1.589761	-0.308289	-0.000005
C28	C	1.475324	-0.328121	-0.000010
C29	C	1.246432	-0.367781	-0.000025
C30	C	1.247766	-0.317356	-0.000026
C31	C	1.362213	-0.297524	-0.000020
C32	C	1.363531	-0.247113	-0.000006
N33	N	1.477970	-0.227278	-0.000005
C34	C	1.591085	-0.257867	-0.000005
C35	C	1.351487	-0.705956	-0.000024
C36	C	1.350163	-0.756378	-0.000024
C37	C	1.577727	-0.767133	-0.000023
C38	C	1.579050	-0.716709	-0.000019
C39	C	1.465926	-0.686121	-0.000024
C40	C	1.593854	-0.151980	0.000005
C41	C	1.595166	-0.101555	0.000012
C42	C	1.367603	-0.090805	0.000008
C43	C	1.366290	-0.141226	0.000004
C44	C	1.479425	-0.171813	0.000001
O45	O	1.267507	-0.216425	0.000010
O46	O	1.688531	-0.236359	-0.000011
C47	C	1.585794	-0.459550	-0.000019
C48	C	1.471357	-0.479382	-0.000024
C49	C	1.358241	-0.448793	-0.000024
C50	C	1.470033	-0.529804	-0.000024
C51	C	1.583148	-0.560392	-0.000023
C52	C	1.697587	-0.540558	-0.000023
C53	C	1.698910	-0.490138	-0.000018
C54	C	1.243802	-0.468628	-0.000024
C55	C	1.242489	-0.519048	-0.000028
C56	C	1.355604	-0.549637	-0.000028
C57	C	1.700855	0.068261	-0.000004
C58	C	1.839351	0.069674	-0.000007
C59	C	1.461851	0.159370	-0.000016
C60	C	1.463278	0.213034	-0.000024
N61	N	1.472620	0.071050	0.120757
C62	C	1.558136	0.038460	0.473276
C63	C	1.558164	0.038455	0.686935
O64	O	1.630825	0.010745	0.714561
N65	N	1.472692	0.071021	0.713651
C66	C	1.387203	0.103588	0.686950
O67	O	1.314496	0.131284	0.714576
C68	C	1.387170	0.103591	0.473292
C69	C	1.472656	0.071026	0.446578
C70	C	1.643614	0.005897	0.446562
C71	C	1.643611	0.005901	0.393151
C72	C	1.558130	0.038467	0.366453
C73	C	1.472653	0.071029	0.393167
C74	C	1.301676	0.136156	0.446591
C75	C	1.301673	0.136152	0.393174
C76	C	1.387159	0.103588	0.366460
C77	C	1.387169	0.103599	0.313058
N78	N	1.472640	0.071033	0.286341
C79	C	1.558121	0.038467	0.313039
C80	C	1.387227	0.103585	0.799123
C81	C	1.387237	0.103585	0.852537
C82	C	1.558196	0.038451	0.852518
C83	C	1.558192	0.038454	0.799103
C84	C	1.472699	0.071019	0.772406
C85	C	1.558108	0.038477	0.200871
C86	C	1.558101	0.038484	0.147455
C87	C	1.387137	0.103617	0.147478
C88	C	1.387148	0.103611	0.200890
C89	C	1.472639	0.071037	0.227585
O90	O	1.314537	0.131290	0.285399
O91	O	1.630798	0.010768	0.285403
C92	C	1.558139	0.038456	0.526687
C93	C	1.472662	0.071019	0.553401
C94	C	1.387181	0.103585	0.526703
C95	C	1.472671	0.071019	0.606815
C96	C	1.558152	0.038453	0.633513
C97	C	1.643623	0.005887	0.606797
C98	C	1.643620	0.005890	0.553385
C99	C	1.301710	0.136151	0.553420
C100	C	1.301721	0.136145	0.606831
C101	C	1.387202	0.103579	0.633529
N102	N	1.472717	0.071019	0.879235
H103	H	1.125071	-0.005275	0.000002
C104	C	0.795487	0.156499	-0.000017
C105	C	0.893764	0.118714	-0.000012
H106	H	0.829080	0.186775	-0.000017
H107	H	0.745389	0.154174	-0.029607
H108	H	0.745354	0.154178	0.029577
H109	H	0.943892	0.121033	-0.029607
H110	H	0.943883	0.121041	0.029582
C111	C	1.728701	-0.051089	-0.043604
C112	C	1.720973	-0.079756	0.000015
H113	H	1.806363	-0.037631	-0.043600
H114	H	1.723469	-0.070535	-0.073192
H115	H	1.661519	-0.025655	-0.043596
H116	H	1.788149	-0.105192	0.000006
H117	H	1.726217	-0.060309	0.029610
H118	H	1.685980	-0.176879	0.000000
C119	C	1.273330	0.201836	0.666902
C120	C	1.207746	0.171945	0.636191
H121	H	1.215308	0.223935	0.685023
H122	H	1.324223	0.182443	0.690449
H123	H	1.324923	0.219407	0.646058
H124	H	1.156160	0.154370	0.657035
H125	H	1.156832	0.191340	0.612642
H126	H	0.875718	-0.007817	0.000012
C127	C	1.927673	-0.354588	-0.000009
C128	C	1.828682	-0.317083	-0.000006
H129	H	2.005342	-0.341134	-0.000014
H130	H	1.922407	-0.374028	0.029581
H131	H	1.922413	-0.374031	-0.029603
H132	H	1.833936	-0.297642	0.029590
H133	H	1.833950	-0.297635	-0.029599
H134	H	1.259363	-0.681055	-0.000028
H135	H	1.793672	-0.414198	-0.000011
H136	H	1.040094	0.107636	-0.000013
C137	C	1.633073	-0.044965	0.868962
C138	C	1.652154	0.002650	0.881870
H139	H	1.691077	-0.067067	0.887082
H140	H	1.549911	-0.050500	0.877722
H141	H	1.645312	-0.049623	0.833327
H142	H	1.639906	0.007309	0.917504
H143	H	1.735336	0.008187	0.873113
H144	H	1.672242	-0.700566	-0.000015
H145	H	1.232100	0.162670	0.531687
H146	H	1.669830	-0.792046	-0.000023
C147	C	1.108994	-0.569503	-0.043662
C148	C	1.116677	-0.540844	-0.000035
H149	H	1.031329	-0.582959	-0.043667
H150	H	1.114264	-0.550053	-0.073244
H151	H	1.176172	-0.594939	-0.043655
H152	H	1.049505	-0.515406	-0.000043
H153	H	1.111396	-0.560296	0.029555
C154	C	1.125363	-0.740671	-0.000030
C155	C	1.224359	-0.778173	-0.000026
H156	H	1.047696	-0.754126	-0.000036
H157	H	1.130600	-0.721230	0.029562
H158	H	1.130645	-0.721227	-0.029623
H159	H	1.219082	-0.797615	0.029569
H160	H	1.219119	-0.797622	-0.029620
H161	H	1.153237	-0.383919	-0.000033
H162	H	1.713216	-0.020618	0.371404
H163	H	1.155645	-0.292453	-0.000030
C164	C	1.142530	-0.085227	-0.000001
C165	C	1.243269	-0.057177	0.000004
H166	H	1.065773	-0.064464	-0.000004
H167	H	1.146763	-0.105118	-0.029591
H168	H	1.146724	-0.105118	0.029593
H169	H	1.239080	-0.037289	-0.029592
H170	H	1.239033	-0.037278	0.029597
H171	H	1.792104	-0.473996	-0.000014
C172	C	1.796579	-0.622631	-0.000033
C173	C	1.821927	-0.574188	-0.000026
H174	H	1.873338	-0.643393	-0.000041
H175	H	1.749612	-0.628682	0.029558
H176	H	1.749613	-0.628673	-0.029626
H177	H	1.868885	-0.568144	0.029569
H178	H	1.868914	-0.568135	-0.029620
H179	H	1.273098	-0.157373	0.000014
H180	H	1.151687	-0.443727	-0.000025
C181	C	1.671731	-0.059866	0.493416
C182	C	1.737482	-0.029985	0.524070
H183	H	1.729652	-0.082036	0.475332
H184	H	1.620028	-0.077355	0.514289
H185	H	1.620935	-0.040472	0.469831
H186	H	1.788271	-0.049378	0.547657
H187	H	1.789207	-0.012495	0.503195
H188	H	1.713230	-0.020628	0.628543
H189	H	1.317551	0.130133	0.222640
H190	H	1.627718	0.011966	0.125706
C191	C	1.586445	-0.027261	0.739076
C192	C	1.652110	0.002625	0.769759
H193	H	1.644418	-0.049389	0.720965
H194	H	1.534816	-0.044797	0.759932
H195	H	1.535582	-0.007865	0.715514
H196	H	1.702967	-0.016771	0.793323
H197	H	1.703761	0.020162	0.748901
H198	H	1.627721	0.011951	0.222600
H199	H	1.713222	-0.020624	0.468295
H200	H	1.232066	0.162672	0.468334
C201	C	1.218245	0.167964	0.847177
C202	C	1.293275	0.139384	0.881897
H203	H	1.160227	0.190061	0.865302
H204	H	1.269841	0.185533	0.826341
H205	H	1.173765	0.147677	0.826346
H206	H	1.337762	0.159670	0.902726
H207	H	1.241672	0.121813	0.902741
H208	H	1.317606	0.130105	0.777390
C209	C	1.132681	0.200534	0.398562
C210	C	1.207700	0.171953	0.363829
H211	H	1.074676	0.222638	0.380445
H212	H	1.088199	0.180253	0.419395
H213	H	1.184295	0.218101	0.419394
H214	H	1.156087	0.154384	0.343000
H215	H	1.252186	0.192237	0.342987
C216	C	1.312233	0.187031	0.131027
C217	C	1.293180	0.139411	0.118123
H218	H	1.254227	0.209126	0.112900
H219	H	1.299988	0.191691	0.166656
H220	H	1.395403	0.192571	0.122266
H221	H	1.210012	0.133869	0.126887
H222	H	1.305415	0.134748	0.082486
