data_functionalizedCrystal
_audit_creation_method	'MofGen! by Chris Wilmer'
_symmetry_space_group_name_H-M	'P1'
_symmetry_Int_Tables_number	1
_symmetry_cell_setting	triclinic
loop_
_symmetry_equiv_pos_as_xyz
  x,y,z
_cell_length_a	6.817900
_cell_length_b	14.125369
_cell_length_c	14.125286
_cell_angle_alpha	96.236796
_cell_angle_beta	100.396688
_cell_angle_gamma	100.397648
loop_
_atom_site_label
_atom_site_type_symbol
_atom_site_fract_x
_atom_site_fract_y
_atom_site_fract_z
V1	V	-3.975814	-0.132371	-0.299614
O2	O	-3.980365	0.007125	-0.294300
O3	O	-3.912225	-0.263205	-0.297191
O4	O	-3.912243	-0.130000	-0.430457
O5	O	-3.980347	-0.127002	-0.160111
V6	V	-4.463375	-0.115726	-0.282974
O7	O	-4.228213	-0.168885	-0.336116
O8	O	-4.661174	-0.079212	-0.246472
O9	O	-4.303757	0.015108	-0.285398
O10	O	-4.576221	-0.255222	-0.288288
O11	O	-4.576239	-0.121095	-0.422477
O12	O	-4.303739	-0.118097	-0.152131
C13	C	-3.754022	-0.295111	-0.292368
C14	C	-3.783217	-0.402067	-0.291258
C15	C	-3.754044	-0.125192	-0.462361
C16	C	-3.783251	-0.124119	-0.569323
C17	C	-4.021796	-0.650203	-0.293329
C18	C	-3.836771	-0.597895	-0.289264
C19	C	-3.806974	-0.488926	-0.290374
C20	C	-4.051601	-0.759181	-0.292219
C21	C	-4.021794	-0.126069	-0.817440
C22	C	-3.836776	-0.122027	-0.765137
C23	C	-3.806996	-0.123191	-0.656176
C24	C	-4.051582	-0.124905	-0.926410
C25	C	-4.125302	0.047008	-0.290218
C26	C	-4.075345	0.153964	-0.291334
C27	C	-4.125281	-0.122908	-0.120222
C28	C	-4.075312	-0.123976	-0.013259
H29	H	-4.157812	-0.613149	-0.297641
H30	H	-3.700742	-0.117689	-0.802191
N31	N	-4.201969	-0.131810	-0.768358
H32	H	-4.217719	-0.192361	-0.736087
H33	H	-4.329503	-0.134307	-0.818490
N34	N	-3.656576	-0.646969	-0.283550
H35	H	-3.703731	-0.718984	-0.283554
H36	H	-3.553503	-0.618141	-0.221736
