data_functionalizedCrystal
_audit_creation_method	'MofGen! by Chris Wilmer'
_symmetry_space_group_name_H-M	'P1'
_symmetry_Int_Tables_number	1
_symmetry_cell_setting	triclinic
loop_
_symmetry_equiv_pos_as_xyz
  x,y,z
_cell_length_a	19.188905
_cell_length_b	19.188930
_cell_length_c	17.666332
_cell_angle_alpha	89.988397
_cell_angle_beta	89.983521
_cell_angle_gamma	83.139668
loop_
_atom_site_label
_atom_site_type_symbol
_atom_site_fract_x
_atom_site_fract_y
_atom_site_fract_z
O1	O	0.926161	0.087086	-0.063081
O2	O	1.176161	0.337086	0.186919
O3	O	1.426161	0.587086	0.436919
O4	O	1.676161	0.837086	0.686919
O5	O	0.722847	0.098838	-0.063057
O6	O	0.972847	0.348838	0.186943
O7	O	1.222847	0.598838	0.436943
O8	O	1.472847	0.848838	0.686943
O9	O	0.830371	-0.008694	-0.063055
O10	O	1.080371	0.241306	0.186945
O11	O	1.330371	0.491306	0.436945
O12	O	1.580371	0.741306	0.686945
O13	O	0.818637	0.194618	-0.063083
O14	O	1.068637	0.444618	0.186917
O15	O	1.318637	0.694618	0.436917
O16	O	1.568637	0.944618	0.686917
O17	O	0.830352	-0.008700	0.062842
O18	O	1.080352	0.241300	0.312842
O19	O	1.330352	0.491300	0.562842
O20	O	1.580352	0.741300	0.812842
O21	O	0.722828	0.098832	0.062840
O22	O	0.972828	0.348832	0.312840
O23	O	1.222828	0.598832	0.562840
O24	O	1.472828	0.848832	0.812840
O25	O	0.926142	0.087080	0.062815
O26	O	1.176142	0.337080	0.312815
O27	O	1.426142	0.587080	0.562815
O28	O	1.676142	0.837080	0.812815
Cu29	Cu	0.824483	0.092956	0.074323
Cu30	Cu	1.074483	0.342956	0.324323
Cu31	Cu	1.324483	0.592956	0.574323
Cu32	Cu	1.574483	0.842956	0.824323
Cu33	Cu	0.824506	0.092962	-0.074565
Cu34	Cu	1.074506	0.342962	0.175435
Cu35	Cu	1.324506	0.592962	0.425435
Cu36	Cu	1.574506	0.842962	0.675435
O37	O	0.818618	0.194612	0.062814
O38	O	1.068618	0.444612	0.312814
O39	O	1.318618	0.694612	0.562814
O40	O	1.568618	0.944612	0.812814
C41	C	0.696826	0.098458	-0.000105
C42	C	0.946826	0.348458	0.249895
C43	C	1.196826	0.598458	0.499895
C44	C	1.446826	0.848458	0.749895
C45	C	0.619321	0.097324	-0.000095
C46	C	0.869321	0.347324	0.249905
C47	C	1.119321	0.597324	0.499905
C48	C	1.369321	0.847324	0.749905
C49	C	0.582939	0.096782	-0.068723
C50	C	0.832939	0.346782	0.181277
C51	C	1.082939	0.596782	0.431277
C52	C	1.332939	0.846782	0.681277
C53	C	0.510116	0.095709	-0.068732
C54	C	0.760116	0.345709	0.181268
C55	C	1.010116	0.595709	0.431268
C56	C	1.260116	0.845709	0.681268
C57	C	0.473678	0.095164	-0.000110
C58	C	0.723678	0.345164	0.249890
C59	C	0.973678	0.595164	0.499890
C60	C	1.223678	0.845164	0.749890
C61	C	0.510068	0.095709	0.068528
C62	C	0.760068	0.345709	0.318528
C63	C	1.010068	0.595709	0.568528
C64	C	1.260068	0.845709	0.818528
C65	C	0.582889	0.096789	0.068535
C66	C	0.832889	0.346789	0.318535
C67	C	1.082889	0.596789	0.568535
C68	C	1.332889	0.846789	0.818535
N69	N	0.364650	0.053733	0.050966
N70	N	0.614650	0.303733	0.300966
N71	N	0.864650	0.553733	0.550966
N72	N	1.114650	0.803733	0.800966
N73	N	0.295473	0.052705	0.050954
N74	N	0.545473	0.302705	0.300954
N75	N	0.795473	0.552705	0.550954
N76	N	1.045473	0.802705	0.800954
C77	C	0.254272	0.091911	-0.000127
C78	C	0.504272	0.341911	0.249873
C79	C	0.754272	0.591911	0.499873
C80	C	1.004272	0.841911	0.749873
N81	N	0.284861	0.132174	-0.051208
N82	N	0.534861	0.382174	0.198792
N83	N	0.784861	0.632174	0.448792
N84	N	1.034861	0.882174	0.698792
N85	N	0.354045	0.133199	-0.051199
N86	N	0.604045	0.383199	0.198801
N87	N	0.854045	0.633199	0.448801
N88	N	1.104045	0.883199	0.698801
C89	C	0.394716	0.093993	-0.000110
C90	C	0.644716	0.343993	0.249890
C91	C	0.894716	0.593993	0.499890
C92	C	1.144716	0.843993	0.749890
C93	C	0.138926	0.090207	-0.068770
C94	C	0.388926	0.340207	0.181230
C95	C	0.638926	0.590207	0.431230
C96	C	0.888926	0.840207	0.681230
C97	C	0.066101	0.089138	-0.068777
C98	C	0.316101	0.339138	0.181223
C99	C	0.566101	0.589138	0.431223
C100	C	0.816101	0.839138	0.681223
C101	C	0.066055	0.089131	0.068485
C102	C	0.316055	0.339131	0.318485
C103	C	0.566055	0.589131	0.568485
C104	C	0.816055	0.839131	0.818485
C105	C	0.138879	0.090207	0.068490
C106	C	0.388879	0.340207	0.318490
C107	C	0.638879	0.590207	0.568490
C108	C	0.888879	0.840207	0.818490
C109	C	0.175310	0.090742	-0.000140
C110	C	0.425310	0.340742	0.249860
C111	C	0.675310	0.590742	0.499860
C112	C	0.925310	0.840742	0.749860
C113	C	0.829982	-0.034708	-0.000104
C114	C	1.079982	0.215292	0.249896
C115	C	1.329982	0.465292	0.499896
C116	C	1.579982	0.715292	0.749896
C117	C	0.828841	-0.112213	-0.000098
C118	C	1.078841	0.137787	0.249902
C119	C	1.328841	0.387787	0.499902
C120	C	1.578841	0.637787	0.749902
C121	C	0.891933	-0.157142	-0.000102
C122	C	1.141933	0.092858	0.249898
C123	C	1.391933	0.342858	0.499898
C124	C	1.641933	0.592858	0.749898
C125	C	0.890861	-0.229966	-0.000114
C126	C	1.140861	0.020034	0.249886
C127	C	1.390861	0.270034	0.499886
C128	C	1.640861	0.520034	0.749886
C129	C	0.826694	-0.257857	-0.000107
C130	C	1.076694	-0.007857	0.249893
C131	C	1.326694	0.242143	0.499893
C132	C	1.576694	0.492143	0.749893
C133	C	0.763594	-0.212917	-0.000107
C134	C	1.013594	0.037083	0.249893
C135	C	1.263594	0.287083	0.499893
C136	C	1.513594	0.537083	0.749893
C137	C	0.764668	-0.140095	-0.000102
C138	C	1.014668	0.109905	0.249898
C139	C	1.264668	0.359905	0.499898
C140	C	1.514668	0.609905	0.749898
N141	N	0.777640	-0.365859	0.042744
N142	N	1.027640	-0.115859	0.292744
N143	N	1.277640	0.134141	0.542744
N144	N	1.527640	0.384141	0.792744
N145	N	0.776624	-0.435038	0.042742
N146	N	1.026624	-0.185038	0.292742
N147	N	1.276624	0.064962	0.542742
N148	N	1.526624	0.314962	0.792742
C149	C	0.823456	-0.477265	-0.000122
C150	C	1.073456	-0.227265	0.249878
C151	C	1.323456	0.022735	0.499878
C152	C	1.573456	0.272735	0.749878
N153	N	0.871352	-0.447702	-0.042973
N154	N	1.121352	-0.197702	0.207027
N155	N	1.371352	0.052298	0.457027
N156	N	1.621352	0.302298	0.707027
N157	N	0.872369	-0.378517	-0.042967
N158	N	1.122369	-0.128517	0.207033
N159	N	1.372369	0.121483	0.457033
N160	N	1.622369	0.371483	0.707033
C161	C	0.825523	-0.336819	-0.000112
C162	C	1.075523	-0.086819	0.249888
C163	C	1.325523	0.163181	0.499888
C164	C	1.575523	0.413181	0.749888
C165	C	0.885390	-0.601159	-0.000140
C166	C	1.135390	-0.351159	0.249860
C167	C	1.385390	-0.101159	0.499860
C168	C	1.635390	0.148841	0.749860
C169	C	0.884315	-0.673984	-0.000156
C170	C	1.134315	-0.423984	0.249844
C171	C	1.384315	-0.173984	0.499844
C172	C	1.634315	0.076016	0.749844
C173	C	0.757047	-0.656933	-0.000142
C174	C	1.007047	-0.406933	0.249858
C175	C	1.257047	-0.156933	0.499858
C176	C	1.507047	0.093067	0.749858
C177	C	0.758123	-0.584110	-0.000133
C178	C	1.008123	-0.334110	0.249867
C179	C	1.258123	-0.084110	0.499867
C180	C	1.508123	0.165890	0.749867
C181	C	0.822296	-0.556228	-0.000128
C182	C	1.072296	-0.306228	0.249872
C183	C	1.322296	-0.056228	0.499872
C184	C	1.572296	0.193772	0.749872
C185	C	0.952163	0.087460	-0.000138
C186	C	1.202163	0.337460	0.249862
C187	C	1.452163	0.587460	0.499862
C188	C	1.702163	0.837460	0.749862
C189	C	1.029668	0.088594	-0.000153
C190	C	1.279668	0.338594	0.249847
C191	C	1.529668	0.588594	0.499847
C192	C	1.779668	0.838594	0.749847
C193	C	0.819007	0.220626	-0.000139
C194	C	1.069007	0.470626	0.249861
C195	C	1.319007	0.720626	0.499861
C196	C	1.569007	0.970626	0.749861
C197	C	0.820148	0.298131	-0.000150
C198	C	1.070148	0.548131	0.249850
C199	C	1.320148	0.798131	0.499850
C200	C	1.570148	1.048131	0.749850
N201	N	0.824473	0.092950	0.179042
N202	N	1.074473	0.342950	0.429042
N203	N	1.324473	0.592950	0.679042
N204	N	1.574473	0.842950	0.929042
N205	N	0.824522	0.092962	-0.179284
N206	N	1.074522	0.342962	0.070716
N207	N	1.324522	0.592962	0.320716
N208	N	1.574522	0.842962	0.570716
C209	C	0.872100	0.045358	0.218653
C210	C	1.122100	0.295358	0.468653
C211	C	1.372100	0.545358	0.718653
C212	C	1.622100	0.795358	0.968653
C213	C	0.872104	0.045355	0.297901
C214	C	1.122104	0.295355	0.547901
C215	C	1.372104	0.545355	0.797901
C216	C	1.622104	0.795355	1.047901
C217	C	0.824488	0.092956	0.337535
C218	C	1.074488	0.342956	0.587535
C219	C	1.324488	0.592956	0.837535
C220	C	1.574488	0.842956	1.087535
C221	C	0.776852	0.140552	0.297915
C222	C	1.026852	0.390552	0.547915
C223	C	1.276852	0.640552	0.797915
C224	C	1.526852	0.890552	1.047915
C225	C	0.776844	0.140549	0.218668
C226	C	1.026844	0.390549	0.468668
C227	C	1.276844	0.640549	0.718668
C228	C	1.526844	0.890549	0.968668
N229	N	0.815411	0.154764	0.461945
N230	N	1.065411	0.404764	0.711945
N231	N	1.315411	0.654764	0.961945
N232	N	1.565411	0.904764	1.211945
N233	N	0.815422	0.154764	0.537226
N234	N	1.065422	0.404764	0.787226
N235	N	1.315422	0.654764	1.037226
N236	N	1.565422	0.904764	1.287226
C237	C	0.824506	0.092966	0.576299
C238	C	1.074506	0.342966	0.826299
C239	C	1.324506	0.592966	1.076299
C240	C	1.574506	0.842966	1.326299
N241	N	0.833592	0.031164	0.537247
N242	N	1.083592	0.281164	0.787247
N243	N	1.333592	0.531164	1.037247
N244	N	1.583592	0.781164	1.287247
N245	N	0.833584	0.031165	0.461960
N246	N	1.083584	0.281165	0.711960
N247	N	1.333584	0.531165	0.961960
N248	N	1.583584	0.781165	1.211960
C249	C	0.824490	0.092964	0.423464
C250	C	1.074490	0.342964	0.673464
C251	C	1.324490	0.592964	0.923464
C252	C	1.574490	0.842964	1.173464
C253	C	0.872140	0.045366	0.701838
C254	C	1.122140	0.295366	0.951838
C255	C	1.372140	0.545366	1.201838
C256	C	1.622140	0.795366	1.451838
C257	C	0.872139	0.045361	0.781087
C258	C	1.122139	0.295361	1.031087
C259	C	1.372139	0.545361	1.281087
C260	C	1.622139	0.795361	1.531087
C261	C	0.776890	0.140564	0.781100
C262	C	1.026890	0.390564	1.031100
C263	C	1.276890	0.640564	1.281100
C264	C	1.526890	0.890564	1.531100
C265	C	0.776888	0.140562	0.701852
C266	C	1.026888	0.390562	0.951852
C267	C	1.276888	0.640562	1.201852
C268	C	1.526888	0.890562	1.451852
C269	C	0.824516	0.092964	0.662226
C270	C	1.074516	0.342964	0.912226
C271	C	1.324516	0.592964	1.162226
C272	C	1.574516	0.842964	1.412226
H273	H	0.612597	0.097218	-0.124607
H274	H	0.862597	0.347218	0.125393
H275	H	1.112597	0.597218	0.375393
H276	H	1.362597	0.847218	0.625393
H277	H	0.937644	-0.578456	-0.000139
H278	H	1.187644	-0.328456	0.249861
H279	H	1.437644	-0.078456	0.499861
H280	H	1.687644	0.171544	0.749861
H281	H	0.935694	-0.710565	-0.000164
H282	H	1.185694	-0.460565	0.249836
H283	H	1.435694	-0.210565	0.499836
H284	H	1.685694	0.039435	0.749836
H285	H	0.910880	0.006599	0.186392
H286	H	1.160880	0.256599	0.436392
H287	H	1.410880	0.506599	0.686392
H288	H	1.660880	0.756599	0.936392
H289	H	0.738060	0.179305	0.186417
H290	H	0.988060	0.429305	0.436417
H291	H	1.238060	0.679305	0.686417
H292	H	1.488060	0.929305	0.936417
H293	H	0.910889	0.006598	0.330157
H294	H	1.160889	0.256598	0.580157
H295	H	1.410889	0.506598	0.830157
H296	H	1.660889	0.756598	1.080157
H297	H	0.942239	-0.266555	-0.000120
H298	H	1.192239	-0.016555	0.249880
H299	H	1.442239	0.233445	0.499880
H300	H	1.692239	0.483445	0.749880
H301	H	0.910920	0.006606	0.669574
H302	H	1.160920	0.256606	0.919574
H303	H	1.410920	0.506606	1.169574
H304	H	1.660920	0.756606	1.419574
H305	H	0.168501	0.090643	0.124374
H306	H	0.418501	0.340643	0.374374
H307	H	0.668501	0.590643	0.624374
H308	H	0.918501	0.840643	0.874374
H309	H	0.704801	-0.679641	-0.000140
H310	H	0.954801	-0.429641	0.249860
H311	H	1.204801	-0.179641	0.499860
H312	H	1.454801	0.070359	0.749860
H313	H	0.910921	0.006602	0.813339
H314	H	1.160921	0.256602	1.063339
H315	H	1.410921	0.506602	1.313339
H316	H	1.660921	0.756602	1.563339
H317	H	0.738118	0.179319	0.813369
H318	H	0.988118	0.429319	1.063369
H319	H	1.238118	0.679319	1.313369
H320	H	1.488118	0.929319	1.563369
H321	H	0.711349	-0.235631	-0.000103
H322	H	0.961349	0.014369	0.249897
H323	H	1.211349	0.264369	0.499897
H324	H	1.461349	0.514369	0.749897
H325	H	0.706747	-0.547527	-0.000125
H326	H	0.956747	-0.297527	0.249875
H327	H	1.206747	-0.047527	0.499875
H328	H	1.456747	0.202473	0.749875
H329	H	0.738108	0.179319	0.669599
H330	H	0.988108	0.429319	0.919599
H331	H	1.238108	0.679319	1.169599
H332	H	1.488108	0.929319	1.419599
H333	H	0.036479	0.088702	-0.124664
H334	H	0.286479	0.338702	0.125336
H335	H	0.536479	0.588702	0.375336
H336	H	0.786479	0.838702	0.625336
H337	H	0.944187	-0.134445	-0.000101
H338	H	1.194187	0.115555	0.249899
H339	H	1.444187	0.365555	0.499899
H340	H	1.694187	0.615555	0.749899
H341	H	0.738081	0.179308	0.330189
H342	H	0.988081	0.429308	0.580189
H343	H	1.238081	0.679308	0.830189
H344	H	1.488081	0.929308	1.080189
H345	H	0.480488	0.095270	-0.124620
H346	H	0.730488	0.345270	0.125380
H347	H	0.980488	0.595270	0.375380
H348	H	1.230488	0.845270	0.625380
H349	H	0.612511	0.097231	0.124422
H350	H	0.862511	0.347231	0.374422
H351	H	1.112511	0.597231	0.624422
H352	H	1.362511	0.847231	0.874422
H353	H	0.480396	0.095267	0.124401
H354	H	0.730396	0.345267	0.374401
H355	H	0.980396	0.595267	0.624401
H356	H	1.230396	0.845267	0.874401
H357	H	0.036388	0.088691	0.124360
H358	H	0.286388	0.338691	0.374360
H359	H	0.536388	0.588691	0.624360
H360	H	0.786388	0.838691	0.874360
H361	H	0.168589	0.090650	-0.124653
H362	H	0.418589	0.340650	0.125347
H363	H	0.668589	0.590650	0.375347
H364	H	0.918589	0.840650	0.625347
H365	H	0.713289	-0.103513	-0.000099
H366	H	0.963289	0.146487	0.249901
H367	H	1.213289	0.396487	0.499901
H368	H	1.463289	0.646487	0.749901
