data_functionalizedCrystal
_audit_creation_method	'MofGen! by Chris Wilmer'
_symmetry_space_group_name_H-M	'P1'
_symmetry_Int_Tables_number	1
_symmetry_cell_setting	triclinic
loop_
_symmetry_equiv_pos_as_xyz
  x,y,z
_cell_length_a	21.395364
_cell_length_b	18.215405
_cell_length_c	21.395355
_cell_angle_alpha	90.016841
_cell_angle_beta	90.024516
_cell_angle_gamma	90.018496
loop_
_atom_site_label
_atom_site_type_symbol
_atom_site_fract_x
_atom_site_fract_y
_atom_site_fract_z
Zn1	Zn	0.957894	-0.293153	0.354268
Zn2	Zn	1.457894	0.206847	0.854268
Zn3	Zn	0.957811	-0.416201	0.249494
Zn4	Zn	1.457811	0.083799	0.749494
Zn5	Zn	0.853109	-0.293144	0.249505
Zn6	Zn	1.353109	0.206856	0.749505
Zn7	Zn	0.853093	-0.416173	0.354234
Zn8	Zn	1.353093	0.083827	0.854234
O9	O	0.905476	-0.354668	0.301875
O10	O	1.405476	0.145332	0.801875
O11	O	1.045561	-0.309491	0.340379
O12	O	1.545561	0.190509	0.840379
O13	O	0.943894	-0.399885	0.161817
O14	O	1.443894	0.100115	0.661817
O15	O	0.867050	-0.190161	0.263421
O16	O	1.367050	0.309839	0.763421
O17	O	1.045500	-0.399894	0.263402
O18	O	1.545500	0.100106	0.763402
O19	O	0.944035	-0.190167	0.340390
O20	O	1.444035	0.309833	0.840390
O21	O	0.866970	-0.309476	0.161825
O22	O	1.366970	0.190524	0.661825
O23	O	0.765429	-0.309448	0.263388
O24	O	1.265429	0.190552	0.763388
O25	O	0.867023	-0.399846	0.441916
O26	O	1.367023	0.100154	0.941916
O27	O	0.765417	-0.399837	0.340332
O28	O	1.265417	0.100163	0.840332
O29	O	0.944020	-0.309464	0.441941
O30	O	1.444020	0.190536	0.941941
O31	O	0.943878	-0.519181	0.263369
O32	O	1.443878	-0.019181	0.763369
O33	O	0.866942	-0.519161	0.340321
O34	O	1.366942	-0.019161	0.840321
C35	C	0.742689	-0.354639	0.301858
C36	C	1.242689	0.145361	0.801858
C37	C	0.673048	-0.354645	0.301865
C38	C	1.173048	0.145355	0.801865
C39	C	0.171283	-0.307706	0.342031
C40	C	0.671283	0.192294	0.842031
C41	C	0.236718	-0.307700	0.342031
C42	C	0.736718	0.192300	0.842031
C43	C	0.269409	-0.354690	0.301889
C44	C	0.769409	0.145310	0.801889
C45	C	0.236660	-0.401702	0.261756
C46	C	0.736660	0.098298	0.761756
C47	C	0.171226	-0.401711	0.261761
C48	C	0.671226	0.098289	0.761761
C49	C	0.373046	-0.360389	0.245422
C50	C	0.873046	0.139611	0.745422
C51	C	0.438479	-0.360374	0.245415
C52	C	0.938479	0.139626	0.745415
C53	C	0.471230	-0.354666	0.301872
C54	C	0.971230	0.145334	0.801872
C55	C	0.438540	-0.348956	0.358337
C56	C	0.938540	0.151044	0.858337
C57	C	0.373105	-0.348965	0.358343
C58	C	0.873105	0.151035	0.858343
C59	C	0.340362	-0.354686	0.301879
C60	C	0.840362	0.145314	0.801879
C61	C	0.574924	-0.307654	0.342006
C62	C	1.074924	0.192346	0.842006
C63	C	0.640361	-0.307654	0.342007
C64	C	1.140361	0.192346	0.842007
C65	C	0.640301	-0.401652	0.261726
C66	C	1.140301	0.098348	0.761726
C67	C	0.574866	-0.401656	0.261730
C68	C	1.074866	0.098344	0.761730
C69	C	0.542181	-0.354653	0.301870
C70	C	1.042181	0.145347	0.801870
C71	C	0.905416	-0.545874	0.301854
C72	C	1.405416	-0.045874	0.801854
C73	C	0.905448	-0.627673	0.301865
C74	C	1.405448	-0.127673	0.801865
C75	C	0.945553	-0.815809	0.341997
C76	C	1.445553	-0.315809	0.841997
C77	C	0.945576	-0.892668	0.342009
C78	C	1.445576	-0.392668	0.842009
C79	C	0.865477	-0.892774	0.261792
C80	C	1.365477	-0.392774	0.761792
C81	C	0.865452	-0.815917	0.261784
C82	C	1.365452	-0.315917	0.761784
C83	C	0.905493	-0.777436	0.301885
C84	C	1.405493	-0.277436	0.801885
C85	C	0.905541	-0.931152	0.301905
C86	C	1.405541	-0.431152	0.801905
C87	C	0.905566	-1.014486	0.301918
C88	C	1.405566	-0.514486	0.801918
C89	C	0.905468	-0.694097	0.301874
C90	C	1.405468	-0.194097	0.801874
C91	C	1.068900	-0.354696	0.301893
C92	C	1.568900	0.145304	0.801893
C93	C	1.138541	-0.354709	0.301901
C94	C	1.638541	0.145291	0.801901
C95	C	0.905528	-0.354653	0.465298
C96	C	1.405528	0.145347	0.965298
C97	C	0.905551	-0.354646	0.534940
C98	C	1.405551	0.145354	1.034940
C99	C	0.905554	-0.162715	0.301911
C100	C	1.405554	0.337285	0.801911
C101	C	0.905587	-0.080916	0.301926
C102	C	1.405587	0.419084	0.801926
C103	C	0.905461	-0.354629	0.139088
C104	C	1.405461	0.145371	0.639088
C105	C	0.905560	-0.354428	0.069447
C106	C	1.405560	0.145572	0.569447
C107	C	0.945641	-0.307582	0.567667
C108	C	1.445641	0.192418	1.067667
C109	C	0.945640	-0.307551	0.633102
C110	C	1.445640	0.192449	1.133102
C111	C	0.905556	-0.354596	0.665808
C112	C	1.405556	0.145404	1.165808
C113	C	0.865457	-0.401664	0.633073
C114	C	1.365457	0.098336	1.133073
C115	C	0.865455	-0.401689	0.567639
C116	C	1.365455	0.098311	1.067639
C117	C	0.900587	-0.420860	0.769475
C118	C	1.400587	0.079140	1.269475
C119	C	0.900594	-0.420836	0.834908
C120	C	1.400594	0.079164	1.334908
C121	C	0.905559	-0.354518	0.867629
C122	C	1.405559	0.145482	1.367629
C123	C	0.910531	-0.288223	0.834909
C124	C	1.410531	0.211777	1.334909
C125	C	0.910528	-0.288248	0.769474
C126	C	1.410528	0.211752	1.269474
C127	C	0.905553	-0.354574	0.736761
C128	C	1.405553	0.145426	1.236761
C129	C	0.945651	-0.307416	0.971309
C130	C	1.445651	0.192584	1.471309
C131	C	0.945646	-0.307383	1.036745
C132	C	1.445646	0.192617	1.536745
C133	C	0.865466	-0.401503	1.036715
C134	C	1.365466	0.098497	1.536715
C135	C	0.865468	-0.401529	0.971279
C136	C	1.365468	0.098471	1.471279
C137	C	0.905564	-0.354487	0.938580
C138	C	1.405564	0.145513	1.438580
H139	H	0.346492	-0.344318	0.404318
H140	H	0.846492	0.155682	0.904318
H141	H	0.832825	-0.439858	0.944633
H142	H	1.332825	0.060142	1.444633
H143	H	0.832827	-0.784671	0.229120
H144	H	1.332827	-0.284671	0.729120
F145	F	0.895317	-0.491450	0.734658
F146	F	1.395317	0.008550	1.234658
H147	H	0.832878	-0.924114	0.229141
H148	H	1.332878	-0.424114	0.729141
F149	F	0.988313	-0.257512	0.532870
F150	F	1.488313	0.242488	1.032870
F151	F	0.271453	-0.451714	0.219036
F152	F	0.771453	0.048286	0.719036
H153	H	0.978195	-0.923908	0.374674
H154	H	1.478195	-0.423908	0.874674
F155	F	0.822794	-0.451731	0.667882
F156	F	1.322794	0.048269	1.167882
H157	H	0.978286	-0.269221	0.659754
H158	H	1.478286	0.230779	1.159754
F159	F	0.915816	-0.217693	0.734653
F160	F	1.415816	0.282307	1.234653
F161	F	0.915818	-0.217637	0.869727
F162	F	1.415818	0.282363	1.369727
H163	H	0.896550	-0.474818	0.861544
H164	H	1.396550	0.025182	1.361544
H165	H	0.978296	-0.269107	0.944684
H166	H	1.478296	0.230893	1.444684
H167	H	0.832805	-0.440013	0.540993
H168	H	1.332805	0.059987	1.040993
F169	F	0.271571	-0.257670	0.384745
F170	F	0.771571	0.242330	0.884745
H171	H	0.978292	-0.269054	1.063391
H172	H	1.478292	0.230946	1.563391
F173	F	0.136379	-0.451738	0.219045
F174	F	0.636379	0.048262	0.719045
H175	H	0.978157	-0.784480	0.374652
H176	H	1.478157	-0.284480	0.874652
H177	H	0.667018	-0.269381	0.374690
H178	H	1.167018	0.230619	0.874690
F179	F	0.136501	-0.257686	0.384755
F180	F	0.636501	0.242314	0.884755
H181	H	0.832822	-0.439801	1.063343
H182	H	1.332822	0.060199	1.563343
H183	H	0.465204	-0.344303	0.404309
H184	H	0.965204	0.155697	0.904309
H185	H	0.666918	-0.439918	0.229046
H186	H	1.166918	0.060082	0.729046
F187	F	0.540019	-0.451674	0.219009
F188	F	1.040019	0.048326	0.719009
F189	F	0.540136	-0.257633	0.384726
F190	F	1.040136	0.242367	0.884726
H191	H	0.346386	-0.365041	0.199445
H192	H	0.846386	0.134959	0.699445
F193	F	0.473265	-0.366439	0.185320
F194	F	0.973265	0.133561	0.685320
