data_functionalizedCrystal
_audit_creation_method	'MofGen! by Chris Wilmer'
_symmetry_space_group_name_H-M	'P1'
_symmetry_Int_Tables_number	1
_symmetry_cell_setting	triclinic
loop_
_symmetry_equiv_pos_as_xyz
  x,y,z
_cell_length_a	15.297475
_cell_length_b	16.959453
_cell_length_c	15.296720
_cell_angle_alpha	99.644028
_cell_angle_beta	91.617114
_cell_angle_gamma	80.322456
loop_
_atom_site_label
_atom_site_type_symbol
_atom_site_fract_x
_atom_site_fract_y
_atom_site_fract_z
Zn1	Zn	1.253431	-0.615175	-0.726583
Zn2	Zn	1.753431	-0.115175	-0.226583
Zn3	Zn	1.278700	-0.728993	-0.580096
Zn4	Zn	1.778700	-0.228993	-0.080096
Zn5	Zn	1.132307	-0.570770	-0.554825
Zn6	Zn	1.632307	-0.070770	-0.054825
Zn7	Zn	1.106926	-0.721223	-0.701225
Zn8	Zn	1.606926	-0.221223	-0.201225
O9	O	1.192841	-0.659040	-0.640683
O10	O	1.692841	-0.159040	-0.140683
O11	O	1.379362	-0.652108	-0.728340
O12	O	1.879362	-0.152108	-0.228340
O13	O	1.280477	-0.692672	-0.454170
O14	O	1.780477	-0.192672	0.045830
O15	O	1.148422	-0.466062	-0.577646
O16	O	1.648422	0.033938	-0.077646
O17	O	1.397927	-0.735730	-0.620717
O18	O	1.897927	-0.235730	-0.120717
O19	O	1.237411	-0.498686	-0.703836
O20	O	1.737411	0.001314	-0.203836
O21	O	1.172923	-0.576427	-0.435603
O22	O	1.672923	-0.076427	0.064397
O23	O	1.006361	-0.568893	-0.553057
O24	O	1.506361	-0.068893	-0.053057
O25	O	1.105163	-0.722487	-0.827163
O26	O	1.605163	-0.222487	-0.327163
O27	O	0.987713	-0.679430	-0.660616
O28	O	1.487713	-0.179430	-0.160616
O29	O	1.212800	-0.644574	-0.845794
O30	O	1.712800	-0.144574	-0.345794
O31	O	1.255866	-0.838560	-0.596128
O32	O	1.755866	-0.338560	-0.096128
O33	O	1.129664	-0.832852	-0.685120
O34	O	1.629664	-0.332852	-0.185120
C35	C	0.965254	-0.618500	-0.601343
C36	C	1.465254	-0.118500	-0.101343
C37	C	0.867887	-0.601179	-0.584534
C38	C	1.367887	-0.101179	-0.084534
C39	C	0.554750	-0.782846	-0.760820
C40	C	1.054750	-0.282846	-0.260820
C41	C	0.646231	-0.799126	-0.776610
C42	C	1.146231	-0.299126	-0.276610
C43	C	0.701650	-0.749640	-0.728593
C44	C	1.201650	-0.249640	-0.228593
C45	C	0.665578	-0.683872	-0.664782
C46	C	1.165578	-0.183872	-0.164782
C47	C	0.574089	-0.667594	-0.648985
C48	C	1.074089	-0.167594	-0.148985
C49	C	0.720989	-0.634389	-0.616758
C50	C	1.220989	-0.134389	-0.116758
C51	C	0.684917	-0.568621	-0.552947
C52	C	1.184917	-0.068621	-0.052947
C53	C	0.593437	-0.552346	-0.537154
C54	C	1.093437	-0.052346	-0.037154
C55	C	0.538018	-0.601831	-0.585171
C56	C	1.038018	-0.101831	-0.085171
C57	C	0.812478	-0.650667	-0.632555
C58	C	1.312478	-0.150667	-0.132555
C59	C	0.831817	-0.535415	-0.520720
C60	C	1.331817	-0.035415	-0.020720
C61	C	0.740336	-0.519135	-0.504930
C62	C	1.240336	-0.019135	-0.004930
C63	C	1.192773	-0.864389	-0.640638
C64	C	1.692773	-0.364389	-0.140638
C65	C	1.192820	-0.952257	-0.640662
C66	C	1.692820	-0.452257	-0.140662
C67	C	1.239231	-1.340693	-0.706508
C68	C	1.739231	-0.840693	-0.206508
C69	C	1.146673	-1.306843	-0.575030
C70	C	1.646673	-0.806843	-0.075030
C71	C	1.146644	-1.224289	-0.575004
C72	C	1.646644	-0.724289	-0.075004
C73	C	1.192908	-1.199934	-0.640732
C74	C	1.692908	-0.699934	-0.140732
C75	C	1.239201	-1.258132	-0.706486
C76	C	1.739201	-0.758132	-0.206486
C77	C	1.100344	-1.166085	-0.509257
C78	C	1.600344	-0.666085	-0.009257
C79	C	1.100312	-1.083525	-0.509229
C80	C	1.600312	-0.583525	-0.009229
C81	C	1.146582	-1.059168	-0.574954
C82	C	1.646582	-0.559168	-0.074954
C83	C	1.192878	-1.117372	-0.640710
C84	C	1.692878	-0.617372	-0.140710
C85	C	1.239143	-1.093016	-0.706438
C86	C	1.739143	-0.593016	-0.206438
C87	C	1.285445	-1.151220	-0.772191
C88	C	1.785445	-0.651220	-0.272191
C89	C	1.285472	-1.233775	-0.772211
C90	C	1.785472	-0.733775	-0.272211
C91	C	1.146555	-0.976612	-0.574934
C92	C	1.646555	-0.476612	-0.074934
C93	C	1.239113	-1.010455	-0.706416
C94	C	1.739113	-0.510455	-0.206416
C95	C	1.421317	-0.699739	-0.680176
C96	C	1.921317	-0.199739	-0.180176
C97	C	1.518679	-0.717082	-0.697006
C98	C	2.018679	-0.217082	-0.197006
C99	C	1.153332	-0.687617	-0.869149
C100	C	1.653332	-0.187617	-0.369149
C101	C	1.136495	-0.699795	-0.966508
C102	C	1.636495	-0.199795	-0.466508
C103	C	1.192929	-0.452896	-0.640751
C104	C	1.692929	0.047104	-0.140751
C105	C	1.192967	-0.365049	-0.640780
C106	C	1.692967	0.134951	-0.140780
C107	C	1.313207	-0.571870	-1.279748
C108	C	1.813207	-0.071870	-0.779748
C109	C	1.329031	-0.560430	-1.188276
C110	C	1.829031	-0.060430	-0.688276
C111	C	1.280898	-0.595270	-1.132829
C112	C	1.780898	-0.095270	-0.632829
C113	C	1.216939	-0.641552	-1.168864
C114	C	1.716939	-0.141552	-0.668864
C115	C	1.201118	-0.652998	-1.260347
C116	C	1.701118	-0.152998	-0.760347
C117	C	1.168809	-0.676399	-1.113428
C118	C	1.668809	-0.176399	-0.613428
C119	C	1.104850	-0.722681	-1.149463
C120	C	1.604850	-0.222681	-0.649463
C121	C	1.089031	-0.734124	-1.240937
C122	C	1.589031	-0.234124	-0.740937
C123	C	1.137164	-0.699284	-1.296383
C124	C	1.637164	-0.199284	-0.796383
C125	C	1.184630	-0.664953	-1.021946
C126	C	1.684630	-0.164953	-0.521946
C127	C	1.072541	-0.746081	-1.002544
C128	C	1.572541	-0.246081	-0.502544
C129	C	1.056717	-0.757521	-1.094017
C130	C	1.556717	-0.257521	-0.594017
C131	C	1.232247	-0.630526	-0.413113
C132	C	1.732247	-0.130526	0.086887
C133	C	1.249253	-0.618156	-0.315784
C134	C	1.749253	-0.118156	0.184216
H135	H	0.509622	-0.823134	-0.799903
H136	H	1.009622	-0.323134	-0.299903
C137	C	1.019590	-0.784406	-0.941556
C138	C	1.519590	-0.284406	-0.441556
N139	N	0.979711	-0.813270	-0.895615
N140	N	1.479711	-0.313270	-0.395615
C141	C	1.049371	-1.019508	-0.436906
C142	C	1.549371	-0.519508	0.063094
N143	N	1.010999	-0.971290	-0.382433
N144	N	1.510999	-0.471290	0.117567
H145	H	1.276791	-0.990632	-0.759937
H146	H	1.776791	-0.490632	-0.259937
C147	C	1.290160	-1.404716	-0.778833
C148	C	1.790160	-0.904716	-0.278833
N149	N	1.328520	-1.452939	-0.833309
N150	N	1.828520	-0.952939	-0.333309
C151	C	1.254979	-0.614037	-0.982317
C152	C	1.754979	-0.114037	-0.482317
N153	N	1.307967	-0.575682	-0.952469
N154	N	1.807967	-0.075682	-0.452469
H155	H	0.564072	-0.498800	-0.485186
H156	H	1.064072	0.001200	0.014814
H157	H	1.108852	-0.929227	-0.521402
H158	H	1.608852	-0.429227	-0.021402
C159	C	0.700645	-0.446795	-0.434736
C160	C	1.200645	0.053205	0.065264
N161	N	0.670749	-0.392308	-0.381866
N162	N	1.170749	0.107692	0.118134
C163	C	1.399377	-0.509514	-1.148643
C164	C	1.899377	-0.009514	-0.648643
N165	N	1.452362	-0.471157	-1.118790
N166	N	1.952362	0.028843	-0.618790
C167	C	0.892773	-0.480976	-0.467900
C168	C	1.392773	0.019024	0.032100
N169	N	0.938691	-0.439976	-0.428118
N170	N	1.438691	0.060024	0.071882
C171	C	0.685903	-0.871470	-0.846798
C172	C	1.185903	-0.371470	-0.346798
N173	N	0.715784	-0.925963	-0.899668
N174	N	1.215784	-0.425963	-0.399668
H175	H	1.352395	-0.543514	-1.324901
H176	H	1.852395	-0.043514	-0.824901
C177	C	1.336333	-1.124417	-0.844489
C178	C	1.836333	-0.624417	-0.344489
N179	N	1.374663	-1.104226	-0.898943
N180	N	1.874663	-0.604226	-0.398943
C181	C	1.336393	-1.297803	-0.844537
C182	C	1.836393	-0.797803	-0.344537
N183	N	1.374744	-1.346031	-0.899014
N184	N	1.874744	-0.846031	-0.399014
H185	H	0.776137	-0.762899	-0.741454
H186	H	1.276137	-0.262899	-0.241454
C187	C	0.986361	-0.808428	-1.133668
C188	C	1.486361	-0.308428	-0.633668
N189	N	0.933369	-0.846770	-1.163533
N190	N	1.433369	-0.346770	-0.663533
H191	H	0.841838	-0.704215	-0.684511
H192	H	1.341838	-0.204215	-0.184511
H193	H	1.109002	-1.326679	-0.521520
H194	H	1.609002	-0.826679	-0.021520
C195	C	1.119773	-0.711878	-1.397012
C196	C	1.619773	-0.211878	-0.897012
N197	N	1.106681	-0.721369	-1.472808
N198	N	1.606681	-0.221369	-0.972808
H199	H	1.062675	-1.185922	-0.455746
H200	H	1.562675	-0.685922	0.044254
H201	H	1.036958	-0.771818	-1.270274
H202	H	1.536958	-0.271818	-0.770274
H203	H	0.463526	-0.588578	-0.572320
H204	H	0.963526	-0.088578	-0.072320
H205	H	1.293786	-0.585954	-1.058349
H206	H	1.793786	-0.085954	-0.558349
