data_functionalizedCrystal
_audit_creation_method	'MofGen! by Chris Wilmer'
_symmetry_space_group_name_H-M	'P1'
_symmetry_Int_Tables_number	1
_symmetry_cell_setting	triclinic
loop_
_symmetry_equiv_pos_as_xyz
  x,y,z
_cell_length_a	17.699097
_cell_length_b	27.731996
_cell_length_c	16.776229
_cell_angle_alpha	89.987372
_cell_angle_beta	89.989262
_cell_angle_gamma	82.954908
loop_
_atom_site_label
_atom_site_type_symbol
_atom_site_fract_x
_atom_site_fract_y
_atom_site_fract_z
O1	O	1.003515	0.061159	-0.066365
O2	O	1.336848	0.394492	0.266969
O3	O	1.670182	0.727826	0.600302
O4	O	0.783066	0.069105	-0.066353
O5	O	1.116399	0.402438	0.266980
O6	O	1.449732	0.735772	0.600313
O7	O	0.900158	-0.005242	-0.066342
O8	O	1.233491	0.328092	0.266991
O9	O	1.566824	0.661425	0.600324
O10	O	0.886423	0.135506	-0.066376
O11	O	1.219756	0.468839	0.266957
O12	O	1.553090	0.802172	0.600291
O13	O	0.900142	-0.005246	0.066234
O14	O	1.233476	0.328087	0.399568
O15	O	1.566809	0.661421	0.732901
O16	O	0.783050	0.069101	0.066223
O17	O	1.116384	0.402434	0.399557
O18	O	1.449717	0.735767	0.732890
O19	O	1.003500	0.061154	0.066212
O20	O	1.336833	0.394488	0.399545
O21	O	1.670166	0.727821	0.732878
Zn22	Zn	0.893273	0.065127	0.087267
Zn23	Zn	1.226606	0.398460	0.420600
Zn24	Zn	1.559939	0.731793	0.753933
Zn25	Zn	0.893293	0.065133	-0.087408
Zn26	Zn	1.226626	0.398466	0.245925
Zn27	Zn	1.559959	0.731799	0.579258
O28	O	0.886408	0.135501	0.066201
O29	O	1.219741	0.468834	0.399534
O30	O	1.553074	0.802168	0.732867
C31	C	0.754864	0.068817	-0.000063
C32	C	1.088197	0.402150	0.333270
C33	C	1.421530	0.735484	0.666603
C34	C	0.670854	0.067960	-0.000058
C35	C	1.004187	0.401293	0.333275
C36	C	1.337521	0.734626	0.666609
C37	C	0.155192	0.062706	-0.072356
C38	C	0.488525	0.396040	0.260977
C39	C	0.821859	0.729373	0.594310
C40	C	0.234129	0.063509	-0.072353
C41	C	0.567462	0.396842	0.260981
C42	C	0.900795	0.730175	0.594314
C43	C	0.273583	0.063908	-0.000082
C44	C	0.606916	0.397241	0.333251
C45	C	0.940249	0.730575	0.666585
C46	C	0.234097	0.063500	0.072189
C47	C	0.567430	0.396834	0.405523
C48	C	0.900764	0.730167	0.738856
C49	C	0.155162	0.062694	0.072185
C50	C	0.488496	0.396028	0.405518
C51	C	0.821829	0.729361	0.738852
C52	C	0.552431	0.066749	0.072210
C53	C	0.885765	0.400083	0.405543
C54	C	1.219098	0.733416	0.738876
C55	C	0.631371	0.067557	0.072209
C56	C	0.964704	0.400890	0.405542
C57	C	1.298038	0.734223	0.738875
C58	C	0.631398	0.067564	-0.072328
C59	C	0.964731	0.400897	0.261005
C60	C	1.298065	0.734230	0.594339
C61	C	0.552463	0.066758	-0.072332
C62	C	0.885797	0.400091	0.261001
C63	C	1.219130	0.733424	0.594334
C64	C	0.512985	0.066347	-0.000061
C65	C	0.846318	0.399681	0.333272
C66	C	1.179652	0.733014	0.666605
C67	C	0.427393	0.065476	-0.000066
C68	C	0.760726	0.398810	0.333267
C69	C	1.094060	0.732143	0.666600
C70	C	0.359173	0.064783	-0.000076
C71	C	0.692506	0.398116	0.333257
C72	C	1.025839	0.731449	0.666590
C73	C	0.899868	-0.023252	-0.000051
C74	C	1.233201	0.310081	0.333282
C75	C	1.566534	0.643414	0.666615
C76	C	0.899018	-0.076912	-0.000043
C77	C	1.232351	0.256422	0.333290
C78	C	1.565685	0.589755	0.666624
C79	C	0.893680	-0.409645	-0.072349
C80	C	1.227013	-0.076311	0.260984
C81	C	1.560346	0.257022	0.594318
C82	C	0.890453	-0.611315	-0.072363
C83	C	1.223786	-0.277981	0.260970
C84	C	1.557119	0.055352	0.594304
O85	O	0.890010	-0.637385	-0.133824
O86	O	1.223343	-0.304052	0.199509
O87	O	1.556677	0.029282	0.532843
N88	N	0.890044	-0.636536	-0.000096
N89	N	1.223377	-0.303202	0.333237
N90	N	1.556710	0.030131	0.666570
C91	C	0.890436	-0.611336	0.072179
C92	C	1.223769	-0.278003	0.405513
C93	C	1.557103	0.055331	0.738846
O94	O	0.890006	-0.637415	0.133646
O95	O	1.223340	-0.304081	0.466980
O96	O	1.556673	0.029252	0.800313
C97	C	0.893658	-0.409666	0.072192
C98	C	1.226991	-0.076333	0.405526
C99	C	1.560324	0.257000	0.738859
C100	C	0.894075	-0.384449	-0.000079
C101	C	1.227408	-0.051115	0.333254
C102	C	1.560741	0.282218	0.666587
C103	C	0.894096	-0.384427	-0.144615
C104	C	1.227429	-0.051094	0.188719
C105	C	1.560762	0.282240	0.522052
C106	C	0.894907	-0.334013	-0.144611
C107	C	1.228240	-0.000679	0.188723
C108	C	1.561573	0.332654	0.522056
C109	C	0.895301	-0.308817	-0.072341
C110	C	1.228635	0.024517	0.260993
C111	C	1.561968	0.357850	0.594326
C112	C	0.894885	-0.334035	-0.000075
C113	C	1.228219	-0.000701	0.333258
C114	C	1.561552	0.332632	0.666592
C115	C	0.894045	-0.384467	0.144467
C116	C	1.227378	-0.051134	0.477800
C117	C	1.560712	0.282200	0.811133
C118	C	0.894848	-0.334046	0.144464
C119	C	1.228182	-0.000713	0.477797
C120	C	1.561515	0.332620	0.811130
C121	C	0.895265	-0.308828	0.072192
C122	C	1.228599	0.024505	0.405525
C123	C	1.561932	0.357838	0.738859
C124	C	0.896091	-0.258424	0.072199
C125	C	1.229425	0.074909	0.405532
C126	C	1.562758	0.408242	0.738866
N127	N	0.896500	-0.233203	-0.000068
N128	N	1.229834	0.100130	0.333265
N129	N	1.563167	0.433464	0.666599
C130	C	0.896105	-0.258399	-0.072338
C131	C	1.229439	0.074934	0.260996
C132	C	1.562772	0.408267	0.594329
C133	C	0.888746	-0.717215	0.072167
C134	C	1.222080	-0.383882	0.405501
C135	C	1.555413	-0.050549	0.738834
C136	C	0.887942	-0.767633	0.072164
C137	C	1.221276	-0.434299	0.405498
C138	C	1.554609	-0.100966	0.738831
C139	C	0.887957	-0.767608	-0.072378
C140	C	1.221291	-0.434275	0.260955
C141	C	1.554624	-0.100941	0.594288
C142	C	0.888767	-0.717190	-0.072374
C143	C	1.222100	-0.383857	0.260959
C144	C	1.555434	-0.050524	0.594292
C145	C	0.889155	-0.691994	-0.000100
C146	C	1.222489	-0.358661	0.333234
C147	C	1.555822	-0.025328	0.666567
C148	C	0.897809	-0.152526	-0.072323
C149	C	1.231142	0.180807	0.261010
C150	C	1.564476	0.514141	0.594343
C151	C	0.898623	-0.102108	-0.072313
C152	C	1.231956	0.231226	0.261021
C153	C	1.565290	0.564559	0.594354
C154	C	0.898604	-0.102137	0.072229
C155	C	1.231937	0.231197	0.405562
C156	C	1.565271	0.564530	0.738896
C157	C	0.897794	-0.152551	0.072219
C158	C	1.231127	0.180782	0.405552
C159	C	1.564461	0.514116	0.738886
C160	C	0.897394	-0.177744	-0.000064
C161	C	1.230727	0.155589	0.333270
C162	C	1.564061	0.488923	0.666603
O163	O	0.896526	-0.232322	0.133628
O164	O	1.229859	0.101011	0.466961
O165	O	1.563192	0.434344	0.800295
O166	O	0.896519	-0.232310	-0.133796
O167	O	1.229852	0.101023	0.199538
O168	O	1.563185	0.434356	0.532871
C169	C	0.892869	-0.460059	-0.072353
C170	C	1.226202	-0.126726	0.260980
C171	C	1.559536	0.206608	0.594313
C172	C	0.892453	-0.485277	-0.000088
C173	C	1.225786	-0.151944	0.333246
C174	C	1.559120	0.181390	0.666579
C175	C	0.892848	-0.460081	0.072182
C176	C	1.226181	-0.126747	0.405515
C177	C	1.559514	0.206586	0.738849
C178	C	0.891649	-0.535694	-0.000091
C179	C	1.224982	-0.202361	0.333243
C180	C	1.558316	0.130973	0.666576
C181	C	0.891254	-0.560890	-0.072361
C182	C	1.224587	-0.227557	0.260973
C183	C	1.557921	0.105776	0.594306
C184	C	0.891663	-0.535669	-0.144627
C185	C	1.224996	-0.202336	0.188706
C186	C	1.558330	0.130997	0.522039
C187	C	0.892474	-0.485255	-0.144623
C188	C	1.225807	-0.151922	0.188710
C189	C	1.559141	0.181412	0.522044
C190	C	0.892439	-0.485302	0.144449
C191	C	1.225772	-0.151968	0.477782
C192	C	1.559105	0.181365	0.811116
C193	C	0.891629	-0.535716	0.144439
C194	C	1.224962	-0.202383	0.477772
C195	C	1.558295	0.130951	0.811106
C196	C	0.891234	-0.560912	0.072169
C197	C	1.224567	-0.227579	0.405502
C198	C	1.557900	0.105755	0.738836
C199	C	1.031702	0.061442	-0.000080
C200	C	1.365035	0.394776	0.333253
C201	C	1.698368	0.728109	0.666587
C202	C	1.115711	0.062300	-0.000091
C203	C	1.449045	0.395633	0.333243
C204	C	1.782378	0.728967	0.666576
C205	C	0.886698	0.153512	-0.000092
C206	C	1.220031	0.486845	0.333241
C207	C	1.553364	0.820178	0.666574
C208	C	0.887547	0.207171	-0.000106
C209	C	1.220881	0.540504	0.333228
C210	C	1.554214	0.873838	0.666561
N211	N	0.893264	0.065122	0.206478
N212	N	1.226598	0.398456	0.539811
N213	N	1.559931	0.731789	0.873145
N214	N	0.893307	0.065133	-0.206620
N215	N	1.226640	0.398467	0.126714
N216	N	1.559974	0.731800	0.460047
C217	C	0.945128	0.032215	0.248200
C218	C	1.278461	0.365548	0.581533
C219	C	1.611795	0.698882	0.914867
C220	C	0.945132	0.032215	0.331652
C221	C	1.278466	0.365548	0.664986
C222	C	1.611799	0.698881	0.998319
C223	C	0.893276	0.065124	0.373381
C224	C	1.226609	0.398458	0.706714
C225	C	1.559942	0.731791	1.040048
C226	C	0.841406	0.098033	0.331653
C227	C	1.174740	0.431366	0.664986
C228	C	1.508073	0.764700	0.998320
C229	C	0.841399	0.098031	0.248202
C230	C	1.174732	0.431364	0.581536
C231	C	1.508066	0.764697	0.914869
C232	C	0.841434	0.098043	0.668200
C233	C	1.174767	0.431376	1.001534
C234	C	1.508100	0.764709	1.334867
C235	C	0.841446	0.098043	0.751657
C236	C	1.174780	0.431377	1.084990
C237	C	1.508113	0.764710	1.418323
C238	C	0.945167	0.032226	0.751650
C239	C	1.278500	0.365560	1.084983
C240	C	1.611833	0.698893	1.418317
C241	C	0.945160	0.032224	0.668199
C242	C	1.278493	0.365558	1.001533
C243	C	1.611826	0.698891	1.334866
C244	C	0.893288	0.065131	0.626479
C245	C	1.226621	0.398464	0.959812
C246	C	1.559955	0.731798	1.293146
C247	C	0.893283	0.065131	0.535991
C248	C	1.226616	0.398464	0.869324
C249	C	1.559950	0.731797	1.202657
C250	C	0.893284	0.065127	0.463868
C251	C	1.226617	0.398461	0.797201
C252	C	1.559950	0.731794	1.130534
H253	H	0.898964	-0.081578	-0.131168
H254	H	1.232298	0.251755	0.202166
H255	H	1.565631	0.585089	0.535499
C256	C	1.002220	-0.003977	0.797541
C257	C	1.335553	0.329357	1.130874
C258	C	1.668887	0.662690	1.464208
H259	H	1.033107	-0.023572	0.760736
H260	H	1.366440	0.309761	1.094069
H261	H	1.699774	0.643094	1.427402
H262	H	0.975243	-0.024079	0.830111
H263	H	1.308576	0.309254	1.163444
H264	H	1.641910	0.642588	1.496778
H265	H	1.033520	0.013391	0.830078
H266	H	1.366853	0.346725	1.163412
H267	H	1.700186	0.680058	1.496745
C268	C	0.784398	0.134250	0.622314
C269	C	1.117732	0.467583	0.955648
C270	C	1.451065	0.800917	1.288981
H271	H	0.791816	0.129537	0.566637
H272	H	1.125149	0.462871	0.899971
H273	H	1.458483	0.796204	1.233304
H274	H	0.792245	0.166501	0.635983
H275	H	1.125578	0.499834	0.969316
H276	H	1.458911	0.833168	1.302650
H277	H	0.733945	0.129046	0.636003
H278	H	1.067278	0.462379	0.969337
H279	H	1.400612	0.795712	1.302670
H280	H	0.987388	0.005428	0.634227
H281	H	1.320722	0.338761	0.967560
H282	H	1.654055	0.672094	1.300893
H283	H	0.895243	-0.313485	-0.203462
H284	H	1.228577	0.019849	0.129872
H285	H	1.561910	0.353182	0.463205
C286	C	0.891240	-0.563390	-0.224124
C287	C	1.224573	-0.230057	0.109209
C288	C	1.557906	0.103276	0.442543
H289	H	0.891610	-0.541154	-0.267170
H290	H	1.224943	-0.207821	0.066164
H291	H	1.558276	0.125512	0.399497
H292	H	0.846775	-0.579321	-0.227129
H293	H	1.180108	-0.245988	0.106204
H294	H	1.513442	0.087346	0.439537
H295	H	0.935086	-0.586795	-0.227120
H296	H	1.268420	-0.253462	0.106214
H297	H	1.601753	0.079872	0.439547
C298	C	1.002190	-0.003979	0.377543
C299	C	1.335523	0.329355	0.710876
C300	C	1.668856	0.662688	1.044210
H301	H	1.033080	-0.023573	0.340739
H302	H	1.366413	0.309760	0.674072
H303	H	1.699747	0.643093	1.007406
H304	H	0.975219	-0.024083	0.410116
H305	H	1.308552	0.309251	0.743450
H306	H	1.641886	0.642584	1.076783
H307	H	1.033485	0.013394	0.410077
H308	H	1.366818	0.346727	0.743411
H309	H	1.700152	0.680061	1.076744
H310	H	0.799216	0.124843	0.785631
H311	H	1.132549	0.458176	1.118964
H312	H	1.465882	0.791510	1.452298
H313	H	0.987359	0.005418	0.214230
H314	H	1.320692	0.338752	0.547563
H315	H	1.654025	0.672085	0.880897
H316	H	0.799180	0.124827	0.365633
H317	H	1.132513	0.458160	0.698967
H318	H	1.465847	0.791494	1.032300
C319	C	0.508944	0.066612	0.151700
C320	C	0.842277	0.399946	0.485034
C321	C	1.175611	0.733279	0.818367
H322	H	0.456263	0.066164	0.141352
H323	H	0.789597	0.399498	0.474685
H324	H	1.122930	0.732831	0.808018
H325	H	0.515924	0.095016	0.181060
H326	H	0.849258	0.428349	0.514393
H327	H	1.182591	0.761682	0.847726
H328	H	0.527788	0.038656	0.181727
H329	H	0.861121	0.371990	0.515060
H330	H	1.194454	0.705323	0.848394
H331	H	0.266227	0.063822	0.131033
H332	H	0.599561	0.397156	0.464367
H333	H	0.932894	0.730489	0.797700
C334	C	0.784352	0.134231	0.202308
C335	C	1.117685	0.467564	0.535642
C336	C	1.451019	0.800897	0.868975
H337	H	0.753474	0.153834	0.239111
H338	H	1.086807	0.487167	0.572444
H339	H	1.420140	0.820501	0.905778
H340	H	0.753055	0.116866	0.169771
H341	H	1.086388	0.450199	0.503104
H342	H	1.419722	0.783532	0.836437
H343	H	0.811336	0.154333	0.169738
H344	H	1.144670	0.487666	0.503072
H345	H	1.478003	0.820999	0.836405
H346	H	0.123074	0.062384	-0.131208
H347	H	0.456407	0.395718	0.202126
H348	H	0.789740	0.729051	0.535459
H349	H	0.663492	0.067882	0.131064
H350	H	0.996826	0.401215	0.464397
H351	H	1.330159	0.734549	0.797730
C352	C	0.277554	0.063958	-0.151845
C353	C	0.610887	0.397292	0.181488
C354	C	0.944221	0.730625	0.514821
H355	H	0.242750	0.063611	-0.194887
H356	H	0.576083	0.396945	0.138446
H357	H	0.909417	0.730278	0.471780
H358	H	0.314456	0.036096	-0.154847
H359	H	0.647789	0.369429	0.178486
H360	H	0.981122	0.702762	0.511820
H361	H	0.302237	0.092453	-0.154850
H362	H	0.635570	0.425787	0.178483
H363	H	0.968903	0.759120	0.511816
C364	C	0.111733	0.062250	0.151677
C365	C	0.445066	0.395583	0.485011
C366	C	0.778400	0.728917	0.818344
H367	H	0.146533	0.062608	0.194720
H368	H	0.479866	0.395941	0.528054
H369	H	0.813200	0.729275	0.861387
H370	H	0.087049	0.033759	0.154687
H371	H	0.420382	0.367092	0.488020
H372	H	0.753715	0.700425	0.821353
H373	H	0.074831	0.090116	0.154672
H374	H	0.408164	0.423450	0.488006
H375	H	0.741498	0.756783	0.821339
H376	H	0.520343	0.066435	-0.131183
H377	H	0.853677	0.399768	0.202151
H378	H	1.187010	0.733102	0.535484
C379	C	0.887490	-0.795367	0.151663
C380	C	1.220824	-0.462034	0.484996
C381	C	1.554157	-0.128701	0.818329
H382	H	0.887833	-0.773136	0.194700
H383	H	1.221166	-0.439802	0.528034
H384	H	1.554500	-0.106469	0.861367
H385	H	0.931327	-0.818775	0.154671
H386	H	1.264660	-0.485442	0.488005
H387	H	1.597994	-0.152109	0.821338
H388	H	0.843016	-0.811294	0.154668
H389	H	1.176349	-0.477961	0.488001
H390	H	1.509683	-0.144628	0.821334
H391	H	0.663551	0.067896	-0.131175
H392	H	0.996885	0.401229	0.202159
H393	H	1.330218	0.734562	0.535492
H394	H	0.892761	-0.464792	0.203301
H395	H	1.226095	-0.131459	0.536634
H396	H	1.559428	0.201874	0.869968
C397	C	0.897390	-0.180233	-0.151832
C398	C	1.230723	0.153100	0.181501
C399	C	1.564057	0.486433	0.514834
H400	H	0.897765	-0.157989	-0.194865
H401	H	1.231099	0.175344	0.138469
H402	H	1.564432	0.508678	0.471802
H403	H	0.852928	-0.196165	-0.154857
H404	H	1.186261	0.137168	0.178476
H405	H	1.519595	0.470501	0.511809
H406	H	0.941239	-0.203636	-0.154831
H407	H	1.274573	0.129697	0.178503
H408	H	1.607906	0.463030	0.511836
H409	H	0.893771	-0.404936	-0.203469
H410	H	1.227105	-0.071603	0.129865
H411	H	1.560438	0.261731	0.463198
C412	C	0.889218	-0.689454	-0.151872
C413	C	1.222551	-0.356121	0.181461
C414	C	1.555885	-0.022788	0.514795
H415	H	0.888864	-0.711685	-0.194910
H416	H	1.222197	-0.378352	0.138424
H417	H	1.555530	-0.045019	0.471757
H418	H	0.933683	-0.673523	-0.154882
H419	H	1.267016	-0.340189	0.178451
H420	H	1.600349	-0.006856	0.511785
H421	H	0.845371	-0.666050	-0.154876
H422	H	1.178705	-0.332716	0.178457
H423	H	1.512038	0.000617	0.511791
H424	H	0.892813	-0.464727	-0.203474
H425	H	1.226146	-0.131394	0.129859
H426	H	1.559480	0.201939	0.463193
H427	H	0.887637	-0.788131	-0.131223
H428	H	1.220970	-0.454798	0.202110
H429	H	1.554303	-0.121465	0.535443
C430	C	0.889184	-0.689507	0.151675
C431	C	1.222517	-0.356174	0.485008
C432	C	1.555851	-0.022840	0.818341
H433	H	0.888833	-0.711753	0.194707
H434	H	1.222167	-0.378420	0.528041
H435	H	1.555500	-0.045087	0.861374
H436	H	0.845347	-0.666100	0.154694
H437	H	1.178680	-0.332767	0.488028
H438	H	1.512014	0.000567	0.821361
H439	H	0.933658	-0.673581	0.154678
H440	H	1.266991	-0.340248	0.488012
H441	H	1.600325	-0.006915	0.821345
H442	H	0.893707	-0.404991	0.203318
H443	H	1.227040	-0.071657	0.536651
H444	H	1.560373	0.261676	0.869985
C445	C	0.895279	-0.306334	0.223968
C446	C	1.228612	0.026999	0.557301
C447	C	1.561945	0.360333	0.890635
H448	H	0.894921	-0.328577	0.267004
H449	H	1.228254	0.004756	0.600338
H450	H	1.561587	0.338090	0.933671
H451	H	0.851442	-0.282926	0.226977
H452	H	1.184776	0.050407	0.560310
H453	H	1.518109	0.383741	0.893644
H454	H	0.939753	-0.290409	0.226976
H455	H	1.273087	0.042924	0.560309
H456	H	1.606420	0.376258	0.893643
H457	H	0.897461	-0.173085	0.131068
H458	H	1.230795	0.160248	0.464402
H459	H	1.564128	0.493582	0.797735
H460	H	0.898929	-0.081613	0.131069
H461	H	1.232262	0.251720	0.464403
H462	H	1.565595	0.585054	0.797736
H463	H	0.891295	-0.556244	0.203295
H464	H	1.224628	-0.222911	0.536629
H465	H	1.557962	0.110422	0.869962
