data_functionalizedCrystal
_audit_creation_method	'MofGen! by Chris Wilmer'
_symmetry_space_group_name_H-M	'P1'
_symmetry_Int_Tables_number	1
_symmetry_cell_setting	triclinic
loop_
_symmetry_equiv_pos_as_xyz
  x,y,z
_cell_length_a	14.971486
_cell_length_b	12.376457
_cell_length_c	14.971494
_cell_angle_alpha	78.707853
_cell_angle_beta	83.615843
_cell_angle_gamma	101.301993
loop_
_atom_site_label
_atom_site_type_symbol
_atom_site_fract_x
_atom_site_fract_y
_atom_site_fract_z
O1	O	1.204058	0.093869	0.099461
O2	O	1.704058	0.593869	0.599461
O3	O	0.943664	0.093900	0.113414
O4	O	1.443664	0.593900	0.613414
O5	O	1.080836	0.093881	-0.023761
O6	O	1.580836	0.593881	0.476239
O7	O	1.066886	0.093888	0.236637
O8	O	1.566886	0.593888	0.736637
O9	O	1.046555	-0.094126	0.010486
O10	O	1.546555	0.405874	0.510486
O11	O	0.909383	-0.094108	0.147661
O12	O	1.409383	0.405892	0.647661
O13	O	1.169777	-0.094138	0.133708
O14	O	1.669777	0.405862	0.633708
Zn15	Zn	1.034137	-0.123973	0.146122
Zn16	Zn	1.534137	0.376027	0.646122
Zn17	Zn	1.079304	0.123735	0.101000
Zn18	Zn	1.579304	0.623735	0.601000
O19	O	1.032605	-0.094120	0.270884
O20	O	1.532605	0.405880	0.770884
C21	C	0.893200	-0.000100	0.129913
C22	C	1.393200	0.499900	0.629913
C23	C	0.793905	-0.000089	0.128040
C24	C	1.293905	0.499911	0.628040
N25	N	1.003319	-0.293027	0.176916
N26	N	1.503319	0.206973	0.676916
C27	C	0.736682	-0.000088	0.208629
C28	C	1.236682	0.499912	0.708629
C29	C	0.643379	-0.000105	0.206869
C30	C	1.143379	0.499895	0.706869
C31	C	0.607303	-0.000114	0.124518
C32	C	1.107303	0.499886	0.624518
C33	C	0.664532	-0.000118	0.043923
C34	C	1.164532	0.499882	0.543923
C35	C	0.757831	-0.000109	0.045686
C36	C	1.257831	0.499891	0.545686
C37	C	0.470067	-0.000134	0.040255
C38	C	0.970067	0.499866	0.540255
C39	C	0.376761	-0.000141	0.038492
C40	C	0.876761	0.499859	0.538492
C41	C	0.355614	-0.000130	0.201438
C42	C	0.855614	0.499870	0.701438
C43	C	0.448914	-0.000121	0.203201
C44	C	0.948914	0.499879	0.703201
C45	C	0.506137	-0.000122	0.122605
C46	C	1.006137	0.499878	0.622605
C47	C	1.181669	-0.648037	-0.001302
C48	C	1.681669	-0.148037	0.498698
C49	C	1.203233	-0.529700	-0.022854
C50	C	1.703233	-0.029700	0.477146
C51	C	1.153256	-0.470526	0.027086
C52	C	1.653256	0.029474	0.527086
C53	C	1.081711	-0.529700	0.098584
C54	C	1.581711	-0.029700	0.598584
C55	C	1.060149	-0.648049	0.120144
C56	C	1.560149	-0.148049	0.620144
C57	C	1.031737	-0.470538	0.148531
C58	C	1.531737	0.029462	0.648531
C59	C	0.960192	-0.529713	0.220029
C60	C	1.460192	-0.029713	0.720029
C61	C	0.938633	-0.648050	0.241585
C62	C	1.438633	-0.148050	0.741585
C63	C	0.988610	-0.707224	0.191644
C64	C	1.488610	-0.207224	0.691644
C65	C	1.053299	-0.352190	0.126972
C66	C	1.553299	0.147810	0.626972
C67	C	0.931780	-0.352202	0.248417
C68	C	1.431780	0.147798	0.748417
C69	C	0.910215	-0.470539	0.269970
C70	C	1.410215	0.029461	0.769970
C71	C	1.220242	-0.000136	0.117209
C72	C	1.720242	0.499864	0.617209
C73	C	1.319539	-0.000140	0.119081
C74	C	1.819539	0.499860	0.619081
C75	C	1.063071	-0.000121	-0.039963
C76	C	1.563071	0.499879	0.460037
C77	C	1.061198	-0.000115	-0.139260
C78	C	1.561198	0.499885	0.360740
N79	N	1.110129	0.292789	0.070199
N80	N	1.610129	0.792789	0.570199
C81	C	1.079006	0.102369	-0.204573
C82	C	1.579006	0.602369	0.295427
C83	C	1.077240	0.102370	-0.297873
C84	C	1.577240	0.602370	0.202127
C85	C	1.057672	-0.000113	-0.325858
C86	C	1.557672	0.499887	0.174142
C87	C	1.039859	-0.102606	-0.260537
C88	C	1.539859	0.397394	0.239463
C89	C	1.041619	-0.102606	-0.167238
C90	C	1.541619	0.397394	0.332762
C91	C	1.036195	-0.102598	-0.455001
C92	C	1.536195	0.397402	0.044999
C93	C	1.034437	-0.102598	-0.548306
C94	C	1.534437	0.397402	-0.048306
C95	C	1.071816	0.102379	-0.585636
C96	C	1.571816	0.602379	-0.085636
C97	C	1.073576	0.102379	-0.492337
C98	C	1.573576	0.602379	0.007663
C99	C	1.055765	-0.000114	-0.427023
C100	C	1.555765	0.499886	0.072977
C101	C	1.050371	-0.000115	0.287085
C102	C	1.550371	0.499885	0.787085
C103	C	1.052245	-0.000113	0.386381
C104	C	1.552245	0.499887	0.886381
H105	H	0.766047	-0.000080	0.275689
H106	H	1.266047	0.499920	0.775689
H107	H	0.891085	-0.304024	0.289085
H108	H	1.391085	0.195976	0.789085
Br109	Br	1.105574	0.241462	-0.166605
Br110	Br	1.605574	0.741462	0.333395
Br111	Br	0.835491	-0.000120	-0.063687
Br112	Br	1.335491	0.499880	0.436313
H113	H	1.261485	-0.481524	-0.081066
H114	H	1.761485	0.018476	0.418934
Br115	Br	1.150394	-0.271896	0.029944
Br116	Br	1.650394	0.228104	0.529944
Br117	Br	0.547726	-0.000142	-0.069124
Br118	Br	1.047726	0.499858	0.430876
Br119	Br	1.007884	-0.241684	-0.586286
Br120	Br	1.507884	0.258316	-0.086286
Br121	Br	0.615570	-0.000142	-0.067839
Br122	Br	1.115570	0.499858	0.432161
Br123	Br	1.249498	-0.728343	-0.069061
Br124	Br	1.749498	-0.228343	0.430939
Br125	Br	1.012024	-0.241696	-0.366360
Br126	Br	1.512024	0.258304	0.133640
Br127	Br	0.841550	-0.728362	0.338630
Br128	Br	1.341550	-0.228362	0.838630
Br129	Br	0.565723	-0.000101	0.316244
Br130	Br	1.065723	0.499899	0.816244
H131	H	1.023921	-0.186050	-0.283328
H132	H	1.523921	0.313950	0.216672
H133	H	1.086317	0.185832	-0.638820
H134	H	1.586317	0.685832	-0.138820
H135	H	1.027105	-0.186059	-0.114058
H136	H	1.527105	0.313941	0.385942
H137	H	0.347391	-0.000150	-0.028565
H138	H	0.847391	0.499850	0.471435
H139	H	0.851962	-0.518734	0.328185
H140	H	1.351962	-0.018734	0.828185
Br141	Br	0.497878	-0.000091	0.314961
Br142	Br	0.997878	0.499909	0.814961
H143	H	0.309017	-0.000133	0.267063
H144	H	0.809017	0.499867	0.767063
H145	H	1.170818	-0.374170	0.009534
H146	H	1.670818	0.125830	0.509534
H147	H	0.971050	-0.803583	0.209190
H148	H	1.471050	-0.303583	0.709190
Br149	Br	1.101409	0.241463	-0.386510
Br150	Br	1.601409	0.741463	0.113490
Br151	Br	1.100145	0.241465	-0.454359
Br152	Br	1.600145	0.741465	0.045641
