data_functionalizedCrystal
_audit_creation_method	'MofGen! by Chris Wilmer'
_symmetry_space_group_name_H-M	'P1'
_symmetry_Int_Tables_number	1
_symmetry_cell_setting	triclinic
loop_
_symmetry_equiv_pos_as_xyz
  x,y,z
_cell_length_a	15.944545
_cell_length_b	23.532357
_cell_length_c	15.021413
_cell_angle_alpha	89.998468
_cell_angle_beta	89.995468
_cell_angle_gamma	83.162232
loop_
_atom_site_label
_atom_site_type_symbol
_atom_site_fract_x
_atom_site_fract_y
_atom_site_fract_z
O1	O	1.113894	0.073427	-0.073986
O2	O	0.869265	0.082486	-0.074001
O3	O	0.998978	-0.004948	-0.073975
O4	O	0.984181	0.160862	-0.074012
O5	O	0.998957	-0.004936	0.074090
O6	O	0.869244	0.082499	0.074063
O7	O	1.113873	0.073439	0.074079
Zn8	Zn	0.991556	0.077971	0.097579
Zn9	Zn	0.991583	0.077955	-0.097502
O10	O	0.984160	0.160874	0.074052
C11	C	0.837964	0.082117	0.000029
C12	C	0.744727	0.080992	0.000024
C13	C	0.474595	0.023432	0.000046
C14	C	0.524925	0.051189	0.073046
C15	C	0.409118	0.076977	0.000040
C16	C	0.524926	0.051191	-0.072934
C17	C	0.574015	0.078947	0.000031
C18	C	0.458220	0.104720	0.073100
C19	C	0.458218	0.104714	-0.072946
C20	C	0.508515	0.132510	0.000071
C21	C	0.314126	0.075841	0.000046
C22	C	0.669004	0.080087	0.000031
C23	C	0.998598	-0.026160	0.000060
C24	C	0.997485	-0.089383	0.000068
C25	C	0.990510	-0.481428	-0.080690
C26	C	0.989452	-0.540832	-0.080695
O27	O	0.988886	-0.571556	-0.149336
N28	N	0.988916	-0.570538	0.000014
C29	C	0.989430	-0.540837	0.080733
O30	O	0.988876	-0.571559	0.149381
C31	C	0.990482	-0.481434	0.080737
C32	C	0.991026	-0.451732	0.000023
C33	C	0.991053	-0.451725	-0.161397
C34	C	0.992113	-0.392326	-0.161392
C35	C	0.992629	-0.362630	-0.080679
C36	C	0.992085	-0.392332	0.000029
C37	C	0.990989	-0.451734	0.161455
C38	C	0.992040	-0.392327	0.161452
C39	C	0.992585	-0.362624	0.080738
C40	C	0.993661	-0.303236	0.080747
N41	N	0.994196	-0.273530	0.000038
C42	C	0.993681	-0.303227	-0.080675
C43	C	0.987220	-0.665587	0.080718
C44	C	0.986174	-0.724990	0.080715
C45	C	0.986195	-0.724980	-0.080714
C46	C	0.987246	-0.665577	-0.080709
C47	C	0.987755	-0.635881	0.000009
C48	C	0.995906	-0.178484	-0.080657
C49	C	0.996969	-0.119080	-0.080644
C50	C	0.996944	-0.119094	0.080783
C51	C	0.995885	-0.178494	0.080771
C52	C	0.995364	-0.208187	0.000044
O53	O	0.994224	-0.272474	0.149352
O54	O	0.994223	-0.272496	-0.149312
C55	C	1.145174	0.073809	0.000046
C56	C	1.238411	0.074934	0.000046
C57	C	0.984541	0.182086	0.000015
C58	C	0.985653	0.245309	0.000001
N59	N	0.991543	0.077982	0.230717
N60	N	0.991602	0.077939	-0.230639
C61	C	0.931555	0.118393	0.470388
C62	C	1.007359	0.129448	0.529724
C63	C	0.991565	0.077968	0.412324
C64	C	0.915781	0.066925	0.529729
C65	C	0.991579	0.077955	0.587748
C66	C	1.067407	0.089049	0.470354
C67	C	0.975779	0.026503	0.470353
C68	C	1.051639	0.037537	0.529663
C69	C	0.991555	0.077976	0.311266
C70	C	0.991597	0.077946	0.688803
H71	H	0.429206	0.127322	0.134881
O72	O	0.423540	0.131742	-0.146558
C73	C	0.402303	0.219485	-0.230635
C74	C	0.441636	0.188948	-0.147235
H75	H	0.416905	0.265744	-0.231200
H76	H	0.429867	0.196625	-0.292853
H77	H	0.330959	0.218700	-0.229562
H78	H	0.512981	0.189725	-0.148222
H79	H	0.414006	0.211817	-0.085054
H80	H	0.554048	0.028563	-0.134646
H81	H	0.997414	-0.094899	-0.146374
H82	H	0.523606	0.178660	0.000104
H83	H	0.880857	0.152607	0.444362
H84	H	0.995477	-0.202653	-0.146393
O85	O	1.023162	0.181402	0.560802
C86	C	0.977815	0.282756	0.565816
C87	C	0.959816	0.223952	0.530583
H88	H	0.926621	0.317175	0.541383
H89	H	0.978238	0.282156	0.641703
H90	H	1.041955	0.292472	0.540392
H91	H	0.895674	0.214199	0.555941
H92	H	0.959447	0.224581	0.454697
H93	H	0.992553	-0.368147	-0.227117
H94	H	0.990630	-0.475898	-0.227127
H95	H	0.962391	-0.017000	0.444254
O96	O	0.987730	-0.636810	-0.159194
C97	C	0.987693	-0.643092	-0.319307
C98	C	0.987127	-0.675734	-0.230484
H99	H	0.987224	-0.674549	-0.376969
H100	H	0.929379	-0.610084	-0.323412
H101	H	1.046962	-0.620475	-0.323292
H102	H	0.927898	-0.698385	-0.226440
H103	H	1.045481	-0.708710	-0.226417
O104	O	0.559693	0.024313	0.146747
C105	C	0.639920	0.032659	0.281073
C106	C	0.600574	0.063172	0.197660
H107	H	0.672997	0.064060	0.322250
H108	H	0.588163	0.016115	0.322684
H109	H	0.687781	-0.004806	0.259998
H110	H	0.552721	0.100660	0.218655
H111	H	0.652377	0.079675	0.156069
H112	H	0.987637	-0.641412	0.146453
H113	H	0.985772	-0.749169	-0.146435
O114	O	1.143939	0.100160	0.439397
C115	C	1.293830	0.070462	0.435183
C116	C	1.207222	0.057796	0.470302
H117	H	1.345020	0.036225	0.460171
H118	H	1.293220	0.070365	0.359292
H119	H	1.307371	0.114203	0.460140
H120	H	1.193627	0.014053	0.445412
H121	H	1.207876	0.057930	0.546192
O122	O	0.456431	-0.031588	0.000297
C123	C	0.469995	-0.121968	0.077528
C124	C	0.490609	-0.059671	0.077361
H125	H	0.497633	-0.144694	0.139818
H126	H	0.398565	-0.122344	0.076948
H127	H	0.498578	-0.144998	0.015896
H128	H	0.462081	-0.036604	0.138982
H129	H	0.562046	-0.059336	0.077895
O130	O	0.985619	-0.753749	0.159200
C131	C	0.985761	-0.747477	0.319313
C132	C	0.986377	-0.714839	0.230490
H133	H	0.986391	-0.716034	0.376975
H134	H	0.926460	-0.770054	0.323409
H135	H	1.044042	-0.780518	0.323307
H136	H	0.928136	-0.681770	0.226437
H137	H	1.045716	-0.692300	0.226432
O138	O	0.990419	-0.480486	0.239942
C139	C	0.990536	-0.474202	0.400054
C140	C	0.991166	-0.441570	0.311227
H141	H	0.991158	-0.442755	0.457711
H142	H	0.931234	-0.496779	0.404144
H143	H	1.048815	-0.507243	0.404062
H144	H	0.932927	-0.408502	0.307159
H145	H	1.050506	-0.419033	0.307174
H146	H	1.102448	0.003343	0.555526
O147	O	0.992386	-0.363439	0.239840
C148	C	0.920806	-0.289895	0.333495
C149	C	0.920298	-0.322574	0.244703
H150	H	0.862538	-0.256840	0.337447
H151	H	0.920181	-0.321299	0.391215
H152	H	0.980117	-0.267327	0.337530
H153	H	0.860997	-0.345144	0.240581
H154	H	0.920968	-0.291144	0.187025
O155	O	0.995328	-0.207260	0.159254
C156	C	0.995466	-0.200997	0.319368
C157	C	0.996089	-0.168354	0.230550
H158	H	0.996099	-0.169557	0.377034
H159	H	0.936161	-0.223570	0.323459
H160	H	1.053743	-0.234041	0.323360
H161	H	0.937853	-0.135282	0.226499
H162	H	1.055432	-0.145820	0.226497
H163	H	0.997368	-0.094905	0.146497
H164	H	0.851686	0.057591	0.555812
