data_functionalizedCrystal
_audit_creation_method	'MofGen! by Chris Wilmer'
_symmetry_space_group_name_H-M	'P1'
_symmetry_Int_Tables_number	1
_symmetry_cell_setting	triclinic
loop_
_symmetry_equiv_pos_as_xyz
  x,y,z
_cell_length_a	11.792241
_cell_length_b	9.065218
_cell_length_c	7.540329
_cell_angle_alpha	89.998628
_cell_angle_beta	89.997406
_cell_angle_gamma	95.395350
loop_
_atom_site_label
_atom_site_type_symbol
_atom_site_fract_x
_atom_site_fract_y
_atom_site_fract_z
O1	O	1.508026	-0.202221	0.147302
O2	O	1.841359	0.131112	0.480636
O3	O	2.174692	0.464446	0.813969
O4	O	1.177800	-0.223062	0.147343
O5	O	1.511134	0.110271	0.480676
O6	O	1.844467	0.443604	0.814010
O7	O	1.349739	0.002065	0.147318
O8	O	1.683072	0.335398	0.480652
O9	O	2.016405	0.668731	0.813985
O10	O	1.336087	-0.427348	0.147327
O11	O	1.669421	-0.094015	0.480660
O12	O	2.002754	0.239319	0.813994
O13	O	1.349733	0.002066	-0.147647
O14	O	1.683066	0.335400	0.185687
O15	O	2.016399	0.668733	0.519020
O16	O	1.177794	-0.223061	-0.147622
O17	O	1.511128	0.110273	0.185711
O18	O	1.844461	0.443606	0.519045
O19	O	1.508020	-0.202219	-0.147663
O20	O	1.841353	0.131114	0.185671
O21	O	2.174686	0.464447	0.519004
Cu22	Cu	1.342906	-0.212640	-0.174575
Cu23	Cu	1.676240	0.120693	0.158758
Cu24	Cu	2.009573	0.454027	0.492092
Cu25	Cu	1.342914	-0.212642	0.174255
Cu26	Cu	1.676247	0.120691	0.507589
Cu27	Cu	2.009580	0.454025	0.840922
O28	O	1.336081	-0.427346	-0.147638
O29	O	1.669415	-0.094013	0.185695
O30	O	2.002748	0.239320	0.519029
C31	C	1.348424	0.057040	-0.000161
C32	C	1.681757	0.390373	0.333172
C33	C	2.015090	0.723707	0.666505
C34	C	1.344501	0.220846	-0.000152
C35	C	1.677834	0.554179	0.333181
C36	C	2.011167	0.887513	0.666514
C37	C	1.135499	-0.221752	-0.000134
C38	C	1.468832	0.111581	0.333199
C39	C	1.802166	0.444914	0.666532
C40	C	1.009464	-0.217834	-0.000119
C41	C	1.342797	0.115499	0.333215
C42	C	1.676130	0.448833	0.666548
N43	N	1.342910	-0.212638	-0.419923
N44	N	1.676243	0.120696	-0.086590
N45	N	2.009576	0.454029	0.246743
C46	C	0.778711	-0.210629	-0.000170
C47	C	1.112045	0.122705	0.333164
C48	C	1.445378	0.456038	0.666497
C49	C	0.907119	-0.214632	-0.000142
C50	C	1.240452	0.118701	0.333192
C51	C	1.573786	0.452035	0.666525
C52	C	1.550321	-0.203529	-0.000181
C53	C	1.883654	0.129804	0.333152
C54	C	2.216988	0.463137	0.666485
C55	C	1.676356	-0.207448	-0.000185
C56	C	2.009690	0.125886	0.333148
C57	C	2.343023	0.459219	0.666481
C58	C	1.337396	-0.482322	-0.000154
C59	C	1.670730	-0.148988	0.333179
C60	C	2.004063	0.184345	0.666512
C61	C	1.341319	-0.646128	-0.000152
C62	C	1.674652	-0.312794	0.333182
C63	C	2.007986	0.020539	0.666515
N64	N	1.342919	-0.212633	0.419604
N65	N	1.676252	0.120701	0.752937
N66	N	2.009586	0.454034	1.086270
