data_functionalizedCrystal
_audit_creation_method	'MofGen! by Chris Wilmer'
_symmetry_space_group_name_H-M	'P1'
_symmetry_Int_Tables_number	1
_symmetry_cell_setting	triclinic
loop_
_symmetry_equiv_pos_as_xyz
  x,y,z
_cell_length_a	19.805407
_cell_length_b	15.296598
_cell_length_c	19.805407
_cell_angle_alpha	80.303296
_cell_angle_beta	90.009221
_cell_angle_gamma	80.296810
loop_
_atom_site_label
_atom_site_type_symbol
_atom_site_fract_x
_atom_site_fract_y
_atom_site_fract_z
Zn1	Zn	0.988000	0.359387	0.336023
Zn2	Zn	0.968346	0.510248	0.203232
Zn3	Zn	0.874837	0.359374	0.222849
Zn4	Zn	0.855191	0.510237	0.316380
O5	O	0.921594	0.434811	0.269621
O6	O	1.080109	0.379408	0.318418
O7	O	0.955939	0.490233	0.111118
O8	O	0.906296	0.233103	0.254292
O9	O	1.065669	0.490245	0.220858
O10	O	0.989436	0.233112	0.337440
O11	O	0.887238	0.379387	0.125530
O12	O	0.777516	0.379377	0.235245
O13	O	0.872811	0.490228	0.413702
O14	O	0.763081	0.490215	0.303963
O15	O	0.970386	0.379398	0.428134
O16	O	0.936889	0.636519	0.201812
O17	O	0.853754	0.636511	0.284941
C18	C	0.745740	0.434794	0.269601
C19	C	0.670506	0.434808	0.269606
C20	C	0.891075	0.669256	0.239131
C21	C	0.878081	0.769553	0.226110
C22	C	0.627652	0.492609	0.305306
C23	C	0.556964	0.492611	0.305315
C24	C	0.529129	0.434816	0.269621
C25	C	0.571989	0.377009	0.233920
C26	C	0.642677	0.377003	0.233915
C27	C	0.286913	0.377029	0.233940
C28	C	0.216219	0.377040	0.233946
C29	C	0.201200	0.492636	0.305340
C30	C	0.271888	0.492631	0.305335
C31	C	0.314741	0.434821	0.269638
C32	C	0.391390	0.434818	0.269629
C33	C	0.452482	0.434822	0.269625
C34	C	0.828712	0.816748	0.176660
C35	C	0.816506	0.910982	0.164429
C36	C	0.853664	0.958029	0.201651
C37	C	0.903031	0.910834	0.251106
C38	C	0.915241	0.816592	0.263334
C39	C	0.940194	0.957873	0.288325
C40	C	0.989560	0.910678	0.337780
C41	C	1.001768	0.816445	0.350006
C42	C	0.964610	0.769397	0.312784
C43	C	0.927983	1.052116	0.276097
C44	C	1.014512	1.051960	0.362771
C45	C	1.026718	0.957726	0.375001
C46	C	1.098134	0.434829	0.269641
C47	C	1.173365	0.434837	0.269650
C48	C	0.921599	0.434813	0.446164
C49	C	0.921602	0.434814	0.521395
C50	C	0.952207	1.199451	0.300251
C51	C	0.965143	1.099155	0.313321
C52	C	0.972402	0.377114	0.564254
C53	C	0.972397	0.377111	0.634943
C54	C	0.921593	0.434814	0.662771
C55	C	0.870787	0.492516	0.619907
C56	C	0.870791	0.492514	0.549221
C57	C	0.870773	0.492527	0.904979
C58	C	0.870775	0.492527	0.975671
C59	C	0.972379	0.377124	0.990701
C60	C	0.972382	0.377122	0.920015
C61	C	0.921575	0.434821	0.877158
C62	C	0.921581	0.434822	0.800509
C63	C	0.921590	0.434818	0.739418
C64	C	0.921579	0.434828	1.093763
C65	C	0.921573	0.434822	1.018532
H66	H	0.650309	0.539676	0.334370
H67	H	0.321795	0.329963	0.204866
H68	H	0.829420	0.539495	0.642571
H69	H	0.974542	0.692664	0.322744
O70	O	0.189254	0.320934	0.199170
C71	C	0.203953	0.340522	0.129137
H72	H	0.250764	0.375201	0.123179
H73	H	0.158135	0.386869	0.100254
C74	C	0.161178	0.209871	0.107019
C75	C	0.218675	0.252458	0.099702
H76	H	0.170256	0.155551	0.088861
H77	H	0.151272	0.196676	0.154201
H78	H	0.123001	0.248504	0.082950
H79	H	0.256848	0.213831	0.123779
H80	H	0.228588	0.265645	0.052524
O81	O	1.074595	0.911915	0.423130
C82	C	1.056780	0.934931	0.487589
H83	H	0.999343	0.960903	0.487586
H84	H	1.085980	0.989573	0.498228
C85	C	1.146011	0.819275	0.543636
C86	C	1.075464	0.851168	0.543634
H87	H	1.157539	0.767608	0.578209
H88	H	1.158016	0.803770	0.500209
H89	H	1.170336	0.864818	0.552500
H90	H	1.051141	0.805629	0.534762
H91	H	1.063456	0.866663	0.587062
O92	O	1.049650	0.770640	0.398132
C93	C	1.031837	0.793658	0.462591
H94	H	0.974398	0.819619	0.462593
H95	H	1.061031	0.848308	0.473225
C96	C	1.121082	0.678019	0.518635
C97	C	1.050533	0.709899	0.518639
H98	H	1.132617	0.626355	0.553209
H99	H	1.133085	0.662514	0.475208
H100	H	1.145401	0.723569	0.527495
H101	H	1.026215	0.664354	0.509771
H102	H	1.038527	0.725395	0.562066
H103	H	1.044771	1.090266	0.393079
O104	O	0.299034	0.548740	0.339952
C105	C	0.370617	0.536323	0.332308
H106	H	0.384118	0.506666	0.283964
H107	H	0.396928	0.488345	0.378749
C108	C	0.378447	0.664054	0.385905
C109	C	0.395029	0.627636	0.326524
H110	H	0.393508	0.720379	0.382340
H111	H	0.330221	0.672419	0.391057
H112	H	0.400374	0.624064	0.424600
H113	H	0.373096	0.667620	0.287832
H114	H	0.443253	0.619281	0.321365
O115	O	0.159478	0.548703	0.340014
C116	C	0.091116	0.536333	0.332355
H117	H	0.090523	0.466649	0.319340
H118	H	0.064090	0.589781	0.289295
C119	C	0.054477	0.630339	0.415725
C120	C	0.053749	0.544749	0.399745
H121	H	0.031426	0.635534	0.457292
H122	H	0.100533	0.638676	0.420883
H123	H	0.031956	0.674870	0.379836
H124	H	0.076277	0.500221	0.435628
H125	H	0.007696	0.536404	0.394594
O126	O	0.792579	0.771186	0.140428
C127	C	0.746371	0.833044	0.094174
H128	H	0.765393	0.900192	0.083137
H129	H	0.693644	0.843108	0.117611
C130	C	0.718059	0.713843	0.040452
C131	C	0.741426	0.796313	0.026892
H132	H	0.715006	0.691185	-0.001050
H133	H	0.749188	0.672167	0.071616
H134	H	0.674123	0.722240	0.059984
H135	H	0.785365	0.787912	0.007368
H136	H	0.710304	0.837987	-0.004277
H137	H	0.829418	0.539490	0.514327
H138	H	0.522075	0.539678	0.334385
O139	O	0.544904	0.320992	0.199160
C140	C	0.497318	0.372274	0.148725
H141	H	0.509372	0.443332	0.135209
H142	H	0.443340	0.375434	0.169243
C143	C	0.487164	0.240763	0.100772
C144	C	0.501973	0.328035	0.084167
H145	H	0.490032	0.213473	0.060951
H146	H	0.519222	0.206212	0.134753
H147	H	0.442183	0.243408	0.117872
H148	H	0.546955	0.325388	0.067076
H149	H	0.469922	0.362585	0.050182
O150	O	0.684205	0.320832	0.199171
C151	C	0.644484	0.269808	0.167679
H152	H	0.589284	0.306766	0.160489
H153	H	0.645886	0.201326	0.201453
C154	C	0.741563	0.211262	0.106196
C155	C	0.673767	0.256659	0.097360
H156	H	0.759627	0.203147	0.062821
H157	H	0.768325	0.245636	0.127415
H158	H	0.742722	0.154199	0.134344
H159	H	0.672609	0.313724	0.069220
H160	H	0.647005	0.222295	0.076134
O161	O	0.841799	1.049567	0.189901
C162	C	0.820269	1.081021	0.250669
H163	H	0.838848	1.026676	0.296717
H164	H	0.761932	1.097794	0.249874
C165	C	0.827638	1.232884	0.199367
C166	C	0.850462	1.166138	0.255923
H167	H	0.846259	1.285390	0.202607
H168	H	0.842141	1.211694	0.158425
H169	H	0.779025	1.246850	0.198710
H170	H	0.899074	1.152165	0.256574
H171	H	0.835968	1.187328	0.296865
O172	O	0.768501	0.956918	0.116481
C173	C	0.717683	1.011432	0.147908
H174	H	0.739699	1.025495	0.197396
H175	H	0.672221	0.975158	0.160013
C176	C	0.666799	1.083709	0.038256
C177	C	0.693843	1.100988	0.099034
H178	H	0.652091	1.138950	0.008108
H179	H	0.701035	1.046980	0.017082
H180	H	0.628918	1.053478	0.048352
H181	H	0.731727	1.131208	0.088938
H182	H	0.659612	1.137725	0.120205
O183	O	1.021787	0.320976	0.537340
C184	C	1.066632	0.270063	0.590328
H185	H	1.039313	0.266940	0.641117
H186	H	1.113733	0.303112	0.593556
C187	C	1.122452	0.177862	0.512861
C188	C	1.088896	0.174019	0.575240
H189	H	1.136188	0.118618	0.503554
H190	H	1.092241	0.212164	0.477161
H191	H	1.161699	0.205406	0.515559
H192	H	1.049646	0.146485	0.572538
H193	H	1.119101	0.139709	0.610939
H194	H	1.013765	0.330128	0.669835
H195	H	0.887788	1.090533	0.235831
H196	H	1.013747	0.330140	1.025605
O197	O	1.021765	0.320984	0.893099
C198	C	1.066613	0.270069	0.946084
H199	H	1.039296	0.266944	0.996874
H200	H	1.113715	0.303116	0.949310
C201	C	1.122427	0.177870	0.868613
C202	C	1.088874	0.174025	0.930993
H203	H	1.136161	0.118627	0.859304
H204	H	1.092214	0.212174	0.832915
H205	H	1.161674	0.205413	0.871309
H206	H	1.049623	0.146493	0.928293
H207	H	1.119080	0.139714	0.966691
H208	H	0.829401	0.539517	0.998326
H209	H	0.829410	0.539522	0.870092
