data_functionalizedCrystal
_audit_creation_method	'MofGen! by Chris Wilmer'
_symmetry_space_group_name_H-M	'P1'
_symmetry_Int_Tables_number	1
_symmetry_cell_setting	triclinic
loop_
_symmetry_equiv_pos_as_xyz
  x,y,z
_cell_length_a	11.169409
_cell_length_b	11.169417
_cell_length_c	21.395361
_cell_angle_alpha	90.031587
_cell_angle_beta	89.958542
_cell_angle_gamma	89.980176
loop_
_atom_site_label
_atom_site_type_symbol
_atom_site_fract_x
_atom_site_fract_y
_atom_site_fract_z
Zn1	Zn	-0.678467	1.834792	-0.249373
Zn2	Zn	-0.178467	2.334792	0.250627
Zn3	Zn	-0.477752	1.834610	-0.354169
Zn4	Zn	0.022248	2.334610	0.145831
Zn5	Zn	-0.477801	1.634078	-0.249411
Zn6	Zn	0.022199	2.134078	0.250589
Zn7	Zn	-0.678396	1.634015	-0.354118
Zn8	Zn	-0.178396	2.134015	0.145882
O9	O	-0.578104	1.734374	-0.301768
O10	O	-0.078104	2.234374	0.198232
O11	O	-0.651850	2.002718	-0.263280
O12	O	-0.151850	2.502718	0.236720
O13	O	-0.309808	1.807960	-0.340310
O14	O	0.190192	2.307960	0.159690
O15	O	-0.504470	1.660806	-0.161728
O16	O	-0.004470	2.160806	0.338272
O17	O	-0.504386	2.002584	-0.340273
O18	O	-0.004386	2.502584	0.159727
O19	O	-0.651898	1.808270	-0.161700
O20	O	-0.151898	2.308270	0.338300
O21	O	-0.309845	1.660630	-0.263345
O22	O	0.190155	2.160630	0.236655
O23	O	-0.504402	1.466120	-0.263296
O24	O	-0.004402	1.966120	0.236704
O25	O	-0.846356	1.660698	-0.340186
O26	O	-0.346356	2.160698	0.159814
O27	O	-0.651778	1.466073	-0.340223
O28	O	-0.151778	1.966073	0.159777
O29	O	-0.846407	1.808208	-0.263230
O30	O	-0.346407	2.308208	0.236770
O31	O	-0.504318	1.807898	-0.441841
O32	O	-0.004318	2.307898	0.058159
O33	O	-0.651730	1.660521	-0.441803
O34	O	-0.151730	2.160521	0.058197
C35	C	-0.578088	1.422549	-0.301759
C36	C	-0.078088	1.922549	0.198241
C37	C	-0.578110	1.289149	-0.301770
C38	C	-0.078110	1.789149	0.198230
C39	C	-0.891147	1.734466	-0.301699
C40	C	-0.391147	2.234466	0.198301
C41	C	-1.024547	1.734505	-0.301669
C42	C	-0.524547	2.234505	0.198331
C43	C	-0.266279	1.734351	-0.301792
C44	C	0.233721	2.234351	0.198208
C45	C	-0.132880	1.734545	-0.301645
C46	C	0.367120	2.234545	0.198355
C47	C	-0.578037	1.734216	-0.464556
C48	C	-0.078037	2.234216	0.035444
C49	C	-0.578049	1.734258	-0.534197
C50	C	-0.078049	2.234258	-0.034197
C51	C	-0.578120	2.047416	-0.301778
C52	C	-0.078120	2.547416	0.198222
C53	C	-0.578127	2.180816	-0.301782
C54	C	-0.078127	2.680816	0.198218
C55	C	-0.501369	1.811065	-0.566909
C56	C	-0.001369	2.311065	-0.066909
C57	C	-0.501396	1.811121	-0.632344
C58	C	-0.001396	2.311121	-0.132344
C59	C	-0.578090	1.734348	-0.665065
C60	C	-0.078090	2.234348	-0.165065
C61	C	-0.654784	1.657535	-0.632346
C62	C	-0.154784	2.157535	-0.132346
C63	C	-0.654764	1.657490	-0.566911
C64	C	-0.154764	2.157490	-0.066911
C65	C	-0.587501	1.626283	-0.768780
C66	C	-0.087501	2.126283	-0.268780
C67	C	-0.587513	1.626327	-0.834213
C68	C	-0.087513	2.126327	-0.334213
C69	C	-0.578160	1.734488	-0.866886
C70	C	-0.078160	2.234488	-0.366886
C71	C	-0.568770	1.842609	-0.834118
C72	C	-0.068770	2.342609	-0.334118
C73	C	-0.568749	1.842564	-0.768684
C74	C	-0.068749	2.342564	-0.268684
C75	C	-0.578121	1.734389	-0.736018
C76	C	-0.078121	2.234389	-0.236018
C77	C	-0.501506	1.811362	-0.970550
C78	C	-0.001506	2.311362	-0.470550
C79	C	-0.501541	1.811420	-1.035987
C80	C	-0.001541	2.311420	-0.535987
C81	C	-0.654923	1.657823	-1.035987
C82	C	-0.154923	2.157823	-0.535987
C83	C	-0.654894	1.657776	-0.970552
C84	C	-0.154894	2.157776	-0.470552
C85	C	-0.578179	1.734544	-0.937837
C86	C	-0.078179	2.234544	-0.437837
C87	C	-0.578197	1.734566	-0.138345
C88	C	-0.078197	2.234566	0.361655
C89	C	-0.578237	1.734647	-0.068703
C90	C	-0.078237	2.234647	0.431297
H91	H	-0.438907	1.873576	-0.540275
H92	H	0.061093	2.373576	-0.040275
C93	C	-0.739273	1.573306	-0.934567
C94	C	-0.239273	2.073306	-0.434567
N95	N	-0.802845	1.509692	-0.907464
N96	N	-0.302845	2.009692	-0.407464
H97	H	-0.439102	1.873973	-1.062620
H98	H	0.060898	2.373973	-0.562620
C99	C	-0.558490	1.961597	-0.870054
C100	C	-0.058490	2.461597	-0.370054
N101	N	-0.550749	2.051215	-0.897124
N102	N	-0.050749	2.551215	-0.397124
C103	C	-0.417137	1.895824	-0.934562
C104	C	0.082863	2.395824	-0.434562
N105	N	-0.353593	1.959447	-0.907458
N106	N	0.146407	2.459447	-0.407458
H107	H	-0.595123	1.538199	-0.742183
H108	H	-0.095123	2.038199	-0.242183
H109	H	-0.595148	1.538287	-0.860887
H110	H	-0.095148	2.038287	-0.360887
H111	H	-0.717231	1.595028	-0.658991
H112	H	-0.217231	2.095028	-0.158991
C113	C	-0.739136	1.573007	-0.530927
C114	C	-0.239136	2.073007	-0.030927
N115	N	-0.802691	1.509378	-0.503823
N116	N	-0.302691	2.009378	-0.003823
C117	C	-0.739289	1.573374	-1.071976
C118	C	-0.239289	2.073374	-0.571976
N119	N	-0.802838	1.509767	-1.099087
N120	N	-0.302838	2.009767	-0.599087
H121	H	-0.561106	1.930598	-0.742006
H122	H	-0.061106	2.430598	-0.242006
C123	C	-0.417033	1.895611	-0.668334
C124	C	0.082967	2.395611	-0.168334
N125	N	-0.353488	1.959247	-0.695440
N126	N	0.146512	2.459247	-0.195440
