data_functionalizedCrystal
_audit_creation_method	'MofGen! by Chris Wilmer'
_symmetry_space_group_name_H-M	'P1'
_symmetry_Int_Tables_number	1
_symmetry_cell_setting	triclinic
loop_
_symmetry_equiv_pos_as_xyz
  x,y,z
_cell_length_a	10.654550
_cell_length_b	12.811457
_cell_length_c	9.130313
_cell_angle_alpha	95.427744
_cell_angle_beta	89.995697
_cell_angle_gamma	84.263143
loop_
_atom_site_label
_atom_site_type_symbol
_atom_site_fract_x
_atom_site_fract_y
_atom_site_fract_z
O1	O	0.169141	1.393890	0.063354
O2	O	0.187538	1.088443	0.022779
O3	O	-0.004436	1.248189	0.044005
O4	O	0.361116	1.234143	0.042128
O5	O	-0.004445	1.248176	0.287602
O6	O	0.187529	1.088430	0.266376
O7	O	0.169133	1.393877	0.306951
Cu8	Cu	0.178330	1.241152	0.308906
Cu9	Cu	0.178341	1.241167	0.020824
O10	O	0.361107	1.234131	0.285726
C11	C	0.186503	1.049325	0.139382
C12	C	0.183418	0.932786	0.123902
C13	C	0.177588	0.713784	0.360411
C14	C	0.174689	0.604285	0.345873
C15	C	0.174712	0.604289	0.080288
C16	C	0.177611	0.713788	0.094827
C17	C	0.179051	0.768531	0.234893
C18	C	0.181959	0.878031	0.249429
C19	C	0.181973	0.878034	-0.016154
C20	C	0.179074	0.768535	-0.030692
C21	C	-0.051233	1.247151	0.165665
C22	C	-0.190660	1.244066	0.165250
C23	C	-0.270636	1.338122	0.177749
C24	C	-0.401641	1.335216	0.177352
C25	C	-0.372683	1.144191	0.151964
C26	C	-0.241680	1.147097	0.152350
C27	C	-0.219616	1.435091	0.190649
C28	C	-0.299593	1.529155	0.203150
C29	C	-0.430598	1.526249	0.202754
C30	C	-0.481627	1.429280	0.189856
C31	C	0.407904	1.235168	0.164062
C32	C	0.547331	1.238254	0.164468
C33	C	0.170167	1.432995	0.190345
C34	C	0.173252	1.549534	0.205816
N35	N	0.178322	1.241149	0.511528
C36	C	0.101794	1.176954	0.733039
C37	C	0.101780	1.176947	0.579702
C38	C	0.254874	1.305371	0.596703
C39	C	0.254881	1.305383	0.750038
C40	C	0.025256	1.112739	0.801203
C41	C	-0.051298	1.048519	0.716040
C42	C	-0.051312	1.048512	0.562702
C43	C	0.025228	1.112725	0.494527
N44	N	0.178343	1.241168	0.818202
H45	H	0.178777	0.758355	0.474458
O46	O	0.329407	1.367677	0.530635
C47	C	0.456715	1.339500	0.564322
H48	H	0.461868	1.298844	0.670265
H49	H	0.502632	1.283518	0.470598
C50	C	0.520462	1.489199	0.454495
C51	C	0.526791	1.439273	0.584622
H52	H	0.563691	1.550742	0.467010
H53	H	0.434693	1.508181	0.431793
H54	H	0.558724	1.442536	0.376404
H55	H	0.488515	1.485931	0.662705
H56	H	0.612556	1.420301	0.607337
H57	H	0.183139	0.922601	0.363478
O58	O	-0.125807	0.986286	0.479920
C59	C	-0.211115	1.049642	0.399604
H60	H	-0.224128	1.133065	0.456875
H61	H	-0.172294	1.051694	0.283664
C62	C	-0.323178	0.900924	0.320781
C63	C	-0.339170	1.003384	0.391130
H64	H	-0.402167	0.872389	0.315547
H65	H	-0.265702	0.858238	0.374887
H66	H	-0.290823	0.902648	0.224172
H67	H	-0.371508	1.001658	0.487742
H68	H	-0.396654	1.046069	0.337040
O69	O	0.173331	0.551259	0.467953
C70	C	0.175189	0.623066	0.594688
H71	H	0.216971	0.697065	0.565585
H72	H	0.074861	0.644989	0.638424
C73	C	0.204989	0.481042	0.749106
C74	C	0.256316	0.571925	0.713363
H75	H	0.255026	0.449496	0.822314
H76	H	0.203732	0.432663	0.663723
H77	H	0.121383	0.499324	0.785544
H78	H	0.339913	0.553640	0.676909
H79	H	0.257588	0.620300	0.798743
O80	O	-0.249879	1.623280	0.215467
C81	C	-0.174980	1.630696	0.090277
H82	H	-0.142780	1.548208	0.037257
H83	H	-0.232603	1.676716	0.008045
C84	C	-0.098369	1.789372	0.201350
C85	C	-0.058812	1.688058	0.136238
H86	H	-0.026714	1.824760	0.229697
H87	H	-0.148833	1.784379	0.285691
H88	H	-0.146389	1.827709	0.132813
H89	H	-0.010807	1.649720	0.204781
H90	H	-0.008336	1.693046	0.051909
H91	H	0.183172	0.922620	-0.118360
O92	O	-0.422458	1.050091	0.139524
C93	C	-0.555235	1.067696	0.141830
H94	H	-0.585569	1.149381	0.198800
H95	H	-0.591720	1.062351	0.024254
C96	C	-0.572752	0.883476	0.156246
C97	C	-0.610009	0.983799	0.226229
H98	H	-0.606541	0.831723	0.208301
H99	H	-0.483298	0.871614	0.154687
H100	H	-0.603159	0.879037	0.058269
H101	H	-0.579589	0.988241	0.324197
H102	H	-0.699460	0.995660	0.227807
H103	H	0.025203	1.112720	0.369670
H104	H	0.317214	1.357671	0.819380
H105	H	-0.176561	1.070508	0.142174
H106	H	0.173518	0.559700	-0.033746
H107	H	-0.495713	1.602840	0.212918
H108	H	0.177896	0.723949	-0.144729
O109	O	-0.125532	0.986177	0.782486
C110	C	-0.109070	0.999914	0.936082
H111	H	-0.013746	1.030489	0.961037
H112	H	-0.187446	1.059147	0.987536
C113	C	-0.231063	0.856050	0.969996
C114	C	-0.113979	0.893595	1.000646
H115	H	-0.234096	0.790470	1.009825
H116	H	-0.242158	0.846797	0.866516
H117	H	-0.296363	0.905421	1.012876
H118	H	-0.048683	0.844231	0.957751
H119	H	-0.102873	0.902837	1.104120
H120	H	-0.112946	1.437467	0.190977
H121	H	-0.588302	1.426922	0.189519
H122	H	0.025261	1.112736	0.926057
