data_functionalizedCrystal
_audit_creation_method	'MofGen! by Chris Wilmer'
_symmetry_space_group_name_H-M	'P1'
_symmetry_Int_Tables_number	1
_symmetry_cell_setting	triclinic
loop_
_symmetry_equiv_pos_as_xyz
  x,y,z
_cell_length_a	19.288867
_cell_length_b	15.625429
_cell_length_c	17.766277
_cell_angle_alpha	71.916495
_cell_angle_beta	89.992126
_cell_angle_gamma	83.712539
loop_
_atom_site_label
_atom_site_type_symbol
_atom_site_fract_x
_atom_site_fract_y
_atom_site_fract_z
O1	O	0.921733	0.112472	-0.093262
O2	O	0.719524	0.127642	-0.097409
O3	O	0.826028	-0.011203	-0.059509
O4	O	0.815229	0.251317	-0.131163
O5	O	0.826010	-0.011210	0.065681
O6	O	0.719505	0.127635	0.027781
O7	O	0.921715	0.112465	0.031928
Cu8	Cu	0.820608	0.120049	0.041285
Cu9	Cu	0.820630	0.120058	-0.106767
O10	O	0.815210	0.251310	-0.005972
C11	C	0.693637	0.127150	-0.034682
C12	C	0.616528	0.125684	-0.034284
C13	C	0.825529	-0.044792	0.012252
C14	C	0.824061	-0.144867	0.039562
C15	C	0.060937	0.115127	-0.099635
C16	C	0.133390	0.116499	-0.100012
C17	C	0.169610	0.117186	-0.031959
C18	C	0.133375	0.116477	0.036482
C19	C	0.060925	0.115096	0.036860
C20	C	0.279116	0.172173	0.005313
C21	C	0.351564	0.173560	0.004931
C22	C	0.393070	0.121442	-0.033121
C23	C	0.362118	0.067949	-0.070806
C24	C	0.289669	0.066567	-0.070428
C25	C	0.248170	0.118683	-0.032361
C26	C	0.507858	0.123632	-0.101965
C27	C	0.580312	0.124999	-0.102338
C28	C	0.580296	0.124985	0.034156
C29	C	0.507844	0.123610	0.034529
C30	C	0.471629	0.122937	-0.033535
C31	C	0.819264	-0.473982	-0.211798
C32	C	0.817881	-0.568017	-0.186113
C33	C	0.817861	-0.568011	-0.049639
C34	C	0.819247	-0.473975	-0.075313
C35	C	0.819948	-0.426968	-0.156393
C36	C	0.819931	-0.426960	-0.019908
C37	C	0.821313	-0.332932	-0.045580
C38	C	0.822012	-0.285918	-0.126657
C39	C	0.821330	-0.332939	-0.182065
C40	C	0.819225	-0.473969	0.061172
C41	C	0.819909	-0.426954	0.116577
C42	C	0.821296	-0.332924	0.090906
C43	C	0.821995	-0.285910	0.009829
C44	C	0.821978	-0.285903	0.146314
C45	C	0.823360	-0.191874	0.120642
C46	C	0.823377	-0.191881	-0.015843
C47	C	0.947602	0.112957	-0.030801
C48	C	1.024710	0.114423	-0.031203
C49	C	0.815710	0.284899	-0.077734
C50	C	0.817178	0.384974	-0.105049
N51	N	0.820598	0.120043	0.145418
N52	N	0.820646	0.120057	-0.210897
C53	C	0.867773	0.058593	0.201579
C54	C	0.867777	0.058588	0.280381
C55	C	0.820612	0.120050	0.303016
C56	C	0.773428	0.181505	0.246844
C57	C	0.773421	0.181501	0.168045
C58	C	0.811592	0.202193	0.405433
C59	C	0.811604	0.202198	0.484231
C60	C	0.820631	0.120061	0.546060
C61	C	0.829660	0.037916	0.529082
C62	C	0.829653	0.037912	0.450283
C63	C	0.820615	0.120060	0.388459
C64	C	0.867813	0.058601	0.687669
C65	C	0.867812	0.058596	0.766474
C66	C	0.773467	0.181520	0.732933
C67	C	0.773464	0.181518	0.654132
C68	C	0.820641	0.120059	0.631504
H69	H	0.031456	0.114576	-0.155056
F70	F	0.822085	-0.282907	-0.268360
F71	F	0.817752	-0.574043	0.088493
F72	F	0.723266	0.246926	0.757020
H73	H	0.735004	0.231543	0.122316
H74	H	0.162891	0.117077	-0.155740
H75	H	0.031429	0.114526	0.092586
H76	H	0.823954	-0.153606	-0.081867
F77	F	0.234949	0.227639	0.045824
F78	F	0.918021	-0.006816	0.826249
H79	H	0.823902	-0.153591	0.165758
H80	H	0.819336	-0.465240	0.182593
H81	H	0.609786	0.125541	0.089566
H82	H	0.823130	-0.209352	-0.147558
H83	H	0.264471	0.023010	-0.101111
H84	H	0.819840	-0.435707	-0.277821
F85	F	0.406286	0.012480	-0.111310
H86	H	0.804256	0.269085	0.498047
F87	F	0.469314	0.122912	-0.174402
H88	H	0.804229	0.269083	0.355095
H89	H	0.821401	-0.324189	0.212330
F90	F	0.917980	-0.006819	0.177499
H91	H	0.735053	0.231560	0.608401
F92	F	0.817110	-0.618048	0.036650
H93	H	0.735025	0.231547	0.265278
F94	F	0.469286	0.122873	0.107360
F95	F	0.171925	0.117204	0.108910
F96	F	0.618869	0.125739	-0.175174
H97	H	0.376757	0.217139	0.035595
F98	F	0.917990	-0.006819	0.340161
F99	F	0.817150	-0.618050	-0.245089
H100	H	0.837003	-0.028973	0.436463
F101	F	0.839273	-0.049507	0.594880
H102	H	0.906226	0.008555	0.669246
