data_functionalizedCrystal
_audit_creation_method	'MofGen! by Chris Wilmer'
_symmetry_space_group_name_H-M	'P1'
_symmetry_Int_Tables_number	1
_symmetry_cell_setting	triclinic
loop_
_symmetry_equiv_pos_as_xyz
  x,y,z
_cell_length_a	8.497374
_cell_length_b	8.497374
_cell_length_c	25.639242
_cell_angle_alpha	90.003377
_cell_angle_beta	90.012733
_cell_angle_gamma	90.004389
loop_
_atom_site_label
_atom_site_type_symbol
_atom_site_fract_x
_atom_site_fract_y
_atom_site_fract_z
Zn1	Zn	0.892552	0.628504	0.799313
Zn2	Zn	0.628818	0.892254	0.799308
Zn3	Zn	0.628731	0.628461	0.711904
Zn4	Zn	0.892501	0.892216	0.711892
O5	O	0.760651	0.760359	0.755604
O6	O	0.857626	0.663526	0.872478
O7	O	0.408044	0.857259	0.787717
O8	O	0.663713	0.407705	0.723506
O9	O	0.663861	0.857301	0.872474
O10	O	0.857541	0.407736	0.787725
O11	O	0.407980	0.663452	0.723501
O12	O	0.663663	0.663415	0.638737
O13	O	1.113270	0.857236	0.723485
O14	O	0.857453	0.857194	0.638728
O15	O	1.113308	0.663488	0.787713
O16	O	0.663811	1.113011	0.787705
O17	O	0.857538	1.112983	0.723481
C18	C	0.760544	0.760297	0.619762
C19	C	0.760535	0.760308	0.561648
C20	C	1.350771	0.760384	0.755607
C21	C	1.172127	0.760377	0.755602
C22	C	0.760673	1.170239	0.755598
C23	C	0.760648	1.348883	0.755612
C24	C	0.861462	0.861428	0.201289
C25	C	0.861487	0.861438	0.146685
O26	O	0.947207	0.947337	0.118452
N27	N	0.760754	0.760402	0.119365
C28	C	0.660000	0.659339	0.146653
O29	O	0.574322	0.573400	0.118401
C30	C	0.659985	0.659323	0.201256
C31	C	0.760713	0.760376	0.228573
C32	C	0.962183	0.962473	0.228606
C33	C	0.962156	0.962465	0.283206
C34	C	0.861407	0.861412	0.310490
C35	C	0.760686	0.760368	0.283173
C36	C	0.559240	0.558253	0.228543
C37	C	0.559234	0.558244	0.283150
C38	C	0.659963	0.659298	0.310466
C39	C	0.659909	0.659308	0.365058
N40	N	0.760642	0.760344	0.392377
C41	C	0.861391	0.861396	0.365093
C42	C	0.660043	0.659379	0.031982
C43	C	0.660050	0.659403	-0.022620
C44	C	0.861538	0.861500	-0.022585
C45	C	0.861523	0.861483	0.032019
C46	C	0.760776	0.760415	0.059302
C47	C	0.861325	0.861373	0.479758
C48	C	0.861284	0.861360	0.534364
C49	C	0.659802	0.659258	0.534323
C50	C	0.659836	0.659275	0.479723
C51	C	0.760611	0.760338	0.452442
O52	O	0.574237	0.573449	0.393325
O53	O	0.947070	0.947306	0.393351
C54	C	0.760759	0.760422	0.891977
C55	C	0.760805	0.760450	0.950091
H56	H	0.943311	0.943656	0.556603
O57	O	0.461207	0.460022	0.309571
C58	C	0.372343	0.370818	0.273747
H59	H	0.366814	0.435435	0.234825
H60	H	0.248060	0.353795	0.289504
H61	H	0.430292	0.251094	0.267943
O62	O	0.959267	0.959690	0.453343
C63	C	1.048180	1.048830	0.489172
H64	H	0.983520	1.054174	0.528084
H65	H	1.064840	1.173160	0.473407
H66	H	1.168074	0.991242	0.494995
O67	O	1.060164	1.060668	0.309657
C68	C	1.149056	1.149873	0.273857
H69	H	1.154606	1.085262	0.234934
H70	H	1.273329	1.166888	0.289642
H71	H	1.091115	1.269601	0.268048
H72	H	0.477212	0.475968	0.206311
H73	H	1.044234	1.044762	0.206397
H74	H	0.577770	0.576989	0.556548
O75	O	0.561930	0.560977	0.453265
C76	C	0.472966	0.471821	0.489059
H77	H	0.537568	0.466464	0.527991
H78	H	0.456332	0.347497	0.473279
H79	H	0.353063	0.529406	0.494849
O80	O	0.562139	0.561103	-0.049071
C81	C	0.473187	0.471949	-0.013274
H82	H	0.537804	0.466592	0.025655
H83	H	0.456545	0.347625	-0.029053
H84	H	0.353287	0.529535	-0.007478
H85	H	0.577992	0.577079	0.054193
H86	H	0.943547	0.943768	0.054256
H87	H	0.943579	0.943777	-0.044809
