data_functionalizedCrystal
_audit_creation_method	'MofGen! by Chris Wilmer'
_symmetry_space_group_name_H-M	'P1'
_symmetry_Int_Tables_number	1
_symmetry_cell_setting	triclinic
loop_
_symmetry_equiv_pos_as_xyz
  x,y,z
_cell_length_a	12.784905
_cell_length_b	14.853576
_cell_length_c	11.295483
_cell_angle_alpha	94.102040
_cell_angle_beta	86.327249
_cell_angle_gamma	78.372901
loop_
_atom_site_label
_atom_site_type_symbol
_atom_site_fract_x
_atom_site_fract_y
_atom_site_fract_z
O1	O	1.417473	-0.000985	-0.099032
O2	O	1.108077	0.037620	-0.099032
O3	O	1.271034	-0.113568	-0.099027
O4	O	1.254516	0.150203	-0.099037
O5	O	1.256721	-0.100307	0.099023
O6	O	1.093764	0.050880	0.099019
O7	O	1.403160	0.012276	0.099018
Cu8	Cu	1.247155	0.032789	0.117102
Cu9	Cu	1.264082	0.017107	-0.117115
O10	O	1.240203	0.163463	0.099014
C11	C	1.061325	0.046761	-0.000007
C12	C	0.943342	0.054231	-0.000007
C13	C	0.746729	-0.097970	-0.000023
C14	C	0.635875	-0.090955	-0.000023
C15	C	0.610778	0.075274	-0.000015
C16	C	0.721632	0.068259	-0.000015
C17	C	0.789604	-0.018366	-0.000017
C18	C	0.900460	-0.025379	-0.000009
C19	C	0.875362	0.140848	-0.000010
C20	C	0.764508	0.147863	-0.000010
C21	C	1.263128	-0.140466	-0.000003
C22	C	1.260880	-0.240371	-0.000007
C23	C	1.267625	-0.294531	-0.107970
C24	C	1.252032	-0.280088	0.107952
C25	C	1.249926	-0.373955	0.107952
C26	C	1.256671	-0.428114	-0.000010
C27	C	1.265522	-0.388407	-0.107973
C28	C	1.241086	-0.413671	0.215913
C29	C	1.238980	-0.507544	0.215918
C30	C	1.245717	-0.561704	0.107954
C31	C	1.254567	-0.521991	-0.000013
C32	C	1.261312	-0.576150	-0.107976
C33	C	1.270155	-0.536438	-0.215945
C34	C	1.272258	-0.442567	-0.215937
C35	C	1.243613	-0.655574	0.107946
C36	C	1.259209	-0.670027	-0.107979
C37	C	1.449913	0.003135	-0.000009
C38	C	1.567896	-0.004336	-0.000017
C39	C	1.248110	0.190362	-0.000013
C40	C	1.250358	0.290266	-0.000016
N41	N	1.235258	0.043817	0.281838
N42	N	1.275988	0.006070	-0.281851
C43	C	1.361633	-0.073371	0.531131
C44	C	1.352650	-0.065030	0.655795
C45	C	1.208303	0.068834	0.655831
C46	C	1.217286	0.060493	0.531167
C47	C	1.293955	-0.010610	0.468822
C48	C	1.302943	-0.018946	0.344156
C49	C	1.158591	0.114913	0.344194
C50	C	1.149608	0.123254	0.468858
H51	H	0.910281	0.205669	0.000001
C52	C	1.266580	-0.728678	-0.225325
C53	C	1.274791	-0.673809	-0.319868
C54	C	1.281589	-0.727807	-0.427983
H55	H	1.204183	-0.753887	-0.229965
H56	H	1.328038	-0.777315	-0.229899
H57	H	1.213339	-0.625188	-0.315296
H58	H	1.337187	-0.648600	-0.315268
H59	H	1.343047	-0.776444	-0.432557
H60	H	1.219190	-0.753013	-0.432610
H61	H	1.287171	-0.690588	-0.492143
H62	H	0.709151	0.218390	-0.000013
C63	C	0.820706	-0.191926	0.000043
C64	C	0.926962	-0.181028	0.000074
C65	C	0.995136	-0.267560	0.000152
H66	H	0.812824	-0.229628	-0.069000
H67	H	0.802763	-0.220310	0.069138
H68	H	0.944899	-0.152658	-0.069014
H69	H	0.934877	-0.143343	0.069112
H70	H	0.977194	-0.295944	0.069247
H71	H	0.987245	-0.305255	-0.068893
H72	H	1.067237	-0.260177	0.000183
H73	H	1.087183	0.181143	0.519634
H74	H	1.235603	-0.369570	0.303810
H75	H	1.275652	-0.580548	-0.303848
C76	C	0.589281	-0.177368	-0.000271
C77	C	0.533760	-0.185028	-0.102179
C78	C	0.490837	-0.264630	-0.102459
H79	H	0.541500	-0.173557	0.068712
H80	H	0.645618	-0.229989	-0.000337
H81	H	0.477430	-0.132420	-0.102102
H82	H	0.581518	-0.188855	-0.171179
H83	H	0.547174	-0.317250	-0.102525
H84	H	0.443061	-0.260811	-0.033471
H85	H	0.453169	-0.269841	-0.171607
C86	C	1.282053	-0.399624	-0.333252
C87	C	1.377597	-0.444153	-0.398380
C88	C	1.386660	-0.404634	-0.506467
H89	H	1.282419	-0.335970	-0.317978
H90	H	1.223027	-0.406282	-0.377680
H91	H	1.436608	-0.437487	-0.353962
H92	H	1.377253	-0.507805	-0.413686
H93	H	1.327633	-0.411292	-0.550895
H94	H	1.387021	-0.340981	-0.491181
H95	H	1.451480	-0.434846	-0.550674
H96	H	1.407759	-0.116137	0.706523
H97	H	1.145873	0.126719	0.706608
C98	C	1.244722	-0.221449	0.225288
C99	C	1.236530	-0.276318	0.319835
C100	C	1.229792	-0.222327	0.427947
H101	H	1.183291	-0.172800	0.229924
H102	H	1.307155	-0.196264	0.229861
H103	H	1.174104	-0.301489	0.315264
H104	H	1.297954	-0.324966	0.315238
H105	H	1.292225	-0.197142	0.432520
H106	H	1.168361	-0.173681	0.432571
H107	H	1.224243	-0.259550	0.492110
C108	C	0.536854	0.169242	-0.000203
C109	C	0.479829	0.171290	-0.102085
C110	C	0.411707	0.257834	-0.102290
H111	H	0.578129	0.215735	-0.000260
H112	H	0.488033	0.180058	0.068823
H113	H	0.528643	0.160484	-0.171093
H114	H	0.438533	0.124816	-0.102050
H115	H	0.362887	0.268650	-0.033264
H116	H	0.452991	0.304320	-0.102343
H117	H	0.373001	0.259232	-0.171409
H118	H	1.424067	-0.131260	0.480369
C119	C	1.085223	0.183202	0.276610
C120	C	1.100432	0.272462	0.306918
C121	C	1.032879	0.335393	0.244674
H122	H	1.012765	0.180433	0.297006
H123	H	1.101556	0.168118	0.193423
H124	H	1.084091	0.287541	0.390087
H125	H	1.172875	0.275261	0.286520
H126	H	1.049213	0.320309	0.161487
H127	H	0.960426	0.332615	0.265074
H128	H	1.043196	0.395962	0.265220
H129	H	1.274820	-0.262192	-0.195875
H130	H	0.955802	-0.095913	-0.000008
C131	C	1.229139	-0.550551	0.333179
C132	C	1.133571	-0.506058	0.398288
C133	C	1.124455	-0.545653	0.506310
H134	H	1.288120	-0.543939	0.377682
H135	H	1.228783	-0.614208	0.317783
H136	H	1.133937	-0.442416	0.413687
H137	H	1.074574	-0.512667	0.353821
H138	H	1.124098	-0.609310	0.490914
H139	H	1.183440	-0.539039	0.550803
H140	H	1.059608	-0.515477	0.550495
H141	H	1.236417	-0.687905	0.195852
C142	C	1.386210	-0.096233	0.276678
C143	C	1.443534	-0.149426	0.357936
C144	C	1.520237	-0.220641	0.295823
H145	H	1.434107	-0.070626	0.228031
H146	H	1.351450	-0.134080	0.228083
H147	H	1.478293	-0.111586	0.406510
H148	H	1.395666	-0.175055	0.406586
H149	H	1.485478	-0.258488	0.247228
H150	H	1.568127	-0.195026	0.247178
H151	H	1.559135	-0.256746	0.350946
