data_functionalizedCrystal
_audit_creation_method	'MofGen! by Chris Wilmer'
_symmetry_space_group_name_H-M	'P1'
_symmetry_Int_Tables_number	1
_symmetry_cell_setting	triclinic
loop_
_symmetry_equiv_pos_as_xyz
  x,y,z
_cell_length_a	16.625547
_cell_length_b	13.034570
_cell_length_c	13.034296
_cell_angle_alpha	89.081773
_cell_angle_beta	82.792246
_cell_angle_gamma	82.840857
loop_
_atom_site_label
_atom_site_type_symbol
_atom_site_fract_x
_atom_site_fract_y
_atom_site_fract_z
Zn1	Zn	1.327716	-0.335422	-0.633700
Zn2	Zn	1.661049	-0.002089	-0.300367
Zn3	Zn	1.994383	0.331245	0.032966
Zn4	Zn	1.331902	-0.529226	-0.483599
Zn5	Zn	1.665235	-0.195892	-0.150266
Zn6	Zn	1.998568	0.137441	0.183067
Zn7	Zn	1.178159	-0.357312	-0.461732
Zn8	Zn	1.511493	-0.023979	-0.128398
Zn9	Zn	1.844826	0.309355	0.204935
Zn10	Zn	1.211841	-0.507317	-0.655501
Zn11	Zn	1.545174	-0.173984	-0.322168
Zn12	Zn	1.878508	0.159350	0.011166
O13	O	1.262404	-0.432319	-0.558633
O14	O	1.595738	-0.098986	-0.225300
O15	O	1.929071	0.234348	0.108034
O16	O	1.441107	-0.361138	-0.613817
O17	O	1.774440	-0.027805	-0.280484
O18	O	2.107774	0.305529	0.052850
O19	O	1.299163	-0.524751	-0.336788
O20	O	1.632497	-0.191418	-0.003454
O21	O	1.965830	0.141916	0.329879
O22	O	1.182151	-0.210523	-0.466268
O23	O	1.515484	0.122810	-0.132935
O24	O	1.848817	0.456144	0.200398
O25	O	1.444182	-0.503525	-0.503538
O26	O	1.777516	-0.170192	-0.170205
O27	O	2.110849	0.163142	0.163128
O28	O	1.292029	-0.194440	-0.592613
O29	O	1.625363	0.138893	-0.259280
O30	O	1.958696	0.472226	0.074054
O31	O	1.186209	-0.398447	-0.320722
O32	O	1.519543	-0.065113	0.012612
O33	O	1.852876	0.268220	0.345945
O34	O	1.069791	-0.377203	-0.487408
O35	O	1.403125	-0.043869	-0.154074
O36	O	1.736458	0.289464	0.179259
O37	O	1.239556	-0.466185	-0.796520
O38	O	1.572889	-0.132852	-0.463187
O39	O	1.906223	0.200482	-0.129853
O40	O	1.094537	-0.487411	-0.629769
O41	O	1.427870	-0.154077	-0.296436
O42	O	1.761204	0.179256	0.036897
O43	O	1.324689	-0.339894	-0.780503
O44	O	1.658022	-0.006561	-0.447170
O45	O	1.991356	0.326772	-0.113836
O46	O	1.331823	-0.670205	-0.524678
O47	O	1.665156	-0.336871	-0.191345
O48	O	1.998490	-0.003538	0.141989
O49	O	1.243615	-0.654109	-0.650973
O50	O	1.576948	-0.320775	-0.317640
O51	O	1.910281	0.012558	0.015693
C52	C	1.291852	-0.699462	-0.592587
C53	C	1.625185	-0.366128	-0.259253
C54	C	1.958518	-0.032795	0.074080
C55	C	1.304526	-0.813742	-0.607147
C56	C	1.637860	-0.480409	-0.273813
C57	C	1.971193	-0.147075	0.059520
C58	C	1.052907	-0.432305	-0.558582
C59	C	1.386241	-0.098972	-0.225249
C60	C	1.719574	0.234361	0.108085
C61	C	0.963288	-0.432321	-0.558588
C62	C	1.296622	-0.098988	-0.225254
C63	C	1.629955	0.234346	0.108079
C64	C	1.268949	-0.990850	-0.566118
C65	C	1.602282	-0.657517	-0.232784
C66	C	1.935615	-0.324183	0.100549
C67	C	1.255849	-0.872735	-0.551075
C68	C	1.589183	-0.539401	-0.217741
C69	C	1.922516	-0.206068	0.115592
C70	C	0.890507	-0.432321	-0.558601
C71	C	1.223840	-0.098988	-0.225267
C72	C	1.557174	0.234345	0.108066
C73	C	0.799201	-0.432324	-0.558627
C74	C	1.132535	-0.098990	-0.225294
C75	C	1.465868	0.234343	0.108040
C76	C	0.726428	-0.432330	-0.558654
C77	C	1.059762	-0.098996	-0.225321
C78	C	1.393095	0.234337	0.108012
C79	C	0.635117	-0.432334	-0.558680
C80	C	0.968450	-0.099000	-0.225347
C81	C	1.301784	0.234333	0.107987
C82	C	1.472720	-0.432334	-0.558685
C83	C	1.806053	-0.099000	-0.225352
C84	C	2.139387	0.234333	0.107982
C85	C	1.562344	-0.432340	-0.558707
C86	C	1.895677	-0.099006	-0.225374
C87	C	2.229010	0.234327	0.107959
C88	C	1.285413	-0.398154	-0.826869
C89	C	1.618746	-0.064821	-0.493536
C90	C	1.952079	0.268513	-0.160203
C91	C	1.295218	-0.383595	-0.941176
C92	C	1.628551	-0.050261	-0.607842
C93	C	1.961884	0.283072	-0.274509
C94	C	1.232866	-0.164131	-0.524570
C95	C	1.566199	0.169203	-0.191236
C96	C	1.899533	0.502536	0.142097
C97	C	1.220279	-0.049845	-0.510054
C98	C	1.553612	0.283489	-0.176720
C99	C	1.886945	0.616822	0.156613
C100	C	1.257467	-0.439590	-1.000062
C101	C	1.590800	-0.106257	-0.666729
C102	C	1.924133	0.227077	-0.333395
C103	C	1.267599	-0.424544	-1.118204
C104	C	1.600933	-0.091210	-0.784870
C105	C	1.934266	0.242123	-0.451537
C106	C	1.239524	-0.466277	-0.291431
C107	C	1.572857	-0.132944	0.041902
C108	C	1.906191	0.200389	0.375236
C109	C	1.229843	-0.480547	-0.177088
C110	C	1.563177	-0.147213	0.156245
C111	C	1.896510	0.186120	0.489578
H112	H	1.320318	-1.027788	-0.625249
H113	H	1.653651	-0.694454	-0.291915
H114	H	1.986984	-0.361121	0.041418
O115	O	1.372571	-0.862645	-0.685492
O116	O	1.705904	-0.529312	-0.352159
O117	O	2.039238	-0.195979	-0.018826
H118	H	1.372179	-0.947742	-0.685023
H119	H	1.705512	-0.614409	-0.351690
H120	H	2.038846	-0.281075	-0.018356
H121	H	1.190022	-0.539633	-1.140046
H122	H	1.523356	-0.206300	-0.806712
H123	H	1.856689	0.127033	-0.473379
H124	H	1.307427	-0.365464	-1.155249
H125	H	1.640760	-0.032131	-0.821915
H126	H	1.974093	0.301202	-0.488582
H127	H	1.335042	-0.324520	-0.978225
H128	H	1.668375	0.008814	-0.644892
H129	H	2.001709	0.342147	-0.311559
H130	H	1.204482	-0.835804	-0.491931
H131	H	1.537815	-0.502471	-0.158598
H132	H	1.871149	-0.169137	0.174735
O133	O	1.152233	-1.000934	-0.431719
O134	O	1.485567	-0.667600	-0.098385
O135	O	1.818900	-0.334267	0.234948
H136	H	1.152619	-0.915836	-0.432201
H137	H	1.485953	-0.582502	-0.098868
H138	H	1.819286	-0.249169	0.234465
O139	O	1.204712	-0.517847	-0.951002
O140	O	1.538045	-0.184513	-0.617669
O141	O	1.871378	0.148820	-0.284335
H142	H	1.205026	-0.517377	-0.865907
H143	H	1.538359	-0.184044	-0.532573
H144	H	1.871692	0.149289	-0.199240
