data_functionalizedCrystal
_audit_creation_method	'MofGen! by Chris Wilmer'
_symmetry_space_group_name_H-M	'P1'
_symmetry_Int_Tables_number	1
_symmetry_cell_setting	triclinic
loop_
_symmetry_equiv_pos_as_xyz
  x,y,z
_cell_length_a	6.817900
_cell_length_b	7.076105
_cell_length_c	14.358977
_cell_angle_alpha	83.268760
_cell_angle_beta	63.445937
_cell_angle_gamma	62.298168
loop_
_atom_site_label
_atom_site_type_symbol
_atom_site_fract_x
_atom_site_fract_y
_atom_site_fract_z
V1	V	4.264118	-0.655569	-0.141820
O2	O	4.180027	-0.652917	0.008482
O3	O	4.278532	-0.641634	-0.282808
O4	O	4.289800	-0.945798	-0.138907
O5	O	4.168681	-0.346648	-0.136416
V6	V	4.730007	-0.619768	-0.123928
O7	O	4.564057	-0.734103	-0.181066
O8	O	4.880265	-0.541235	-0.084682
O9	O	4.492386	-0.633703	0.017060
O10	O	4.931495	-0.622420	-0.274231
O11	O	4.942841	-0.928690	-0.129333
O12	O	4.481118	-0.329540	-0.126842
C13	C	4.181402	-0.656157	0.168864
C14	C	4.297854	-0.646495	0.051444
C15	C	4.157739	-0.016842	-0.133634
C16	C	4.283498	-0.258494	-0.132130
C17	C	4.136436	-0.628863	-0.317203
C18	C	4.231763	-0.619231	-0.434625
V19	V	4.246405	-0.652355	0.359829
O20	O	4.128565	-0.644598	0.512752
O21	O	4.298023	-0.649817	0.213012
O22	O	4.308679	-0.954056	0.356876
O23	O	4.117835	-0.338252	0.367892
V24	V	4.645437	-0.559217	0.406979
O25	O	4.532227	-0.704084	0.334252
O26	O	4.755059	-0.455524	0.459070
O27	O	4.397760	-0.587518	0.540651
O28	O	4.866396	-0.553424	0.260970
O29	O	4.877126	-0.859769	0.405830
O30	O	4.387104	-0.283279	0.396788
C31	C	4.205080	-0.231949	0.381457
C32	C	4.061257	0.007308	0.378766
