data_functionalizedCrystal
_audit_creation_method	'MofGen! by Chris Wilmer'
_symmetry_space_group_name_H-M	'P1'
_symmetry_Int_Tables_number	1
_symmetry_cell_setting	triclinic
loop_
_symmetry_equiv_pos_as_xyz
  x,y,z
_cell_length_a	18.215407
_cell_length_b	14.908326
_cell_length_c	18.215399
_cell_angle_alpha	86.672976
_cell_angle_beta	90.016899
_cell_angle_gamma	86.680173
loop_
_atom_site_label
_atom_site_type_symbol
_atom_site_fract_x
_atom_site_fract_y
_atom_site_fract_z
Zn1	Zn	1.108154	0.359256	0.399132
Zn2	Zn	1.100957	0.510136	0.268957
Zn3	Zn	0.985086	0.359278	0.276085
Zn4	Zn	0.977950	0.510078	0.391991
O5	O	1.043037	0.434687	0.334041
O6	O	1.210183	0.379286	0.381870
O7	O	1.085561	0.490158	0.166917
O8	O	1.007409	0.233021	0.298379
O9	O	1.204895	0.490137	0.286231
O10	O	1.097827	0.233005	0.388781
O11	O	1.000431	0.379323	0.172153
O12	O	0.881155	0.379267	0.291454
O13	O	0.995247	0.490038	0.495924
O14	O	0.875913	0.490059	0.376610
O15	O	1.090908	0.379230	0.501171
O16	O	1.078642	0.636383	0.279306
O17	O	0.988269	0.636340	0.369699
C18	C	0.851832	0.434659	0.334031
C19	C	0.770032	0.434669	0.334043
C20	C	1.031920	0.669098	0.322970
C21	C	1.027232	0.769379	0.318259
C22	C	0.502259	0.492471	0.378313
C23	C	0.579118	0.492464	0.378310
C24	C	0.584555	0.376923	0.289782
C25	C	0.507697	0.376936	0.289781
C26	C	0.466551	0.434709	0.334051
C27	C	0.620268	0.434688	0.334048
C28	C	0.703602	0.434679	0.334045
C29	C	0.383211	0.434719	0.334054
C30	C	1.112503	0.957653	0.403642
C31	C	1.108100	1.051877	0.399218
C32	C	1.014021	1.052052	0.304990
C33	C	1.018423	0.957828	0.309414
C34	C	1.067667	0.910632	0.358741
C35	C	1.072073	0.816407	0.363162
C36	C	0.977990	0.816584	0.268938
C37	C	0.973588	0.910808	0.264513
C38	C	1.234988	0.434715	0.334052
C39	C	1.316787	0.434728	0.334056
C40	C	1.043084	0.434625	0.525997
C41	C	1.043105	0.434598	0.607797
C42	C	1.054187	1.199361	0.345166
C43	C	1.058862	1.099079	0.349893
C44	C	1.043035	0.434684	0.142835
C45	C	1.043169	0.434456	0.061047
C46	C	1.092935	0.376847	0.798727
C47	C	1.092945	0.376820	0.875587
C48	C	0.993334	0.492211	0.870112
C49	C	0.993321	0.492232	0.793254
C50	C	1.043125	0.434551	0.757563
C51	C	1.043148	0.434504	0.911282
C52	C	1.043159	0.434476	0.994617
C53	C	1.043114	0.434578	0.674223
H54	H	0.468760	0.539514	0.414360
H55	H	0.608188	0.539501	0.414351
H56	H	1.133487	0.329877	0.769670
O57	O	0.944862	0.548162	0.753236
C58	C	0.844944	0.560310	0.665836
C59	C	0.899769	0.496874	0.711128
H60	H	0.808483	0.518870	0.631769
H61	H	0.809301	0.601522	0.704514
H62	H	0.876501	0.607515	0.627656
H63	H	0.868272	0.449615	0.749312
H64	H	0.935412	0.455726	0.672407
O65	O	0.624413	0.320776	0.246713
C66	C	0.621693	0.206147	0.158931
C67	C	0.576467	0.269703	0.207660
H68	H	0.582949	0.164824	0.127356
H69	H	0.655689	0.247466	0.118399
H70	H	0.659935	0.159052	0.195011
H71	H	0.538185	0.316810	0.171639
H72	H	0.542521	0.228327	0.248197
H73	H	1.133503	0.329830	0.909099
H74	H	1.144607	1.090157	0.435785
O75	O	0.472973	0.320959	0.246685
C76	C	0.386735	0.308723	0.147929
C77	C	0.426017	0.372207	0.196681
H78	H	0.348750	0.350131	0.107498
H79	H	0.429317	0.267452	0.116238
H80	H	0.353016	0.261577	0.184001
H81	H	0.459734	0.419408	0.160663
H82	H	0.383397	0.413415	0.228377
O83	O	1.119919	0.770697	0.411142
C84	C	1.212789	0.780473	0.504114
C85	C	1.158626	0.832347	0.449817
H86	H	1.244109	0.830294	0.535387
H87	H	1.181067	0.736389	0.544681
H88	H	1.253326	0.736322	0.472429
H89	H	1.118076	0.876546	0.481440
H90	H	1.190395	0.876374	0.409251
H91	H	0.973926	1.090496	0.264834
O92	O	1.160351	0.911941	0.451619
C93	C	1.253232	0.921707	0.544581
C94	C	1.199066	0.973586	0.490291
H95	H	1.284559	0.971524	0.575851
H96	H	1.221513	0.877624	0.585151
H97	H	1.293764	0.877555	0.512891
H98	H	1.158522	1.017787	0.521919
H99	H	1.230833	1.017612	0.449722
O100	O	0.945030	0.548214	0.904899
C101	C	0.900874	0.599285	1.020878
C102	C	0.955628	0.535828	0.981579
H103	H	0.909413	0.589279	1.082881
H104	H	0.910340	0.672060	1.002378
H105	H	0.842290	0.583448	1.006464
H106	H	1.014233	0.551583	0.995974
H107	H	0.946098	0.463071	1.000081
O108	O	0.925820	0.956797	0.216615
C109	C	0.877313	1.102031	0.168066
C110	C	0.931452	1.050064	0.222334
H111	H	0.881837	1.177446	0.172683
H112	H	0.891142	1.083609	0.109587
H113	H	0.818837	1.083500	0.181791
H114	H	0.989947	1.068566	0.208677
H115	H	0.917560	1.068490	0.280798
H116	H	0.941484	0.778289	0.232374
