data_functionalizedCrystal
_audit_creation_method	'MofGen! by Chris Wilmer'
_symmetry_space_group_name_H-M	'P1'
_symmetry_Int_Tables_number	1
_symmetry_cell_setting	triclinic
loop_
_symmetry_equiv_pos_as_xyz
  x,y,z
_cell_length_a	11.792254
_cell_length_b	9.482900
_cell_length_c	11.026607
_cell_angle_alpha	101.386141
_cell_angle_beta	83.607693
_cell_angle_gamma	99.375122
loop_
_atom_site_label
_atom_site_type_symbol
_atom_site_fract_x
_atom_site_fract_y
_atom_site_fract_z
O1	O	-1.526100	0.120934	0.185500
O2	O	-1.199166	0.120928	0.202648
O3	O	-1.335538	0.120925	0.017241
O4	O	-1.389728	0.120937	0.370908
O5	O	-1.363285	-0.120868	-0.020503
O6	O	-1.226914	-0.120865	0.164905
O7	O	-1.553847	-0.120859	0.147757
Cu8	Cu	-1.392914	-0.142940	0.152885
Cu9	Cu	-1.360099	0.143008	0.197520
O10	O	-1.417476	-0.120856	0.333164
C11	C	-1.170535	0.000030	0.182696
C12	C	-1.043880	0.000028	0.179462
N13	N	-1.337018	0.344129	0.228906
C14	C	-1.339414	0.000030	-0.046908
C15	C	-1.309610	0.000035	-0.181819
C16	C	-0.941022	0.000031	0.176836
C17	C	-0.811983	0.000028	0.173550
C18	C	-0.582479	0.000035	0.167708
C19	C	-0.709135	0.000026	0.170940
N20	N	-1.416003	-0.344060	0.121490
C21	C	-1.386114	0.416327	0.162150
C22	C	-1.366899	0.583745	0.188255
C23	C	-1.391901	0.000038	-0.255078
C24	C	-1.361099	0.000043	-0.394516
C25	C	-1.413599	0.000042	0.397313
C26	C	-1.443402	0.000047	0.532226
H27	H	-1.442378	0.354198	0.085677
H28	H	-1.485156	0.000031	-0.214570
H29	H	-1.267838	0.000051	-0.435019
Cl30	Cl	-1.165627	0.000047	-0.244349
Cl31	Cl	-1.280042	0.679655	0.306345
Cl32	Cl	-1.250164	0.440045	0.346991
Cl33	Cl	-1.502874	0.560030	0.003412
H34	H	-1.536650	0.000158	-0.427255
