data_functionalizedCrystal
_audit_creation_method	'MofGen! by Chris Wilmer'
_symmetry_space_group_name_H-M	'P1'
_symmetry_Int_Tables_number	1
_symmetry_cell_setting	triclinic
loop_
_symmetry_equiv_pos_as_xyz
  x,y,z
_cell_length_a	17.699083
_cell_length_b	23.532407
_cell_length_c	16.176319
_cell_angle_alpha	89.988536
_cell_angle_beta	89.998611
_cell_angle_gamma	83.065847
loop_
_atom_site_label
_atom_site_type_symbol
_atom_site_fract_x
_atom_site_fract_y
_atom_site_fract_z
O1	O	1.003713	0.072020	-0.068639
O2	O	1.503713	0.572020	0.431361
O3	O	0.783287	0.081390	-0.068667
O4	O	1.283287	0.581390	0.431333
O5	O	0.900147	-0.006208	-0.068637
O6	O	1.400147	0.493792	0.431363
O7	O	0.886853	0.159618	-0.068669
O8	O	1.386853	0.659618	0.431331
O9	O	0.900131	-0.006213	0.068856
O10	O	1.400131	0.493787	0.568856
O11	O	0.783271	0.081384	0.068826
O12	O	1.283271	0.581384	0.568826
O13	O	1.003697	0.072014	0.068854
O14	O	1.503697	0.572014	0.568854
Cu15	Cu	0.893483	0.076699	0.081394
Cu16	Cu	1.393483	0.576699	0.581394
Cu17	Cu	0.893502	0.076705	-0.081207
Cu18	Cu	1.393502	0.576705	0.418793
O19	O	0.886837	0.159612	0.068824
O20	O	1.386837	0.659612	0.568824
C21	C	0.755084	0.081051	0.000076
C22	C	1.255084	0.581051	0.500076
C23	C	0.671071	0.080044	0.000066
C24	C	1.171071	0.580044	0.500066
C25	C	0.622189	0.131462	0.000056
C26	C	1.122189	0.631462	0.500056
C27	C	0.543251	0.130512	0.000067
C28	C	1.043251	0.630512	0.500067
C29	C	0.513196	0.078144	0.000082
C30	C	1.013196	0.578144	0.500082
C31	C	0.562084	0.026722	0.000094
C32	C	1.062084	0.526722	0.500094
C33	C	0.641021	0.027672	0.000089
C34	C	1.141021	0.527672	0.500089
C35	C	0.243740	0.022888	0.000115
C36	C	0.743740	0.522888	0.500115
C37	C	0.164797	0.021942	0.000117
C38	C	0.664797	0.521942	0.500117
C39	C	0.145970	0.125728	0.000093
C40	C	0.645970	0.625728	0.500093
C41	C	0.224907	0.126678	0.000088
C42	C	0.724907	0.626678	0.500088
C43	C	0.273788	0.075257	0.000105
C44	C	0.773788	0.575257	0.500105
C45	C	0.359382	0.076287	0.000094
C46	C	0.859382	0.576287	0.500094
C47	C	0.427603	0.077113	0.000086
C48	C	0.927603	0.577113	0.500086
C49	C	0.899801	-0.027427	0.000111
C50	C	1.399801	0.472573	0.500111
C51	C	0.898783	-0.090647	0.000118
C52	C	1.398783	0.409353	0.500118
C53	C	0.961554	-0.489570	0.000080
C54	C	1.461554	0.010430	0.500080
C55	C	0.960609	-0.548973	0.000074
C56	C	1.460609	-0.048973	0.500074
O57	O	1.018799	-0.585550	0.000051
O58	O	1.518799	-0.085550	0.500051
N59	N	0.891136	-0.571799	0.000066
N60	N	1.391136	-0.071799	0.500066
C61	C	0.822604	-0.535218	0.000055
C62	C	1.322604	-0.035218	0.500055
O63	O	0.763424	-0.560088	0.000047
O64	O	1.263424	-0.060088	0.500047
C65	C	0.823550	-0.475816	0.000056
C66	C	1.323550	0.024184	0.500056
C67	C	0.893028	-0.452994	0.000073
C68	C	1.393028	0.047006	0.500073
C69	C	1.031026	-0.466747	0.000096
C70	C	1.531026	0.033253	0.500096
C71	C	1.031972	-0.407348	0.000104
C72	C	1.531972	0.092652	0.500104
C73	C	0.963445	-0.370772	0.000096
C74	C	1.463445	0.129228	0.500096
C75	C	0.893973	-0.393595	0.000080
C76	C	1.393973	0.106405	0.500080
C77	C	0.755019	-0.439237	0.000040
C78	C	1.255019	0.060763	0.500040
C79	C	0.755971	-0.379832	0.000039
C80	C	1.255971	0.120168	0.500039
C81	C	0.825448	-0.357009	0.000056
C82	C	1.325448	0.142991	0.500056
C83	C	0.826391	-0.297620	0.000081
C84	C	1.326391	0.202380	0.500081
N85	N	0.895864	-0.274795	0.000089
N86	N	1.395864	0.225205	0.500089
C87	C	0.964391	-0.311371	0.000097
C88	C	1.464391	0.188629	0.500097
C89	C	0.820622	-0.659966	0.000053
C90	C	1.320622	-0.159966	0.500053
C91	C	0.819674	-0.719367	0.000058
C92	C	1.319674	-0.219367	0.500058
C93	C	0.957680	-0.733118	0.000075
C94	C	1.457680	-0.233118	0.500075
C95	C	0.958626	-0.673716	0.000076
C96	C	1.458626	-0.173716	0.500076
C97	C	0.890095	-0.637141	0.000061
C98	C	1.390095	-0.137141	0.500061
C99	C	0.966371	-0.186628	0.000114
C100	C	1.466371	0.313372	0.500114
C101	C	0.967310	-0.127223	0.000125
C102	C	1.467310	0.372777	0.500125
C103	C	0.829305	-0.113478	0.000104
C104	C	1.329305	0.386522	0.500104
C105	C	0.828365	-0.172877	0.000097
C106	C	1.328365	0.327123	0.500097
C107	C	0.896904	-0.209452	0.000099
C108	C	1.396904	0.290548	0.500099
O109	O	0.768232	-0.261008	0.000100
O110	O	1.268232	0.238992	0.500100
O111	O	1.023560	-0.286493	0.000094
O112	O	1.523560	0.213507	0.500094
C113	C	1.031901	0.072353	0.000109
C114	C	1.531901	0.572353	0.500109
C115	C	1.115914	0.073360	0.000114
C116	C	1.615914	0.573360	0.500114
C117	C	0.887184	0.180832	0.000073
C118	C	1.387184	0.680832	0.500073
C119	C	0.888202	0.244052	0.000062
C120	C	1.388202	0.744052	0.500062
N121	N	0.893475	0.076694	0.195759
N122	N	1.393475	0.576694	0.695759
N123	N	0.893516	0.076706	-0.195573
N124	N	1.393516	0.576706	0.304427
C125	C	0.945236	0.037921	0.239037
C126	C	1.445236	0.537921	0.739037
C127	C	0.945240	0.037921	0.325584
C128	C	1.445240	0.537921	0.825584
C129	C	0.893486	0.076696	0.368852
C130	C	1.393486	0.576696	0.868852
C131	C	0.841719	0.115470	0.325568
C132	C	1.341719	0.615470	0.825568
C133	C	0.841713	0.115467	0.239023
C134	C	1.341713	0.615467	0.739023
C135	C	0.841745	0.115481	0.674597
C136	C	1.341745	0.615481	1.174597
C137	C	0.841758	0.115481	0.761148
C138	C	1.341758	0.615481	1.261148
C139	C	0.945273	0.037934	0.761158
C140	C	1.445273	0.537934	1.261158
C141	C	0.945266	0.037932	0.674612
C142	C	1.445266	0.537932	1.174612
C143	C	0.893497	0.076704	0.631336
C144	C	1.393497	0.576704	1.131336
C145	C	0.893493	0.076703	0.537492
C146	C	1.393493	0.576703	1.037492
C147	C	0.893493	0.076700	0.462695
C148	C	1.393493	0.576700	0.962695
H149	H	0.140330	-0.020705	0.000130
H150	H	0.640330	0.479295	0.500130
H151	H	0.987383	0.006349	0.203814
H152	H	1.487383	0.506349	0.703814
N153	N	1.001109	-0.003886	0.807837
N154	N	1.501109	0.496114	1.307837
H155	H	0.972388	-0.029079	0.843756
H156	H	1.472388	0.470921	1.343756
H157	H	1.033882	-0.028408	0.767240
H158	H	1.533882	0.471592	1.267240
N159	N	1.104944	-0.506192	0.000105
N160	N	1.604944	-0.006192	0.500105
H161	H	1.149090	-0.482711	0.000116
H162	H	1.649090	0.017289	0.500116
H163	H	1.107553	-0.531142	0.051079
H164	H	1.607553	-0.031142	0.551079
H165	H	0.537607	-0.015917	0.000117
H166	H	1.037607	0.484083	0.500117
H167	H	1.013478	-0.762909	0.000079
H168	H	1.513478	-0.262909	0.500079
N169	N	0.296456	-0.032571	0.000138
N170	N	0.796456	0.467429	0.500138
H171	H	0.265436	-0.065888	0.000147
H172	H	0.765436	0.434112	0.500147
H173	H	0.329621	-0.034441	-0.050830
H174	H	0.829621	0.465559	0.449170
N175	N	0.693747	-0.027785	0.000105
N176	N	1.193747	0.472215	0.500105
H177	H	0.662731	-0.061105	0.000115
H178	H	1.162731	0.438895	0.500115
H179	H	0.726910	-0.029652	-0.050864
H180	H	1.226910	0.470348	0.449136
H181	H	0.987387	0.006349	0.360820
H182	H	1.487387	0.506349	0.860820
H183	H	0.799595	0.147051	0.639368
H184	H	1.299595	0.647051	1.139368
H185	H	0.503454	0.172382	0.000058
H186	H	1.003454	0.672382	0.500058
H187	H	1.015201	-0.655139	0.000089
H188	H	1.515201	-0.155139	0.500089
N189	N	0.744734	-0.743973	0.000059
N190	N	1.244734	-0.243973	0.500059
H191	H	0.714738	-0.730617	-0.050911
H192	H	1.214738	-0.230617	0.449089
H193	H	0.754584	-0.787151	0.000090
H194	H	1.254584	-0.287151	0.500090
H195	H	0.764811	-0.630189	0.000048
H196	H	1.264811	-0.130189	0.500048
H197	H	0.987411	0.006359	0.639386
H198	H	1.487411	0.506359	1.139386
H199	H	0.249373	0.169322	0.000072
H200	H	0.749373	0.669322	0.500072
H201	H	0.771791	-0.191460	0.000106
H202	H	1.271791	0.308540	0.500106
N203	N	1.042249	-0.102608	0.000148
N204	N	1.542249	0.397392	0.500148
H205	H	1.085515	-0.134796	0.000150
H206	H	1.585515	0.365204	0.500150
H207	H	1.045657	-0.078252	-0.050818
H208	H	1.545657	0.421748	0.449182
H209	H	0.698442	-0.457808	0.000021
H210	H	1.198442	0.042192	0.500021
N211	N	0.785930	0.157301	0.807819
N212	N	1.285930	0.657301	1.307819
H213	H	0.753131	0.181861	0.767272
H214	H	1.253131	0.681861	1.267272
H215	H	0.752649	0.135523	0.843740
H216	H	1.252649	0.635523	1.343740
N217	N	0.785892	0.157289	0.372231
N218	N	1.285892	0.657289	0.872231
H219	H	0.793751	0.151409	0.433625
H220	H	1.293751	0.651409	0.933625
H221	H	0.794325	0.197682	0.357087
H222	H	1.294325	0.697682	0.857087
H223	H	0.106161	0.167598	0.000084
H224	H	0.606161	0.667598	0.500084
N225	N	0.755396	-0.074023	0.000118
N226	N	1.255396	0.425977	0.500118
H227	H	0.766544	-0.032930	0.000128
H228	H	1.266544	0.467070	0.500128
H229	H	0.725096	-0.081386	-0.050854
H230	H	1.225096	0.418614	0.449146
N231	N	0.785884	0.157289	0.192348
N232	N	1.285884	0.657289	0.692348
H233	H	0.814607	0.182478	0.156425
H234	H	1.314607	0.682478	0.656425
H235	H	0.752549	0.135514	0.156503
H236	H	1.252549	0.635514	0.656503
H237	H	0.700163	-0.350054	0.000026
H238	H	1.200163	0.149946	0.500026
H239	H	0.646653	0.174106	0.000044
H240	H	1.146653	0.674106	0.500044
H241	H	1.022182	-0.216401	0.000113
H242	H	1.522182	0.283599	0.500113
H243	H	1.088547	-0.388773	0.000114
H244	H	1.588547	0.111227	0.500114
