data_functionalizedCrystal
_audit_creation_method	'MofGen! by Chris Wilmer'
_symmetry_space_group_name_H-M	'P1'
_symmetry_Int_Tables_number	1
_symmetry_cell_setting	triclinic
loop_
_symmetry_equiv_pos_as_xyz
  x,y,z
_cell_length_a	12.837943
_cell_length_b	15.944551
_cell_length_c	11.295483
_cell_angle_alpha	94.094426
_cell_angle_beta	85.461227
_cell_angle_gamma	89.163839
loop_
_atom_site_label
_atom_site_type_symbol
_atom_site_fract_x
_atom_site_fract_y
_atom_site_fract_z
O1	O	1.382450	0.213265	-0.099009
O2	O	1.882450	0.713265	0.400991
O3	O	1.080644	0.202478	-0.099016
O4	O	1.580644	0.702478	0.400984
O5	O	1.239788	0.086257	-0.099002
O6	O	1.739788	0.586257	0.400998
O7	O	1.223306	0.329487	-0.099023
O8	O	1.723306	0.829487	0.400977
O9	O	1.225810	0.096448	0.099048
O10	O	1.725810	0.596448	0.599048
O11	O	1.066666	0.212669	0.099034
O12	O	1.566666	0.712669	0.599034
O13	O	1.368472	0.223456	0.099040
O14	O	1.868472	0.723456	0.599040
Cu15	Cu	1.216293	0.218993	0.117121
Cu16	Cu	1.716293	0.718993	0.617121
Cu17	Cu	1.232823	0.206941	-0.117096
Cu18	Cu	1.732823	0.706941	0.382904
O19	O	1.209328	0.339677	0.099026
O20	O	1.709328	0.839677	0.599026
C21	C	1.035034	0.203930	0.000008
C22	C	1.535034	0.703930	0.500008
C23	C	0.919957	0.193062	0.000006
C24	C	1.419957	0.693062	0.500006
C25	C	0.679007	0.323714	0.000011
C26	C	1.179007	0.823714	0.500011
C27	C	0.570881	0.313507	0.000010
C28	C	1.070881	0.813507	0.500010
C29	C	0.595575	0.162440	0.000011
C30	C	1.095575	0.662440	0.500011
C31	C	0.703701	0.172648	0.000012
C32	C	1.203701	0.672648	0.500012
C33	C	0.745413	0.253287	0.000011
C34	C	1.245413	0.753287	0.500011
C35	C	0.853542	0.263494	0.000003
C36	C	1.353542	0.763494	0.500003
C37	C	0.878234	0.112428	0.000013
C38	C	1.378234	0.612428	0.500013
C39	C	0.770107	0.102221	0.000011
C40	C	1.270107	0.602221	0.500011
C41	C	1.232115	0.060004	0.000023
C42	C	1.732115	0.560004	0.500023
C43	C	1.230063	-0.033407	0.000024
C44	C	1.730063	0.466593	0.500024
C45	C	1.126515	-0.256548	0.000005
C46	C	1.626515	0.243452	0.500005
C47	C	1.167708	-0.308694	0.097657
C48	C	1.667708	0.191306	0.597657
C49	C	1.226352	-0.204430	0.000015
C50	C	1.726352	0.295570	0.500015
C51	C	1.181513	-0.318722	-0.097604
C52	C	1.681513	0.181278	0.402396
C53	C	1.222761	-0.369631	0.000001
C54	C	1.722761	0.130369	0.500001
C55	C	1.267567	-0.255341	0.097747
C56	C	1.767567	0.244659	0.597747
C57	C	1.281364	-0.265369	-0.097602
C58	C	1.781364	0.234631	0.402398
C59	C	1.322627	-0.317491	0.000073
C60	C	1.822627	0.182509	0.500073
C61	C	1.228418	-0.109262	0.000024
C62	C	1.728418	0.390738	0.500024
C63	C	1.220702	-0.464796	0.000000
C64	C	1.720702	0.035204	0.500000
C65	C	1.414082	0.222005	0.000014
C66	C	1.914082	0.722005	0.500014
C67	C	1.529160	0.232872	0.000008
C68	C	2.029160	0.732872	0.500008
C69	C	1.217002	0.365931	-0.000001
C70	C	1.717002	0.865931	0.499999
C71	C	1.219054	0.459340	-0.000010
C72	C	1.719054	0.959340	0.499990
N73	N	1.204674	0.227469	0.281856
N74	N	1.704674	0.727469	0.781856
N75	N	1.244451	0.198459	-0.281831
N76	N	1.744451	0.698459	0.218169
C77	C	1.328092	0.137394	0.531156
C78	C	1.828092	0.637394	1.031156
C79	C	1.319318	0.143806	0.655819
C80	C	1.819318	0.643806	1.155819
C81	C	1.178349	0.246701	0.655847
C82	C	1.678349	0.746701	1.155847
C83	C	1.187123	0.240289	0.531184
C84	C	1.687123	0.740289	1.031184
C85	C	1.261997	0.185634	0.468843
C86	C	1.761997	0.685634	0.968843
C87	C	1.270775	0.179227	0.344178
C88	C	1.770775	0.679227	0.844178
C89	C	1.129802	0.282117	0.344208
C90	C	1.629802	0.782117	0.844208
C91	C	1.121028	0.288530	0.468871
C92	C	1.621028	0.788530	0.968871
H93	H	0.932315	0.055081	0.000004
H94	H	1.432315	0.555081	0.500004
C95	C	1.102796	-0.334689	0.209177
C96	C	1.602796	0.165311	0.709177
H97	H	1.033137	-0.313768	0.209059
H98	H	1.533137	0.186232	0.709059
H99	H	1.132698	-0.312055	0.278520
H100	H	1.632698	0.187945	0.778520
H101	H	1.102489	-0.394288	0.208735
H102	H	1.602489	0.105712	0.708735
C103	C	1.014563	-0.220493	0.000131
C104	C	1.514563	0.279507	0.500131
H105	H	0.974355	-0.235166	0.069601
H106	H	1.474355	0.264834	0.569601
H107	H	0.983586	-0.243064	-0.068534
H108	H	1.483586	0.256936	0.431466
H109	H	1.016686	-0.160998	-0.000569
H110	H	1.516686	0.339002	0.499431
C111	C	1.353136	0.119117	0.275599
C112	C	1.853136	0.619117	0.775599
H113	H	1.348906	0.122213	0.192428
H114	H	1.848906	0.622213	0.692428
H115	H	1.340442	0.063201	0.296031
H116	H	1.840442	0.563201	0.796031
H117	H	1.420881	0.134866	0.296018
H118	H	1.920881	0.634866	0.796018
H119	H	1.373138	0.104523	0.706551
H120	H	1.873138	0.604523	1.206551
C121	C	1.410451	0.077281	0.462578
C122	C	1.910451	0.577281	0.962578
H123	H	1.448557	0.049466	0.517545
H124	H	1.948557	0.549466	1.017545
H125	H	1.457022	0.108469	0.413933
H126	H	1.957022	0.608469	0.913933
H127	H	1.376577	0.036808	0.413961
H128	H	1.876577	0.536808	0.913961
C129	C	1.095994	0.306812	0.724435
C130	C	1.595994	0.806812	1.224435
H131	H	1.100241	0.303721	0.807604
H132	H	1.600241	0.803721	1.307604
H133	H	1.028249	0.291076	0.704021
H134	H	1.528249	0.791076	1.204021
H135	H	1.108700	0.362732	0.704008
H136	H	1.608700	0.862732	1.204008
C137	C	1.434619	-0.353407	0.000213
C138	C	1.934619	0.146593	0.500213
H139	H	1.450284	-0.390077	-0.069162
H140	H	1.950284	0.109923	0.430838
H141	H	1.440027	-0.383693	0.068974
H142	H	1.940027	0.116307	0.568974
H143	H	1.482627	-0.308628	0.000915
H144	H	1.982627	0.191372	0.500915
H145	H	0.561586	0.096792	0.000111
H146	H	1.061586	0.596792	0.500111
H147	H	1.145100	-0.346426	-0.180167
H148	H	1.645100	0.153574	0.319833
H149	H	1.303925	-0.227723	0.180394
H150	H	1.803925	0.272277	0.680394
C151	C	1.038677	0.348648	0.537452
C152	C	1.538677	0.848648	1.037452
H153	H	1.042922	0.345563	0.620621
H154	H	1.542922	0.845563	1.120621
H155	H	0.970931	0.332916	0.517038
H156	H	1.470931	0.832916	1.017038
H157	H	1.051391	0.404565	0.517015
H158	H	1.551391	0.904565	1.017015
H159	H	1.329382	-0.246112	-0.180161
H160	H	1.829382	0.253888	0.319839
H161	H	0.736129	0.036567	0.000026
H162	H	1.236129	0.536567	0.500026
C163	C	1.057107	0.335195	0.275661
C164	C	1.557107	0.835195	0.775661
H165	H	1.073054	0.323550	0.192487
H166	H	1.573054	0.823550	0.692487
H167	H	1.066942	0.393208	0.296097
H168	H	1.566942	0.893208	0.796097
H169	H	0.986477	0.321561	0.296097
H170	H	1.486477	0.821561	0.796097
H171	H	0.712969	0.389374	0.000008
H172	H	1.212969	0.889374	0.500008
C173	C	0.899430	0.352190	0.000002
C174	C	1.399430	0.852190	0.500002
H175	H	0.973339	0.348185	-0.000009
H176	H	1.473339	0.848185	0.499991
H177	H	0.871764	0.385103	0.069066
H178	H	1.371764	0.885103	0.569066
H179	H	0.881509	0.377999	-0.069071
H180	H	1.381509	0.877999	0.430929
C181	C	0.497838	0.390976	0.000001
C182	C	0.997838	0.890976	0.500001
H183	H	0.538171	0.440460	-0.000010
H184	H	1.038171	0.940460	0.499990
H185	H	0.450267	0.393688	0.069061
H186	H	0.950267	0.893688	0.569061
H187	H	0.460024	0.386580	-0.069076
H188	H	0.960024	0.886580	0.430924
