data_functionalizedCrystal
_audit_creation_method	'MofGen! by Chris Wilmer'
_symmetry_space_group_name_H-M	'P1'
_symmetry_Int_Tables_number	1
_symmetry_cell_setting	triclinic
loop_
_symmetry_equiv_pos_as_xyz
  x,y,z
_cell_length_a	18.878441
_cell_length_b	14.560438
_cell_length_c	14.560438
_cell_angle_alpha	59.996693
_cell_angle_beta	90.001684
_cell_angle_gamma	60.001992
loop_
_atom_site_label
_atom_site_type_symbol
_atom_site_fract_x
_atom_site_fract_y
_atom_site_fract_z
Zr1	Zr	0.682394	1.005320	-0.120582
O2	O	0.569287	1.196930	-0.267244
O3	O	0.717066	0.813711	-0.075613
O4	O	0.717064	1.005323	-0.267230
O5	O	0.569293	1.005316	0.075513
O6	O	0.833633	1.005323	-0.267228
O7	O	0.569290	1.005318	-0.075628
O8	O	0.833638	0.662565	0.075539
O9	O	0.569288	1.348074	-0.267254
O10	O	0.818849	0.892523	-0.056444
O11	O	0.731857	0.892520	0.056350
O12	O	0.731854	1.118118	-0.169254
O13	O	0.644861	1.118115	-0.056461
Zr14	Zr	0.868314	1.005317	0.120473
Zr15	Zr	0.868309	1.005321	-0.120579
Zr16	Zr	0.682398	1.005316	0.120470
Zr17	Zr	0.682395	1.246377	-0.120597
Zr18	Zr	0.868312	0.764260	0.120488
O19	O	0.833641	1.196926	0.075504
O20	O	0.833634	1.196931	-0.267241
O21	O	0.569294	1.196924	0.075501
O22	O	0.981420	0.813707	0.267135
O23	O	0.981414	0.813713	-0.075610
O24	O	0.717073	0.813705	0.267132
O25	O	0.981415	1.005321	-0.075622
O26	O	0.833644	1.005314	0.267121
O27	O	0.717074	1.005314	0.267119
O28	O	0.981418	1.005318	0.075519
O29	O	0.717066	1.348074	-0.267252
O30	O	0.833642	0.662562	0.267143
O31	O	0.981419	0.662563	0.267145
O32	O	0.981416	0.662566	0.075541
O33	O	0.569292	1.348070	-0.075650
O34	O	0.717069	1.348071	-0.075648
O35	O	0.818854	0.892519	0.169145
O36	O	0.905846	0.892521	0.056352
O37	O	0.818850	1.118117	-0.056458
O38	O	0.731858	1.118114	0.056335
C39	C	0.775352	0.703793	-0.000035
C40	C	0.775351	0.601458	-0.000029
C41	C	0.711129	0.636673	-0.083312
C42	C	0.711133	0.540533	-0.083341
C43	C	0.839585	0.373964	0.083207
C44	C	0.839584	0.470103	0.083230
C45	C	0.542802	1.005317	-0.000058
C46	C	0.463876	1.005317	-0.000059
C47	C	0.426795	1.005321	-0.083326
C48	C	0.352638	1.005314	-0.083321
C49	C	0.315561	1.005312	-0.000053
C50	C	0.352649	1.005303	0.083223
C51	C	0.426808	1.005301	0.083222
C52	C	0.198077	1.005311	0.083217
C53	C	0.123912	1.005315	0.083217
C54	C	0.123908	1.005324	-0.083326
C55	C	0.198066	1.005322	-0.083327
C56	C	0.235149	1.005316	-0.000052
C57	C	1.007905	1.005320	-0.000051
C58	C	1.086831	1.005320	-0.000050
C59	C	0.775348	1.005323	-0.301574
C60	C	0.775346	1.005325	-0.403907
C61	C	0.775355	1.306844	-0.000074
C62	C	0.775356	1.409179	-0.000080
C63	C	0.729936	1.123081	-0.510869
C64	C	0.729946	1.123075	-0.607018
C65	C	0.820777	0.887546	-0.489229
C66	C	0.820771	0.887554	-0.393082
C67	C	0.775360	1.005313	0.301465
C68	C	0.775362	1.005312	0.403798
C69	C	1.007903	0.703794	-0.000032
C70	C	1.086829	0.601460	-0.000024
C71	C	0.775358	0.703788	0.301484
C72	C	0.775359	0.601451	0.403824
C73	C	1.007909	0.703789	0.301487
C74	C	1.086837	0.601453	0.403828
C75	C	0.542798	1.306848	-0.301596
C76	C	0.463871	1.409184	-0.403937
C77	C	0.542804	1.306843	-0.000077
C78	C	0.463879	1.409177	-0.000085
C79	C	0.775349	1.306849	-0.301593
C80	C	0.775348	1.409186	-0.403933
C81	C	1.078481	0.553403	-0.058909
C82	C	1.152633	0.457262	-0.058925
C83	C	1.235131	0.409173	-0.000048
C84	C	1.243476	0.457239	0.058839
C85	C	1.169326	0.553385	0.058847
C86	C	1.169319	0.553396	0.393011
C87	C	1.243486	0.457254	0.489162
C88	C	1.235170	0.409163	0.596128
C89	C	1.152679	0.457230	0.606943
C90	C	1.078513	0.553377	0.510793
C91	C	0.381389	1.457252	-0.393120
C92	C	0.307221	1.553425	-0.489271
C93	C	0.315537	1.601520	-0.596237
C94	C	0.398028	1.553447	-0.607052
C95	C	0.472194	1.457284	-0.510902
C96	C	0.472226	1.457244	0.058790
C97	C	0.398074	1.553411	0.058779
C98	C	0.315576	1.601504	-0.000101
C99	C	0.307231	1.553433	-0.058983
C100	C	0.381382	1.457274	-0.058978
C101	C	0.820771	0.553370	0.510781
C102	C	0.820762	0.457223	0.606936
C103	C	0.729930	0.457242	0.489163
C104	C	0.729934	0.553394	0.393010
H105	H	0.891886	0.441418	0.151052
N106	N	0.406984	1.605327	-0.722429
H107	H	0.439732	1.531975	-0.731444
H108	H	0.439718	1.645243	-0.731385
H109	H	1.145821	0.418138	-0.106877
N110	N	0.680945	0.405400	0.477497
H111	H	0.635248	0.422127	0.514763
H112	H	0.722654	0.308895	0.514754
H113	H	1.176106	0.592537	0.305922
N114	N	0.218257	1.605259	-0.477592
H115	H	0.224250	1.560183	-0.395238
H116	H	0.185503	1.588537	-0.514925
N117	N	0.561156	1.405438	-0.522577
H118	H	0.555161	1.450502	-0.604932
H119	H	0.593898	1.308917	-0.485256
H120	H	0.539393	1.418094	0.106745
H121	H	0.404887	1.592534	0.106732
H122	H	1.145921	0.418060	0.694048
H123	H	0.692950	0.592545	0.305914
N124	N	0.680980	1.250097	-0.722375
H125	H	0.617451	1.301592	-0.731402
H126	H	0.687943	1.232140	-0.781586
N127	N	0.869750	0.605224	0.522434
H128	H	0.915451	0.588487	0.485173
H129	H	0.898460	0.560154	0.604804
H130	H	0.456975	1.005332	-0.151137
H131	H	1.295568	0.330874	0.674410
H132	H	0.857760	0.791661	-0.480429
N133	N	0.989549	0.605199	0.522459
H134	H	0.982601	0.645088	0.564935
H135	H	0.982675	0.531762	0.564915
H136	H	0.093711	1.005329	-0.151131
H137	H	0.255205	1.679802	-0.000096
H138	H	0.240051	1.592604	-0.106921
H139	H	0.374601	1.418098	-0.306031
N140	N	1.332459	0.405367	0.122337
H141	H	1.378159	0.337165	0.113393
H142	H	1.339337	0.365529	0.204683
H143	H	0.658822	0.743624	-0.151101
H144	H	0.374573	1.418141	-0.106917
N145	N	1.315104	0.305475	-0.000064
H146	H	1.297290	0.282333	-0.046302
H147	H	1.350768	0.225747	0.079712
N148	N	0.869758	0.760539	-0.277705
H149	H	0.898531	0.685931	-0.285435
H150	H	0.828062	0.755409	-0.235246
H151	H	0.322447	1.005317	-0.151123
H152	H	0.255140	1.679822	-0.674519
H153	H	0.857739	0.418082	0.694023
H154	H	1.310647	0.418128	0.480336
N155	N	0.641870	0.578513	-0.173173
H156	H	0.601183	0.676313	-0.225912
H157	H	0.608191	0.542235	-0.136774
H158	H	0.891880	0.267006	0.150995
H159	H	0.228251	1.005334	-0.151135
H160	H	1.011314	0.592556	-0.106867
H161	H	0.692947	1.218979	-0.519689
N162	N	0.083918	1.005315	0.173024
H163	H	0.118664	1.005302	0.225782
H164	H	0.084028	0.925233	0.216689
H165	H	0.228270	1.005299	0.151032
H166	H	0.457000	1.005294	0.151028
N167	N	0.312653	1.005301	0.173028
H168	H	0.294680	1.085381	0.169390
H169	H	0.356475	0.925162	0.249433
N170	N	1.178335	0.605208	0.122366
H171	H	1.241851	0.560146	0.159661
H172	H	1.149555	0.588460	0.181569
