data_functionalizedCrystal
_audit_creation_method	'MofGen! by Chris Wilmer'
_symmetry_space_group_name_H-M	'P1'
_symmetry_Int_Tables_number	1
_symmetry_cell_setting	triclinic
loop_
_symmetry_equiv_pos_as_xyz
  x,y,z
_cell_length_a	16.109302
_cell_length_b	16.109304
_cell_length_c	15.186229
_cell_angle_alpha	89.999066
_cell_angle_beta	89.994701
_cell_angle_gamma	83.462209
loop_
_atom_site_label
_atom_site_type_symbol
_atom_site_fract_x
_atom_site_fract_y
_atom_site_fract_z
O1	O	1.103131	0.106869	-0.073263
O2	O	1.603131	0.606869	0.426737
O3	O	0.861070	0.120167	-0.073255
O4	O	1.361070	0.620167	0.426745
O5	O	0.988749	-0.007513	-0.073259
O6	O	1.488749	0.492487	0.426741
O7	O	0.975452	0.234549	-0.073258
O8	O	1.475452	0.734549	0.426742
O9	O	0.988740	-0.007514	0.073198
O10	O	1.488740	0.492486	0.573198
O11	O	0.861061	0.120166	0.073202
O12	O	1.361061	0.620166	0.573202
O13	O	1.103123	0.106867	0.073195
O14	O	1.603123	0.606867	0.573195
Zn15	Zn	0.982091	0.113516	0.096452
Zn16	Zn	1.482091	0.613516	0.596452
Zn17	Zn	0.982102	0.113518	-0.096512
Zn18	Zn	1.482102	0.613518	0.403488
O19	O	0.975444	0.234547	0.073199
O20	O	1.475444	0.734547	0.573199
C21	C	0.830090	0.119628	-0.000025
C22	C	1.330090	0.619628	0.499975
C23	C	0.737795	0.118012	-0.000023
C24	C	1.237795	0.618012	0.499977
C25	C	0.525450	0.114276	0.079802
C26	C	1.025450	0.614276	0.579802
C27	C	0.438729	0.112750	0.079799
C28	C	0.938729	0.612750	0.579799
C29	C	0.438749	0.112756	-0.079876
C30	C	0.938749	0.612756	0.420124
C31	C	0.525468	0.114277	-0.079872
C32	C	1.025468	0.614277	0.420128
C33	C	0.568816	0.115041	-0.000030
C34	C	1.068816	0.615041	0.499970
C35	C	0.395377	0.111994	-0.000038
C36	C	0.895377	0.611994	0.499962
C37	C	0.301351	0.110338	-0.000041
C38	C	0.801351	0.610338	0.499959
C39	C	0.662848	0.116695	-0.000026
C40	C	1.162848	0.616695	0.499974
C41	C	0.988206	-0.038488	-0.000033
C42	C	1.488206	0.461512	0.499967
C43	C	0.986590	-0.130784	-0.000039
C44	C	1.486590	0.369216	0.499961
C45	C	0.982861	-0.343120	-0.079869
C46	C	1.482861	0.156880	0.420131
C47	C	0.981334	-0.429840	-0.079868
C48	C	1.481334	0.070160	0.420132
C49	C	0.981329	-0.429839	0.079807
C50	C	1.481329	0.070161	0.579807
C51	C	0.982849	-0.343120	0.079806
C52	C	1.482849	0.156880	0.579806
C53	C	0.983619	-0.299763	-0.000035
C54	C	1.483619	0.200237	0.499965
C55	C	0.980573	-0.473202	-0.000033
C56	C	1.480573	0.026798	0.499967
C57	C	0.978918	-0.567228	-0.000031
C58	C	1.478918	-0.067228	0.499969
C59	C	0.985272	-0.205731	-0.000037
C60	C	1.485272	0.294269	0.499963
C61	C	1.134102	0.107407	-0.000037
C62	C	1.634102	0.607407	0.499963
C63	C	1.226397	0.109022	-0.000045
C64	C	1.726397	0.609022	0.499955
C65	C	0.975987	0.265523	-0.000029
C66	C	1.475987	0.765523	0.499971
C67	C	0.977603	0.357818	-0.000029
C68	C	1.477603	0.857818	0.499971
N69	N	0.982089	0.113514	0.228144
N70	N	1.482089	0.613514	0.728144
N71	N	0.982110	0.113514	-0.228205
N72	N	1.482110	0.613514	0.271795
C73	C	1.038645	0.056996	0.453865
C74	C	1.538645	0.556996	0.953865
C75	C	1.038647	0.056994	0.546055
C76	C	1.538647	0.556994	1.046055
C77	C	0.925548	0.170034	0.546068
C78	C	1.425548	0.670034	1.046068
C79	C	0.925542	0.170032	0.453880
C80	C	1.425542	0.670032	0.953880
C81	C	0.982095	0.113514	0.407781
C82	C	1.482095	0.613514	0.907781
C83	C	0.982104	0.113514	0.592159
C84	C	1.482104	0.613514	1.092159
C85	C	0.982106	0.113513	0.692115
C86	C	1.482106	0.613513	1.192115
C87	C	0.982092	0.113514	0.307819
C88	C	1.482092	0.613514	0.807819
H89	H	0.983485	-0.307821	-0.144881
H90	H	1.483485	0.192179	0.355119
H91	H	0.980704	-0.465151	0.144811
H92	H	1.480704	0.034849	0.644811
H93	H	0.403424	0.112127	0.144807
H94	H	0.903424	0.612127	0.644807
O95	O	0.980452	-0.471975	-0.157396
O96	O	1.480452	0.028025	0.342604
C97	C	0.907619	-0.512715	-0.162162
C98	C	1.407619	-0.012715	0.337838
H99	H	0.857777	-0.479984	-0.116856
H100	H	1.357777	0.020016	0.383144
H101	H	0.883451	-0.510530	-0.232773
H102	H	1.383451	-0.010530	0.267227
H103	H	0.922732	-0.580571	-0.140713
H104	H	1.422732	-0.080571	0.359287
H105	H	0.983463	-0.307817	0.144820
H106	H	1.483463	0.192183	0.644820
O107	O	1.093507	0.002138	0.408948
O108	O	1.593507	0.502138	0.908948
C109	C	1.081348	0.014221	0.317697
C110	C	1.581348	0.514221	0.817697
H111	H	1.050306	0.080329	0.305093
H112	H	1.550306	0.580329	0.805093
H113	H	1.144296	0.004923	0.282632
H114	H	1.644296	0.504923	0.782632
H115	H	1.039610	-0.032819	0.291579
H116	H	1.539610	0.467181	0.791579
O117	O	1.093661	0.002064	0.590684
O118	O	1.593661	0.502064	1.090684
C119	C	1.143556	-0.047833	0.530224
C120	C	1.643556	0.452167	1.030224
H121	H	1.144481	-0.013744	0.464509
H122	H	1.644481	0.486256	0.964509
H123	H	1.209954	-0.060497	0.556850
H124	H	1.709954	0.439503	1.056850
H125	H	1.116580	-0.109604	0.520424
H126	H	1.616580	0.390396	1.020424
O127	O	0.870701	0.224907	0.590987
O128	O	1.370701	0.724907	1.090987
C129	C	0.882819	0.212780	0.682237
C130	C	1.382819	0.712780	1.182237
H131	H	0.948925	0.181723	0.694818
H132	H	1.448925	0.681723	1.194818
H133	H	0.873557	0.275742	0.717270
H134	H	1.373557	0.775742	1.217270
H135	H	0.835775	0.171069	0.708411
H136	H	1.335775	0.671069	1.208411
O137	O	0.396506	0.112055	-0.157352
O138	O	0.896506	0.612055	0.342648
C139	C	0.310668	0.110530	-0.140239
C140	C	0.810668	0.610530	0.359761
H141	H	0.295366	0.136625	-0.071625
H142	H	0.795366	0.636625	0.428375
H143	H	0.272427	0.150297	-0.191226
H144	H	0.772427	0.650297	0.308774
H145	H	0.294798	0.043439	-0.144029
H146	H	0.794798	0.543439	0.355971
H147	H	0.879489	0.216055	0.416356
H148	H	1.379489	0.716055	0.916356
O149	O	0.567543	0.115168	-0.157450
O150	O	1.067543	0.615168	0.342550
C151	C	0.536912	0.186751	-0.206028
C152	C	1.036912	0.686751	0.293972
H153	H	0.506469	0.236629	-0.159316
H154	H	1.006469	0.736629	0.340684
H155	H	0.590781	0.211906	-0.242235
H156	H	1.090781	0.711906	0.257765
H157	H	0.488717	0.169601	-0.255815
H158	H	0.988717	0.669601	0.244185
O159	O	0.567436	0.114971	0.157436
O160	O	1.067436	0.614971	0.657436
C161	C	0.510556	0.113987	0.227897
C162	C	1.010556	0.613987	0.727897
H163	H	0.452192	0.086600	0.204484
H164	H	0.952192	0.586600	0.704484
H165	H	0.540894	0.074079	0.283731
H166	H	1.040894	0.574079	0.783731
H167	H	0.492590	0.180483	0.252452
H168	H	0.992590	0.680483	0.752452
