data_functionalizedCrystal
_audit_creation_method	'MofGen! by Chris Wilmer'
_symmetry_space_group_name_H-M	'P1'
_symmetry_Int_Tables_number	1
_symmetry_cell_setting	triclinic
loop_
_symmetry_equiv_pos_as_xyz
  x,y,z
_cell_length_a	25.639242
_cell_length_b	25.639234
_cell_length_c	18.215405
_cell_angle_alpha	89.975709
_cell_angle_beta	90.019347
_cell_angle_gamma	89.970648
loop_
_atom_site_label
_atom_site_type_symbol
_atom_site_fract_x
_atom_site_fract_y
_atom_site_fract_z
Zn1	Zn	0.799316	-0.295745	-0.293117
Zn2	Zn	0.799251	-0.208310	-0.416177
Zn3	Zn	0.711882	-0.208309	-0.293119
Zn4	Zn	0.711860	-0.295700	-0.416137
O5	O	0.755577	-0.252016	-0.354637
O6	O	0.872473	-0.284165	-0.309457
O7	O	0.787643	-0.135144	-0.399871
O8	O	0.723516	-0.219925	-0.190135
O9	O	0.872425	-0.219927	-0.399869
O10	O	0.787754	-0.284164	-0.190133
O11	O	0.723453	-0.135144	-0.309461
O12	O	0.638714	-0.219882	-0.309422
O13	O	0.723480	-0.368871	-0.399800
O14	O	0.638698	-0.284088	-0.399802
O15	O	0.787733	-0.368904	-0.309418
O16	O	0.787623	-0.219884	-0.519156
O17	O	0.723417	-0.284089	-0.519126
C18	C	0.619735	-0.251980	-0.354608
C19	C	0.561621	-0.251977	-0.354614
C20	C	0.201258	-0.285416	-0.401777
C21	C	0.146654	-0.285424	-0.401782
O22	O	0.118418	-0.313825	-0.441846
N23	N	0.119338	-0.252050	-0.354658
C24	C	0.146630	-0.218669	-0.307521
O25	O	0.118381	-0.190282	-0.267438
C26	C	0.201233	-0.218663	-0.307513
C27	C	0.228546	-0.252036	-0.354646
C28	C	0.228572	-0.318787	-0.448905
C29	C	0.283172	-0.318777	-0.448901
C30	C	0.310460	-0.285398	-0.401770
C31	C	0.283146	-0.252027	-0.354642
C32	C	0.228523	-0.185285	-0.260373
C33	C	0.283130	-0.185283	-0.260369
C34	C	0.310443	-0.218656	-0.307502
C35	C	0.365034	-0.218638	-0.307507
N36	N	0.392350	-0.252013	-0.354630
C37	C	0.365063	-0.285393	-0.401762
C38	C	0.031959	-0.218683	-0.307540
C39	C	-0.022643	-0.218685	-0.307551
C40	C	-0.022615	-0.285441	-0.401810
C41	C	0.031988	-0.285436	-0.401803
C42	C	0.059275	-0.252057	-0.354664
C43	C	0.479728	-0.285371	-0.401751
C44	C	0.534333	-0.285357	-0.401745
C45	C	0.534300	-0.218603	-0.307483
C46	C	0.479700	-0.218614	-0.307491
C47	C	0.452415	-0.252002	-0.354628
O48	O	0.393305	-0.190254	-0.267461
O49	O	0.393318	-0.313779	-0.441831
C50	C	0.755611	-0.388389	-0.354604
C51	C	0.755626	-0.446503	-0.354590
C52	C	0.722217	-0.806871	-0.307425
C53	C	0.722219	-0.861475	-0.307412
O54	O	0.693787	-0.889716	-0.267393
N55	N	0.755643	-0.888785	-0.354474
C56	C	0.789063	-0.861488	-0.401558
O57	O	0.817492	-0.889732	-0.441587
C58	C	0.789057	-0.806885	-0.401574
C59	C	0.755634	-0.779578	-0.354504
C60	C	0.688797	-0.779564	-0.260359
C61	C	0.688795	-0.724963	-0.260372
C62	C	0.722213	-0.697670	-0.307451
C63	C	0.755632	-0.724977	-0.354517
C64	C	0.822473	-0.779589	-0.448661
C65	C	0.822464	-0.724982	-0.448674
C66	C	0.789042	-0.697675	-0.401604
C67	C	0.789048	-0.643083	-0.401608
N68	N	0.755625	-0.615773	-0.354546
C69	C	0.722207	-0.643067	-0.307467
C70	C	0.789072	-0.976159	-0.401521
C71	C	0.789080	-1.030761	-0.401501
C72	C	0.722237	-1.030745	-0.307356
C73	C	0.722231	-0.976141	-0.307372
C74	C	0.755648	-0.948849	-0.354459
C75	C	0.722205	-0.528401	-0.307496
C76	C	0.722208	-0.473796	-0.307511
C77	C	0.789050	-0.473818	-0.401658
C78	C	0.789049	-0.528418	-0.401641
C79	C	0.755623	-0.555709	-0.354558
O80	O	0.817464	-0.614808	-0.441609
O81	O	0.693777	-0.614817	-0.267451
C82	C	0.891950	-0.252052	-0.354667
C83	C	0.950064	-0.252067	-0.354680
C84	C	0.755525	-0.251993	-0.545844
C85	C	0.755550	-0.252001	-0.627643
C86	C	0.755574	-0.116173	-0.354618
C87	C	0.755660	-0.058059	-0.354425
C88	C	0.789080	-0.218640	-0.892691
C89	C	0.789058	-0.218628	-0.815832
C90	C	0.722139	-0.285427	-0.815842
C91	C	0.722159	-0.285436	-0.892700
C92	C	0.755632	-0.252043	-0.931122
C93	C	0.755591	-0.252022	-0.777406
C94	C	0.755568	-0.252009	-0.694072
C95	C	0.755655	-0.252055	-1.014461
C96	C	0.755644	-0.252050	-0.162685
C97	C	0.755673	-0.252064	-0.080886
H98	H	0.054223	-0.312612	-0.440181
C99	C	0.313145	-0.148566	-0.208517
H100	H	0.349577	-0.153341	-0.215257
H101	H	0.304169	-0.113424	-0.219216
H102	H	0.304209	-0.156289	-0.159085
H103	H	0.556569	-0.312534	-0.440129
C104	C	0.198564	-0.355507	-0.500755
H105	H	0.222658	-0.375375	-0.528820
H106	H	0.177280	-0.378329	-0.472659
H107	H	0.177248	-0.335465	-0.532792
H108	H	0.206294	-0.158108	-0.221995
H109	H	0.849680	-0.702763	-0.487014
C110	C	-0.052684	-0.181975	-0.255707
H111	H	-0.089113	-0.186756	-0.262457
H112	H	-0.043716	-0.189692	-0.206278
H113	H	-0.043761	-0.146828	-0.266411
C114	C	-0.052638	-0.322163	-0.453648
H115	H	-0.089069	-0.317388	-0.446893
H116	H	-0.043708	-0.314452	-0.503082
H117	H	-0.043666	-0.357307	-0.442937
C118	C	0.685327	-0.322160	-0.773575
H119	H	0.690110	-0.317375	-0.722298
H120	H	0.650205	-0.314472	-0.786210
H121	H	0.692965	-0.357301	-0.786137
H122	H	0.816290	-0.953941	-0.439859
H123	H	0.054172	-0.191498	-0.269154
C124	C	0.685473	-1.060772	-0.255572
H125	H	0.665567	-1.036691	-0.227538
H126	H	0.662687	-1.082058	-0.283717
H127	H	0.705491	-1.082086	-0.223504
C128	C	0.449654	-0.181904	-0.255650
H129	H	0.473728	-0.162025	-0.227578
H130	H	0.428328	-0.159091	-0.283753
H131	H	0.428378	-0.201955	-0.223620
C132	C	0.564323	-0.181891	-0.255639
H133	H	0.600754	-0.186673	-0.262385
H134	H	0.555354	-0.146746	-0.266333
H135	H	0.555390	-0.189615	-0.206206
C136	C	0.685438	-0.443761	-0.255737
H137	H	0.665533	-0.467839	-0.227705
H138	H	0.705445	-0.422474	-0.223678
H139	H	0.662645	-0.422447	-0.283896
H140	H	0.694987	-0.550615	-0.269156
H141	H	0.661577	-0.702734	-0.222045
C142	C	0.685366	-0.322182	-0.934977
H143	H	0.665433	-0.342073	-0.901087
H144	H	0.662606	-0.302159	-0.964998
H145	H	0.705364	-0.344990	-0.964919
C146	C	0.652037	-0.809578	-0.208564
H147	H	0.632139	-0.785487	-0.180537
H148	H	0.629244	-0.830868	-0.236693
H149	H	0.672055	-0.830888	-0.176491
H150	H	0.695016	-0.953911	-0.269043
H151	H	0.816294	-0.191428	-0.784544
C152	C	0.449722	-0.322113	-0.453577
H153	H	0.473816	-0.341985	-0.481637
H154	H	0.428451	-0.344930	-0.425454
H155	H	0.428394	-0.302089	-0.485620
H156	H	0.816302	-1.052990	-0.439822
H157	H	0.816259	-0.451586	-0.439986
C158	C	0.859235	-0.809618	-0.500441
H159	H	0.854460	-0.846048	-0.493694
H160	H	0.851561	-0.800652	-0.549885
H161	H	0.894369	-0.800683	-0.489678
C162	C	0.313210	-0.355494	-0.500738
H163	H	0.289131	-0.375377	-0.528799
H164	H	0.334494	-0.335458	-0.532768
H165	H	0.334527	-0.378312	-0.472621
C166	C	0.825821	-0.558457	-0.453406
H167	H	0.845723	-0.534380	-0.481445
H168	H	0.848610	-0.579775	-0.425252
H169	H	0.805810	-0.579741	-0.485470
C170	C	0.825893	-0.181905	-0.934954
H171	H	0.845806	-0.162006	-0.901055
H172	H	0.848670	-0.201932	-0.964899
H173	H	0.805910	-0.159103	-0.964972
