data_functionalizedCrystal
_audit_creation_method	'MofGen! by Chris Wilmer'
_symmetry_space_group_name_H-M	'P1'
_symmetry_Int_Tables_number	1
_symmetry_cell_setting	triclinic
loop_
_symmetry_equiv_pos_as_xyz
  x,y,z
_cell_length_a	17.699083
_cell_length_b	16.176319
_cell_length_c	17.699083
_cell_angle_alpha	89.995661
_cell_angle_beta	83.282848
_cell_angle_gamma	89.994736
loop_
_atom_site_label
_atom_site_type_symbol
_atom_site_fract_x
_atom_site_fract_y
_atom_site_fract_z
O1	O	-1.004078	0.068734	-0.095707
O2	O	-0.783700	0.068739	-0.108160
O3	O	-0.900115	0.068729	0.008256
O4	O	-0.887663	0.068744	-0.212122
O5	O	-0.900101	-0.068764	0.008256
O6	O	-0.783686	-0.068754	-0.108159
O7	O	-1.004064	-0.068759	-0.095706
Cu8	Cu	-0.893874	-0.081311	-0.101933
Cu9	Cu	-0.893890	0.081291	-0.101933
O10	O	-0.887649	-0.068749	-0.212122
C11	C	-0.755496	-0.000007	-0.107713
C12	C	-0.671478	-0.000005	-0.106375
N13	N	-0.893868	-0.195676	-0.101932
C14	C	-0.632003	-0.074954	-0.105744
C15	C	-0.553061	-0.074954	-0.104475
C16	C	-0.513594	-0.000006	-0.103841
C17	C	-0.553074	0.074948	-0.104470
C18	C	-0.632016	0.074948	-0.105734
C19	C	-0.234712	0.074950	-0.099371
C20	C	-0.155764	0.074945	-0.098109
C21	C	-0.155756	-0.074952	-0.098111
C22	C	-0.234698	-0.074952	-0.099375
C23	C	-0.274172	0.000001	-0.100000
C24	C	-0.359771	0.000001	-0.101375
C25	C	-0.427996	-0.000005	-0.102472
C26	C	-0.939683	-0.238934	-0.147781
C27	C	-0.939691	-0.325481	-0.147778
C28	C	-0.893880	-0.368769	-0.101930
C29	C	-0.848063	-0.325504	-0.056076
C30	C	-0.848059	-0.238959	-0.056075
C31	C	-0.848077	-0.674532	-0.056077
C32	C	-0.848082	-0.761084	-0.056083
C33	C	-0.939709	-0.761055	-0.147779
C34	C	-0.939705	-0.674510	-0.147779
C35	C	-0.893892	-0.631253	-0.101922
C36	C	-0.893885	-0.537409	-0.101925
C37	C	-0.893882	-0.462611	-0.101931
C38	C	-0.032269	-0.000010	-0.096148
C39	C	-0.116289	-0.000004	-0.097472
C40	C	-0.899662	-0.000017	0.036453
C41	C	-0.898323	-0.000018	0.120471
N42	N	-0.893902	0.195656	-0.101928
C43	C	-0.888102	-0.000001	-0.240319
C44	C	-0.889441	0.000005	-0.324337
C45	C	-0.966657	-0.000020	0.169092
C46	C	-0.965395	-0.000013	0.248036
C47	C	-0.895798	-0.000009	0.278356
C48	C	-0.827459	-0.000004	0.229729
C49	C	-0.828722	-0.000005	0.150787
C50	C	-0.822364	0.000003	0.548092
C51	C	-0.821106	0.000002	0.627040
C52	C	-0.959036	-0.000005	0.645341
C53	C	-0.960299	-0.000006	0.566399
C54	C	-0.891961	0.000003	0.517778
C55	C	-0.893331	-0.000003	0.432179
C56	C	-0.894428	-0.000009	0.363954
H57	H	-0.664130	-0.135986	-0.106266
H58	H	-0.977006	-0.639270	-0.185116
H59	H	-0.664155	0.135979	-0.106249
C60	C	-0.754555	0.000166	0.097958
C61	C	-0.751252	0.070915	0.052114
C62	C	-0.682934	0.071112	0.003446
H63	H	-0.752102	-0.047723	0.066712
H64	H	-0.712902	0.000213	0.127293
H65	H	-0.792893	0.070862	0.022781
H66	H	-0.753692	0.118817	0.083339
H67	H	-0.641281	0.071158	0.032781
H68	H	-0.680487	0.023219	-0.027795
H69	H	-0.680681	0.119117	-0.027660
H70	H	-0.977014	-0.796285	-0.185116
H71	H	-0.976983	-0.203696	-0.185120
H72	H	-0.810752	-0.203739	-0.018741
H73	H	-0.810775	-0.796326	-0.018745
H74	H	-0.770793	0.000005	0.254422
C75	C	-0.748230	-0.000121	0.495219
C76	C	-0.744926	-0.070845	0.449351
C77	C	-0.676647	-0.070982	0.400623
H78	H	-0.706537	-0.000164	0.524486
H79	H	-0.745855	0.047803	0.463997
H80	H	-0.747293	-0.118757	0.480569
H81	H	-0.786603	-0.070818	0.420067
H82	H	-0.674272	-0.023058	0.369402
H83	H	-0.634960	-0.071022	0.429897
H84	H	-0.674399	-0.118963	0.369492
C85	C	-1.042298	0.000020	0.136324
C86	C	-1.101871	0.000044	0.195805
C87	C	-1.171564	0.000097	0.165650
H88	H	-1.045765	-0.047913	0.105923
H89	H	-1.045702	0.047987	0.105928
H90	H	-1.098469	-0.047918	0.226187
H91	H	-1.098429	0.047974	0.226210
H92	H	-1.174967	0.048063	0.135255
H93	H	-1.175023	-0.047837	0.135250
H94	H	-1.211992	0.000121	0.206003
C95	C	-0.510289	0.156349	-0.103631
C96	C	-0.538119	0.201557	-0.038839
C97	C	-0.498719	0.276545	-0.038040
H98	H	-0.517352	0.187244	-0.147905
H99	H	-0.457618	0.145654	-0.102750
H100	H	-0.590777	0.212255	-0.039727
H101	H	-0.531055	0.170688	0.005446
H102	H	-0.446047	0.265849	-0.037159
H103	H	-0.505784	0.307432	-0.082317
H104	H	-0.517591	0.307224	0.005924
H105	H	-1.021039	-0.000017	0.287620
C106	C	-0.798251	-0.627724	-0.006273
C107	C	-0.758116	-0.684161	0.033858
C108	C	-0.712198	-0.641068	0.079738
H109	H	-0.829246	-0.593960	0.028665
H110	H	-0.763319	-0.593982	-0.037317
H111	H	-0.793044	-0.717888	0.064900
H112	H	-0.727107	-0.717927	-0.001061
H113	H	-0.677267	-0.607326	0.048694
H114	H	-0.743200	-0.607305	0.114671
H115	H	-0.684956	-0.679353	0.106967
C116	C	-0.112880	-0.156309	-0.097265
C117	C	-0.076219	-0.160707	-0.031438
C118	C	-0.036725	-0.235643	-0.030630
H119	H	-0.076172	-0.159503	-0.140837
H120	H	-0.147674	-0.200968	-0.097785
H121	H	-0.041428	-0.116061	-0.030926
H122	H	-0.112910	-0.157528	0.012144
H123	H	-0.071519	-0.280302	-0.031150
H124	H	-0.000020	-0.238831	-0.074204
H125	H	-0.011851	-0.238641	0.014036
C126	C	-0.277498	0.156354	-0.100209
C127	C	-0.249671	0.201566	-0.165001
C128	C	-0.289076	0.276558	-0.165803
H129	H	-0.270438	0.187242	-0.055935
H130	H	-0.330169	0.145664	-0.101090
H131	H	-0.197013	0.212258	-0.164113
H132	H	-0.256731	0.170703	-0.209286
H133	H	-0.341746	0.265869	-0.166685
H134	H	-0.282013	0.307439	-0.121527
H135	H	-0.270206	0.307241	-0.209767
C136	C	-0.112833	0.156262	-0.097296
C137	C	-0.076133	0.160617	-0.031491
C138	C	-0.036569	0.235503	-0.030723
H139	H	-0.147566	0.200971	-0.097806
H140	H	-0.076143	0.159390	-0.140899
H141	H	-0.112818	0.157497	0.012101
H142	H	-0.041387	0.115924	-0.030967
H143	H	0.000121	0.238631	-0.074327
H144	H	-0.071308	0.280207	-0.031236
H145	H	-0.011657	0.238465	0.013921
H146	H	-0.810766	-0.360755	-0.018742
C147	C	-0.510333	-0.156414	-0.103836
C148	C	-0.561789	-0.222050	-0.104687
C149	C	-0.522455	-0.297107	-0.104109
H150	H	-0.485390	-0.159657	-0.059235
H151	H	-0.473694	-0.159568	-0.147479
H152	H	-0.598413	-0.218899	-0.061048
H153	H	-0.586734	-0.218835	-0.149284
H154	H	-0.485817	-0.300260	-0.147753
H155	H	-0.497513	-0.300340	-0.059508
H156	H	-0.557361	-0.341649	-0.104694
H157	H	-1.016972	-0.000014	0.541717
H158	H	-0.266828	-0.135983	-0.099895
C159	C	-1.033293	0.000125	0.698041
C160	C	-1.075226	0.070847	0.684337
C161	C	-1.143637	0.070986	0.732861
H162	H	-1.022685	0.000172	0.749425
H163	H	-1.061872	-0.047801	0.688858
H164	H	-1.046653	0.118760	0.693527
H165	H	-1.085854	0.070814	0.632963
H166	H	-1.172215	0.023061	0.723677
H167	H	-1.133021	0.071031	0.784242
H168	H	-1.172099	0.118966	0.723565
C169	C	-0.989453	-0.372298	-0.197643
C170	C	-1.029551	-0.315866	-0.237814
C171	C	-1.075393	-0.358962	-0.283768
H172	H	-1.024410	-0.406060	-0.166669
H173	H	-0.958385	-0.406043	-0.232553
H174	H	-1.060616	-0.282135	-0.202909
H175	H	-0.994613	-0.282102	-0.268803
H176	H	-1.044325	-0.392708	-0.318677
H177	H	-1.110346	-0.392723	-0.252788
H178	H	-1.102600	-0.320680	-0.311034
C179	C	-0.745462	0.000056	0.659814
C180	C	-0.685884	0.000089	0.600339
C181	C	-0.616195	0.000150	0.630502
H182	H	-0.741986	-0.047877	0.690220
H183	H	-0.742075	0.048023	0.690206
H184	H	-0.689269	-0.047873	0.569960
H185	H	-0.689335	0.048019	0.569928
H186	H	-0.612808	0.048117	0.660894
H187	H	-0.612727	-0.047784	0.660907
H188	H	-0.575763	0.000180	0.590153
