data_functionalizedCrystal
_audit_creation_method	'MofGen! by Chris Wilmer'
_symmetry_space_group_name_H-M	'P1'
_symmetry_Int_Tables_number	1
_symmetry_cell_setting	triclinic
loop_
_symmetry_equiv_pos_as_xyz
  x,y,z
_cell_length_a	10.967926
_cell_length_b	11.026607
_cell_length_c	16.776229
_cell_angle_alpha	89.996140
_cell_angle_beta	102.122121
_cell_angle_gamma	96.380754
loop_
_atom_site_label
_atom_site_type_symbol
_atom_site_fract_x
_atom_site_fract_y
_atom_site_fract_z
O1	O	1.693942	0.170498	0.166411
O2	O	1.334324	0.186826	0.117009
O3	O	1.484328	0.001761	0.137618
O4	O	1.543938	0.355563	0.145801
O5	O	1.484300	0.001750	0.270191
O6	O	1.334296	0.186814	0.249582
O7	O	1.693914	0.170487	0.298984
Zn8	Zn	1.514101	0.178649	0.295331
Zn9	Zn	1.514138	0.178664	0.120661
O10	O	1.543910	0.355551	0.278374
C11	C	1.287556	0.185633	0.176872
C12	C	1.148239	0.182081	0.157734
C13	C	1.086113	0.180492	0.217878
C14	C	0.942122	0.176821	0.198099
C15	C	1.473318	-0.043547	0.202393
C16	C	1.440535	-0.178533	0.197887
C17	C	1.531052	-0.251587	0.210320
C18	C	1.497173	-0.391103	0.205663
C19	C	1.740682	0.171680	0.239118
C20	C	1.879999	0.175231	0.258252
C21	C	1.554921	0.400859	0.213598
C22	C	1.587703	0.535846	0.218099
N23	N	1.514084	0.178637	0.414540
N24	N	1.514162	0.178666	0.001453
C25	C	1.580540	0.096725	0.465388
C26	C	1.580546	0.096724	0.548841
C27	C	1.514104	0.178642	0.581446
C28	C	1.447641	0.260558	0.530591
C29	C	1.447628	0.260553	0.447139
C30	C	1.447691	0.260583	0.867146
C31	C	1.447713	0.260585	0.950605
C32	C	1.580610	0.096754	0.968848
C33	C	1.580597	0.096748	0.885395
C34	C	1.514129	0.178660	0.834547
C35	C	1.514120	0.178658	0.744058
C36	C	1.514119	0.178651	0.671935
H37	H	1.633629	-0.210843	0.224417
H38	H	1.394589	-0.431841	0.191566
Br39	Br	1.357490	0.371747	0.798143
H40	H	1.094827	0.180721	0.091600
Br41	Br	1.758686	-0.396269	0.241580
H42	H	1.337958	-0.219277	0.183790
Br43	Br	1.670728	-0.014448	0.421149
Br44	Br	1.670731	-0.014449	0.617851
H45	H	1.634705	0.030047	0.858852
H46	H	1.139524	0.181841	0.284012
Br47	Br	1.670818	-0.014416	1.037859
H48	H	1.393604	0.327295	0.977149
H49	H	0.888715	0.175461	0.131960
Br50	Br	0.968998	0.177470	0.368489
H51	H	1.393535	0.327254	0.557142
H52	H	1.393511	0.327252	0.405738
