data_functionalizedCrystal
_audit_creation_method	'MofGen! by Chris Wilmer'
_symmetry_space_group_name_H-M	'P1'
_symmetry_Int_Tables_number	1
_symmetry_cell_setting	triclinic
loop_
_symmetry_equiv_pos_as_xyz
  x,y,z
_cell_length_a	21.395362
_cell_length_b	16.120484
_cell_length_c	21.395355
_cell_angle_alpha	92.880721
_cell_angle_beta	89.956060
_cell_angle_gamma	92.942400
loop_
_atom_site_label
_atom_site_type_symbol
_atom_site_fract_x
_atom_site_fract_y
_atom_site_fract_z
Zn1	Zn	0.945244	-0.331659	-0.367215
Zn2	Zn	1.195244	-0.081659	-0.117215
Zn3	Zn	1.445244	0.168341	0.132785
Zn4	Zn	1.695244	0.418341	0.382785
Zn5	Zn	0.939845	-0.471058	-0.267746
Zn6	Zn	1.189845	-0.221058	-0.017746
Zn7	Zn	1.439845	0.028942	0.232254
Zn8	Zn	1.689845	0.278942	0.482254
Zn9	Zn	0.840458	-0.331698	-0.262418
Zn10	Zn	1.090458	-0.081698	-0.012418
Zn11	Zn	1.340458	0.168302	0.237582
Zn12	Zn	1.590458	0.418302	0.487582
Zn13	Zn	0.835126	-0.471075	-0.372451
Zn14	Zn	1.085126	-0.221075	-0.122451
Zn15	Zn	1.335126	0.028925	0.127549
Zn16	Zn	1.585126	0.278925	0.377549
O17	O	0.890168	-0.401372	-0.317458
O18	O	1.140168	-0.151372	-0.067458
O19	O	1.390168	0.098628	0.182542
O20	O	1.640168	0.348628	0.432542
O21	O	1.032207	-0.350127	-0.354059
O22	O	1.282207	-0.100127	-0.104059
O23	O	1.532207	0.149873	0.145941
O24	O	1.782207	0.399873	0.395941
O25	O	0.926633	-0.452580	-0.179362
O26	O	1.176633	-0.202580	0.070638
O27	O	1.426633	0.047420	0.320638
O28	O	1.676633	0.297420	0.570638
O29	O	0.858849	-0.215024	-0.271898
O30	O	1.108849	0.034976	-0.021898
O31	O	1.358849	0.284976	0.228102
O32	O	1.608849	0.534976	0.478102
O33	O	1.028240	-0.452543	-0.280979
O34	O	1.278240	-0.202543	-0.030979
O35	O	1.528240	0.047457	0.219021
O36	O	1.778240	0.297457	0.469021
O37	O	0.935836	-0.214995	-0.348892
O38	O	1.185836	0.035005	-0.098892
O39	O	1.435836	0.285005	0.151108
O40	O	1.685836	0.535005	0.401108
O41	O	0.853614	-0.350193	-0.175447
O42	O	1.103614	-0.100193	0.074553
O43	O	1.353614	0.149807	0.324553
O44	O	1.603614	0.399807	0.574553
O45	O	0.752072	-0.350210	-0.276976
O46	O	1.002072	-0.100210	-0.026976
O47	O	1.252072	0.149790	0.223024
O48	O	1.502072	0.399790	0.473024
O49	O	0.849761	-0.452572	-0.459434
O50	O	1.099761	-0.202572	-0.209434
O51	O	1.349761	0.047428	0.040566
O52	O	1.599761	0.297428	0.290566
O53	O	0.748154	-0.452609	-0.357817
O54	O	0.998154	-0.202609	-0.107817
O55	O	1.248154	0.047391	0.142183
O56	O	1.498154	0.297391	0.392183
O57	O	0.930665	-0.350144	-0.455587
O58	O	1.180665	-0.100144	-0.205587
O59	O	1.430665	0.149856	0.044413
O60	O	1.680665	0.399856	0.294413
O61	O	0.921462	-0.587728	-0.286057
O62	O	1.171462	-0.337728	-0.036057
O63	O	1.421462	-0.087728	0.213943
O64	O	1.671462	0.162272	0.463943
O65	O	0.844526	-0.587741	-0.362983
O66	O	1.094526	-0.337741	-0.112983
O67	O	1.344526	-0.087741	0.137017
O68	O	1.594526	0.162259	0.387017
C69	C	0.727379	-0.401416	-0.317387
C70	C	0.977379	-0.151416	-0.067387
C71	C	1.227379	0.098584	0.182613
C72	C	1.477379	0.348584	0.432613
C73	C	0.657736	-0.401455	-0.317372
C74	C	0.907736	-0.151455	-0.067372
C75	C	1.157736	0.098545	0.182628
C76	C	1.407736	0.348545	0.432628
C77	C	0.622997	-0.454845	-0.359409
C78	C	0.872997	-0.204845	-0.109409
C79	C	1.122997	0.045155	0.140591
C80	C	1.372997	0.295155	0.390591
C81	C	0.557562	-0.454825	-0.359436
C82	C	0.807562	-0.204825	-0.109436
C83	C	1.057562	0.045175	0.140564
C84	C	1.307562	0.295175	0.390564
C85	C	0.526869	-0.401423	-0.317415
C86	C	0.776869	-0.151423	-0.067415
C87	C	1.026869	0.098577	0.182585
C88	C	1.276869	0.348577	0.432585
C89	C	0.561617	-0.348022	-0.275375
C90	C	0.811617	-0.098022	-0.025375
C91	C	1.061617	0.151978	0.224625
C92	C	1.311617	0.401978	0.474625
C93	C	0.627050	-0.348039	-0.275354
C94	C	0.877050	-0.098039	-0.025354
C95	C	1.127050	0.151961	0.224646
C96	C	1.377050	0.401961	0.474646
C97	C	0.423400	-0.394707	-0.260754
C98	C	0.673400	-0.144707	-0.010754
C99	C	0.923400	0.105293	0.239246
C100	C	1.173400	0.355293	0.489246
C101	C	0.357967	-0.394696	-0.260775
C102	C	0.607967	-0.144696	-0.010775
C103	C	0.857967	0.105304	0.239225
C104	C	1.107967	0.355304	0.489225
C105	C	0.325050	-0.401369	-0.317482
C106	C	0.575050	-0.151369	-0.067482
C107	C	0.825050	0.098631	0.182518
C108	C	1.075050	0.348631	0.432518
C109	C	0.357574	-0.408069	-0.374171
C110	C	0.607574	-0.158069	-0.124171
C111	C	0.857574	0.091931	0.125829
C112	C	1.107574	0.341931	0.375829
C113	C	0.423007	-0.408085	-0.374149
C114	C	0.673007	-0.158085	-0.124149
C115	C	0.923007	0.091915	0.125851
C116	C	1.173007	0.341915	0.375851
C117	C	0.455918	-0.401399	-0.317434
C118	C	0.705918	-0.151399	-0.067434
C119	C	0.955918	0.098601	0.182566
C120	C	1.205918	0.348601	0.432566
C121	C	0.219359	-0.454740	-0.359552
C122	C	0.469359	-0.204740	-0.109552
C123	C	0.719359	0.045260	0.140448
C124	C	0.969359	0.295260	0.390448
C125	C	0.153924	-0.454713	-0.359580
C126	C	0.403924	-0.204713	-0.109580
C127	C	0.653924	0.045287	0.140420
C128	C	0.903924	0.295287	0.390420
C129	C	0.157979	-0.347915	-0.275514
C130	C	0.407979	-0.097915	-0.025514
C131	C	0.657979	0.152085	0.224486
C132	C	0.907979	0.402085	0.474486
C133	C	0.223414	-0.347937	-0.275492
C134	C	0.473414	-0.097937	-0.025492
C135	C	0.723414	0.152063	0.224508
C136	C	0.973414	0.402063	0.474508
C137	C	0.254100	-0.401354	-0.317510
C138	C	0.504100	-0.151354	-0.067510
C139	C	0.754100	0.098646	0.182490
C140	C	1.004100	0.348646	0.432490
C141	C	0.881846	-0.617986	-0.325680
C142	C	1.131846	-0.367986	-0.075680
C143	C	1.381846	-0.117986	0.174320
C144	C	1.631846	0.132014	0.424320
C145	C	0.878344	-0.710654	-0.329218
C146	C	1.128344	-0.460654	-0.079218
C147	C	1.378344	-0.210654	0.170782
C148	C	1.628344	0.039346	0.420782
C149	C	0.871952	-0.880320	-0.335692
C150	C	1.121952	-0.630320	-0.085692
C151	C	1.371952	-0.380320	0.164308
C152	C	1.621952	-0.130320	0.414308
C153	C	0.908497	-0.921584	-0.299234
C154	C	1.158497	-0.671584	-0.049234
C155	C	1.408497	-0.421584	0.200766
C156	C	1.658497	-0.171584	0.450766
C157	C	0.904940	-1.015992	-0.302836
C158	C	1.154940	-0.765992	-0.052836
C159	C	1.404940	-0.515992	0.197164
C160	C	1.654940	-0.265992	0.447164
C161	C	0.875507	-0.785903	-0.332091
C162	C	1.125507	-0.535903	-0.082091
C163	C	1.375507	-0.285903	0.167909
C164	C	1.625507	-0.035903	0.417909
C165	C	1.053593	-0.401328	-0.317529
C166	C	1.303593	-0.151328	-0.067529
C167	C	1.553593	0.098672	0.182471
C168	C	1.803593	0.348672	0.432471
C169	C	1.123235	-0.401310	-0.317560
C170	C	1.373235	-0.151310	-0.067560
C171	C	1.623235	0.098690	0.182440
C172	C	1.873235	0.348690	0.432440
C173	C	0.890221	-0.401355	-0.480880
C174	C	1.140221	-0.151355	-0.230880
C175	C	1.390221	0.098645	0.019120
C176	C	1.640221	0.348645	0.269120
C177	C	0.890243	-0.401348	-0.550521
C178	C	1.140243	-0.151348	-0.300521
C179	C	1.390243	0.098652	-0.050521
C180	C	1.640243	0.348652	0.199479
C181	C	0.898540	-0.183913	-0.309217
C182	C	1.148540	0.066087	-0.059217
C183	C	1.398540	0.316087	0.190783
C184	C	1.648540	0.566087	0.440783
C185	C	0.902107	-0.091245	-0.305705
C186	C	1.152107	0.158755	-0.055705
C187	C	1.402107	0.408755	0.194295
C188	C	1.652107	0.658755	0.444295
C189	C	0.932368	-0.348011	-0.581232
C190	C	1.182368	-0.098011	-0.331232
C191	C	1.432368	0.151989	-0.081232
C192	C	1.682368	0.401989	0.168768
C193	C	0.932369	-0.347976	-0.646666
C194	C	1.182369	-0.097976	-0.396666
C195	C	1.432369	0.152024	-0.146666
C196	C	1.682369	0.402024	0.103334
C197	C	0.890250	-0.401291	-0.681388
C198	C	1.140250	-0.151291	-0.431388
C199	C	1.390250	0.098709	-0.181388
C200	C	1.640250	0.348709	0.068612
C201	C	0.848117	-0.454632	-0.650669
C202	C	1.098117	-0.204632	-0.400669
C203	C	1.348117	0.045368	-0.150669
C204	C	1.598117	0.295368	0.099331
C205	C	0.848114	-0.454660	-0.585236
C206	C	1.098114	-0.204660	-0.335236
C207	C	1.348114	0.045340	-0.085236
C208	C	1.598114	0.295340	0.164764
C209	C	0.882419	-0.476362	-0.787910
C210	C	1.132419	-0.226362	-0.537910
C211	C	1.382419	0.023638	-0.287910
C212	C	1.632419	0.273638	-0.037910
C213	C	0.882427	-0.476335	-0.853342
C214	C	1.132427	-0.226335	-0.603342
C215	C	1.382427	0.023665	-0.353342
C216	C	1.632427	0.273665	-0.103342
C217	C	0.890258	-0.401203	-0.883205
C218	C	1.140258	-0.151203	-0.633205
C219	C	1.390258	0.098797	-0.383205
C220	C	1.640258	0.348797	-0.133205
C221	C	0.898094	-0.326096	-0.847628
C222	C	1.148094	-0.076096	-0.597628
C223	C	1.398094	0.173904	-0.347628
C224	C	1.648094	0.423904	-0.097628
C225	C	0.898090	-0.326124	-0.782195
C226	C	1.148090	-0.076124	-0.532195
C227	C	1.398090	0.173876	-0.282195
C228	C	1.648090	0.423876	-0.032195
C229	C	0.890249	-0.401266	-0.752339
C230	C	1.140249	-0.151266	-0.502339
C231	C	1.390249	0.098734	-0.252339
C232	C	1.640249	0.348734	-0.002339
C233	C	0.932385	-0.347823	-0.984867
C234	C	1.182385	-0.097823	-0.734867
C235	C	1.432385	0.152177	-0.484867
C236	C	1.682385	0.402177	-0.234867
C237	C	0.932382	-0.347786	-1.050302
C238	C	1.182382	-0.097786	-0.800302
C239	C	1.432382	0.152214	-0.550302
C240	C	1.682382	0.402214	-0.300302
C241	C	0.848133	-0.454449	-1.054304
C242	C	1.098133	-0.204449	-0.804304
C243	C	1.348133	0.045551	-0.554304
C244	C	1.598133	0.295551	-0.304304
C245	C	0.848134	-0.454479	-0.988870
C246	C	1.098134	-0.204479	-0.738870
C247	C	1.348134	0.045521	-0.488870
C248	C	1.598134	0.295521	-0.238870
C249	C	0.890263	-0.401167	-0.954155
C250	C	1.140263	-0.151167	-0.704155
C251	C	1.390263	0.098833	-0.454155
C252	C	1.640263	0.348833	-0.204155
C253	C	0.890154	-0.401329	-0.154668
C254	C	1.140154	-0.151329	0.095332
C255	C	1.390154	0.098671	0.345332
C256	C	1.640154	0.348671	0.595332
C257	C	0.890262	-0.401101	-0.085019
C258	C	1.140262	-0.151101	0.164981
C259	C	1.390262	0.098899	0.414981
C260	C	1.640262	0.348899	0.664981
H261	H	0.330774	-0.413500	-0.420348
H262	H	0.580774	-0.163500	-0.170348
H263	H	0.830774	0.086500	0.079652
H264	H	1.080774	0.336500	0.329652
H265	H	0.876050	-0.537492	-0.882304
H266	H	1.126050	-0.287492	-0.632304
H267	H	1.376050	-0.037492	-0.382304
H268	H	1.626050	0.212508	-0.132304
H269	H	0.837996	-0.915892	-0.369606
H270	H	1.087996	-0.665892	-0.119606
H271	H	1.337996	-0.415892	0.130394
H272	H	1.587996	-0.165892	0.380394
H273	H	0.244345	-0.498230	-0.393769
H274	H	0.494345	-0.248230	-0.143769
H275	H	0.744345	0.001770	0.106231
H276	H	0.994345	0.251770	0.356231
H277	H	0.966673	-0.304600	-0.552972
H278	H	1.216673	-0.054600	-0.302972
H279	H	1.466673	0.195400	-0.052972
H280	H	1.716673	0.445400	0.197028
H281	H	0.942454	-0.886009	-0.265316
H282	H	1.192454	-0.636009	-0.015316
H283	H	1.442454	-0.386009	0.234684
H284	H	1.692454	-0.136009	0.484684
H285	H	0.966671	-0.304538	-0.671676
H286	H	1.216671	-0.054538	-0.421676
H287	H	1.466671	0.195462	-0.171676
H288	H	1.716671	0.445462	0.078324
H289	H	0.904469	-0.264969	-0.753231
H290	H	1.154469	-0.014969	-0.503231
H291	H	1.404469	0.235031	-0.253231
H292	H	1.654469	0.485031	-0.003231
H293	H	0.251699	-0.304465	-0.241258
H294	H	0.501699	-0.054465	0.008742
H295	H	0.751699	0.195535	0.258742
H296	H	1.001699	0.445535	0.508742
H297	H	0.813835	-0.497917	-0.963865
H298	H	1.063835	-0.247917	-0.713865
H299	H	1.313835	0.002083	-0.463865
H300	H	1.563835	0.252083	-0.213865
H301	H	0.875875	-0.537528	-0.763601
H302	H	1.125875	-0.287528	-0.513601
H303	H	1.375875	-0.037528	-0.263601
H304	H	1.625875	0.212472	-0.013601
H305	H	0.904471	-0.264916	-0.871941
H306	H	1.154471	-0.014916	-0.621941
H307	H	1.404471	0.235084	-0.371941
H308	H	1.654471	0.485084	-0.121941
H309	H	0.125640	-0.498188	-0.393815
H310	H	0.375640	-0.248188	-0.143815
H311	H	0.625640	0.001812	0.106185
H312	H	0.875640	0.251812	0.356185
H313	H	0.536622	-0.304541	-0.241163
H314	H	0.786622	-0.054541	0.008837
H315	H	1.036622	0.195459	0.258837
H316	H	1.286622	0.445459	0.508837
H317	H	0.966686	-0.304409	-0.956601
H318	H	1.216686	-0.054409	-0.706601
H319	H	1.466686	0.195591	-0.456601
H320	H	1.716686	0.445591	-0.206601
H321	H	0.647977	-0.498340	-0.393624
H322	H	0.897977	-0.248340	-0.143624
H323	H	1.147977	0.001660	0.106376
H324	H	1.397977	0.251660	0.356376
H325	H	0.966684	-0.304348	-1.075305
H326	H	1.216684	-0.054348	-0.825305
H327	H	1.466684	0.195652	-0.575305
H328	H	1.716684	0.445652	-0.325305
H329	H	0.132990	-0.304430	-0.241303
H330	H	0.382990	-0.054430	0.008697
H331	H	0.632990	0.195570	0.258697
H332	H	0.882990	0.445570	0.508697
H333	H	0.813808	-0.498092	-0.560232
H334	H	1.063808	-0.248092	-0.310232
H335	H	1.313808	0.001908	-0.060232
H336	H	1.563808	0.251908	0.189768
H337	H	0.529272	-0.498301	-0.393669
H338	H	0.779272	-0.248301	-0.143669
H339	H	1.029272	0.001699	0.106331
H340	H	1.279272	0.251699	0.356331
H341	H	0.449485	-0.413538	-0.420307
H342	H	0.699485	-0.163538	-0.170307
H343	H	0.949485	0.086462	0.079693
H344	H	1.199485	0.336462	0.329693
H345	H	0.813834	-0.497852	-1.082573
H346	H	1.063834	-0.247852	-0.832573
H347	H	1.313834	0.002148	-0.582573
H348	H	1.563834	0.252148	-0.332573
H349	H	0.813823	-0.498039	-0.678943
H350	H	1.063823	-0.248039	-0.428943
H351	H	1.313823	0.001961	-0.178943
H352	H	1.563823	0.251961	0.071057
H353	H	0.331492	-0.389246	-0.214616
H354	H	0.581492	-0.139246	0.035384
H355	H	0.831492	0.110754	0.285384
H356	H	1.081492	0.360754	0.535384
H357	H	0.655335	-0.304559	-0.241122
H358	H	0.905335	-0.054559	0.008878
H359	H	1.155335	0.195441	0.258878
H360	H	1.405335	0.445441	0.508878
H361	H	0.450195	-0.389270	-0.214573
H362	H	0.700195	-0.139270	0.035427
H363	H	0.950195	0.110730	0.285427
H364	H	1.200195	0.360730	0.535427
