data_functionalizedCrystal
_audit_creation_method	'MofGen! by Chris Wilmer'
_symmetry_space_group_name_H-M	'P1'
_symmetry_Int_Tables_number	1
_symmetry_cell_setting	triclinic
loop_
_symmetry_equiv_pos_as_xyz
  x,y,z
_cell_length_a	16.109318
_cell_length_b	12.811415
_cell_length_c	14.586319
_cell_angle_alpha	84.565349
_cell_angle_beta	90.000075
_cell_angle_gamma	83.757608
loop_
_atom_site_label
_atom_site_type_symbol
_atom_site_fract_x
_atom_site_fract_y
_atom_site_fract_z
O1	O	1.103618	0.134999	-0.087386
O2	O	1.603618	0.634999	0.412614
O3	O	0.861620	0.151769	-0.088799
O4	O	1.361620	0.651769	0.411201
O5	O	0.988707	-0.009410	-0.075385
O6	O	1.488707	0.490590	0.424615
O7	O	0.976531	0.296178	-0.100801
O8	O	1.476531	0.796178	0.399199
O9	O	0.988698	-0.009412	0.077096
O10	O	1.488698	0.490588	0.577096
O11	O	0.861611	0.151767	0.063682
O12	O	1.361611	0.651767	0.563682
O13	O	1.103609	0.134996	0.065095
O14	O	1.603609	0.634996	0.565095
Cu15	Cu	0.982609	0.143382	0.078311
Cu16	Cu	1.482609	0.643382	0.578311
Cu17	Cu	0.982620	0.143384	-0.102015
Cu18	Cu	1.482620	0.643384	0.397985
O19	O	0.976522	0.296176	0.051680
O20	O	1.476522	0.796176	0.551680
C21	C	0.830638	0.151086	-0.012504
C22	C	1.330638	0.651086	0.487496
C23	C	0.738336	0.149040	-0.012341
C24	C	1.238336	0.649040	0.487659
C25	C	0.439243	0.142432	-0.094892
C26	C	0.939243	0.642432	0.405108
C27	C	0.525971	0.144348	-0.095057
C28	C	1.025971	0.644348	0.404943
C29	C	0.525980	0.144331	0.071187
C30	C	1.025980	0.644331	0.571187
C31	C	0.439254	0.142408	0.071352
C32	C	0.939254	0.642408	0.571352
C33	C	0.395887	0.141464	-0.011691
C34	C	0.895887	0.641464	0.488309
C35	C	0.569342	0.145302	-0.012021
C36	C	1.069342	0.645302	0.487979
C37	C	0.663376	0.147379	-0.012199
C38	C	1.163376	0.647379	0.487801
C39	C	0.301847	0.139384	-0.011513
C40	C	0.801847	0.639384	0.488487
C41	C	0.988020	-0.048515	0.004106
C42	C	1.488020	0.451485	0.504106
C43	C	0.985977	-0.165033	0.013791
C44	C	1.485977	0.334967	0.513791
C45	C	0.982131	-0.383968	-0.134265
C46	C	1.482131	0.116032	0.365735
C47	C	0.980211	-0.493446	-0.125170
C48	C	1.480211	0.006554	0.374830
C49	C	0.980211	-0.493470	0.041075
C50	C	1.480211	0.006530	0.541075
C51	C	0.982131	-0.383991	0.031980
C52	C	1.482131	0.116009	0.531980
C53	C	0.983092	-0.329244	-0.055693
C54	C	1.483092	0.170756	0.444307
C55	C	0.985018	-0.219764	-0.064787
C56	C	1.485018	0.280236	0.435213
C57	C	0.985011	-0.219789	0.101457
C58	C	1.485011	0.280211	0.601457
C59	C	0.983091	-0.329268	0.110552
C60	C	1.483091	0.170732	0.610552
C61	C	1.134591	0.135680	-0.011202
C62	C	1.634591	0.635680	0.488798
C63	C	1.226893	0.137726	-0.011371
C64	C	1.726893	0.637726	0.488629
C65	C	0.977209	0.335281	-0.027812
C66	C	1.477209	0.835281	0.472188
C67	C	0.979252	0.451799	-0.037503
C68	C	1.479252	0.951799	0.462497
N69	N	0.982608	0.143379	0.205143
N70	N	1.482608	0.643379	0.705143
N71	N	0.982628	0.143379	-0.228847
N72	N	1.482628	0.643379	0.271153
C73	C	1.038901	0.072033	0.446087
C74	C	1.538901	0.572033	0.946087
C75	C	1.038903	0.072030	0.542069
C76	C	1.538903	0.572030	1.042069
C77	C	0.926329	0.214728	0.530202
C78	C	1.426329	0.714728	1.030202
C79	C	0.926323	0.214725	0.434223
C80	C	1.426323	0.714725	0.934223
C81	C	0.982614	0.143378	0.392168
C82	C	1.482614	0.643378	0.892168
C83	C	0.982622	0.143379	0.584129
C84	C	1.482622	0.643379	1.084129
C85	C	0.982624	0.143377	0.688196
C86	C	1.482624	0.643377	1.188196
C87	C	0.982611	0.143379	0.288094
C88	C	1.482611	0.643379	0.788094
H89	H	0.403936	0.141662	-0.162511
H90	H	0.903936	0.641662	0.337489
F91	F	0.986045	-0.161500	-0.158095
F92	F	1.486045	0.338500	0.341905
F93	F	0.983166	-0.325701	-0.227571
F94	F	1.483166	0.174299	0.272429
F95	F	1.098810	-0.003908	0.599451
F96	F	1.598810	0.496092	1.099451
H97	H	0.880483	0.272824	0.390318
H98	H	1.380483	0.772824	0.890318
H99	H	0.403953	0.141618	0.139108
H100	H	0.903953	0.641618	0.639108
H101	H	0.880499	0.272819	0.564453
H102	H	1.380499	0.772819	1.064453
H103	H	0.561268	0.145135	-0.162808
H104	H	1.061268	0.645135	0.337192
F105	F	0.572141	0.145344	0.159561
F106	F	1.072141	0.645344	0.659561
H107	H	0.979426	-0.537997	-0.189152
H108	H	1.479426	-0.037997	0.310848
F109	F	0.979167	-0.551749	0.134375
F110	F	1.479167	-0.051749	0.634375
H111	H	0.982305	-0.373857	0.181933
H112	H	1.482305	0.126143	0.681933
H113	H	0.985797	-0.175222	0.165436
H114	H	1.485797	0.324778	0.665436
F115	F	1.098809	-0.003904	0.401333
F116	F	1.598809	0.496096	0.901333
