data_functionalizedCrystal
_audit_creation_method	'MofGen! by Chris Wilmer'
_symmetry_space_group_name_H-M	'P1'
_symmetry_Int_Tables_number	1
_symmetry_cell_setting	triclinic
loop_
_symmetry_equiv_pos_as_xyz
  x,y,z
_cell_length_a	18.050590
_cell_length_b	18.050591
_cell_length_c	18.050583
_cell_angle_alpha	90.025095
_cell_angle_beta	89.962959
_cell_angle_gamma	89.988365
loop_
_atom_site_label
_atom_site_type_symbol
_atom_site_fract_x
_atom_site_fract_y
_atom_site_fract_z
Zn1	Zn	-0.295743	-1.135351	-0.420088
Zn2	Zn	-0.419956	-1.135280	-0.295897
Zn3	Zn	-0.295769	-1.011167	-0.295893
Zn4	Zn	-0.419881	-1.011139	-0.420026
O5	O	-0.357837	-1.073234	-0.357976
O6	O	-0.312241	-1.239266	-0.403642
O7	O	-0.403525	-1.118798	-0.191972
O8	O	-0.191841	-1.027682	-0.312392
O9	O	-0.403499	-1.239214	-0.312399
O10	O	-0.191822	-1.118919	-0.403638
O11	O	-0.312286	-1.027614	-0.191969
O12	O	-0.312213	-0.907239	-0.312331
O13	O	-0.403371	-1.027633	-0.523959
O14	O	-0.403397	-0.907218	-0.403531
O15	O	-0.312168	-1.118891	-0.524005
O16	O	-0.523871	-1.118771	-0.312338
O17	O	-0.523815	-1.027565	-0.403535
C18	C	-0.357800	-0.880282	-0.357924
C19	C	-0.357802	-0.797736	-0.357920
C20	C	-0.308148	-0.598275	-0.308429
C21	C	-0.375886	-0.548867	-0.290150
C22	C	-0.357817	-0.646606	-0.357946
C23	C	-0.290095	-0.548933	-0.376215
C24	C	-0.357825	-0.500621	-0.357969
C25	C	-0.425590	-0.598284	-0.339631
C26	C	-0.339753	-0.598355	-0.425728
C27	C	-0.407538	-0.548968	-0.407474
C28	C	-0.357811	-0.730704	-0.357930
C29	C	-0.357838	-0.416524	-0.357984
C30	C	-0.550790	-1.073177	-0.357946
C31	C	-0.633335	-1.073221	-0.357958
C32	C	-0.832789	-1.122921	-0.308435
C33	C	-0.882114	-1.141058	-0.376218
C34	C	-0.784466	-1.073263	-0.357988
C35	C	-0.882223	-1.055201	-0.290236
C36	C	-0.930451	-1.073305	-0.358011
C37	C	-0.832703	-1.091434	-0.425807
C38	C	-0.832808	-1.005546	-0.339779
C39	C	-0.882110	-1.023657	-0.407608
C40	C	-0.700367	-1.073240	-0.357974
C41	C	-1.014547	-1.073327	-0.358032
C42	C	-0.164132	-1.073312	-0.358022
C43	C	-0.081586	-1.073345	-0.358041
C44	C	-0.357758	-1.073267	-0.551682
C45	C	-0.357724	-1.073281	-0.634227
C46	C	-0.357863	-0.266940	-0.358014
C47	C	-0.357841	-0.349485	-0.357996
C48	C	-0.308104	-1.122957	-0.833703
C49	C	-0.289920	-1.055220	-0.883088
C50	C	-0.357712	-1.073311	-0.785358
C51	C	-0.375849	-1.141075	-0.883055
C52	C	-0.357698	-1.073345	-0.931343
C53	C	-0.339492	-1.005538	-0.833655
C54	C	-0.425453	-1.091438	-0.833618
C55	C	-0.407294	-1.023655	-0.882980
C56	C	-0.357718	-1.073292	-0.701260
C57	C	-0.357692	-1.073357	-1.015440
C58	C	-0.357863	-1.073244	-0.165024
C59	C	-0.357687	-1.073374	-0.082478
H60	H	-0.324446	-0.620109	-0.483023
H61	H	-0.266126	-1.164872	-0.812063
H62	H	-0.811132	-1.164930	-0.266572
O63	O	-0.394223	-0.522961	-0.221794
C64	C	-0.485839	-0.519617	-0.124694
C65	C	-0.465169	-0.549053	-0.202092
H66	H	-0.543206	-0.540688	-0.108748
H67	H	-0.443493	-0.539851	-0.082462
H68	H	-0.486137	-0.456468	-0.125598
H69	H	-0.464878	-0.612201	-0.201261
H70	H	-0.507519	-0.528762	-0.244292
H71	H	-0.449240	-0.981637	-0.904481
H72	H	-0.482730	-1.106781	-0.811874
O73	O	-0.394076	-1.209478	-0.908855
C74	C	-0.362337	-1.339085	-0.913113
C75	C	-0.341629	-1.261662	-0.883835
H76	H	-0.319937	-1.381295	-0.892909
H77	H	-0.419667	-1.354992	-0.891896
H78	H	-0.362715	-1.338274	-0.976264
H79	H	-0.341208	-1.262415	-0.820687
H80	H	-0.284313	-1.245786	-0.905109
H81	H	-0.903974	-1.039908	-0.232929
H82	H	-0.232626	-1.039898	-0.904817
H83	H	-0.232827	-0.527216	-0.391633
O84	O	-0.806908	-0.937204	-0.321497
C85	C	-0.734564	-0.831647	-0.359470
C86	C	-0.763860	-0.909029	-0.380285
H87	H	-0.699741	-0.808850	-0.406981
H88	H	-0.783231	-0.792892	-0.348500
H89	H	-0.698988	-0.835935	-0.307487
H90	H	-0.799425	-0.904812	-0.432278
H91	H	-0.715160	-0.947754	-0.391207
O92	O	-0.806996	-1.109744	-0.494246
C93	C	-0.838073	-1.143391	-0.619631
C94	C	-0.867288	-1.122645	-0.542168
H95	H	-0.886804	-1.153843	-0.658393
H96	H	-0.802910	-1.096076	-0.642284
H97	H	-0.802866	-1.195669	-0.615545
H98	H	-0.902525	-1.070386	-0.546191
H99	H	-0.902410	-1.170004	-0.519543
O100	O	-0.457602	-0.523262	-0.457527
C101	C	-0.477675	-0.451176	-0.568037
C102	C	-0.420896	-0.480253	-0.511420
H103	H	-0.448022	-0.416385	-0.611615
H104	H	-0.506411	-0.499953	-0.596030
H105	H	-0.520642	-0.415621	-0.538345
H106	H	-0.377884	-0.515797	-0.541055
H107	H	-0.392217	-0.431443	-0.483429
H108	H	-0.482882	-0.619872	-0.324124
O109	O	-0.258179	-0.624074	-0.258327
C110	C	-0.220772	-0.628084	-0.130268
C111	C	-0.277420	-0.598833	-0.186927
H112	H	-0.236299	-0.607676	-0.072531
H113	H	-0.220858	-0.691238	-0.131034
H114	H	-0.163184	-0.606951	-0.145306
H115	H	-0.335035	-0.619911	-0.171928
H116	H	-0.277269	-0.535680	-0.186150
O117	O	-0.907925	-1.209441	-0.394488
C118	C	-0.912044	-1.339077	-0.362943
C119	C	-0.882782	-1.261672	-0.342164
H120	H	-0.891715	-1.381329	-0.320659
H121	H	-0.975197	-1.338342	-0.363271
H122	H	-0.890841	-1.354869	-0.420322
H123	H	-0.903930	-1.245831	-0.284781
H124	H	-0.819630	-1.262448	-0.341887
H125	H	-0.903630	-0.981680	-0.449572
O126	O	-0.321082	-0.937220	-0.807759
C127	C	-0.300482	-0.860545	-0.700421
C128	C	-0.321326	-0.937950	-0.729650
H129	H	-0.300688	-0.861105	-0.637268
H130	H	-0.242890	-0.844991	-0.721185
H131	H	-0.342491	-0.818215	-0.721182
H132	H	-0.279367	-0.980332	-0.708901
H133	H	-0.378936	-0.953441	-0.708892
