data_functionalizedCrystal
_audit_creation_method	'MofGen! by Chris Wilmer'
_symmetry_space_group_name_H-M	'P1'
_symmetry_Int_Tables_number	1
_symmetry_cell_setting	triclinic
loop_
_symmetry_equiv_pos_as_xyz
  x,y,z
_cell_length_a	15.944551
_cell_length_b	10.654550
_cell_length_c	9.130313
_cell_angle_alpha	89.995631
_cell_angle_beta	90.000967
_cell_angle_gamma	83.991834
loop_
_atom_site_label
_atom_site_type_symbol
_atom_site_fract_x
_atom_site_fract_y
_atom_site_fract_z
O1	O	1.115460	0.161966	-0.121646
O2	O	0.871026	0.181935	-0.121682
O3	O	0.998863	-0.010862	-0.121654
O4	O	0.987623	0.354762	-0.121674
O5	O	0.998855	-0.010867	0.121945
O6	O	0.871018	0.181929	0.121916
O7	O	1.115452	0.161961	0.121953
Cu8	Cu	0.993234	0.171944	0.144177
Cu9	Cu	0.993244	0.171951	-0.143907
O10	O	0.987615	0.354757	0.121925
C11	C	0.998034	-0.057652	0.000144
C12	C	0.995565	-0.197063	0.000142
C13	C	0.839723	0.181103	0.000112
C14	C	0.746463	0.178618	0.000099
C15	C	1.070833	-0.277522	0.000152
C16	C	1.068508	-0.408513	0.000134
C17	C	0.915639	-0.378572	0.000101
C18	C	0.917965	-0.247584	0.000108
C19	C	0.530880	0.053173	0.000134
C20	C	0.470201	0.111428	-0.119976
C21	C	0.575711	0.174122	0.000116
C22	C	0.470215	0.111451	0.120193
C23	C	0.410773	0.169770	0.000140
C24	C	0.516261	0.232410	-0.120093
C25	C	0.516281	0.232416	0.120184
C26	C	0.455620	0.290759	0.000044
C27	C	0.670728	0.176625	0.000102
C28	C	0.315757	0.167276	0.000144
C29	C	1.146755	0.162792	0.000155
C30	C	1.240015	0.165278	0.000159
C31	C	0.988444	0.401547	0.000123
C32	C	0.990913	0.540958	0.000116
N33	N	0.993233	0.171939	0.346800
N34	N	0.993252	0.171946	-0.346529
C35	C	1.049858	0.086604	0.423464
C36	C	1.049866	0.086605	0.576801
C37	C	0.936620	0.257285	0.576796
C38	C	0.936609	0.257278	0.423461
H39	H	1.129799	-0.474019	0.000140
H40	H	1.095963	0.017115	0.361050
O41	O	1.146158	-0.228295	-0.000026
C42	C	1.152089	-0.153435	-0.126202
H43	H	1.086077	-0.120809	-0.168269
H44	H	1.186073	-0.067663	-0.097819
H45	H	1.188913	-0.211296	-0.214544
H46	H	0.536548	0.283530	-0.221748
H47	H	0.563632	-0.047204	-0.000009
O48	O	1.104910	0.003885	0.651433
C49	C	1.157134	0.071196	0.740084
H50	H	1.124248	0.169433	0.763051
H51	H	1.170127	0.018792	0.847912
H52	H	1.219255	0.079794	0.680979
O53	O	0.540633	0.293207	0.241470
C54	C	0.517406	0.229125	0.367865
H55	H	0.510047	0.126741	0.339094
H56	H	0.568350	0.232190	0.455019
H57	H	0.455041	0.276624	0.411688
O58	O	0.881589	0.340012	0.651433
C59	C	0.829378	0.272708	0.740126
H60	H	0.862265	0.174471	0.763103
H61	H	0.816405	0.325117	0.847946
H62	H	0.767247	0.264113	0.681051
H63	H	0.423043	0.391240	-0.000028
O64	O	0.840335	-0.427860	0.000147
C65	C	0.854420	-0.560727	0.000111
H66	H	0.919788	-0.591487	0.046239
H67	H	0.804720	-0.600954	0.070826
H68	H	0.850141	-0.597181	-0.116757
O69	O	0.844766	-0.169595	0.000164
C70	C	0.775776	-0.242271	0.000109
H71	H	0.796518	-0.340038	0.046230
H72	H	0.722988	-0.193955	0.070820
H73	H	0.752035	-0.251588	-0.116764
H74	H	0.449799	0.060274	-0.221516
H75	H	0.890494	0.326768	0.361037
O76	O	0.446006	0.050231	0.241290
C77	C	0.484673	-0.074988	0.240813
H78	H	0.544041	-0.081005	0.170504
H79	H	0.502202	-0.105099	0.357621
H80	H	0.439046	-0.140115	0.193931
