data_functionalizedCrystal
_audit_creation_method	'MofGen! by Chris Wilmer'
_symmetry_space_group_name_H-M	'P1'
_symmetry_Int_Tables_number	1
_symmetry_cell_setting	triclinic
loop_
_symmetry_equiv_pos_as_xyz
  x,y,z
_cell_length_a	18.215407
_cell_length_b	16.959454
_cell_length_c	16.959447
_cell_angle_alpha	89.973264
_cell_angle_beta	89.984408
_cell_angle_gamma	90.020523
loop_
_atom_site_label
_atom_site_type_symbol
_atom_site_fract_x
_atom_site_fract_y
_atom_site_fract_z
Zn1	Zn	1.125066	-0.314656	-0.446955
Zn2	Zn	1.625066	0.185344	0.053045
Zn3	Zn	1.124994	-0.446849	-0.314785
Zn4	Zn	1.624994	0.053151	0.185215
Zn5	Zn	1.002007	-0.314689	-0.314790
Zn6	Zn	1.502007	0.185311	0.185210
Zn7	Zn	1.001975	-0.446798	-0.446921
Zn8	Zn	1.501975	0.053202	0.053079
O9	O	1.063510	-0.380748	-0.380863
O10	O	1.563510	0.119252	0.119137
O11	O	1.228040	-0.332200	-0.429435
O12	O	1.728040	0.167800	0.070565
O13	O	1.108663	-0.429353	-0.204175
O14	O	1.608663	0.070647	0.295825
O15	O	1.018375	-0.204074	-0.332338
O16	O	1.518375	0.295926	0.167662
O17	O	1.227987	-0.429321	-0.332330
O18	O	1.727987	0.070679	0.167670
O19	O	1.108786	-0.204050	-0.429440
O20	O	1.608786	0.295950	0.070560
O21	O	1.018305	-0.332256	-0.204178
O22	O	1.518305	0.167744	0.295822
O23	O	0.899019	-0.332206	-0.332305
O24	O	1.399019	0.167794	0.167695
O25	O	1.018319	-0.429234	-0.557536
O26	O	1.518319	0.070766	-0.057536
O27	O	0.898995	-0.429266	-0.429381
O28	O	1.398995	0.070734	0.070619
O29	O	1.108754	-0.332150	-0.557562
O30	O	1.608754	0.167850	-0.057562
O31	O	1.108631	-0.557453	-0.332296
O32	O	1.608631	-0.057453	0.167704
O33	O	1.018249	-0.557416	-0.429376
O34	O	1.518249	-0.057416	0.070624
C35	C	0.872304	-0.380735	-0.380840
C36	C	1.372304	0.119265	0.119160
C37	C	0.790505	-0.380748	-0.380849
C38	C	1.290505	0.119252	0.119151
C39	C	0.602318	-0.431366	-0.431333
C40	C	1.102318	0.068634	0.068667
C41	C	0.525459	-0.431369	-0.431343
C42	C	1.025459	0.068631	0.068657
C43	C	0.525455	-0.330144	-0.330409
C44	C	1.025455	0.169856	0.169591
C45	C	0.602312	-0.330138	-0.330404
C46	C	1.102312	0.169862	0.169596
C47	C	0.640742	-0.380754	-0.380865
C48	C	1.140742	0.119246	0.119135
C49	C	0.487026	-0.380762	-0.380880
C50	C	0.987026	0.119238	0.119120
C51	C	0.403692	-0.380765	-0.380890
C52	C	0.903692	0.119235	0.119110
C53	C	0.724081	-0.380751	-0.380856
C54	C	1.224081	0.119249	0.119144
C55	C	1.063449	-0.586114	-0.380849
C56	C	1.563449	-0.086114	0.119151
C57	C	1.063490	-0.673971	-0.380870
C58	C	1.563490	-0.173971	0.119130
C59	C	1.016517	-1.045457	-0.431406
C60	C	1.516517	-0.545457	0.068594
C61	C	1.110709	-1.045436	-0.330399
C62	C	1.610709	-0.545436	0.169601
C63	C	1.110683	-0.962890	-0.330392
C64	C	1.610683	-0.462890	0.169608
C65	C	1.063573	-0.921624	-0.380892
C66	C	1.563573	-0.421624	0.119108
C67	C	1.016488	-0.962904	-0.431399
C68	C	1.516488	-0.462904	0.068601
C69	C	1.157761	-0.921605	-0.279880
C70	C	1.657761	-0.421605	0.220120
C71	C	1.157737	-0.839054	-0.279870
C72	C	1.657737	-0.339054	0.220130
C73	C	1.110630	-0.797786	-0.330375
C74	C	1.610630	-0.297786	0.169625
C75	C	1.063544	-0.839070	-0.380884
C76	C	1.563544	-0.339070	0.119116
C77	C	1.016434	-0.797804	-0.431384
C78	C	1.516434	-0.297804	0.068616
C79	C	0.969351	-0.839087	-0.481899
C80	C	1.469351	-0.339087	0.018101
C81	C	0.969381	-0.921636	-0.481904
C82	C	1.469381	-0.421636	0.018096
C83	C	1.110600	-0.715237	-0.330370
C84	C	1.610600	-0.215237	0.169630
C85	C	1.016405	-0.715251	-0.431377
C86	C	1.516405	-0.215251	0.068623
C87	C	1.255463	-0.380762	-0.380886
C88	C	1.755463	0.119238	0.119114
C89	C	1.337262	-0.380768	-0.380896
C90	C	1.837262	0.119232	0.119104
C91	C	1.063541	-0.380683	-0.587031
C92	C	1.563541	0.119317	-0.087031
C93	C	1.063554	-0.380655	-0.674888
C94	C	1.563554	0.119345	-0.174888
C95	C	1.063592	-0.174580	-0.380893
C96	C	1.563592	0.325420	0.119107
C97	C	1.063627	-0.086723	-0.380907
C98	C	1.563627	0.413277	0.119093
C99	C	1.016557	-0.431118	-1.046353
C100	C	1.516557	0.068882	-0.546353
C101	C	1.110727	-0.330025	-1.046374
C102	C	1.610727	0.169975	-0.546374
C103	C	1.110708	-0.330041	-0.963828
C104	C	1.610708	0.169959	-0.463828
C105	C	1.063613	-0.380598	-0.922541
C106	C	1.563613	0.119402	-0.422541
C107	C	1.016537	-0.431138	-0.963799
C108	C	1.516537	0.068862	-0.463799
C109	C	1.157787	-0.279508	-0.922564
C110	C	1.657787	0.220492	-0.422564
C111	C	1.157770	-0.279523	-0.840013
C112	C	1.657770	0.220477	-0.340013
C113	C	1.110671	-0.330077	-0.798724
C114	C	1.610671	0.169923	-0.298724
C115	C	1.063593	-0.380618	-0.839987
C116	C	1.563593	0.119382	-0.339987
C117	C	1.016498	-0.431175	-0.798699
C118	C	1.516498	0.068825	-0.298699
C119	C	0.969416	-0.481713	-0.839961
C120	C	1.469416	0.018287	-0.339961
C121	C	0.969438	-0.481692	-0.922510
C122	C	1.469438	0.018308	-0.422510
C123	C	1.110649	-0.330098	-0.716175
C124	C	1.610649	0.169902	-0.216175
C125	C	1.016479	-0.431195	-0.716146
C126	C	1.516479	0.068805	-0.216146
C127	C	1.063522	-0.380756	-0.175496
C128	C	1.563522	0.119244	0.324504
C129	C	1.063652	-0.380562	-0.087640
C130	C	1.563652	0.119438	0.412360
H131	H	0.494156	-0.288936	-0.289325
H132	H	0.994156	0.211064	0.210675
H133	H	0.978045	-0.681657	-0.472503
H134	H	1.478045	-0.181657	0.027497
O135	O	0.643764	-0.275559	-0.275956
O136	O	1.143764	0.224441	0.224044
H137	H	0.604130	-0.240376	-0.240856
H138	H	1.104130	0.259624	0.259144
H139	H	1.196075	-0.805446	-0.238740
H140	H	1.696075	-0.305446	0.261260
O141	O	1.161391	-0.670714	-0.275907
O142	O	1.661391	-0.170714	0.224093
H143	H	1.153461	-0.606380	-0.284388
H144	H	1.653461	-0.106380	0.215612
O145	O	0.965777	-0.485625	-1.090852
O146	O	1.465777	0.014375	-0.590852
H147	H	0.908022	-0.472059	-1.075008
H148	H	1.408022	0.027941	-0.575008
H149	H	0.930990	-0.805479	-0.523013
H150	H	1.430990	-0.305479	-0.023013
O151	O	0.918591	-0.966168	-0.536366
O152	O	1.418591	-0.466168	-0.036366
H153	H	0.951511	-1.003742	-0.576611
H154	H	1.451511	-0.503742	-0.076611
O155	O	0.965666	-0.485707	-0.671614
O156	O	1.465666	0.014293	-0.171614
H157	H	0.932931	-0.520840	-0.714176
H158	H	1.432931	-0.020840	-0.214176
O159	O	1.161501	-0.275474	-1.090899
O160	O	1.661501	0.224526	-0.590899
H161	H	1.153596	-0.283941	-1.155233
H162	H	1.653596	0.216059	-0.655233
H163	H	0.931075	-0.522880	-0.806334
H164	H	1.431075	-0.022880	-0.306334
H165	H	0.978185	-1.079073	-0.472536
H166	H	1.478185	-0.579073	0.027464
O167	O	1.208554	-0.224951	-0.967091
O168	O	1.708554	0.275049	-0.467091
H169	H	1.200640	-0.233411	-1.031424
H170	H	1.700640	0.266589	-0.531424
H171	H	0.633605	-0.472579	-0.472423
H172	H	1.133605	0.027421	0.027577
O173	O	1.161430	-0.275603	-0.671670
O174	O	1.661430	0.224397	-0.171670
H175	H	1.128503	-0.235395	-0.634064
H176	H	1.628503	0.264605	-0.134064
H177	H	0.931109	-0.522840	-0.956113
H178	H	1.431109	-0.022840	-0.456113
H179	H	0.494178	-0.472581	-0.472440
H180	H	0.994178	0.027419	0.027560
O181	O	1.161539	-1.089938	-0.275954
O182	O	1.661539	-0.589938	0.224046
H183	H	1.153659	-1.154275	-0.284455
H184	H	1.653659	-0.654275	0.215545
H185	H	1.196107	-0.238371	-0.806424
H186	H	1.696107	0.261629	-0.306424
H187	H	1.196111	-0.955210	-0.238760
H188	H	1.696111	-0.455210	0.261240
