data_functionalizedCrystal
_audit_creation_method	'MofGen! by Chris Wilmer'
_symmetry_space_group_name_H-M	'P1'
_symmetry_Int_Tables_number	1
_symmetry_cell_setting	triclinic
loop_
_symmetry_equiv_pos_as_xyz
  x,y,z
_cell_length_a	12.759399
_cell_length_b	19.077236
_cell_length_c	12.759393
_cell_angle_alpha	87.677022
_cell_angle_beta	89.967969
_cell_angle_gamma	92.308008
loop_
_atom_site_label
_atom_site_type_symbol
_atom_site_fract_x
_atom_site_fract_y
_atom_site_fract_z
Zn1	Zn	-0.353799	1.076066	-0.658709
Zn2	Zn	0.146201	1.576066	-0.158709
Zn3	Zn	-0.529523	1.075994	-0.483024
Zn4	Zn	-0.029523	1.575994	0.016976
Zn5	Zn	-0.360899	0.958362	-0.475968
Zn6	Zn	0.139101	1.458362	0.024032
Zn7	Zn	-0.536482	0.958353	-0.651588
Zn8	Zn	-0.036482	1.458353	-0.151588
O9	O	-0.445176	1.017194	-0.567322
O10	O	0.054824	1.517194	-0.067322
O11	O	-0.371226	1.174549	-0.641337
O12	O	0.128774	1.674549	-0.141337
O13	O	-0.507213	1.060364	-0.335065
O14	O	-0.007213	1.560364	0.164935
O15	O	-0.212934	0.974009	-0.500236
O16	O	0.287066	1.474009	-0.000236
O17	O	-0.500329	1.174497	-0.512261
O18	O	-0.000329	1.674497	-0.012261
O19	O	-0.207718	1.060486	-0.634495
O20	O	0.292282	1.560486	-0.134495
O21	O	-0.383326	0.973940	-0.329881
O22	O	0.116674	1.473940	0.170119
O23	O	-0.390074	0.859868	-0.493332
O24	O	0.109926	1.359868	0.006668
O25	O	-0.512190	0.973995	-0.799556
O26	O	-0.012190	1.473995	-0.299556
O27	O	-0.519074	0.859862	-0.622359
O28	O	-0.019074	1.359862	-0.122359
O29	O	-0.377974	1.060478	-0.804787
O30	O	0.122026	1.560478	-0.304787
O31	O	-0.677469	1.060356	-0.505357
O32	O	-0.177469	1.560356	-0.005357
O33	O	-0.682582	0.973925	-0.629201
O34	O	-0.182582	1.473925	-0.129201
C35	C	-0.456101	0.834327	-0.556308
C36	C	0.043899	1.334327	-0.056308
C37	C	-0.460800	0.756095	-0.551620
C38	C	0.039200	1.256095	-0.051620
C39	C	-0.395897	0.719370	-0.616724
C40	C	0.104103	1.219370	-0.116724
C41	C	-0.400307	0.645863	-0.612310
C42	C	0.099693	1.145863	-0.112310
C43	C	-0.469626	0.609083	-0.542799
C44	C	0.030374	1.109083	-0.042799
C45	C	-0.534531	0.645813	-0.477688
C46	C	-0.034531	1.145813	0.022312
C47	C	-0.530115	0.719319	-0.482097
C48	C	-0.030115	1.219319	0.017903
C49	C	-0.490025	0.389242	-0.522391
C50	C	0.009975	0.889242	-0.022391
C51	C	-0.494439	0.315732	-0.517990
C52	C	0.005561	0.815732	-0.017990
C53	C	-0.360212	0.315787	-0.652611
C54	C	0.139788	0.815787	-0.152611
C55	C	-0.355807	0.389294	-0.657018
C56	C	0.144193	0.889294	-0.157018
C57	C	-0.420708	0.426018	-0.591904
C58	C	0.079292	0.926018	-0.091904
N59	N	-0.474138	0.533947	-0.538288
N60	N	0.025862	1.033947	-0.038288
N61	N	-0.416190	0.501152	-0.596409
N62	N	0.083810	1.001152	-0.096409
C63	C	-0.718146	1.017151	-0.567296
C64	C	-0.218146	1.517151	-0.067296
C65	C	-0.834920	1.017197	-0.567323
C66	C	-0.334920	1.517197	-0.067323
C67	C	-0.887081	1.062252	-0.502917
C68	C	-0.387081	1.562252	-0.002917
C69	C	-0.996802	1.062298	-0.502955
C70	C	-0.496802	1.562298	-0.002955
C71	C	-1.002191	0.972225	-0.631808
C72	C	-0.502191	1.472225	-0.131808
C73	C	-0.892472	0.972184	-0.631775
C74	C	-0.392472	1.472184	-0.131775
C75	C	-0.171139	1.017256	-0.567373
C76	C	0.328861	1.517256	-0.067373
C77	C	-0.054360	1.017283	-0.567395
C78	C	0.445640	1.517283	-0.067395
C79	C	-0.445067	1.017243	-0.841359
C80	C	0.054933	1.517243	-0.341359
C81	C	-0.445020	1.017264	-0.958137
C82	C	0.054980	1.517264	-0.458137
C83	C	-0.434209	1.200775	-0.578380
C84	C	0.065791	1.700775	-0.078380
C85	C	-0.429536	1.279007	-0.583093
C86	C	0.070464	1.779007	-0.083093
C87	C	-0.380499	0.972279	-1.010300
C88	C	0.119501	1.472279	-0.510300
C89	C	-0.380465	0.972295	-1.120025
C90	C	0.119535	1.472295	-0.620025
C91	C	-0.509477	1.062288	-1.125414
C92	C	-0.009477	1.562288	-0.625414
C93	C	-0.509515	1.062267	-1.015691
C94	C	-0.009515	1.562267	-0.515691
C95	C	-0.445206	1.017185	-0.294354
C96	C	0.054794	1.517185	0.205646
C97	C	-0.444949	1.017301	-0.177585
C98	C	0.055051	1.517301	0.322415
H99	H	-0.347458	0.615965	-0.665326
H100	H	0.152542	1.115965	-0.165326
C101	C	-0.823777	1.111770	-0.432035
C102	C	-0.323777	1.611770	0.067965
H103	H	-0.870561	1.138615	-0.393691
H104	H	-0.370561	1.638615	0.106309
H105	H	-0.782655	1.084850	-0.384590
H106	H	-0.282655	1.584850	0.115410
H107	H	-0.779072	1.142409	-0.474104
H108	H	-0.279072	1.642409	0.025896
H109	H	-0.327983	0.935634	-0.963442
H110	H	0.172017	1.435634	-0.463442
H111	H	-0.562060	1.098901	-0.973219
H112	H	-0.062060	1.598901	-0.473219
H113	H	-0.339452	0.749311	-0.673330
H114	H	0.160548	1.249311	-0.173330
C115	C	-0.570685	0.275272	-0.441519
C116	C	-0.070685	0.775272	0.058481
H117	H	-0.564025	0.226235	-0.448230
H118	H	-0.064025	0.726235	0.051770
H119	H	-0.554500	0.287294	-0.371676
H120	H	-0.054500	0.787294	0.128324
H121	H	-0.640576	0.287317	-0.457494
H122	H	-0.140576	0.787317	0.042506
H123	H	-0.542874	0.419134	-0.469372
H124	H	-0.042874	0.919134	0.030628
C125	C	-0.309487	0.922815	-1.177401
C126	C	0.190513	1.422815	-0.677401
H127	H	-0.271079	0.896016	-1.127406
H128	H	0.228921	1.396016	-0.627406
H129	H	-0.351489	0.892144	-1.218347
H130	H	0.148511	1.392144	-0.718347
H131	H	-0.262085	0.949764	-1.221836
H132	H	0.237915	1.449764	-0.721836
C133	C	-0.580406	1.111794	-1.188727
C134	C	-0.080406	1.611794	-0.688727
H135	H	-0.571135	1.105369	-1.261546
H136	H	-0.071135	1.605369	-0.761546
H137	H	-0.651620	1.101476	-1.170111
H138	H	-0.151620	1.601476	-0.670111
H139	H	-0.562202	1.159086	-1.173594
H140	H	-0.062202	1.659086	-0.673594
H141	H	-0.299363	0.419235	-0.713626
H142	H	0.200637	0.919235	-0.213626
H143	H	-0.582965	0.749220	-0.429082
H144	H	-0.082965	1.249220	0.070918
H145	H	-0.307372	0.285878	-0.705622
H146	H	0.192628	0.785878	-0.205622
C147	C	-0.835090	0.922620	-0.702623
C148	C	-0.335090	1.422620	-0.202623
H149	H	-0.885079	0.895811	-0.741002
H150	H	-0.385079	1.395811	-0.241002
H151	H	-0.790606	0.949512	-0.750037
H152	H	-0.290606	1.449512	-0.250037
H153	H	-0.794196	0.891949	-0.660530
H154	H	-0.294196	1.391949	-0.160530
H155	H	-1.039267	1.098987	-0.450511
H156	H	-0.539267	1.598987	0.049489
C157	C	-0.610782	0.605357	-0.401228
C158	C	-0.110782	1.105357	0.098772
H159	H	-0.604126	0.556320	-0.407934
H160	H	-0.104126	1.056320	0.092066
H161	H	-0.594604	0.617382	-0.331385
H162	H	-0.094604	1.117382	0.168615
H163	H	-0.680670	0.617405	-0.417214
H164	H	-0.180670	1.117405	0.082786
C165	C	-1.065502	0.922709	-0.702687
C166	C	-0.565502	1.422709	-0.202687
H167	H	-1.138319	0.929180	-0.693475
H168	H	-0.638319	1.429180	-0.193475
H169	H	-1.046838	0.932974	-0.773905
H170	H	-0.546838	1.432974	-0.273905
H171	H	-1.050418	0.875416	-0.684391
H172	H	-0.550418	1.375416	-0.184391
