data_functionalizedCrystal
_audit_creation_method	'MofGen! by Chris Wilmer'
_symmetry_space_group_name_H-M	'P1'
_symmetry_Int_Tables_number	1
_symmetry_cell_setting	triclinic
loop_
_symmetry_equiv_pos_as_xyz
  x,y,z
_cell_length_a	16.109302
_cell_length_b	16.109304
_cell_length_c	14.048226
_cell_angle_alpha	89.999870
_cell_angle_beta	90.006634
_cell_angle_gamma	83.462209
loop_
_atom_site_label
_atom_site_type_symbol
_atom_site_fract_x
_atom_site_fract_y
_atom_site_fract_z
O1	O	1.103133	0.106867	0.079197
O2	O	0.861071	0.120166	0.079189
O3	O	0.988751	-0.007514	0.079194
O4	O	0.975454	0.234547	0.079192
O5	O	0.988739	-0.007513	-0.079127
O6	O	0.861059	0.120167	-0.079132
O7	O	1.103121	0.106868	-0.079124
Zn8	Zn	0.982088	0.113518	-0.104265
Zn9	Zn	0.982104	0.113516	0.104330
O10	O	0.975442	0.234549	-0.079129
C11	C	0.830090	0.119628	0.000027
C12	C	0.737795	0.118012	0.000025
C13	C	0.525448	0.114278	-0.086267
C14	C	0.438728	0.112751	-0.086264
C15	C	0.438751	0.112754	0.086347
C16	C	0.525470	0.114275	0.086343
C17	C	0.568816	0.115041	0.000033
C18	C	0.395377	0.111994	0.000041
C19	C	0.301351	0.110338	0.000045
C20	C	0.662848	0.116695	0.000028
C21	C	0.988206	-0.038488	0.000035
C22	C	0.986590	-0.130784	0.000042
C23	C	0.982863	-0.343122	0.086339
C24	C	0.981336	-0.429842	0.086338
C25	C	0.981327	-0.429837	-0.086272
C26	C	0.982848	-0.343118	-0.086270
C27	C	0.983619	-0.299763	0.000038
C28	C	0.980573	-0.473202	0.000035
C29	C	0.978918	-0.567228	0.000034
C30	C	0.985272	-0.205731	0.000040
C31	C	1.134102	0.107407	0.000040
C32	C	1.226397	0.109022	0.000049
C33	C	0.975987	0.265523	0.000032
C34	C	0.977603	0.357818	0.000032
N35	N	0.982083	0.113519	-0.246626
C36	C	0.931708	0.063067	-0.703495
C37	C	0.931705	0.063064	-0.603837
C38	C	0.982105	0.113509	-0.553996
C39	C	1.032519	0.163954	-0.603817
C40	C	1.032526	0.163951	-0.703473
C41	C	1.032499	0.163957	-0.396103
C42	C	1.032491	0.163961	-0.296440
C43	C	0.931678	0.063070	-0.296467
C44	C	0.931685	0.063068	-0.396123
C45	C	0.982097	0.113513	-0.445937
N46	N	0.982116	0.113509	0.246691
H47	H	0.403449	0.112131	0.156617
C48	C	1.087956	0.219449	-0.450897
N49	N	1.129723	0.261248	-0.492168
C50	C	0.573179	0.115110	0.181284
N51	N	0.609114	0.115735	0.252791
C52	C	0.983702	-0.295433	0.181281
N53	N	0.984331	-0.259515	0.252794
C54	C	0.573126	0.115111	-0.181210
N55	N	0.609035	0.115734	-0.252724
H56	H	0.403421	0.112130	-0.156538
C57	C	0.980537	-0.477536	0.181276
N58	N	0.979945	-0.513461	0.252788
C59	C	0.980482	-0.477537	-0.181207
N60	N	0.979846	-0.513463	-0.252713
C61	C	0.983679	-0.295421	-0.181213
N62	N	0.984303	-0.259495	-0.252721
H63	H	0.890662	0.021993	-0.744068
C64	C	1.087974	0.219445	-0.758269
N65	N	1.129741	0.261244	-0.799539
C66	C	0.876249	0.007577	-0.549045
N67	N	0.834477	-0.034217	-0.507777
C68	C	0.876158	0.007645	-0.241669
N69	N	0.834316	-0.034073	-0.200391
H70	H	0.890641	0.021995	-0.436701
H71	H	1.073529	0.205040	-0.255862
H72	H	1.073559	0.205023	-0.563229
