data_functionalizedCrystal
_audit_creation_method	'MofGen! by Chris Wilmer'
_symmetry_space_group_name_H-M	'P1'
_symmetry_Int_Tables_number	1
_symmetry_cell_setting	triclinic
loop_
_symmetry_equiv_pos_as_xyz
  x,y,z
_cell_length_a	8.559649
_cell_length_b	17.699083
_cell_length_c	16.176319
_cell_angle_alpha	89.998611
_cell_angle_beta	90.005694
_cell_angle_gamma	103.469160
loop_
_atom_site_label
_atom_site_type_symbol
_atom_site_fract_x
_atom_site_fract_y
_atom_site_fract_z
O1	O	-0.202110	0.992507	-0.068629
O2	O	-0.228405	0.770623	-0.068655
O3	O	0.017421	0.901113	-0.068638
O4	O	-0.447935	0.862017	-0.068646
O5	O	0.017436	0.901098	0.068855
O6	O	-0.228389	0.770608	0.068838
O7	O	-0.202094	0.992492	0.068865
Cu8	Cu	-0.215240	0.881549	0.081405
Cu9	Cu	-0.215259	0.881566	-0.081196
O10	O	-0.447920	0.862002	0.068847
C11	C	-0.227455	0.742473	0.000088
C12	C	-0.224628	0.658616	0.000078
C13	C	-0.368922	0.601734	0.000075
C14	C	-0.366257	0.522943	0.000086
C15	C	-0.219296	0.501037	0.000093
C16	C	-0.074990	0.557926	0.000098
C17	C	-0.077657	0.636715	0.000093
C18	C	-0.064231	0.240179	0.000118
C19	C	-0.061575	0.161383	0.000121
C20	C	-0.352831	0.126407	0.000112
C21	C	-0.355498	0.205196	0.000107
C22	C	-0.211193	0.262078	0.000116
C23	C	-0.214085	0.347512	0.000106
C24	C	-0.216402	0.415605	0.000097
C25	C	-0.507469	0.859047	0.000100
C26	C	-0.684883	0.850227	0.000098
C27	C	0.076970	0.904069	0.000107
C28	C	0.254384	0.912888	0.000104
C29	C	-0.203044	1.020643	0.000120
C30	C	-0.205871	1.104499	0.000124
N31	N	-0.215226	0.881542	0.195771
N32	N	-0.215260	0.881580	-0.195561
C33	C	-0.106419	0.939336	0.239042
C34	C	-0.106417	0.939340	0.325590
C35	C	-0.215232	0.881552	0.368863
C36	C	-0.324044	0.823752	0.325585
C37	C	-0.324037	0.823746	0.239040
C38	C	-0.324074	0.823776	0.674614
C39	C	-0.324076	0.823789	0.761165
C40	C	-0.106455	0.939370	0.761163
C41	C	-0.106447	0.939364	0.674618
C42	C	-0.215253	0.881562	0.631348
C43	C	-0.215252	0.881558	0.537503
C44	C	-0.215242	0.881559	0.462706
H45	H	-0.475168	0.223027	0.000097
C46	C	0.108653	1.053607	0.316895
C47	C	0.013162	1.002879	0.373154
H48	H	0.182467	1.092839	0.346260
H49	H	0.166081	1.025447	0.283153
H50	H	0.042166	1.076948	0.283125
H51	H	0.079648	0.979534	0.406920
H52	H	-0.044270	1.031043	0.406910
H53	H	-0.412636	0.776683	0.203809
C54	C	-0.472821	0.987670	0.000111
C55	C	-0.632591	0.994420	0.000111
H56	H	-0.403040	1.038007	0.000109
H57	H	-0.453522	0.960219	0.048053
H58	H	-0.453541	0.960218	-0.047841
H59	H	-0.651874	1.021868	0.048066
H60	H	-0.651897	1.021884	-0.047836
C61	C	-0.532225	0.414045	-0.070601
C62	C	-0.524872	0.460418	0.000075
H63	H	-0.630150	0.375443	-0.070604
H64	H	-0.527206	0.445509	-0.118540
H65	H	-0.444317	0.389724	-0.070582
H66	H	-0.612774	0.484744	0.000052
H67	H	-0.529907	0.428951	0.048027
C68	C	-0.769435	0.728226	0.070762
C69	C	-0.797917	0.768691	0.000087
H70	H	-0.839225	0.677892	0.070756
H71	H	-0.661051	0.723658	0.070756
H72	H	-0.788740	0.755682	0.118707
H73	H	-0.778600	0.741238	-0.047858
H74	H	-0.906326	0.773255	0.000085
H75	H	-0.470330	0.080083	0.000109
C76	C	0.108683	1.053611	0.683311
C77	C	0.013170	1.002883	0.627052
H78	H	0.182539	1.092821	0.653945
H79	H	0.042228	1.076974	0.717055
H80	H	0.166079	1.025439	0.717079
H81	H	-0.044236	1.031054	0.593288
H82	H	0.079633	0.979518	0.593295
H83	H	0.058106	0.143552	0.000127
C84	C	-0.539173	0.709517	0.752479
C85	C	-0.443679	0.760258	0.808734
H86	H	-0.612997	0.670296	0.781848
H87	H	-0.596590	0.737671	0.718716
H88	H	-0.472689	0.686163	0.718730
H89	H	-0.510161	0.783616	0.842479
H90	H	-0.386257	0.732100	0.842511
C91	C	0.210513	0.663380	0.000089
C92	C	0.080956	0.699244	0.000087
H93	H	0.308435	0.701983	0.000082
H94	H	0.205505	0.631926	0.048035
H95	H	0.205476	0.631916	-0.047859
H96	H	0.085986	0.730703	0.048039
H97	H	0.085967	0.730710	-0.047864
C98	C	-0.541634	0.794699	0.577289
C99	C	-0.443698	0.760250	0.627061
H100	H	-0.615486	0.755478	0.547928
H101	H	-0.599019	0.822867	0.611045
H102	H	-0.476810	0.829104	0.539128
H103	H	-0.508520	0.725849	0.665226
H104	H	-0.386308	0.732069	0.593302
C105	C	-0.420700	0.772444	0.458253
C106	C	-0.443660	0.760232	0.373150
H107	H	-0.494559	0.733231	0.487614
H108	H	-0.314072	0.770424	0.472443
H109	H	-0.437927	0.821956	0.472417
H110	H	-0.426421	0.710722	0.358984
H111	H	-0.550314	0.762245	0.358954
H112	H	-0.017817	0.986396	0.203815
H113	H	-0.488595	0.619562	0.000069
H114	H	0.044668	0.540084	0.000115
C115	C	0.223935	0.266826	0.000123
C116	C	0.094387	0.302697	0.000121
H117	H	0.321862	0.305427	0.000120
H118	H	0.218917	0.235370	0.048067
H119	H	0.218896	0.235365	-0.047828
H120	H	0.099419	0.334154	0.048075
H121	H	0.099407	0.334167	-0.047828
H122	H	-0.017854	0.986434	0.796403
