data_functionalizedCrystal
_audit_creation_method	'MofGen! by Chris Wilmer'
_symmetry_space_group_name_H-M	'P1'
_symmetry_Int_Tables_number	1
_symmetry_cell_setting	triclinic
loop_
_symmetry_equiv_pos_as_xyz
  x,y,z
_cell_length_a	18.215407
_cell_length_b	16.625545
_cell_length_c	18.215399
_cell_angle_alpha	89.970704
_cell_angle_beta	89.983176
_cell_angle_gamma	90.026006
loop_
_atom_site_label
_atom_site_type_symbol
_atom_site_fract_x
_atom_site_fract_y
_atom_site_fract_z
Zn1	Zn	1.125047	-0.320981	-0.416121
Zn2	Zn	1.375047	-0.070981	-0.166121
Zn3	Zn	1.625047	0.179019	0.083879
Zn4	Zn	1.875047	0.429019	0.333879
Zn5	Zn	1.124960	-0.455827	-0.293057
Zn6	Zn	1.374960	-0.205827	-0.043057
Zn7	Zn	1.624960	0.044173	0.206943
Zn8	Zn	1.874960	0.294173	0.456943
Zn9	Zn	1.001986	-0.321013	-0.293069
Zn10	Zn	1.251986	-0.071013	-0.043069
Zn11	Zn	1.501986	0.178987	0.206931
Zn12	Zn	1.751986	0.428987	0.456931
Zn13	Zn	1.001944	-0.455776	-0.416082
Zn14	Zn	1.251944	-0.205776	-0.166082
Zn15	Zn	1.501944	0.044224	0.083918
Zn16	Zn	1.751944	0.294224	0.333918
O17	O	1.063484	-0.388399	-0.354582
O18	O	1.313484	-0.138399	-0.104582
O19	O	1.563484	0.111601	0.145418
O20	O	1.813484	0.361601	0.395418
O21	O	1.228019	-0.338876	-0.399808
O22	O	1.478019	-0.088876	-0.149808
O23	O	1.728019	0.161124	0.100192
O24	O	1.978019	0.411124	0.350192
O25	O	1.108629	-0.437978	-0.190074
O26	O	1.358629	-0.187978	0.059926
O27	O	1.608629	0.062022	0.309926
O28	O	1.858629	0.312022	0.559926
O29	O	1.018364	-0.208176	-0.309413
O30	O	1.268364	0.041824	-0.059413
O31	O	1.518364	0.291824	0.190587
O32	O	1.768364	0.541824	0.440587
O33	O	1.227956	-0.437947	-0.309394
O34	O	1.477956	-0.187947	-0.059394
O35	O	1.727956	0.062053	0.190606
O36	O	1.977956	0.312053	0.440606
O37	O	1.108776	-0.208153	-0.399819
O38	O	1.358776	0.041847	-0.149819
O39	O	1.608776	0.291847	0.100181
O40	O	1.858776	0.541847	0.350181
O41	O	1.018280	-0.338931	-0.190083
O42	O	1.268280	-0.088931	0.059917
O43	O	1.518280	0.161069	0.309917
O44	O	1.768280	0.411069	0.559917
O45	O	0.898996	-0.338882	-0.309375
O46	O	1.148996	-0.088882	-0.059375
O47	O	1.398996	0.161118	0.190625
O48	O	1.648996	0.411118	0.440625
O49	O	1.018292	-0.437861	-0.519072
O50	O	1.268292	-0.187861	-0.269072
O51	O	1.518292	0.062139	-0.019072
O52	O	1.768292	0.312139	0.230928
O53	O	0.898965	-0.437892	-0.399753
O54	O	1.148965	-0.187892	-0.149753
O55	O	1.398965	0.062108	0.100247
O56	O	1.648965	0.312108	0.350247
O57	O	1.108735	-0.338827	-0.519100
O58	O	1.358735	-0.088827	-0.269100
O59	O	1.608735	0.161173	-0.019100
O60	O	1.858735	0.411173	0.230900
O61	O	1.108588	-0.568653	-0.309356
O62	O	1.358588	-0.318653	-0.059356
O63	O	1.608588	-0.068653	0.190644
O64	O	1.858588	0.181347	0.440644
O65	O	1.018208	-0.568616	-0.399742
O66	O	1.268208	-0.318616	-0.149742
O67	O	1.518208	-0.068616	0.100258
O68	O	1.768208	0.181384	0.350258
C69	C	0.872278	-0.388386	-0.354561
C70	C	1.122278	-0.138386	-0.104561
C71	C	1.372278	0.111614	0.145439
C72	C	1.622278	0.361614	0.395439
C73	C	0.790479	-0.388399	-0.354570
C74	C	1.040479	-0.138399	-0.104570
C75	C	1.290479	0.111601	0.145430
C76	C	1.540479	0.361601	0.395430
C77	C	0.602288	-0.440035	-0.401570
C78	C	0.852288	-0.190035	-0.151570
C79	C	1.102288	0.059965	0.098430
C80	C	1.352288	0.309965	0.348430
C81	C	0.525429	-0.440037	-0.401579
C82	C	0.775429	-0.190037	-0.151579
C83	C	1.025429	0.059963	0.098421
C84	C	1.275429	0.309963	0.348421
C85	C	0.525432	-0.336779	-0.307611
C86	C	0.775432	-0.086779	-0.057611
C87	C	1.025432	0.163221	0.192389
C88	C	1.275432	0.413221	0.442389
C89	C	0.602289	-0.336773	-0.307606
C90	C	0.852289	-0.086773	-0.057606
C91	C	1.102289	0.163227	0.192394
C92	C	1.352289	0.413227	0.442394
C93	C	0.640715	-0.388405	-0.354584
C94	C	0.890715	-0.138405	-0.104584
C95	C	1.140715	0.111595	0.145416
C96	C	1.390715	0.361595	0.395416
C97	C	0.486999	-0.388414	-0.354598
C98	C	0.736999	-0.138414	-0.104598
C99	C	0.986999	0.111586	0.145402
C100	C	1.236999	0.361586	0.395402
C101	C	0.403666	-0.388416	-0.354608
C102	C	0.653666	-0.138416	-0.104608
C103	C	0.903666	0.111584	0.145392
C104	C	1.153666	0.361584	0.395392
C105	C	0.724054	-0.388402	-0.354576
C106	C	0.974054	-0.138402	-0.104576
C107	C	1.224054	0.111598	0.145424
C108	C	1.474054	0.361598	0.395424
C109	C	1.063404	-0.597890	-0.354559
C110	C	1.313404	-0.347890	-0.104559
C111	C	1.563404	-0.097890	0.145441
C112	C	1.813404	0.152110	0.395441
C113	C	1.063437	-0.687511	-0.354574
C114	C	1.313437	-0.437511	-0.104574
C115	C	1.563437	-0.187511	0.145426
C116	C	1.813437	0.062489	0.395426
C117	C	1.063466	-0.760294	-0.354589
C118	C	1.313466	-0.510294	-0.104589
C119	C	1.563466	-0.260294	0.145411
C120	C	1.813466	-0.010294	0.395411
C121	C	1.063509	-0.851602	-0.354605
C122	C	1.313509	-0.601602	-0.104605
C123	C	1.563509	-0.351602	0.145395
C124	C	1.813509	-0.101602	0.395395
C125	C	1.063547	-0.924379	-0.354614
C126	C	1.313547	-0.674379	-0.104614
C127	C	1.563547	-0.424379	0.145386
C128	C	1.813547	-0.174379	0.395386
C129	C	1.063589	-1.015693	-0.354629
C130	C	1.313589	-0.765693	-0.104629
C131	C	1.563589	-0.515693	0.145371
C132	C	1.813589	-0.265693	0.395371
C133	C	1.255437	-0.388414	-0.354604
C134	C	1.505437	-0.138414	-0.104604
C135	C	1.755437	0.111586	0.145396
C136	C	2.005437	0.361586	0.395396
C137	C	1.337236	-0.388420	-0.354613
C138	C	1.587236	-0.138420	-0.104613
C139	C	1.837236	0.111580	0.145387
C140	C	2.087236	0.361580	0.395387
C141	C	1.063519	-0.388335	-0.546535
C142	C	1.313519	-0.138335	-0.296535
C143	C	1.563519	0.111665	-0.046535
C144	C	1.813519	0.361665	0.203465
C145	C	1.063534	-0.388308	-0.628334
C146	C	1.313534	-0.138308	-0.378334
C147	C	1.563534	0.111692	-0.128334
C148	C	1.813534	0.361692	0.121666
C149	C	1.063584	-0.178091	-0.354622
C150	C	1.313584	0.071909	-0.104622
C151	C	1.563584	0.321909	0.145378
C152	C	1.813584	0.571909	0.395378
C153	C	1.063627	-0.088469	-0.354639
C154	C	1.313627	0.161531	-0.104639
C155	C	1.563627	0.411531	0.145361
C156	C	1.813627	0.661531	0.395361
C157	C	1.016529	-0.336699	-0.816534
C158	C	1.266529	-0.086699	-0.566534
C159	C	1.516529	0.163301	-0.316534
C160	C	1.766529	0.413301	-0.066534
C161	C	1.016542	-0.336683	-0.893392
C162	C	1.266542	-0.086683	-0.643392
C163	C	1.516542	0.163317	-0.393392
C164	C	1.766542	0.413317	-0.143392
C165	C	1.110626	-0.439820	-0.893373
C166	C	1.360626	-0.189820	-0.643373
C167	C	1.610626	0.060180	-0.393373
C168	C	1.860626	0.310180	-0.143373
C169	C	1.110609	-0.439840	-0.816516
C170	C	1.360609	-0.189840	-0.566516
C171	C	1.610609	0.060160	-0.316516
C172	C	1.860609	0.310160	-0.066516
C173	C	1.063562	-0.388275	-0.778098
C174	C	1.313562	-0.138275	-0.528098
C175	C	1.563562	0.111725	-0.278098
C176	C	1.813562	0.361725	-0.028098
C177	C	1.063591	-0.388239	-0.931814
C178	C	1.313591	-0.138239	-0.681814
C179	C	1.563591	0.111761	-0.431814
C180	C	1.813591	0.361761	-0.181814
C181	C	1.063606	-0.388221	-1.015148
C182	C	1.313606	-0.138221	-0.765148
C183	C	1.563606	0.111779	-0.515148
C184	C	1.813606	0.361779	-0.265148
C185	C	1.063546	-0.388293	-0.694759
C186	C	1.313546	-0.138293	-0.444759
C187	C	1.563546	0.111707	-0.194759
C188	C	1.813546	0.361707	0.055241
C189	C	1.063492	-0.388405	-0.163376
C190	C	1.313492	-0.138405	0.086624
C191	C	1.563492	0.111595	0.336624
C192	C	1.813492	0.361595	0.586624
C193	C	1.063620	-0.388206	-0.081578
C194	C	1.313620	-0.138206	0.168422
C195	C	1.563620	0.111794	0.418422
C196	C	1.813620	0.361794	0.668422
H197	H	0.633572	-0.482075	-0.439825
H198	H	0.883572	-0.232075	-0.189825
H199	H	1.133572	0.017925	0.060175
H200	H	1.383572	0.267925	0.310175
N201	N	0.965810	-0.281056	-0.934845
N202	N	1.215810	-0.031056	-0.684845
N203	N	1.465810	0.218944	-0.434845
N204	N	1.715810	0.468944	-0.184845
H205	H	0.977263	-0.223449	-0.921488
H206	H	1.227263	0.026551	-0.671488
H207	H	1.477263	0.276551	-0.421488
H208	H	1.727263	0.526551	-0.171488
H209	H	0.972977	-0.288936	-0.989351
H210	H	1.222977	-0.038936	-0.739351
H211	H	1.472977	0.211064	-0.489351
H212	H	1.722977	0.461064	-0.239351
H213	H	1.148932	-0.481802	-0.924662
H214	H	1.398932	-0.231802	-0.674662
H215	H	1.648932	0.018198	-0.424662
H216	H	1.898932	0.268198	-0.174662
H217	H	0.978219	-0.294711	-0.785256
H218	H	1.228219	-0.044711	-0.535256
H219	H	1.478219	0.205289	-0.285256
H220	H	1.728219	0.455289	-0.035256
N221	N	0.483982	-0.495727	-0.452253
N222	N	0.733982	-0.245727	-0.202253
N223	N	0.983982	0.004273	0.047747
N224	N	1.233982	0.254273	0.297747
H225	H	0.519990	-0.528434	-0.482010
H226	H	0.769990	-0.278434	-0.232010
H227	H	1.019990	-0.028434	0.017990
H228	H	1.269990	0.221566	0.267990
H229	H	0.452070	-0.533000	-0.422236
H230	H	0.702070	-0.283000	-0.172236
H231	H	0.952070	-0.033000	0.077764
H232	H	1.202070	0.217000	0.327764
N233	N	1.161341	-0.495465	-0.775049
N234	N	1.411341	-0.245465	-0.525049
N235	N	1.661341	0.004535	-0.275049
N236	N	1.911341	0.254535	-0.025049
H237	H	1.131406	-0.532835	-0.743150
H238	H	1.381406	-0.282835	-0.493150
H239	H	1.631406	-0.032835	-0.243150
H240	H	1.881406	0.217165	0.006850
H241	H	1.191144	-0.528072	-0.811090
H242	H	1.441144	-0.278072	-0.561090
H243	H	1.691144	-0.028072	-0.311090
H244	H	1.941144	0.221928	-0.061090
N245	N	0.483987	-0.281113	-0.256923
N246	N	0.733987	-0.031113	-0.006923
N247	N	0.983987	0.218887	0.243077
N248	N	1.233987	0.468887	0.493077
H249	H	0.429466	-0.288958	-0.264048
H250	H	0.679466	-0.038958	-0.014048
H251	H	0.929466	0.211042	0.235952
H252	H	1.179466	0.461042	0.485952
H253	H	0.497410	-0.293612	-0.204351
H254	H	0.747410	-0.043612	0.045649
H255	H	0.997410	0.206388	0.295649
H256	H	1.247410	0.456388	0.545649
N257	N	0.643740	-0.281089	-0.256919
N258	N	0.893740	-0.031089	-0.006919
N259	N	1.143740	0.218911	0.243081
N260	N	1.393740	0.468911	0.493081
H261	H	0.698259	-0.288919	-0.264048
H262	H	0.948259	-0.038919	-0.014048
H263	H	1.198259	0.211081	0.235952
H264	H	1.448259	0.461081	0.485952
H265	H	0.630331	-0.223519	-0.268464
H266	H	0.880331	0.026481	-0.018464
H267	H	1.130331	0.276481	0.231536
H268	H	1.380331	0.526481	0.481536
