data_functionalizedCrystal
_audit_creation_method	'MofGen! by Chris Wilmer'
_symmetry_space_group_name_H-M	'P1'
_symmetry_Int_Tables_number	1
_symmetry_cell_setting	triclinic
loop_
_symmetry_equiv_pos_as_xyz
  x,y,z
_cell_length_a	21.395364
_cell_length_b	18.215405
_cell_length_c	21.395355
_cell_angle_alpha	89.980149
_cell_angle_beta	89.975448
_cell_angle_gamma	90.039836
loop_
_atom_site_label
_atom_site_type_symbol
_atom_site_fract_x
_atom_site_fract_y
_atom_site_fract_z
Zn1	Zn	0.957885	-0.292776	-0.354256
Zn2	Zn	1.457885	0.207224	0.145744
Zn3	Zn	0.957798	-0.415824	-0.249476
Zn4	Zn	1.457798	0.084176	0.250524
Zn5	Zn	0.853100	-0.292808	-0.249492
Zn6	Zn	1.353100	0.207192	0.250508
Zn7	Zn	0.853079	-0.415837	-0.354216
Zn8	Zn	1.353079	0.084163	0.145784
O9	O	0.905465	-0.354311	-0.301860
O10	O	1.405465	0.145689	0.198140
O11	O	1.045551	-0.309080	-0.340366
O12	O	1.545551	0.190920	0.159634
O13	O	0.943881	-0.399514	-0.161800
O14	O	1.443881	0.100486	0.338200
O15	O	0.867044	-0.189820	-0.263413
O16	O	1.367044	0.310180	0.236587
O17	O	1.045487	-0.399483	-0.263385
O18	O	1.545487	0.100517	0.236615
O19	O	0.944029	-0.189796	-0.340382
O20	O	1.444029	0.310204	0.159618
O21	O	0.866960	-0.309135	-0.161812
O22	O	1.366960	0.190865	0.338188
O23	O	0.765419	-0.309147	-0.263375
O24	O	1.265419	0.190853	0.236625
O25	O	0.867010	-0.399505	-0.441899
O26	O	1.367010	0.100495	0.058101
O27	O	0.765404	-0.399536	-0.340314
O28	O	1.265404	0.100464	0.159686
O29	O	0.944010	-0.309092	-0.441928
O30	O	1.444010	0.190908	0.058072
O31	O	0.943862	-0.518810	-0.263346
O32	O	1.443862	-0.018810	0.236654
O33	O	0.866926	-0.518820	-0.340298
O34	O	1.366926	-0.018820	0.159702
C35	C	0.742678	-0.354347	-0.301842
C36	C	1.242678	0.145653	0.198158
C37	C	0.673036	-0.354380	-0.301850
C38	C	1.173036	0.145620	0.198150
C39	C	0.640379	-0.307384	-0.341996
C40	C	1.140379	0.192616	0.158004
C41	C	0.574943	-0.307365	-0.341998
C42	C	1.074943	0.192635	0.158002
C43	C	0.542168	-0.354354	-0.301861
C44	C	1.042168	0.145646	0.198139
C45	C	0.574833	-0.401353	-0.261707
C46	C	1.074833	0.098647	0.238293
C47	C	0.640268	-0.401366	-0.261701
C48	C	1.140268	0.098634	0.238299
C49	C	0.438449	-0.420629	-0.296822
C50	C	0.938449	0.079371	0.203178
C51	C	0.373016	-0.420618	-0.296832
C52	C	0.873016	0.079382	0.203168
C53	C	0.340347	-0.354314	-0.301875
C54	C	0.840347	0.145686	0.198125
C55	C	0.373119	-0.288020	-0.306921
C56	C	0.873119	0.211980	0.193079
C57	C	0.438553	-0.288033	-0.306915
C58	C	0.938553	0.211967	0.193085
C59	C	0.471216	-0.354345	-0.301863
C60	C	0.971216	0.145655	0.198137
C61	C	0.236737	-0.307293	-0.342026
C62	C	0.736737	0.192707	0.157974
C63	C	0.171301	-0.307272	-0.342024
C64	C	0.671301	0.192728	0.157976
C65	C	0.171192	-0.401267	-0.261736
C66	C	0.671192	0.098733	0.238264
C67	C	0.236627	-0.401281	-0.261735
C68	C	0.736627	0.098719	0.238265
C69	C	0.269396	-0.354295	-0.301883
C70	C	0.769396	0.145705	0.198117
C71	C	0.905399	-0.545518	-0.301830
C72	C	1.405399	-0.045518	0.198170
C73	C	0.905428	-0.627317	-0.301838
C74	C	1.405428	-0.127317	0.198162
C75	C	0.945583	-0.815481	-0.261843
C76	C	1.445583	-0.315481	0.238157
C77	C	0.945611	-0.892340	-0.261858
C78	C	1.445611	-0.392340	0.238142
C79	C	0.865428	-0.892390	-0.341922
C80	C	1.365428	-0.392390	0.158078
C81	C	0.865403	-0.815532	-0.341910
C82	C	1.365403	-0.315532	0.158090
C83	C	0.905480	-0.777080	-0.301866
C84	C	1.405480	-0.277080	0.198134
C85	C	0.905532	-0.930796	-0.301894
C86	C	1.405532	-0.430796	0.198106
C87	C	0.905563	-1.014130	-0.301911
C88	C	1.405563	-0.514130	0.198089
C89	C	0.905451	-0.693741	-0.301850
C90	C	1.405451	-0.193741	0.198150
C91	C	1.068889	-0.354276	-0.301878
C92	C	1.568889	0.145724	0.198122
C93	C	1.138530	-0.354261	-0.301886
C94	C	1.638530	0.145739	0.198114
C95	C	0.905517	-0.354297	-0.465283
C96	C	1.405517	0.145703	0.034717
C97	C	0.905539	-0.354290	-0.534925
C98	C	1.405539	0.145710	-0.034925
C99	C	0.905549	-0.162358	-0.301904
C100	C	1.405549	0.337642	0.198096
C101	C	0.905584	-0.080560	-0.301923
C102	C	1.405584	0.419440	0.198077
C103	C	0.945632	-0.307210	-0.567654
C104	C	1.445632	0.192790	-0.067654
C105	C	0.945631	-0.307179	-0.633089
C106	C	1.445631	0.192821	-0.133089
C107	C	0.905544	-0.354240	-0.665793
C108	C	1.405544	0.145760	-0.165793
C109	C	0.865444	-0.401323	-0.633056
C110	C	1.365444	0.098677	-0.133056
C111	C	0.865442	-0.401348	-0.567622
C112	C	1.365442	0.098652	-0.067622
C113	C	0.900574	-0.420506	-0.769457
C114	C	1.400574	0.079494	-0.269457
C115	C	0.900581	-0.420482	-0.834890
C116	C	1.400581	0.079518	-0.334890
C117	C	0.905548	-0.354162	-0.867614
C118	C	1.405548	0.145838	-0.367614
C119	C	0.910522	-0.287865	-0.834896
C120	C	1.410522	0.212135	-0.334896
C121	C	0.910519	-0.287890	-0.769462
C122	C	1.410519	0.212110	-0.269462
C123	C	0.905542	-0.354218	-0.736745
C124	C	1.405542	0.145782	-0.236745
C125	C	0.945642	-0.307044	-0.971296
C126	C	1.445642	0.192956	-0.471296
C127	C	0.945636	-0.307011	-1.036732
C128	C	1.445636	0.192989	-0.536732
C129	C	0.865453	-0.401162	-1.036698
C130	C	1.365453	0.098838	-0.536698
C131	C	0.865455	-0.401189	-0.971262
C132	C	1.365455	0.098811	-0.471262
C133	C	0.905553	-0.354131	-0.938565
C134	C	1.405553	0.145869	-0.438565
C135	C	0.905450	-0.354273	-0.139072
C136	C	1.405450	0.145727	0.360928
C137	C	0.905549	-0.354072	-0.069431
C138	C	1.405549	0.145928	0.430569
H139	H	0.666857	-0.439637	-0.229009
H140	H	1.166857	0.060363	0.270991
C141	C	0.989672	-0.773186	-0.217797
C142	C	1.489672	-0.273186	0.282203
N143	N	1.022882	-0.741332	-0.184622
N144	N	1.522882	-0.241332	0.315378
H145	H	0.978267	-0.923602	-0.229267
H146	H	1.478267	-0.423602	0.270733
C147	C	0.821339	-0.934695	-0.385961
C148	C	1.321339	-0.434695	0.114039
N149	N	0.788128	-0.966558	-0.419129
N150	N	1.288128	-0.466558	0.080871
C151	C	0.821298	-0.773289	-0.385954
C152	C	1.321298	-0.273289	0.114046
N153	N	0.788084	-0.741471	-0.419133
N154	N	1.288084	-0.241471	0.080867
H155	H	0.144507	-0.439527	-0.229056
H156	H	0.644507	0.060473	0.270944
C157	C	0.989732	-0.255435	-0.531691
C158	C	1.489732	0.244565	-0.031691
N159	N	1.022946	-0.216434	-0.504603
N160	N	1.522946	0.283566	-0.004603
H161	H	0.914567	-0.233908	-0.742826
H162	H	1.414567	0.266092	-0.242826
C163	C	0.989742	-0.255215	-1.072735
C164	C	1.489742	0.244785	-0.572735
N165	N	1.022964	-0.216202	-1.099852
N166	N	1.522964	0.283798	-0.599852
H167	H	0.978277	-0.268837	-0.659743
H168	H	1.478277	0.231163	-0.159743
C169	C	0.915985	-0.214907	-0.870887
C170	C	1.415985	0.285093	-0.370887
N171	N	0.920100	-0.159957	-0.897999
N172	N	1.420100	0.340043	-0.397999
H173	H	0.978288	-0.268722	-0.944672
H174	H	1.478288	0.231278	-0.444672
C175	C	0.821353	-0.452984	-0.935258
C176	C	1.321353	0.047016	-0.435258
N177	N	0.788131	-0.491997	-0.908141
N178	N	1.288131	0.008003	-0.408141
H179	H	0.832808	-0.439473	-1.063324
H180	H	1.332808	0.060527	-0.563324
H181	H	0.896535	-0.474465	-0.861524
H182	H	1.396535	0.025535	-0.361524
H183	H	0.896362	-0.474497	-0.742819
H184	H	1.396362	0.025503	-0.242819
C185	C	0.821346	-0.453088	-0.669031
C186	C	1.321346	0.046912	-0.169031
N187	N	0.788128	-0.492075	-0.696127
N188	N	1.288128	0.007925	-0.196127
H189	H	0.346521	-0.234029	-0.311027
H190	H	0.846521	0.265971	0.188973
H191	H	0.263419	-0.269029	-0.374713
H192	H	0.763419	0.230971	0.125287
H193	H	0.548144	-0.439612	-0.229027
H194	H	1.048144	0.060388	0.270973
H195	H	0.465234	-0.234054	-0.311022
H196	H	0.965234	0.265946	0.188978
H197	H	0.832791	-0.439685	-0.540974
H198	H	1.332791	0.060315	-0.040974
C199	C	0.336974	-0.493541	-0.291275
C200	C	0.836974	0.006459	0.208725
N201	N	0.309828	-0.548469	-0.287085
N202	N	0.809828	-0.048469	0.212915
C203	C	0.135378	-0.255569	-0.386190
C204	C	0.635378	0.244431	0.113810
N205	N	0.108320	-0.216627	-0.419457
N206	N	0.608320	0.283373	0.080543
C207	C	0.539013	-0.255668	-0.386167
C208	C	1.039013	0.244332	0.113833
N209	N	0.511952	-0.216732	-0.419438
N210	N	1.011952	0.283268	0.080562
C211	C	0.676421	-0.255689	-0.386152
C212	C	1.176421	0.244311	0.113848
N213	N	0.703568	-0.216748	-0.419409
N214	N	1.203568	0.283252	0.080591
H215	H	0.465043	-0.474626	-0.292715
H216	H	0.965043	0.025374	0.207285
C217	C	0.272552	-0.452987	-0.217575
C218	C	0.772552	0.047013	0.282425
N219	N	0.299610	-0.491933	-0.184312
N220	N	0.799610	0.008067	0.315688
