data_functionalizedCrystal
_audit_creation_method	'MofGen! by Chris Wilmer'
_symmetry_space_group_name_H-M	'P1'
_symmetry_Int_Tables_number	1
_symmetry_cell_setting	triclinic
loop_
_symmetry_equiv_pos_as_xyz
  x,y,z
_cell_length_a	15.995350
_cell_length_b	27.732048
_cell_length_c	14.472310
_cell_angle_alpha	89.993924
_cell_angle_beta	89.990621
_cell_angle_gamma	83.067515
loop_
_atom_site_label
_atom_site_type_symbol
_atom_site_fract_x
_atom_site_fract_y
_atom_site_fract_z
O1	O	1.110190	0.062301	-0.076773
O2	O	0.866316	0.069995	-0.076793
O3	O	0.995827	-0.004216	-0.076765
O4	O	0.980679	0.136512	-0.076801
O5	O	0.995794	-0.004212	0.076917
O6	O	0.866282	0.069999	0.076889
O7	O	1.110157	0.062306	0.076909
Cu8	Cu	0.988217	0.066153	0.090931
Cu9	Cu	0.988256	0.066148	-0.090815
O10	O	0.980646	0.136517	0.076881
C11	C	0.835108	0.069679	0.000045
C12	C	0.742170	0.068726	0.000038
C13	C	0.404467	0.065301	0.000059
C14	C	0.452585	0.012449	0.000415
C15	C	0.549263	0.013403	0.000062
C16	C	0.572006	0.067000	0.000049
C17	C	0.530600	0.093065	-0.087714
C18	C	0.433982	0.091738	-0.087781
C19	C	0.433591	0.092835	0.086984
C20	C	0.530536	0.092822	0.088138
C21	C	0.666691	0.067962	0.000041
C22	C	0.309782	0.064340	0.000061
C23	C	0.995493	-0.022222	0.000079
C24	C	0.994535	-0.075881	0.000086
C25	C	1.065040	-0.414392	0.000045
C26	C	1.061487	-0.616067	0.000031
O27	O	1.125959	-0.647045	-0.000004
N28	N	0.984692	-0.635522	0.000026
C29	C	0.908780	-0.604555	0.000018
O30	O	0.843380	-0.625730	0.000003
C31	C	0.912334	-0.402881	0.000024
C32	C	0.989134	-0.383429	0.000039
C33	C	1.141834	-0.394940	0.000058
C34	C	1.142721	-0.344524	0.000067
C35	C	1.066815	-0.313561	0.000061
C36	C	0.990021	-0.333013	0.000047
C37	C	0.836422	-0.371914	0.000009
C38	C	0.837317	-0.321493	0.000009
C39	C	0.914117	-0.302041	0.000023
C40	C	0.915002	-0.251634	0.000050
N41	N	0.991797	-0.232179	0.000056
C42	C	1.067703	-0.263142	0.000061
C43	C	0.906920	-0.710437	0.000016
C44	C	0.906031	-0.760855	0.000016
C45	C	1.058739	-0.772364	0.000028
C46	C	1.059627	-0.721945	0.000035
C47	C	0.983715	-0.690982	0.000021
C48	C	1.069561	-0.157265	0.000080
C49	C	1.070442	-0.106844	0.000092
C50	C	0.917734	-0.095340	0.000075
C51	C	0.916853	-0.145756	0.000067
C52	C	0.992773	-0.176718	0.000067
O53	O	0.850565	-0.220628	0.000075
O54	O	1.133094	-0.241958	0.000055
C55	C	1.064153	-0.464808	0.000036
C56	C	0.987359	-0.484260	0.000022
C57	C	0.911452	-0.453297	0.000017
C58	C	0.986470	-0.534679	0.000022
C59	C	1.062377	-0.565642	0.000028
C60	C	1.139172	-0.546187	0.000033
C61	C	1.140059	-0.495771	0.000042
C62	C	0.834657	-0.472752	0.000011
C63	C	0.833776	-0.523168	0.000004
C64	C	0.909683	-0.554132	0.000010
C65	C	1.141364	0.062621	0.000068
C66	C	1.234302	0.063575	0.000069
C67	C	0.980980	0.154523	0.000035
C68	C	0.981938	0.208182	0.000022
N69	N	0.988195	0.066156	0.218762
N70	N	0.988284	0.066141	-0.218646
C71	C	0.988255	0.066146	0.592853
C72	C	0.918727	0.105721	0.553672
C73	C	0.918884	0.105866	0.446584
C74	C	0.988225	0.066151	0.407262
C75	C	1.075447	0.077167	0.446103
C76	C	1.075055	0.077448	0.553225
C77	C	0.971342	0.015437	0.553394
C78	C	0.969334	0.015775	0.446267
C79	C	0.988213	0.066153	0.302374
C80	C	0.988272	0.066145	0.697742
H81	H	0.558085	0.073794	0.153064
C82	C	1.039842	-0.024351	0.587628
C83	C	1.096271	-0.054786	0.517557
C84	C	1.164773	-0.094569	0.551798
C85	C	1.176847	-0.103917	0.656109
C86	C	1.120417	-0.073482	0.726186
C87	C	1.051915	-0.033699	0.691946
H88	H	1.087334	-0.047866	0.440334
H89	H	1.206546	-0.117099	0.499921
H90	H	1.227557	-0.133367	0.681455
H91	H	1.129354	-0.080401	0.803409
H92	H	1.010142	-0.011168	0.743822
C93	C	0.887316	0.001135	0.589922
C94	C	0.832981	0.035322	0.656060
C95	C	0.748951	0.021026	0.692589
C96	C	0.719255	-0.027458	0.662979
C97	C	0.773591	-0.061648	0.596837
C98	C	0.857621	-0.047352	0.560309
H99	H	0.854962	0.071215	0.677982
H100	H	0.708728	0.046336	0.741552
H101	H	0.657051	-0.038041	0.690020
H102	H	0.751609	-0.097541	0.574915
H103	H	0.897844	-0.072662	0.511346
C104	C	0.823408	-0.676382	0.000011
C105	C	0.803017	-0.640136	-0.079792
C106	C	0.719505	-0.606084	-0.079791
C107	C	0.656384	-0.608280	0.000012
C108	C	0.676774	-0.644528	0.079820
C109	C	0.760286	-0.678579	0.079820
H110	H	0.849744	-0.638509	-0.138872
H111	H	0.704411	-0.579251	-0.138871
H112	H	0.594563	-0.583073	0.000012
H113	H	0.630047	-0.646154	0.138901
H114	H	0.775380	-0.705412	0.138900
H115	H	0.772844	-0.447546	0.000005
C116	C	0.834239	-0.061275	0.000061
C117	C	0.771097	-0.063456	0.079849
C118	C	0.687601	-0.029391	0.079826
C119	C	0.667246	0.006856	0.000015
C120	C	0.730389	0.009038	-0.079778
C121	C	0.813886	-0.025028	-0.079755
H122	H	0.786164	-0.090289	0.138934
H123	H	0.640858	-0.031007	0.138894
H124	H	0.605437	0.032073	-0.000002
H125	H	0.715323	0.035871	-0.138863
H126	H	0.860628	-0.023412	-0.138823
C127	C	0.389726	0.144154	-0.093189
C128	C	0.330853	0.159753	-0.174816
C129	C	0.286600	0.212167	-0.180233
C130	C	0.301219	0.248981	-0.104024
C131	C	0.360095	0.233382	-0.022391
C132	C	0.404349	0.180969	-0.016974
H133	H	0.320028	0.132500	-0.231236
H134	H	0.243016	0.223714	-0.240664
H135	H	0.268460	0.287781	-0.108034
H136	H	0.370920	0.260635	0.034029
H137	H	0.447933	0.169421	0.043457
C138	C	0.882663	0.004480	0.411965
C139	C	0.865768	0.000679	0.307625
C140	C	0.779098	-0.010613	0.273312
C141	C	0.709323	-0.018104	0.343339
C142	C	0.726216	-0.014303	0.447685
C143	C	0.812886	-0.003011	0.481998
H144	H	0.917421	0.006225	0.255782
H145	H	0.766592	-0.013426	0.196068
H146	H	0.645165	-0.026463	0.317938
H147	H	0.674563	-0.019848	0.499528
H148	H	0.825392	-0.000197	0.559242
C149	C	0.550601	0.145625	0.095285
C150	C	0.598102	0.161953	0.180069
C151	C	0.618166	0.214758	0.187206
C152	C	0.590730	0.251235	0.109559
C153	C	0.543227	0.234907	0.024769
C154	C	0.523163	0.182102	0.017632
H155	H	0.618414	0.134951	0.237554
H156	H	0.653331	0.226845	0.249974
H157	H	0.605583	0.290324	0.114842
H158	H	0.522915	0.261909	-0.032716
H159	H	0.487998	0.170015	-0.045136
H160	H	0.854029	0.099303	0.420325
H161	H	0.853660	0.099266	0.579457
C162	C	0.933051	0.156278	0.589952
C163	C	1.007542	0.161751	0.654940
C164	C	1.021887	0.212308	0.691195
C165	C	0.961741	0.257393	0.662460
C166	C	0.887245	0.251922	0.597468
C167	C	0.872900	0.201364	0.561214
H168	H	1.052070	0.128375	0.676215
H169	H	1.077034	0.216358	0.739307
H170	H	0.972359	0.294819	0.689298
H171	H	0.842716	0.285298	0.576194
H172	H	0.817753	0.197314	0.513102
C173	C	0.933390	0.156699	0.411933
C174	C	0.936419	0.166946	0.307481
C175	C	0.950931	0.217781	0.272830
C176	C	0.962412	0.258370	0.342631
C177	C	0.959383	0.248125	0.447088
C178	C	0.944872	0.197289	0.481739
H179	H	0.927920	0.136898	0.255805
H180	H	0.953173	0.225365	0.195503
H181	H	0.973154	0.296001	0.316980
H182	H	0.967883	0.278172	0.498765
H183	H	0.942629	0.189706	0.559066
C184	C	1.225339	-0.428995	0.000071
C185	C	1.245768	-0.465237	-0.079724
C186	C	1.329280	-0.499289	-0.079702
C187	C	1.392363	-0.497098	0.000115
C188	C	1.371936	-0.460855	0.079916
C189	C	1.288424	-0.426803	0.079894
H190	H	1.199068	-0.466860	-0.138815
H191	H	1.344400	-0.526119	-0.138777
H192	H	1.454183	-0.522306	0.000131
H193	H	1.418636	-0.459232	0.139007
H194	H	1.273304	-0.399973	0.138969
C195	C	1.154927	-0.085449	0.000103
C196	C	1.217780	-0.097139	0.079907
C197	C	1.302262	-0.075746	0.079916
C198	C	1.323891	-0.042662	0.000120
C199	C	1.261037	-0.030969	-0.079690
C200	C	1.176554	-0.052363	-0.079699
H201	H	1.201770	-0.121632	0.138982
H202	H	1.348791	-0.084401	0.138997
H203	H	1.386430	-0.026825	0.000127
H204	H	1.277047	-0.006477	-0.138765
H205	H	1.130026	-0.043707	-0.138780
H206	H	1.016736	-0.015055	0.419504
C207	C	1.146982	0.039267	0.411691
C208	C	1.126981	-0.002226	0.347769
C209	C	1.198515	-0.040126	0.313354
C210	C	1.290050	-0.036534	0.342862
C211	C	1.310055	0.004960	0.406788
C212	C	1.238521	0.042860	0.441202
H213	H	1.059218	-0.004886	0.325922
H214	H	1.183705	-0.070843	0.266032
H215	H	1.343003	-0.064590	0.317386
H216	H	1.377818	0.007621	0.428634
H217	H	1.253330	0.073577	0.488524
H218	H	1.090059	0.114429	0.578192
H219	H	0.413265	0.075558	0.153506
C220	C	0.588013	-0.014285	0.085043
C221	C	0.560840	0.002779	0.182964
C222	C	0.599584	-0.024915	0.267944
C223	C	0.665500	-0.069672	0.255005
C224	C	0.692677	-0.086737	0.157080
C225	C	0.653933	-0.059044	0.072100
H226	H	0.512041	0.035913	0.192546
H227	H	0.579466	-0.012281	0.340435
H228	H	0.694181	-0.090172	0.317913
H229	H	0.741475	-0.119871	0.147498
H230	H	0.674051	-0.071677	-0.000391
H231	H	1.090826	0.113726	0.419258
C232	C	0.426503	-0.015967	-0.084122
C233	C	0.361760	0.008609	-0.153380
C234	C	0.335677	-0.019806	-0.237919
C235	C	0.374336	-0.072795	-0.253200
C236	C	0.439083	-0.097373	-0.183940
C237	C	0.465166	-0.068959	-0.099401
H238	H	0.333138	0.047837	-0.142071
H239	H	0.287746	-0.001611	-0.289190
H240	H	0.355028	-0.093829	-0.315781
H241	H	0.467705	-0.136601	-0.195250
H242	H	0.513097	-0.087153	-0.048130
C243	C	0.548996	0.146259	-0.092148
C244	C	0.514434	0.179015	-0.172783
C245	C	0.532832	0.232209	-0.177215
C246	C	0.585791	0.252647	-0.101012
C247	C	0.620356	0.219890	-0.020371
C248	C	0.601958	0.166696	-0.015939
H249	H	0.475228	0.163887	-0.229198
H250	H	0.507244	0.256458	-0.236911
H251	H	0.599410	0.292024	-0.104293
H252	H	0.659562	0.235019	0.036044
H253	H	0.627546	0.142448	0.043757
C254	C	0.569248	0.068599	-0.175943
C255	C	0.638323	0.025005	-0.168539
C256	C	0.676966	0.000533	-0.256765
C257	C	0.646533	0.019656	-0.352396
C258	C	0.577454	0.063252	-0.359804
C259	C	0.538812	0.087724	-0.271578
H260	H	0.660855	0.010847	-0.097743
H261	H	0.728103	-0.031740	-0.251280
H262	H	0.675139	0.001540	-0.417706
H263	H	0.554923	0.077410	-0.430599
H264	H	0.487675	0.119997	-0.277063
H265	H	1.205260	-0.328691	0.000075
C266	C	0.390003	0.145476	0.087781
C267	C	0.328288	0.163414	0.009981
C268	C	0.284696	0.216053	0.010769
C269	C	0.302820	0.250755	0.089356
C270	C	0.364538	0.232818	0.167162
C271	C	0.408130	0.180179	0.166374
H272	H	0.314869	0.137725	-0.048199
H273	H	0.239008	0.229331	-0.046829
H274	H	0.270551	0.289722	0.089939
H275	H	0.377957	0.258507	0.225343
H276	H	0.453818	0.166901	0.223972
C277	C	1.153072	-0.191318	0.000085
C278	C	1.173448	-0.227567	0.079888
C279	C	1.256958	-0.261620	0.079902
C280	C	1.320093	-0.259425	0.000112
C281	C	1.299719	-0.223175	-0.079697
C282	C	1.216208	-0.189122	-0.079710
H283	H	1.126710	-0.229193	0.138959
H284	H	1.272040	-0.288455	0.138982
H285	H	1.381912	-0.284633	0.000122
H286	H	1.346456	-0.221548	-0.138767
H287	H	1.201127	-0.162287	-0.138790
C288	C	0.751936	-0.393299	-0.000013
C289	C	0.689044	-0.381612	0.079775
C290	C	0.604551	-0.402993	0.079751
C291	C	0.582949	-0.436062	-0.000061
C292	C	0.645842	-0.447750	-0.079855
C293	C	0.730336	-0.426369	-0.079831
H294	H	0.705034	-0.357131	0.138862
H295	H	0.557993	-0.394341	0.138820
H296	H	0.520402	-0.451890	-0.000078
H297	H	0.629853	-0.472231	-0.138941
H298	H	0.776893	-0.435022	-0.138900
H299	H	0.434323	-0.008675	0.063354
H300	H	0.577401	-0.007228	-0.062950
H301	H	0.775499	-0.296285	-0.000004
H302	H	1.122164	-0.706111	0.000046
H303	H	0.415933	0.072726	-0.153376
H304	H	1.120545	-0.797583	0.000033
H305	H	0.843493	-0.776688	0.000020
C306	C	0.832378	-0.167160	0.000047
C307	C	0.810742	-0.200252	0.079829
C308	C	0.726267	-0.221653	0.079793
C309	C	0.663428	-0.209963	-0.000025
C310	C	0.685062	-0.176869	-0.079812
C311	C	0.769537	-0.155468	-0.079776
H312	H	0.857261	-0.208907	0.138920
H313	H	0.710252	-0.246151	0.138857
H314	H	0.600894	-0.225805	-0.000051
H315	H	0.638543	-0.168214	-0.138903
H316	H	0.785552	-0.130970	-0.138840
H317	H	1.202598	-0.479938	0.000054
H318	H	1.200977	-0.571406	0.000042
H319	H	0.771232	-0.539001	-0.000000
H320	H	1.128374	0.049759	0.579142
