data_functionalizedCrystal
_audit_creation_method	'MofGen! by Chris Wilmer'
_symmetry_space_group_name_H-M	'P1'
_symmetry_Int_Tables_number	1
_symmetry_cell_setting	triclinic
loop_
_symmetry_equiv_pos_as_xyz
  x,y,z
_cell_length_a	14.519709
_cell_length_b	10.654550
_cell_length_c	9.130313
_cell_angle_alpha	90.000110
_cell_angle_beta	90.005376
_cell_angle_gamma	95.917476
loop_
_atom_site_label
_atom_site_type_symbol
_atom_site_fract_x
_atom_site_fract_y
_atom_site_fract_z
O1	O	1.224716	-0.164617	-0.121605
O2	O	0.956339	-0.184004	-0.121649
O3	O	1.096698	0.008488	-0.121620
O4	O	1.084357	-0.357109	-0.121633
O5	O	1.096696	0.008483	0.121978
O6	O	0.956338	-0.184009	0.121950
O7	O	1.224714	-0.164623	0.121994
Cu8	Cu	1.090526	-0.174316	0.144215
Cu9	Cu	1.090528	-0.174310	-0.143869
O10	O	1.084355	-0.357114	0.121966
C11	C	1.095791	0.055275	0.000177
C12	C	1.093080	0.194692	0.000172
C13	C	0.921974	-0.183103	0.000145
C14	C	0.819579	-0.180396	0.000128
N15	N	1.090531	-0.174320	0.346837
C16	C	0.444631	-0.170428	0.000195
C17	C	0.548954	-0.173196	0.000176
C18	C	0.632102	-0.175412	0.000160
C19	C	0.736431	-0.178180	0.000144
C20	C	1.259079	-0.165524	0.000197
C21	C	1.361475	-0.168231	0.000205
C22	C	1.085262	-0.403901	0.000165
C23	C	1.087973	-0.543318	0.000161
C24	C	1.175721	0.274972	0.000190
C25	C	1.173168	0.405968	0.000179
C26	C	1.005326	0.376391	0.000138
C27	C	1.007880	0.245397	0.000138
C28	C	1.260921	0.224266	0.000223
C29	C	1.343569	0.304548	0.000242
C30	C	1.341016	0.435544	0.000232
C31	C	1.255815	0.486259	0.000201
N32	N	1.090530	-0.174297	-0.346492
C33	C	1.152698	-0.089113	0.423502
C34	C	1.152695	-0.089098	0.576839
C35	C	1.028356	-0.259507	0.576833
C36	C	1.028355	-0.259515	0.423499
C37	C	1.214874	-0.003918	0.346840
C38	C	1.277047	0.081295	0.423505
C39	C	1.277044	0.081310	0.576842
C40	C	1.214869	-0.003888	0.653514
H41	H	1.263009	0.117604	0.000236
H42	H	1.412936	0.263247	0.000231
O43	O	1.337345	0.164248	0.349127
C44	C	1.390018	0.382469	0.302355
C45	C	1.321663	0.288647	0.386629
H46	H	1.377375	0.483066	0.332668
H47	H	1.379361	0.367966	0.179568
H48	H	1.463975	0.365822	0.332518
H49	H	1.247678	0.305237	0.356589
H50	H	1.332400	0.303173	0.509396
H51	H	1.408312	0.500907	0.000233
O52	O	0.967840	-0.342142	0.651244
C53	C	0.807957	-0.415284	0.698089
C54	C	0.876388	-0.321608	0.613755
H55	H	0.734004	-0.398733	0.667787
H56	H	0.818559	-0.400642	0.820867
H57	H	0.820658	-0.515901	0.667969
H58	H	0.863728	-0.220954	0.643752
H59	H	0.865770	-0.336360	0.490998
O60	O	0.922489	0.425444	0.000054
C61	C	0.756282	0.382288	0.000111
C62	C	0.850032	0.326571	0.000166
H63	H	0.697676	0.302376	0.000232
H64	H	0.750830	0.442833	-0.101859
H65	H	0.750940	0.442919	0.102033
H66	H	0.855437	0.265883	-0.101687
H67	H	0.855443	0.266099	0.102203
H68	H	1.253743	0.592926	0.000177
H69	H	0.940586	0.180030	0.000126
O70	O	0.968063	-0.342460	0.349080
C71	C	0.915372	-0.560663	0.302217
C72	C	0.983723	-0.466872	0.386562
H73	H	0.927996	-0.661270	0.332513
H74	H	0.926052	-0.546136	0.179441
H75	H	0.841413	-0.544004	0.332332
H76	H	1.057709	-0.483474	0.356570
H77	H	0.972962	-0.481421	0.509318
H78	H	1.214884	-0.003925	0.221986
H79	H	1.327661	0.150701	0.639261
H80	H	1.214866	-0.003860	0.778371
