data_functionalizedCrystal
_audit_creation_method	'MofGen! by Chris Wilmer'
_symmetry_space_group_name_H-M	'P1'
_symmetry_Int_Tables_number	1
_symmetry_cell_setting	triclinic
loop_
_symmetry_equiv_pos_as_xyz
  x,y,z
_cell_length_a	10.908878
_cell_length_b	16.109301
_cell_length_c	14.586319
_cell_angle_alpha	89.994786
_cell_angle_beta	89.996700
_cell_angle_gamma	71.773136
loop_
_atom_site_label
_atom_site_type_symbol
_atom_site_fract_x
_atom_site_fract_y
_atom_site_fract_z
O1	O	1.703906	-0.128420	-0.076218
O2	O	1.330015	-0.063492	-0.076226
O3	O	1.527232	-0.218405	-0.076213
O4	O	1.506690	0.026493	-0.076232
O5	O	1.527218	-0.218405	0.076268
O6	O	1.330001	-0.063492	0.076255
O7	O	1.703893	-0.128420	0.076262
Cu8	Cu	1.516946	-0.095956	0.090181
Cu9	Cu	1.516962	-0.095956	-0.090145
O10	O	1.506676	0.026493	0.076249
C11	C	1.526393	-0.249265	0.000028
C12	C	1.523898	-0.341216	0.000029
C13	C	1.282164	-0.057424	0.000014
C14	C	1.139604	-0.039353	0.000011
C15	C	1.635122	-0.578847	0.000017
C16	C	1.632768	-0.665242	0.000010
C17	C	1.398777	-0.613057	0.000008
C18	C	1.401132	-0.526664	0.000009
C19	C	1.519309	-0.509562	0.000019
C20	C	1.514599	-0.682351	0.000010
C21	C	1.512046	-0.776024	0.000002
C22	C	1.521863	-0.415882	0.000025
C23	C	1.090623	-0.105289	0.000016
C24	C	0.943280	-0.086614	0.000013
C25	C	1.751744	-0.134488	0.000021
C26	C	1.894304	-0.152559	0.000018
C27	C	1.507515	0.057353	0.000006
C28	C	1.510010	0.149304	-0.000001
N29	N	1.516944	-0.095958	0.217013
N30	N	1.516974	-0.095962	-0.216977
C31	C	1.604300	-0.164539	0.452025
C32	C	1.604304	-0.164541	0.548007
C33	C	1.429608	-0.027378	0.548004
C34	C	1.429600	-0.027379	0.452025
C35	C	1.516953	-0.095960	0.404038
C36	C	1.516965	-0.095961	0.595999
C37	C	1.516969	-0.095963	0.700066
C38	C	1.516948	-0.095958	0.299964
H39	H	1.731349	-0.564927	0.000023
H40	H	1.358465	0.028468	0.412951
H41	H	1.675427	-0.220382	0.412957
H42	H	1.157771	-0.175565	0.000017
C43	C	1.048905	0.055585	0.000003
H44	H	0.961772	0.055682	0.000009
H45	H	1.064494	0.084823	-0.053170
H46	H	1.064483	0.084818	0.053183
C47	C	1.760163	-0.741453	0.000014
H48	H	1.830876	-0.718890	0.000026
H49	H	1.764117	-0.776237	-0.053160
H50	H	1.764100	-0.776243	0.053194
C51	C	1.268794	-0.631874	0.000011
H52	H	1.283976	-0.693250	0.000021
H53	H	1.221105	-0.606991	-0.053160
H54	H	1.221115	-0.606998	0.053194
C55	C	1.700391	-0.239976	0.600789
H56	H	1.752416	-0.280814	0.558461
H57	H	1.654222	-0.268221	0.638239
H58	H	1.753838	-0.217431	0.638222
H59	H	0.961446	-0.222840	0.000017
H60	H	0.876136	-0.016333	0.000003
H61	H	1.306817	-0.470246	0.000008
C62	C	1.333540	0.048061	0.600793
H63	H	1.346063	0.038246	0.664828
H64	H	1.247838	0.050854	0.585074
H65	H	1.347473	0.101629	0.585051
