data_functionalizedCrystal
_audit_creation_method	'MofGen! by Chris Wilmer'
_symmetry_space_group_name_H-M	'P1'
_symmetry_Int_Tables_number	1
_symmetry_cell_setting	triclinic
loop_
_symmetry_equiv_pos_as_xyz
  x,y,z
_cell_length_a	14.519709
_cell_length_b	14.519731
_cell_length_c	9.730217
_cell_angle_alpha	90.006091
_cell_angle_beta	89.998108
_cell_angle_gamma	83.684499
loop_
_atom_site_label
_atom_site_type_symbol
_atom_site_fract_x
_atom_site_fract_y
_atom_site_fract_z
O1	O	1.223876	0.120891	0.114114
O2	O	0.955400	0.135127	0.114157
O3	O	1.096746	-0.006228	0.114122
O4	O	1.082530	0.262246	0.114149
O5	O	1.096736	-0.006234	-0.114458
O6	O	0.955390	0.135121	-0.114424
O7	O	1.223866	0.120885	-0.114466
Zn8	Zn	1.089626	0.128002	-0.150737
Zn9	Zn	1.089639	0.128010	0.150427
O10	O	1.082520	0.262240	-0.114431
C11	C	0.921035	0.134461	-0.000128
C12	C	0.818654	0.132473	-0.000112
C13	C	0.443757	0.125153	-0.000176
C14	C	0.548065	0.127186	-0.000158
C15	C	0.631202	0.128813	-0.000143
C16	C	0.735517	0.130846	-0.000127
C17	C	1.096075	-0.040591	-0.000169
C18	C	1.094079	-0.142971	-0.000169
C19	C	1.092457	-0.226115	-0.000166
C20	C	1.090430	-0.330424	-0.000155
C21	C	1.088822	-0.413563	-0.000146
C22	C	1.086795	-0.517878	-0.000137
C23	C	1.258230	0.121551	-0.000178
C24	C	1.360612	0.123539	-0.000185
C25	C	1.083191	0.296603	-0.000138
C26	C	1.085187	0.398983	-0.000128
N27	N	1.089624	0.127997	-0.356273
C28	C	0.977584	0.015869	-0.356323
C29	C	0.921573	-0.040197	-0.428287
C30	C	0.921587	-0.040197	-0.572167
C31	C	0.977615	0.015877	-0.644086
C32	C	1.033625	0.071942	-0.572121
C33	C	1.033607	0.071934	-0.428238
C34	C	1.145659	0.184074	-0.572072
C35	C	1.145652	0.184071	-0.428192
C36	C	1.201687	0.240148	-0.643990
C37	C	1.257703	0.296210	-0.572025
C38	C	1.257688	0.296207	-0.428137
C39	C	1.201662	0.240136	-0.356227
N40	N	1.089649	0.128008	0.355964
H41	H	0.977574	0.015857	-0.239168
F42	F	1.201644	0.240125	-0.203097
F43	F	0.861944	-0.099868	-0.351738
F44	F	0.861971	-0.099864	-0.648759
F45	F	1.317318	0.355888	-0.648573
F46	F	1.317300	0.355885	-0.351558
F47	F	0.977614	0.015886	-0.797216
F48	F	1.201694	0.240153	-0.797120
