data_functionalizedCrystal
_audit_creation_method	'MofGen! by Chris Wilmer'
_symmetry_space_group_name_H-M	'P1'
_symmetry_Int_Tables_number	1
_symmetry_cell_setting	triclinic
loop_
_symmetry_equiv_pos_as_xyz
  x,y,z
_cell_length_a	14.519709
_cell_length_b	15.500361
_cell_length_c	14.519709
_cell_angle_alpha	87.156605
_cell_angle_beta	96.319855
_cell_angle_gamma	87.160830
loop_
_atom_site_label
_atom_site_type_symbol
_atom_site_fract_x
_atom_site_fract_y
_atom_site_fract_z
O1	O	1.219601	0.071833	-0.125157
O2	O	0.951123	0.071859	-0.139395
O3	O	1.092481	0.071838	0.001963
O4	O	1.078243	0.071855	-0.266515
O5	O	1.101014	-0.072049	0.010512
O6	O	0.959656	-0.072028	-0.130846
O7	O	1.228135	-0.072054	-0.116608
Cu8	Cu	1.094675	-0.085179	-0.122946
Cu9	Cu	1.084583	0.084984	-0.133057
O10	O	1.086777	-0.072032	-0.257966
C11	C	0.921029	-0.000081	-0.134457
C12	C	0.818648	-0.000071	-0.132470
N13	N	1.101780	-0.204863	-0.115834
C14	C	0.443754	-0.000111	-0.125148
C15	C	0.548061	-0.000099	-0.127181
C16	C	0.631198	-0.000090	-0.128809
C17	C	0.735512	-0.000080	-0.130842
C18	C	1.041871	-0.250151	-0.175709
C19	C	1.047270	-0.340723	-0.170327
C20	C	1.112576	-0.386004	-0.105064
C21	C	1.172491	-0.340709	-0.045186
C22	C	1.167095	-0.250139	-0.050574
C23	C	1.132004	-0.659467	-0.085671
C24	C	1.137394	-0.750044	-0.080287
C25	C	1.012174	-0.750051	-0.205429
C26	C	1.006780	-0.659479	-0.210807
C27	C	1.066699	-0.614192	-0.150932
C28	C	1.118095	-0.478583	-0.099559
C29	C	1.061183	-0.521615	-0.156442
C30	C	1.258228	-0.000112	-0.121546
C31	C	1.360609	-0.000116	-0.123534
C32	C	1.096084	-0.000106	0.040597
C33	C	1.094096	-0.000106	0.142979
N34	N	1.077485	0.204668	-0.140162
C35	C	1.083173	-0.000087	-0.296600
C36	C	1.085161	-0.000081	-0.398982
C37	C	1.086775	-0.000083	0.517873
C38	C	1.088808	-0.000090	0.413565
C39	C	1.090435	-0.000096	0.330429
C40	C	1.092469	-0.000101	0.226115
H41	H	0.988688	-0.213289	-0.228849
H42	H	1.225669	-0.377583	0.007949
H43	H	1.171266	-0.515459	-0.046419
O44	O	0.989202	-0.384758	-0.228574
C45	C	0.975858	-0.487054	-0.348358
C46	C	1.041726	-0.437222	-0.282455
H47	H	1.018298	-0.529498	-0.391924
H48	H	0.928264	-0.439176	-0.395990
H49	H	0.932241	-0.529428	-0.305892
H50	H	1.085403	-0.394848	-0.324846
H51	H	1.089258	-0.485148	-0.234821
H52	H	1.215881	-0.213266	-0.001818
H53	H	0.953603	-0.622613	-0.263949
H54	H	1.008015	-0.484744	-0.209583
H55	H	1.190576	-0.786908	-0.027138
O56	O	0.953847	-0.794006	-0.263501
C57	C	0.795234	-0.821696	-0.315572
C58	C	0.861184	-0.771879	-0.249737
H59	H	0.720302	-0.803811	-0.304481
H60	H	0.810226	-0.894217	-0.300513
H61	H	0.806356	-0.803895	-0.390517
H62	H	0.850100	-0.789608	-0.174770
H63	H	0.846176	-0.699370	-0.264877
H64	H	1.180791	-0.622602	-0.036917
