data_functionalizedCrystal
_audit_creation_method	'MofGen! by Chris Wilmer'
_symmetry_space_group_name_H-M	'P1'
_symmetry_Int_Tables_number	1
_symmetry_cell_setting	triclinic
loop_
_symmetry_equiv_pos_as_xyz
  x,y,z
_cell_length_a	16.992695
_cell_length_b	16.109301
_cell_length_c	14.586319
_cell_angle_alpha	90.005214
_cell_angle_beta	89.998424
_cell_angle_gamma	92.935148
loop_
_atom_site_label
_atom_site_type_symbol
_atom_site_fract_x
_atom_site_fract_y
_atom_site_fract_z
O1	O	1.040345	-0.176288	-0.076209
O2	O	1.373679	0.157045	0.257124
O3	O	1.707012	0.490379	0.590458
O4	O	0.812060	-0.174354	-0.076219
O5	O	1.145394	0.158979	0.257115
O6	O	1.478727	0.492313	0.590448
O7	O	0.932474	-0.054709	-0.076204
O8	O	1.265807	0.278625	0.257129
O9	O	1.599141	0.611958	0.590463
O10	O	0.919932	-0.295934	-0.076223
O11	O	1.253265	0.037400	0.257110
O12	O	1.586598	0.370733	0.590443
O13	O	0.932466	-0.054706	0.076277
O14	O	1.265799	0.278627	0.409610
O15	O	1.599132	0.611961	0.742943
O16	O	0.812052	-0.174352	0.076262
O17	O	1.145385	0.158982	0.409595
O18	O	1.478719	0.492315	0.742929
O19	O	1.040337	-0.176286	0.076272
O20	O	1.373670	0.157048	0.409605
O21	O	1.707004	0.490381	0.742939
Cu22	Cu	0.926194	-0.175318	0.090190
Cu23	Cu	1.259527	0.158015	0.423523
Cu24	Cu	1.592860	0.491348	0.756856
Cu25	Cu	0.926204	-0.175321	-0.090136
Cu26	Cu	1.259537	0.158012	0.243197
Cu27	Cu	1.592870	0.491345	0.576530
O28	O	0.919923	-0.295931	0.076257
O29	O	1.253257	0.037402	0.409591
O30	O	1.586590	0.370736	0.742924
C31	C	0.782844	-0.171865	0.000021
C32	C	1.116178	0.161469	0.333354
C33	C	1.449511	0.494802	0.666687
C34	C	0.695802	-0.164441	0.000017
C35	C	1.029135	0.168892	0.333351
C36	C	1.362469	0.502225	0.666684
C37	C	0.931962	-0.023699	0.000037
C38	C	1.265295	0.309635	0.333370
C39	C	1.598628	0.642968	0.666703
C40	C	0.930439	0.068698	0.000038
C41	C	1.263772	0.402032	0.333371
C42	C	1.597105	0.735365	0.666705
C43	C	1.069553	-0.178775	0.000031
C44	C	1.402886	0.154558	0.333364
C45	C	1.736220	0.487892	0.666697
C46	C	1.156595	-0.186198	0.000028
C47	C	1.489929	0.147135	0.333361
C48	C	1.823262	0.480468	0.666695
C49	C	1.206854	-0.114572	0.000031
C50	C	1.540187	0.218761	0.333364
C51	C	1.873521	0.552094	0.666697
C52	C	1.288639	-0.121552	0.000033
C53	C	1.621972	0.211781	0.333367
C54	C	1.955305	0.545114	0.666700
C55	C	1.320163	-0.200159	0.000027
C56	C	1.653497	0.133174	0.333360
C57	C	1.986830	0.466507	0.666694
C58	C	1.269898	-0.271791	0.000027
C59	C	1.603231	0.061543	0.333360
C60	C	1.936565	0.394876	0.666694
C61	C	1.188115	-0.264810	0.000031
C62	C	1.521448	0.068524	0.333364
C63	C	1.854781	0.401857	0.666698
C64	C	1.563754	-0.229092	0.000021
C65	C	1.897087	0.104241	0.333354
C66	C	2.230420	0.437575	0.666688
C67	C	1.645543	-0.236067	0.000015
C68	C	1.978877	0.097266	0.333348
C69	C	2.312210	0.430599	0.666681
C70	C	1.664278	-0.085828	0.000023
C71	C	1.997612	0.247505	0.333356
C72	C	2.330945	0.580838	0.666689
C73	C	1.582493	-0.078854	0.000021
C74	C	1.915826	0.254479	0.333354
C75	C	2.249159	0.587812	0.666688
C76	C	1.532235	-0.150486	0.000026
C77	C	1.865568	0.182847	0.333359
C78	C	2.198901	0.516181	0.666693
N79	N	1.403760	-0.207296	0.000027
N80	N	1.737094	0.126038	0.333360
N81	N	2.070427	0.459371	0.666694
N82	N	1.448639	-0.143349	0.000032
N83	N	1.781973	0.189985	0.333366
N84	N	2.115306	0.523318	0.666699
C85	C	0.920435	-0.326941	0.000015
C86	C	1.253769	0.006392	0.333348
C87	C	1.587102	0.339726	0.666681
C88	C	0.921959	-0.419338	0.000007
C89	C	1.255292	-0.086005	0.333341
C90	C	1.588625	0.247329	0.666674
N91	N	0.926192	-0.175316	0.217021
N92	N	1.259526	0.158017	0.550355
N93	N	1.592859	0.491350	0.883688
C94	C	0.998348	0.286439	0.000026
C95	C	1.331681	0.619773	0.333360
C96	C	1.665015	0.953106	0.666693
C97	C	0.996911	0.373256	0.000019
C98	C	1.330244	0.706589	0.333352
C99	C	1.663577	1.039922	0.666685
C100	C	0.854044	0.362915	0.000016
C101	C	1.187377	0.696248	0.333350
C102	C	1.520711	1.029581	0.666683
C103	C	0.855482	0.276100	0.000017
C104	C	1.188815	0.609433	0.333351
C105	C	1.522149	0.942767	0.666684
C106	C	0.927636	0.237865	0.000027
C107	C	1.260970	0.571198	0.333360
C108	C	1.594303	0.904531	0.666694
C109	C	0.924761	0.411496	0.000018
C110	C	1.258094	0.744829	0.333352
C111	C	1.591428	1.078162	0.666685
C112	C	0.923202	0.505626	0.000010
C113	C	1.256535	0.838959	0.333343
C114	C	1.589869	1.172292	0.666677
C115	C	0.929196	0.143729	0.000033
C116	C	1.262529	0.477062	0.333367
C117	C	1.595862	0.810395	0.666700
N118	N	0.926211	-0.175317	-0.216968
N119	N	1.259544	0.158016	0.116365
N120	N	1.592878	0.491349	0.449698
C121	C	0.979529	-0.122357	0.452034
C122	C	1.312863	0.210976	0.785368
C123	C	1.646196	0.544309	1.118701
C124	C	0.979531	-0.122355	0.548016
C125	C	1.312865	0.210978	0.881349
C126	C	1.646198	0.544311	1.214682
C127	C	0.872869	-0.228278	0.548012
C128	C	1.206202	0.105055	0.881346
C129	C	1.539535	0.438388	1.214679
C130	C	0.872863	-0.228276	0.452033
C131	C	1.206197	0.105058	0.785366
C132	C	1.539530	0.438391	1.118699
C133	C	0.926198	-0.175316	0.404046
C134	C	1.259531	0.158017	0.737380
C135	C	1.592865	0.491350	1.070713
C136	C	0.926206	-0.175317	0.596007
C137	C	1.259539	0.158016	0.929340
C138	C	1.592872	0.491349	1.262674
C139	C	0.926208	-0.175316	0.700074
C140	C	1.259541	0.158018	1.033407
C141	C	1.592874	0.491351	1.366741
C142	C	0.926195	-0.175316	0.299972
C143	C	1.259528	0.158017	0.633306
C144	C	1.592862	0.491350	0.966639
H145	H	1.181194	-0.050562	0.000030
H146	H	1.514527	0.282771	0.333363
H147	H	1.847860	0.616104	0.666697
N148	N	1.342854	-0.044304	0.000025
N149	N	1.676187	0.289030	0.333358
N150	N	2.009520	0.622363	0.666692
H151	H	1.377202	-0.043847	0.056549
H152	H	1.710536	0.289486	0.389883
H153	H	2.043869	0.622820	0.723216
H154	H	1.310424	0.006513	-0.000012
H155	H	1.643757	0.339846	0.333321
H156	H	1.977091	0.673180	0.666654
N157	N	1.076169	0.245200	0.000036
N158	N	1.409502	0.578534	0.333369
N159	N	1.742835	0.911867	0.666702
H160	H	1.107149	0.262561	-0.056490
H161	H	1.440482	0.595895	0.276843
H162	H	1.773816	0.929228	0.610177
H163	H	1.066286	0.182843	0.000075
H164	H	1.399619	0.516176	0.333408
H165	H	1.732953	0.849510	0.666741
H166	H	1.054491	0.412802	0.000016
H167	H	1.387824	0.746135	0.333350
H168	H	1.721158	1.079468	0.666683
H169	H	0.795298	0.394057	0.000010
H170	H	1.128632	0.727390	0.333343
H171	H	1.461965	1.060723	0.666677
H172	H	0.797897	0.236549	0.000015
H173	H	1.131230	0.569882	0.333348
H174	H	1.464563	0.903215	0.666682
H175	H	1.295572	-0.335794	0.000027
H176	H	1.628905	-0.002461	0.333361
H177	H	1.962238	0.330873	0.666694
H178	H	1.671207	-0.300082	0.000023
H179	H	2.004540	0.033252	0.333356
H180	H	2.337873	0.366585	0.666689
H181	H	1.022957	-0.079233	0.412966
H182	H	1.356290	0.254100	0.746299
H183	H	1.689623	0.587433	1.079633
H184	H	1.022958	-0.079231	0.587085
H185	H	1.356291	0.254103	0.920418
H186	H	1.689624	0.587436	1.253752
H187	H	0.829446	-0.271398	0.587092
H188	H	1.162779	0.061935	0.920426
H189	H	1.496112	0.395269	1.253759
N190	N	0.815331	-0.285396	0.400274
N191	N	1.148665	0.047937	0.733607
N192	N	1.481998	0.381271	1.066941
H193	H	0.824343	-0.345011	0.416963
H194	H	1.157676	-0.011678	0.750297
H195	H	1.491009	0.321656	1.083630
H196	H	0.823445	-0.277285	0.332206
H197	H	1.156778	0.056048	0.665540
H198	H	1.490112	0.389381	0.998873
N199	N	1.548493	0.005929	0.000031
N200	N	1.881826	0.339262	0.333364
N201	N	2.215159	0.672595	0.666697
H202	H	1.592742	0.050246	0.000035
H203	H	1.926076	0.383579	0.333368
H204	H	2.259409	0.716912	0.666702
H205	H	1.514969	0.012095	0.056560
H206	H	1.848303	0.345428	0.389893
H207	H	2.181636	0.678761	0.723227
N208	N	1.133913	-0.342070	0.000043
N209	N	1.467246	-0.008737	0.333376
N210	N	1.800580	0.324596	0.666710
H211	H	1.144045	-0.376134	-0.056481
H212	H	1.477379	-0.042800	0.276853
H213	H	1.810712	0.290533	0.610186
H214	H	1.077341	-0.325662	0.000089
H215	H	1.410674	0.007671	0.333422
H216	H	1.744007	0.341004	0.666755
N217	N	1.718480	-0.008570	0.000027
N218	N	2.051813	0.324763	0.333361
N219	N	2.385147	0.658097	0.666694
H220	H	1.752832	-0.008113	-0.056497
H221	H	2.086165	0.325220	0.276837
H222	H	2.419498	0.658553	0.610170
H223	H	1.752777	-0.008162	0.056590
H224	H	2.086110	0.325172	0.389923
H225	H	2.419444	0.658505	0.723257
N226	N	1.509553	-0.306348	0.000130
N227	N	1.842886	0.026985	0.333463
N228	N	2.176220	0.360319	0.666797
H229	H	1.541936	-0.357202	0.000156
H230	H	1.875270	-0.023868	0.333490
H231	H	2.208603	0.309465	0.666823
H232	H	1.475165	-0.306791	-0.056359
H233	H	1.808499	0.026542	0.276975
H234	H	2.141832	0.359876	0.610308
