data_functionalizedCrystal
_audit_creation_method	'MofGen! by Chris Wilmer'
_symmetry_space_group_name_H-M	'P1'
_symmetry_Int_Tables_number	1
_symmetry_cell_setting	triclinic
loop_
_symmetry_equiv_pos_as_xyz
  x,y,z
_cell_length_a	12.759395
_cell_length_b	16.625545
_cell_length_c	12.759387
_cell_angle_alpha	90.033270
_cell_angle_beta	90.020509
_cell_angle_gamma	90.027095
loop_
_atom_site_label
_atom_site_type_symbol
_atom_site_fract_x
_atom_site_fract_y
_atom_site_fract_z
Zn1	Zn	1.606189	-0.320926	0.593987
Zn2	Zn	1.606047	-0.455781	0.418300
Zn3	Zn	1.430488	-0.320970	0.418324
Zn4	Zn	1.430447	-0.455724	0.593939
O5	O	1.518293	-0.388350	0.506137
O6	O	1.753192	-0.338821	0.570692
O7	O	1.582716	-0.437941	0.271282
O8	O	1.453872	-0.208132	0.441656
O9	O	1.753087	-0.437898	0.441615
O10	O	1.582959	-0.208099	0.570715
O11	O	1.453733	-0.338895	0.271300
O12	O	1.283461	-0.338840	0.441610
O13	O	1.453802	-0.437800	0.740967
O14	O	1.283431	-0.437843	0.570633
O15	O	1.582919	-0.338765	0.741002
O16	O	1.582676	-0.568606	0.441569
O17	O	1.453664	-0.568564	0.570610
C18	C	1.245325	-0.388341	0.506119
C19	C	1.128548	-0.388356	0.506137
C20	C	1.518178	-0.597841	0.506104
C21	C	1.518226	-0.687462	0.506125
C22	C	1.128556	-0.491615	0.640272
C23	C	1.073698	-0.543250	0.707342
C24	C	0.963977	-0.543260	0.707355
C25	C	0.909110	-0.491627	0.640292
C26	C	0.963967	-0.439991	0.573222
C27	C	1.073691	-0.439989	0.573214
C28	C	0.963960	-0.336730	0.439094
C29	C	1.073681	-0.336723	0.439074
C30	C	0.909093	-0.285096	0.372031
C31	C	0.963950	-0.233463	0.304954
C32	C	1.073678	-0.233456	0.304943
C33	C	1.128539	-0.285087	0.372003
C34	C	1.518267	-0.760245	0.506146
C35	C	1.518328	-0.851553	0.506169
C36	C	1.518382	-0.924330	0.506183
C37	C	1.518442	-1.015644	0.506204
C38	C	1.792326	-0.388361	0.506156
C39	C	1.909103	-0.388365	0.506164
C40	C	1.518372	-0.388271	0.780171
C41	C	1.518406	-0.388238	0.896948
C42	C	1.518436	-0.178041	0.506194
C43	C	1.518497	-0.088420	0.506218
C44	C	1.518274	-0.388371	0.233170
C45	C	1.518444	-0.388177	0.116394
C46	C	1.652865	-0.285119	0.897004
C47	C	1.720109	-0.233547	0.951893
C48	C	1.720135	-0.233518	1.061615
C49	C	1.652907	-0.285064	1.116450
C50	C	1.585662	-0.336635	1.061561
C51	C	1.585646	-0.336661	0.951837
C52	C	1.451200	-0.439749	1.061505
C53	C	1.451178	-0.439784	0.951783
C54	C	1.383971	-0.491295	1.116340
C55	C	1.316731	-0.542872	1.061451
C56	C	1.316709	-0.542900	0.951722
C57	C	1.383934	-0.491355	0.896894
H58	H	1.217897	-0.491618	0.640260
H59	H	1.774884	-0.191519	1.106306
H60	H	1.118337	-0.191402	0.250333
H61	H	0.819752	-0.285105	0.372051
H62	H	1.261994	-0.584832	1.106106
H63	H	1.652925	-0.285028	1.205791
H64	H	1.217880	-0.285088	0.371998
H65	H	1.652861	-0.285145	0.807663
O66	O	1.785384	-0.183558	0.898464
C67	C	1.770932	-0.194627	0.789850
H68	H	1.736463	-0.256850	0.774839
H69	H	1.715024	-0.146799	0.758716
C70	C	1.919569	-0.110851	0.751978
C71	C	1.877241	-0.187277	0.733541
H72	H	1.985144	-0.106314	0.717242
H73	H	1.929304	-0.103391	0.825153
H74	H	1.872969	-0.071003	0.726032
H75	H	1.923835	-0.227124	0.759498
H76	H	1.867517	-0.194744	0.660368
H77	H	1.383993	-0.491264	1.205681
H78	H	1.261939	-0.584887	0.907038
O79	O	0.910608	-0.183428	0.239704
C80	C	0.847058	-0.229271	0.171768
H81	H	0.880086	-0.292768	0.165122
H82	H	0.763918	-0.232083	0.204262
C83	C	0.804768	-0.111788	0.070805
C84	C	0.845338	-0.189774	0.062635
H85	H	0.803702	-0.087423	0.003488
H86	H	0.847579	-0.080901	0.116577
H87	H	0.735488	-0.114142	0.097888
H88	H	0.914621	-0.187419	0.035566
H89	H	0.802538	-0.220660	0.016857
H90	H	1.118383	-0.585288	0.761945
H91	H	1.383927	-0.491376	0.807553
H92	H	0.819769	-0.491633	0.640318
O93	O	0.910846	-0.593489	0.772545
C94	C	0.982793	-0.639040	0.831760
H95	H	1.060987	-0.641794	0.788715
H96	H	0.994515	-0.609583	0.911618
C97	C	0.843884	-0.721485	0.899580
C98	C	0.939921	-0.724874	0.846707
H99	H	0.817438	-0.774430	0.908805
H100	H	0.795411	-0.690795	0.859689
H101	H	0.853665	-0.696934	0.966123
H102	H	0.930137	-0.749415	0.780161
H103	H	0.988392	-0.755570	0.886587
