data_functionalizedCrystal
_audit_creation_method	'MofGen! by Chris Wilmer'
_symmetry_space_group_name_H-M	'P1'
_symmetry_Int_Tables_number	1
_symmetry_cell_setting	triclinic
loop_
_symmetry_equiv_pos_as_xyz
  x,y,z
_cell_length_a	16.625548
_cell_length_b	18.050589
_cell_length_c	16.625539
_cell_angle_alpha	90.024824
_cell_angle_beta	90.020568
_cell_angle_gamma	90.029289
loop_
_atom_site_label
_atom_site_type_symbol
_atom_site_fract_x
_atom_site_fract_y
_atom_site_fract_z
Zn1	Zn	1.232648	-0.295637	0.455929
Zn2	Zn	1.232538	-0.419835	0.321104
Zn3	Zn	1.097810	-0.295665	0.321109
Zn4	Zn	1.097767	-0.419792	0.455894
O5	O	1.165191	-0.357732	0.388509
O6	O	1.345466	-0.312118	0.438056
O7	O	1.214638	-0.403393	0.208272
O8	O	1.115761	-0.191737	0.339010
O9	O	1.345385	-0.403366	0.339001
O10	O	1.214826	-0.191716	0.438061
O11	O	1.115654	-0.312166	0.208276
O12	O	0.984972	-0.312125	0.338976
O13	O	1.115687	-0.403293	0.568731
O14	O	0.984940	-0.403320	0.438002
O15	O	1.214784	-0.312077	0.568757
O16	O	1.214596	-0.523754	0.338968
O17	O	1.115580	-0.523722	0.437997
C18	C	0.955700	-0.357722	0.388487
C19	C	0.866079	-0.357735	0.388496
C20	C	0.537903	-0.357740	0.388531
C21	C	0.629212	-0.357736	0.388518
C22	C	0.701988	-0.357738	0.388513
C23	C	0.793302	-0.357734	0.388502
C24	C	1.165093	-0.550684	0.388496
C25	C	1.165126	-0.633230	0.388517
C26	C	1.111334	-0.832691	0.442350
C27	C	1.091677	-0.882133	0.368775
C28	C	1.165205	-0.784360	0.388528
C29	C	1.184901	-0.882000	0.462112
C30	C	1.165280	-0.930346	0.388544
C31	C	1.145510	-0.832715	0.314913
C32	C	1.238767	-0.832578	0.408300
C33	C	1.219139	-0.881998	0.334673
C34	C	1.165160	-0.700262	0.388519
C35	C	1.165325	-1.014442	0.388544
C36	C	1.375500	-0.357743	0.388532
C37	C	1.465121	-0.357748	0.388542
C38	C	1.165243	-0.357677	0.598818
C39	C	1.165266	-0.357653	0.688439
C40	C	1.165310	-0.164027	0.388540
C41	C	1.165361	-0.081481	0.388553
C42	C	1.165185	-0.357734	0.179018
C43	C	1.165319	-0.357548	0.089398
C44	C	1.165303	-0.357570	1.016615
C45	C	1.165290	-0.357596	0.925307
C46	C	1.165285	-0.357612	0.852530
C47	C	1.165271	-0.357637	0.761216
H48	H	1.065710	-0.811040	0.487802
H49	H	1.300928	-0.810797	0.425043
H50	H	1.029503	-0.903916	0.352066
C51	C	1.357432	-0.884927	0.293222
C52	C	1.280682	-0.911051	0.273172
H53	H	1.395421	-0.902863	0.255249
H54	H	1.371513	-0.901895	0.345429
H55	H	1.357416	-0.832304	0.292571
H56	H	1.280697	-0.963675	0.273829
H57	H	1.266597	-0.894088	0.220951
C58	C	1.053179	-0.760503	0.236320
C59	C	1.122957	-0.803620	0.230890
H60	H	1.039252	-0.742545	0.184448
H61	H	1.062554	-0.719859	0.271402
H62	H	1.010403	-0.789869	0.256780
H63	H	1.165734	-0.774253	0.210434
H64	H	1.113586	-0.844270	0.195795
C65	C	1.150819	-0.886329	0.602356
C66	C	1.207357	-0.911224	0.546108
H67	H	1.164682	-0.904366	0.654212
H68	H	1.098965	-0.904029	0.587948
H69	H	1.150476	-0.833707	0.603061
H70	H	1.207695	-0.963846	0.545399
H71	H	1.259224	-0.893528	0.560520
