data_functionalizedCrystal
_audit_creation_method	'MofGen! by Chris Wilmer'
_symmetry_space_group_name_H-M	'P1'
_symmetry_Int_Tables_number	1
_symmetry_cell_setting	triclinic
loop_
_symmetry_equiv_pos_as_xyz
  x,y,z
_cell_length_a	21.295418
_cell_length_b	21.295417
_cell_length_c	16.120297
_cell_angle_alpha	92.867002
_cell_angle_beta	92.858291
_cell_angle_gamma	90.046319
loop_
_atom_site_label
_atom_site_type_symbol
_atom_site_fract_x
_atom_site_fract_y
_atom_site_fract_z
Zn1	Zn	0.944261	-0.268427	-0.471775
Zn2	Zn	1.277594	0.064906	-0.138441
Zn3	Zn	1.610928	0.398240	0.194892
Zn4	Zn	0.949511	-0.368356	-0.332355
Zn5	Zn	1.282844	-0.035023	0.000978
Zn6	Zn	1.616177	0.298311	0.334312
Zn7	Zn	0.844332	-0.263133	-0.332334
Zn8	Zn	1.177666	0.070200	0.000999
Zn9	Zn	1.510999	0.403534	0.334332
Zn10	Zn	0.838957	-0.373687	-0.471671
Zn11	Zn	1.172291	-0.040354	-0.138338
Zn12	Zn	1.505624	0.292979	0.194996
O13	O	0.894265	-0.318401	-0.402034
O14	O	1.227599	0.014932	-0.068700
O15	O	1.560932	0.348266	0.264633
O16	O	1.033045	-0.281667	-0.453332
O17	O	1.366378	0.051666	-0.119999
O18	O	1.699711	0.384999	0.213334
O19	O	0.940005	-0.349951	-0.215692
O20	O	1.273338	-0.016618	0.117641
O21	O	1.606672	0.316716	0.450975
O22	O	0.857640	-0.175747	-0.350866
O23	O	1.190974	0.157586	-0.017533
O24	O	1.524307	0.490920	0.315800
O25	O	1.036902	-0.355085	-0.350901
O26	O	1.370235	-0.021751	-0.017568
O27	O	1.703568	0.311582	0.315765
O28	O	0.931057	-0.179637	-0.453312
O29	O	1.264391	0.153697	-0.119979
O30	O	1.597724	0.487030	0.213354
O31	O	0.862731	-0.272644	-0.215677
O32	O	1.196064	0.060689	0.117656
O33	O	1.529398	0.394022	0.450990
O34	O	0.755532	-0.277814	-0.350766
O35	O	1.088865	0.055520	-0.017432
O36	O	1.422199	0.388853	0.315901
O37	O	0.848480	-0.364171	-0.588345
O38	O	1.181813	-0.030838	-0.255012
O39	O	1.515146	0.302495	0.078321
O40	O	0.751583	-0.359038	-0.453136
O41	O	1.084916	-0.025704	-0.119802
O42	O	1.418250	0.307629	0.213531
O43	O	0.925846	-0.286837	-0.588421
O44	O	1.259179	0.046496	-0.255088
O45	O	1.592512	0.379830	0.078245
O46	O	0.934793	-0.457151	-0.350801
O47	O	1.268127	-0.123818	-0.017468
O48	O	1.601460	0.209515	0.315866
O49	O	0.853570	-0.461068	-0.453156
O50	O	1.186904	-0.127735	-0.119823
O51	O	1.520237	0.205598	0.213511
C52	C	0.730717	-0.318430	-0.401938
C53	C	1.064051	0.014903	-0.068605
C54	C	1.397384	0.348236	0.264729
C55	C	0.660750	-0.318459	-0.401917
C56	C	0.994083	0.014875	-0.068583
C57	C	1.327417	0.348208	0.264750
C58	C	0.625847	-0.360802	-0.455141
C59	C	0.959180	-0.027469	-0.121808
C60	C	1.292513	0.305864	0.211526
C61	C	0.560103	-0.360788	-0.455178
C62	C	0.893436	-0.027455	-0.121845
C63	C	1.226769	0.305878	0.211488
C64	C	0.529265	-0.318437	-0.401977
C65	C	0.862599	0.014897	-0.068643
C66	C	1.195932	0.348230	0.264690
C67	C	0.564177	-0.276085	-0.348748
C68	C	0.897510	0.057248	-0.015415
C69	C	1.230843	0.390581	0.317918
C70	C	0.629919	-0.276096	-0.348718
C71	C	0.963252	0.057237	-0.015385
C72	C	1.296586	0.390570	0.317948
N73	N	0.428786	-0.310726	-0.329062
N74	N	0.762119	0.022608	0.004272
N75	N	1.095453	0.355941	0.337605
N76	N	0.366333	-0.310719	-0.329092
N77	N	0.699667	0.022614	0.004241
N78	N	1.033000	0.355948	0.337574
C79	C	0.331187	-0.318400	-0.402065
C80	C	0.664521	0.014933	-0.068732
C81	C	0.997854	0.348267	0.264602
N82	N	0.360853	-0.326100	-0.475007
N83	N	0.694186	0.007233	-0.141674
N84	N	1.027520	0.340567	0.191660
N85	N	0.423311	-0.326110	-0.474975
N86	N	0.756645	0.007223	-0.141642
N87	N	1.089978	0.340557	0.191691
C88	C	0.457979	-0.318420	-0.402004
C89	C	0.791312	0.014914	-0.068670
C90	C	1.124646	0.348247	0.264663
C91	C	0.224997	-0.360731	-0.455334
C92	C	0.558330	-0.027397	-0.122001
C93	C	0.891663	0.305936	0.211332
C94	C	0.159251	-0.360712	-0.455373
C95	C	0.492585	-0.027379	-0.122040
C96	C	0.825918	0.305955	0.211293
C97	C	0.163327	-0.276012	-0.348936
C98	C	0.496660	0.057321	-0.015603
C99	C	0.829994	0.390655	0.317731
C100	C	0.229071	-0.276027	-0.348905
C101	C	0.562404	0.057306	-0.015571
C102	C	0.895737	0.390639	0.317762
C103	C	0.259902	-0.318390	-0.402103
C104	C	0.593235	0.014943	-0.068769
C105	C	0.926568	0.348277	0.264564
C106	C	0.894185	-0.481951	-0.401988
C107	C	1.227518	-0.148617	-0.068654
C108	C	1.560851	0.184716	0.264679
C109	C	0.894207	-0.551919	-0.401996
C110	C	1.227540	-0.218586	-0.068662
C111	C	1.560873	0.114748	0.264671
C112	C	0.936533	-0.582727	-0.348754
C113	C	1.269866	-0.249394	-0.015421
C114	C	1.603200	0.083939	0.317912
C115	C	0.936562	-0.648471	-0.348773
C116	C	1.269895	-0.315137	-0.015440
C117	C	1.603229	0.018196	0.317894
C118	C	0.894253	-0.683403	-0.402025
C119	C	1.227587	-0.350069	-0.068691
C120	C	1.560920	-0.016736	0.264642
C121	C	0.851923	-0.652587	-0.455276
C122	C	1.185257	-0.319254	-0.121943
C123	C	1.518590	0.014080	0.211390
C124	C	0.851900	-0.586845	-0.455262
C125	C	1.185233	-0.253512	-0.121929
C126	C	1.518567	0.079822	0.211405
N127	N	0.838944	-0.786926	-0.408348
N128	N	1.172277	-0.453593	-0.075014
N129	N	1.505610	-0.120259	0.258319
N130	N	0.838968	-0.849378	-0.408356
N131	N	1.172301	-0.516044	-0.075023
N132	N	1.505634	-0.182711	0.258310
C133	C	0.894322	-0.881479	-0.402072
C134	C	1.227655	-0.548146	-0.068739
C135	C	1.560989	-0.214813	0.264594
N136	N	0.949653	-0.848769	-0.395763
N137	N	1.282986	-0.515436	-0.062430
N138	N	1.616319	-0.182102	0.270904
N139	N	0.949628	-0.786311	-0.395750
N140	N	1.282961	-0.452978	-0.062416
N141	N	1.616295	-0.119645	0.270917
C142	C	0.894274	-0.754689	-0.402046
C143	C	1.227607	-0.421356	-0.068713
C144	C	1.560941	-0.088022	0.264620
C145	C	0.936683	-0.983574	-0.348848
C146	C	1.270016	-0.650240	-0.015515
C147	C	1.603350	-0.316907	0.317818
C148	C	0.936713	-1.049318	-0.348873
C149	C	1.270046	-0.715985	-0.015540
C150	C	1.603379	-0.382652	0.317794
C151	C	0.852069	-1.053433	-0.455372
C152	C	1.185402	-0.720100	-0.122039
C153	C	1.518736	-0.386767	0.211295
C154	C	0.852045	-0.987690	-0.455352
C155	C	1.185378	-0.654357	-0.122018
C156	C	1.518711	-0.321023	0.211315
C157	C	0.894351	-0.952764	-0.402085
C158	C	1.227685	-0.619431	-0.068752
C159	C	1.561018	-0.286097	0.264581
C160	C	1.058452	-0.318372	-0.402131
C161	C	1.391785	0.014962	-0.068797
C162	C	1.725119	0.348295	0.264536
C163	C	1.128418	-0.318359	-0.402172
C164	C	1.461752	0.014974	-0.068839
C165	C	1.795085	0.348307	0.264495
C166	C	0.885978	-0.326689	-0.619478
C167	C	1.219311	0.006644	-0.286144
C168	C	1.552644	0.339977	0.047189
C169	C	0.882446	-0.330221	-0.712139
C170	C	1.215779	0.003112	-0.378806
C171	C	1.549112	0.336445	-0.045473
C172	C	0.894363	-0.154213	-0.402098
C173	C	1.227696	0.179120	-0.068765
C174	C	1.561030	0.512454	0.264568
C175	C	0.894404	-0.084246	-0.402126
C176	C	1.227738	0.249087	-0.068793
C177	C	1.561071	0.582421	0.264541
C178	C	0.875975	-0.336656	-0.881793
C179	C	1.209308	-0.003323	-0.548460
C180	C	1.542641	0.330011	-0.215127
C181	C	0.912680	-0.299957	-0.923126
C182	C	1.246014	0.033376	-0.589793
C183	C	1.579347	0.366710	-0.256460
C184	C	0.909080	-0.303537	-1.017528
C185	C	1.242413	0.029796	-0.684194
C186	C	1.575746	0.363129	-0.350861
C187	C	0.879574	-0.333077	-0.787383
C188	C	1.212908	0.000257	-0.454050
C189	C	1.546241	0.333590	-0.120717
C190	C	0.902557	-0.310099	-0.185436
C191	C	1.235890	0.023234	0.147897
C192	C	1.569224	0.356567	0.481231
C193	C	0.906211	-0.306390	-0.092775
C194	C	1.239544	0.026944	0.240559
C195	C	1.572878	0.360277	0.573892
H196	H	0.257489	-0.241550	-0.305559
H197	H	0.590823	0.091784	0.027774
H198	H	0.924156	0.425117	0.361107
F199	F	0.257811	-0.405813	-0.511955
F200	F	0.591145	-0.072480	-0.178622
F201	F	0.924478	0.260854	0.154711
F202	F	0.807044	-1.090606	-0.512052
F203	F	1.140377	-0.757273	-0.178718
F204	F	1.473711	-0.423940	0.154615
F205	F	0.831370	-0.381236	-0.928206
F206	F	1.164703	-0.047903	-0.594873
F207	F	1.498037	0.285430	-0.261539
H208	H	0.946808	-0.265849	-0.887615
H209	H	1.280142	0.067485	-0.554282
H210	H	1.613475	0.400818	-0.220948
F211	F	0.522949	-0.405858	-0.511830
F212	F	0.856282	-0.072524	-0.178496
F213	F	1.189615	0.260809	0.154837
F214	F	0.658655	-0.405887	-0.511762
F215	F	0.991989	-0.072553	-0.178429
F216	F	1.325322	0.260780	0.154905
H217	H	0.130834	-0.395192	-0.498720
H218	H	0.464167	-0.061859	-0.165387
H219	H	0.797501	0.271474	0.167947
H220	H	0.138220	-0.241526	-0.305622
H221	H	0.471553	0.091808	0.027712
H222	H	0.804886	0.425141	0.361045
H223	H	0.658337	-0.241613	-0.305377
H224	H	0.991671	0.091720	0.027957
H225	H	1.325004	0.425054	0.361290
F226	F	0.531356	-0.231009	-0.292131
F227	F	0.864690	0.102324	0.041203
F228	F	1.198023	0.435657	0.374536
F229	F	0.981566	-0.545561	-0.292072
F230	F	1.314899	-0.212227	0.041261
F231	F	1.648233	0.121106	0.374594
F232	F	0.981613	-0.681266	-0.292103
F233	F	1.314946	-0.347933	0.041230
F234	F	1.648279	-0.014599	0.374564
F235	F	0.981769	-1.082107	-0.292208
F236	F	1.315102	-0.748773	0.041125
F237	F	1.648436	-0.415440	0.374458
H238	H	0.817576	-0.962604	-0.498703
H239	H	1.150909	-0.629271	-0.165369
H240	H	1.484243	-0.295937	0.167964
H241	H	0.817477	-0.681033	-0.498636
H242	H	1.150810	-0.347700	-0.165302
H243	H	1.484143	-0.014366	0.168031
H244	H	0.971134	-0.955136	-0.305478
H245	H	1.304467	-0.621803	0.027855
H246	H	1.637800	-0.288469	0.361188
F247	F	0.806848	-0.554056	-0.511931
F248	F	1.140182	-0.220723	-0.178598
F249	F	1.473515	0.112611	0.154735
