data_functionalizedCrystal
_audit_creation_method	'MofGen! by Chris Wilmer'
_symmetry_space_group_name_H-M	'P1'
_symmetry_Int_Tables_number	1
_symmetry_cell_setting	triclinic
loop_
_symmetry_equiv_pos_as_xyz
  x,y,z
_cell_length_a	8.634740
_cell_length_b	8.559649
_cell_length_c	8.140239
_cell_angle_alpha	90.001146
_cell_angle_beta	90.001257
_cell_angle_gamma	85.174486
loop_
_atom_site_label
_atom_site_type_symbol
_atom_site_fract_x
_atom_site_fract_y
_atom_site_fract_z
O1	O	1.985465	0.511626	0.136603
O2	O	2.485465	1.011626	0.636603
O3	O	1.541594	0.468724	0.136606
O4	O	2.041594	0.968724	0.636606
O5	O	1.802635	0.263594	0.136602
O6	O	2.302635	0.763594	0.636602
O7	O	1.724424	0.716757	0.136606
O8	O	2.224424	1.216757	0.636606
O9	O	1.802628	0.263591	-0.136625
O10	O	2.302628	0.763591	0.363375
O11	O	1.541587	0.468721	-0.136622
O12	O	2.041587	0.968721	0.363378
O13	O	1.985458	0.511624	-0.136624
O14	O	2.485458	1.011624	0.363376
Zn15	Zn	1.763521	0.490172	-0.180004
Zn16	Zn	2.263521	0.990172	0.319996
Zn17	Zn	1.763531	0.490176	0.179985
Zn18	Zn	2.263531	0.990176	0.679985
O19	O	1.724417	0.716754	-0.136621
O20	O	2.224417	1.216754	0.363379
C21	C	1.485291	0.459004	-0.000008
C22	C	1.985291	0.959004	0.499992
C23	C	1.317539	0.430026	-0.000006
C24	C	1.817539	0.930026	0.499994
C25	C	1.808558	0.204975	-0.000008
C26	C	2.308558	0.704975	0.499992
C27	C	1.826201	0.030311	0.000001
C28	C	2.326201	0.530311	0.500001
C29	C	2.041761	0.521344	-0.000008
C30	C	2.541761	1.021344	0.499992
C31	C	2.209512	0.550322	0.000002
C32	C	2.709512	1.050322	0.500002
C33	C	1.718493	0.775373	-0.000007
C34	C	2.218493	1.275373	0.499993
C35	C	1.700851	0.950037	-0.000005
C36	C	2.200851	1.450037	0.499995
N37	N	1.763526	0.490170	-0.425686
N38	N	2.263526	0.990170	0.074314
N39	N	1.763539	0.490167	0.425667
N40	N	2.263539	0.990167	0.925667
H41	H	1.245360	0.675483	-0.000012
H42	H	1.745360	1.175483	0.499988
H43	H	1.947023	-0.034594	-0.000013
H44	H	2.447023	0.465406	0.499987
H45	H	1.580036	0.014934	-0.000010
H46	H	2.080036	0.514934	0.499990
Br47	Br	1.257795	0.221398	-0.000018
Br48	Br	1.757795	0.721398	0.499982
