data_functionalizedCrystal
_audit_creation_method	'MofGen! by Chris Wilmer'
_symmetry_space_group_name_H-M	'P1'
_symmetry_Int_Tables_number	1
_symmetry_cell_setting	triclinic
loop_
_symmetry_equiv_pos_as_xyz
  x,y,z
_cell_length_a	14.971486
_cell_length_b	10.654551
_cell_length_c	13.448316
_cell_angle_alpha	89.996249
_cell_angle_beta	89.998199
_cell_angle_gamma	84.049745
loop_
_atom_site_label
_atom_site_type_symbol
_atom_site_fract_x
_atom_site_fract_y
_atom_site_fract_z
O1	O	1.187838	0.163659	-0.082571
O2	O	0.927545	0.183258	-0.082597
O3	O	1.063676	-0.009345	-0.082584
O4	O	1.051708	0.356262	-0.082584
O5	O	1.063659	-0.009357	0.082800
O6	O	0.927528	0.183246	0.082786
O7	O	1.187821	0.163647	0.082813
Cu8	Cu	1.057673	0.173445	0.097900
Cu9	Cu	1.057693	0.173459	-0.097685
O10	O	1.051690	0.356250	0.082799
C11	C	0.894207	0.182375	0.000091
C12	C	0.794895	0.179749	0.000081
C13	C	1.062788	-0.056139	0.000105
C14	C	1.060158	-0.195554	0.000098
C15	C	0.738286	0.292897	0.000082
C16	C	0.644973	0.290422	0.000097
C17	C	0.608271	0.174796	0.000103
C18	C	0.664888	0.061639	0.000105
C19	C	0.758199	0.064116	0.000097
C20	C	0.470397	0.056485	0.000119
C21	C	0.377080	0.054007	0.000125
C22	C	0.357172	0.282791	0.000118
C23	C	0.450483	0.285268	0.000111
C24	C	0.507093	0.172110	0.000110
C25	C	1.058934	-0.261047	-0.090051
C26	C	1.056456	-0.392040	-0.090046
C27	C	1.056429	-0.392039	0.090264
C28	C	1.058901	-0.261046	0.090259
C29	C	1.060191	-0.195555	-0.180211
C30	C	1.058968	-0.261047	-0.270367
C31	C	1.056489	-0.392041	-0.270363
C32	C	1.055234	-0.457542	-0.180202
C33	C	1.221159	0.164530	0.000122
C34	C	1.320471	0.167156	0.000126
C35	C	1.052578	0.403044	0.000108
C36	C	1.055208	0.542459	0.000108
N37	N	1.057665	0.173435	0.235465
N38	N	1.057708	0.173460	-0.235249
C39	C	1.117963	0.088185	0.287511
C40	C	1.117968	0.088184	0.391614
C41	C	1.057680	0.173440	0.443669
C42	C	0.997375	0.258693	0.391616
C43	C	0.997366	0.258687	0.287514
C44	C	0.997400	0.258702	0.608596
C45	C	0.997410	0.258709	0.712704
C46	C	1.118002	0.088199	0.712696
C47	C	1.117993	0.088193	0.608594
C48	C	1.057690	0.173448	0.556548
H49	H	0.768161	0.387053	0.000076
H50	H	0.480362	0.379420	0.000096
H51	H	0.948283	0.328105	0.434005
O52	O	1.052561	-0.598830	-0.180208
H53	H	0.991044	-0.622269	-0.141305
H54	H	1.059879	-0.207718	0.163666
O55	O	1.182985	-0.003774	0.231366
H56	H	1.224907	-0.063062	0.285052
O57	O	1.183023	-0.003748	0.447742
H58	H	1.171041	-0.101682	0.427763
H59	H	1.055408	-0.445380	0.163669
O60	O	1.055160	-0.462688	-0.367594
H61	H	0.993168	-0.511248	-0.371907
H62	H	1.167089	0.018778	0.566211
O63	O	0.583917	0.412464	0.000093
H64	H	0.540939	0.416814	0.067511
H65	H	0.311075	0.374928	0.000123
H66	H	0.948265	0.328104	0.245139
H67	H	1.167103	0.018781	0.755078
O68	O	0.337488	-0.070698	0.000144
H69	H	0.392527	-0.148969	0.000160
O70	O	0.932369	0.350634	0.768856
H71	H	0.890420	0.409897	0.715178
H72	H	0.516488	-0.035661	0.000120
O73	O	0.932361	0.350642	0.552443
H74	H	0.944365	0.448575	0.572396
O75	O	0.625305	-0.063073	0.000122
H76	H	0.647992	-0.117455	-0.067280
O77	O	0.819263	-0.057922	0.000093
H78	H	0.778068	-0.138741	0.000089
O79	O	1.063026	-0.054299	-0.180314
H80	H	1.002888	-0.008526	-0.219276
O81	O	1.060317	-0.190411	-0.367610
H82	H	1.062254	-0.088322	-0.352471
