data_functionalizedCrystal
_audit_creation_method	'MofGen! by Chris Wilmer'
_symmetry_space_group_name_H-M	'P1'
_symmetry_Int_Tables_number	1
_symmetry_cell_setting	triclinic
loop_
_symmetry_equiv_pos_as_xyz
  x,y,z
_cell_length_a	19.805407
_cell_length_b	25.639240
_cell_length_c	19.805399
_cell_angle_alpha	89.964092
_cell_angle_beta	89.975799
_cell_angle_gamma	90.032003
loop_
_atom_site_label
_atom_site_type_symbol
_atom_site_fract_x
_atom_site_fract_y
_atom_site_fract_z
Zn1	Zn	1.034706	-0.208173	-0.382764
Zn2	Zn	1.534706	0.291827	0.117236
Zn3	Zn	1.034608	-0.295607	-0.269559
Zn4	Zn	1.534608	0.204393	0.230441
Zn5	Zn	0.921520	-0.208187	-0.269579
Zn6	Zn	1.421520	0.291813	0.230421
Zn7	Zn	0.921471	-0.295578	-0.382697
Zn8	Zn	1.421471	0.204422	0.117303
O9	O	0.978076	-0.251886	-0.326150
O10	O	1.478076	0.248114	0.173850
O11	O	1.129409	-0.219778	-0.367767
O12	O	1.629409	0.280222	0.132233
O13	O	1.019586	-0.284029	-0.174845
O14	O	1.519586	0.215971	0.325155
O15	O	0.936596	-0.135020	-0.284630
O16	O	1.436596	0.364980	0.215370
O17	O	1.129338	-0.284016	-0.284596
O18	O	1.629338	0.215984	0.215404
O19	O	1.019753	-0.135010	-0.367786
O20	O	1.519753	0.364990	0.132214
O21	O	0.936501	-0.219801	-0.174860
O22	O	1.436501	0.280199	0.325140
O23	O	0.826797	-0.219773	-0.284565
O24	O	1.326797	0.280227	0.215435
O25	O	0.936513	-0.283966	-0.477422
O26	O	1.436513	0.216034	0.022578
O27	O	0.826761	-0.283979	-0.367672
O28	O	1.326761	0.216021	0.132328
O29	O	1.019705	-0.219750	-0.477472
O30	O	1.519705	0.280250	0.022528
O31	O	1.019539	-0.368769	-0.284531
O32	O	1.519539	0.131231	0.215469
O33	O	0.936418	-0.368748	-0.367652
O34	O	1.436418	0.131252	0.132348
C35	C	0.802220	-0.251875	-0.326114
C36	C	1.302220	0.248125	0.173886
C37	C	0.726988	-0.251882	-0.326114
C38	C	1.226988	0.248118	0.173886
C39	C	0.265196	-0.285382	-0.369399
C40	C	0.765196	0.214618	0.130601
C41	C	0.335885	-0.285381	-0.369385
C42	C	0.835885	0.214619	0.130615
C43	C	0.371227	-0.251899	-0.326176
C44	C	0.871227	0.248101	0.173824
C45	C	0.335877	-0.218420	-0.282975
C46	C	0.835877	0.281580	0.217025
C47	C	0.265189	-0.218424	-0.282986
C48	C	0.765189	0.281576	0.217014
C49	C	0.620950	-0.218404	-0.282927
C50	C	1.120950	0.281596	0.217073
C51	C	0.691642	-0.218402	-0.282920
C52	C	1.191642	0.281598	0.217080
C53	C	0.691645	-0.285361	-0.369326
C54	C	1.191645	0.214639	0.130674
C55	C	0.620958	-0.285365	-0.369337
C56	C	1.120958	0.214635	0.130663
C57	C	0.585614	-0.251888	-0.326133
C58	C	1.085614	0.248112	0.173867
C59	C	0.508966	-0.251890	-0.326148
C60	C	1.008966	0.248110	0.173852
C61	C	0.447874	-0.251894	-0.326164
C62	C	0.947874	0.248106	0.173836
C63	C	0.977981	-0.387729	-0.326097
C64	C	1.477981	0.112271	0.173903
C65	C	0.978002	-0.445843	-0.326097
C66	C	1.478002	0.054157	0.173903
C67	C	1.021398	-0.806163	-0.369527
C68	C	1.521398	-0.306163	0.130473
C69	C	1.021418	-0.860767	-0.369541
C70	C	1.521418	-0.360767	0.130459
O71	O	1.058201	-0.888967	-0.406413
O72	O	1.558201	-0.388967	0.093587
N73	N	0.978170	-0.888126	-0.326215
N74	N	1.478170	-0.388126	0.173785
C75	C	0.934895	-0.860877	-0.282878
C76	C	1.434895	-0.360877	0.217122
O77	O	0.898112	-0.889162	-0.246027
O78	O	1.398112	-0.389162	0.253973
C79	C	0.934873	-0.806274	-0.282868
C80	C	1.434873	-0.306274	0.217132
C81	C	0.978128	-0.778918	-0.326192
C82	C	1.478128	-0.278918	0.173808
C83	C	1.064649	-0.778807	-0.412848
C84	C	1.564649	-0.278807	0.087152
C85	C	1.064629	-0.724206	-0.412834
C86	C	1.564629	-0.224206	0.087166
C87	C	1.021359	-0.696962	-0.369498
C88	C	1.521359	-0.196962	0.130502
C89	C	0.978108	-0.724317	-0.326177
C90	C	1.478108	-0.224317	0.173823
C91	C	0.891595	-0.779026	-0.239534
C92	C	1.391595	-0.279026	0.260466
C93	C	0.891575	-0.724419	-0.239528
C94	C	1.391575	-0.224419	0.260472
C95	C	0.934830	-0.697063	-0.282852
C96	C	1.434830	-0.197063	0.217148
C97	C	0.934819	-0.642472	-0.282826
C98	C	1.434819	-0.142472	0.217174
N99	N	0.978066	-0.615114	-0.326152
N100	N	1.478066	-0.115114	0.173848
C101	C	1.021336	-0.642358	-0.369488
C102	C	1.521336	-0.142358	0.130512
C103	C	0.934946	-0.975548	-0.282903
C104	C	1.434946	-0.475548	0.217097
C105	C	0.934972	-1.030150	-0.282908
C106	C	1.434972	-0.530150	0.217092
C107	C	1.021493	-1.030036	-0.369573
C108	C	1.521493	-0.530036	0.130427
C109	C	1.021470	-0.975433	-0.369563
C110	C	1.521470	-0.475433	0.130437
C111	C	0.978193	-0.948189	-0.326228
C112	C	1.478193	-0.448189	0.173772
C113	C	1.021293	-0.527693	-0.369453
C114	C	1.521293	-0.027693	0.130547
C115	C	1.021272	-0.473088	-0.369433
C116	C	1.521272	0.026912	0.130567
C117	C	0.934748	-0.473206	-0.282771
C118	C	1.434748	0.026794	0.217229
C119	C	0.934772	-0.527807	-0.282789
C120	C	1.434772	-0.027807	0.217211
C121	C	0.978046	-0.555049	-0.326135
C122	C	1.478046	-0.055049	0.173865
O123	O	0.898053	-0.614238	-0.245975
O124	O	1.398053	-0.114238	0.254025
O125	O	1.058108	-0.614067	-0.406338
O126	O	1.558108	-0.114067	0.093662
C127	C	1.154619	-0.251899	-0.326187
C128	C	1.654619	0.248101	0.173813
C129	C	1.229851	-0.251904	-0.326202
C130	C	1.729851	0.248096	0.173798
C131	C	0.978114	-0.251854	-0.502693
C132	C	1.478114	0.248146	-0.002693
C133	C	0.978131	-0.251840	-0.577925
C134	C	1.478131	0.248160	-0.077925
C135	C	0.978191	-0.115513	-0.326218
C136	C	1.478191	0.384487	0.173782
C137	C	0.978240	-0.057399	-0.326247
C138	C	1.478240	0.442601	0.173753
C139	C	1.021450	-0.218401	-0.613296
C140	C	1.521450	0.281599	-0.113296
C141	C	1.021457	-0.218385	-0.683984
C142	C	1.521457	0.281615	-0.183984
C143	C	0.978147	-0.251812	-0.719300
C144	C	1.478147	0.248188	-0.219300
C145	C	0.934823	-0.285253	-0.683925
C146	C	1.434823	0.214747	-0.183925
C147	C	0.934813	-0.285265	-0.613237
C148	C	1.434813	0.214735	-0.113237
C149	C	0.934861	-0.285204	-0.968998
C150	C	1.434861	0.214796	-0.468998
C151	C	0.934876	-0.285190	-1.039690
C152	C	1.434876	0.214810	-0.539690
C153	C	1.021505	-0.218324	-1.039745
C154	C	1.521505	0.281676	-0.539745
C155	C	1.021495	-0.218337	-0.969058
C156	C	1.521495	0.281663	-0.469058
C157	C	0.978169	-0.251775	-0.933688
C158	C	1.478169	0.248225	-0.433688
C159	C	0.978161	-0.251790	-0.857039
C160	C	1.478161	0.248210	-0.357039
C161	C	0.978158	-0.251800	-0.795948
C162	C	1.478158	0.248200	-0.295948
C163	C	0.978078	-0.251882	-0.150294
C164	C	1.478078	0.248118	0.349706
C165	C	0.978193	-0.251748	-0.075062
C166	C	1.478193	0.248252	0.424938
H167	H	0.364660	-0.312643	-0.404558
H168	H	0.864660	0.187357	0.095442
H169	H	0.899557	-0.312468	-0.712685
H170	H	1.399557	0.187532	-0.212685
C171	C	0.844005	-0.809105	-0.191878
C172	C	1.344005	-0.309105	0.308122
N173	N	0.808156	-0.831760	-0.155983
N174	N	1.308156	-0.331760	0.344017
H175	H	1.056734	-0.191157	-0.712780
H176	H	1.556734	0.308843	-0.212780
H177	H	0.592181	-0.191147	-0.247745
H178	H	1.092181	0.308853	0.252255
C179	C	0.887151	-0.443227	-0.235107
C180	C	1.387151	0.056773	0.264893
N181	N	0.851295	-0.420645	-0.199210
N182	N	1.351295	0.079355	0.300790
H183	H	1.056720	-0.191182	-0.584546
H184	H	1.556720	0.308818	-0.084546
H185	H	1.056765	-0.191119	-0.940307
H186	H	1.556765	0.308881	-0.440307
C187	C	0.887199	-0.321986	-0.930101
C188	C	1.387199	0.178014	-0.430101
N189	N	0.851296	-0.349690	-0.900801
N190	N	1.351296	0.150310	-0.400801
C191	C	0.582086	-0.322201	-0.416864
C192	C	1.082086	0.177799	0.083136
N193	N	0.552808	-0.349951	-0.452658
N194	N	1.052808	0.150049	0.047342
H195	H	1.056781	-0.191096	-1.068551
H196	H	1.556781	0.308904	-0.568551
H197	H	0.899707	-0.953368	-0.247609
H198	H	1.399707	-0.453368	0.252391
H199	H	1.099884	-0.800984	-0.448141
H200	H	1.599884	-0.300984	0.051859
H201	H	0.899605	-0.312412	-1.068443
H202	H	1.399605	0.187588	-0.568443
C203	C	0.887160	-0.322051	-0.574330
C204	C	1.387160	0.177949	-0.074330
N205	N	0.851264	-0.349759	-0.545025
N206	N	1.351264	0.150241	-0.045025
H207	H	0.720431	-0.312621	-0.404503
H208	H	1.220431	0.187379	0.095497
C209	C	0.226327	-0.322216	-0.416931
C210	C	0.726327	0.177784	0.083069
N211	N	0.197052	-0.349963	-0.452731
N212	N	0.697052	0.150037	0.047269
H213	H	0.720415	-0.191135	-0.247734
H214	H	1.220415	0.308865	0.252266
H215	H	1.056692	-0.953163	-0.404842
H216	H	1.556692	-0.453163	0.095158
H217	H	0.364658	-0.191161	-0.247791
H218	H	0.864658	0.308839	0.252209
H219	H	1.056498	-0.450816	-0.404712
H220	H	1.556498	0.049184	0.095288
C221	C	0.226310	-0.181594	-0.235468
C222	C	0.726310	0.318406	0.264532
N223	N	0.197027	-0.153854	-0.199674
N224	N	0.697027	0.346146	0.300326
H225	H	1.056527	-0.549867	-0.404755
H226	H	1.556527	-0.049867	0.095245
H227	H	1.099849	-0.701936	-0.448113
H228	H	1.599849	-0.201936	0.051887
C229	C	0.887193	-0.557899	-0.235127
C230	C	1.387193	-0.057899	0.264873
N231	N	0.851351	-0.580561	-0.199232
N232	N	1.351351	-0.080561	0.300768
C233	C	0.887393	-1.060235	-0.235244
C234	C	1.387393	-0.560235	0.264756
N235	N	0.851552	-1.082894	-0.199344
N236	N	1.351552	-0.582894	0.300656
C237	C	1.069087	-1.060016	-0.417249
C238	C	1.569087	-0.560016	0.082751
N239	N	1.104931	-1.082598	-0.453156
N240	N	1.604931	-0.582598	0.046844
C241	C	0.843967	-0.694455	-0.191855
C242	C	1.343967	-0.194455	0.308145
N243	N	0.808109	-0.671886	-0.155945
N244	N	1.308109	-0.171886	0.344055
