data_functionalizedCrystal
_audit_creation_method	'MofGen! by Chris Wilmer'
_symmetry_space_group_name_H-M	'P1'
_symmetry_Int_Tables_number	1
_symmetry_cell_setting	triclinic
loop_
_symmetry_equiv_pos_as_xyz
  x,y,z
_cell_length_a	11.792241
_cell_length_b	11.792254
_cell_length_c	9.798715
_cell_angle_alpha	89.996677
_cell_angle_beta	90.000512
_cell_angle_gamma	84.196007
loop_
_atom_site_label
_atom_site_type_symbol
_atom_site_fract_x
_atom_site_fract_y
_atom_site_fract_z
O1	O	1.506915	0.155564	-0.113359
O2	O	2.006915	0.655564	0.386641
O3	O	1.176574	0.171597	-0.113391
O4	O	1.676574	0.671597	0.386609
O5	O	1.349754	-0.001589	-0.113365
O6	O	1.849754	0.498411	0.386635
O7	O	1.333736	0.328750	-0.113385
O8	O	1.833736	0.828750	0.386615
O9	O	1.349741	-0.001589	0.113618
O10	O	1.849741	0.498411	0.613618
O11	O	1.176561	0.171597	0.113591
O12	O	1.676561	0.671597	0.613591
O13	O	1.506902	0.155564	0.113623
O14	O	2.006902	0.655564	0.613623
Zn15	Zn	1.341730	0.163580	0.149645
Zn16	Zn	1.841730	0.663580	0.649645
Zn17	Zn	1.341747	0.163581	-0.149413
Zn18	Zn	1.841747	0.663581	0.350587
O19	O	1.333723	0.328750	0.113597
O20	O	1.833723	0.828750	0.613597
C21	C	1.134277	0.170590	0.000096
C22	C	1.634277	0.670590	0.500096
C23	C	1.008263	0.167576	0.000084
C24	C	1.508263	0.667576	0.500084
C25	C	1.348738	-0.043880	0.000126
C26	C	1.848738	0.456120	0.500126
C27	C	1.345718	-0.169893	0.000124
C28	C	1.845718	0.330107	0.500124
C29	C	1.343264	-0.272229	0.000119
C30	C	1.843264	0.227771	0.500119
C31	C	1.340196	-0.400616	0.000106
C32	C	1.840196	0.099384	0.500106
C33	C	0.777551	0.162033	0.000124
C34	C	1.277551	0.662033	0.500124
C35	C	0.905936	0.165112	0.000102
C36	C	1.405936	0.665112	0.500102
C37	C	1.549199	0.156571	0.000133
C38	C	2.049199	0.656571	0.500133
C39	C	1.675213	0.159586	0.000136
C40	C	2.175213	0.659586	0.500136
C41	C	1.334738	0.371041	0.000103
C42	C	1.834738	0.871041	0.500103
C43	C	1.337758	0.497054	0.000096
C44	C	1.837758	0.997054	0.500096
N45	N	1.341726	0.163579	0.353745
N46	N	1.841726	0.663579	0.853745
N47	N	1.341759	0.163573	-0.353513
N48	N	1.841759	0.663573	0.146487
C49	C	1.414440	0.090544	0.421533
C50	C	1.914440	0.590544	0.921533
C51	C	1.414458	0.090540	0.578696
C52	C	1.914458	0.590540	1.078696
H53	H	1.476677	0.028013	0.363220
H54	H	1.976677	0.528013	0.863220
N55	N	1.259281	0.246397	0.569287
N56	N	1.759281	0.746397	1.069287
H57	H	1.210767	0.295133	0.636127
H58	H	1.710767	0.795133	1.136127
H59	H	1.303229	0.296689	0.509989
H60	H	1.803229	0.796689	1.009989
N61	N	1.496933	0.007715	0.655900
N62	N	1.996933	0.507715	1.155900
H63	H	1.485258	0.019454	0.757227
H64	H	1.985258	0.519454	1.257227
H65	H	1.483116	-0.072852	0.631004
H66	H	1.983116	0.427148	1.131004
N67	N	1.259277	0.246401	0.430983
N68	N	1.759277	0.746401	0.930983
H69	H	1.273046	0.327007	0.406184
H70	H	1.773046	0.827007	0.906184
H71	H	1.178600	0.232934	0.406167
H72	H	1.678600	0.732934	0.906167
