data_functionalizedCrystal
_audit_creation_method	'MofGen! by Chris Wilmer'
_symmetry_space_group_name_H-M	'P1'
_symmetry_Int_Tables_number	1
_symmetry_cell_setting	triclinic
loop_
_symmetry_equiv_pos_as_xyz
  x,y,z
_cell_length_a	14.519709
_cell_length_b	19.288865
_cell_length_c	17.766277
_cell_angle_alpha	89.988397
_cell_angle_beta	90.003743
_cell_angle_gamma	96.591803
loop_
_atom_site_label
_atom_site_type_symbol
_atom_site_fract_x
_atom_site_fract_y
_atom_site_fract_z
O1	O	1.223296	-0.091051	0.062505
O2	O	1.723296	0.408949	0.562505
O3	O	0.954751	-0.101773	0.062529
O4	O	1.454751	0.398227	0.562529
O5	O	1.096783	0.004690	0.062502
O6	O	1.596783	0.504690	0.562502
O7	O	1.081264	-0.197514	0.062533
O8	O	1.581264	0.302486	0.562533
O9	O	1.096759	0.004696	-0.062687
O10	O	1.596759	0.504696	0.437313
O11	O	0.954726	-0.101768	-0.062659
O12	O	1.454726	0.398232	0.437341
O13	O	1.223271	-0.091045	-0.062683
O14	O	1.723271	0.408955	0.437317
Cu15	Cu	1.088997	-0.096406	-0.074102
Cu16	Cu	1.588997	0.403594	0.425898
Cu17	Cu	1.089026	-0.096413	0.073948
Cu18	Cu	1.589026	0.403587	0.573948
O19	O	1.081239	-0.197509	-0.062656
O20	O	1.581239	0.302491	0.437344
C21	C	1.096272	0.030571	-0.000095
C22	C	1.596272	0.530571	0.499905
C23	C	1.094773	0.107680	-0.000101
C24	C	1.594773	0.607680	0.499899
C25	C	0.920382	-0.101271	-0.000062
C26	C	1.420382	0.398729	0.499938
C27	C	0.818010	-0.099773	-0.000054
C28	C	1.318010	0.400227	0.499946
N29	N	1.088983	-0.096401	-0.178232
N30	N	1.588983	0.403599	0.321768
C31	C	0.443150	-0.094261	-0.000089
C32	C	0.943150	0.405739	0.499911
C33	C	0.547448	-0.095792	-0.000079
C34	C	1.047448	0.404208	0.499921
C35	C	0.630577	-0.097017	-0.000070
C36	C	1.130577	0.402983	0.499930
C37	C	0.734882	-0.098548	-0.000062
C38	C	1.234882	0.401452	0.499938
C39	C	1.257640	-0.091548	-0.000090
C40	C	1.757640	0.408452	0.499910
C41	C	1.360012	-0.093045	-0.000094
C42	C	1.860012	0.406955	0.499906
C43	C	1.081751	-0.223390	-0.000058
C44	C	1.581751	0.276610	0.499942
C45	C	1.083250	-0.300499	-0.000046
C46	C	1.583250	0.199501	0.499954
C47	C	1.178111	0.152077	-0.000112
C48	C	1.678111	0.652077	0.499888
C49	C	1.176702	0.224529	-0.000100
C50	C	1.676702	0.724529	0.499900
C51	C	1.091951	0.252581	-0.000092
C52	C	1.591951	0.752581	0.499908
C53	C	1.008602	0.208175	-0.000077
C54	C	1.508602	0.708175	0.499923
C55	C	1.010013	0.135725	-0.000081
C56	C	1.510013	0.635725	0.499919
C57	C	1.025318	0.361110	-0.043937
C58	C	1.525318	0.861110	0.456063
C59	C	1.023911	0.433560	-0.043937
C60	C	1.523911	0.933560	0.456063
C61	C	1.087597	0.476043	-0.000075
C62	C	1.587597	0.976043	0.499925
C63	C	1.152705	0.446068	0.043778
C64	C	1.652705	0.946068	0.543778
C65	C	1.154116	0.373618	0.043773
C66	C	1.654116	0.873618	0.543773
C67	C	1.090412	0.331141	-0.000087
C68	C	1.590412	0.831141	0.499913
C69	C	1.169414	0.599000	-0.000072
C70	C	1.669414	1.099000	0.499928
C71	C	1.168002	0.671454	-0.000055
C72	C	1.668002	1.171454	0.499945
C73	C	0.999899	0.655098	-0.000040
C74	C	1.499899	1.155098	0.499960
C75	C	1.001314	0.582647	-0.000049
C76	C	1.501314	1.082647	0.499951
C77	C	1.086073	0.554602	-0.000069
C78	C	1.586073	1.054602	0.499931
C79	C	1.151895	-0.049282	-0.217631
C80	C	1.651895	0.450718	0.282369
C81	C	1.151900	-0.049279	-0.296433
C82	C	1.651900	0.450721	0.203567
C83	C	1.089002	-0.096407	-0.335833
C84	C	1.589002	0.403593	0.164167
C85	C	1.026078	-0.143529	-0.296424
C86	C	1.526078	0.356471	0.203576
C87	C	1.026069	-0.143526	-0.217624
C88	C	1.526069	0.356474	0.282376
C89	C	1.076656	-0.159650	-0.460660
C90	C	1.576656	0.340350	0.039340
C91	C	1.076672	-0.159654	-0.539459
C92	C	1.576672	0.340346	-0.039459
C93	C	1.089027	-0.096415	-0.578879
C94	C	1.589027	0.403585	-0.078879
C95	C	1.101385	-0.033170	-0.539491
C96	C	1.601385	0.466830	-0.039491
C97	C	1.101375	-0.033167	-0.460690
C98	C	1.601375	0.466833	0.039310
C99	C	1.089005	-0.096415	-0.421279
C100	C	1.589005	0.403585	0.078721
C101	C	1.151948	-0.049289	-0.703724
C102	C	1.651948	0.450711	-0.203724
C103	C	1.151947	-0.049285	-0.782528
C104	C	1.651947	0.450715	-0.282528
C105	C	1.026129	-0.143541	-0.782517
C106	C	1.526129	0.356459	-0.282517
C107	C	1.026126	-0.143539	-0.703715
C108	C	1.526126	0.356461	-0.203715
C109	C	1.089040	-0.096414	-0.664324
C110	C	1.589040	0.403586	-0.164324
N111	N	1.089047	-0.096412	0.178078
N112	N	1.589047	0.403588	0.678078
H113	H	1.247128	0.129248	-0.000126
H114	H	1.747128	0.629248	0.499874
O115	O	0.920120	0.087838	-0.000074
O116	O	1.420120	0.587838	0.499926
H117	H	0.935340	0.032746	-0.000077
H118	H	1.435340	0.532746	0.499923
O119	O	1.219805	0.001543	-0.825022
O120	O	1.719805	0.501543	-0.325022
H121	H	1.209236	-0.006368	-0.886436
H122	H	1.709236	0.493632	-0.386436
O123	O	1.219739	0.001554	-0.175148
O124	O	1.719739	0.501554	0.324852
H125	H	1.291592	-0.007413	-0.190264
H126	H	1.791592	0.492587	0.309736
H127	H	1.203132	-0.010908	-0.328518
H128	H	1.703132	0.489092	0.171482
O129	O	1.266590	0.272428	-0.000123
O130	O	1.766590	0.772428	0.499877
H131	H	1.325765	0.240754	-0.000143
H132	H	1.825765	0.740754	0.499857
O133	O	1.063348	-0.227863	-0.581941
O134	O	1.563348	0.272137	-0.081941
H135	H	1.124936	-0.232427	-0.617824
H136	H	1.624936	0.267573	-0.117824
O137	O	1.224320	0.341283	0.091079
O138	O	1.724320	0.841283	0.591079
H139	H	1.268365	0.382989	0.121588
H140	H	1.768365	0.882989	0.621588
O141	O	0.908489	0.685349	-0.000032
O142	O	1.408489	1.185349	0.499968
H143	H	0.850774	0.642301	-0.000024
H144	H	1.350774	1.142301	0.499976
O145	O	1.063311	-0.227858	-0.418140
O146	O	1.563311	0.272142	0.081860
H147	H	1.124873	-0.232417	-0.382218
H148	H	1.624873	0.267583	0.117782
O149	O	1.260831	0.568750	-0.000083
O150	O	1.760831	1.068750	0.499917
H151	H	1.247812	0.510911	-0.000094
H152	H	1.747812	1.010911	0.499906
H153	H	1.204564	0.480657	0.079495
H154	H	1.704564	0.980657	0.579495
H155	H	0.933451	0.546498	-0.000044
H156	H	1.433451	1.046498	0.499956
O157	O	1.257892	0.719345	-0.000074
O158	O	1.757892	1.219345	0.499926
H159	H	1.317063	0.687668	-0.000098
H160	H	1.817063	1.187668	0.499902
O161	O	1.219775	0.001547	-0.661218
O162	O	1.719775	0.501547	-0.161218
H163	H	1.291636	-0.007407	-0.676324
H164	H	1.791636	0.492593	-0.176324
H165	H	0.970892	0.457959	-0.079640
H166	H	1.470892	0.957959	0.420360
O167	O	1.114687	0.035040	-0.418203
O168	O	1.614687	0.535040	0.081797
H169	H	1.123272	0.079017	-0.458847
H170	H	1.623272	0.579017	0.041153
H171	H	0.974901	-0.181910	-0.671634
H172	H	1.474901	0.318090	-0.171634
O173	O	1.114723	0.035037	-0.582008
O174	O	1.614723	0.535037	-0.082008
H175	H	1.182822	0.063816	-0.566890
H176	H	1.682822	0.563816	-0.066890
H177	H	0.974913	-0.181910	-0.814596
H178	H	1.474913	0.318090	-0.314596
O179	O	0.956629	0.315291	-0.091252
O180	O	1.456629	0.815291	0.408748
H181	H	0.911131	0.348305	-0.121754
H182	H	1.411131	0.848305	0.378246
H183	H	0.974864	-0.181900	-0.328507
H184	H	1.474864	0.318100	0.171493
O185	O	0.958218	-0.194354	-0.175121
O186	O	1.458218	0.305646	0.324879
H187	H	0.914483	-0.227129	-0.215753
H188	H	1.414483	0.272871	0.284247
H189	H	0.939597	0.231020	-0.000069
H190	H	1.439597	0.731020	0.499931
