data_functionalizedCrystal
_audit_creation_method	'MofGen! by Chris Wilmer'
_symmetry_space_group_name_H-M	'P1'
_symmetry_Int_Tables_number	1
_symmetry_cell_setting	triclinic
loop_
_symmetry_equiv_pos_as_xyz
  x,y,z
_cell_length_a	15.944493
_cell_length_b	10.654541
_cell_length_c	9.130307
_cell_angle_alpha	90.003083
_cell_angle_beta	90.000953
_cell_angle_gamma	83.979486
loop_
_atom_site_label
_atom_site_type_symbol
_atom_site_fract_x
_atom_site_fract_y
_atom_site_fract_z
O1	O	-1.115486	-0.161617	-0.121779
O2	O	-0.615486	0.338383	0.378221
O3	O	-0.871045	-0.181662	-0.121786
O4	O	-0.371045	0.318338	0.378214
O5	O	-0.998887	0.011174	-0.121774
O6	O	-0.498887	0.511174	0.378226
O7	O	-0.987644	-0.354454	-0.121792
O8	O	-0.487644	0.145546	0.378208
O9	O	-0.998882	0.011176	0.121825
O10	O	-0.498882	0.511176	0.621825
O11	O	-0.871041	-0.181660	0.121813
O12	O	-0.371041	0.318340	0.621813
O13	O	-1.115481	-0.161616	0.121820
O14	O	-0.615481	0.338384	0.621820
Cu15	Cu	-0.993261	-0.171638	0.144059
Cu16	Cu	-0.493261	0.328362	0.644059
Cu17	Cu	-0.993266	-0.171640	-0.144025
Cu18	Cu	-0.493266	0.328360	0.355975
O19	O	-0.987640	-0.354452	0.121807
O20	O	-0.487640	0.145548	0.621807
C21	C	-0.998059	0.057962	0.000025
C22	C	-0.498059	0.557962	0.500025
C23	C	-0.995591	0.197373	0.000022
C24	C	-0.495591	0.697373	0.500022
C25	C	-0.839743	-0.180842	0.000012
C26	C	-0.339743	0.319158	0.500012
C27	C	-0.746481	-0.178386	0.000010
C28	C	-0.246481	0.321614	0.500010
C29	C	-1.146783	-0.162436	0.000018
C30	C	-0.646783	0.337564	0.500018
C31	C	-1.240046	-0.164892	0.000011
C32	C	-0.740046	0.335108	0.500011
C33	C	-0.511377	-0.291894	0.000003
C34	C	-0.011377	0.208106	0.500003
C35	C	-0.460463	-0.230683	0.120119
C36	C	0.039537	0.269317	0.620119
C37	C	-0.575733	-0.173835	0.000013
C38	C	-0.075733	0.326165	0.500013
C39	C	-0.460471	-0.230656	-0.120050
C40	C	0.039529	0.269344	0.379950
C41	C	-0.410798	-0.169447	0.000009
C42	C	0.089202	0.330553	0.500009
C43	C	-0.526047	-0.112655	0.120228
C44	C	-0.026047	0.387345	0.620228
C45	C	-0.526059	-0.112646	-0.120049
C46	C	-0.026059	0.387354	0.379951
C47	C	-0.475177	-0.051348	0.000097
C48	C	0.024823	0.448652	0.500097
C49	C	-0.670748	-0.176366	0.000016
C50	C	-0.170748	0.323634	0.500016
C51	C	-0.315787	-0.166907	0.000017
C52	C	0.184213	0.333093	0.500017
C53	C	-0.988467	-0.401240	0.000005
C54	C	-0.488467	0.098760	0.500005
C55	C	-0.990935	-0.540651	-0.000002
C56	C	-0.490935	-0.040651	0.499998
N57	N	-0.993263	-0.171635	0.346681
N58	N	-0.493263	0.328365	0.846681
C59	C	-1.148460	0.227369	0.000045
C60	C	-0.648460	0.727369	0.500045
C61	C	-1.223731	0.307861	0.000060
C62	C	-0.723731	0.807861	0.500060
C63	C	-1.221407	0.438848	0.000055
C64	C	-0.721407	0.938848	0.500055
C65	C	-1.143803	0.489345	0.000032
C66	C	-0.643803	0.989345	0.500032
C67	C	-1.068531	0.408854	0.000017
C68	C	-0.568531	0.908854	0.500017
C69	C	-1.070864	0.277865	0.000026
C70	C	-0.570864	0.777865	0.500026
C71	C	-0.915664	0.378858	-0.000016
C72	C	-0.415664	0.878858	0.499984
C73	C	-0.917987	0.247870	-0.000001
C74	C	-0.417987	0.747870	0.499999
C75	C	-0.838060	0.429355	-0.000040
C76	C	-0.338060	0.929355	0.499960
C77	C	-0.762787	0.348863	-0.000044
C78	C	-0.262787	0.848863	0.499956
C79	C	-0.765114	0.217868	-0.000037
C80	C	-0.265114	0.717868	0.499963
C81	C	-0.842715	0.167378	-0.000016
C82	C	-0.342715	0.667378	0.499984
N83	N	-0.993270	-0.171632	-0.346648
N84	N	-0.493270	0.328368	0.153352
C85	C	-1.106514	-0.000928	0.346683
C86	C	-0.606514	0.499072	0.846683
C87	C	-1.163144	0.084422	0.423350
C88	C	-0.663144	0.584422	0.923350
C89	C	-1.163153	0.084423	0.576683
C90	C	-0.663153	0.584423	1.076683
C91	C	-1.106523	-0.000933	0.653353
C92	C	-0.606523	0.499067	1.153353
C93	C	-1.049892	-0.086283	0.576686
C94	C	-0.549892	0.413717	1.076686
C95	C	-1.049891	-0.086277	0.423349
C96	C	-0.549891	0.413723	0.923349
C97	C	-0.936639	-0.256983	0.576685
C98	C	-0.436639	0.243017	1.076685
C99	C	-0.936633	-0.256992	0.423351
C100	C	-0.436633	0.243008	0.923351
C101	C	-0.880009	-0.342339	0.653354
C102	C	-0.380009	0.157661	1.153354
C103	C	-0.823381	-0.427697	0.576687
C104	C	-0.323381	0.072303	1.076687
C105	C	-0.823376	-0.427695	0.423344
C106	C	-0.323376	0.072305	0.923344
C107	C	-0.880003	-0.342342	0.346684
C108	C	-0.380003	0.157658	0.846684
H109	H	-0.527589	-0.393589	0.000110
H110	H	-0.027589	0.106411	0.500110
Br111	Br	-1.329047	0.239325	0.000077
Br112	Br	-0.829047	0.739325	0.500077
Br113	Br	-0.746526	-0.543515	0.680741
Br114	Br	-0.246526	-0.043515	1.180741
Br115	Br	-0.448410	0.118273	0.000216
Br116	Br	0.051590	0.618273	0.500216
H117	H	-0.554719	-0.062827	-0.221597
H118	H	-0.054719	0.437173	0.278403
H119	H	-1.150360	0.120714	0.000069
H120	H	-0.650360	0.620714	0.500069
Br121	Br	-0.573606	-0.029603	0.289654
Br122	Br	-0.073606	0.470397	0.789654
Br123	Br	-0.880006	-0.342340	0.138587
Br124	Br	-0.380006	0.157660	0.638587
H125	H	-1.282700	0.504386	0.000055
H126	H	-0.782700	1.004386	0.500055
H127	H	-1.106519	-0.000930	0.221831
H128	H	-0.606519	0.499070	0.721831
Br129	Br	-1.140649	0.667115	-0.000089
Br130	Br	-0.640649	1.167115	0.499911
Br131	Br	-0.412709	-0.313776	0.289365
Br132	Br	0.087291	0.186224	0.789365
Br133	Br	-0.834904	0.607124	-0.000154
Br134	Br	-0.334904	1.107124	0.499846
Br135	Br	-0.412720	-0.313794	-0.289280
Br136	Br	0.087280	0.186206	0.210720
H137	H	-0.699607	0.389989	-0.000072
H138	H	-0.199607	0.889989	0.499928
Br139	Br	-0.662954	0.108639	-0.000074
Br140	Br	-0.162954	0.608639	0.499926
H141	H	-0.844618	0.060724	-0.000002
H142	H	-0.344618	0.560724	0.499998
Br143	Br	-1.239992	0.200267	0.319299
Br144	Br	-0.739992	0.700267	0.819299
H145	H	-1.106526	-0.000916	0.778205
H146	H	-0.606526	0.499084	1.278205
H147	H	-1.209263	0.153927	0.639106
H148	H	-0.709263	0.653927	1.139106
Br149	Br	-0.880011	-0.342333	0.861451
Br150	Br	-0.380011	0.157667	1.361451
Br151	Br	-0.746508	-0.543524	0.319309
Br152	Br	-0.246508	-0.043524	0.819309
