data_functionalizedCrystal
_audit_creation_method	'MofGen! by Chris Wilmer'
_symmetry_space_group_name_H-M	'P1'
_symmetry_Int_Tables_number	1
_symmetry_cell_setting	triclinic
loop_
_symmetry_equiv_pos_as_xyz
  x,y,z
_cell_length_a	15.297475
_cell_length_b	25.639239
_cell_length_c	15.298013
_cell_angle_alpha	99.699806
_cell_angle_beta	91.613322
_cell_angle_gamma	80.340538
loop_
_atom_site_label
_atom_site_type_symbol
_atom_site_fract_x
_atom_site_fract_y
_atom_site_fract_z
Zn1	Zn	1.253220	-0.261269	0.726591
Zn2	Zn	1.278446	-0.365914	0.580078
Zn3	Zn	1.132110	-0.266324	0.554821
Zn4	Zn	1.106676	-0.336496	0.701220
O5	O	1.192613	-0.307501	0.640678
O6	O	1.379138	-0.285346	0.728345
O7	O	1.280236	-0.367130	0.454143
O8	O	1.148262	-0.192492	0.577655
O9	O	1.397672	-0.362228	0.620702
O10	O	1.237241	-0.188778	0.703853
O11	O	1.172723	-0.293962	0.435587
O12	O	1.006164	-0.265437	0.553053
O13	O	1.104914	-0.312090	0.827170
O14	O	0.987478	-0.316992	0.660611
O15	O	1.212579	-0.256821	0.845810
O16	O	1.255574	-0.435173	0.596100
O17	O	1.129375	-0.413560	0.685102
C18	C	0.965040	-0.288571	0.601338
C19	C	0.867679	-0.280483	0.584530
C20	C	1.192473	-0.443336	0.640612
C21	C	1.192488	-0.501450	0.640627
C22	C	0.554479	-0.365311	0.760814
C23	C	0.645955	-0.372914	0.776604
C24	C	0.701390	-0.349807	0.728587
C25	C	0.665342	-0.319095	0.664777
C26	C	0.573858	-0.311495	0.648980
C27	C	0.720769	-0.295991	0.616753
C28	C	0.684721	-0.265279	0.552943
C29	C	0.593246	-0.257679	0.537150
C30	C	0.537810	-0.280787	0.585167
C31	C	0.812253	-0.303591	0.632550
C32	C	0.831631	-0.249775	0.520716
C33	C	0.740156	-0.242172	0.504926
C34	C	1.258454	-0.873063	0.594455
C35	C	1.258486	-0.927668	0.594473
O36	O	1.314428	-0.965462	0.555145
N37	N	1.192757	-0.943746	0.640762
C38	C	1.126996	-0.905214	0.687045
O39	O	1.071092	-0.923903	0.726420
C40	C	1.126969	-0.850609	0.687032
C41	C	1.192697	-0.834535	0.640732
C42	C	1.324178	-0.856988	0.548160
C43	C	1.324145	-0.802386	0.548141
C44	C	1.258388	-0.763859	0.594418
C45	C	1.192664	-0.779933	0.640713
C46	C	1.061213	-0.812078	0.733319
C47	C	1.061191	-0.757470	0.733303
C48	C	1.126920	-0.741396	0.687002
C49	C	1.126874	-0.686804	0.686971
N50	N	1.192604	-0.670726	0.640681
C51	C	1.258361	-0.709254	0.594405
C52	C	1.127060	-1.019888	0.687070
C53	C	1.127083	-1.074492	0.687078
C54	C	1.258574	-1.096943	0.594507
C55	C	1.258547	-1.042338	0.594494
C56	C	1.192789	-1.003811	0.640780
C57	C	1.258286	-0.594585	0.594368
C58	C	1.258244	-0.539977	0.594350
C59	C	1.126757	-0.517531	0.686925
C60	C	1.126795	-0.572134	0.686939
C61	C	1.192567	-0.610660	0.640659
O62	O	1.070963	-0.648980	0.726281
O63	O	1.314262	-0.690556	0.555045
C64	C	1.421075	-0.326505	0.680171
C65	C	1.518431	-0.334603	0.697001
C66	C	1.153096	-0.280610	0.869163
C67	C	1.136256	-0.269151	0.966531
C68	C	1.192774	-0.171135	0.640767
C69	C	1.192843	-0.113024	0.640805
C70	C	1.312696	-0.389234	1.279631
C71	C	1.328513	-0.400004	1.188149
C72	C	1.280450	-0.367291	1.132740
C73	C	1.216567	-0.323808	1.168822
C74	C	1.200743	-0.313040	1.260312
C75	C	1.168498	-0.291098	1.113421
C76	C	1.104614	-0.247614	1.149503
C77	C	1.088794	-0.236848	1.240984
C78	C	1.136857	-0.269560	1.296393
C79	C	1.184322	-0.301865	1.021931
C80	C	1.072369	-0.225671	1.002612
C81	C	1.056552	-0.214902	1.094094
C82	C	1.231970	-0.334297	1.413079
C83	C	1.248809	-0.345754	1.315712
H84	H	0.841594	-0.328597	0.684506
H85	H	1.004537	-0.179498	1.123485
Br86	Br	1.037866	-1.096299	0.749901
Br87	Br	0.971947	-0.705185	0.796127
H88	H	0.775873	-0.355999	0.741448
Br89	Br	1.271016	-0.360877	0.972973
Br90	Br	1.007122	-0.181281	0.927419
Br91	Br	1.415208	-0.459014	1.139186
Br92	Br	1.347452	-0.518167	0.531508
H93	H	0.876768	-0.230960	0.481616
Br94	Br	1.377903	-0.433630	1.354828
H95	H	1.036768	-0.201446	1.270357
H96	H	1.312069	-1.029255	0.556793
Br97	Br	1.115397	-0.254944	1.420554
Br98	Br	1.037805	-0.967605	0.749886
H99	H	1.073275	-0.585221	0.724643
Br100	Br	0.479248	-0.396684	0.825949
H101	H	1.007686	-0.825154	0.771017
H102	H	1.073216	-0.486154	0.724600
H103	H	1.293332	-0.376063	1.058252
H104	H	0.675299	-0.397921	0.828557
H105	H	0.563900	-0.232678	0.485182
Br106	Br	0.413658	-0.270463	0.563747
Br107	Br	0.691222	-0.200491	0.418331
H108	H	1.311845	-0.625948	0.556685
Br109	Br	1.413363	-0.780581	0.485317
H110	H	1.377730	-0.888353	0.510476
H111	H	1.312120	-1.128322	0.556829
