data_functionalizedCrystal
_audit_creation_method	'MofGen! by Chris Wilmer'
_symmetry_space_group_name_H-M	'P1'
_symmetry_Int_Tables_number	1
_symmetry_cell_setting	triclinic
loop_
_symmetry_equiv_pos_as_xyz
  x,y,z
_cell_length_a	20.875641
_cell_length_b	12.970454
_cell_length_c	20.875641
_cell_angle_alpha	57.589721
_cell_angle_beta	89.845060
_cell_angle_gamma	57.589518
loop_
_atom_site_label
_atom_site_type_symbol
_atom_site_fract_x
_atom_site_fract_y
_atom_site_fract_z
Zr1	Zr	0.639074	1.060573	-0.063055
O2	O	0.528540	1.301741	-0.173588
O3	O	0.672959	0.837488	-0.029170
O4	O	0.667660	1.069614	-0.168290
O5	O	0.538020	1.056176	0.075272
O6	O	0.777399	1.056176	-0.164112
O7	O	0.533840	1.069614	-0.034468
O8	O	0.786879	0.640944	0.084748
O9	O	0.528540	1.471408	-0.173588
O10	O	0.769308	0.912520	-0.011601
O11	O	0.690530	0.912519	0.067178
O12	O	0.684291	1.185819	-0.096618
O13	O	0.605513	1.185819	-0.017838
Zr14	Zr	0.820763	1.017708	0.118631
Zr15	Zr	0.814096	1.039141	-0.056391
Zr16	Zr	0.645741	1.039140	0.111967
Zr17	Zr	0.639074	1.331173	-0.063056
Zr18	Zr	0.820763	0.747108	0.118632
O19	O	0.786879	1.240793	0.084746
O20	O	0.777399	1.271267	-0.164112
O21	O	0.538020	1.271267	0.075271
O22	O	0.931297	0.776540	0.229164
O23	O	0.921818	0.807014	-0.019695
O24	O	0.682438	0.807014	0.219689
O25	O	0.921818	1.022105	-0.019695
O26	O	0.792178	1.008666	0.223866
O27	O	0.682438	1.022104	0.219688
O28	O	0.925998	1.008667	0.090044
O29	O	0.667660	1.454373	-0.168291
O30	O	0.792178	0.623908	0.223868
O31	O	0.931297	0.606873	0.229165
O32	O	0.925998	0.623908	0.090045
O33	O	0.533840	1.454372	-0.034469
O34	O	0.672959	1.437337	-0.029172
O35	O	0.775547	0.892462	0.152194
O36	O	0.854325	0.892462	0.073415
O37	O	0.769308	1.165761	-0.011602
O38	O	0.690530	1.165761	0.067177
C39	C	0.729919	0.700661	0.027789
C40	C	0.729919	0.585784	0.027790
C41	C	0.510993	1.065949	0.019452
C42	C	0.436692	1.075047	0.016623
C43	C	0.446160	0.936666	0.059668
C44	C	0.376343	0.945224	0.057008
C45	C	0.297058	1.092166	0.011298
C46	C	0.287591	1.230557	-0.031748
C47	C	0.357407	1.221996	-0.029082
C48	C	0.083495	1.133064	-0.001427
C49	C	0.013677	1.141615	-0.004092
C50	C	0.102435	0.856281	0.084665
C51	C	0.172248	0.847735	0.087323
C52	C	0.162775	0.986125	0.044281
N53	N	0.225693	1.100917	0.008576
N54	N	0.234140	0.977371	0.047008
C55	C	0.948845	1.012332	0.036124
C56	C	1.023146	1.003234	0.038953
C57	C	0.721579	1.065949	-0.191138
C58	C	0.718749	1.075048	-0.265439
C59	C	0.729919	1.377620	0.027787
C60	C	0.729919	1.492497	0.027787
C61	C	0.761798	0.936666	-0.255971
C62	C	0.759132	0.945225	-0.325788
C63	C	0.713421	1.092166	-0.405073
C64	C	0.670367	1.230558	-0.414540
C65	C	0.673029	1.221999	-0.344724
C66	C	0.700696	1.133065	-0.618636
C67	C	0.698040	1.141615	-0.688453
C68	C	0.786804	0.856280	-0.599696
C69	C	0.789465	0.847733	-0.529882
C70	C	0.746408	0.986125	-0.539356
N71	N	0.710697	1.100918	-0.476438
N72	N	0.749128	0.977372	-0.467991
C73	C	0.738258	1.012332	0.246714
C74	C	0.741088	1.003233	0.321016
C75	C	0.948845	0.673853	0.036125
C76	C	1.023146	0.549878	0.038954
C77	C	0.738258	0.673852	0.246715
C78	C	0.741088	0.549877	0.321017
C79	C	0.957184	0.647044	0.255051
C80	C	1.034316	0.513970	0.332182
C81	C	0.502654	1.431237	-0.199475
C82	C	0.425522	1.564310	-0.276605
C83	C	0.510993	1.404428	0.019451
C84	C	0.436692	1.528403	0.016622
C85	C	0.721579	1.404428	-0.191139
C86	C	0.718749	1.528404	-0.265441
C87	C	1.013660	0.502128	-0.004102
C88	C	1.083467	0.385658	-0.001460
C89	C	1.162759	0.316931	0.044243
C90	C	1.172243	0.364692	0.087301
C91	C	1.102437	0.481168	0.084653
C92	C	0.786796	0.481186	0.400295
C93	C	0.789452	0.364713	0.470116
C94	C	0.746406	0.316925	0.460657
C95	C	0.700693	0.385628	0.381371
C96	C	0.698032	0.502107	0.311552
C97	C	1.111666	0.451477	0.327282
C98	C	1.184146	0.326455	0.399748
C99	C	1.179274	0.263921	0.477113
C100	C	1.101915	0.326427	0.482012
C101	C	1.029437	0.451454	0.409546
C102	C	0.348172	1.626817	-0.271705
C103	C	0.275692	1.751873	-0.344171
C104	C	0.280564	1.814412	-0.421537
C105	C	0.357923	1.751899	-0.426435
C106	C	0.430401	1.626853	-0.353970
C107	C	0.446177	1.576165	0.059671
C108	C	0.376369	1.692667	0.057009
C109	C	0.297078	1.761398	0.011304
C110	C	0.287594	1.713632	-0.031750
C111	C	0.357400	1.597140	-0.029093
C112	C	0.761805	1.576154	-0.255956
C113	C	0.759162	1.692625	-0.325763
C114	C	0.713458	1.761352	-0.405054
C115	C	0.670400	1.713591	-0.414538
C116	C	0.673049	1.597114	-0.344731
H117	H	0.384060	0.832540	0.092060
O118	O	0.348326	1.550597	-0.070883
C119	C	0.426935	1.433002	-0.058724
H120	H	0.473824	1.443115	-0.041231
H121	H	0.446663	1.311670	-0.006856
C122	C	0.365226	1.442369	-0.160621
C123	C	0.422814	1.454798	-0.139143
H124	H	0.362684	1.455807	-0.210225
H125	H	0.312265	1.521590	-0.168811
H126	H	0.381673	1.341257	-0.117391
H127	H	0.406361	1.555914	-0.182368
H128	H	0.475773	1.375593	-0.130962
H129	H	0.637983	1.558251	-0.352465
H130	H	1.236812	0.308718	0.124511
O131	O	0.505604	1.566014	-0.358588
C132	C	0.568540	1.442216	-0.278046
H133	H	0.543110	1.457560	-0.232790
H134	H	0.591067	1.324468	-0.259440
C135	C	0.672442	1.426469	-0.331916
C136	C	0.641211	1.445323	-0.276333
H137	H	0.717271	1.428379	-0.330859
H138	H	0.630042	1.509870	-0.386180
H139	H	0.691208	1.328346	-0.316405
H140	H	0.622435	1.543452	-0.291851
H141	H	0.683610	1.361937	-0.222071
H142	H	1.238296	0.162116	0.536113
O143	O	0.936700	0.568765	-0.048571
C144	C	0.943315	0.501599	-0.085986
H145	H	1.005291	0.450536	-0.092077
H146	H	0.939122	0.403645	-0.046144
C147	C	0.796364	0.692249	-0.164967
C148	C	0.872481	0.629543	-0.172455
H149	H	0.752669	0.771166	-0.218304
H150	H	0.791906	0.737496	-0.139758
H151	H	0.792881	0.610606	-0.131763
H152	H	0.875967	0.711181	-0.205650
H153	H	0.876938	0.584312	-0.197672
H154	H	0.212710	1.802750	-0.340167
O155	O	1.116263	0.512352	0.252068
C156	C	1.035712	0.636138	0.189147
H157	H	0.990472	0.620742	0.214586
H158	H	1.017089	0.753889	0.166635
C159	C	1.089553	0.651998	0.085215
C160	C	1.033990	0.633081	0.116459
H161	H	1.088491	0.650119	0.040376
H162	H	1.143823	0.568606	0.127606
H163	H	1.074028	0.750124	0.066462
H164	H	1.049523	0.534950	0.135221
H165	H	0.979723	0.716458	0.074070
O166	O	0.954367	0.511910	0.414460
C167	C	0.965620	0.429917	0.498287
H168	H	1.029345	0.308341	0.537878
H169	H	0.960678	0.498888	0.518639
C170	C	0.820236	0.560734	0.460254
C171	C	0.898502	0.411407	0.508880
H172	H	0.778833	0.549322	0.466788
H173	H	0.812654	0.615980	0.403778
H174	H	0.816130	0.618194	0.477219
H175	H	0.902611	0.353957	0.491907
H176	H	0.906084	0.356151	0.565353
H177	H	0.799023	1.520213	-0.191399
H178	H	1.075729	0.346787	-0.036522
O179	O	0.385741	1.738809	0.098918
C180	C	0.470696	1.653169	0.139818
H181	H	0.508233	1.538178	0.149690
H182	H	0.489754	1.726321	0.100545
C183	C	0.440944	1.757370	0.212085
C184	C	0.487047	1.616130	0.224217
H185	H	0.451031	1.734528	0.264145
H186	H	0.383708	1.815073	0.184528
H187	H	0.456830	1.818316	0.179355
H188	H	0.471153	1.555196	0.256938
H189	H	0.544281	1.558416	0.251782
H190	H	0.349693	1.334679	-0.064124
H191	H	0.665646	0.346701	0.373683
O192	O	0.800965	1.739150	-0.316687
C193	C	0.788820	1.856716	-0.395296
H194	H	0.771328	1.846591	-0.442179
H195	H	0.736958	1.978062	-0.415036
C196	C	0.890727	1.847331	-0.333587
C197	C	0.869249	1.834887	-0.391168
H198	H	0.940338	1.833872	-0.331041
H199	H	0.898907	1.768129	-0.280626
H200	H	0.847502	1.948454	-0.350044
H201	H	0.912469	1.733759	-0.374705
H202	H	0.861079	1.914072	-0.444127
O203	O	0.523256	1.509209	0.104057
C204	C	0.582847	1.396171	0.097163
H205	H	0.555047	1.354207	0.080395
H206	H	0.602732	1.451400	0.046807
C207	C	0.692780	1.306317	0.200903
C208	C	0.658637	1.254766	0.180315
H209	H	0.739533	1.219095	0.252193
H210	H	0.652633	1.382477	0.205546
H211	H	0.709344	1.352342	0.158933
H212	H	0.642065	1.208761	0.222279
H213	H	0.698783	1.178595	0.175681
H214	H	0.361880	1.802835	-0.489435
H215	H	1.247128	0.275576	0.395745
H216	H	0.799024	0.817010	-0.191416
H217	H	0.236802	0.728081	0.124528
O218	O	0.833795	0.297868	0.547186
C219	C	0.826934	0.184788	0.606792
H220	H	0.768155	0.212905	0.577402
H221	H	0.882999	0.062448	0.630737
C222	C	0.895295	0.154013	0.715354
C223	C	0.823099	0.188554	0.679258
H224	H	0.892933	0.156329	0.760057
H225	H	0.899921	0.230192	0.675197
H226	H	0.942008	0.052066	0.735301
H227	H	0.776388	0.290507	0.659302
H228	H	0.818465	0.112392	0.719413
O229	O	0.210509	1.780510	-0.076073
C230	C	0.150939	1.893588	-0.069191
H231	H	0.180364	1.865448	-0.010419
H232	H	0.126995	2.015924	-0.125260
C233	C	0.042324	1.924425	-0.137513
C234	C	0.078463	1.889855	-0.065324
H235	H	-0.002385	1.922130	-0.135131
H236	H	0.082456	1.848247	-0.142152
H237	H	0.022377	2.026370	-0.184229
H238	H	0.098417	1.787905	-0.018611
H239	H	0.038332	1.966016	-0.060677
O240	O	0.626010	1.780580	-0.491624
C241	C	0.632926	1.893599	-0.551193
H242	H	0.649719	1.935505	-0.523367
H243	H	0.683274	1.838375	-0.571086
C244	C	0.529158	1.983578	-0.661157
C245	C	0.549776	2.035057	-0.626982
H246	H	0.477869	2.070833	-0.707909
H247	H	0.524500	1.907431	-0.621025
H248	H	0.571121	1.937557	-0.677727
H249	H	0.507818	2.081058	-0.610403
H250	H	0.554424	2.111215	-0.667113
O251	O	0.210074	1.935829	-0.491845
C252	C	0.140761	1.977599	-0.470920
H253	H	0.159256	1.873064	-0.405866
H254	H	0.117210	2.082044	-0.473078
C255	C	0.049165	2.151735	-0.612923
C256	C	0.071879	2.023340	-0.533026
H257	H	0.006673	2.179958	-0.651235
H258	H	0.095861	2.123600	-0.627022
H259	H	0.029544	2.238758	-0.614710
H260	H	0.091509	1.936315	-0.531238
H261	H	0.025184	2.051462	-0.518928
H262	H	0.510715	0.817010	0.096893
O263	O	0.653756	0.568778	0.234505
C264	C	0.707011	0.540881	0.193668
H265	H	0.764288	0.517318	0.222457
H266	H	0.726368	0.434014	0.200230
C267	C	0.591313	0.715537	0.065949
C268	C	0.661659	0.686610	0.101303
H269	H	0.563338	0.805426	0.008973
H270	H	0.555434	0.734328	0.093461
H271	H	0.607454	0.626471	0.071425
H272	H	0.645516	0.775667	0.095836
H273	H	0.697535	0.667837	0.073788
H274	H	1.097960	0.275494	0.545012
H275	H	0.110138	0.743612	0.119708
H276	H	0.240243	1.856252	0.009147
H277	H	-0.050882	1.261278	-0.041318
H278	H	0.344189	1.575906	-0.208717
H279	H	0.075771	1.245753	-0.036490
H280	H	0.223031	1.350199	-0.068961
H281	H	0.826691	0.728077	-0.465328
O282	O	0.828544	0.722011	-0.590643
C283	C	0.816364	0.761063	-0.669263
H284	H	0.756845	0.887394	-0.717720
H285	H	0.870896	0.750260	-0.684994
C286	C	0.882900	0.492501	-0.608920
C287	C	0.809794	0.647659	-0.668435
H288	H	0.878851	0.422545	-0.608409
H289	H	0.891110	0.466188	-0.555952
H290	H	0.928336	0.483521	-0.622036
H291	H	0.764361	0.656641	-0.655313
H292	H	0.801577	0.673970	-0.721401
H293	H	0.794187	0.832540	-0.318071
H294	H	0.660813	1.261278	-0.753013
H295	H	0.711308	1.856194	-0.461889
H296	H	0.633144	1.350202	-0.479100
O297	O	0.631194	1.356572	-0.354065
C298	C	0.590261	1.488105	-0.439014
H299	H	0.622373	1.449815	-0.474973
H300	H	0.523124	1.539391	-0.462110
C301	C	0.553419	1.661258	-0.407869
C302	C	0.592864	1.614232	-0.452034
H303	H	0.555021	1.739064	-0.415901
H304	H	0.580994	1.572644	-0.350637
H305	H	0.497475	1.703987	-0.427121
H306	H	0.648809	1.571487	-0.432775
H307	H	0.565299	1.702843	-0.509264
H308	H	1.219593	0.222089	0.046393
H309	H	0.665640	1.245754	-0.626360
H310	H	1.110172	0.520029	0.119720
H311	H	0.748579	0.222078	0.517516
H312	H	0.821850	0.520081	0.408011
