data_functionalizedCrystal
_audit_creation_method	'MofGen! by Chris Wilmer'
_symmetry_space_group_name_H-M	'P1'
_symmetry_Int_Tables_number	1
_symmetry_cell_setting	triclinic
loop_
_symmetry_equiv_pos_as_xyz
  x,y,z
_cell_length_a	10.489746
_cell_length_b	10.489716
_cell_length_c	9.482900
_cell_angle_alpha	99.433190
_cell_angle_beta	80.617087
_cell_angle_gamma	84.535218
loop_
_atom_site_label
_atom_site_type_symbol
_atom_site_fract_x
_atom_site_fract_y
_atom_site_fract_z
O1	O	1.713716	0.160230	-0.120783
O2	O	1.342523	0.177112	-0.120806
O3	O	1.536583	-0.016930	-0.120800
O4	O	1.519656	0.354271	-0.120790
O5	O	1.497166	0.022644	0.120992
O6	O	1.303106	0.216686	0.120985
O7	O	1.674299	0.199804	0.121008
Cu8	Cu	1.485104	0.211858	0.143074
Cu9	Cu	1.531718	0.165058	-0.142872
O10	O	1.480239	0.393845	0.121001
C11	C	1.275284	0.195622	0.000086
C12	C	1.133656	0.191800	0.000077
C13	C	0.980807	0.066078	0.000094
C14	C	1.038761	0.148447	0.119307
C15	C	1.077578	0.109460	-0.119080
C16	C	0.939240	0.267449	0.119424
C17	C	0.978069	0.228427	-0.119071
C18	C	1.035970	0.310888	0.000172
C19	C	1.515603	-0.044676	0.000091
C20	C	1.511801	-0.186309	0.000078
C21	C	1.630802	-0.283977	0.000099
C22	C	1.587352	-0.380851	-0.119117
C23	C	1.548463	-0.341798	0.119270
C24	C	1.468417	-0.281333	-0.119236
C25	C	1.429528	-0.242258	0.119258
C26	C	1.385995	-0.339087	0.000013
C27	C	1.741539	0.181294	0.000112
C28	C	1.883168	0.185113	0.000112
C29	C	1.501219	0.421591	0.000107
C30	C	1.505023	0.563222	0.000111
N31	N	1.452327	0.244775	0.344193
N32	N	1.564505	0.132131	-0.343991
C33	C	1.522042	0.174760	0.416394
C34	C	1.494780	0.202156	0.583811
H35	H	1.060426	0.414479	0.000240
H36	H	0.950995	0.262135	-0.219861
H37	H	1.414902	0.282382	0.645932
H38	H	1.734334	-0.259317	-0.000016
H39	H	1.137456	0.042692	-0.219868
H40	H	0.956076	-0.037405	0.000212
H41	H	1.362905	-0.182245	0.220046
H42	H	1.582294	-0.368774	0.220055
H43	H	1.601905	0.094529	0.354269
H44	H	1.065812	0.114694	0.220093
H45	H	0.879507	0.334179	0.220326
H46	H	1.654018	-0.440840	-0.219901
H47	H	1.434656	-0.254544	-0.220136
H48	H	1.282415	-0.363531	-0.000058
H49	H	1.644374	0.051896	0.593887
H50	H	1.372454	0.324995	0.406320
