data_functionalizedCrystal
_audit_creation_method	'MofGen! by Chris Wilmer'
_symmetry_space_group_name_H-M	'P1'
_symmetry_Int_Tables_number	1
_symmetry_cell_setting	triclinic
loop_
_symmetry_equiv_pos_as_xyz
  x,y,z
_cell_length_a	6.817900
_cell_length_b	11.102244
_cell_length_c	16.255661
_cell_angle_alpha	93.853574
_cell_angle_beta	103.488922
_cell_angle_gamma	108.604870
loop_
_atom_site_label
_atom_site_type_symbol
_atom_site_fract_x
_atom_site_fract_y
_atom_site_fract_z
V1	V	-4.052933	-0.176865	-0.263869
O2	O	-4.013087	0.007443	-0.258848
O3	O	-4.030105	-0.349678	-0.262062
O4	O	-4.004160	-0.174608	-0.378952
O5	O	-4.039211	-0.168839	-0.141149
V6	V	-4.533296	-0.154765	-0.249191
O7	O	-4.321124	-0.225343	-0.296066
O8	O	-4.715302	-0.106287	-0.216993
O9	O	-4.332917	0.018048	-0.250998
O10	O	-4.690538	-0.339073	-0.254212
O11	O	-4.664414	-0.162791	-0.371911
O12	O	-4.358862	-0.157022	-0.134107
C13	C	-3.881339	-0.391791	-0.257899
C14	C	-3.943959	-0.533071	-0.257189
C15	C	-3.930414	-0.581003	-0.179357
C16	C	-3.989265	-0.713752	-0.178699
C17	C	-4.075195	-0.750628	-0.333712
C18	C	-4.016359	-0.617881	-0.334369
C19	C	-3.880795	-0.559714	-0.089861
C20	C	-3.939646	-0.692463	-0.089204
C21	C	-3.848243	-0.168471	-0.407003
C22	C	-3.889818	-0.167769	-0.501084
C23	C	-3.799132	-0.159385	-0.723903
C24	C	-3.971590	-0.267594	-0.793378
C25	C	-3.966008	-0.166453	-0.673333
C26	C	-3.867656	-0.057005	-0.771495
C27	C	-4.039586	-0.165176	-0.839716
C28	C	-4.137962	-0.274759	-0.741577
C29	C	-4.033952	-0.064074	-0.719680
C30	C	-4.206551	-0.172314	-0.789135
C31	C	-3.923616	-0.167190	-0.577483
C32	C	-4.081997	-0.164449	-0.935565
C33	C	-4.145026	0.060154	-0.255159
C34	C	-4.061645	0.201433	-0.255874
C35	C	-4.178122	-0.163163	-0.106052
C36	C	-4.115784	-0.163859	-0.011970
H37	H	-4.087517	-0.732169	-0.064570
C38	C	-3.936594	-0.383828	-0.836737
C39	C	-4.070740	-0.521385	-0.829102
C40	C	-4.035728	-0.637613	-0.872459
C41	C	-3.866570	-0.616283	-0.923451
C42	C	-3.732412	-0.478720	-0.931089
C43	C	-3.767425	-0.362493	-0.887732
H44	H	-4.195971	-0.537180	-0.791352
H45	H	-4.135041	-0.739446	-0.866805
H46	H	-3.840652	-0.702321	-0.955547
H47	H	-3.607181	-0.462925	-0.968838
H48	H	-3.668112	-0.260660	-0.893386
H49	H	-4.059789	0.021975	-0.687572
H50	H	-4.027409	-0.578862	-0.397748
H51	H	-3.753781	0.034998	-0.785106
C52	C	-4.291803	-0.399222	-0.723392
C53	C	-4.280539	-0.422934	-0.630423
C54	C	-4.434369	-0.547396	-0.612236
C55	C	-4.599462	-0.648145	-0.687018
C56	C	-4.610731	-0.624436	-0.779993
C57	C	-4.456902	-0.499974	-0.798180
H58	H	-4.158322	-0.348351	-0.575059
H59	H	-4.426025	-0.564946	-0.543409
H60	H	-4.713335	-0.740279	-0.673554
H61	H	-4.732949	-0.699019	-0.835357
H62	H	-4.465245	-0.482424	-0.867007
H63	H	-3.702140	-0.506792	-0.058952
H64	H	-4.379239	-0.177810	-0.817481
H65	H	-3.796013	-0.715335	-0.051428
H66	H	-4.134148	-0.819696	-0.396550
H67	H	-3.986326	-0.520498	-0.058915
H68	H	-3.626588	-0.154059	-0.695422
