data_functionalizedCrystal
_audit_creation_method	'MofGen! by Chris Wilmer'
_symmetry_space_group_name_H-M	'P1'
_symmetry_Int_Tables_number	1
_symmetry_cell_setting	triclinic
loop_
_symmetry_equiv_pos_as_xyz
  x,y,z
_cell_length_a	10.654550
_cell_length_b	10.654550
_cell_length_c	9.730223
_cell_angle_alpha	89.995747
_cell_angle_beta	89.999957
_cell_angle_gamma	84.484931
loop_
_atom_site_label
_atom_site_type_symbol
_atom_site_fract_x
_atom_site_fract_y
_atom_site_fract_z
O1	O	1.667839	0.176399	-0.114187
O2	O	1.302361	0.193205	-0.114212
O3	O	1.493503	0.002062	-0.114190
O4	O	1.476697	0.367541	-0.114209
O5	O	1.493490	0.002057	0.114390
O6	O	1.302348	0.193199	0.114368
O7	O	1.667827	0.176393	0.114393
Zn8	Zn	1.485085	0.184796	0.150672
Zn9	Zn	1.485102	0.184802	-0.150492
O10	O	1.476684	0.367536	0.114371
C11	C	1.255556	0.191968	0.000075
C12	C	1.116113	0.188276	0.000065
C13	C	1.492263	-0.044738	0.000099
C14	C	1.488571	-0.184181	0.000096
C15	C	1.036628	0.300818	0.000064
C16	C	0.905607	0.297341	0.000088
C17	C	0.933570	0.068772	0.000109
C18	C	1.064588	0.072250	0.000095
C19	C	1.601112	-0.263667	0.000104
C20	C	1.597636	-0.394688	0.000087
C21	C	1.369066	-0.366725	0.000061
C22	C	1.372544	-0.235706	0.000068
C23	C	1.714631	0.177630	0.000103
C24	C	1.854074	0.181322	0.000104
C25	C	1.477925	0.414336	0.000079
C26	C	1.481617	0.553779	0.000072
N27	N	1.485083	0.184790	0.356209
N28	N	1.485114	0.184798	-0.356028
C29	C	1.569750	0.100188	0.428144
C30	C	1.569763	0.100189	0.572027
C31	C	1.400438	0.269404	0.572026
C32	C	1.400420	0.269396	0.428146
H33	H	0.840894	0.388984	0.000089
N34	N	1.309126	0.360654	0.649616
H35	H	1.321985	0.347825	0.751680
H36	H	1.324397	0.449886	0.624449
H37	H	1.695588	-0.221720	0.000124
H38	H	1.078574	0.395294	0.000049
N39	N	1.309092	0.360657	0.350561
H40	H	1.357554	0.416709	0.290845
H41	H	1.253086	0.312049	0.290964
N42	N	1.243926	-0.422294	0.000055
H43	H	1.194573	-0.393376	-0.084682
H44	H	1.258900	-0.517346	0.000111
N45	N	0.877996	-0.056366	0.000149
H46	H	0.782935	-0.041495	0.000157
H47	H	0.906995	-0.105671	-0.084583
H48	H	1.280893	-0.170985	0.000058
H49	H	1.129309	-0.019401	0.000100
H50	H	1.689279	-0.459401	0.000090
N51	N	1.661093	0.008952	0.649616
H52	H	1.717108	0.057479	0.709297
H53	H	1.612546	-0.047086	0.709250
N54	N	1.661059	0.008938	0.350552
H55	H	1.714695	-0.044658	0.417961
H56	H	1.612494	-0.047037	0.290869
