data_functionalizedCrystal
_audit_creation_method	'MofGen! by Chris Wilmer'
_symmetry_space_group_name_H-M	'P1'
_symmetry_Int_Tables_number	1
_symmetry_cell_setting	triclinic
loop_
_symmetry_equiv_pos_as_xyz
  x,y,z
_cell_length_a	9.130307
_cell_length_b	9.065218
_cell_length_c	9.065218
_cell_angle_alpha	85.015885
_cell_angle_beta	89.998522
_cell_angle_gamma	89.998400
loop_
_atom_site_label
_atom_site_type_symbol
_atom_site_fract_x
_atom_site_fract_y
_atom_site_fract_z
O1	O	0.121797	-1.960395	-0.216354
O2	O	0.121798	-1.531111	-0.234101
O3	O	0.121794	-1.754626	-0.010585
O4	O	0.121800	-1.736880	-0.439870
O5	O	-0.121805	-1.754619	-0.010583
O6	O	-0.121801	-1.531103	-0.234099
O7	O	-0.121802	-1.960388	-0.216352
Cu8	Cu	-0.144044	-1.745745	-0.225225
Cu9	Cu	0.144040	-1.745754	-0.225228
O10	O	-0.121799	-1.736872	-0.439868
C11	C	-0.000001	-1.476120	-0.232394
C12	C	-0.000000	-1.312277	-0.227294
C13	C	-0.000003	-1.752917	0.044403
C14	C	0.000004	-1.747817	0.208245
N15	N	-0.346667	-1.745750	-0.225222
C16	C	-0.346660	-1.943755	-0.027358
C17	C	-0.423324	-2.042767	0.071570
C18	C	-0.576657	-2.042782	0.071571
C19	C	-0.653331	-1.943771	-0.027364
C20	C	-0.576667	-1.844758	-0.126292
C21	C	-0.423330	-1.844757	-0.126285
C22	C	-0.576674	-1.646748	-0.324147
C23	C	-0.423340	-1.646738	-0.324157
C24	C	-0.653347	-1.547737	-0.423081
C25	C	-0.576684	-1.448729	-0.522019
C26	C	-0.423341	-1.448720	-0.522017
C27	C	-0.346677	-1.547726	-0.423085
N28	N	0.346663	-1.745761	-0.225219
C29	C	0.000000	-2.015378	-0.218059
C30	C	0.000009	-2.179221	-0.223158
C31	C	0.000002	-1.738582	-0.494855
C32	C	0.000004	-1.743681	-0.658698
H33	H	-0.221808	-1.943765	-0.027361
H34	H	-0.360930	-1.368086	-0.602570
H35	H	-0.639077	-2.123401	0.152131
H36	H	-0.360883	-2.123379	0.152124
H37	H	-0.778183	-1.943776	-0.027345
H38	H	-0.778200	-1.547747	-0.423070
H39	H	-0.221825	-1.547732	-0.423080
H40	H	-0.639121	-1.368115	-0.602558
