data_functionalizedCrystal
_audit_creation_method	'MofGen! by Chris Wilmer'
_symmetry_space_group_name_H-M	'P1'
_symmetry_Int_Tables_number	1
_symmetry_cell_setting	triclinic
loop_
_symmetry_equiv_pos_as_xyz
  x,y,z
_cell_length_a	10.654550
_cell_length_b	12.837942
_cell_length_c	9.730223
_cell_angle_alpha	89.998888
_cell_angle_beta	89.996251
_cell_angle_gamma	89.656921
loop_
_atom_site_label
_atom_site_type_symbol
_atom_site_fract_x
_atom_site_fract_y
_atom_site_fract_z
O1	O	-1.683735	-0.145718	0.114403
O2	O	-1.319772	-0.159602	0.114381
O3	O	-1.493683	-0.001699	0.114383
O4	O	-1.509824	-0.303621	0.114401
O5	O	-1.493681	-0.001703	-0.114196
O6	O	-1.319770	-0.159606	-0.114199
O7	O	-1.683734	-0.145722	-0.114177
Zn8	Zn	-1.501752	-0.152665	-0.150480
Zn9	Zn	-1.501754	-0.152659	0.150684
O10	O	-1.509822	-0.303625	-0.114179
C11	C	-1.272862	-0.158585	0.000089
C12	C	-1.133086	-0.155535	0.000080
C13	C	-1.488230	0.036959	0.000094
C14	C	-1.471967	0.152153	0.000095
C15	C	-1.730644	-0.146740	0.000119
C16	C	-1.870420	-0.149790	0.000137
C17	C	-1.063745	-0.248505	0.000105
C18	C	-0.932411	-0.245633	0.000129
C19	C	-0.939770	-0.056812	0.000107
C20	C	-1.071101	-0.059685	0.000074
C21	C	-1.125730	-0.344355	0.000112
C22	C	-1.056389	-0.437333	0.000139
C23	C	-0.925055	-0.434461	0.000162
C24	C	-0.863061	-0.338611	0.000159
C25	C	-1.515276	-0.342283	0.000114
C26	C	-1.531538	-0.457477	0.000122
N27	N	-1.501759	-0.152668	-0.356016
C28	C	-1.667472	0.391705	0.000136
C29	C	-1.652197	0.499941	0.000137
C30	C	-1.426146	0.476862	0.000109
C31	C	-1.441420	0.368626	0.000108
C32	C	-1.562087	0.326052	0.000119
C33	C	-1.577360	0.217814	0.000108
C34	C	-1.351309	0.194737	0.000090
C35	C	-1.336035	0.302973	0.000091
C36	C	-1.578792	-0.082772	-0.427941
C37	C	-1.578787	-0.082760	-0.571824
C38	C	-1.424714	-0.222547	-0.571844
C39	C	-1.424713	-0.222554	-0.427964
C40	C	-1.655838	-0.012886	-0.355993
C41	C	-1.732877	0.057014	-0.427919
C42	C	-1.732873	0.057027	-0.571801
C43	C	-1.655828	-0.012861	-0.643759
N44	N	-1.501755	-0.152648	0.356221
H45	H	-1.106873	-0.515371	0.000130
H46	H	-1.675613	0.183153	0.000112
N47	N	-1.237640	0.123918	0.000075
H48	H	-1.185564	0.137704	0.084803
H49	H	-1.185671	0.137748	-0.084722
N50	N	-0.872919	0.046566	0.000124
H51	H	-0.897358	0.087339	-0.084620
H52	H	-0.779217	0.034197	0.000205
N53	N	-1.267381	-0.347456	0.000069
H54	H	-1.301903	-0.274014	0.000049
H55	H	-1.297492	-0.385252	0.084807
H56	H	-1.327904	0.511545	0.000115
H57	H	-1.361989	-0.279448	-0.630441
N58	N	-0.850262	-0.534737	0.000103
H59	H	-0.909462	-0.595888	0.000077
H60	H	-0.795603	-0.537691	0.084828
H61	H	-1.765723	0.357041	0.000131
H62	H	-1.738013	0.553393	0.000155
H63	H	-1.237791	0.337651	0.000087
H64	H	-0.756120	-0.336280	0.000157
H65	H	-1.127560	0.016020	0.000057
H66	H	-1.655851	-0.012892	-0.238837
N67	N	-1.815942	0.132412	-0.350318
H68	H	-1.804253	0.121804	-0.248255
H69	H	-1.906546	0.119758	-0.375455
H70	H	-1.361985	-0.279468	-0.369402
N71	N	-1.815970	0.132405	-0.649382
H72	H	-1.864782	0.176668	-0.581966
H73	H	-1.876276	0.092240	-0.709068
H74	H	-1.655822	-0.012838	-0.760918
