data_functionalizedCrystal
_audit_creation_method	'MofGen! by Chris Wilmer'
_symmetry_space_group_name_H-M	'P1'
_symmetry_Int_Tables_number	1
_symmetry_cell_setting	triclinic
loop_
_symmetry_equiv_pos_as_xyz
  x,y,z
_cell_length_a	10.540539
_cell_length_b	10.540539
_cell_length_c	9.616153
_cell_angle_alpha	89.999906
_cell_angle_beta	89.995174
_cell_angle_gamma	84.525492
loop_
_atom_site_label
_atom_site_type_symbol
_atom_site_fract_x
_atom_site_fract_y
_atom_site_fract_z
O1	O	1.685892	0.178895	-0.115573
O2	O	1.316479	0.195751	-0.115589
O3	O	1.509614	0.002617	-0.115579
O4	O	1.492758	0.372030	-0.115583
O5	O	1.509587	0.002621	0.115712
O6	O	1.316452	0.195755	0.115702
O7	O	1.685865	0.178899	0.115718
Zn8	Zn	1.501155	0.187328	0.152433
Zn9	Zn	1.501190	0.187323	-0.152304
O10	O	1.492731	0.372034	0.115708
C11	C	1.269163	0.194489	0.000054
C12	C	1.128215	0.190707	0.000048
C13	C	1.508336	-0.044684	0.000064
C14	C	1.504554	-0.185632	0.000056
C15	C	0.944788	0.045790	0.000589
C16	C	1.091406	0.049624	0.000054
C17	C	1.066557	0.258600	-0.132027
C18	C	0.920013	0.253785	-0.132123
C19	C	0.919494	0.256660	0.130899
C20	C	1.066476	0.257959	0.132630
C21	C	1.359637	-0.369059	-0.000469
C22	C	1.363471	-0.222441	0.000052
C23	C	1.572435	-0.247288	0.132138
C24	C	1.567620	-0.393832	0.132249
C25	C	1.570519	-0.394355	-0.130772
C26	C	1.571819	-0.247373	-0.132518
C27	C	1.733182	0.180161	0.000072
C28	C	1.874130	0.183943	0.000069
C29	C	1.494008	0.419335	0.000062
C30	C	1.497790	0.560283	0.000060
N31	N	1.501140	0.187331	0.360407
N32	N	1.501215	0.187310	-0.360278
C33	C	1.397510	0.290298	0.580772
C34	C	1.397739	0.290684	0.419604
C35	C	1.633864	0.217464	0.418862
C36	C	1.633299	0.218193	0.580080
C37	C	1.473368	0.053892	0.580319
C38	C	1.470321	0.054757	0.419092
H39	H	0.916192	-0.009944	0.095307
N40	N	1.096178	0.395835	-0.138565
H41	H	1.061246	0.442534	-0.053010
H42	H	1.191536	0.399198	-0.142836
H43	H	1.522152	-0.206516	-0.230229
H44	H	1.133162	-0.004177	-0.094786
N45	N	1.340946	0.024537	0.368586
H46	H	1.302454	0.096408	0.307931
H47	H	1.350319	-0.057149	0.313055
N48	N	1.665548	0.347122	0.629897
H49	H	1.752697	0.363551	0.594483
H50	H	1.599975	0.415239	0.593658
N51	N	0.904765	-0.027755	-0.124142
H52	H	0.841065	0.028030	-0.180986
H53	H	0.981989	-0.054752	-0.183037
H54	H	1.109157	0.211434	-0.230318
N55	N	1.738659	0.122711	0.631779
H56	H	1.700987	0.056034	0.690169
H57	H	1.785250	0.080409	0.549772
N58	N	1.738589	0.120819	0.368083
H59	H	1.700915	0.056420	0.306548
H60	H	1.802892	0.165629	0.313399
N61	N	0.856945	0.391643	0.132108
H62	H	0.881151	0.437160	0.045009
H63	H	0.761334	0.390208	0.135781
N64	N	0.877708	0.196171	0.263506
H65	H	0.955086	0.166219	0.320868
H66	H	0.821080	0.260798	0.318271
N67	N	1.510057	-0.436143	-0.263384
H68	H	1.574639	-0.492745	-0.318244
H69	H	1.434896	-0.484859	-0.239875
H70	H	0.891814	0.203603	-0.230849
H71	H	0.872044	0.355250	-0.138119
H72	H	1.674680	-0.223152	-0.140490
N73	N	1.120709	0.192263	0.262061
H74	H	1.080646	0.235940	0.346988
H75	H	1.101843	0.100109	0.261097
H76	H	1.090701	0.360819	0.140603
N77	N	1.666854	0.344945	0.365384
H78	H	1.748878	0.333016	0.310591
H79	H	1.595952	0.383287	0.303362
H80	H	1.525259	-0.204686	0.230425
N81	N	1.709671	-0.217667	0.138631
H82	H	1.724288	-0.169494	0.227089
H83	H	1.767399	-0.299837	0.137267
N84	N	1.292719	-0.165997	-0.125358
H85	H	1.258753	-0.236356	-0.181477
H86	H	1.219465	-0.103963	-0.093706
N87	N	1.267101	0.266711	0.367248
H88	H	1.266997	0.266928	0.262217
H89	H	1.244720	0.181253	0.402117
H90	H	1.303917	-0.397661	-0.095187
H91	H	1.378631	0.025213	0.621052
H92	H	1.304122	-0.399265	0.093714
H93	H	1.540848	-0.025564	0.378801
H94	H	1.415638	0.389668	0.381024
H95	H	1.298585	0.272445	0.619578
N96	N	1.292205	-0.167114	0.125672
H97	H	1.258181	-0.237986	0.180929
H98	H	1.351855	-0.121321	0.185749
N99	N	1.501141	-0.431197	0.263022
H100	H	1.475231	-0.352505	0.320053
H101	H	1.422845	-0.474284	0.237314
H102	H	1.548980	-0.022762	0.618439
H103	H	1.669084	-0.441801	0.138246
H104	H	1.134009	-0.003797	0.094731
H105	H	1.672423	-0.441581	-0.131656
H106	H	1.415178	0.388722	0.621270
