data_functionalizedCrystal
_audit_creation_method	'MofGen! by Chris Wilmer'
_symmetry_space_group_name_H-M	'P1'
_symmetry_Int_Tables_number	1
_symmetry_cell_setting	triclinic
loop_
_symmetry_equiv_pos_as_xyz
  x,y,z
_cell_length_a	13.339070
_cell_length_b	10.654550
_cell_length_c	9.130313
_cell_angle_alpha	90.004369
_cell_angle_beta	90.003801
_cell_angle_gamma	100.057112
loop_
_atom_site_label
_atom_site_type_symbol
_atom_site_fract_x
_atom_site_fract_y
_atom_site_fract_z
O1	O	-1.346709	-0.631121	-0.121851
O2	O	-1.051601	-0.548283	-0.121843
O3	O	-1.205940	-0.409254	-0.121838
O4	O	-1.192370	-0.770150	-0.121856
O5	O	-1.205930	-0.409244	0.121761
O6	O	-1.051590	-0.548273	0.121756
O7	O	-1.346699	-0.631112	0.121748
Cu8	Cu	-1.199143	-0.589692	0.143994
Cu9	Cu	-1.199156	-0.589703	-0.144089
O10	O	-1.192359	-0.770141	0.121743
C11	C	-1.013808	-0.534285	-0.000042
C12	C	-0.901214	-0.492575	-0.000039
N13	N	-1.199142	-0.589686	0.346617
C14	C	-1.384491	-0.645110	-0.000056
C15	C	-1.497086	-0.686819	-0.000069
C16	C	-0.538696	-0.816889	-0.000078
C17	C	-0.644484	-0.856082	-0.000086
C18	C	-0.708672	-0.765208	-0.000074
C19	C	-0.667061	-0.635136	-0.000054
C20	C	-0.561263	-0.595939	-0.000058
C21	C	-0.731238	-0.544259	-0.000054
C22	C	-0.689628	-0.414186	-0.000034
C23	C	-0.583840	-0.374996	-0.000037
C24	C	-0.519653	-0.465870	-0.000049
C25	C	-0.837036	-0.583455	-0.000050
C26	C	-0.859603	-0.362505	-0.000030
C27	C	-0.753816	-0.323313	-0.000022
C28	C	-1.204938	-0.362115	-0.000039
C29	C	-1.201957	-0.221665	-0.000041
C30	C	-1.193361	-0.817280	-0.000059
C31	C	-1.196342	-0.957730	-0.000066
C32	C	-1.292830	-0.172863	-0.000045
C33	C	-1.290023	-0.040894	-0.000062
C34	C	-1.105463	-0.006540	-0.000068
C35	C	-1.108271	-0.138506	-0.000060
N36	N	-1.199166	-0.589701	-0.346712
C37	C	-1.267507	-0.528168	0.423271
C38	C	-1.267516	-0.528171	0.576608
C39	C	-1.130793	-0.651221	0.576623
C40	C	-1.130780	-0.651209	0.423289
H41	H	-0.794808	-0.797127	-0.000083
H42	H	-0.870905	-0.689361	-0.000060
H43	H	-1.029186	0.061184	-0.000080
H44	H	-1.075104	-0.701304	0.360873
H45	H	-1.364021	-0.001167	-0.000068
C46	C	-0.611544	-1.070536	-0.000095
C47	C	-0.690219	-0.999049	-0.000093
H48	H	-0.639782	-1.158802	-0.000088
H49	H	-0.570759	-1.050659	-0.085039
H50	H	-0.570743	-1.050639	0.084859
H51	H	-0.731016	-1.018939	-0.085053
H52	H	-0.731021	-1.018935	0.084860
C53	C	-1.451001	-0.242794	-0.125282
C54	C	-1.395806	-0.264276	-0.000048
H55	H	-1.514573	-0.299233	-0.125291
H56	H	-1.462333	-0.157225	-0.125275
H57	H	-1.413535	-0.257376	-0.210215
H58	H	-1.433269	-0.249684	0.084885
H59	H	-1.384478	-0.349864	-0.000042
C60	C	-0.925551	-0.091302	-0.000051
C61	C	-1.008376	-0.192158	-0.000052
H62	H	-0.863885	-0.124428	-0.000041
H63	H	-0.928297	-0.040556	-0.084996
H64	H	-0.928294	-0.040533	0.084901
H65	H	-1.005637	-0.242921	-0.085010
H66	H	-1.005629	-0.242925	0.084902
H67	H	-1.323184	-0.478076	0.639015
C68	C	-1.402643	-0.406526	0.438663
C69	C	-1.342640	-0.460527	0.338992
H70	H	-1.449021	-0.364757	0.386632
H71	H	-1.439489	-0.471668	0.498443
H72	H	-1.360108	-0.346510	0.498494
H73	H	-1.385173	-0.520550	0.279167
H74	H	-1.305791	-0.395377	0.279186
H75	H	-0.486426	-0.890864	-0.000101
H76	H	-0.549965	-0.269083	-0.000038
C77	C	-0.995637	-0.772832	0.561236
C78	C	-1.055652	-0.718847	0.660905
H79	H	-0.949243	-0.814574	0.613269
H80	H	-1.038154	-0.832853	0.501415
H81	H	-0.958799	-0.707672	0.501446
H82	H	-1.092497	-0.784008	0.720688
H83	H	-1.013130	-0.658820	0.720751
C84	C	-1.031792	-0.324475	-0.000003
C85	C	-0.930149	-0.262605	-0.000012
H86	H	-1.075346	-0.262804	0.000013
H87	H	-1.044493	-0.376282	-0.084948
H88	H	-1.044473	-0.376283	0.084949
H89	H	-0.917465	-0.210804	-0.084971
H90	H	-0.917442	-0.210776	0.084942
H91	H	-0.719921	-0.217405	-0.000019
H92	H	-0.433511	-0.433965	-0.000042
