data_functionalizedCrystal
_audit_creation_method	'MofGen! by Chris Wilmer'
_symmetry_space_group_name_H-M	'P1'
_symmetry_Int_Tables_number	1
_symmetry_cell_setting	triclinic
loop_
_symmetry_equiv_pos_as_xyz
  x,y,z
_cell_length_a	12.759401
_cell_length_b	16.120484
_cell_length_c	12.759393
_cell_angle_alpha	92.862621
_cell_angle_beta	89.982620
_cell_angle_gamma	92.925560
loop_
_atom_site_label
_atom_site_type_symbol
_atom_site_fract_x
_atom_site_fract_y
_atom_site_fract_z
Zn1	Zn	1.584960	-0.331851	-0.615146
Zn2	Zn	1.575915	-0.471289	-0.448359
Zn3	Zn	1.409262	-0.331895	-0.439488
Zn4	Zn	1.400312	-0.471225	-0.623996
O5	O	1.492612	-0.401565	-0.531747
O6	O	1.730780	-0.350357	-0.593029
O7	O	1.553768	-0.452844	-0.300164
O8	O	1.440101	-0.215224	-0.455373
O9	O	1.724135	-0.452801	-0.470492
O10	O	1.569185	-0.215192	-0.584428
O11	O	1.431330	-0.350432	-0.293646
O12	O	1.261055	-0.350369	-0.463955
O13	O	1.424845	-0.452691	-0.769840
O14	O	1.254478	-0.452734	-0.599512
O15	O	1.560505	-0.350294	-0.763338
O16	O	1.545089	-0.587946	-0.479074
O17	O	1.416074	-0.587899	-0.608114
C18	C	1.219646	-0.401550	-0.531732
C19	C	1.102868	-0.401563	-0.531751
C20	C	1.044604	-0.454950	-0.602230
C21	C	0.934879	-0.454961	-0.602242
C22	C	0.941693	-0.348196	-0.461287
C23	C	1.051416	-0.348181	-0.461281
C24	C	1.096056	-0.508332	-0.672701
C25	C	1.037792	-0.561724	-0.743185
C26	C	0.928067	-0.561734	-0.743197
C27	C	0.876607	-0.508353	-0.672725
C28	C	1.478657	-0.618172	-0.545539
C29	C	1.472783	-0.710838	-0.551475
C30	C	1.462065	-0.880498	-0.562333
C31	C	1.523347	-0.921791	-0.501178
C32	C	1.517384	-1.016197	-0.507219
C33	C	1.468028	-0.786085	-0.556293
C34	C	1.766644	-0.401581	-0.531763
C35	C	1.883421	-0.401588	-0.531770
C36	C	1.492686	-0.401480	-0.805775
C37	C	1.492717	-0.401444	-0.922549
C38	C	1.506650	-0.184112	-0.517924
C39	C	1.512632	-0.091447	-0.512033
C40	C	1.428993	-0.348108	-0.974023
C41	C	1.429026	-0.348083	-1.083746
C42	C	1.556517	-0.454733	-1.090511
C43	C	1.556478	-0.454761	-0.980791
C44	C	1.365232	-0.294791	-0.915782
C45	C	1.301503	-0.241450	-0.967256
C46	C	1.301536	-0.241426	-1.076978
C47	C	1.365299	-0.294742	-1.135227
C48	C	1.492603	-0.401590	-0.258781
C49	C	1.492790	-0.401391	-0.141992
H50	H	1.185399	-0.508331	-0.672697
C51	C	1.093849	-0.619643	-0.819581
C52	C	1.202410	-0.608225	-0.804469
C53	C	1.254080	-0.661573	-0.874819
H54	H	1.076799	-0.607562	-0.889472
H55	H	1.072318	-0.675664	-0.807646
H56	H	1.223932	-0.552216	-0.816412
H57	H	1.219491	-0.620311	-0.734593
H58	H	1.232549	-0.717594	-0.862885
H59	H	1.237021	-0.649488	-0.944706
H60	H	1.327743	-0.653839	-0.864570
C61	C	1.599163	-0.874249	-0.425334
C62	C	1.590050	-0.788707	-0.434311
C63	C	1.659857	-0.744882	-0.364450
H64	H	1.668921	-0.888303	-0.441575
H65	H	1.582924	-0.888482	-0.355603
H66	H	1.606295	-0.774479	-0.504026
H67	H	1.520307	-0.774628	-0.418061
H68	H	1.643618	-0.759116	-0.294719
H69	H	1.729610	-0.758943	-0.380697
H70	H	1.653676	-0.686838	-0.370524
H71	H	1.608383	-0.498181	-0.938879
C72	C	1.365007	-0.294726	-0.796649
C73	C	1.295512	-0.236634	-0.756659
C74	C	1.295270	-0.236559	-0.646920
H75	H	1.433669	-0.280295	-0.770782
H76	H	1.343300	-0.348515	-0.775203
H77	H	1.317224	-0.182857	-0.778096
H78	H	1.226840	-0.251052	-0.782497
H79	H	1.273563	-0.290348	-0.625474
H80	H	1.363935	-0.222129	-0.621063
H81	H	1.248112	-0.197150	-0.619773
C82	C	1.386163	-0.928041	-0.638080
C83	C	1.395240	-1.013581	-0.629052
C84	C	1.325324	-1.057413	-0.698798
H85	H	1.402299	-0.913869	-0.707842
H86	H	1.316433	-0.913931	-0.621739
H87	H	1.464954	-1.027686	-0.645401
H88	H	1.379095	-1.027778	-0.559306
H89	H	1.255594	-1.043303	-0.682457
H90	H	1.341466	-1.043234	-0.768555
H91	H	1.331466	-1.115456	-0.692676
C92	C	0.885886	-0.290112	-0.384893
C93	C	0.917854	-0.207639	-0.402701
C94	C	0.866457	-0.154111	-0.332353
H95	H	0.903025	-0.302136	-0.315005
H96	H	0.812188	-0.297714	-0.394997
H97	H	0.991536	-0.200041	-0.392589
H98	H	0.900714	-0.195589	-0.472576
H99	H	0.792759	-0.161714	-0.342457
H100	H	0.883600	-0.166143	-0.262469
H101	H	0.888133	-0.098148	-0.344432
C102	C	1.232091	-0.183675	-0.904080
C103	C	1.126976	-0.201831	-0.931902
C104	C	1.063001	-0.148633	-0.873719
H105	H	1.250951	-0.127626	-0.918460
H106	H	1.241126	-0.191335	-0.831353
H107	H	1.117947	-0.194164	-1.004612
H108	H	1.108085	-0.257870	-0.917518
H109	H	1.072035	-0.156293	-0.800991
H110	H	1.081869	-0.092587	-0.888103
H111	H	0.991673	-0.160949	-0.892580
H112	H	1.249638	-0.197998	-1.118885
H113	H	1.098856	-0.304703	-0.403898
H114	H	0.880631	-0.605202	-0.800595
H115	H	1.608432	-0.498138	-1.137946
H116	H	0.787262	-0.508359	-0.672749
C117	C	1.365226	-0.294565	-1.254346
C118	C	1.295785	-0.236433	-1.286962
C119	C	1.295704	-0.236236	-1.396683
H120	H	1.343558	-0.348309	-1.282709
H121	H	1.433948	-0.280105	-1.278288
H122	H	1.227078	-0.250897	-1.263031
H123	H	1.317437	-0.182681	-1.258627
H124	H	1.364426	-0.221776	-1.420625
H125	H	1.274038	-0.289982	-1.425035
H126	H	1.248597	-0.196789	-1.418826
