data_functionalizedCrystal
_audit_creation_method	'MofGen! by Chris Wilmer'
_symmetry_space_group_name_H-M	'P1'
_symmetry_Int_Tables_number	1
_symmetry_cell_setting	triclinic
loop_
_symmetry_equiv_pos_as_xyz
  x,y,z
_cell_length_a	12.645331
_cell_length_b	12.645330
_cell_length_c	12.645323
_cell_angle_alpha	89.975130
_cell_angle_beta	90.022676
_cell_angle_gamma	89.983329
loop_
_atom_site_label
_atom_site_type_symbol
_atom_site_fract_x
_atom_site_fract_y
_atom_site_fract_z
Zn1	Zn	1.620731	0.422060	0.599446
Zn2	Zn	1.620613	0.599348	0.422186
Zn3	Zn	1.443446	0.422096	0.422191
Zn4	Zn	1.443428	0.599279	0.599402
O5	O	1.532054	0.510695	0.510806
O6	O	1.769063	0.445591	0.575949
O7	O	1.597069	0.575879	0.273840
O8	O	1.467020	0.273744	0.445724
O9	O	1.768976	0.575844	0.445717
O10	O	1.597271	0.273717	0.575953
O11	O	1.466906	0.445653	0.273843
O12	O	1.295096	0.445585	0.445681
O13	O	1.466989	0.575726	0.747755
O14	O	1.295083	0.575761	0.575877
O15	O	1.597253	0.445524	0.747788
O16	O	1.597052	0.747686	0.445674
O17	O	1.466874	0.747635	0.575873
C18	C	1.256625	0.510670	0.510776
C19	C	1.138795	0.510685	0.510788
C20	C	1.531977	0.786125	0.510791
C21	C	1.532041	0.903955	0.510821
C22	C	0.971204	0.428415	0.429333
C23	C	1.093763	0.428628	0.428974
C24	C	1.094274	0.622359	0.480273
C25	C	0.971676	0.621910	0.479717
C26	C	0.971645	0.482344	0.623072
C27	C	1.094251	0.479849	0.622448
C28	C	1.532132	0.510614	0.787312
C29	C	1.532166	0.510579	0.905142
C30	C	1.808560	0.510722	0.510838
C31	C	1.926390	0.510733	0.510851
C32	C	1.532161	0.234190	0.510844
C33	C	1.532206	0.116360	0.510861
C34	C	1.450484	1.071531	0.592982
C35	C	1.450067	0.948972	0.592717
C36	C	1.501796	0.948549	0.399099
C37	C	1.501298	1.071147	0.399597
C38	C	1.644342	1.071047	0.539475
C39	C	1.643654	0.948440	0.541918
C40	C	1.532038	0.510701	0.235377
C41	C	1.532210	0.510437	0.117547
C42	C	1.449964	0.592103	1.072685
C43	C	1.450179	0.592506	0.950125
C44	C	1.643865	0.540899	0.949662
C45	C	1.643414	0.541410	1.072260
C46	C	1.503724	0.398278	1.072340
C47	C	1.501232	0.398951	0.949733
H48	H	1.123864	0.345817	0.448100
F49	F	1.726113	0.465613	0.911583
H50	H	1.367350	0.573532	0.920023
H51	H	1.668424	0.622030	0.918973
H52	H	1.419326	1.099837	0.375357
F53	F	1.573819	0.315216	0.909722
H54	H	1.671932	1.101891	0.619558
H55	H	1.123355	0.397670	0.645458
H56	H	1.563628	0.337434	1.101353
H57	H	1.707747	0.917790	0.486462
H58	H	1.706772	0.484511	1.101938
F59	F	1.575713	1.109916	0.316889
F60	F	1.674972	0.648577	1.109660
H61	H	1.420678	0.917936	0.374420
H62	H	1.559431	0.919391	0.336240
F63	F	1.393784	0.369066	0.911710
F64	F	0.932693	0.319846	0.454061
F65	F	0.930866	0.452650	0.321278
F66	F	1.134317	0.552503	0.706084
F67	F	0.934231	0.653374	0.372486
H68	H	1.367871	1.102431	0.574266
F69	F	0.933768	0.560710	0.702462
F70	F	1.673470	0.910340	0.649388
F71	F	1.474986	1.109977	0.701619
F72	F	1.132037	0.453148	0.320277
F73	F	1.723928	1.108954	0.461310
F74	F	1.341406	0.910753	0.567943
F75	F	1.341374	0.567537	1.111199
F76	F	1.399114	0.362154	1.112730
F77	F	1.474253	0.700093	1.113029
H78	H	0.942031	0.685319	0.536502
H79	H	1.123444	0.685331	0.537783
F80	F	1.134339	0.654369	0.374192
H81	H	0.940749	0.402333	0.650823
F82	F	1.474798	0.909556	0.700997
H83	H	1.468983	0.675654	0.920811
