data_functionalizedCrystal
_audit_creation_method	'MofGen! by Chris Wilmer'
_symmetry_space_group_name_H-M	'P1'
_symmetry_Int_Tables_number	1
_symmetry_cell_setting	triclinic
loop_
_symmetry_equiv_pos_as_xyz
  x,y,z
_cell_length_a	15.625950
_cell_length_b	23.532407
_cell_length_c	14.185569
_cell_angle_alpha	76.924933
_cell_angle_beta	120.545593
_cell_angle_gamma	83.582877
loop_
_atom_site_label
_atom_site_type_symbol
_atom_site_fract_x
_atom_site_fract_y
_atom_site_fract_z
O1	O	1.290518	0.014754	0.385860
O2	O	1.002143	0.039811	0.280991
O3	O	1.155031	-0.056106	0.336608
O4	O	1.137630	0.110671	0.330243
O5	O	1.200196	-0.084438	0.519872
O6	O	1.047308	0.011479	0.464255
O7	O	1.335682	-0.013578	0.569124
Cu8	Cu	1.195619	-0.003637	0.533423
Cu9	Cu	1.142207	0.029869	0.316692
O10	O	1.182794	0.082339	0.513507
C11	C	0.987839	0.027316	0.359209
C12	C	0.877928	0.032288	0.319240
C13	C	0.639415	-0.028527	0.687139
C14	C	0.536122	-0.023836	0.649530
C15	C	0.486937	0.007048	0.449762
C16	C	0.590227	0.002362	0.487353
C17	C	0.666459	-0.015426	0.606043
C18	C	0.617271	0.015464	0.406258
C19	C	0.720553	0.010775	0.443847
C20	C	0.796791	-0.007014	0.562532
C21	C	0.769741	-0.020115	0.643633
C22	C	0.541038	0.033248	0.287568
C23	C	0.568082	0.046349	0.206473
C24	C	0.671365	0.041665	0.244061
C25	C	0.747603	0.023875	0.362746
C26	C	0.698414	0.054765	0.162961
C27	C	0.801696	0.050077	0.200550
C28	C	0.850884	0.019187	0.400336
C29	C	1.177171	-0.091466	0.428082
C30	C	1.175842	-0.154615	0.427606
C31	C	1.257948	-0.557995	0.457410
C32	C	1.256709	-0.617330	0.456952
O33	O	1.332827	-0.658042	0.484595
N34	N	1.165821	-0.635211	0.423900
C35	C	1.076162	-0.593753	0.391293
O36	O	0.998740	-0.614410	0.363137
C37	C	1.077400	-0.534418	0.391744
C38	C	1.168298	-0.516542	0.424809
C39	C	1.348838	-0.540118	0.490471
C40	C	1.350077	-0.480788	0.490931
C41	C	1.260427	-0.439335	0.458330
C42	C	1.169537	-0.457212	0.425269
C43	C	0.987741	-0.492960	0.359130
C44	C	0.988987	-0.433622	0.359582
C45	C	1.079884	-0.415746	0.392647
C46	C	1.081125	-0.356430	0.393128
N47	N	1.172014	-0.338548	0.426180
C48	C	1.261665	-0.380001	0.458781
C49	C	1.073569	-0.718359	0.390347
C50	C	1.072331	-0.777694	0.389904
C51	C	1.252878	-0.801266	0.455561
C52	C	1.254117	-0.741932	0.456011
C53	C	1.164457	-0.700478	0.423399
C54	C	1.264260	-0.255403	0.459745
C55	C	1.265493	-0.196067	0.460207
C56	C	1.084945	-0.172499	0.394545
C57	C	1.083713	-0.231830	0.394089
C58	C	1.173378	-0.273281	0.426688
O59	O	1.005047	-0.315684	0.365495
O60	O	1.339070	-0.359332	0.486918
C61	C	1.349986	-0.001083	0.490904
C62	C	1.459895	-0.006054	0.530865
C63	C	1.160653	0.117699	0.422031
C64	C	1.161981	0.180849	0.422499
N65	N	1.233193	-0.027204	0.685863
N66	N	1.104640	0.053432	0.164255
C67	C	0.994246	0.122647	0.966590
C68	C	1.022715	0.104799	1.081968
C69	C	1.158125	0.019891	1.131187
C70	C	1.129664	0.037730	1.015810
C71	C	1.047725	0.089109	0.933520
C72	C	1.183142	0.004193	0.982740
C73	C	1.154687	0.022033	0.867374
C74	C	1.072753	0.073411	0.785078
C75	C	1.019269	0.106949	0.818154
C76	C	1.265086	-0.047184	1.065034
C77	C	1.318564	-0.080721	1.031964
C78	C	1.290104	-0.062884	0.916595
C79	C	1.208170	-0.011506	0.834299
C80	C	1.343588	-0.096423	0.883520
C81	C	1.315132	-0.078582	0.768154
C82	C	1.179715	0.006334	0.718933
H83	H	0.514108	-0.034493	0.715576
H84	H	0.913721	-0.507502	0.332198
H85	H	1.358681	-0.105892	0.741230
H86	H	1.337273	-0.289146	0.486287
O87	O	1.292575	-0.064554	1.177046
C88	C	1.208213	-0.076910	1.181480
H89	H	1.153363	-0.088131	1.101025
H90	H	1.237388	-0.117107	1.262345
H91	H	1.165673	-0.035484	1.184656
H92	H	0.880888	-0.010832	0.593136
H93	H	1.424094	-0.466239	0.517851
O94	O	1.436036	-0.580313	0.522228
C95	C	1.516503	-0.551793	0.551470
H96	H	1.499450	-0.511406	0.576849
H97	H	1.592398	-0.585402	0.627517
H98	H	1.522729	-0.535509	0.473696
H99	H	1.328133	-0.727382	0.482935
H100	H	1.385282	-0.122553	1.098979
O101	O	1.339862	-0.841607	0.487135
C102	C	1.319273	-0.897811	0.479664
H103	H	1.232968	-0.890410	0.416700
H104	H	1.363328	-0.919659	0.447236
H105	H	1.344872	-0.928810	0.569012
H106	H	1.049589	0.087937	0.691142
O107	O	0.984062	-0.795104	0.357671
C108	C	0.954530	-0.814019	0.260505
H109	H	1.024922	-0.828253	0.257296
H110	H	0.920703	-0.854052	0.267629
H111	H	0.894087	-0.775050	0.178021
O112	O	1.423107	-0.146387	0.963328
C113	C	1.400605	-0.197554	0.929523
H114	H	1.341784	-0.182431	0.831890
H115	H	1.474329	-0.229111	0.952732
H116	H	1.367507	-0.222495	0.976608
O117	O	0.986392	-0.678178	0.358697
C118	C	0.905909	-0.706687	0.329405
H119	H	0.940053	-0.757804	0.373404
H120	H	0.856242	-0.689535	0.359785
H121	H	0.856351	-0.695776	0.231342
O122	O	0.901810	-0.393438	0.327918
C123	C	0.821319	-0.421941	0.298610
H124	H	0.855454	-0.473059	0.342608
H125	H	0.771645	-0.404785	0.328980
H126	H	0.771770	-0.411028	0.200546
H127	H	1.009705	-0.246390	0.367195
O128	O	0.997941	-0.132142	0.362861
C129	C	1.018543	-0.075947	0.370383
H130	H	1.087750	-0.072615	0.363974
H131	H	0.948258	-0.037634	0.296380
H132	H	1.036278	-0.072148	0.456875
O133	O	1.100218	0.056276	0.638910
C134	C	1.136434	0.098837	0.591333
H135	H	1.209876	0.074548	0.602301
H136	H	1.075014	0.122667	0.495153
H137	H	1.153695	0.133711	0.638070
H138	H	0.952539	0.148783	0.751145
O139	O	0.828045	0.062697	0.121828
C140	C	0.898019	0.010974	0.141866
H141	H	0.889016	-0.031285	0.190197
H142	H	0.881361	0.007819	0.055373
H143	H	0.980260	0.014561	0.196230
O144	O	0.914756	0.172621	0.886724
C145	C	0.937220	0.223785	0.920558
H146	H	1.024305	0.214796	0.981083
H147	H	0.906837	0.264740	0.840439
H148	H	0.898685	0.233192	0.967507
O149	O	0.924955	0.002015	0.515612
C150	C	0.974501	0.048315	0.539061
H151	H	0.921251	0.093397	0.468067
H152	H	0.993505	0.051370	0.626405
H153	H	1.048809	0.037619	0.541673
O154	O	0.970609	0.137334	1.113994
C155	C	0.865737	0.137839	1.050201
H156	H	0.857887	0.097149	1.018476
H157	H	0.834698	0.135393	1.107990
H158	H	0.819824	0.181382	0.972554
H159	H	0.831813	-0.034591	0.740281
O160	O	0.713352	-0.045840	0.802481
C161	C	0.667336	-0.056381	0.866005
H162	H	0.590772	-0.066767	0.811489
H163	H	0.720931	-0.096532	0.949116
H164	H	0.653095	-0.014369	0.888778
O165	O	0.412819	0.024429	0.334475
C166	C	0.339908	0.077997	0.302512
H167	H	0.376825	0.102723	0.367553
H168	H	0.313058	0.108476	0.212309
H169	H	0.270883	0.066107	0.301825
H170	H	0.456940	0.037067	0.256967
O171	O	0.493893	0.063646	0.091223
C172	C	0.396937	0.064959	0.075433
H173	H	0.399696	0.070579	0.154593
H174	H	0.335427	0.104601	-0.005033
H175	H	0.377287	0.020760	0.063971
H176	H	0.636333	0.069242	0.066324
O177	O	1.237834	-0.029964	1.211120
C178	C	1.328795	-0.021757	1.218491
H179	H	1.321021	0.028741	1.186796
H180	H	1.397262	-0.042791	1.312440
H181	H	1.341658	-0.044586	1.162201
H182	H	1.339516	-0.181518	0.487136
