data_functionalizedCrystal
_audit_creation_method	'MofGen! by Chris Wilmer'
_symmetry_space_group_name_H-M	'P1'
_symmetry_Int_Tables_number	1
_symmetry_cell_setting	triclinic
loop_
_symmetry_equiv_pos_as_xyz
  x,y,z
_cell_length_a	12.827893
_cell_length_b	12.827892
_cell_length_c	12.827879
_cell_angle_alpha	89.937559
_cell_angle_beta	89.958596
_cell_angle_gamma	90.015363
loop_
_atom_site_label
_atom_site_type_symbol
_atom_site_fract_x
_atom_site_fract_y
_atom_site_fract_z
Zn1	Zn	1.597900	-0.415648	-0.590843
Zn2	Zn	1.931233	-0.082315	-0.257509
Zn3	Zn	2.264567	0.251018	0.075824
Zn4	Zn	1.597726	-0.590525	-0.416102
Zn5	Zn	1.931059	-0.257191	-0.082769
Zn6	Zn	2.264393	0.076142	0.250564
Zn7	Zn	1.423073	-0.415798	-0.416117
Zn8	Zn	1.756407	-0.082465	-0.082783
Zn9	Zn	2.089740	0.250868	0.250550
Zn10	Zn	1.423127	-0.590348	-0.590803
Zn11	Zn	1.756460	-0.257015	-0.257470
Zn12	Zn	2.089793	0.076319	0.075864
O13	O	1.510456	-0.503080	-0.503466
O14	O	1.843790	-0.169747	-0.170133
O15	O	2.177123	0.163587	0.163201
O16	O	1.744113	-0.438857	-0.567674
O17	O	2.077446	-0.105524	-0.234340
O18	O	2.410779	0.227809	0.098993
O19	O	1.574463	-0.567484	-0.269868
O20	O	1.907796	-0.234150	0.063466
O21	O	2.241129	0.099183	0.396799
O22	O	1.446315	-0.269542	-0.439317
O23	O	1.779648	0.063791	-0.105984
O24	O	2.112981	0.397124	0.227350
O25	O	1.743985	-0.567338	-0.439292
O26	O	2.077318	-0.234005	-0.105959
O27	O	2.410652	0.099328	0.227374
O28	O	1.574759	-0.269432	-0.567688
O29	O	1.908093	0.063901	-0.234354
O30	O	2.241426	0.397234	0.098979
O31	O	1.446146	-0.439113	-0.269878
O32	O	1.779479	-0.105780	0.063455
O33	O	2.112813	0.227554	0.396788
O34	O	1.276844	-0.438941	-0.439279
O35	O	1.610178	-0.105608	-0.105945
O36	O	1.943511	0.227725	0.227388
O37	O	1.446406	-0.567037	-0.737045
O38	O	1.779739	-0.233704	-0.403711
O39	O	2.113072	0.099630	-0.070378
O40	O	1.276883	-0.567182	-0.567620
O41	O	1.610217	-0.233849	-0.234287
O42	O	1.943550	0.099484	0.099047
O43	O	1.574811	-0.438686	-0.737074
O44	O	1.908144	-0.105353	-0.403740
O45	O	2.241478	0.227981	-0.070407
O46	O	1.574514	-0.736737	-0.439254
O47	O	1.907848	-0.403404	-0.105921
O48	O	2.241181	-0.070071	0.227413
O49	O	1.446237	-0.736608	-0.567606
O50	O	1.779570	-0.403274	-0.234272
O51	O	2.112904	-0.069941	0.099061
C52	C	1.238946	-0.503060	-0.503447
C53	C	1.572280	-0.169726	-0.170114
C54	C	1.905613	0.163607	0.163220
C55	C	1.122793	-0.503076	-0.503464
C56	C	1.456127	-0.169743	-0.170130
C57	C	1.789460	0.163590	0.163203
C58	C	0.951027	-0.439631	-0.567106
C59	C	1.284361	-0.106298	-0.233772
C60	C	1.617694	0.227036	0.099561
C61	C	1.071078	-0.439612	-0.567090
C62	C	1.404411	-0.106279	-0.233756
C63	C	1.737744	0.227054	0.099577
C64	C	1.510391	-0.774590	-0.503447
C65	C	1.843724	-0.441256	-0.170113
C66	C	2.177058	-0.107923	0.163220
C67	C	1.510459	-0.890743	-0.503473
C68	C	1.843792	-0.557410	-0.170140
C69	C	2.177125	-0.224076	0.163193
C70	C	1.573989	-0.942390	-0.567052
C71	C	1.907322	-0.609056	-0.233719
C72	C	2.240655	-0.275723	0.099614
C73	C	1.574060	-1.062440	-0.567081
C74	C	1.907393	-0.729107	-0.233748
C75	C	2.240727	-0.395773	0.099585
C76	C	1.783026	-0.503101	-0.503486
C77	C	2.116360	-0.169768	-0.170152
C78	C	2.449693	0.163566	0.163181
C79	C	1.899180	-0.503110	-0.503494
C80	C	2.232513	-0.169776	-0.170161
C81	C	2.565846	0.163557	0.163172
C82	C	1.510634	-0.502825	-0.776037
C83	C	1.843967	-0.169492	-0.442703
C84	C	2.177300	0.163842	-0.109370
C85	C	1.510709	-0.502716	-0.892190
C86	C	1.844043	-0.169383	-0.558857
C87	C	2.177376	0.163950	-0.225523
C88	C	1.510550	-0.230510	-0.503508
C89	C	1.843884	0.102824	-0.170175
C90	C	2.177217	0.436157	0.163158
C91	C	1.510591	-0.114357	-0.503526
C92	C	1.843924	0.218977	-0.170193
C93	C	2.177257	0.552310	0.163140
C94	C	1.510340	-0.503258	-0.231956
C95	C	1.843673	-0.169925	0.101377
C96	C	2.177007	0.163408	0.434711
C97	C	1.510467	-0.503073	-0.115803
C98	C	1.843800	-0.169739	0.217530
C99	C	2.177133	0.163594	0.550864
C100	C	1.573722	-0.438834	0.055739
C101	C	1.907056	-0.105501	0.389072
C102	C	2.240389	0.227832	0.722406
C103	C	1.573593	-0.439025	-0.064311
C104	C	1.906926	-0.105692	0.269022
C105	C	2.240259	0.227642	0.602356
H106	H	1.115665	-0.385261	-0.621545
H107	H	1.448999	-0.051928	-0.288212
H108	H	1.782332	0.281405	0.045121
F109	F	0.892884	-0.368619	-0.638314
F110	F	1.226217	-0.035286	-0.304981
F111	F	1.559551	0.298048	0.028353
H112	H	1.627762	-0.383998	0.100035
H113	H	1.961096	-0.050665	0.433369
H114	H	2.294429	0.282669	0.766702
H115	H	0.943668	-0.557448	-0.449028
H116	H	1.277001	-0.224115	-0.115695
H117	H	1.610334	0.109218	0.217638
F118	F	1.064525	-0.574111	-0.432270
F119	F	1.397858	-0.240778	-0.098936
F120	F	1.731191	0.092555	0.234397
F121	F	1.440062	-0.574385	0.049917
F122	F	1.773395	-0.241051	0.383250
F123	F	2.106729	0.092282	0.716583
H124	H	1.628323	-0.897732	-0.621468
H125	H	1.961657	-0.564399	-0.288135
H126	H	2.294990	-0.231066	0.045199
H127	H	1.628454	-1.106856	-0.621510
H128	H	1.961788	-0.773522	-0.288176
H129	H	2.295121	-0.440189	0.045157
H130	H	1.627544	-0.384337	-0.109090
H131	H	1.960877	-0.051004	0.224244
H132	H	2.294210	0.282330	0.557577
F133	F	1.439498	-1.056313	-0.432369
F134	F	1.772831	-0.722979	-0.099035
F135	F	2.106165	-0.389646	0.234298
H136	H	1.456116	-0.935403	-0.449068
H137	H	1.789449	-0.602069	-0.115735
H138	H	2.122783	-0.268736	0.217599
F139	F	1.439953	-0.574569	-0.057285
F140	F	1.773286	-0.241236	0.276049
F141	F	2.106620	0.092097	0.609382
