data_functionalizedCrystal
_audit_creation_method	'MofGen! by Chris Wilmer'
_symmetry_space_group_name_H-M	'P1'
_symmetry_Int_Tables_number	1
_symmetry_cell_setting	triclinic
loop_
_symmetry_equiv_pos_as_xyz
  x,y,z
_cell_length_a	19.805407
_cell_length_b	29.839131
_cell_length_c	19.805399
_cell_angle_alpha	89.962782
_cell_angle_beta	89.975799
_cell_angle_gamma	90.034474
loop_
_atom_site_label
_atom_site_type_symbol
_atom_site_fract_x
_atom_site_fract_y
_atom_site_fract_z
Zn1	Zn	1.034694	-0.178873	-0.382758
Zn2	Zn	1.534694	0.321127	0.117242
Zn3	Zn	1.034592	-0.254000	-0.269551
Zn4	Zn	1.534592	0.246000	0.230449
Zn5	Zn	0.921509	-0.178884	-0.269573
Zn6	Zn	1.421509	0.321116	0.230427
Zn7	Zn	0.921455	-0.253975	-0.382688
Zn8	Zn	1.421455	0.246025	0.117312
O9	O	0.978062	-0.216433	-0.326142
O10	O	1.478062	0.283567	0.173858
O11	O	1.129397	-0.188844	-0.367760
O12	O	1.629397	0.311156	0.132240
O13	O	1.019571	-0.244051	-0.174837
O14	O	1.519571	0.255949	0.325163
O15	O	0.936589	-0.116016	-0.284626
O16	O	1.436589	0.383984	0.215374
O17	O	1.129322	-0.244040	-0.284587
O18	O	1.629322	0.255960	0.215413
O19	O	1.019745	-0.116007	-0.367782
O20	O	1.519745	0.383993	0.132218
O21	O	0.936489	-0.188864	-0.174854
O22	O	1.436489	0.311136	0.325146
O23	O	0.826785	-0.188840	-0.284559
O24	O	1.326785	0.311160	0.215441
O25	O	0.936497	-0.243998	-0.477414
O26	O	1.436497	0.256002	0.022586
O27	O	0.826746	-0.244009	-0.367664
O28	O	1.326746	0.255991	0.132336
O29	O	1.019693	-0.188820	-0.477465
O30	O	1.519693	0.311180	0.022535
O31	O	1.019518	-0.316864	-0.284520
O32	O	1.519518	0.183136	0.215480
O33	O	0.936397	-0.316846	-0.367642
O34	O	1.436397	0.183154	0.132358
C35	C	0.802206	-0.216423	-0.326106
C36	C	1.302206	0.283577	0.173894
C37	C	0.726974	-0.216430	-0.326107
C38	C	1.226974	0.283570	0.173893
C39	C	0.265180	-0.245214	-0.369391
C40	C	0.765180	0.254786	0.130609
C41	C	0.335869	-0.245213	-0.369376
C42	C	0.835869	0.254787	0.130624
C43	C	0.371213	-0.216444	-0.326169
C44	C	0.871213	0.283556	0.173831
C45	C	0.335864	-0.187677	-0.282968
C46	C	0.835864	0.312323	0.217032
C47	C	0.265177	-0.187680	-0.282980
C48	C	0.765177	0.312320	0.217020
C49	C	0.620938	-0.187663	-0.282921
C50	C	1.120938	0.312337	0.217079
C51	C	0.691630	-0.187661	-0.282914
C52	C	1.191630	0.312339	0.217086
C53	C	0.691629	-0.245196	-0.369317
C54	C	1.191629	0.254804	0.130683
C55	C	0.620942	-0.245199	-0.369329
C56	C	1.120942	0.254801	0.130671
C57	C	0.585600	-0.216434	-0.326126
C58	C	1.085600	0.283566	0.173874
C59	C	0.508952	-0.216436	-0.326141
C60	C	1.008952	0.283564	0.173859
C61	C	0.447860	-0.216440	-0.326157
C62	C	0.947860	0.283560	0.173843
C63	C	0.977959	-0.333156	-0.326085
C64	C	1.477959	0.166844	0.173915
C65	C	0.977977	-0.383090	-0.326084
C66	C	1.477977	0.116910	0.173916
C67	C	1.021353	-0.692694	-0.369504
C68	C	1.521353	-0.192694	0.130496
C69	C	1.021426	-0.880367	-0.369544
C70	C	1.521426	-0.380367	0.130456
O71	O	1.058205	-0.904599	-0.406419
O72	O	1.558205	-0.404599	0.093581
N73	N	0.978177	-0.903875	-0.326218
N74	N	1.478177	-0.403875	0.173782
C75	C	0.934904	-0.880462	-0.282881
C76	C	1.434904	-0.380462	0.217119
O77	O	0.898115	-0.904763	-0.246035
O78	O	1.398115	-0.404763	0.253965
C79	C	0.934828	-0.692790	-0.282844
C80	C	1.434828	-0.192790	0.217156
C81	C	0.978084	-0.669284	-0.326169
C82	C	1.478084	-0.169284	0.173831
C83	C	1.064605	-0.669189	-0.412825
C84	C	1.564605	-0.169189	0.087175
C85	C	1.064589	-0.622273	-0.412812
C86	C	1.564589	-0.122273	0.087188
C87	C	1.021320	-0.598863	-0.369477
C88	C	1.521320	-0.098863	0.130523
C89	C	0.978068	-0.622369	-0.326156
C90	C	1.478068	-0.122369	0.173844
C91	C	0.891551	-0.669377	-0.239511
C92	C	1.391551	-0.169377	0.260489
C93	C	0.891535	-0.622456	-0.239507
C94	C	1.391535	-0.122456	0.260493
C95	C	0.934791	-0.598951	-0.282832
C96	C	1.434791	-0.098951	0.217168
C97	C	0.934783	-0.552043	-0.282807
C98	C	1.434783	-0.052043	0.217193
N99	N	0.978032	-0.528536	-0.326134
N100	N	1.478032	-0.028536	0.173866
C101	C	1.021301	-0.551946	-0.369469
C102	C	1.521301	-0.051946	0.130531
C103	C	0.934948	-0.978993	-0.282902
C104	C	1.434948	-0.478993	0.217098
C105	C	0.934968	-1.025910	-0.282910
C106	C	1.434968	-0.525910	0.217090
C107	C	1.021489	-1.025813	-0.369575
C108	C	1.521489	-0.525813	0.130425
C109	C	1.021472	-0.978894	-0.369563
C110	C	1.521472	-0.478894	0.130437
C111	C	0.978197	-0.955485	-0.326229
C112	C	1.478197	-0.455485	0.173771
C113	C	1.021264	-0.453420	-0.369438
C114	C	1.521264	0.046580	0.130562
C115	C	1.021246	-0.406500	-0.369419
C116	C	1.521246	0.093500	0.130581
C117	C	0.934722	-0.406602	-0.282757
C118	C	1.434722	0.093398	0.217243
C119	C	0.934742	-0.453518	-0.282773
C120	C	1.434742	0.046482	0.217227
C121	C	0.978015	-0.476925	-0.326119
C122	C	1.478015	0.023075	0.173881
O123	O	0.898018	-0.527783	-0.245957
O124	O	1.398018	-0.027783	0.254043
O125	O	1.058073	-0.527636	-0.406320
O126	O	1.558073	-0.027636	0.093680
C127	C	1.021369	-0.739610	-0.369517
C128	C	1.521369	-0.239610	0.130483
C129	C	0.978116	-0.763115	-0.326195
C130	C	1.478116	-0.263115	0.173805
C131	C	0.934848	-0.739705	-0.282860
C132	C	1.434848	-0.239705	0.217140
C133	C	0.978136	-0.810033	-0.326203
C134	C	1.478136	-0.310033	0.173797
C135	C	1.021405	-0.833443	-0.369538
C136	C	1.521405	-0.333443	0.130462
C137	C	1.064654	-0.809935	-0.412865
C138	C	1.564654	-0.309935	0.087135
C139	C	1.064638	-0.763020	-0.412852
C140	C	1.564638	-0.263020	0.087148
C141	C	0.891599	-0.763213	-0.239534
C142	C	1.391599	-0.263213	0.260466
C143	C	0.891619	-0.810129	-0.239550
C144	C	1.391619	-0.310129	0.260450
C145	C	0.934888	-0.833539	-0.282885
C146	C	1.434888	-0.333539	0.217115
C147	C	1.154605	-0.216444	-0.326179
C148	C	1.654605	0.283556	0.173821
C149	C	1.229837	-0.216448	-0.326195
C150	C	1.729837	0.283552	0.173805
C151	C	0.978100	-0.216405	-0.502685
C152	C	1.478100	0.283595	-0.002685
C153	C	0.978117	-0.216393	-0.577917
C154	C	1.478117	0.283607	-0.077917
C155	C	0.978184	-0.099255	-0.326215
C156	C	1.478184	0.400745	0.173785
C157	C	0.978237	-0.049320	-0.326245
C158	C	1.478237	0.450680	0.173755
C159	C	1.021438	-0.187660	-0.613289
C160	C	1.521438	0.312340	-0.113289
C161	C	1.021445	-0.187647	-0.683978
C162	C	1.521445	0.312353	-0.183978
C163	C	0.978133	-0.216369	-0.719293
C164	C	1.478133	0.283631	-0.219293
C165	C	0.934807	-0.245103	-0.683916
C166	C	1.434807	0.254897	-0.183916
C167	C	0.934797	-0.245113	-0.613229
C168	C	1.434797	0.254887	-0.113229
C169	C	0.934845	-0.245061	-0.968990
C170	C	1.434845	0.254939	-0.468990
C171	C	0.934860	-0.245049	-1.039682
C172	C	1.434860	0.254951	-0.539682
C173	C	1.021493	-0.187595	-1.039738
C174	C	1.521493	0.312405	-0.539738
C175	C	1.021483	-0.187605	-0.969051
C176	C	1.521483	0.312395	-0.469051
C177	C	0.978155	-0.216337	-0.933680
C178	C	1.478155	0.283663	-0.433680
C179	C	0.978147	-0.216350	-0.857032
C180	C	1.478147	0.283650	-0.357032
C181	C	0.978144	-0.216359	-0.795940
C182	C	1.478144	0.283641	-0.295940
C183	C	0.978064	-0.216429	-0.150286
C184	C	1.478064	0.283571	0.349714
C185	C	0.978179	-0.216314	-0.075055
C186	C	1.478179	0.283686	0.424945
H187	H	0.236409	-0.268639	-0.404579
H188	H	0.736409	0.231361	0.095421
H189	H	0.720413	-0.268619	-0.404493
H190	H	1.220413	0.231381	0.095507
H191	H	0.364642	-0.268638	-0.404549
H192	H	0.864642	0.231362	0.095451
H193	H	0.856327	-0.688508	-0.204231
H194	H	1.356327	-0.188508	0.295769
H195	H	1.056771	-0.164199	-1.068546
H196	H	1.556771	0.335801	-0.568546
C197	C	0.374745	-0.156027	-0.235445
C198	C	0.874745	0.343973	0.264555
N199	N	0.404029	-0.132185	-0.199653
N200	N	0.904029	0.367815	0.300347
C201	C	0.730506	-0.156014	-0.235376
C202	C	1.230506	0.343986	0.264624
N203	N	0.759788	-0.132179	-0.199572
N204	N	1.259788	0.367821	0.300428
C205	C	0.582070	-0.156015	-0.235405
C206	C	1.082070	0.343985	0.264595
N207	N	0.552793	-0.132173	-0.199618
N208	N	1.052793	0.367827	0.300382
H209	H	0.236402	-0.164255	-0.247807
H210	H	0.736402	0.335745	0.252193
C211	C	1.112177	-0.596423	-0.460471
C212	C	1.612177	-0.096423	0.039529
N213	N	1.148024	-0.576956	-0.496369
N214	N	1.648024	-0.076956	0.003631
H215	H	1.056473	-0.387363	-0.404699
H216	H	1.556473	0.112637	0.095301
C217	C	1.068871	-0.479161	-0.417116
C218	C	1.568871	0.020839	0.082884
N219	N	1.104733	-0.498550	-0.453023
N220	N	1.604733	0.001450	0.046977
H221	H	1.099840	-0.688244	-0.448118
H222	H	1.599840	-0.188244	0.051882
C223	C	0.887207	-0.276644	-1.078527
C224	C	1.387207	0.223356	-0.578527
N225	N	0.851316	-0.300440	-1.107786
N226	N	1.351316	0.199560	-0.607786
H227	H	0.899525	-0.472657	-0.247489
H228	H	1.399525	0.027343	0.252511
C229	C	1.069055	-0.953042	-0.417226
C230	C	1.569055	-0.453042	0.082774
N231	N	1.104895	-0.933573	-0.453129
N232	N	1.604895	-0.433573	0.046871
H233	H	1.056723	-0.164252	-0.712774
H234	H	1.556723	0.335748	-0.212774
C235	C	1.069082	-1.051572	-0.417248
C236	C	1.569082	-0.551572	0.082752
N237	N	1.104922	-1.070976	-0.453157
N238	N	1.604922	-0.570976	0.046843
C239	C	0.887388	-1.051761	-0.235245
C240	C	1.387388	-0.551761	0.264755
N241	N	0.851545	-1.071230	-0.199344
N242	N	1.351545	-0.571230	0.300656
C243	C	0.887331	-0.953248	-0.235235
C244	C	1.387331	-0.453248	0.264765
N245	N	0.851465	-0.933860	-0.199333
N246	N	1.351465	-0.433860	0.300667
C247	C	0.843928	-0.596709	-0.191834
C248	C	1.343928	-0.096709	0.308166
N249	N	0.808072	-0.577317	-0.155925
N250	N	1.308072	-0.077317	0.344075
H251	H	0.899514	-0.268506	-0.584430
H252	H	1.399514	0.231494	-0.084430
C253	C	1.069126	-0.156007	-0.930208
C254	C	1.569126	0.343993	-0.430208
N255	N	1.105009	-0.132205	-0.900953
N256	N	1.605009	0.367795	-0.400953
H257	H	0.592169	-0.268624	-0.404515
H258	H	1.092169	0.231376	0.095485
C259	C	0.887126	-0.380842	-0.235094
C260	C	1.387126	0.119158	0.264906
N261	N	0.851272	-0.361438	-0.199198
N262	N	1.351272	0.138562	0.300802
C263	C	0.887158	-0.276693	-0.722765
C264	C	1.387158	0.223307	-0.222765
N265	N	0.851266	-0.300488	-0.752026
N266	N	1.351266	0.199512	-0.252026
C267	C	0.887181	-0.276666	-0.930091
C268	C	1.387181	0.223334	-0.430091
N269	N	0.851276	-0.300471	-0.900790
N270	N	1.351276	0.199529	-0.400790
C271	C	1.112224	-0.737170	-0.460512
C272	C	1.612224	-0.237170	0.039488
N273	N	1.148069	-0.717703	-0.496412
N274	N	1.648069	-0.217703	0.003588
H275	H	1.099887	-0.829004	-0.448147
H276	H	1.599887	-0.329004	0.051853
H277	H	0.856396	-0.829263	-0.204263
H278	H	1.356396	-0.329263	0.295737
H279	H	0.856364	-0.744156	-0.204246
H280	H	1.356364	-0.244156	0.295754
C281	C	1.069084	-0.156063	-0.574449
C282	C	1.569084	0.343937	-0.074449
N283	N	1.104970	-0.132261	-0.545196
N284	N	1.604970	0.367739	-0.045196
