data_functionalizedCrystal
_audit_creation_method	'MofGen! by Chris Wilmer'
_symmetry_space_group_name_H-M	'P1'
_symmetry_Int_Tables_number	1
_symmetry_cell_setting	triclinic
loop_
_symmetry_equiv_pos_as_xyz
  x,y,z
_cell_length_a	13.339070
_cell_length_b	10.489741
_cell_length_c	11.804365
_cell_angle_alpha	101.953620
_cell_angle_beta	74.875130
_cell_angle_gamma	100.084234
loop_
_atom_site_label
_atom_site_type_symbol
_atom_site_fract_x
_atom_site_fract_y
_atom_site_fract_z
O1	O	1.367264	0.622515	-0.099068
O2	O	1.072122	0.538369	-0.099061
O3	O	1.226407	0.397145	-0.099058
O4	O	1.212978	0.763739	-0.099072
O5	O	1.185789	0.434272	0.098997
O6	O	1.031504	0.575496	0.098994
O7	O	1.326646	0.659642	0.098987
Cu8	Cu	1.175366	0.620959	0.117074
Cu9	Cu	1.223401	0.577052	-0.117149
O10	O	1.172361	0.800866	0.098983
C11	C	1.014020	0.542719	-0.000033
C12	C	0.901409	0.500350	-0.000030
C13	C	0.539023	0.829782	-0.000062
C14	C	0.644827	0.869592	-0.000068
C15	C	0.708977	0.777285	-0.000058
C16	C	0.667314	0.645161	-0.000043
C17	C	0.561501	0.605345	-0.000046
C18	C	0.731456	0.552848	-0.000042
C19	C	0.689793	0.420724	-0.000027
C20	C	0.583990	0.380914	-0.000029
C21	C	0.519840	0.473222	-0.000039
C22	C	0.837269	0.592664	-0.000039
C23	C	0.859747	0.368227	-0.000024
C24	C	0.753943	0.328417	-0.000017
C25	C	1.205084	0.367829	-0.000031
C26	C	1.202049	0.225160	-0.000033
C27	C	1.103883	0.123412	-0.000040
C28	C	1.130230	0.065470	0.097611
C29	C	1.170299	0.028899	-0.097656
C30	C	1.228420	0.169113	0.097698
C31	C	1.268494	0.132530	-0.097657
C32	C	1.294907	0.074645	0.000017
C33	C	1.384748	0.655292	-0.000044
C34	C	1.497361	0.697659	-0.000055
C35	C	1.193684	0.830182	-0.000046
C36	C	1.196721	0.972849	-0.000052
N37	N	1.141588	0.651843	0.281814
N38	N	1.257187	0.546161	-0.281889
C39	C	1.338301	0.471974	0.655767
C40	C	1.363852	0.448605	0.531106
C41	C	1.308288	0.499412	0.468777
C42	C	1.227169	0.573593	0.531121
C43	C	1.201620	0.596973	0.655794
C44	C	1.171607	0.624411	0.468804
C45	C	1.090488	0.698592	0.531148
C46	C	1.064942	0.721968	0.655809
C47	C	1.120506	0.671160	0.718139
C48	C	1.197156	0.601031	0.344131
C49	C	1.060475	0.726030	0.344158
C50	C	1.034923	0.749399	0.468819
H51	H	0.550074	0.273328	-0.000030
H52	H	0.720008	0.220837	-0.000015
H53	H	1.015232	0.767405	0.293411
O54	O	0.956068	0.821438	0.529202
C55	C	0.823228	0.943013	0.516083
C56	C	0.912492	0.861430	0.447552
H57	H	0.787986	0.975393	0.450098
H58	H	0.760143	0.880807	0.574428
H59	H	0.855528	1.033321	0.574471
H60	H	0.880288	0.771115	0.389099
H61	H	0.975562	0.923729	0.389282
O62	O	1.442641	0.376471	0.470734
C63	C	1.575553	0.255023	0.483870
C64	C	1.486329	0.336673	0.552391
H65	H	1.610916	0.222846	0.549861
H66	H	1.543310	0.164604	0.425551
H67	H	1.638542	0.317259	0.425457
H68	H	1.423310	0.274547	0.610869
H69	H	1.518652	0.427100	0.610636
O70	O	0.811770	0.816084	-0.000215
C71	C	0.978503	0.915481	-0.102853
C72	C	0.862105	0.871622	-0.102818
H73	H	1.019238	0.960368	-0.185811
H74	H	0.985301	0.991640	-0.020028
H75	H	1.017158	0.826805	-0.102780
H76	H	0.823376	0.960215	-0.102932
H77	H	0.855381	0.795419	-0.185635
O78	O	0.986092	0.794016	0.716188
C79	C	0.853266	0.915605	0.703055
C80	C	0.942522	0.834005	0.634531
H81	H	0.818029	0.947983	0.637065
H82	H	0.790175	0.853412	0.761407
H83	H	0.885574	1.005915	0.761435
H84	H	0.910310	0.743689	0.576086
H85	H	1.005597	0.896292	0.576254
O86	O	1.007513	0.149688	0.000284
C87	C	0.825805	0.145674	0.103569
C88	C	0.934887	0.115878	0.103359
H89	H	0.767053	0.118326	0.186884
H90	H	0.829116	0.254838	0.102796
H91	H	0.800477	0.085827	0.021122
H92	H	0.960280	0.175640	0.185792
H93	H	0.931515	0.006691	0.104070
O94	O	1.333206	0.476534	0.347682
C95	C	1.444904	0.374464	0.168769
C96	C	1.416777	0.400259	0.305913
H97	H	1.512488	0.312818	0.134956
H98	H	1.373943	0.319447	0.134882
H99	H	1.469148	0.472127	0.134937
H100	H	1.392555	0.302658	0.339846
H101	H	1.487761	0.455335	0.339719
H102	H	1.252971	0.229646	0.180346
H103	H	0.871179	0.700241	-0.000047
O104	O	1.338328	0.168179	-0.196024
C105	C	1.496200	0.305330	-0.272639
C106	C	1.417216	0.265059	-0.161128
H107	H	1.559988	0.383682	-0.244465
H108	H	1.533063	0.215807	-0.329153
H109	H	1.453971	0.346378	-0.326863
H110	H	1.459366	0.224036	-0.106811
H111	H	1.380355	0.354620	-0.104703
H112	H	0.678743	0.977166	-0.000090
O113	O	1.141107	-0.043424	-0.196271
C114	C	1.179800	-0.089814	-0.410708
C115	C	1.213002	-0.007849	-0.299135
H116	H	1.237898	-0.061063	-0.493901
H117	H	1.178558	-0.198669	-0.410313
H118	H	1.098309	-0.070325	-0.410500
H119	H	1.294503	-0.027226	-0.299270
H120	H	1.214171	0.100980	-0.299573
O121	O	1.391242	0.048777	0.000285
C122	C	1.530693	0.092022	0.103445
C123	C	1.421585	0.121415	0.103297
H124	H	1.555268	0.150755	0.186708
H125	H	1.527885	-0.017386	0.102730
H126	H	1.589737	0.121003	0.020945
H127	H	1.362481	0.092514	0.185783
H128	H	1.424479	0.230824	0.103949
H129	H	0.486785	0.904922	-0.000080
H130	H	1.263204	0.540633	0.293381
H131	H	0.433684	0.440814	-0.000033
H132	H	1.099700	0.690183	0.819648
H133	H	0.911980	0.293061	-0.000021
H134	H	1.071762	0.035715	0.180169
H135	H	1.383539	0.430622	0.706524
