data_functionalizedCrystal
_audit_creation_method	'MofGen! by Chris Wilmer'
_symmetry_space_group_name_H-M	'P1'
_symmetry_Int_Tables_number	1
_symmetry_cell_setting	triclinic
loop_
_symmetry_equiv_pos_as_xyz
  x,y,z
_cell_length_a	16.959454
_cell_length_b	13.033748
_cell_length_c	13.032268
_cell_angle_alpha	76.702071
_cell_angle_beta	82.849649
_cell_angle_gamma	97.214359
loop_
_atom_site_label
_atom_site_type_symbol
_atom_site_fract_x
_atom_site_fract_y
_atom_site_fract_z
Zn1	Zn	-0.203695	1.547431	0.394599
Zn2	Zn	-0.316673	1.569878	0.217019
Zn3	Zn	-0.203751	1.392384	0.239540
Zn4	Zn	-0.355084	1.369793	0.417086
O5	O	-0.269801	1.469871	0.317061
O6	O	-0.202583	1.699033	0.352206
O7	O	-0.285643	1.565181	0.071384
O8	O	-0.093128	1.413012	0.260123
O9	O	-0.285588	1.715524	0.221739
O10	O	-0.093087	1.526924	0.374044
O11	O	-0.202679	1.434777	0.087931
O12	O	-0.239924	1.240763	0.281928
O13	O	-0.351053	1.374508	0.562725
O14	O	-0.351108	1.224165	0.412370
O15	O	-0.239828	1.505019	0.546203
O16	O	-0.432384	1.543275	0.243544
O17	O	-0.460604	1.396274	0.390533
C18	C	-0.299691	1.193927	0.352034
C19	C	-0.312500	1.075874	0.367021
C20	C	-0.263138	1.031414	0.309265
C21	C	-0.276376	0.909399	0.324754
C22	C	-0.475175	1.469785	0.317054
C23	C	-0.563028	1.469840	0.317074
C24	C	-0.949212	1.393427	0.393578
C25	C	-0.919766	1.546598	0.240614
C26	C	-0.837223	1.546562	0.240609
C27	C	-0.810671	1.469956	0.317089
C28	C	-0.866662	1.393387	0.393573
C29	C	-0.781227	1.623123	0.164119
C30	C	-0.698678	1.623090	0.164110
C31	C	-0.672124	1.546488	0.240596
C32	C	-0.728121	1.469916	0.317084
C33	C	-0.701569	1.393311	0.393564
C34	C	-0.757564	1.316743	0.470058
C35	C	-0.840108	1.316785	0.470059
C36	C	-0.589580	1.546446	0.240595
C37	C	-0.619019	1.393271	0.393559
C38	C	-0.063624	1.469984	0.317087
C39	C	0.024236	1.470032	0.317098
C40	C	-0.299719	1.434740	0.594078
C41	C	-0.312468	1.419769	0.712126
C42	C	-0.239794	1.746893	0.281952
C43	C	-0.227008	1.864943	0.266991
C44	C	-0.239935	1.504927	0.041114
C45	C	-0.226941	1.520104	-0.076959
C46	C	-0.263120	1.477668	0.756581
C47	C	-0.276296	1.462196	0.878589
H48	H	-0.597407	1.330892	0.455842
H49	H	-0.364562	1.023608	0.427930
H50	H	-0.885706	1.254447	0.532335
H51	H	-0.328298	1.401161	0.930853
C52	C	-0.201451	1.661858	0.699441
C53	C	-0.192914	1.560054	0.686038
H54	H	-0.158103	1.712718	0.655898
H55	H	-0.250927	1.679647	0.679332
H56	H	-0.201097	1.662253	0.772183
H57	H	-0.193273	1.559657	0.613298
H58	H	-0.143425	1.542261	0.706140
H59	H	-0.994806	1.331090	0.455860
C60	C	-0.083800	1.576226	0.882171
C61	C	-0.156725	1.602489	0.852509
H62	H	-0.040451	1.627083	0.838626
H63	H	-0.083458	1.576635	0.954902
H64	H	-0.078029	1.507153	0.873084
H65	H	-0.162499	1.671559	0.861604
H66	H	-0.157067	1.602090	0.779761
C67	C	-0.382143	1.338015	0.889883
C68	C	-0.382678	1.337392	0.782673
H69	H	-0.425493	1.287163	0.933431
H70	H	-0.332668	1.320210	0.909981
H71	H	-0.387920	1.407094	0.898948
H72	H	-0.376895	1.268315	0.773606
H73	H	-0.432165	1.355191	0.762569
C74	C	-0.644094	1.248679	0.537955
C75	C	-0.728371	1.232540	0.554124
H76	H	-0.626071	1.196701	0.589858
H77	H	-0.624570	1.242233	0.468553
H78	H	-0.624486	1.318047	0.544509
H79	H	-0.747980	1.163175	0.547562
H80	H	-0.747903	1.238977	0.623544
H81	H	-0.941390	1.608961	0.178342
C82	C	-0.223123	1.174379	0.150701
C83	C	-0.192858	1.101967	0.227033
H84	H	-0.179733	1.217938	0.099937
H85	H	-0.257772	1.136248	0.115455
H86	H	-0.252378	1.218073	0.184944
H87	H	-0.163608	1.058268	0.192790
H88	H	-0.158195	1.140101	0.262281
H89	H	-0.653091	1.685436	0.101826
H90	H	-0.174946	0.917205	0.206070
C91	C	-0.316397	0.766446	0.483330
C92	C	-0.346660	0.838856	0.406994
H93	H	-0.359787	0.722900	0.534103
H94	H	-0.287152	0.722748	0.449099
H95	H	-0.281738	0.804586	0.518571
H96	H	-0.381315	0.800715	0.371748
H97	H	-0.375919	0.882559	0.441229
C98	C	-0.894691	1.691054	0.096084
C99	C	-0.810414	1.707227	0.079961
H100	H	-0.912710	1.742956	0.044101
H101	H	-0.914275	1.621648	0.089635
H102	H	-0.914242	1.697607	0.165447
H103	H	-0.790862	1.700666	0.010600
H104	H	-0.790822	1.776650	0.086400
C105	C	-0.568770	1.697839	0.089387
C106	C	-0.528032	1.630598	0.156519
H107	H	-0.530771	1.749797	0.037483
H108	H	-0.601616	1.656765	0.054594
H109	H	-0.601541	1.732573	0.130557
H110	H	-0.495266	1.595858	0.115350
H111	H	-0.495172	1.671678	0.191314
