data_functionalizedCrystal
_audit_creation_method	'MofGen! by Chris Wilmer'
_symmetry_space_group_name_H-M	'P1'
_symmetry_Int_Tables_number	1
_symmetry_cell_setting	triclinic
loop_
_symmetry_equiv_pos_as_xyz
  x,y,z
_cell_length_a	13.897448
_cell_length_b	13.897449
_cell_length_c	13.897441
_cell_angle_alpha	90.026069
_cell_angle_beta	89.969401
_cell_angle_gamma	89.982380
loop_
_atom_site_label
_atom_site_type_symbol
_atom_site_fract_x
_atom_site_fract_y
_atom_site_fract_z
Zn1	Zn	-0.383986	-1.474703	-0.545519
Zn2	Zn	0.116014	-0.974703	-0.045519
Zn3	Zn	-0.545308	-1.474597	-0.384220
Zn4	Zn	-0.045308	-0.974597	0.115780
Zn5	Zn	-0.384028	-1.313392	-0.384222
Zn6	Zn	0.115972	-0.813392	0.115778
Zn7	Zn	-0.545240	-1.313374	-0.545457
Zn8	Zn	-0.045240	-0.813374	-0.045457
O9	O	-0.464641	-1.394016	-0.464854
O10	O	0.035359	-0.894016	0.035146
O11	O	-0.405396	-1.609670	-0.524147
O12	O	0.094604	-1.109670	-0.024147
O13	O	-0.523959	-1.453176	-0.249238
O14	O	-0.023959	-0.953176	0.250762
O15	O	-0.249041	-1.334842	-0.405645
O16	O	0.250959	-0.834842	0.094355
O17	O	-0.523918	-1.609592	-0.405641
O18	O	-0.023918	-1.109592	0.094359
O19	O	-0.249010	-1.453356	-0.524149
O20	O	0.250990	-0.953356	-0.024149
O21	O	-0.405468	-1.334739	-0.249240
O22	O	0.094532	-0.834739	0.250760
O23	O	-0.405403	-1.178408	-0.405585
O24	O	0.094597	-0.678408	0.094415
O25	O	-0.523804	-1.334811	-0.680447
O26	O	-0.023804	-0.834811	-0.180447
O27	O	-0.523845	-1.178394	-0.524045
O28	O	-0.023845	-0.678394	-0.024045
O29	O	-0.405331	-1.453339	-0.680492
O30	O	0.094669	-0.953339	-0.180492
O31	O	-0.680280	-1.453158	-0.405582
O32	O	-0.180280	-0.953158	0.094418
O33	O	-0.680231	-1.334708	-0.524043
O34	O	-0.180231	-0.834708	-0.024043
C35	C	-0.464622	-1.143402	-0.464809
C36	C	0.035378	-0.643402	0.035191
C37	C	-0.464637	-1.036188	-0.464813
C38	C	0.035363	-0.536188	0.035187
C39	C	-0.464639	-0.949118	-0.464825
C40	C	0.035361	-0.449118	0.035175
C41	C	-0.464644	-0.839886	-0.464849
C42	C	0.035356	-0.339886	0.035151
C43	C	-0.715255	-1.393946	-0.464827
C44	C	-0.215255	-0.893946	0.035173
C45	C	-0.822469	-1.394004	-0.464847
C46	C	-0.322469	-0.894004	0.035153
C47	C	-1.018764	-1.394105	-0.464907
C48	C	-0.518764	-0.894105	0.035093
C49	C	-0.909531	-1.394046	-0.464877
C50	C	-0.409531	-0.894046	0.035123
C51	C	-0.213048	-1.394113	-0.464904
C52	C	0.286952	-0.894113	0.035096
C53	C	-0.105834	-1.394154	-0.464925
C54	C	0.394166	-0.894154	0.035075
C55	C	-0.464555	-1.394085	-0.716448
C56	C	0.035445	-0.894085	-0.216448
C57	C	-0.464519	-1.394114	-0.823662
C58	C	0.035481	-0.894114	-0.323662
C59	C	-0.464656	-0.645609	-0.464889
C60	C	0.035344	-0.145609	0.035111
C61	C	-0.464653	-0.752823	-0.464873
C62	C	0.035347	-0.252823	0.035127
C63	C	-0.464454	-1.394140	-1.019957
C64	C	0.035546	-0.894140	-0.519957
C65	C	-0.464493	-1.394122	-0.910724
C66	C	0.035507	-0.894122	-0.410724
C67	C	-0.464656	-1.394004	-0.214240
C68	C	0.035344	-0.894004	0.285760
C69	C	-0.464420	-1.394161	-0.107027
C70	C	0.035580	-0.894161	0.392973
