data_functionalizedCrystal
_audit_creation_method	'MofGen! by Chris Wilmer'
_symmetry_space_group_name_H-M	'P1'
_symmetry_Int_Tables_number	1
_symmetry_cell_setting	triclinic
loop_
_symmetry_equiv_pos_as_xyz
  x,y,z
_cell_length_a	16.625547
_cell_length_b	18.050590
_cell_length_c	16.625539
_cell_angle_alpha	89.966288
_cell_angle_beta	90.024822
_cell_angle_gamma	89.977571
loop_
_atom_site_label
_atom_site_type_symbol
_atom_site_fract_x
_atom_site_fract_y
_atom_site_fract_z
Zn1	Zn	1.232680	0.295659	0.455971
Zn2	Zn	1.232584	0.419857	0.321125
Zn3	Zn	1.097842	0.295685	0.321141
Zn4	Zn	1.097813	0.419812	0.455905
O5	O	1.165230	0.357753	0.388535
O6	O	1.345500	0.312142	0.438104
O7	O	1.214682	0.403415	0.208295
O8	O	1.115782	0.191757	0.339061
O9	O	1.345429	0.403390	0.339033
O10	O	1.214847	0.191738	0.438119
O11	O	1.115688	0.312186	0.208307
O12	O	0.985006	0.312143	0.338997
O13	O	1.115731	0.403313	0.568746
O14	O	0.984984	0.403338	0.438007
O15	O	1.214818	0.312099	0.568794
O16	O	1.214653	0.523776	0.338970
O17	O	1.115637	0.523742	0.437992
C18	C	0.955739	0.357739	0.388497
C19	C	0.866118	0.357751	0.388500
C20	C	0.793335	0.357752	0.388510
C21	C	0.702027	0.357756	0.388530
C22	C	0.629250	0.357763	0.388551
C23	C	0.537936	0.357768	0.388570
C24	C	1.165153	0.550705	0.388490
C25	C	1.165194	0.633251	0.388497
C26	C	1.219136	0.832693	0.334710
C27	C	1.238830	0.882024	0.408297
C28	C	1.165229	0.784382	0.388518
C29	C	1.145606	0.882132	0.314953
C30	C	1.165264	0.930367	0.388532
C31	C	1.184960	0.832625	0.462145
C32	C	1.091703	0.832730	0.368751
C33	C	1.111368	0.882038	0.442389
C34	C	1.165211	0.700283	0.388509
C35	C	1.165282	1.014463	0.388550
C36	C	1.375539	0.357768	0.388574
C37	C	1.465160	0.357775	0.388591
C38	C	1.165282	0.357698	0.598844
C39	C	1.165304	0.357674	0.688466
C40	C	1.165310	1.164048	0.388581
C41	C	1.165296	1.081502	0.388555
C42	C	1.165224	0.357755	0.179045
C43	C	1.165358	0.357569	0.089424
C44	C	1.165342	0.357591	1.016641
C45	C	1.165329	0.357617	0.925333
C46	C	1.165323	0.357633	0.852556
C47	C	1.165310	0.357658	0.761242
H48	H	1.264744	0.811026	0.289257
H49	H	1.128995	0.903878	0.252734
H50	H	1.301024	0.903679	0.425028
N51	N	1.051008	0.910558	0.502747
H52	H	1.051015	0.966509	0.502099
H53	H	0.995650	0.891777	0.488277
N54	N	1.009342	0.804020	0.346567
H55	H	0.994554	0.821997	0.290951
H56	H	1.009875	0.748074	0.347294
H57	H	1.201510	0.810972	0.524417
