data_functionalizedCrystal
_audit_creation_method	'MofGen! by Chris Wilmer'
_symmetry_space_group_name_H-M	'P1'
_symmetry_Int_Tables_number	1
_symmetry_cell_setting	triclinic
loop_
_symmetry_equiv_pos_as_xyz
  x,y,z
_cell_length_a	14.908742
_cell_length_b	14.908178
_cell_length_c	19.805399
_cell_angle_alpha	86.675724
_cell_angle_beta	93.284555
_cell_angle_gamma	90.210560
loop_
_atom_site_label
_atom_site_type_symbol
_atom_site_fract_x
_atom_site_fract_y
_atom_site_fract_z
Zn1	Zn	1.353933	-0.437289	-0.305014
Zn2	Zn	1.345165	-0.587660	-0.185695
Zn3	Zn	1.203576	-0.428643	-0.198740
Zn4	Zn	1.194878	-0.578945	-0.305743
O5	O	1.274388	-0.508134	-0.248798
O6	O	1.478590	-0.464502	-0.283422
O7	O	1.326354	-0.566595	-0.092709
O8	O	1.230831	-0.303957	-0.217992
O9	O	1.472148	-0.574979	-0.195759
O10	O	1.341297	-0.310309	-0.296071
O11	O	1.222330	-0.449766	-0.102293
O12	O	1.076602	-0.441315	-0.218698
O13	O	1.216005	-0.560125	-0.400363
O14	O	1.070211	-0.551741	-0.297313
O15	O	1.332862	-0.456051	-0.399828
O16	O	1.317919	-0.712337	-0.196466
O17	O	1.207504	-0.705934	-0.284664
C18	C	1.040783	-0.494645	-0.259500
C19	C	0.940844	-0.488896	-0.264094
C20	C	0.803329	-0.423375	-0.316268
C21	C	0.897231	-0.428769	-0.311956
C22	C	0.890549	-0.543634	-0.220543
C23	C	0.796647	-0.538240	-0.224855
C24	C	0.753041	-0.478107	-0.272719
C25	C	0.659138	-0.472709	-0.277027
C26	C	0.652457	-0.587578	-0.185618
C27	C	0.746359	-0.592973	-0.181306
C28	C	1.260841	-0.741764	-0.239242
C29	C	1.255127	-0.841716	-0.235173
C30	C	1.359333	-1.035997	-0.308927
C31	C	1.353968	-1.129911	-0.305106
C32	C	1.239028	-1.123461	-0.223713
C33	C	1.244393	-1.029546	-0.227534
C34	C	1.304548	-0.985818	-0.270142
C35	C	1.309917	-0.891902	-0.273959
C36	C	1.194974	-0.885453	-0.192570
C37	C	1.189609	-0.979367	-0.188749
C38	C	1.508905	-0.521677	-0.238055
C39	C	1.608842	-0.527448	-0.233476
C40	C	1.274442	-0.508080	-0.425341
C41	C	1.274464	-0.508057	-0.500573
C42	C	1.288012	-0.273594	-0.258405
C43	C	1.293818	-0.173647	-0.262499
C44	C	1.335313	-0.453863	-0.535640
C45	C	1.335324	-0.453838	-0.606329
C46	C	1.274489	-0.508012	-0.641950
C47	C	1.213634	-0.562208	-0.606878
C48	C	1.213620	-0.562228	-0.536191
C49	C	1.213690	-0.562127	-0.891953
C50	C	1.213710	-0.562105	-0.962645
C51	C	1.335394	-0.453737	-0.962091
C52	C	1.335380	-0.453757	-0.891403
C53	C	1.274522	-0.507949	-0.856338
C54	C	1.274509	-0.507975	-0.779689
C55	C	1.274505	-0.507991	-0.718597
C56	C	1.274390	-0.508126	-0.072942
C57	C	1.274556	-0.507905	0.002287
H58	H	0.938172	-0.384200	-0.347418
H59	H	0.767825	-0.374404	-0.355235
H60	H	0.623635	-0.423742	-0.315998
H61	H	1.164148	-0.606268	-0.863410
H62	H	0.926069	-0.592594	-0.181576
C63	C	1.146707	-0.621865	-0.497615
H64	H	1.110489	-0.654139	-0.528952
H65	H	1.109517	-0.585231	-0.473234
H66	H	1.178844	-0.663037	-0.466869
H67	H	0.781876	-0.641933	-0.142338
C68	C	1.414235	-1.185106	-0.347765
H69	H	1.450832	-1.145609	-0.373682
H70	H	1.377726	-1.219765	-0.377319
H71	H	1.451345	-1.223987	-0.318607
C72	C	0.597138	-0.647793	-0.137716
H73	H	0.534967	-0.635975	-0.147141
H74	H	0.613269	-0.635443	-0.092090
H75	H	0.609040	-0.709115	-0.144377
H76	H	1.358901	-0.856299	-0.308651
C77	C	1.172856	-1.171568	-0.176855
H78	H	1.140988	-1.128234	-0.154306
H79	H	1.205176	-1.210192	-0.144321
H80	H	1.131563	-1.205947	-0.203038
C81	C	1.425486	-0.987892	-0.355801
H82	H	1.457340	-1.031228	-0.378359
H83	H	1.466780	-0.953495	-0.329640
H84	H	1.393140	-0.949285	-0.388338
C85	C	1.123442	-1.027469	-0.141884
H86	H	1.091580	-0.984131	-0.119335
H87	H	1.155768	-1.066089	-0.109350
H88	H	1.082145	-1.061852	-0.168060
C89	C	1.134705	-0.830254	-0.149908
H90	H	1.146510	-0.768058	-0.158288
H91	H	1.147018	-0.846435	-0.103208
H92	H	1.073400	-0.842205	-0.161921
H93	H	1.384920	-0.409646	-0.862404
H94	H	1.164098	-0.606314	-0.635887
C95	C	1.402228	-0.394267	-0.496463
H96	H	1.438462	-0.361980	-0.527475
H97	H	1.439403	-0.430928	-0.465684
H98	H	1.370095	-0.353106	-0.472071
H99	H	1.384875	-0.409710	-0.634877
H100	H	1.384945	-0.409607	-0.990649
H101	H	1.164168	-0.606221	-0.991646
