data_functionalizedCrystal
_audit_creation_method	'MofGen! by Chris Wilmer'
_symmetry_space_group_name_H-M	'P1'
_symmetry_Int_Tables_number	1
_symmetry_cell_setting	triclinic
loop_
_symmetry_equiv_pos_as_xyz
  x,y,z
_cell_length_a	14.519709
_cell_length_b	18.266242
_cell_length_c	14.519709
_cell_angle_alpha	90.007285
_cell_angle_beta	83.680145
_cell_angle_gamma	90.003418
loop_
_atom_site_label
_atom_site_type_symbol
_atom_site_fract_x
_atom_site_fract_y
_atom_site_fract_z
O1	O	1.223873	0.060787	0.120893
O2	O	1.473873	0.310787	0.370893
O3	O	1.723873	0.560787	0.620893
O4	O	1.973873	0.810787	0.870893
O5	O	0.955396	0.060810	0.135129
O6	O	1.205396	0.310810	0.385129
O7	O	1.455396	0.560810	0.635129
O8	O	1.705396	0.810810	0.885129
O9	O	1.096753	0.060791	-0.006228
O10	O	1.346753	0.310791	0.243772
O11	O	1.596753	0.560791	0.493772
O12	O	1.846753	0.810791	0.743772
O13	O	1.082517	0.060806	0.262249
O14	O	1.332517	0.310806	0.512249
O15	O	1.582517	0.560806	0.762249
O16	O	1.832517	0.810806	1.012249
O17	O	1.096729	-0.060971	-0.006235
O18	O	1.346729	0.189029	0.243765
O19	O	1.596729	0.439029	0.493765
O20	O	1.846729	0.689029	0.743765
O21	O	0.955372	-0.060952	0.135122
O22	O	1.205372	0.189048	0.385122
O23	O	1.455372	0.439048	0.635122
O24	O	1.705372	0.689048	0.885122
O25	O	1.223849	-0.060975	0.120885
O26	O	1.473849	0.189025	0.370885
O27	O	1.723849	0.439025	0.620885
O28	O	1.973849	0.689025	0.870885
Zn29	Zn	1.089607	-0.080296	0.128002
Zn30	Zn	1.339607	0.169704	0.378002
Zn31	Zn	1.589607	0.419704	0.628002
Zn32	Zn	1.839607	0.669704	0.878002
Zn33	Zn	1.089639	0.080131	0.128012
Zn34	Zn	1.339639	0.330131	0.378012
Zn35	Zn	1.589639	0.580131	0.628012
Zn36	Zn	1.839639	0.830131	0.878012
O37	O	1.082493	-0.060956	0.262242
O38	O	1.332493	0.189044	0.512242
O39	O	1.582493	0.439044	0.762242
O40	O	1.832493	0.689044	1.012242
C41	C	0.921025	-0.000068	0.134462
C42	C	1.171025	0.249932	0.384462
C43	C	1.421025	0.499932	0.634462
C44	C	1.671025	0.749932	0.884462
C45	C	0.818643	-0.000060	0.132474
C46	C	1.068643	0.249940	0.382474
C47	C	1.318643	0.499940	0.632474
C48	C	1.568643	0.749940	0.882474
N49	N	1.089592	-0.189783	0.127995
N50	N	1.339592	0.060217	0.377995
N51	N	1.589592	0.310217	0.627995
N52	N	1.839592	0.560217	0.877995
C53	C	0.443748	-0.000094	0.125154
C54	C	0.693748	0.249906	0.375154
C55	C	0.943748	0.499906	0.625154
C56	C	1.193748	0.749906	0.875154
C57	C	0.548056	-0.000084	0.127187
C58	C	0.798056	0.249916	0.377187
C59	C	1.048056	0.499916	0.627187
C60	C	1.298056	0.749916	0.877187
C61	C	0.631192	-0.000076	0.128814
C62	C	0.881192	0.249924	0.378814
C63	C	1.131192	0.499924	0.628814
C64	C	1.381192	0.749924	0.878814
C65	C	0.735507	-0.000068	0.130847
C66	C	0.985507	0.249932	0.380847
C67	C	1.235507	0.499932	0.630847
C68	C	1.485507	0.749932	0.880847
C69	C	1.152206	-0.228100	0.065433
C70	C	1.402206	0.021900	0.315433
C71	C	1.652206	0.271900	0.565433
C72	C	1.902206	0.521900	0.815433
C73	C	1.152211	-0.304745	0.065429
C74	C	1.402211	-0.054745	0.315429
C75	C	1.652211	0.195255	0.565429
C76	C	1.902211	0.445255	0.815429
C77	C	1.089613	-0.343070	0.128003
C78	C	1.339613	-0.093070	0.378003
C79	C	1.589613	0.156930	0.628003
C80	C	1.839613	0.406930	0.878003
C81	C	1.026988	-0.304743	0.190569
C82	C	1.276988	-0.054743	0.440569
C83	C	1.526988	0.195257	0.690569
C84	C	1.776988	0.445257	0.940569
C85	C	1.026977	-0.228100	0.190566
C86	C	1.276977	0.021900	0.440566
C87	C	1.526977	0.271900	0.690566
C88	C	1.776977	0.521900	0.940566
N89	N	1.078009	-0.463397	0.209587
N90	N	1.328009	-0.213397	0.459587
N91	N	1.578009	0.036603	0.709587
N92	N	1.828009	0.286603	0.959587
N93	N	1.078024	-0.536205	0.209587
N94	N	1.328024	-0.286205	0.459587
N95	N	1.578024	-0.036205	0.709587
N96	N	1.828024	0.213795	0.959587
C97	C	1.089639	-0.573992	0.128016
C98	C	1.339639	-0.323992	0.378016
C99	C	1.589639	-0.073992	0.628016
C100	C	1.839639	0.176008	0.878016
N101	N	1.101255	-0.536220	0.046442
N102	N	1.351255	-0.286220	0.296442
N103	N	1.601255	-0.036220	0.546442
N104	N	1.851255	0.213780	0.796442
N105	N	1.101245	-0.463406	0.046442
N106	N	1.351245	-0.213406	0.296442
N107	N	1.601245	0.036594	0.546442
N108	N	1.851245	0.286594	0.796442
C109	C	1.089617	-0.426177	0.128013
C110	C	1.339617	-0.176177	0.378013
C111	C	1.589617	0.073823	0.628013
C112	C	1.839617	0.323823	0.878013
C113	C	1.152262	-0.695416	0.065444
C114	C	1.402262	-0.445416	0.315444
C115	C	1.652262	-0.195416	0.565444
C116	C	1.902262	0.054584	0.815444
C117	C	1.152261	-0.772063	0.065439
C118	C	1.402261	-0.522063	0.315439
C119	C	1.652261	-0.272063	0.565439
C120	C	1.902261	-0.022063	0.815439
C121	C	1.027042	-0.772060	0.190587
C122	C	1.277042	-0.522060	0.440587
C123	C	1.527042	-0.272060	0.690587
C124	C	1.777042	-0.022060	0.940587
C125	C	1.027038	-0.695415	0.190585
C126	C	1.277038	-0.445415	0.440585
C127	C	1.527038	-0.195415	0.690585
C128	C	1.777038	0.054585	0.940585
C129	C	1.089653	-0.657098	0.128014
C130	C	1.339653	-0.407098	0.378014
C131	C	1.589653	-0.157098	0.628014
C132	C	1.839653	0.092902	0.878014
C133	C	1.258221	-0.000095	0.121553
C134	C	1.508221	0.249905	0.371553
C135	C	1.758221	0.499905	0.621553
C136	C	2.008221	0.749905	0.871553
C137	C	1.360602	-0.000099	0.123541
C138	C	1.610602	0.249901	0.373541
C139	C	1.860602	0.499901	0.623541
C140	C	2.110602	0.749901	0.873541
C141	C	1.096078	-0.000090	-0.040591
C142	C	1.346078	0.249910	0.209409
C143	C	1.596078	0.499910	0.459409
C144	C	1.846078	0.749910	0.709409
C145	C	1.094090	-0.000090	-0.142972
C146	C	1.344090	0.249910	0.107028
C147	C	1.594090	0.499910	0.357028
C148	C	1.844090	0.749910	0.607028
N149	N	1.089661	0.189618	0.128012
N150	N	1.339661	0.439618	0.378012
N151	N	1.589661	0.689618	0.628012
N152	N	1.839661	0.939618	0.878012
C153	C	1.086770	-0.000070	-0.517868
C154	C	1.336770	0.249930	-0.267868
C155	C	1.586770	0.499930	-0.017868
C156	C	1.836770	0.749930	0.232132
C157	C	1.088803	-0.000076	-0.413560
C158	C	1.338803	0.249924	-0.163560
C159	C	1.588803	0.499924	0.086440
C160	C	1.838803	0.749924	0.336440
C161	C	1.090430	-0.000081	-0.330423
C162	C	1.340430	0.249919	-0.080423
C163	C	1.590430	0.499919	0.169577
C164	C	1.840430	0.749919	0.419577
C165	C	1.092463	-0.000085	-0.226109
C166	C	1.342463	0.249915	0.023891
C167	C	1.592463	0.499915	0.273891
C168	C	1.842463	0.749915	0.523891
C169	C	1.083168	-0.000074	0.296605
C170	C	1.333168	0.249926	0.546605
C171	C	1.583168	0.499926	0.796605
C172	C	1.833168	0.749926	1.046605
C173	C	1.085156	-0.000069	0.398987
C174	C	1.335156	0.249931	0.648987
C175	C	1.585156	0.499931	0.898987
C176	C	1.835156	0.749931	1.148987
H177	H	1.203188	-0.196904	0.014483
H178	H	1.453188	0.053096	0.264483
H179	H	1.703188	0.303096	0.514483
H180	H	1.953188	0.553096	0.764483
Cl181	Cl	0.948325	-0.647240	0.269243
Cl182	Cl	1.198325	-0.397240	0.519243
Cl183	Cl	1.448325	-0.147240	0.769243
Cl184	Cl	1.698325	0.102760	1.019243
Cl185	Cl	1.230972	-0.647245	-0.013220
Cl186	Cl	1.480972	-0.397245	0.236780
Cl187	Cl	1.730972	-0.147245	0.486780
Cl188	Cl	1.980972	0.102755	0.736780
H189	H	0.976017	-0.335951	0.241516
H190	H	1.226017	-0.085951	0.491516
H191	H	1.476017	0.164049	0.741516
H192	H	1.726017	0.414049	0.991516
H193	H	0.976069	-0.803263	0.241532
H194	H	1.226069	-0.553263	0.491532
H195	H	1.476069	-0.303263	0.741532
H196	H	1.726069	-0.053263	0.991532
H197	H	1.203200	-0.335948	0.014482
H198	H	1.453200	-0.085948	0.264482
H199	H	1.703200	0.164052	0.514482
H200	H	1.953200	0.414052	0.764482
Cl201	Cl	0.948258	-0.179927	0.269222
Cl202	Cl	1.198258	0.070073	0.519222
Cl203	Cl	1.448258	0.320073	0.769222
Cl204	Cl	1.698258	0.570073	1.019222
H205	H	1.203246	-0.803261	0.014488
H206	H	1.453246	-0.553261	0.264488
H207	H	1.703246	-0.303261	0.514488
H208	H	1.953246	-0.053261	0.764488
