data_functionalizedCrystal
_audit_creation_method	'MofGen! by Chris Wilmer'
_symmetry_space_group_name_H-M	'P1'
_symmetry_Int_Tables_number	1
_symmetry_cell_setting	triclinic
loop_
_symmetry_equiv_pos_as_xyz
  x,y,z
_cell_length_a	18.101398
_cell_length_b	19.121063
_cell_length_c	18.101389
_cell_angle_alpha	87.580609
_cell_angle_beta	90.024327
_cell_angle_gamma	92.464489
loop_
_atom_site_label
_atom_site_type_symbol
_atom_site_fract_x
_atom_site_fract_y
_atom_site_fract_z
Zn1	Zn	1.119554	-0.279777	0.431404
Zn2	Zn	1.619554	0.220223	0.931404
Zn3	Zn	1.114175	-0.397213	0.312837
Zn4	Zn	1.614175	0.102787	0.812837
Zn5	Zn	0.995713	-0.279770	0.307565
Zn6	Zn	1.495713	0.220230	0.807565
Zn7	Zn	0.990390	-0.397183	0.436624
Zn8	Zn	1.490390	0.102817	0.936624
O9	O	1.054958	-0.338486	0.372107
O10	O	1.554958	0.161514	0.872107
O11	O	1.222473	-0.295371	0.415698
O12	O	1.722473	0.204629	0.915698
O13	O	1.098437	-0.381644	0.208505
O14	O	1.598437	0.118356	0.708505
O15	O	1.016620	-0.181486	0.319601
O16	O	1.516620	0.318514	0.819601
O17	O	1.218521	-0.381651	0.328587
O18	O	1.718521	0.118349	0.828587
O19	O	1.107605	-0.181491	0.410586
O20	O	1.607605	0.318509	0.910586
O21	O	1.011404	-0.295359	0.204632
O22	O	1.511404	0.204641	0.704632
O23	O	0.891375	-0.295330	0.324663
O24	O	1.391375	0.204670	0.824663
O25	O	1.007547	-0.381599	0.539564
O26	O	1.507547	0.118401	1.039564
O27	O	0.887464	-0.381592	0.419482
O28	O	1.387464	0.118408	0.919482
O29	O	1.102443	-0.295342	0.535729
O30	O	1.602443	0.204658	1.035729
O31	O	1.093276	-0.495494	0.333648
O32	O	1.593276	0.004506	0.833648
O33	O	1.002331	-0.495472	0.424594
O34	O	1.502331	0.004528	0.924594
C35	C	0.862549	-0.338457	0.372067
C36	C	1.362549	0.161543	0.872067
C37	C	0.780234	-0.338462	0.372069
C38	C	1.280234	0.161538	0.872069
C39	C	0.481141	-0.338506	0.372133
C40	C	0.981141	0.161494	0.872133
C41	C	0.514915	-0.283961	0.312742
C42	C	1.014915	0.216039	0.812742
C43	C	0.600526	-0.284107	0.312506
C44	C	1.100526	0.215893	0.812506
C45	C	0.629525	-0.338484	0.372101
C46	C	1.129525	0.161516	0.872101
C47	C	0.595084	-0.412466	0.354099
C48	C	1.095084	0.087534	0.854099
C49	C	0.509452	-0.412163	0.353690
C50	C	1.009452	0.087837	0.853690
C51	C	0.513600	-0.319712	0.449688
C52	C	1.013600	0.180288	0.949688
C53	C	0.599325	-0.318065	0.449186
C54	C	1.099325	0.181935	0.949186
C55	C	0.713385	-0.338476	0.372084
C56	C	1.213385	0.161524	0.872084
C57	C	0.397281	-0.338519	0.372148
C58	C	0.897281	0.161481	0.872148
C59	C	1.046662	-0.520967	0.380276
C60	C	1.546662	-0.020967	0.880276
C61	C	1.043181	-0.599034	0.383795
C62	C	1.543181	-0.099034	0.883795
C63	C	1.088932	-0.635698	0.338137
C64	C	1.588932	-0.135698	0.838137
C65	C	1.085662	-0.709049	0.341451
C66	C	1.585662	-0.209049	0.841451
C67	C	1.036637	-0.745735	0.390420
C68	C	1.536637	-0.245735	0.890420
C69	C	0.990884	-0.709066	0.436083
C70	C	1.490884	-0.209066	0.936083
C71	C	0.994158	-0.635716	0.432772
C72	C	1.494158	-0.135716	0.932772
C73	C	1.024385	-0.967206	0.402788
C74	C	1.524385	-0.467206	0.902788
C75	C	1.021113	-1.040562	0.406094
C76	C	1.521113	-0.540562	0.906094
C77	C	1.115892	-1.040539	0.311462
C78	C	1.615892	-0.540539	0.811462
C79	C	1.119159	-0.967188	0.308152
C80	C	1.619159	-0.467188	0.808152
C81	C	1.073408	-0.930525	0.353818
C82	C	1.573408	-0.430525	0.853818
C83	C	1.033292	-0.820713	0.393807
C84	C	1.533292	-0.320713	0.893807
C85	C	1.076758	-0.855549	0.350434
C86	C	1.576758	-0.355549	0.850434
C87	C	1.248119	-0.338515	0.372148
C88	C	1.748119	0.161485	0.872148
C89	C	1.330432	-0.338528	0.372165
C90	C	1.830432	0.161472	0.872165
C91	C	1.055002	-0.338468	0.565269
C92	C	1.555002	0.161532	1.065269
C93	C	1.055020	-0.338461	0.647582
C94	C	1.555020	0.161539	1.147582
C95	C	1.063306	-0.155292	0.363923
C96	C	1.563306	0.344708	0.863923
C97	C	1.066864	-0.077226	0.360436
C98	C	1.566864	0.422774	0.860436
C99	C	1.054959	-0.338453	0.179695
C100	C	1.554959	0.161547	0.679695
C101	C	1.055093	-0.338263	0.097373
C102	C	1.555093	0.161737	0.597373
C103	C	1.055069	-0.338329	0.946668
C104	C	1.555069	0.161671	1.446668
C105	C	0.995174	-0.392427	0.917747
C106	C	1.495174	0.107573	1.417747
C107	C	0.995318	-0.392678	0.832140
C108	C	1.495318	0.107322	1.332140
C109	C	1.055044	-0.338394	0.798288
C110	C	1.555044	0.161606	1.298288
C111	C	1.132167	-0.358491	0.830296
C112	C	1.632167	0.141509	1.330296
C113	C	1.131831	-0.358846	0.915957
C114	C	1.631831	0.141154	1.415957
C115	C	1.038526	-0.264013	0.911754
C116	C	1.538526	0.235987	1.411754
C117	C	1.036771	-0.264443	0.826122
C118	C	1.536771	0.235557	1.326122
C119	C	1.055035	-0.338430	0.714430
C120	C	1.555035	0.161570	1.214430
C121	C	1.055084	-0.338295	1.030526
C122	C	1.555084	0.161705	1.530526
H123	H	0.494409	-0.266704	0.466696
H124	H	0.994409	0.233296	0.966696
C125	C	0.478906	-0.468927	0.409819
C126	C	0.978906	0.031073	0.909819
N127	N	0.455902	-0.511684	0.452092
N128	N	0.955902	-0.011684	0.952092
H129	H	0.981200	-1.070430	0.445983
H130	H	1.481200	-0.570430	0.945983
C131	C	1.009413	-0.466393	0.950138
C132	C	1.509413	0.033607	1.450138
N133	N	1.020144	-0.522105	0.974531
N134	N	1.520144	-0.022105	1.474531
H135	H	1.159079	-0.937319	0.268278
H136	H	1.659079	-0.437319	0.768278
C137	C	0.979358	-0.861075	0.447664
C138	C	1.479358	-0.361075	0.947664
N139	N	0.938733	-0.891478	0.488227
N140	N	1.438733	-0.391478	0.988227
C141	C	0.620072	-0.468844	0.410897
C142	C	1.120072	0.031156	0.910897
N143	N	0.638898	-0.511307	0.453676
N144	N	1.138898	-0.011307	0.953676
H145	H	0.937700	-0.379979	0.937774
H146	H	1.437700	0.120021	1.437774
C147	C	0.485046	-0.300543	0.235464
C148	C	0.985046	0.199457	0.735464
N149	N	0.462547	-0.313035	0.177258
N150	N	0.962547	0.186965	0.677258
H151	H	0.938024	-0.380101	0.810543
H152	H	1.438024	0.119899	1.310543
C153	C	1.130682	-0.815192	0.296568
C154	C	1.630682	-0.315192	0.796568
N155	N	1.171295	-0.784789	0.255993
N156	N	1.671295	-0.284789	0.755993
H157	H	1.122917	-0.738898	0.304271
H158	H	1.622917	-0.238898	0.804271
H159	H	0.980032	-0.249287	0.805110
H160	H	1.480032	0.250713	1.305110
H161	H	0.620422	-0.296530	0.254971
H162	H	1.120422	0.203470	0.754971
C163	C	1.142862	-0.595349	0.284265
C164	C	1.642862	-0.095349	0.784265
N165	N	1.183486	-0.564961	0.243689
N166	N	1.683486	-0.064961	0.743689
C167	C	0.483820	-0.373381	0.509416
C168	C	0.983820	0.126619	1.009416
N169	N	0.461384	-0.413806	0.554397
N170	N	0.961384	0.086194	1.054397
H171	H	1.177847	-0.320327	0.808236
H172	H	1.677847	0.179673	1.308236
H173	H	0.615770	-0.428682	0.298133
H174	H	1.115770	0.071318	0.798133
H175	H	0.622115	-0.263622	0.462821
H176	H	1.122115	0.236378	0.962821
C177	C	0.626000	-0.367830	0.511808
C178	C	1.126000	0.132170	1.011808
N179	N	0.646089	-0.405321	0.558974
N180	N	1.146089	0.094679	1.058974
H181	H	1.153140	-1.070398	0.274285
H182	H	1.653140	-0.570398	0.774285
C183	C	1.152068	-0.431106	0.804596
C184	C	1.652068	0.068894	1.304596
N185	N	1.167052	-0.485801	0.785240
N186	N	1.667052	0.014199	1.285240
H187	H	1.005969	-0.447763	0.814132
H188	H	1.505969	0.052237	1.314132
C189	C	1.193931	-0.307939	0.941692
C190	C	1.693931	0.192061	1.441692
N191	N	1.240709	-0.269601	0.961073
N192	N	1.740709	0.230399	1.461073
H193	H	0.983441	-0.245705	0.932518
H194	H	1.483441	0.254295	1.432518
C195	C	0.481448	-0.433688	0.277225
C196	C	0.981448	0.066312	0.777225
N197	N	0.460360	-0.449898	0.219629
N198	N	0.960360	0.050102	0.719629
H199	H	0.987132	-0.937361	0.439969
H200	H	1.487132	-0.437361	0.939969
H201	H	1.077478	-0.221996	0.802832
H202	H	1.577478	0.278004	1.302832
H203	H	0.950970	-0.738942	0.475958
H204	H	1.450970	-0.238942	0.975958
H205	H	0.956904	-0.605865	0.469953
H206	H	1.456904	-0.105865	0.969953
H207	H	1.082192	-0.223708	0.930220
H208	H	1.582192	0.276292	1.430220
H209	H	0.496816	-0.228932	0.323490
H210	H	0.996816	0.271068	0.823490
C211	C	0.632282	-0.209989	0.327224
C212	C	1.132282	0.290011	0.827224
N213	N	0.656197	-0.154159	0.338306
N214	N	1.156197	0.345841	0.838306
C215	C	1.151297	-0.432240	0.946252
C216	C	1.651297	0.067760	1.446252
N217	N	1.165957	-0.487522	0.969066
N218	N	1.665957	0.012478	1.469066
