data_functionalizedCrystal
_audit_creation_method	'MofGen! by Chris Wilmer'
_symmetry_space_group_name_H-M	'P1'
_symmetry_Int_Tables_number	1
_symmetry_cell_setting	triclinic
loop_
_symmetry_equiv_pos_as_xyz
  x,y,z
_cell_length_a	13.897449
_cell_length_b	16.120444
_cell_length_c	13.897441
_cell_angle_alpha	87.133622
_cell_angle_beta	90.023394
_cell_angle_gamma	92.927498
loop_
_atom_site_label
_atom_site_type_symbol
_atom_site_fract_x
_atom_site_fract_y
_atom_site_fract_z
Zn1	Zn	1.455175	-0.331863	0.564897
Zn2	Zn	1.955175	0.168137	1.064897
Zn3	Zn	1.446864	-0.471295	0.411769
Zn4	Zn	1.946864	0.028705	0.911769
Zn5	Zn	1.293861	-0.331902	0.403610
Zn6	Zn	1.793861	0.168098	0.903610
Zn7	Zn	1.285644	-0.471239	0.573011
Zn8	Zn	1.785644	0.028761	1.073011
O9	O	1.370386	-0.401575	0.488322
O10	O	1.870386	0.098425	0.988322
O11	O	1.589053	-0.350366	0.544603
O12	O	2.089053	0.149634	1.044603
O13	O	1.426529	-0.452844	0.275707
O14	O	1.926529	0.047156	0.775707
O15	O	1.322177	-0.215231	0.418195
O16	O	1.822177	0.284769	0.918195
O17	O	1.582947	-0.452806	0.432100
O18	O	2.082947	0.047194	0.932100
O19	O	1.440693	-0.215202	0.536691
O20	O	1.940693	0.284798	1.036691
O21	O	1.314119	-0.350432	0.269713
O22	O	1.814119	0.149568	0.769713
O23	O	1.157790	-0.350378	0.426062
O24	O	1.657790	0.149622	0.926062
O25	O	1.308172	-0.452711	0.706914
O26	O	1.808172	0.047289	1.206914
O27	O	1.151753	-0.452749	0.550520
O28	O	1.651753	0.047251	1.050520
O29	O	1.432725	-0.350312	0.700952
O30	O	1.932725	0.149688	1.200952
O31	O	1.418561	-0.587954	0.439968
O32	O	1.918561	-0.087954	0.939968
O33	O	1.300113	-0.587913	0.558432
O34	O	1.800113	-0.087913	1.058432
C35	C	1.119772	-0.401562	0.488287
C36	C	1.619772	0.098438	0.988287
C37	C	1.012558	-0.401577	0.488296
C38	C	1.512558	0.098423	0.988296
C39	C	0.925488	-0.401579	0.488313
C40	C	1.425488	0.098421	0.988313
C41	C	0.816255	-0.401585	0.488342
C42	C	1.316255	0.098415	0.988342
C43	C	1.357570	-0.618183	0.500987
C44	C	1.857570	-0.118183	1.000987
C45	C	1.352175	-0.710850	0.506437
C46	C	1.852175	-0.210850	1.006437
C47	C	1.398607	-0.921792	0.460254
C48	C	1.898607	-0.421792	0.960254
C49	C	1.342343	-0.880506	0.516399
C50	C	1.842343	-0.380506	1.016399
C51	C	1.347815	-0.786100	0.510855
C52	C	1.847815	-0.286100	1.010855
C53	C	1.393137	-1.016206	0.465797
C54	C	1.893137	-0.516206	0.965797
C55	C	1.621978	-0.401588	0.488357
C56	C	2.121978	0.098412	0.988357
C57	C	1.729192	-0.401594	0.488372
C58	C	2.229192	0.098406	0.988372
C59	C	1.370459	-0.401501	0.739910
C60	C	1.870459	0.098499	1.239910
C61	C	1.370490	-0.401470	0.847122
C62	C	1.870490	0.098530	1.347122
C63	C	1.383279	-0.184120	0.475628
C64	C	1.883279	0.315880	0.975628
C65	C	1.388773	-0.091454	0.470219
C66	C	1.888773	0.408546	0.970219
C67	C	1.370373	-0.401588	0.237708
C68	C	1.870373	0.098412	0.737708
C69	C	1.370542	-0.401385	0.130483
C70	C	1.870542	0.098615	0.630483
C71	C	1.370519	-0.401413	1.043414
C72	C	1.870519	0.098587	1.543414
C73	C	1.370500	-0.401447	0.934184
C74	C	1.870500	0.098553	1.434184
H75	H	1.290064	-0.916061	0.568629
H76	H	1.790064	-0.416061	1.068629
F77	F	1.466934	-0.875322	0.391988
F78	F	1.966934	-0.375322	0.891988
