data_functionalizedCrystal
_audit_creation_method	'MofGen! by Chris Wilmer'
_symmetry_space_group_name_H-M	'P1'
_symmetry_Int_Tables_number	1
_symmetry_cell_setting	triclinic
loop_
_symmetry_equiv_pos_as_xyz
  x,y,z
_cell_length_a	12.827893
_cell_length_b	15.299816
_cell_length_c	12.827885
_cell_angle_alpha	99.651217
_cell_angle_beta	89.980728
_cell_angle_gamma	80.350459
loop_
_atom_site_label
_atom_site_type_symbol
_atom_site_fract_x
_atom_site_fract_y
_atom_site_fract_z
Zn1	Zn	1.669582	-0.359013	-0.662871
Zn2	Zn	1.699689	-0.509854	-0.518394
Zn3	Zn	1.494831	-0.359057	-0.488154
Zn4	Zn	1.525008	-0.509787	-0.693081
O5	O	1.597278	-0.434428	-0.590625
O6	O	1.819813	-0.379032	-0.643718
O7	O	1.672485	-0.489897	-0.368155
O8	O	1.492783	-0.232842	-0.486032
O9	O	1.841933	-0.489854	-0.537571
O10	O	1.621172	-0.232810	-0.614396
O11	O	1.521977	-0.379107	-0.345938
O12	O	1.352596	-0.379042	-0.515325
O13	O	1.544216	-0.489740	-0.835300
O14	O	1.374767	-0.489782	-0.665884
O15	O	1.650433	-0.378967	-0.813105
O16	O	1.701746	-0.636053	-0.566865
O17	O	1.573409	-0.636004	-0.695207
C18	C	1.325764	-0.434410	-0.590602
C19	C	1.209614	-0.434424	-0.590622
C20	C	1.168758	-0.489178	-0.537996
C21	C	1.048711	-0.489194	-0.538015
C22	C	1.644148	-0.668753	-0.637618
C23	C	1.664294	-0.768999	-0.657757
C24	C	1.453971	-1.051940	-0.447044
C25	C	1.435036	-0.957754	-0.428125
C26	C	1.492349	-0.910561	-0.485531
C27	C	1.568600	-0.957562	-0.561860
C28	C	1.587530	-1.051757	-0.580786
C29	C	1.625909	-0.910378	-0.619274
C30	C	1.702159	-0.957379	-0.695602
C31	C	1.721086	-1.051565	-0.714525
C32	C	1.663773	-1.098758	-0.657119
C33	C	1.606978	-0.816183	-0.600347
C34	C	1.740538	-0.816000	-0.734090
C35	C	1.759472	-0.910186	-0.753008
C36	C	1.869851	-0.434446	-0.590648
C37	C	1.986006	-0.434453	-0.590658
C38	C	1.597332	-0.434341	-0.863178
C39	C	1.597356	-0.434304	-0.979323
C40	C	1.550253	-0.199187	-0.543471
C41	C	1.530214	-0.098941	-0.523376
C42	C	1.522898	-0.379471	-1.020112
C43	C	1.522920	-0.379432	-1.140155
C44	C	1.597270	-0.434449	-0.319119
C45	C	1.597398	-0.434232	-0.202923
H46	H	1.021175	-0.387570	-0.635710
H47	H	1.783170	-1.089831	-0.776682
H48	H	1.661151	-0.481175	-1.167810
F49	F	1.471908	-0.810321	-0.465681
F50	F	1.525830	-0.766171	-0.519114
H51	H	1.372953	-0.919489	-0.365980
F52	F	1.139174	-0.373171	-0.649539
H53	H	1.661117	-0.481220	-1.033274
H54	H	1.787205	-0.777576	-0.780837
H55	H	1.222655	-0.536046	-0.492931
F56	F	1.392970	-1.102172	-0.385971
H57	H	1.013533	-0.536069	-0.492957
F58	F	1.840620	-0.960219	-0.834242
H59	H	1.679189	-1.175452	-0.672515
H60	H	1.459132	-0.332559	-0.966163
F61	F	1.439600	-0.318064	-1.186053
