data_functionalizedCrystal
_audit_creation_method	'MofGen! by Chris Wilmer'
_symmetry_space_group_name_H-M	'P1'
_symmetry_Int_Tables_number	1
_symmetry_cell_setting	triclinic
loop_
_symmetry_equiv_pos_as_xyz
  x,y,z
_cell_length_a	17.038272
_cell_length_b	10.489741
_cell_length_c	16.098713
_cell_angle_alpha	93.024985
_cell_angle_beta	87.132809
_cell_angle_gamma	92.174635
loop_
_atom_site_label
_atom_site_type_symbol
_atom_site_fract_x
_atom_site_fract_y
_atom_site_fract_z
O1	O	0.107225	-1.698964	0.069204
O2	O	0.117585	-1.328736	0.069217
O3	O	-0.001423	-1.511650	0.069204
O4	O	0.226233	-1.516050	0.069217
O5	O	0.004878	-1.522468	-0.069305
O6	O	0.123886	-1.339554	-0.069292
O7	O	0.113526	-1.709782	-0.069305
Zn8	Zn	0.119706	-1.526386	-0.091290
Zn9	Zn	0.111405	-1.512132	0.091202
O10	O	0.232534	-1.526868	-0.069292
C11	C	0.119953	-1.286540	-0.000036
C12	C	0.117612	-1.144691	-0.000031
C13	C	-0.027424	-1.513057	-0.000051
C14	C	-0.114286	-1.501115	-0.000050
N15	N	0.125371	-1.536123	-0.215836
C16	C	-0.163765	-1.610753	-0.000055
C17	C	-0.245381	-1.599525	-0.000046
C18	C	-0.277516	-1.478657	-0.000039
C19	C	-0.228030	-1.369010	-0.000032
C20	C	-0.146416	-1.380239	-0.000034
C21	C	-0.523504	-1.438985	-0.000026
C22	C	-0.605124	-1.427764	-0.000027
C23	C	-0.622469	-1.658280	-0.000039
C24	C	-0.540852	-1.669499	-0.000047
C25	C	-0.491374	-1.559852	-0.000035
C26	C	-0.360940	-1.467177	-0.000033
C27	C	-0.407952	-1.571333	-0.000035
C28	C	0.258535	-1.525461	-0.000036
C29	C	0.345397	-1.537403	-0.000031
C30	C	0.111158	-1.751978	-0.000051
C31	C	0.113499	-1.893826	-0.000050
C32	C	0.041891	-1.069470	-0.000044
C33	C	0.074554	-0.975355	0.068249
C34	C	0.080784	-0.986056	-0.068310
C35	C	0.150304	-1.052440	0.068318
C36	C	0.156526	-1.063155	-0.068303
C37	C	0.189244	-0.969071	0.000006
N38	N	0.105734	-1.502404	0.215747
C39	C	0.151751	-1.581384	0.259359
C40	C	0.147770	-1.574544	0.346546
C41	C	0.097768	-1.488731	0.390119
C42	C	0.051749	-1.409743	0.346501
C43	C	0.055734	-1.416577	0.259316
C44	C	0.083337	-1.463969	0.653361
C45	C	0.079354	-1.457144	0.740552
C46	C	0.175377	-1.621944	0.740591
C47	C	0.179354	-1.628776	0.653404
C48	C	0.133338	-1.549783	0.609794
C49	C	0.093696	-1.481741	0.479238
C50	C	0.137415	-1.556768	0.520677
H51	H	-0.137607	-1.709177	-0.000066
F52	F	-0.298037	-1.716218	-0.000053
F53	F	0.270689	-0.912080	0.000058
H54	H	0.011039	-1.339866	0.381985
F55	F	-0.675132	-1.774966	-0.000051
F56	F	0.204967	-1.672726	0.212993
F57	F	-0.039488	-1.126750	0.000039
H58	H	0.051357	-0.956590	-0.126047
H59	H	0.220070	-1.698656	0.617933
H60	H	0.039888	-0.936834	0.125983
H61	H	0.179689	-1.081748	0.126119
H62	H	0.191166	-1.101705	-0.126040
F63	F	-0.395148	-1.338543	-0.000022
H64	H	0.185242	-1.638860	0.382051
F65	F	-0.506659	-1.798141	-0.000033
H66	H	0.212842	-1.686254	0.776108
H67	H	0.038637	-1.387256	0.776027
F68	F	-0.093757	-1.263546	-0.000027
H69	H	0.045865	-1.399651	0.617864
F70	F	0.006758	-1.332513	0.212901
H71	H	0.178130	-1.626631	0.485196
H72	H	-0.631284	-1.329335	-0.000034
F73	F	-0.262234	-1.240372	-0.000015
F74	F	0.040480	-1.390416	0.525619
F75	F	-0.373750	-1.699965	-0.000038
F76	F	-0.470856	-1.322287	-0.000012
