data_functionalizedCrystal
_audit_creation_method	'MofGen! by Chris Wilmer'
_symmetry_space_group_name_H-M	'P1'
_symmetry_Int_Tables_number	1
_symmetry_cell_setting	triclinic
loop_
_symmetry_equiv_pos_as_xyz
  x,y,z
_cell_length_a	18.426585
_cell_length_b	12.970454
_cell_length_c	12.970454
_cell_angle_alpha	120.000713
_cell_angle_beta	89.999068
_cell_angle_gamma	59.999882
loop_
_atom_site_label
_atom_site_type_symbol
_atom_site_fract_x
_atom_site_fract_y
_atom_site_fract_z
Zr1	Zr	0.699143	1.128478	0.135248
O2	O	0.583264	1.343575	0.299882
O3	O	0.734666	0.913385	0.084778
O4	O	0.734669	1.128475	0.299869
O5	O	0.583258	1.128486	-0.084875
O6	O	0.854100	1.128468	0.299859
O7	O	0.583261	1.128485	0.084792
O8	O	0.854094	0.743712	-0.084899
O9	O	0.583264	1.513242	0.299883
O10	O	0.838946	1.001849	0.063247
O11	O	0.749814	1.001855	-0.063366
O12	O	0.749818	1.255096	0.189876
O13	O	0.660686	1.255102	0.063263
Zr14	Zr	0.889617	1.128468	-0.135366
Zr15	Zr	0.889621	1.128467	0.135233
Zr16	Zr	0.699138	1.128480	-0.135350
Zr17	Zr	0.699143	1.399078	0.135250
Zr18	Zr	0.889617	0.857868	-0.135367
O19	O	0.854094	1.343561	-0.084896
O20	O	0.854100	1.343559	0.299860
O21	O	0.583258	1.343577	-0.084874
O22	O	1.005495	0.913371	-0.300000
O23	O	1.005502	0.913369	0.084756
O24	O	0.734659	0.913388	-0.299978
O25	O	1.005502	1.128460	0.084757
O26	O	0.854090	1.128471	-0.299986
O27	O	0.734660	1.128478	-0.299977
O28	O	1.005499	1.128461	-0.084909
O29	O	0.734669	1.513233	0.299871
O30	O	0.854090	0.743713	-0.299988
O31	O	1.005495	0.743704	-0.300001
O32	O	1.005499	0.743703	-0.084911
O33	O	0.583261	1.513244	0.084794
O34	O	0.734666	1.513234	0.084781
O35	O	0.838942	1.001851	-0.189993
O36	O	0.928074	1.001845	-0.063380
O37	O	0.838946	1.255091	0.063248
O38	O	0.749814	1.255097	-0.063365
C39	C	0.794380	0.789994	-0.000060
C40	C	0.794380	0.675117	-0.000061
C41	C	0.556120	1.128487	-0.000039
C42	C	0.475257	1.128492	-0.000033
C43	C	0.409586	1.128498	-0.000033
C44	C	0.327205	1.128492	-0.000045
C45	C	0.261547	1.128476	-0.000060
C46	C	0.179160	1.128470	-0.000070
C47	C	1.032639	1.128459	-0.000078
C48	C	1.113503	1.128454	-0.000085
C49	C	0.794385	1.128471	0.338419
C50	C	0.794387	1.128470	0.453295
C51	C	0.794380	1.466952	-0.000057
C52	C	0.794380	1.581829	-0.000056
C53	C	0.794377	1.128475	0.661464
C54	C	0.794384	1.128475	0.546587
C55	C	1.032639	0.789980	-0.000080
C56	C	1.113502	0.675098	-0.000087
C57	C	0.794374	0.789996	-0.338538
C58	C	0.794372	0.675120	-0.453415
C59	C	1.032634	0.789982	-0.338557
C60	C	1.113495	0.675101	-0.453440
C61	C	0.556126	1.466965	0.338440
C62	C	0.475264	1.581846	0.453323
C63	C	0.556120	1.466967	-0.000038
C64	C	0.475257	1.581848	-0.000030
C65	C	0.794385	1.466950	0.338420
C66	C	0.794387	1.581826	0.453297
C67	C	1.104953	0.621151	0.066019
C68	C	1.180925	0.513222	0.066038
C69	C	1.265446	0.459235	-0.000058
C70	C	1.273994	0.513193	-0.066166
C71	C	1.198023	0.621127	-0.066177
C72	C	1.198003	0.621148	-0.441300
C73	C	1.273988	0.513220	-0.549235
C74	C	1.265463	0.459240	-0.669309
C75	C	1.180947	0.513203	-0.681446
C76	C	1.104964	0.621136	-0.573513
C77	C	0.390757	1.635811	0.441183
C78	C	0.314772	1.743773	0.549118
C79	C	0.323296	1.797759	0.669191
C80	C	0.407812	1.743789	0.681329
C81	C	0.483795	1.635837	0.573396
C82	C	0.483807	1.635807	-0.066125
C83	C	0.407834	1.743765	-0.066114
C84	C	0.323313	1.797756	-0.000015
C85	C	0.314765	1.743793	0.066088
C86	C	0.390737	1.635844	0.066084
H87	H	1.036138	0.665106	0.119858
H88	H	0.261460	1.885655	-0.000021
H89	H	0.552621	1.591856	-0.119960
H90	H	1.036157	0.665050	-0.583415
Cl91	Cl	0.590030	1.567997	0.588680
H92	H	1.342821	0.469222	-0.119979
H93	H	1.173948	0.469303	0.119871
H94	H	0.414742	1.787759	0.779106
Cl95	Cl	1.360945	0.323542	-0.000035
Cl96	Cl	0.208503	1.811676	0.149173
Cl97	Cl	0.379973	1.568013	0.149174
H98	H	0.414812	1.787684	-0.119948
Cl99	Cl	1.208787	0.688924	-0.149301
H100	H	1.204960	0.665083	-0.343540
H101	H	1.342797	0.469294	-0.539330
H102	H	1.327341	0.371353	-0.757185
H103	H	1.174020	0.469236	-0.779225
Cl104	Cl	0.380017	1.567964	0.290246
Cl105	Cl	0.227764	1.933469	0.804869
H106	H	0.245963	1.787697	0.539210
