data_functionalizedCrystal
_audit_creation_method	'MofGen! by Chris Wilmer'
_symmetry_space_group_name_H-M	'P1'
_symmetry_Int_Tables_number	1
_symmetry_cell_setting	triclinic
loop_
_symmetry_equiv_pos_as_xyz
  x,y,z
_cell_length_a	14.853567
_cell_length_b	10.540539
_cell_length_c	13.930277
_cell_angle_alpha	89.997612
_cell_angle_beta	89.995755
_cell_angle_gamma	84.080211
loop_
_atom_site_label
_atom_site_type_symbol
_atom_site_fract_x
_atom_site_fract_y
_atom_site_fract_z
O1	O	1.197288	0.165727	-0.079760
O2	O	0.934938	0.185470	-0.079776
O3	O	1.072098	-0.009174	-0.079766
O4	O	1.060128	0.360371	-0.079770
O5	O	1.072079	-0.009178	0.079895
O6	O	0.934919	0.185465	0.079886
O7	O	1.197269	0.165723	0.079902
Zn8	Zn	1.066091	0.175594	0.105244
Zn9	Zn	1.066116	0.175599	-0.105118
O10	O	1.060108	0.360367	0.079892
C11	C	0.901335	0.184573	0.000053
C12	C	0.801236	0.181892	0.000047
C13	C	0.387998	0.054938	0.000069
C14	C	0.368000	0.286179	0.000066
C15	C	0.462048	0.288700	0.000063
C16	C	0.519075	0.174338	0.000062
C17	C	0.482055	0.057455	0.000063
C18	C	0.499075	0.405580	0.000052
C19	C	0.593129	0.408105	0.000048
C20	C	0.650158	0.293742	0.000053
C21	C	0.613132	0.176855	0.000056
C22	C	0.670159	0.062493	0.000054
C23	C	0.633135	-0.054396	0.000064
C24	C	0.539084	-0.056908	0.000069
C25	C	0.744209	0.296254	0.000048
C26	C	0.764216	0.065010	0.000048
C27	C	1.071191	-0.056469	0.000063
C28	C	1.068505	-0.197388	0.000057
C29	C	0.965588	-0.379682	-0.000307
C30	C	0.968311	-0.233094	0.000052
C31	C	1.116712	-0.259578	0.091235
C32	C	1.113293	-0.406085	0.091312
C33	C	1.115353	-0.406621	-0.090254
C34	C	1.116276	-0.259649	-0.091459
C35	C	1.230872	0.166620	0.000071
C36	C	1.330971	0.169300	0.000071
C37	C	1.061016	0.407662	0.000061
C38	C	1.063702	0.548580	0.000060
N39	N	1.066080	0.175589	0.248810
N40	N	1.066134	0.175594	-0.248684
C41	C	1.005379	0.261753	0.701075
C42	C	1.126878	0.089435	0.701053
C43	C	1.126867	0.089431	0.600557
C44	C	1.066112	0.175591	0.550315
C45	C	1.005368	0.261755	0.600570
C46	C	1.187617	0.003277	0.550295
C47	C	1.187609	0.003271	0.449793
C48	C	1.126849	0.089426	0.399550
C49	C	1.066102	0.175592	0.449810
C50	C	1.005347	0.261752	0.399569
C51	C	0.944594	0.347913	0.449828
C52	C	0.944608	0.347909	0.550327
C53	C	1.126835	0.089429	0.299051
C54	C	1.005336	0.261753	0.299064
H55	H	0.679579	-0.147509	0.000056
O56	O	1.253140	-0.089645	0.604485
H57	H	1.323519	-0.073277	0.585193
O58	O	0.306493	0.409518	0.000062
H59	H	0.348038	0.491215	0.000053
O60	O	1.072446	-0.448011	-0.181793
H61	H	1.110100	-0.415310	-0.244404
O62	O	0.879096	0.440849	0.604530
H63	H	0.889321	0.426384	0.682854
O64	O	0.939859	0.354690	0.755271
H65	H	0.950072	0.340226	0.833596
O66	O	0.825717	-0.058345	0.000054
H67	H	0.897338	-0.036964	0.000055
H68	H	1.176303	0.019284	0.258135
H69	H	1.176347	0.019292	0.741962
O70	O	1.253120	-0.089667	0.395586
H71	H	1.295362	-0.149585	0.447408
O72	O	0.917713	-0.177214	0.086777
H73	H	0.891208	-0.254909	0.128628
O74	O	0.499154	-0.182974	0.000074
H75	H	0.424174	-0.165507	0.000067
O76	O	0.348074	-0.071132	0.000086
H77	H	0.305706	-0.077824	-0.064987
H78	H	0.452638	0.498687	0.000043
H79	H	0.623265	0.503283	0.000040
O80	O	0.784142	0.422312	0.000047
H81	H	0.761294	0.477275	-0.065026
O82	O	0.918048	-0.176086	-0.086509
H83	H	0.891571	-0.253211	-0.129003
O84	O	0.913162	-0.417011	-0.086906
H85	H	0.948697	-0.391907	-0.153269
O86	O	0.913358	-0.419094	0.085817
H87	H	0.956975	-0.489552	0.128884
H88	H	1.077649	-0.433894	0.159465
H89	H	0.895131	0.418070	0.408910
H90	H	1.190292	-0.238034	0.094629
O91	O	1.208735	-0.470691	0.096820
H92	H	1.257126	-0.397250	0.099425
O93	O	1.072344	-0.202673	0.181114
H94	H	1.015966	-0.130118	0.161076
H95	H	1.081003	-0.218401	-0.158910
H96	H	1.189326	-0.236231	-0.096960
H97	H	1.187723	-0.454643	-0.090862
H98	H	0.955858	0.331910	0.258163
