data_functionalizedCrystal
_audit_creation_method	'MofGen! by Chris Wilmer'
_symmetry_space_group_name_H-M	'P1'
_symmetry_Int_Tables_number	1
_symmetry_cell_setting	triclinic
loop_
_symmetry_equiv_pos_as_xyz
  x,y,z
_cell_length_a	21.295420
_cell_length_b	21.295417
_cell_length_c	21.295411
_cell_angle_alpha	89.978356
_cell_angle_beta	89.975408
_cell_angle_gamma	90.026289
loop_
_atom_site_label
_atom_site_type_symbol
_atom_site_fract_x
_atom_site_fract_y
_atom_site_fract_z
Zn1	Zn	0.962355	-0.250752	-0.355912
Zn2	Zn	1.295689	0.082582	-0.022579
Zn3	Zn	1.629022	0.415915	0.310755
Zn4	Zn	0.962258	-0.356004	-0.250637
Zn5	Zn	1.295591	-0.022670	0.082696
Zn6	Zn	1.628924	0.310663	0.416029
Zn7	Zn	0.857079	-0.250744	-0.250657
Zn8	Zn	1.190412	0.082589	0.082676
Zn9	Zn	1.523745	0.415922	0.416010
Zn10	Zn	0.857048	-0.355979	-0.355869
Zn11	Zn	1.190381	-0.022646	-0.022536
Zn12	Zn	1.523715	0.310687	0.310798
O13	O	0.909685	-0.303370	-0.303269
O14	O	1.243018	0.029964	0.030065
O15	O	1.576352	0.363297	0.363398
O16	O	1.050432	-0.264727	-0.341957
O17	O	1.383765	0.068606	-0.008623
O18	O	1.717098	0.401940	0.324710
O19	O	0.948277	-0.342048	-0.162550
O20	O	1.281611	-0.008715	0.170783
O21	O	1.614944	0.324619	0.504116
O22	O	0.871097	-0.162656	-0.264645
O23	O	1.204431	0.170677	0.068688
O24	O	1.537764	0.504011	0.402021
O25	O	1.050360	-0.342055	-0.264612
O26	O	1.383693	-0.008722	0.068721
O27	O	1.717027	0.324612	0.402055
O28	O	0.948444	-0.162661	-0.341976
O29	O	1.281777	0.170672	-0.008642
O30	O	1.615110	0.504005	0.324691
O31	O	0.871003	-0.264714	-0.162565
O32	O	1.204336	0.068619	0.170768
O33	O	1.537669	0.401952	0.504102
O34	O	0.768985	-0.264691	-0.264604
O35	O	1.102318	0.068642	0.068730
O36	O	1.435652	0.401976	0.402063
O37	O	0.871045	-0.342014	-0.443964
O38	O	1.204379	-0.008680	-0.110631
O39	O	1.537712	0.324653	0.222703
O40	O	0.768963	-0.342006	-0.341903
O41	O	1.102296	-0.008673	-0.008569
O42	O	1.435629	0.324660	0.324764
O43	O	0.948414	-0.264703	-0.443996
O44	O	1.281747	0.068630	-0.110662
O45	O	1.615081	0.401963	0.222671
O46	O	0.948248	-0.444090	-0.264570
O47	O	1.281581	-0.110756	0.068763
O48	O	1.614914	0.222577	0.402096
O49	O	0.870951	-0.444072	-0.341884
O50	O	1.204284	-0.110739	-0.008550
O51	O	1.537617	0.222595	0.324783
C52	C	0.746133	-0.303346	-0.303251
C53	C	1.079467	0.029988	0.030082
C54	C	1.412800	0.363321	0.363416
C55	C	0.676165	-0.303351	-0.303258
C56	C	1.009499	0.029983	0.030075
C57	C	1.342832	0.363316	0.363408
C58	C	0.176744	-0.263200	-0.343617
C59	C	0.510077	0.070133	-0.010284
C60	C	0.843411	0.403467	0.323050
C61	C	0.242486	-0.263195	-0.343617
C62	C	0.575820	0.070138	-0.010284
C63	C	0.909153	0.403471	0.323050
C64	C	0.275326	-0.303389	-0.303283
C65	C	0.608659	0.029944	0.030050
C66	C	0.941992	0.363278	0.363383
C67	C	0.242417	-0.343602	-0.262958
C68	C	0.575750	-0.010268	0.070375
C69	C	0.909084	0.323065	0.403708
C70	C	0.176676	-0.343610	-0.262964
C71	C	0.510009	-0.010276	0.070369
C72	C	0.843343	0.323057	0.403703
N73	N	0.378516	-0.308125	-0.248164
N74	N	0.711849	0.025209	0.085170
N75	N	1.045182	0.358542	0.418503
N76	N	0.440967	-0.308113	-0.248160
N77	N	0.774300	0.025220	0.085173
N78	N	1.107634	0.358553	0.418507
C79	C	0.473400	-0.303368	-0.303265
C80	C	0.806734	0.029965	0.030068
C81	C	1.140067	0.363298	0.363402
N82	N	0.441023	-0.298623	-0.358375
N83	N	0.774356	0.034711	-0.025041
N84	N	1.107690	0.368044	0.308292
N85	N	0.378566	-0.298631	-0.358377
N86	N	0.711899	0.034703	-0.025044
N87	N	1.045233	0.368036	0.308289
C88	C	0.346611	-0.303385	-0.303273
C89	C	0.679944	0.029948	0.030060
C90	C	1.013278	0.363282	0.363394
C91	C	0.577587	-0.263156	-0.343591
C92	C	0.910920	0.070177	-0.010257
C93	C	1.244253	0.403511	0.323076
C94	C	0.643330	-0.263156	-0.343592
C95	C	0.976664	0.070178	-0.010258
C96	C	1.309997	0.403511	0.323075
C97	C	0.643260	-0.343559	-0.262927
C98	C	0.976593	-0.010226	0.070406
C99	C	1.309926	0.323108	0.403739
C100	C	0.577517	-0.343562	-0.262932
C101	C	0.910851	-0.010229	0.070402
C102	C	1.244184	0.323104	0.403735
C103	C	0.544685	-0.303358	-0.303263
C104	C	0.878018	0.029976	0.030071
C105	C	1.211351	0.363309	0.363404
C106	C	0.909602	-0.466921	-0.303234
C107	C	1.242936	-0.133588	0.030099
C108	C	1.576269	0.199745	0.363433
C109	C	0.909625	-0.536890	-0.303240
C110	C	1.242958	-0.203556	0.030093
C111	C	1.576291	0.129777	0.363427
C112	C	0.949909	-0.569745	-0.263024
C113	C	1.283242	-0.236411	0.070309
C114	C	1.616576	0.096922	0.403642
C115	C	0.949939	-0.635487	-0.263038
C116	C	1.283272	-0.302154	0.070295
C117	C	1.616605	0.031180	0.403628
C118	C	0.909672	-0.668372	-0.303262
C119	C	1.243006	-0.335039	0.030072
C120	C	1.576339	-0.001705	0.363405
C121	C	0.869385	-0.635509	-0.343485
C122	C	1.202718	-0.302176	-0.010152
C123	C	1.536052	0.031158	0.323181
C124	C	0.869361	-0.569768	-0.343474
C125	C	1.202695	-0.236434	-0.010141
C126	C	1.536028	0.096899	0.323192
N127	N	0.854605	-0.771635	-0.308055
N128	N	1.187939	-0.438301	0.025279
N129	N	1.521272	-0.104968	0.358612
N130	N	0.854630	-0.834086	-0.308061
N131	N	1.187963	-0.500753	0.025272
N132	N	1.521297	-0.167419	0.358605
C133	C	0.909743	-0.866447	-0.303298
C134	C	1.243076	-0.533113	0.030035
C135	C	1.576410	-0.199780	0.363369
N136	N	0.964832	-0.833997	-0.298515
N137	N	1.298165	-0.500663	0.034818
N138	N	1.631498	-0.167330	0.368151
N139	N	0.964807	-0.771540	-0.298505
N140	N	1.298140	-0.438206	0.034828
N141	N	1.631473	-0.104873	0.368161
C142	C	0.909694	-0.739657	-0.303278
C143	C	1.243027	-0.406324	0.030055
C144	C	1.576361	-0.072991	0.363388
C145	C	0.950063	-0.970587	-0.263095
C146	C	1.283396	-0.637254	0.070238
C147	C	1.616729	-0.303921	0.403571
C148	C	0.950093	-1.036331	-0.263114
C149	C	1.283427	-0.702998	0.070219
C150	C	1.616760	-0.369664	0.403553
C151	C	0.869534	-1.036352	-0.343557
C152	C	1.202868	-0.703018	-0.010224
C153	C	1.536201	-0.369685	0.323109
C154	C	0.869509	-0.970609	-0.343542
C155	C	1.202843	-0.637276	-0.010209
C156	C	1.536176	-0.303943	0.323124
C157	C	0.909773	-0.937731	-0.303308
C158	C	1.243106	-0.604398	0.030026
C159	C	1.576439	-0.271064	0.363359
C160	C	1.073875	-0.303394	-0.303287
C161	C	1.407208	0.029939	0.030046
C162	C	1.740542	0.363272	0.363380
C163	C	1.143843	-0.303405	-0.303295
C164	C	1.477177	0.029928	0.030039
C165	C	1.810510	0.363262	0.363372
C166	C	0.909737	-0.303357	-0.467459
C167	C	1.243070	0.029977	-0.134126
C168	C	1.576404	0.363310	0.199208
C169	C	0.909759	-0.303351	-0.537427
C170	C	1.243093	0.029982	-0.204094
C171	C	1.576426	0.363316	0.129239
C172	C	0.909785	-0.139180	-0.303318
C173	C	1.243118	0.194154	0.030016
C174	C	1.576452	0.527487	0.363349
C175	C	0.909827	-0.069211	-0.303338
C176	C	1.243161	0.264122	0.029995
C177	C	1.576494	0.597455	0.363328
C178	C	0.950044	-0.263094	-0.570311
C179	C	1.283377	0.070240	-0.236978
C180	C	1.616710	0.403573	0.096355
C181	C	0.950043	-0.263066	-0.636054
C182	C	1.283376	0.070267	-0.302721
C183	C	1.616709	0.403600	0.030613
C184	C	0.909764	-0.303308	-0.668910
C185	C	1.243098	0.030026	-0.335576
C186	C	1.576431	0.363359	-0.002243
C187	C	0.869472	-0.343568	-0.636018
C188	C	1.202806	-0.010234	-0.302684
C189	C	1.536139	0.323099	0.030649
C190	C	0.869470	-0.343589	-0.570276
C191	C	1.202803	-0.010256	-0.236943
C192	C	1.536136	0.323077	0.096390
N193	N	0.904908	-0.358375	-0.772125
N194	N	1.238241	-0.025042	-0.438792
N195	N	1.571574	0.308292	-0.105459
N196	N	0.904914	-0.358353	-0.834577
N197	N	1.238247	-0.025019	-0.501243
N198	N	1.571580	0.308314	-0.167910
C199	C	0.909768	-0.303244	-0.866985
C200	C	1.243102	0.030090	-0.533651
C201	C	1.576435	0.363423	-0.200318
N202	N	0.914629	-0.248157	-0.834582
N203	N	1.247962	0.085177	-0.501249
N204	N	1.581296	0.418510	-0.167915
N205	N	0.914626	-0.248180	-0.772125
N206	N	1.247960	0.085153	-0.438791
N207	N	1.581293	0.418487	-0.105458
C208	C	0.909762	-0.303288	-0.740195
C209	C	1.243095	0.030045	-0.406862
C210	C	1.576429	0.363378	-0.073529
C211	C	0.950054	-0.262953	-0.971154
C212	C	1.283387	0.070380	-0.637821
C213	C	1.616720	0.403713	-0.304488
C214	C	0.950048	-0.262925	-1.036898
C215	C	1.283382	0.070408	-0.703565
C216	C	1.616715	0.403742	-0.370231
C217	C	0.869481	-0.343432	-1.036861
C218	C	1.202815	-0.010099	-0.703527
C219	C	1.536148	0.323235	-0.370194
C220	C	0.869483	-0.343455	-0.971118
C221	C	1.202816	-0.010121	-0.637785
C222	C	1.536150	0.323212	-0.304452
C223	C	0.909773	-0.303216	-0.938269
C224	C	1.243106	0.030117	-0.604936
C225	C	1.576439	0.363450	-0.271602
C226	C	0.909669	-0.303338	-0.139717
C227	C	1.243002	0.029996	0.193616
C228	C	1.576336	0.363329	0.526949
C229	C	0.909769	-0.303166	-0.069749
C230	C	1.243102	0.030167	0.263584
C231	C	1.576435	0.363501	0.596917
H232	H	0.269159	-0.376329	-0.230120
H233	H	0.602492	-0.042996	0.103213
H234	H	0.935826	0.290337	0.436547
H235	H	0.982850	-0.943817	-0.230336
H236	H	1.316183	-0.610483	0.102997
H237	H	1.649516	-0.277150	0.436331
H238	H	0.550853	-0.230419	-0.376430
H239	H	0.884186	0.102914	-0.043097
H240	H	1.217520	0.436248	0.290236
H241	H	0.982902	-1.063080	-0.230367
H242	H	1.316235	-0.729747	0.102967
H243	H	1.649568	-0.396414	0.436300
H244	H	0.836679	-0.376191	-1.063611
H245	H	1.170013	-0.042857	-0.730278
H246	H	1.503346	0.290476	-0.396945
H247	H	0.836752	-1.063126	-0.376311
H248	H	1.170085	-0.729793	-0.042978
H249	H	1.503418	-0.396459	0.290356
Cl250	Cl	0.684692	-0.212613	-0.394293
Cl251	Cl	1.018025	0.120721	-0.060959
Cl252	Cl	1.351359	0.454054	0.272374
H253	H	0.669997	-0.376290	-0.230092
H254	H	1.003330	-0.042957	0.103242
H255	H	1.336664	0.290376	0.436575
Cl256	Cl	0.818768	-0.676849	-0.394055
Cl257	Cl	1.152101	-0.343516	-0.060721
Cl258	Cl	1.485434	-0.010182	0.272612
H259	H	0.836675	-0.376330	-0.662773
H260	H	1.170009	-0.042997	-0.329440
H261	H	1.503342	0.290336	0.003893
H262	H	0.150016	-0.230465	-0.376460
H263	H	0.483349	0.102869	-0.043127
H264	H	0.816682	0.436202	0.290206
H265	H	0.982745	-0.662243	-0.230290
H266	H	1.316079	-0.328910	0.103043
H267	H	1.649412	0.004424	0.436377
Cl268	Cl	0.818860	-0.929303	-0.394099
Cl269	Cl	1.152193	-0.595970	-0.060766
Cl270	Cl	1.485527	-0.262637	0.272567
H271	H	0.982850	-0.230328	-0.543570
H272	H	1.316183	0.103006	-0.210236
H273	H	1.649517	0.436339	0.123097
Cl274	Cl	0.536154	-0.394099	-0.212228
Cl275	Cl	0.869487	-0.060766	0.121105
Cl276	Cl	1.202821	0.272568	0.454439
Cl277	Cl	0.283856	-0.212646	-0.394310
Cl278	Cl	0.617189	0.120687	-0.060977
Cl279	Cl	0.950523	0.454020	0.272357
Cl280	Cl	0.818840	-0.394070	-0.929776
Cl281	Cl	1.152173	-0.060736	-0.596443
Cl282	Cl	1.485506	0.272597	-0.263109
Cl283	Cl	0.135313	-0.394154	-0.212266
Cl284	Cl	0.468646	-0.060821	0.121068
Cl285	Cl	0.801979	0.272512	0.454401
H286	H	0.982695	-0.542977	-0.230265
H287	H	1.316029	-0.209644	0.103069
H288	H	1.649362	0.123690	0.436402
Cl289	Cl	0.818713	-0.528462	-0.394035
Cl290	Cl	1.152046	-0.195129	-0.060702
Cl291	Cl	1.485380	0.138205	0.272631
H292	H	0.982846	-0.230281	-0.662833
H293	H	1.316179	0.103053	-0.329500
H294	H	1.649512	0.436386	0.003833
H295	H	0.836663	-0.376371	-0.543503
H296	H	1.169996	-0.043037	-0.210169
H297	H	1.503329	0.290296	0.123164
H298	H	0.982856	-0.230185	-0.944407
H299	H	1.316190	0.103148	-0.611074
H300	H	1.649523	0.436481	-0.277740
H301	H	0.982852	-0.230139	-1.063671
H302	H	1.316185	0.103194	-0.730338
H303	H	1.649518	0.436528	-0.397005
