data_functionalizedCrystal
_audit_creation_method	'MofGen! by Chris Wilmer'
_symmetry_space_group_name_H-M	'P1'
_symmetry_Int_Tables_number	1
_symmetry_cell_setting	triclinic
loop_
_symmetry_equiv_pos_as_xyz
  x,y,z
_cell_length_a	29.839131
_cell_length_b	13.897449
_cell_length_c	13.897441
_cell_angle_alpha	90.026069
_cell_angle_beta	89.964857
_cell_angle_gamma	89.958652
loop_
_atom_site_label
_atom_site_type_symbol
_atom_site_fract_x
_atom_site_fract_y
_atom_site_fract_z
Zn1	Zn	-0.178840	-1.474544	-0.545488
Zn2	Zn	0.321160	-0.974544	-0.045488
Zn3	Zn	-0.253975	-1.474371	-0.384177
Zn4	Zn	0.246025	-0.974371	0.115823
Zn5	Zn	-0.178859	-1.313233	-0.384191
Zn6	Zn	0.321141	-0.813233	0.115809
Zn7	Zn	-0.253943	-1.313148	-0.545414
Zn8	Zn	0.246057	-0.813148	-0.045414
O9	O	-0.216404	-1.393824	-0.464817
O10	O	0.283596	-0.893824	0.035183
O11	O	-0.188812	-1.609502	-0.524114
O12	O	0.311188	-1.109502	-0.024114
O13	O	-0.244032	-1.452959	-0.249197
O14	O	0.255968	-0.952959	0.250803
O15	O	-0.115990	-1.334739	-0.405625
O16	O	0.384010	-0.834739	0.094375
O17	O	-0.244013	-1.609375	-0.405600
O18	O	0.255987	-1.109375	0.094400
O19	O	-0.115975	-1.453253	-0.524129
O20	O	0.384025	-0.953253	-0.024129
O21	O	-0.188845	-1.334571	-0.249208
O22	O	0.311155	-0.834571	0.250792
O23	O	-0.188815	-1.178240	-0.405553
O24	O	0.311185	-0.678240	0.094447
O25	O	-0.243960	-1.334594	-0.680406
O26	O	0.256040	-0.834594	-0.180406
O27	O	-0.243979	-1.178177	-0.524003
O28	O	0.256021	-0.678177	-0.024003
O29	O	-0.188781	-1.453171	-0.680460
O30	O	0.311219	-0.953171	-0.180460
O31	O	-0.316838	-1.452876	-0.405528
O32	O	0.183162	-0.952876	0.094472
O33	O	-0.316815	-1.334426	-0.523989
O34	O	0.183185	-0.834426	-0.023989
C35	C	-0.216396	-1.143209	-0.464772
C36	C	0.283604	-0.643209	0.035228
C37	C	-0.216403	-1.035995	-0.464776
C38	C	0.283597	-0.535995	0.035224
C39	C	-0.216404	-0.948926	-0.464788
C40	C	0.283596	-0.448926	0.035212
C41	C	-0.216406	-0.839693	-0.464812
C42	C	0.283594	-0.339693	0.035188
C43	C	-0.333127	-1.393650	-0.464770
C44	C	0.166873	-0.893650	0.035230
C45	C	-0.383061	-1.393663	-0.464781
C46	C	0.116939	-0.893663	0.035219
C47	C	-0.692704	-1.455613	-0.403225
C48	C	-0.192704	-0.955613	0.096775
C49	C	-0.880377	-1.455732	-0.403263
C50	C	-0.380377	-0.955732	0.096737
O51	O	-0.904641	-1.508265	-0.350889
O52	O	-0.404641	-1.008265	0.149111
N53	N	-0.903846	-1.394024	-0.464890
N54	N	-0.403846	-0.894024	0.035110
C55	C	-0.880395	-1.332286	-0.526517
C56	C	-0.380395	-0.832286	-0.026517
O57	O	-0.904663	-1.279809	-0.578943
O58	O	-0.404663	-0.779809	-0.078943
C59	C	-0.692722	-1.332172	-0.526484
C60	C	-0.192722	-0.832172	-0.026484
C61	C	-0.669256	-1.393878	-0.464846
C62	C	-0.169256	-0.893878	0.035154
C63	C	-0.669237	-1.517314	-0.341592
C64	C	-0.169237	-1.017314	0.158408
C65	C	-0.622322	-1.517280	-0.341580
C66	C	-0.122322	-1.017280	0.158420
C67	C	-0.598873	-1.455545	-0.403200
C68	C	-0.098873	-0.955545	0.096800
C69	C	-0.622340	-1.393844	-0.464833
C70	C	-0.122340	-0.893844	0.035167
C71	C	-0.669271	-1.270440	-0.588115
C72	C	-0.169271	-0.770440	-0.088115
C73	C	-0.622350	-1.270419	-0.588103
C74	C	-0.122350	-0.770419	-0.088103
C75	C	-0.598884	-1.332124	-0.526465
C76	C	-0.098884	-0.832124	-0.026465
C77	C	-0.551976	-1.332074	-0.526441
C78	C	-0.051976	-0.832074	-0.026441
N79	N	-0.528507	-1.393783	-0.464813
N80	N	-0.028507	-0.893783	0.035187
C81	C	-0.551955	-1.455518	-0.403193
C82	C	-0.051955	-0.955518	0.096807
C83	C	-0.978925	-1.332349	-0.526529
C84	C	-0.478925	-0.832349	-0.026529
C85	C	-1.025843	-1.332376	-0.526536
C86	C	-0.525843	-0.832376	-0.026536
C87	C	-1.025822	-1.455823	-0.403283
C88	C	-0.525822	-0.955823	0.096717
C89	C	-0.978904	-1.455790	-0.403271
C90	C	-0.478904	-0.955790	0.096729
C91	C	-0.955456	-1.394057	-0.464902
C92	C	-0.455456	-0.894057	0.035098
C93	C	-0.453430	-1.455441	-0.403171
C94	C	0.046570	-0.955441	0.096829
C95	C	-0.406510	-1.455398	-0.403161
C96	C	0.093490	-0.955398	0.096839
C97	C	-0.406535	-1.331955	-0.526418
C98	C	0.093465	-0.831955	-0.026418
C99	C	-0.453450	-1.331993	-0.526425
C100	C	0.046550	-0.831993	-0.026425
C101	C	-0.476896	-1.393744	-0.464798
C102	C	0.023104	-0.893744	0.035202
O103	O	-0.527683	-1.279576	-0.578795
O104	O	-0.027683	-0.779576	-0.078795
O105	O	-0.527679	-1.508002	-0.350790
O106	O	-0.027679	-1.008002	0.149210
C107	C	-0.739620	-1.455647	-0.403238
C108	C	-0.239620	-0.955647	0.096762
C109	C	-0.763086	-1.393946	-0.464870
C110	C	-0.263086	-0.893946	0.035130
C111	C	-0.739638	-1.332211	-0.526491
C112	C	-0.239638	-0.832211	-0.026491
C113	C	-0.810004	-1.393973	-0.464878
C114	C	-0.310004	-0.893973	0.035122
C115	C	-0.833453	-1.455708	-0.403257
C116	C	-0.333453	-0.955708	0.096743
C117	C	-0.809983	-1.517416	-0.341630
C118	C	-0.309983	-1.017416	0.158370
C119	C	-0.763068	-1.517382	-0.341617
C120	C	-0.263068	-1.017382	0.158383
C121	C	-0.763107	-1.270503	-0.588118
C122	C	-0.263107	-0.770503	-0.088118
C123	C	-0.810023	-1.270541	-0.588125
C124	C	-0.310023	-0.770541	-0.088125
C125	C	-0.833471	-1.332276	-0.526505
C126	C	-0.333471	-0.832276	-0.026505
C127	C	-0.099226	-1.394025	-0.464887
C128	C	0.400774	-0.894025	0.035113
C129	C	-0.049292	-1.394111	-0.464916
C130	C	0.450708	-0.894111	0.035084
C131	C	-0.216365	-1.393892	-0.716411
C132	C	0.283635	-0.893892	-0.216411
C133	C	-0.216348	-1.393921	-0.823625
C134	C	0.283652	-0.893921	-0.323625
C135	C	-0.216412	-0.645417	-0.464852
C136	C	0.283588	-0.145417	0.035148
C137	C	-0.216410	-0.752631	-0.464837
C138	C	0.283590	-0.252631	0.035163
C139	C	-0.216317	-1.393948	-1.019920
C140	C	0.283683	-0.893948	-0.519920
C141	C	-0.216336	-1.393930	-0.910687
C142	C	0.283664	-0.893930	-0.410687
C143	C	-0.216412	-1.393811	-0.214203
C144	C	0.283588	-0.893811	0.285797
C145	C	-0.216302	-1.393969	-0.106990
C146	C	0.283698	-0.893969	0.393010
H147	H	-0.387405	-1.505646	-0.352964
H148	H	0.112595	-1.005646	0.147036
Cl149	Cl	-0.839471	-1.595023	-0.264163
Cl150	Cl	-0.339471	-1.095023	0.235837
Cl151	Cl	-0.949407	-1.533367	-0.325782
Cl152	Cl	-0.449407	-1.033367	0.174218
Cl153	Cl	-1.055338	-1.254788	-0.604017
Cl154	Cl	-0.555338	-0.754788	-0.104017
Cl155	Cl	-0.839518	-1.192959	-0.665621
Cl156	Cl	-0.339518	-0.692959	-0.165621
H157	H	-1.044922	-1.506090	-0.353109
H158	H	-0.544922	-1.006090	0.146891
H159	H	-0.387436	-1.281688	-0.576586
H160	H	0.112564	-0.781688	-0.076586
H161	H	-0.472514	-1.505726	-0.352991
H162	H	0.027486	-1.005726	0.147009
Cl163	Cl	-0.592827	-1.594871	-0.264102
Cl164	Cl	-0.092827	-1.094871	0.235898
H165	H	-0.472558	-1.281751	-0.576619
H166	H	0.027442	-0.781751	-0.076619
Cl167	Cl	-0.733574	-1.594963	-0.264129
Cl168	Cl	-0.233574	-1.094963	0.235871
Cl169	Cl	-0.698707	-1.594935	-0.264116
Cl170	Cl	-0.198707	-1.094935	0.235884
Cl171	Cl	-0.698761	-1.192874	-0.665620
Cl172	Cl	-0.198761	-0.692874	-0.165620
Cl173	Cl	-0.733636	-1.192884	-0.665592
Cl174	Cl	-0.233636	-0.692884	-0.165592
H175	H	-0.603262	-1.220149	-0.638293
H176	H	-0.103262	-0.720149	-0.138293
H177	H	-0.959837	-1.282075	-0.576717
H178	H	-0.459837	-0.782075	-0.076717
