data_functionalizedCrystal
_audit_creation_method	'MofGen! by Chris Wilmer'
_symmetry_space_group_name_H-M	'P1'
_symmetry_Int_Tables_number	1
_symmetry_cell_setting	triclinic
loop_
_symmetry_equiv_pos_as_xyz
  x,y,z
_cell_length_a	9.065218
_cell_length_b	10.540539
_cell_length_c	7.540329
_cell_angle_alpha	89.998539
_cell_angle_beta	89.996962
_cell_angle_gamma	84.770688
loop_
_atom_site_label
_atom_site_type_symbol
_atom_site_fract_x
_atom_site_fract_y
_atom_site_fract_z
O1	O	1.959469	0.186143	-0.147478
O2	O	1.530108	0.201412	-0.147479
O3	O	1.754584	0.009107	-0.147476
O4	O	1.734993	0.378448	-0.147481
O5	O	1.754570	0.009105	0.147489
O6	O	1.530094	0.201409	0.147486
O7	O	1.959455	0.186141	0.147487
Cu8	Cu	1.744773	0.193775	0.174419
Cu9	Cu	1.744789	0.193778	-0.174411
O10	O	1.734979	0.378445	0.147484
C11	C	1.475122	0.199943	0.000003
C12	C	1.311301	0.195556	0.000002
C13	C	1.753108	-0.038202	0.000003
C14	C	1.748712	-0.179167	-0.000007
C15	C	1.580278	-0.363216	-0.000669
C16	C	1.584734	-0.216582	-0.000005
C17	C	1.827618	-0.240534	0.168433
C18	C	1.822022	-0.387099	0.168575
C19	C	1.825372	-0.387602	-0.166855
C20	C	1.826883	-0.240615	-0.169082
C21	C	2.014441	0.187610	0.000001
C22	C	2.178262	0.191997	-0.000009
C23	C	1.736455	0.425755	0.000001
C24	C	1.740851	0.566719	-0.000001
N25	N	1.744773	0.193772	0.419768
N26	N	1.744801	0.193771	-0.419760
H27	H	1.522646	-0.174207	-0.120750
C28	C	1.493133	-0.404308	0.161636
N29	N	1.427506	-0.435248	0.283901
C30	C	1.753547	-0.183270	0.337775
N31	N	1.697747	-0.140142	0.465320
C32	C	1.500258	-0.160480	0.163392
N33	N	1.436629	-0.118225	0.286471
H34	H	1.769148	-0.199969	-0.293689
H35	H	1.763695	-0.415515	0.294487
H36	H	1.772306	-0.419350	-0.294522
H37	H	1.946436	-0.215951	-0.179253
H38	H	1.943813	-0.434390	-0.167987
C39	C	1.981337	-0.451317	0.178927
N40	N	2.101331	-0.499679	0.186735
C41	C	1.492764	-0.402189	-0.163840
N42	N	1.426845	-0.431556	-0.286742
C43	C	1.990292	-0.209709	0.176924
N44	N	2.112816	-0.186480	0.183323
