data_functionalizedCrystal
_audit_creation_method	'MofGen! by Chris Wilmer'
_symmetry_space_group_name_H-M	'P1'
_symmetry_Int_Tables_number	1
_symmetry_cell_setting	triclinic
loop_
_symmetry_equiv_pos_as_xyz
  x,y,z
_cell_length_a	19.188929
_cell_length_b	19.188933
_cell_length_c	18.266242
_cell_angle_alpha	90.007623
_cell_angle_beta	89.971860
_cell_angle_gamma	96.854824
loop_
_atom_site_label
_atom_site_type_symbol
_atom_site_fract_x
_atom_site_fract_y
_atom_site_fract_z
O1	O	-0.087175	0.926148	0.060891
O2	O	0.412825	1.426148	0.560891
O3	O	-0.098908	0.722837	0.060903
O4	O	0.401092	1.222837	0.560903
O5	O	0.008614	0.830360	0.060852
O6	O	0.508614	1.330360	0.560852
O7	O	-0.194697	0.818626	0.060943
O8	O	0.305303	1.318626	0.560943
O9	O	0.008620	0.830342	-0.060910
O10	O	0.508620	1.330342	0.439090
O11	O	-0.098903	0.722819	-0.060859
O12	O	0.401097	1.222819	0.439141
O13	O	-0.087170	0.926130	-0.060871
O14	O	0.412830	1.426130	0.439129
Zn15	Zn	-0.093035	0.824472	-0.080197
Zn16	Zn	0.406965	1.324472	0.419803
Zn17	Zn	-0.093042	0.824496	0.080229
Zn18	Zn	0.406958	1.324496	0.580229
O19	O	-0.194692	0.818608	-0.060819
O20	O	0.305308	1.318608	0.439181
C21	C	-0.098525	0.696817	0.000023
C22	C	0.401475	1.196817	0.500023
C23	C	-0.097384	0.619313	0.000025
C24	C	0.402616	1.119313	0.500025
C25	C	-0.089242	0.066067	0.066386
C26	C	0.410758	0.566067	0.566386
C27	C	-0.090310	0.138892	0.066389
C28	C	0.409690	0.638892	0.566389
C29	C	-0.090844	0.175299	0.000017
C30	C	0.409156	0.675299	0.500017
C31	C	-0.090292	0.138878	-0.066363
C32	C	0.409708	0.638878	0.433637
C33	C	-0.089217	0.066056	-0.066365
C34	C	0.410783	0.566056	0.433635
N35	N	-0.132260	0.284311	-0.049368
N36	N	0.367740	0.784311	0.450632
N37	N	-0.133283	0.353489	-0.049363
N38	N	0.366717	0.853489	0.450637
C39	C	-0.094082	0.394707	0.000017
C40	C	0.405918	0.894707	0.500017
N41	N	-0.053828	0.364134	0.049402
N42	N	0.446172	0.864134	0.549402
N43	N	-0.052808	0.294949	0.049398
N44	N	0.447192	0.794949	0.549398
C45	C	-0.092009	0.254262	0.000011
C46	C	0.407991	0.754262	0.500011
C47	C	-0.095787	0.510084	0.066397
C48	C	0.404213	1.010084	0.566397
C49	C	-0.096851	0.582911	0.066397
C50	C	0.403149	1.082911	0.566397
C51	C	-0.096840	0.582894	-0.066357
C52	C	0.403160	1.082894	0.433643
C53	C	-0.095769	0.510071	-0.066356
C54	C	0.404231	1.010071	0.433644
C55	C	-0.095246	0.473669	0.000023
C56	C	0.404754	0.973669	0.500023
C57	C	-0.220705	0.818997	0.000073
C58	C	0.279295	1.318997	0.500073
C59	C	-0.298210	0.820137	0.000108
C60	C	0.201790	1.320137	0.500108
C61	C	-0.343133	0.757047	0.000097
C62	C	0.156867	1.257047	0.500097
C63	C	-0.415957	0.758118	0.000080
C64	C	0.084043	1.258118	0.500080
C65	C	-0.443854	0.822284	0.000060
C66	C	0.056146	1.322284	0.500060
C67	C	-0.398921	0.885383	0.000076
C68	C	0.101079	1.385383	0.500076
C69	C	-0.326099	0.884310	0.000100
C70	C	0.173901	1.384310	0.500100
N71	N	-0.551821	0.871325	-0.041427
N72	N	-0.051821	1.371325	0.458573
N73	N	-0.621000	0.872340	-0.041451
N74	N	-0.121000	1.372340	0.458549
C75	C	-0.663263	0.825522	-0.000010
C76	C	-0.163263	1.325522	0.499990
N77	N	-0.633735	0.777640	0.041447
N78	N	-0.133735	1.277640	0.541447
N79	N	-0.564551	0.776623	0.041468
N80	N	-0.064551	1.276623	0.541468
C81	C	-0.522817	0.823455	0.000035
C82	C	-0.022817	1.323455	0.500035
C83	C	-0.787151	0.763589	-0.000038
C84	C	-0.287151	1.263589	0.499962
C85	C	-0.859976	0.764664	-0.000051
C86	C	-0.359976	1.264664	0.499949
C87	C	-0.842938	0.891930	-0.000063
C88	C	-0.342938	1.391930	0.499937
C89	C	-0.770115	0.890854	-0.000043
C90	C	-0.270115	1.390854	0.499957
C91	C	-0.742226	0.826682	-0.000035
C92	C	-0.242226	1.326682	0.499965
C93	C	0.034628	0.829971	-0.000039
C94	C	0.534628	1.329971	0.499961
C95	C	0.112132	0.828830	-0.000069
C96	C	0.612132	1.328830	0.499931
C97	C	-0.087553	0.952150	0.000011
C98	C	0.412447	1.452150	0.500011
C99	C	-0.088694	1.029655	0.000014
C100	C	0.411306	1.529655	0.500014
N101	N	-0.093030	0.824461	-0.189684
N102	N	0.406970	1.324461	0.310316
C103	C	-0.045442	0.872087	-0.228016
C104	C	0.454558	1.372087	0.271984
C105	C	-0.045439	0.872092	-0.304661
C106	C	0.454561	1.372092	0.195339
C107	C	-0.093035	0.824476	-0.342971
C108	C	0.406965	1.324476	0.157029
C109	C	-0.140626	0.776841	-0.304630
C110	C	0.359374	1.276841	0.195370
C111	C	-0.140624	0.776833	-0.227987
C112	C	0.359376	1.276833	0.272013
N113	N	-0.154843	0.815400	-0.463276
N114	N	0.345157	1.315400	0.036724
N115	N	-0.154843	0.815412	-0.536084
N116	N	0.345157	1.315412	-0.036084
C117	C	-0.093045	0.824496	-0.573893
C118	C	0.406955	1.324496	-0.073893
N119	N	-0.031245	0.833581	-0.536145
N120	N	0.468755	1.333581	-0.036145
N121	N	-0.031245	0.833573	-0.463330
N122	N	0.468755	1.333573	0.036670
C123	C	-0.093043	0.824479	-0.426078
C124	C	0.406957	1.324479	0.073922
C125	C	-0.045450	0.872130	-0.695332
C126	C	0.454550	1.372130	-0.195332
C127	C	-0.045446	0.872129	-0.771978
C128	C	0.454554	1.372129	-0.271978
C129	C	-0.140640	0.776882	-0.771947
C130	C	0.359360	1.276882	-0.271947
C131	C	-0.140638	0.776879	-0.695302
C132	C	0.359362	1.276879	-0.195302
C133	C	-0.093044	0.824506	-0.656999
C134	C	0.406956	1.324506	-0.156999
N135	N	-0.093042	0.824512	0.189716
N136	N	0.406958	1.324512	0.689716
H137	H	-0.090726	0.168525	-0.120404
H138	H	0.409274	0.668525	0.379596
H139	H	-0.452541	0.706740	0.000070
H140	H	0.047459	1.206740	0.500070
O141	O	0.000757	0.918328	-0.809330
O142	O	0.500757	1.418328	-0.309330
C143	C	-0.009458	0.908133	-0.885191
C144	C	0.490542	1.408133	-0.385191
H145	H	-0.035685	0.852544	-0.895657
H146	H	0.464315	1.352544	-0.395657
H147	H	0.043437	0.916072	-0.914346
H148	H	0.543437	1.416072	-0.414346
H149	H	-0.044384	0.947539	-0.906915
H150	H	0.455616	1.447539	-0.406915
O151	O	-0.090974	0.174226	0.130883
O152	O	0.409026	0.674226	0.630883
C153	C	-0.151167	0.148328	0.171284
C154	C	0.348833	0.648328	0.671284
H155	H	-0.193113	0.122641	0.132457
H156	H	0.306887	0.622641	0.632457
H157	H	-0.172179	0.193505	0.201390
H158	H	0.327821	0.693505	0.701390
H159	H	-0.136883	0.107898	0.212672
H160	H	0.363117	0.607898	0.712672
H161	H	-0.733537	0.942230	-0.000039
H162	H	-0.233537	1.442230	0.499961
H163	H	-0.006687	0.910867	-0.196832
H164	H	0.493313	1.410867	0.303168
O165	O	-0.869912	0.954323	-0.000050
O166	O	-0.369912	1.454323	0.499950
C167	C	-0.814640	1.009781	-0.000059
C168	C	-0.314640	1.509781	0.499941
H169	H	-0.765243	0.990365	0.023010
H170	H	-0.265243	1.490365	0.523010
H171	H	-0.829748	1.054600	0.035281
H172	H	-0.329748	1.554600	0.535281
H173	H	-0.804234	1.029222	-0.058474
H174	H	-0.304234	1.529222	0.441526
H175	H	-0.088774	0.036409	-0.120414
H176	H	0.411226	0.536409	0.379586
H177	H	-0.095359	0.480445	0.120446
H178	H	0.404641	0.980445	0.620446
O179	O	0.000819	0.918423	-0.341793
O180	O	0.500819	1.418423	0.158207
C181	C	0.042842	0.960441	-0.291551
C182	C	0.542842	1.460441	0.208449
H183	H	0.014221	0.961140	-0.236900
H184	H	0.514221	1.461140	0.263100
H185	H	0.053632	1.016230	-0.313692
H186	H	0.553632	1.516230	0.186308
H187	H	0.094654	0.937931	-0.283434
H188	H	0.594654	1.437931	0.216566
H189	H	-0.097273	0.612537	-0.120398
H190	H	0.402727	1.112537	0.379602
O191	O	-0.097259	0.618333	0.130855
O192	O	0.402741	1.118333	0.630855
C193	C	-0.037434	0.668560	0.134802
C194	C	0.462566	1.168560	0.634802
H195	H	0.005151	0.652265	0.097124
H196	H	0.505151	1.152265	0.597124
H197	H	-0.017165	0.672109	0.193501
H198	H	0.482835	1.172109	0.693501
H199	H	-0.051911	0.721919	0.116973
H200	H	0.448089	1.221919	0.616973
O201	O	-0.282385	0.945553	0.000010
O202	O	0.217615	1.445553	0.500010
C203	C	-0.239720	0.948739	-0.063049
C204	C	0.260280	1.448739	0.436951
H205	H	-0.236193	0.893328	-0.084068
H206	H	0.263807	1.393328	0.415932
H207	H	-0.184915	0.974914	-0.048853
H208	H	0.315085	1.474914	0.451147
H209	H	-0.263549	0.980549	-0.107217
H210	H	0.236451	1.480549	0.392783
H211	H	-0.006694	0.910909	-0.664145
H212	H	0.493306	1.410909	-0.164145
H213	H	-0.095326	0.480423	-0.120402
H214	H	0.404674	0.980423	0.379598
H215	H	-0.421639	0.937628	0.000073
H216	H	0.078361	1.437628	0.500073
O217	O	-0.186953	0.730638	-0.190782
O218	O	0.313047	1.230638	0.309218
C219	C	-0.256042	0.741762	-0.209486
C220	C	0.243958	1.241762	0.290514
H221	H	-0.256245	0.797659	-0.230544
H222	H	0.243755	1.297659	0.269456
H223	H	-0.291103	0.733620	-0.159066
H224	H	0.208897	1.233620	0.340934
H225	H	-0.276644	0.703003	-0.253971
H226	H	0.223356	1.203003	0.246029
O227	O	-0.186766	0.730559	-0.341923
O228	O	0.313234	1.230559	0.158077
C229	C	-0.149480	0.687600	-0.386277
C230	C	0.350520	1.187600	0.113723
H231	H	-0.094777	0.715579	-0.397782
H232	H	0.405223	1.215579	0.102218
H233	H	-0.178652	0.676471	-0.440160
H234	H	0.321348	1.176471	0.059840
H235	H	-0.144860	0.636012	-0.356758
H236	H	0.355140	1.136012	0.143242
O237	O	-0.760170	0.701194	0.000014
O238	O	-0.260170	1.201194	0.500014
C239	C	-0.815442	0.645736	-0.000008
C240	C	-0.315442	1.145736	0.499992
H241	H	-0.864871	0.665161	0.023024
H242	H	-0.364871	1.165161	0.523024
H243	H	-0.800383	0.600932	0.035357
H244	H	-0.300383	1.100932	0.535357
H245	H	-0.825764	0.626271	-0.058423
H246	H	-0.325764	1.126271	0.441577
H247	H	-0.896552	0.713285	-0.000055
H248	H	-0.396552	1.213285	0.499945
H249	H	-0.320432	0.704792	0.000110
H250	H	0.179568	1.204792	0.500110
H251	H	-0.179391	0.738099	-0.664090
H252	H	0.320609	1.238099	-0.164090
O253	O	-0.088850	0.030664	0.130846
O254	O	0.411150	0.530664	0.630846
C255	C	-0.148673	-0.019567	0.134837
C256	C	0.351327	0.480433	0.634837
H257	H	-0.191249	-0.003287	0.097187
H258	H	0.308751	0.496713	0.597187
H259	H	-0.168958	-0.023100	0.193550
H260	H	0.331042	0.476900	0.693550
H261	H	-0.134186	-0.072930	0.117003
H262	H	0.365814	0.427070	0.617003
O263	O	-0.186847	0.730693	-0.809265
O264	O	0.313153	1.230693	-0.309265
C265	C	-0.176632	0.740897	-0.885134
C266	C	0.323368	1.240897	-0.385134
H267	H	-0.150402	0.796486	-0.895604
H268	H	0.349598	1.296486	-0.395604
H269	H	-0.229527	0.732964	-0.914236
H270	H	0.270473	1.232964	-0.414236
H271	H	-0.141708	0.701492	-0.906910
H272	H	0.358292	1.201492	-0.406910
