data_functionalizedCrystal
_audit_creation_method	'MofGen! by Chris Wilmer'
_symmetry_space_group_name_H-M	'P1'
_symmetry_Int_Tables_number	1
_symmetry_cell_setting	triclinic
loop_
_symmetry_equiv_pos_as_xyz
  x,y,z
_cell_length_a	17.640112
_cell_length_b	12.645330
_cell_length_c	17.639306
_cell_angle_alpha	101.188554
_cell_angle_beta	87.804122
_cell_angle_gamma	101.241872
loop_
_atom_site_label
_atom_site_type_symbol
_atom_site_fract_x
_atom_site_fract_y
_atom_site_fract_z
Zn1	Zn	1.247750	-0.136260	-0.195073
Zn2	Zn	1.222016	-0.286103	-0.068104
Zn3	Zn	1.095103	-0.150249	-0.093726
Zn4	Zn	1.120733	-0.354901	-0.220679
O5	O	1.171401	-0.231878	-0.144395
O6	O	1.350608	-0.121490	-0.156791
O7	O	1.183685	-0.245144	0.034764
O8	O	1.115396	-0.000036	-0.107176
O9	O	1.331701	-0.231579	-0.063508
O10	O	1.227545	0.010242	-0.181635
O11	O	1.090442	-0.145332	0.015940
O12	O	0.992232	-0.212043	-0.132005
O13	O	1.159078	-0.348835	-0.323549
O14	O	1.011062	-0.362400	-0.225277
O15	O	1.252397	-0.188201	-0.304736
O16	O	1.208537	-0.443587	-0.088337
O17	O	1.134124	-0.494132	-0.200433
C18	C	0.974092	-0.296206	-0.184201
C19	C	0.889686	-0.323755	-0.201248
C20	C	0.563038	-0.022573	-0.014898
C21	C	0.483728	-0.048484	-0.030926
C22	C	0.503356	-0.205201	-0.127883
C23	C	0.582670	-0.179300	-0.111865
C24	C	0.612504	-0.087986	-0.055371
C25	C	0.632136	-0.244713	-0.152339
C26	C	0.711442	-0.218818	-0.136319
C27	C	0.741282	-0.127510	-0.079826
C28	C	0.691810	-0.062091	-0.039352
C29	C	0.602299	-0.336032	-0.208829
C30	C	0.651765	-0.401445	-0.249302
C31	C	0.731074	-0.375545	-0.233287
C32	C	0.760914	-0.284237	-0.176794
C33	C	0.780546	-0.440964	-0.273761
C34	C	0.859852	-0.415069	-0.257742
C35	C	0.840220	-0.258342	-0.160774
C36	C	1.171343	-0.507324	-0.144396
C37	C	1.171393	-0.625143	-0.144408
C38	C	1.124859	-0.824510	-0.215059
C39	C	1.124521	-0.702007	-0.214930
C40	C	1.133561	-0.659489	-0.068746
C41	C	1.133276	-0.782281	-0.069175
C42	C	1.255986	-0.770435	-0.148697
C43	C	1.255847	-0.648368	-0.150546
C44	C	1.369480	-0.167300	-0.104435
C45	C	1.453889	-0.139781	-0.087406
C46	C	1.211467	-0.274632	-0.342467
C47	C	1.228541	-0.292851	-0.426874
C48	C	1.171482	0.044646	-0.144407
C49	C	1.171517	0.162484	-0.144412
C50	C	1.041987	-0.092978	-0.753498
C51	C	1.058048	-0.110114	-0.832807
C52	C	1.155131	-0.214037	-0.813188
C53	C	1.139081	-0.196905	-0.733875
C54	C	1.082508	-0.136376	-0.704036
C55	C	1.179602	-0.240303	-0.684413
C56	C	1.163550	-0.223176	-0.605108
C57	C	1.106978	-0.162653	-0.575264
C58	C	1.066456	-0.119249	-0.624731
C59	C	1.236171	-0.300838	-0.714254
C60	C	1.276692	-0.344236	-0.664792
C61	C	1.260644	-0.327103	-0.585484
C62	C	1.204072	-0.266580	-0.555640
C63	C	1.301166	-0.370507	-0.536017
C64	C	1.285114	-0.353380	-0.456712
C65	C	1.188020	-0.249453	-0.476335
C66	C	1.131534	-0.189200	0.052915
C67	C	1.114607	-0.170634	0.137350
H68	H	0.716105	0.012279	0.006640
Cl69	Cl	0.600551	0.092230	0.056119
H70	H	0.479053	-0.279551	-0.173878
H71	H	1.062971	-0.871812	-0.213598
Cl72	Cl	1.256352	-0.322364	-0.813953
H73	H	0.864515	-0.183972	-0.114783
Cl74	Cl	1.372274	-0.446613	-0.573540
H75	H	1.201191	-0.263325	-0.837494
H76	H	0.443455	0.004797	0.002031
Cl77	Cl	1.038329	-0.635594	-0.059559
Cl78	Cl	0.743027	-0.555771	-0.344764
H79	H	1.062227	-0.689257	-0.213370
Cl80	Cl	1.347807	-0.420332	-0.702312
H81	H	1.318120	-0.388702	-0.416436
H82	H	0.805859	-0.106430	-0.066783
Cl83	Cl	1.116906	-0.173344	-0.438816
Cl84	Cl	1.086791	-0.141131	-0.475565
Cl85	Cl	1.299446	-0.614808	-0.236393
Cl86	Cl	0.970873	-0.016869	-0.715979
H87	H	0.537722	-0.357113	-0.221870
Cl88	Cl	0.614250	-0.516246	-0.320311
Cl89	Cl	1.304392	-0.827263	-0.231113
Cl90	Cl	0.995342	-0.043140	-0.587213
Cl91	Cl	0.922042	-0.497306	-0.308621
H92	H	1.025050	-0.074765	-0.873077
Cl93	Cl	1.163954	-0.668444	-0.302333
H94	H	1.290946	-0.775928	-0.097044
H95	H	1.150316	-0.862422	-0.271888
H96	H	1.071048	-0.826368	-0.063663
H97	H	1.165752	-0.607122	-0.015381
Cl98	Cl	1.182104	-0.792397	0.013523
H99	H	1.293736	-0.594147	-0.101550
