data_functionalizedCrystal
_audit_creation_method	'MofGen! by Chris Wilmer'
_symmetry_space_group_name_H-M	'P1'
_symmetry_Int_Tables_number	1
_symmetry_cell_setting	triclinic
loop_
_symmetry_equiv_pos_as_xyz
  x,y,z
_cell_length_a	12.827893
_cell_length_b	19.121063
_cell_length_c	12.827885
_cell_angle_alpha	92.403967
_cell_angle_beta	89.980728
_cell_angle_gamma	92.468878
loop_
_atom_site_label
_atom_site_type_symbol
_atom_site_fract_x
_atom_site_fract_y
_atom_site_fract_z
Zn1	Zn	1.579835	-0.279579	-0.608539
Zn2	Zn	2.079835	0.220421	-0.108539
Zn3	Zn	1.572236	-0.397046	-0.441232
Zn4	Zn	2.072236	0.102954	0.058768
Zn5	Zn	1.405075	-0.279614	-0.433815
Zn6	Zn	1.905075	0.220386	0.066185
Zn7	Zn	1.397572	-0.396994	-0.615928
Zn8	Zn	1.897572	0.103006	-0.115928
O9	O	1.488680	-0.338308	-0.524878
O10	O	1.988680	0.161692	-0.024878
O11	O	1.725063	-0.295169	-0.586357
O12	O	2.225063	0.204831	-0.086357
O13	O	1.550022	-0.381505	-0.294014
O14	O	2.050022	0.118495	0.205986
O15	O	1.434577	-0.181325	-0.450796
O16	O	1.934577	0.318675	0.049204
O17	O	1.719480	-0.381471	-0.463437
O18	O	2.219480	0.118529	0.036563
O19	O	1.562973	-0.181300	-0.579165
O20	O	2.062973	0.318700	-0.079165
O21	O	1.427209	-0.295227	-0.288565
O22	O	1.927209	0.204773	0.211435
O23	O	1.257844	-0.295177	-0.457961
O24	O	1.757844	0.204823	0.042039
O25	O	1.421790	-0.381382	-0.761182
O26	O	1.921790	0.118618	-0.261182
O27	O	1.252332	-0.381415	-0.591759
O28	O	1.752332	0.118585	-0.091759
O29	O	1.555698	-0.295118	-0.755753
O30	O	2.055698	0.204882	-0.255753
O31	O	1.542747	-0.495323	-0.470602
O32	O	2.042747	0.004677	0.029398
O33	O	1.414422	-0.495285	-0.598951
O34	O	1.914422	0.004715	-0.098951
C35	C	1.217171	-0.338295	-0.524858
C36	C	1.717171	0.161705	-0.024858
C37	C	1.101017	-0.338306	-0.524875
C38	C	1.601017	0.161694	-0.024875
C39	C	1.046528	-0.381046	-0.590989
C40	C	1.546528	0.118954	-0.090989
C41	C	0.926477	-0.381059	-0.591008
C42	C	1.426477	0.118941	-0.091008
C43	C	1.476974	-0.520788	-0.536406
C44	C	1.976974	-0.020788	-0.036406
C45	C	1.472062	-0.598854	-0.541373
C46	C	1.972062	-0.098854	-0.041373
C47	C	1.536618	-0.635526	-0.476937
C48	C	2.036618	-0.135526	0.023063
C49	C	1.532005	-0.708877	-0.481615
C50	C	2.032005	-0.208877	0.018385
C51	C	1.462829	-0.745554	-0.550723
C52	C	1.962829	-0.245554	-0.050723
C53	C	1.398270	-0.708877	-0.615166
C54	C	1.898270	-0.208877	-0.115166
C55	C	1.402890	-0.635528	-0.610493
C56	C	1.902890	-0.135528	-0.110493
C57	C	1.445540	-0.967023	-0.568177
C58	C	1.945540	-0.467023	-0.068177
C59	C	1.440923	-1.040378	-0.572842
C60	C	1.940923	-0.540378	-0.072842
C61	C	1.574660	-1.040373	-0.439292
C62	C	2.074660	-0.540373	0.060708
C63	C	1.579269	-0.967021	-0.434621
C64	C	2.079269	-0.467021	0.065379
C65	C	1.514714	-0.930351	-0.499067
C66	C	2.014714	-0.430351	0.000933
C67	C	1.458109	-0.820531	-0.555503
C68	C	1.958109	-0.320531	-0.055503
C69	C	1.519440	-0.855375	-0.494292
C70	C	2.019440	-0.355375	0.005708
C71	C	1.761249	-0.338322	-0.524900
C72	C	2.261249	0.161678	-0.024900
C73	C	1.877402	-0.338328	-0.524909
C74	C	2.377402	0.161672	-0.024909
C75	C	1.488755	-0.338241	-0.797445
C76	C	1.988755	0.161759	-0.297445
C77	C	1.488787	-0.338212	-0.913596
C78	C	1.988787	0.161788	-0.413596
C79	C	1.500460	-0.155116	-0.513328
C80	C	2.000460	0.344884	-0.013328
C81	C	1.505479	-0.077050	-0.508407
C82	C	2.005479	0.422950	-0.008407
C83	C	1.555057	-0.295518	-0.962694
C84	C	2.055057	0.204482	-0.462694
C85	C	1.555091	-0.295487	-1.082742
C86	C	2.055091	0.204513	-0.582742
C87	C	1.488668	-0.338325	-0.253370
C88	C	1.988668	0.161675	0.246630
C89	C	1.488851	-0.338156	-0.137206
C90	C	1.988851	0.161844	0.362794
H91	H	1.592944	-0.605668	-0.420657
H92	H	2.092944	-0.105668	0.079343
H93	H	0.924244	-0.301737	-0.468300
H94	H	1.424244	0.198263	0.031700
O95	O	1.045083	-0.289858	-0.449900
O96	O	1.545083	0.210142	0.050100
H97	H	0.997645	-0.254201	-0.494549
H98	H	1.497645	0.245799	0.005451
H99	H	1.350322	-0.605670	-0.662965
H100	H	1.850322	-0.105670	-0.162965
O101	O	1.630254	-0.247064	-1.138666
O102	O	2.130254	0.252936	-0.638666
H103	H	1.615889	-0.191935	-1.114286
H104	H	2.115889	0.308065	-0.614286
O105	O	1.601626	-0.748433	-0.412111
O106	O	2.101626	-0.248433	0.087889
H107	H	1.650493	-0.710606	-0.363260
H108	H	2.150493	-0.210606	0.136740
H109	H	1.611763	-0.258986	-0.915852
H110	H	2.111763	0.241014	-0.415852
H111	H	1.627218	-1.070238	-0.386825
H112	H	2.127218	-0.570238	0.113175
H113	H	1.432071	-0.374737	-0.960437
H114	H	1.932071	0.125263	-0.460437
H115	H	1.432116	-0.374712	-1.094980
H116	H	1.932116	0.125288	-0.594980
O117	O	1.653889	-0.927461	-0.360093
O118	O	2.153889	-0.427461	0.139907
H119	H	1.698014	-0.965286	-0.316079
H120	H	2.198014	-0.465286	0.183921
O121	O	1.366317	-1.079942	-0.647391
O122	O	1.866317	-0.579942	-0.147391
H123	H	1.322211	-1.042120	-0.691429
H124	H	1.822211	-0.542120	-0.191429
H125	H	1.088756	-0.417626	-0.647580
H126	H	1.588756	0.082374	-0.147580
H127	H	0.879628	-0.417652	-0.647607
H128	H	1.379628	0.082348	-0.147607
H129	H	1.392975	-0.937171	-0.620650
H130	H	1.892975	-0.437171	-0.120650
H131	H	1.341950	-0.738746	-0.671440
H132	H	1.841950	-0.238746	-0.171440
O133	O	1.594062	-0.815816	-0.419771
O134	O	2.094062	-0.315816	0.080229
H135	H	1.549424	-0.782450	-0.364437
H136	H	2.049424	-0.282450	0.135563
O137	O	1.383482	-0.860097	-0.630018
O138	O	1.883482	-0.360097	-0.130018
H139	H	1.428117	-0.893469	-0.685347
H140	H	1.928117	-0.393469	-0.185347
