data_functionalizedCrystal
_audit_creation_method	'MofGen! by Chris Wilmer'
_symmetry_space_group_name_H-M	'P1'
_symmetry_Int_Tables_number	1
_symmetry_cell_setting	triclinic
loop_
_symmetry_equiv_pos_as_xyz
  x,y,z
_cell_length_a	10.654550
_cell_length_b	19.288865
_cell_length_c	9.730223
_cell_angle_alpha	89.990377
_cell_angle_beta	89.999957
_cell_angle_gamma	83.810589
loop_
_atom_site_label
_atom_site_type_symbol
_atom_site_fract_x
_atom_site_fract_y
_atom_site_fract_z
O1	O	1.665751	0.097555	-0.114205
O2	O	1.300073	0.106849	-0.114232
O3	O	1.493478	0.001141	-0.114191
O4	O	1.472346	0.203263	-0.114247
O5	O	1.493466	0.001138	0.114389
O6	O	1.300061	0.106846	0.114348
O7	O	1.665738	0.097552	0.114375
Zn8	Zn	1.482898	0.102198	0.150653
Zn9	Zn	1.482914	0.102202	-0.150511
O10	O	1.472333	0.203260	0.114333
C11	C	1.253284	0.106165	0.000055
C12	C	1.113884	0.104123	0.000046
C13	C	1.492792	-0.024742	0.000103
C14	C	1.490751	-0.101859	0.000115
C15	C	1.033066	0.166363	0.000033
C16	C	0.902087	0.164440	0.000057
C17	C	0.932756	0.038033	0.000102
C18	C	1.063733	0.039956	0.000088
C19	C	1.604232	-0.145812	0.000131
C20	C	1.602315	-0.218272	0.000109
C21	C	1.486909	-0.246775	0.000099
C22	C	1.373413	-0.202812	0.000076
C23	C	1.375334	-0.130354	0.000085
C24	C	1.396183	-0.355657	0.080159
C25	C	1.394267	-0.428114	0.080160
C26	C	1.480980	-0.470259	0.000068
C27	C	1.569631	-0.439940	-0.080006
C28	C	1.571552	-0.367482	-0.079998
C29	C	1.484814	-0.325343	0.000090
C30	C	1.592390	-0.592782	0.000057
C31	C	1.590467	-0.665243	0.000027
C32	C	1.361562	-0.649781	0.000009
C33	C	1.363488	-0.577322	0.000025
C34	C	1.478905	-0.548827	0.000056
C35	C	1.712528	0.098236	0.000085
C36	C	1.851928	0.100277	0.000085
C37	C	1.473020	0.229142	0.000036
C38	C	1.475061	0.306259	0.000015
N39	N	1.482896	0.102195	0.356190
N40	N	1.482926	0.102200	-0.356047
C41	C	1.568564	0.055408	0.428134
C42	C	1.568577	0.055408	0.572017
C43	C	1.397248	0.148990	0.571999
C44	C	1.397231	0.148986	0.428118
H45	H	1.073895	0.218611	0.000009
C46	C	1.727145	-0.266632	0.000135
H47	H	1.709468	-0.313866	0.000119
H48	H	1.774474	-0.257941	0.079855
H49	H	1.774497	-0.257928	-0.079576
H50	H	1.327503	0.187086	0.630577
C51	C	1.152638	-0.028510	0.000096
H52	H	1.104013	-0.067001	0.000103
H53	H	1.204379	-0.030387	0.079801
H54	H	1.204360	-0.030384	-0.079631
C55	C	1.662789	0.003942	0.349010
H56	H	1.650522	0.010645	0.253015
H57	H	1.649431	-0.042485	0.372609
H58	H	1.746554	0.011927	0.372581
C59	C	1.662817	0.003944	0.651150
H60	H	1.713835	-0.023917	0.587701
H61	H	1.617826	-0.025203	0.707298
H62	H	1.714952	0.029207	0.707257
C63	C	1.302994	0.200456	0.348974
H64	H	1.251990	0.228330	0.412417
H65	H	1.250863	0.175199	0.292865
H66	H	1.348002	0.229602	0.292828
H67	H	0.836289	0.215122	0.000049
H68	H	0.891906	-0.014209	0.000145
H69	H	1.325567	-0.321348	0.145387
C70	C	1.731186	-0.114471	0.000140
H71	H	1.798497	-0.151030	0.000132
H72	H	1.736695	-0.086532	0.079849
H73	H	1.736694	-0.086522	-0.079583
H74	H	1.643731	-0.342798	-0.145200
C75	C	1.665014	-0.486289	-0.168120
H76	H	1.651166	-0.533784	-0.156675
H77	H	1.748414	-0.480032	-0.139962
H78	H	1.654284	-0.473652	-0.262095
C79	C	1.719340	-0.561434	0.000076
H80	H	1.786654	-0.597992	0.000061
H81	H	1.724845	-0.533500	0.079793
H82	H	1.724849	-0.533479	-0.079639
H83	H	1.682881	-0.701029	0.000032
H84	H	1.267597	-0.672988	-0.000006
C85	C	1.238657	-0.528972	0.000032
H86	H	1.169649	-0.556323	0.000035
H87	H	1.234648	-0.500373	-0.079673
H88	H	1.234650	-0.500396	0.079759
C89	C	1.296756	-0.461463	0.168229
H90	H	1.308039	-0.510652	0.156766
H91	H	1.213992	-0.443974	0.140054
H92	H	1.308096	-0.450343	0.262211
C93	C	1.246471	-0.234162	0.000071
H94	H	1.261579	-0.283611	0.000083
H95	H	1.199763	-0.219105	-0.079643
H96	H	1.199759	-0.219119	0.079789
H97	H	1.282921	-0.094566	0.000073
