data_functionalizedCrystal
_audit_creation_method	'MofGen! by Chris Wilmer'
_symmetry_space_group_name_H-M	'P1'
_symmetry_Int_Tables_number	1
_symmetry_cell_setting	triclinic
loop_
_symmetry_equiv_pos_as_xyz
  x,y,z
_cell_length_a	13.033409
_cell_length_b	13.897448
_cell_length_c	13.897441
_cell_angle_alpha	89.969401
_cell_angle_beta	97.170691
_cell_angle_gamma	82.848469
loop_
_atom_site_label
_atom_site_type_symbol
_atom_site_fract_x
_atom_site_fract_y
_atom_site_fract_z
Zn1	Zn	1.597502	-0.571054	-0.357736
Zn2	Zn	2.097502	-0.071054	0.142264
Zn3	Zn	1.597387	-0.732362	-0.196451
Zn4	Zn	2.097387	-0.232362	0.303549
Zn5	Zn	1.422758	-0.550634	-0.216980
Zn6	Zn	1.922758	-0.050634	0.283020
Zn7	Zn	1.422738	-0.711844	-0.378218
Zn8	Zn	1.922738	-0.211844	0.121782
O9	O	1.510096	-0.641474	-0.287346
O10	O	2.010096	-0.141474	0.212654
O11	O	1.743708	-0.609585	-0.319178
O12	O	2.243708	-0.109585	0.180822
O13	O	1.574182	-0.708297	-0.064197
O14	O	2.074182	-0.208297	0.435803
O15	O	1.445995	-0.418368	-0.235671
O16	O	1.945995	0.081632	0.264329
O17	O	1.743624	-0.728098	-0.200682
O18	O	2.243624	-0.228098	0.299318
O19	O	1.574378	-0.433370	-0.339084
O20	O	2.074378	0.066630	0.160916
O21	O	1.445883	-0.574782	-0.079280
O22	O	1.945883	-0.074782	0.420720
O23	O	1.276534	-0.554885	-0.255532
O24	O	1.776534	-0.054885	0.244468
O25	O	1.445961	-0.693127	-0.510478
O26	O	1.945961	-0.193127	-0.010478
O27	O	1.276520	-0.673326	-0.373993
O28	O	1.776520	-0.173326	0.126007
O29	O	1.574359	-0.589689	-0.495430
O30	O	2.074359	-0.089689	0.004570
O31	O	1.574163	-0.864616	-0.220543
O32	O	2.074163	-0.364616	0.279457
O33	O	1.445850	-0.849541	-0.354086
O34	O	1.945850	-0.349541	0.145914
C35	C	1.238613	-0.609664	-0.319213
C36	C	1.738613	-0.109664	0.180787
C37	C	1.122472	-0.596079	-0.332869
C38	C	1.622472	-0.096079	0.167131
C39	C	1.510020	-0.892079	-0.287327
C40	C	2.010020	-0.392079	0.212673
C41	C	1.510083	-0.999300	-0.287340
C42	C	2.010083	-0.499300	0.212660
C43	C	0.950608	-0.634529	-0.294352
C44	C	1.450608	-0.134529	0.205648
C45	C	1.070647	-0.648574	-0.280233
C46	C	1.570647	-0.148574	0.219767
C47	C	1.510193	-1.195608	-0.287388
C48	C	2.010193	-0.695608	0.212612
C49	C	1.510129	-1.086368	-0.287365
C50	C	2.010129	-0.586368	0.212635
C51	C	1.782639	-0.673408	-0.255356
C52	C	2.282639	-0.173408	0.244644
C53	C	1.898781	-0.687017	-0.241723
C54	C	2.398781	-0.187017	0.258277
C55	C	1.510170	-0.641397	-0.538931
C56	C	2.010170	-0.141397	-0.038931
C57	C	1.510202	-0.641364	-0.646141
C58	C	2.010202	-0.141364	-0.146141
C59	C	1.510201	-0.389893	-0.287383
C60	C	2.010201	0.110107	0.212617
C61	C	1.510246	-0.282684	-0.287399
C62	C	2.010246	0.217316	0.212601
C63	C	1.510230	-0.641302	-0.842433
C64	C	2.010230	-0.141302	-0.342433
C65	C	1.510211	-0.641339	-0.733203
C66	C	2.010211	-0.141339	-0.233203
C67	C	1.510083	-0.641487	-0.036734
C68	C	2.010083	-0.141487	0.463266
C69	C	1.510253	-0.641272	0.070500
C70	C	2.010253	-0.141272	0.570500
H71	H	0.906112	-0.579199	-0.349865
H72	H	1.406112	-0.079199	0.150135
H73	H	0.943278	-0.742355	-0.186219
H74	H	1.443278	-0.242355	0.313781
H75	H	1.115140	-0.703916	-0.224725
H76	H	1.615140	-0.203916	0.275275
Cl77	Cl	1.053788	-0.510643	-0.418582
Cl78	Cl	1.553788	-0.010643	0.081418
