data_functionalizedCrystal
_audit_creation_method	'MofGen! by Chris Wilmer'
_symmetry_space_group_name_H-M	'P1'
_symmetry_Int_Tables_number	1
_symmetry_cell_setting	triclinic
loop_
_symmetry_equiv_pos_as_xyz
  x,y,z
_cell_length_a	10.654551
_cell_length_b	10.654551
_cell_length_c	7.681481
_cell_angle_alpha	84.205011
_cell_angle_beta	84.219269
_cell_angle_gamma	95.514636
loop_
_atom_site_label
_atom_site_type_symbol
_atom_site_fract_x
_atom_site_fract_y
_atom_site_fract_z
O1	O	-1.656076	0.188187	-0.146357
O2	O	-1.290596	0.204992	-0.146373
O3	O	-1.481738	0.013850	-0.146366
O4	O	-1.464934	0.379329	-0.146365
O5	O	-1.505264	-0.009730	0.146493
O6	O	-1.314122	0.181412	0.146486
O7	O	-1.679601	0.164606	0.146501
Zn8	Zn	-1.500597	0.169266	0.192991
Zn9	Zn	-1.469601	0.200333	-0.192863
O10	O	-1.488459	0.355748	0.146494
C11	C	-1.255561	0.191968	0.000054
C12	C	-1.116117	0.188276	0.000048
C13	C	-0.905610	0.297351	0.000064
C14	C	-1.036631	0.300822	0.000050
C15	C	-1.064576	0.072253	0.000041
C16	C	-0.933557	0.068784	0.000042
C17	C	-0.826131	0.409902	0.000084
C18	C	-0.877663	0.525926	0.000088
C19	C	-1.008683	0.529398	0.000075
C20	C	-1.088172	0.416845	0.000057
C21	C	-1.492267	-0.044737	0.000060
C22	C	-1.488573	-0.184179	0.000048
C23	C	-1.474017	-0.236838	-0.159587
C24	C	-1.470538	-0.367859	-0.159579
C25	C	-1.496177	-0.393553	0.159712
C26	C	-1.499647	-0.262533	0.159702
C27	C	-1.462943	-0.158485	-0.319241
C28	C	-1.448388	-0.211142	-0.478888
C29	C	-1.444908	-0.342164	-0.478880
C30	C	-1.455984	-0.420527	-0.319225
C31	C	-0.714636	0.177634	0.000069
C32	C	-0.854077	0.181336	0.000062
C33	C	-1.477931	0.414336	0.000065
C34	C	-1.481623	0.553780	0.000065
N35	N	-1.521760	0.148062	0.456326
N36	N	-1.448447	0.221527	-0.456198
H37	H	-1.050635	0.623871	0.000062
H38	H	-1.596613	0.073080	0.531535
H39	H	-0.719446	0.407088	0.000101
Br40	Br	-1.425136	-0.413624	-0.695538
H41	H	-0.812934	0.617563	0.000088
Br42	Br	-1.265984	0.421562	0.000010
H43	H	-1.373609	0.296513	0.468603
H44	H	-1.129305	-0.019381	0.000029
H45	H	-0.891598	-0.025685	0.000037
Br46	Br	-1.433349	-0.104797	-0.695552
H47	H	-1.465779	-0.051800	-0.319266
H48	H	-1.511473	-0.219655	0.289690
Br49	Br	-1.451244	-0.598340	-0.319219
Br50	Br	-1.511207	-0.499901	0.376372
