data_functionalizedCrystal
_audit_creation_method	'MofGen! by Chris Wilmer'
_symmetry_space_group_name_H-M	'P1'
_symmetry_Int_Tables_number	1
_symmetry_cell_setting	triclinic
loop_
_symmetry_equiv_pos_as_xyz
  x,y,z
_cell_length_a	19.288864
_cell_length_b	9.482900
_cell_length_c	19.288865
_cell_angle_alpha	99.296723
_cell_angle_beta	96.863755
_cell_angle_gamma	99.270367
loop_
_atom_site_label
_atom_site_type_symbol
_atom_site_fract_x
_atom_site_fract_y
_atom_site_fract_z
O1	O	0.932252	0.121381	-0.075694
O2	O	0.729983	0.121284	-0.087392
O3	O	0.836959	0.121307	0.019585
O4	O	0.825275	0.121359	-0.182671
O5	O	0.815230	-0.120490	-0.002231
O6	O	0.708253	-0.120513	-0.109208
O7	O	0.910522	-0.120416	-0.097511
Cu8	Cu	0.807403	-0.142542	-0.105351
Cu9	Cu	0.833101	0.143411	-0.079551
O10	O	0.803545	-0.120438	-0.204487
C11	C	0.693240	0.000373	-0.097925
C12	C	0.616133	0.000334	-0.096800
N13	N	0.789334	-0.343666	-0.123498
C14	C	0.571440	0.000373	-0.159564
C15	C	0.498995	0.000389	-0.158502
C16	C	0.471248	0.000395	-0.094669
C17	C	0.515949	0.000348	-0.031897
C18	C	0.588392	0.000317	-0.032962
C19	C	0.370602	0.085143	-0.036843
C20	C	0.298161	0.085183	-0.035780
C21	C	0.247810	0.000482	-0.091382
C22	C	0.269909	-0.084239	-0.148057
C23	C	0.342352	-0.084269	-0.149122
C24	C	0.392696	0.000427	-0.093507
C25	C	0.124562	0.000536	-0.152999
C26	C	0.052115	0.000543	-0.151935
C27	C	0.069073	0.000516	-0.025327
C28	C	0.141517	0.000495	-0.026394
C29	C	0.169258	0.000512	-0.090231
C30	C	0.827767	-0.415858	-0.084900
C31	C	0.812738	-0.583278	-0.100003
C32	C	0.947265	0.000499	-0.086977
C33	C	1.024373	0.000547	-0.088102
C34	C	0.825718	0.000404	0.034553
C35	C	0.824588	0.000390	0.111655
N36	N	0.851176	0.344535	-0.061399
C37	C	0.814787	0.000468	-0.219455
C38	C	0.815918	0.000491	-0.296556
C39	C	0.887358	0.000413	0.156354
C40	C	0.886299	0.000436	0.228803
C41	C	0.822464	0.000406	0.256547
C42	C	0.759687	0.000391	0.211840
C43	C	0.760748	0.000383	0.139394
C44	C	0.764671	-0.084314	0.357191
C45	C	0.763611	-0.084315	0.429635
C46	C	0.819187	0.000437	0.479996
C47	C	0.875834	0.085172	0.457903
C48	C	0.876895	0.085164	0.385457
C49	C	0.821306	0.000416	0.335102
C50	C	0.880814	0.000487	0.603253
C51	C	0.879753	0.000518	0.675704
C52	C	0.753138	0.000459	0.658738
C53	C	0.754202	0.000442	0.586290
C54	C	0.818041	0.000449	0.558551
H55	H	0.594022	0.000390	-0.211545
F56	F	0.885195	-0.334643	-0.026969
H57	H	0.768702	-0.645412	-0.144230
H58	H	0.709632	0.000364	0.103000
H59	H	0.895207	-0.593332	-0.017168
F60	F	0.189086	0.000461	0.040410
F61	F	0.039546	0.000509	0.042608
H62	H	0.147148	0.000529	-0.204981
F63	F	0.705516	-0.174528	0.303598
H64	H	0.745301	-0.405806	-0.167721
F65	F	0.451420	0.000427	-0.225307
H66	H	0.921089	0.154186	0.498906
H67	H	0.707712	0.000370	0.234435
H68	H	0.939341	0.000424	0.133774
H69	H	0.360341	-0.153257	-0.195267
F70	F	0.953110	0.000463	0.276383
F71	F	0.937178	0.175348	0.361946
H72	H	0.228913	-0.153211	-0.193332
H73	H	0.280174	0.154173	0.010366
H74	H	0.015725	0.000566	-0.203048
F75	F	0.424184	0.175298	0.022340
H76	H	0.932796	0.000499	0.580667
H77	H	0.717484	-0.153303	0.447617
H78	H	0.493355	0.000373	0.020078
F79	F	0.946566	0.000552	0.723277
F80	F	0.635960	0.000276	0.033843
F81	F	0.685200	0.000434	0.688262
H82	H	0.703087	0.000415	0.549895
