data_functionalizedCrystal
_audit_creation_method	'MofGen! by Chris Wilmer'
_symmetry_space_group_name_H-M	'P1'
_symmetry_Int_Tables_number	1
_symmetry_cell_setting	triclinic
loop_
_symmetry_equiv_pos_as_xyz
  x,y,z
_cell_length_a	14.853567
_cell_length_b	15.944493
_cell_length_c	13.930277
_cell_angle_alpha	90.001318
_cell_angle_beta	89.995755
_cell_angle_gamma	83.554987
loop_
_atom_site_label
_atom_site_type_symbol
_atom_site_fract_x
_atom_site_fract_y
_atom_site_fract_z
O1	O	1.196203	0.109667	-0.079752
O2	O	0.933724	0.122731	-0.079767
O3	O	1.072158	-0.006071	-0.079767
O4	O	1.057769	0.238470	-0.079752
O5	O	1.072139	-0.006073	0.079895
O6	O	0.933705	0.122729	0.079895
O7	O	1.196184	0.109665	0.079910
Zn8	Zn	1.064941	0.116196	0.105252
Zn9	Zn	1.064967	0.116200	-0.105109
O10	O	1.057749	0.238467	0.079910
C11	C	0.900126	0.122138	0.000062
C12	C	0.800045	0.120364	0.000056
C13	C	1.071561	-0.037368	0.000060
C14	C	1.069797	-0.130618	0.000048
C15	C	0.387638	0.036355	0.000072
C16	C	0.366127	0.189375	0.000081
C17	C	0.460158	0.191042	0.000078
C18	C	0.517934	0.115365	0.000070
C19	C	0.481678	0.038020	0.000066
C20	C	0.496420	0.268386	0.000072
C21	C	0.590457	0.270057	0.000068
C22	C	0.648235	0.194379	0.000068
C23	C	0.611974	0.117031	0.000065
C24	C	0.669750	0.041354	0.000057
C25	C	0.633491	-0.035995	0.000061
C26	C	0.539456	-0.037658	0.000066
C27	C	0.742270	0.196041	0.000063
C28	C	0.763790	0.043019	0.000051
C29	C	1.151283	-0.366287	0.000070
C30	C	1.107350	-0.416903	-0.078653
C31	C	1.066530	-0.301343	0.000059
C32	C	1.107312	-0.416882	0.078761
C33	C	1.063381	-0.466256	0.000075
C34	C	1.022620	-0.350730	-0.078729
C35	C	1.022594	-0.350706	0.078755
C36	C	0.978599	-0.401288	0.000013
C37	C	1.068347	-0.206341	0.000050
C38	C	1.061557	-0.561255	0.000077
C39	C	1.229781	0.110258	0.000079
C40	C	1.329862	0.112032	0.000079
C41	C	1.058347	0.269764	0.000081
C42	C	1.060110	0.363014	0.000087
N43	N	1.064931	0.116193	0.248818
N44	N	1.064984	0.116196	-0.248675
C45	C	1.003665	0.173211	0.701088
C46	C	1.126293	0.059182	0.701057
C47	C	1.126282	0.059180	0.600561
C48	C	1.064963	0.116194	0.550324
C49	C	1.003655	0.173212	0.600583
C50	C	1.187595	0.002169	0.550295
C51	C	1.187588	0.002164	0.449793
C52	C	1.126263	0.059176	0.399554
C53	C	1.064952	0.116195	0.449819
C54	C	1.003633	0.173210	0.399582
C55	C	0.942317	0.230226	0.449845
C56	C	0.942331	0.230223	0.550344
C57	C	1.126250	0.059178	0.299056
C58	C	1.003622	0.173211	0.299077
H59	H	0.810826	-0.018607	0.000049
H60	H	0.680545	-0.097611	0.000049
C61	C	0.499564	-0.122734	0.000062
N62	N	0.469513	-0.186813	0.000056
C63	C	0.874869	0.292941	0.394571
N64	N	0.824068	0.340176	0.352935
H65	H	0.358112	-0.026621	0.000079
H66	H	1.176177	0.012761	0.258136
C67	C	1.255029	-0.060560	0.394513
N68	N	1.305824	-0.107808	0.352876
C69	C	0.782151	0.281120	0.000057
N70	N	0.812187	0.345206	0.000056
H71	H	1.237524	-0.044247	0.591202
H72	H	1.143151	-0.445808	-0.145205
C73	C	1.155675	-0.455904	0.168674
N74	N	1.192107	-0.485293	0.236394
C75	C	0.936188	0.235954	0.243824
N76	N	0.885405	0.283222	0.202208
C77	C	0.302571	0.272615	0.000089
N78	N	0.254696	0.335314	0.000098
C79	C	1.249906	-0.345060	-0.000030
N80	N	1.324187	-0.329070	-0.000110
H81	H	0.905538	-0.416836	-0.000035
C82	C	0.432863	0.351625	0.000081
N83	N	0.384986	0.414323	0.000092
C84	C	0.974316	-0.311853	-0.168746
N85	N	0.937937	-0.282568	-0.236547
H86	H	0.892410	0.276644	0.591274
H87	H	0.619970	0.333039	0.000065
H88	H	0.953740	0.219630	0.742014
C89	C	0.974267	-0.311641	0.168670
N90	N	0.937871	-0.282220	0.236401
H91	H	1.176221	0.012766	0.741963
