data_functionalizedCrystal
_audit_creation_method	'MofGen! by Chris Wilmer'
_symmetry_space_group_name_H-M	'P1'
_symmetry_Int_Tables_number	1
_symmetry_cell_setting	triclinic
loop_
_symmetry_equiv_pos_as_xyz
  x,y,z
_cell_length_a	29.839131
_cell_length_b	19.805407
_cell_length_c	29.839125
_cell_angle_alpha	90.013198
_cell_angle_beta	89.974637
_cell_angle_gamma	89.964772
loop_
_atom_site_label
_atom_site_type_symbol
_atom_site_fract_x
_atom_site_fract_y
_atom_site_fract_z
Zn1	Zn	-0.178916	-1.034652	-0.253996
Zn2	Zn	-0.254028	-1.034562	-0.178856
Zn3	Zn	-0.178913	-0.921479	-0.178877
Zn4	Zn	-0.254020	-0.921412	-0.253956
O5	O	-0.216469	-0.978026	-0.216421
O6	O	-0.188885	-1.129356	-0.244036
O7	O	-0.244066	-1.019551	-0.115991
O8	O	-0.116046	-0.936557	-0.188867
O9	O	-0.244069	-1.129290	-0.188831
O10	O	-0.116049	-1.019704	-0.244057
O11	O	-0.188880	-0.936470	-0.116007
O12	O	-0.188871	-0.826753	-0.188828
O13	O	-0.244055	-0.936444	-0.316828
O14	O	-0.244052	-0.826705	-0.243988
O15	O	-0.188877	-1.019640	-0.316858
O16	O	-0.316894	-1.019487	-0.188792
O17	O	-0.316888	-0.936356	-0.243968
C18	C	-0.216461	-0.802170	-0.216407
C19	C	-0.216468	-0.726938	-0.216411
C20	C	-0.333192	-0.977923	-0.216383
C21	C	-0.383126	-0.977941	-0.216382
C22	C	-0.216465	-0.978044	-0.333599
C23	C	-0.216464	-0.978052	-0.383534
C24	C	-0.692736	-1.021312	-0.245199
C25	C	-0.880409	-1.021385	-0.245226
O26	O	-0.904645	-1.058159	-0.269700
N27	N	-0.903912	-0.978141	-0.216471
C28	C	-0.880493	-0.934872	-0.187709
O29	O	-0.904789	-0.898088	-0.163255
C30	C	-0.692821	-0.934796	-0.187685
C31	C	-0.669321	-0.978048	-0.216439
C32	C	-0.669236	-1.064559	-0.273951
C33	C	-0.622321	-1.064543	-0.273942
C34	C	-0.598905	-1.021279	-0.245182
C35	C	-0.622405	-0.978032	-0.216430
C36	C	-0.669403	-0.891525	-0.158925
C37	C	-0.622482	-0.891508	-0.158922
C38	C	-0.598982	-0.934760	-0.187676
C39	C	-0.552074	-0.934752	-0.187660
N40	N	-0.528572	-0.977996	-0.216416
C41	C	-0.551987	-1.021259	-0.245176
C42	C	-0.979023	-0.934917	-0.187723
C43	C	-1.025941	-0.934936	-0.187729
C44	C	-1.025854	-1.021448	-0.245247
C45	C	-0.978936	-1.021431	-0.245239
C46	C	-0.955521	-0.978161	-0.216478
C47	C	-0.453462	-1.021222	-0.245155
C48	C	-0.406542	-1.021204	-0.245143
C49	C	-0.406633	-0.934690	-0.187627
C50	C	-0.453548	-0.934711	-0.187637
C51	C	-0.476962	-0.977979	-0.216405
O52	O	-0.527809	-0.897991	-0.163203
O53	O	-0.527683	-1.058028	-0.269634
C54	C	-0.739652	-1.021328	-0.245208
C55	C	-0.763152	-0.978080	-0.216456
C56	C	-0.739736	-0.934816	-0.187695
C57	C	-0.810069	-0.978100	-0.216461
C58	C	-0.833485	-1.021364	-0.245222
C59	C	-0.809983	-1.064608	-0.273978
C60	C	-0.763067	-1.064592	-0.273969
C61	C	-0.763238	-0.891572	-0.158940
C62	C	-0.810154	-0.891593	-0.158951
C63	C	-0.833569	-0.934856	-0.187712
C64	C	-0.099291	-0.978148	-0.216469
C65	C	-0.049357	-0.978200	-0.216489
C66	C	-0.216478	-1.154569	-0.216436
C67	C	-0.216482	-1.229801	-0.216442
C68	C	-0.245244	-0.691586	-0.245086
C69	C	-0.245245	-0.620898	-0.245093
C70	C	-0.216472	-0.585562	-0.216421
C71	C	-0.187693	-0.620919	-0.187745
C72	C	-0.187690	-0.691606	-0.187741
C73	C	-0.187702	-0.335846	-0.187759
C74	C	-0.187708	-0.265154	-0.187764
C75	C	-0.245257	-0.265137	-0.245111
C76	C	-0.245255	-0.335824	-0.245108
C77	C	-0.216474	-0.371175	-0.216433
C78	C	-0.216473	-0.447824	-0.216427
C79	C	-0.216475	-0.508915	-0.216424
C80	C	-0.187657	-1.021418	-0.693196
C81	C	-0.187619	-1.021452	-0.880869
O82	O	-0.163169	-1.058273	-0.905149
N83	N	-0.216343	-0.978142	-0.904319
C84	C	-0.245078	-0.934818	-0.880848
O85	O	-0.269505	-0.897976	-0.905101
C86	C	-0.245113	-0.934781	-0.693176
C87	C	-0.216390	-0.978099	-0.669728
C88	C	-0.158936	-1.064731	-0.669748
C89	C	-0.158947	-1.064725	-0.622832
C90	C	-0.187680	-1.021406	-0.599365
C91	C	-0.216402	-0.978092	-0.622813
C92	C	-0.273845	-0.891454	-0.669706
C93	C	-0.273850	-0.891447	-0.622785
C94	C	-0.245127	-0.934765	-0.599337
C95	C	-0.245146	-0.934766	-0.552430
N96	N	-0.216421	-0.978076	-0.528979
C97	C	-0.187689	-1.021396	-0.552447
C98	C	-0.245057	-0.934841	-0.979379
C99	C	-0.245049	-0.934851	-1.026297
C100	C	-0.187590	-1.021484	-1.026314
C101	C	-0.187601	-1.021477	-0.979396
C102	C	-0.216333	-0.978150	-0.955929
C103	C	-0.187715	-1.021380	-0.453921
C104	C	-0.187731	-1.021372	-0.407002
C105	C	-0.245188	-0.934736	-0.406988
C106	C	-0.245175	-0.934746	-0.453904
C107	C	-0.216435	-0.978071	-0.477369
O108	O	-0.269580	-0.897960	-0.528120
O109	O	-0.163257	-1.058221	-0.528187
C110	C	-0.187646	-1.021424	-0.740111
C111	C	-0.216367	-0.978111	-0.763559
C112	C	-0.245100	-0.934791	-0.740092
C113	C	-0.216359	-0.978121	-0.810477
C114	C	-0.187626	-1.021440	-0.833945
C115	C	-0.158901	-1.064750	-0.810494
C116	C	-0.158913	-1.064744	-0.763579
C117	C	-0.273824	-0.891482	-0.763542
C118	C	-0.273811	-0.891492	-0.810457
C119	C	-0.245078	-0.934812	-0.833925
C120	C	-0.216441	-0.978047	-0.099699
C121	C	-0.216316	-0.978170	-0.049764
H122	H	-0.472519	-1.056451	-0.268584
H123	H	-0.603420	-0.856270	-0.135503
O124	O	-0.156748	-1.068095	-0.381714
H125	H	-0.176862	-1.102513	-0.360341
O126	O	-1.051113	-1.068106	-0.276274
H127	H	-1.087685	-1.060844	-0.271447
H128	H	-0.268676	-0.720351	-0.268433
H129	H	-0.164255	-0.720389	-0.164393
O130	O	-0.304808	-0.844732	-0.738242
H131	H	-0.340067	-0.856294	-0.747240
O132	O	-0.156664	-0.582798	-0.156819
H133	H	-0.121414	-0.596384	-0.164592
O134	O	-0.127911	-1.111474	-0.835813
H135	H	-0.107939	-1.141598	-0.811630
H136	H	-0.164311	-1.056656	-0.473021
O137	O	-0.276311	-0.226980	-0.276015
H138	H	-0.311552	-0.240514	-0.268213
H139	H	-0.164275	-0.236386	-0.164416
O140	O	-0.127965	-1.111443	-0.597544
H141	H	-0.107984	-1.141558	-0.621751
O142	O	-0.127946	-1.111463	-0.695056
H143	H	-0.107982	-1.141579	-0.670862
O144	O	-0.381200	-1.067864	-0.276156
H145	H	-0.359822	-1.037546	-0.298991
H146	H	-0.268677	-0.592117	-0.268443
H147	H	-0.164211	-1.056749	-0.960307
H148	H	-0.164194	-1.056757	-1.045430
H149	H	-0.268568	-0.899480	-0.472996
H150	H	-0.164271	-0.364620	-0.164407
H151	H	-0.297234	-0.856180	-0.688789
H152	H	-0.268443	-0.899585	-1.045384
H153	H	-0.268686	-0.364591	-0.268453
H154	H	-0.603190	-1.099760	-0.297358
H155	H	-0.959962	-0.899679	-0.164302
O156	O	-0.276035	-0.888086	-0.954070
H157	H	-0.296001	-0.857971	-0.978263
H158	H	-0.297243	-0.856158	-0.603681
O159	O	-0.276175	-0.888009	-0.381673
H160	H	-0.271350	-0.895279	-0.345110
O161	O	-0.127931	-1.111462	-0.738291
H162	H	-0.107950	-1.141578	-0.762498
O163	O	-0.478899	-0.888064	-0.156625
H164	H	-0.454733	-0.857976	-0.136626
O165	O	-0.304790	-0.844764	-0.835746
H166	H	-0.324766	-0.814637	-0.811541
H167	H	-0.688296	-1.099790	-0.297374
O168	O	-1.051282	-0.888296	-0.156707
H169	H	-1.087842	-0.895578	-0.161536
H170	H	-0.688528	-0.856305	-0.135510
H171	H	-0.959805	-1.056650	-0.268653
O172	O	-0.381374	-0.888026	-0.156608
H173	H	-0.344802	-0.895280	-0.161439
H174	H	-0.829056	-1.099837	-0.297394
O175	O	-0.737727	-1.111251	-0.304979
H176	H	-0.746717	-1.099610	-0.340233
O177	O	-0.835499	-0.844939	-0.127936
H178	H	-0.811329	-0.814849	-0.107941
H179	H	-0.744177	-0.856341	-0.135520
