data_functionalizedCrystal
_audit_creation_method	'MofGen! by Chris Wilmer'
_symmetry_space_group_name_H-M	'P1'
_symmetry_Int_Tables_number	1
_symmetry_cell_setting	triclinic
loop_
_symmetry_equiv_pos_as_xyz
  x,y,z
_cell_length_a	14.853566
_cell_length_b	15.944493
_cell_length_c	13.930277
_cell_angle_alpha	90.001318
_cell_angle_beta	89.995631
_cell_angle_gamma	83.554729
loop_
_atom_site_label
_atom_site_type_symbol
_atom_site_fract_x
_atom_site_fract_y
_atom_site_fract_z
O1	O	1.196204	0.109662	-0.079755
O2	O	0.933724	0.122728	-0.079769
O3	O	1.072159	-0.006075	-0.079769
O4	O	1.057769	0.238465	-0.079754
O5	O	1.072140	-0.006078	0.079893
O6	O	0.933705	0.122725	0.079893
O7	O	1.196185	0.109660	0.079907
Zn8	Zn	1.064942	0.116192	0.105250
Zn9	Zn	1.064967	0.116195	-0.105111
O10	O	1.057750	0.238462	0.079908
C11	C	0.900127	0.122134	0.000060
C12	C	0.800046	0.120361	0.000054
C13	C	0.376883	0.112861	-0.086961
C14	C	0.376883	0.112859	0.087108
C15	C	0.470915	0.114524	0.087105
C16	C	0.517935	0.115360	0.000068
C17	C	0.470923	0.114529	-0.086967
C18	C	0.517932	0.115363	0.174138
C19	C	0.611970	0.117029	0.174139
C20	C	0.658992	0.117859	0.087100
C21	C	0.611974	0.117028	0.000062
C22	C	0.658994	0.117863	-0.086975
C23	C	0.611979	0.117026	-0.174015
C24	C	0.517945	0.115359	-0.174006
C25	C	0.753026	0.119526	0.087091
C26	C	0.753034	0.119531	-0.086981
C27	C	1.071561	-0.037372	0.000057
C28	C	1.069798	-0.130623	0.000045
C29	C	1.151284	-0.366292	0.000068
C30	C	1.107351	-0.416907	-0.078656
C31	C	1.066531	-0.301347	0.000057
C32	C	1.107312	-0.416886	0.078758
C33	C	1.063381	-0.466260	0.000072
C34	C	1.022621	-0.350734	-0.078732
C35	C	1.022595	-0.350710	0.078753
C36	C	0.978600	-0.401293	0.000010
C37	C	1.068348	-0.206345	0.000047
C38	C	1.061558	-0.561260	0.000075
C39	C	1.229782	0.110253	0.000076
C40	C	1.329863	0.112026	0.000076
C41	C	1.058348	0.269759	0.000079
C42	C	1.060111	0.363010	0.000085
N43	N	1.064931	0.116189	0.248816
N44	N	1.064985	0.116192	-0.248678
C45	C	1.003666	0.173207	0.701085
C46	C	1.126293	0.059177	0.701054
C47	C	1.126283	0.059175	0.600559
C48	C	1.064964	0.116190	0.550322
C49	C	1.003655	0.173208	0.600580
C50	C	1.187596	0.002164	0.550293
C51	C	1.187588	0.002159	0.449791
C52	C	1.126264	0.059171	0.399552
C53	C	1.064953	0.116191	0.449817
C54	C	1.003634	0.173206	0.399580
C55	C	0.942317	0.230222	0.449843
C56	C	0.942331	0.230219	0.550342
C57	C	1.126250	0.059174	0.299053
C58	C	1.003623	0.173207	0.299075
H59	H	0.479641	0.114689	0.244999
H60	H	1.143115	-0.445779	0.145309
O61	O	0.944194	0.228559	0.750053
C62	C	0.957328	0.216321	0.849530
H63	H	1.029008	0.185048	0.863247
H64	H	0.906313	0.174102	0.878054
C65	C	0.855722	0.340635	0.884284
C66	C	0.943763	0.302232	0.901132
H67	H	0.847351	0.393628	0.916117
H68	H	0.846870	0.348879	0.817265
H69	H	0.813220	0.305444	0.908055
H70	H	0.986263	0.337418	0.877351
H71	H	0.952622	0.293996	0.968149
H72	H	0.953686	0.219632	0.258178
O73	O	0.882844	0.285722	0.401081
C74	C	0.897462	0.368901	0.425656
H75	H	0.969636	0.369437	0.453281
H76	H	0.847486	0.393489	0.483994
C77	C	0.794798	0.425165	0.302451
C78	C	0.883447	0.425825	0.336372
H79	H	0.786149	0.460280	0.247378
H80	H	0.784946	0.369126	0.285896
H81	H	0.753162	0.445652	0.351074
H82	H	0.925081	0.405328	0.287754
H83	H	0.893305	0.481862	0.352917
O84	O	1.247275	-0.053145	0.599039
C85	C	1.336515	-0.039363	0.574456
H86	H	1.336954	0.027894	0.546846
H87	H	1.362992	-0.085871	0.516105
C88	C	1.397100	-0.134945	0.697634
C89	C	1.397640	-0.052336	0.663730
H90	H	1.434807	-0.142951	0.752700
H91	H	1.336978	-0.144233	0.714194
H92	H	1.419162	-0.173692	0.649000
H93	H	1.375568	-0.013592	0.712359
H94	H	1.457760	-0.043042	0.647180
H95	H	0.986857	-0.321953	-0.145357
H96	H	1.176222	0.012761	0.741961
H97	H	1.237514	-0.044266	0.408873
O98	O	0.331281	0.111905	-0.171534
C99	C	0.364505	0.039636	-0.224500
H100	H	0.397496	-0.010715	-0.173580
H101	H	0.416781	0.057043	-0.278764
C102	C	0.245091	0.067038	-0.340379
C103	C	0.285605	0.005193	-0.277837
H104	H	0.196425	0.045794	-0.373284
H105	H	0.222710	0.115729	-0.304697
H106	H	0.288664	0.081539	-0.385591
H107	H	0.242036	-0.009298	-0.232620
H108	H	0.307978	-0.043501	-0.313513
O109	O	0.472210	0.114702	-0.258522
C110	C	0.407583	0.186422	-0.263701
H111	H	0.428786	0.237726	-0.214310
H112	H	0.338627	0.168727	-0.240307
C113	C	0.375455	0.156351	-0.428341
C114	C	0.401500	0.219367	-0.367684
H115	H	0.371698	0.176672	-0.492483
H116	H	0.418992	0.108030	-0.424851
H117	H	0.317994	0.141611	-0.408834
H118	H	0.458964	0.234098	-0.387183
H119	H	0.357972	0.267691	-0.371179
H120	H	0.338593	0.112185	0.157970
O121	O	0.891428	-0.419806	-0.000210
C122	C	0.847090	-0.385783	-0.083308
H123	H	0.899448	-0.376507	-0.141057
H124	H	0.807336	-0.322379	-0.065281
C125	C	0.717327	-0.458188	-0.049496
C126	C	0.781633	-0.446803	-0.120427
H127	H	0.676946	-0.495825	-0.072391
H128	H	0.747196	-0.481108	0.006491
H129	H	0.684208	-0.405347	-0.034479
H130	H	0.814758	-0.499641	-0.135433
H131	H	0.751768	-0.423893	-0.176417
H132	H	0.986825	-0.321790	0.145307
O133	O	1.149986	-0.451528	-0.158023
C134	C	1.146996	-0.539598	-0.157339
H135	H	1.087875	-0.555268	-0.110994
H136	H	1.213067	-0.572095	-0.126698
C137	C	1.206955	-0.551490	-0.317509
C138	C	1.134336	-0.570735	-0.260594
H139	H	1.199150	-0.570698	-0.381201
H140	H	1.208973	-0.492156	-0.317969
H141	H	1.262007	-0.578572	-0.291963
H142	H	1.079287	-0.543645	-0.286132
H143	H	1.132308	-0.630065	-0.260140
O144	O	1.185717	0.003689	0.250260
C145	C	1.171119	-0.079497	0.274824
H146	H	1.098952	-0.080049	0.302475
H147	H	1.221110	-0.104084	0.333137
C148	C	1.273767	-0.135728	0.151568
C149	C	1.185127	-0.136407	0.185523
H150	H	1.282412	-0.170835	0.096486
H151	H	1.283605	-0.079685	0.135021
H152	H	1.315416	-0.156216	0.200172
H153	H	1.143480	-0.115910	0.136924
H154	H	1.175283	-0.192449	0.202060
O155	O	0.882652	0.285517	0.599127
C156	C	0.793411	0.271723	0.574577
H157	H	0.792982	0.204471	0.546944
H158	H	0.766909	0.318240	0.516254
C159	C	0.732837	0.367264	0.697813
C160	C	0.732309	0.284661	0.663882
H161	H	0.695144	0.375248	0.752898
H162	H	0.792960	0.376560	0.714351
H163	H	0.710754	0.406019	0.649202
H164	H	0.754402	0.245908	0.712488
H165	H	0.672188	0.275358	0.647354
O166	O	0.657513	0.117876	-0.258647
C167	C	0.595864	0.116758	-0.335470
H168	H	0.525090	0.142133	-0.309958
H169	H	0.595345	0.049245	-0.362238
C170	C	0.711753	0.141293	-0.449025
C171	C	0.624828	0.172465	-0.417693
H172	H	0.729620	0.175652	-0.499746
H173	H	0.753289	0.142043	-0.397269
H174	H	0.711309	0.085032	-0.471325
H175	H	0.625275	0.228720	-0.395383
H176	H	0.583293	0.171725	-0.469448
O177	O	0.798766	0.120195	-0.171507
C178	C	0.863403	0.048483	-0.176713
H179	H	0.842215	-0.002828	-0.127323
H180	H	0.932357	0.066187	-0.153336
C181	C	0.895509	0.078571	-0.341358
C182	C	0.869481	0.015547	-0.280703
H183	H	0.899262	0.058255	-0.405504
H184	H	0.851965	0.126886	-0.337850
H185	H	0.952969	0.093318	-0.321865
H186	H	0.812018	0.000808	-0.300188
H187	H	0.913016	-0.032772	-0.284216
H188	H	0.650242	0.117709	0.245012
H189	H	1.224288	-0.350583	-0.000007
O190	O	0.798678	0.120188	0.171654
C191	C	0.785900	0.047103	0.224615
H192	H	0.767192	-0.004163	0.173692
H193	H	0.729006	0.062574	0.278888
C194	C	0.897045	0.078588	0.340483
C195	C	0.874075	0.015619	0.277938
H196	H	0.951434	0.059168	0.373379
H197	H	0.905652	0.127828	0.304805
H198	H	0.849626	0.091474	0.385702
H199	H	0.921488	0.002741	0.232714
H200	H	0.865478	-0.033624	0.313610
