data_functionalizedCrystal
_audit_creation_method	'MofGen! by Chris Wilmer'
_symmetry_space_group_name_H-M	'P1'
_symmetry_Int_Tables_number	1
_symmetry_cell_setting	triclinic
loop_
_symmetry_equiv_pos_as_xyz
  x,y,z
_cell_length_a	14.908993
_cell_length_b	25.639240
_cell_length_c	14.908308
_cell_angle_alpha	93.255449
_cell_angle_beta	96.370715
_cell_angle_gamma	93.334918
loop_
_atom_site_label
_atom_site_type_symbol
_atom_site_fract_x
_atom_site_fract_y
_atom_site_fract_z
Zn1	Zn	1.354176	-0.177262	-0.431993
Zn2	Zn	1.362784	-0.259352	-0.280616
Zn3	Zn	1.211549	-0.177287	-0.289372
Zn4	Zn	1.202751	-0.270026	-0.440644
O5	O	1.282815	-0.220982	-0.360656
O6	O	1.481982	-0.183674	-0.404628
O7	O	1.350007	-0.244009	-0.155118
O8	O	1.230548	-0.104117	-0.308335
O9	O	1.488306	-0.243985	-0.293412
O10	O	1.335335	-0.104099	-0.413118
O11	O	1.238895	-0.183716	-0.161551
O12	O	1.083718	-0.194067	-0.316723
O13	O	1.215553	-0.262178	-0.566156
O14	O	1.077254	-0.262202	-0.427862
O15	O	1.326804	-0.194024	-0.559801
O16	O	1.341476	-0.333934	-0.301800
O17	O	1.223901	-0.341777	-0.419372
C18	C	1.047644	-0.229296	-0.374181
C19	C	0.947035	-0.232866	-0.379989
C20	C	0.764650	-0.168531	-0.275335
C21	C	0.670120	-0.171883	-0.280789
C22	C	0.663442	-0.242926	-0.396345
C23	C	0.757972	-0.239573	-0.390891
C24	C	0.808573	-0.202374	-0.330385
C25	C	0.903105	-0.199019	-0.324937
C26	C	0.896426	-0.270064	-0.440488
C27	C	0.801895	-0.273417	-0.445942
C28	C	1.282691	-0.356826	-0.360593
C29	C	1.282719	-0.414939	-0.360591
C30	C	1.337400	-0.775256	-0.415320
C31	C	1.337426	-0.829860	-0.415337
O32	O	1.383770	-0.858060	-0.461805
N33	N	1.282936	-0.857219	-0.360737
C34	C	1.228409	-0.829972	-0.306123
O35	O	1.182062	-0.858258	-0.259683
C36	C	1.228379	-0.775370	-0.306111
C37	C	1.282880	-0.748013	-0.360708
C38	C	1.391896	-0.747899	-0.469913
C39	C	1.391872	-0.693299	-0.469895
C40	C	1.337351	-0.666055	-0.415283
C41	C	1.282856	-0.693412	-0.360690
C42	C	1.173849	-0.748124	-0.251503
C43	C	1.173823	-0.693518	-0.251497
C44	C	1.228324	-0.666161	-0.306094
C45	C	1.228311	-0.611569	-0.306060
N46	N	1.282801	-0.584209	-0.360660
C47	C	1.337321	-0.611453	-0.415272
C48	C	1.228475	-0.944642	-0.306152
C49	C	1.228509	-0.999243	-0.306158
C50	C	1.337525	-0.999127	-0.415373
C51	C	1.337495	-0.944525	-0.415362
C52	C	1.282965	-0.917282	-0.360752
C53	C	1.337266	-0.496788	-0.415229
C54	C	1.337240	-0.442183	-0.415203
C55	C	1.228220	-0.442304	-0.305991
C56	C	1.228250	-0.496904	-0.306013
C57	C	1.282776	-0.524145	-0.360639
O58	O	1.181988	-0.583334	-0.259618
O59	O	1.383651	-0.583161	-0.461712
C60	C	1.518905	-0.212636	-0.347079
C61	C	1.619512	-0.209079	-0.341293
C62	C	1.269237	-0.229289	-0.596738
C63	C	1.263451	-0.232829	-0.697342
C64	C	1.282963	-0.084607	-0.360738
C65	C	1.283026	-0.026492	-0.360773
C66	C	1.368422	-0.168501	-0.879772
C67	C	1.362988	-0.171825	-0.974298
C68	C	1.247146	-0.242799	-0.980923
C69	C	1.252580	-0.239475	-0.886396
C70	C	1.313221	-0.202325	-0.835824
C71	C	1.318658	-0.199004	-0.741296
C72	C	1.202813	-0.269975	-0.747923
C73	C	1.197379	-0.273299	-0.842449
C74	C	1.296392	-0.212667	-0.125490
C75	C	1.302353	-0.208974	-0.024876
H76	H	0.932198	-0.297619	-0.485319
H77	H	1.407936	-0.144281	-1.010076
H78	H	1.184139	-1.021512	-0.261689
H79	H	1.183879	-0.519179	-0.261548
O80	O	1.175486	-0.918259	-0.253007
C81	C	1.127387	-0.954122	-0.204841
H82	H	1.164669	-0.991604	-0.199623
H83	H	1.056715	-0.963555	-0.241885
C84	C	1.074158	-0.883889	-0.115644
C85	C	1.119954	-0.929923	-0.109228
H86	H	1.069569	-0.868962	-0.056667
H87	H	1.106560	-0.859727	-0.148097
H88	H	1.015270	-0.891756	-0.146518
H89	H	1.178844	-0.922055	-0.078365
H90	H	1.087561	-0.954083	-0.076768
H91	H	1.129468	-0.770389	-0.207044
O92	O	0.952293	-0.162834	-0.266288
C93	C	1.004058	-0.128990	-0.314763
H94	H	0.971489	-0.129337	-0.387703
H95	H	1.075513	-0.142724	-0.313694
C96	C	1.048076	-0.072572	-0.181039
C97	C	1.008069	-0.072995	-0.270625
H98	H	1.050554	-0.038032	-0.153811
H99	H	1.013204	-0.095374	-0.148380
H100	H	1.107618	-0.084020	-0.180161
H101	H	0.948525	-0.061554	-0.271501
H102	H	1.042932	-0.050190	-0.303283
O103	O	1.188309	-0.278861	-1.030192
C104	C	1.195328	-0.274525	-1.123048
H105	H	1.264462	-0.255392	-1.131948
H106	H	1.140134	-0.249513	-1.152961
C107	C	1.099251	-0.352922	-1.161116
C108	C	1.184166	-0.329426	-1.172047
H109	H	1.092362	-0.386786	-1.191343
H110	H	1.094519	-0.355842	-1.098558
H111	H	1.053266	-0.332073	-1.186044
H112	H	1.230149	-0.350271	-1.147110
H113	H	1.188905	-0.326510	-1.234603
H114	H	1.129415	-0.671340	-0.207028
H115	H	1.436293	-0.770075	-0.514390
O116	O	1.149142	-0.302885	-0.705374
C117	C	1.094438	-0.336375	-0.770285
H118	H	1.127638	-0.339245	-0.835532
H119	H	1.025138	-0.320010	-0.784305
C120	C	1.042670	-0.387660	-0.653977
C121	C	1.083451	-0.391189	-0.734112
H122	H	1.035888	-0.421472	-0.631663
H123	H	1.079522	-0.365097	-0.610244
H124	H	0.984924	-0.374021	-0.665672
H125	H	1.141200	-0.404822	-0.722414
H126	H	1.046608	-0.413756	-0.777842
H127	H	1.381916	-1.021319	-0.459843
H128	H	1.417802	-0.138255	-0.838594
H129	H	0.805850	-0.138236	-0.226080
O130	O	0.627564	-0.139024	-0.227179
C131	C	0.655818	-0.146392	-0.135604
H132	H	0.724546	-0.163990	-0.129712
H133	H	0.604346	-0.174057	-0.108099
C134	C	0.578959	-0.071680	-0.087921
C135	C	0.663376	-0.093291	-0.080684
H136	H	0.583617	-0.038927	-0.054042
H137	H	0.559921	-0.066718	-0.149617
H138	H	0.536074	-0.094740	-0.065002
H139	H	0.706256	-0.070235	-0.103613
H140	H	0.682422	-0.098249	-0.018990
O141	O	1.138604	-0.309437	-0.891612
C142	C	1.186961	-0.343295	-0.943326
H143	H	1.259885	-0.343000	-0.910737
H144	H	1.185974	-0.329537	-1.014794
C145	C	1.053040	-0.399630	-0.987322
C146	C	1.142605	-0.399269	-0.947291
H147	H	1.025678	-0.434157	-0.989772
H148	H	1.020460	-0.376817	-0.952484
H149	H	1.052230	-0.388162	-1.046875
H150	H	1.143413	-0.410731	-0.887736
H151	H	1.175184	-0.422085	-0.982119
H152	H	0.622227	-0.273216	-0.445598
O153	O	0.752876	-0.309590	-0.504744
C154	C	0.811917	-0.338729	-0.552187
H155	H	0.881424	-0.336820	-0.511218
H156	H	0.818047	-0.321696	-0.620401
C157	C	0.688867	-0.398492	-0.617526
C158	C	0.774235	-0.396151	-0.567204
H159	H	0.665622	-0.433912	-0.626794
H160	H	0.649089	-0.378860	-0.585566
H161	H	0.693987	-0.384295	-0.674366
H162	H	0.769112	-0.410342	-0.510362
H163	H	0.814011	-0.415788	-0.599155
H164	H	1.381660	-0.518962	-0.459717
O165	O	1.390205	-0.415692	-0.468327
C166	C	1.438344	-0.451450	-0.516517
H167	H	1.401103	-0.491811	-0.521760
H168	H	1.509021	-0.453637	-0.479476
C169	C	1.491499	-0.383464	-0.605668
C170	C	1.445755	-0.433034	-0.612115
H171	H	1.496075	-0.372103	-0.664636
H172	H	1.459070	-0.359372	-0.573200
H173	H	1.550392	-0.385293	-0.574797
H174	H	1.386859	-0.431203	-0.642976
H175	H	1.478174	-0.457126	-0.644591
O176	O	1.444705	-0.666761	-0.523073
C177	C	1.419676	-0.683979	-0.614405
H178	H	1.347107	-0.701737	-0.623070
H179	H	1.466829	-0.714765	-0.635316
C180	C	1.515799	-0.615400	-0.663577
C181	C	1.426665	-0.637207	-0.674221
H182	H	1.520114	-0.586550	-0.700476
H183	H	1.532664	-0.603801	-0.602045
H184	H	1.555084	-0.641060	-0.681002
H185	H	1.387384	-0.611549	-0.656786
H186	H	1.409793	-0.648800	-0.735753
O187	O	1.390453	-0.918035	-0.468488
C188	C	1.438595	-0.953796	-0.516669
H189	H	1.401359	-0.994157	-0.521902
H190	H	1.509273	-0.955977	-0.479627
C191	C	1.491740	-0.885815	-0.605839
C192	C	1.446002	-0.935388	-0.612273
H193	H	1.496313	-0.874460	-0.664811
H194	H	1.459309	-0.861722	-0.573376
H195	H	1.550634	-0.887640	-0.574967
H196	H	1.387105	-0.933561	-0.643134
H197	H	1.478423	-0.959480	-0.644743
O198	O	1.377461	-0.162847	-0.692215
C199	C	1.356409	-0.112251	-0.716501
H200	H	1.282606	-0.113087	-0.746646
H201	H	1.401793	-0.098796	-0.768588
C202	C	1.462448	-0.073000	-0.594922
C203	C	1.371800	-0.074027	-0.631940
H204	H	1.471945	-0.049421	-0.542763
H205	H	1.476634	-0.107088	-0.578562
H206	H	1.500257	-0.061789	-0.638337
H207	H	1.333993	-0.085244	-0.588530
H208	H	1.357608	-0.039940	-0.648291
H209	H	1.183833	-0.420114	-0.261524
