data_functionalizedCrystal
_audit_creation_method	'MofGen! by Chris Wilmer'
_symmetry_space_group_name_H-M	'P1'
_symmetry_Int_Tables_number	1
_symmetry_cell_setting	triclinic
loop_
_symmetry_equiv_pos_as_xyz
  x,y,z
_cell_length_a	15.944545
_cell_length_b	14.044220
_cell_length_c	13.101039
_cell_angle_alpha	86.332523
_cell_angle_beta	86.641250
_cell_angle_gamma	91.657475
loop_
_atom_site_label
_atom_site_type_symbol
_atom_site_fract_x
_atom_site_fract_y
_atom_site_fract_z
O1	O	1.127909	-0.116989	-0.085240
O2	O	0.884488	-0.132068	-0.085238
O3	O	1.002544	0.013456	-0.085229
O4	O	1.009853	-0.262512	-0.085249
O5	O	0.994075	0.002997	0.085201
O6	O	0.876019	-0.142526	0.085192
O7	O	1.119440	-0.127448	0.085189
Zn8	Zn	0.996385	-0.136647	0.112250
Zn9	Zn	1.007543	-0.122868	-0.112298
O10	O	1.001384	-0.272971	0.085180
C11	C	0.848912	-0.136672	-0.000023
C12	C	0.755526	-0.134799	-0.000021
C13	C	1.155016	-0.122843	-0.000028
C14	C	1.248403	-0.124716	-0.000036
C15	C	0.995111	0.043541	-0.000014
C16	C	0.985569	0.148767	-0.000012
C17	C	1.526209	-0.220517	-0.000037
C18	C	1.467996	-0.179486	0.084000
C19	C	1.584546	-0.131398	-0.000024
C20	C	1.476356	-0.169151	-0.084029
C21	C	1.419387	-0.128120	-0.000032
C22	C	1.527560	-0.090396	0.084082
C23	C	1.535929	-0.080069	-0.084023
C24	C	1.477743	-0.038975	0.000035
C25	C	1.679690	-0.133289	-0.000019
C26	C	1.324246	-0.126222	-0.000030
C27	C	1.008817	-0.303056	-0.000037
C28	C	1.018359	-0.408282	-0.000045
N29	N	0.988775	-0.146051	0.265498
C30	C	0.968127	0.341430	-0.000027
C31	C	1.035798	0.399061	-0.000031
C32	C	1.026092	0.506265	-0.000039
C33	C	0.977831	0.234216	-0.000019
N34	N	1.015158	-0.113457	-0.265546
C35	C	0.978423	-0.158853	0.474539
C36	C	1.025508	-0.100658	0.525419
C37	C	1.019748	-0.107781	0.641737
C38	C	0.984182	-0.151731	0.358211
H39	H	1.547601	-0.297273	0.000035
C40	C	1.123909	0.356954	-0.000009
H41	H	1.118960	0.289378	0.000008
H42	H	1.156526	0.381382	-0.059435
H43	H	1.150593	0.374109	0.059437
C44	C	1.445864	-0.214116	-0.180003
H45	H	1.416821	-0.168148	-0.219572
H46	H	1.492837	-0.234648	-0.219836
H47	H	1.409107	-0.267293	-0.159800
C48	C	0.918108	-0.233365	0.533695
H49	H	0.889311	-0.268935	0.486479
H50	H	0.949284	-0.275304	0.575557
H51	H	0.878500	-0.201810	0.575543
C52	C	0.880020	0.383536	-0.000018
H53	H	0.884974	0.451110	-0.000012
H54	H	0.853312	0.366388	-0.059443
H55	H	0.847422	0.359104	0.059429
H56	H	1.565580	-0.038100	-0.155066
H57	H	1.438355	-0.221484	0.155040
C58	C	1.085836	-0.026152	0.466258
H59	H	1.081860	-0.031092	0.394707
H60	H	1.071055	0.036044	0.483768
H61	H	1.141825	-0.037469	0.483787
H62	H	1.550023	-0.057147	0.155202
H63	H	1.456498	0.037832	0.000090
