data_functionalizedCrystal
_audit_creation_method	'MofGen! by Chris Wilmer'
_symmetry_space_group_name_H-M	'P1'
_symmetry_Int_Tables_number	1
_symmetry_cell_setting	triclinic
loop_
_symmetry_equiv_pos_as_xyz
  x,y,z
_cell_length_a	6.817900
_cell_length_b	15.301126
_cell_length_c	10.943624
_cell_angle_alpha	93.526548
_cell_angle_beta	108.838799
_cell_angle_gamma	104.177575
loop_
_atom_site_label
_atom_site_type_symbol
_atom_site_fract_x
_atom_site_fract_y
_atom_site_fract_z
V1	V	-4.091711	-0.124735	-0.402943
O2	O	-4.074352	0.006018	-0.394869
O3	O	-4.046281	-0.247352	-0.400576
O4	O	-4.070041	-0.122806	-0.578504
O5	O	-4.050427	-0.119390	-0.215710
V6	V	-4.571490	-0.109097	-0.380502
O7	O	-4.361181	-0.159039	-0.452171
O8	O	-4.752217	-0.074793	-0.331274
O9	O	-4.393714	0.013520	-0.382869
O10	O	-4.706246	-0.239850	-0.388576
O11	O	-4.730171	-0.114442	-0.567735
O12	O	-4.369953	-0.111026	-0.204941
C13	C	-3.891139	-0.277244	-0.394320
C14	C	-3.935460	-0.377485	-0.393554
C15	C	-4.139502	-0.429171	-0.399649
C16	C	-4.181137	-0.523358	-0.398937
C17	C	-4.018724	-0.565857	-0.392121
C18	C	-3.814667	-0.514165	-0.386030
C19	C	-3.773039	-0.419980	-0.386751
C20	C	-3.901445	-0.710476	-0.384525
C21	C	-3.943074	-0.804667	-0.383801
C22	C	-4.309544	-0.813854	-0.396711
C23	C	-4.267915	-0.719669	-0.397432
C24	C	-4.063859	-0.667983	-0.391338
C25	C	-3.921447	-0.118371	-0.621283
C26	C	-3.985033	-0.117605	-0.764807
C27	C	-3.830847	-0.112446	-0.841938
C28	C	-4.005603	-0.189024	-0.948169
C29	C	-3.923600	-0.039671	-0.914312
C30	C	-4.158986	-0.194255	-0.869161
C31	C	-4.076916	-0.044835	-0.835281
C32	C	-4.251805	-0.121434	-0.941482
C33	C	-4.212197	0.043407	-0.389122
C34	C	-4.147116	0.143647	-0.389896
C35	C	-4.181889	-0.115463	-0.162156
C36	C	-4.097541	-0.116225	-0.018630
H37	H	-4.400166	-0.685068	-0.402974
O38	O	-3.805959	0.038296	-0.938936
C39	C	-3.812089	0.175849	-1.034324
C40	C	-3.945598	0.087581	-1.006557
H41	H	-3.924927	0.215730	-1.088975
H42	H	-3.717479	0.157977	-1.096441
H43	H	-3.694984	0.219220	-0.938016
H44	H	-4.062818	0.044168	-1.102799
H45	H	-4.040061	0.105518	-0.944384
O46	O	-3.574679	-0.369783	-0.380592
C47	C	-3.192960	-0.320917	-0.257406
C48	C	-3.417478	-0.377782	-0.264194
H49	H	-3.065797	-0.327380	-0.163319
H50	H	-3.190940	-0.246278	-0.259008
H51	H	-3.155918	-0.347047	-0.344930
H52	H	-3.454662	-0.351732	-0.176688
H53	H	-3.419384	-0.452412	-0.262656
O54	O	-3.970615	-0.261843	-1.006684
C55	C	-4.053072	-0.425583	-1.048938
C56	C	-4.092868	-0.343202	-0.982588
H57	H	-4.151924	-0.491382	-1.029504
H58	H	-3.874256	-0.421748	-1.007806
H59	H	-4.103685	-0.424601	-1.158717
H60	H	-4.042381	-0.344132	-0.872804
H61	H	-4.271691	-0.347067	-1.023824
H62	H	-4.347286	-0.565437	-0.403902
H63	H	-4.475686	-0.855939	-0.401653
O64	O	-3.617992	-0.108156	-0.789950
C65	C	-3.354447	-0.180926	-0.671242
C66	C	-3.595561	-0.185882	-0.730031
H67	H	-3.336235	-0.243768	-0.622807
H68	H	-3.265924	-0.116932	-0.595340
H69	H	-3.282681	-0.178433	-0.752150
H70	H	-3.667517	-0.188410	-0.649213
H71	H	-3.683929	-0.249866	-0.805964
O72	O	-4.297191	-0.387809	-0.406437
C73	C	-4.518727	-0.299092	-0.527197
C74	C	-4.340082	-0.345870	-0.519649
H75	H	-4.553492	-0.265188	-0.618735
H76	H	-4.463411	-0.245293	-0.437114
H77	H	-4.671654	-0.352227	-0.531368
H78	H	-4.187093	-0.292801	-0.515519
H79	H	-4.395577	-0.399685	-0.609729
O80	O	-3.785568	-0.846071	-0.377370
C81	C	-3.675609	-0.959271	-0.481528
C82	C	-3.854185	-0.912474	-0.488959
H83	H	-3.731002	-1.012954	-0.571749
H84	H	-3.640916	-0.993320	-0.390122
H85	H	-3.522622	-0.906128	-0.477247
H86	H	-4.007281	-0.965560	-0.493291
H87	H	-3.888692	-0.878406	-0.580351
O88	O	-4.464755	-0.125820	-0.993118
C89	C	-4.728795	-0.052567	-1.109741
C90	C	-4.487558	-0.047468	-1.051292
H91	H	-4.747311	0.010763	-1.156814
H92	H	-4.801023	-0.056287	-1.029012
H93	H	-4.816660	-0.115997	-1.186755
H94	H	-4.399513	0.015956	-0.974294
H95	H	-4.415495	-0.043799	-1.132095
H96	H	-3.735289	-0.668397	-0.379573
O97	O	-4.277308	-0.272225	-0.844968
C98	C	-4.632224	-0.365554	-0.869558
C99	C	-4.498500	-0.277213	-0.897021
H100	H	-4.811085	-0.369625	-0.911654
H101	H	-4.582549	-0.365548	-0.759592
H102	H	-4.602024	-0.426927	-0.917178
H103	H	-4.528632	-0.215792	-0.849483
H104	H	-4.548199	-0.277298	-1.007003
H105	H	-3.682434	-0.548776	-0.380489
O106	O	-4.111922	0.027820	-0.776394
C107	C	-4.092304	0.108027	-0.574376
C108	C	-4.052651	0.025683	-0.640915
H109	H	-4.044358	0.106337	-0.464828
H110	H	-4.270592	0.104910	-0.616725
H111	H	-3.991167	0.173838	-0.592316
H112	H	-4.153653	-0.040169	-0.623000
H113	H	-3.874317	0.028881	-0.598558
