data_functionalizedCrystal
_audit_creation_method	'MofGen! by Chris Wilmer'
_symmetry_space_group_name_H-M	'P1'
_symmetry_Int_Tables_number	1
_symmetry_cell_setting	triclinic
loop_
_symmetry_equiv_pos_as_xyz
  x,y,z
_cell_length_a	10.654541
_cell_length_b	10.723024
_cell_length_c	9.798715
_cell_angle_alpha	90.003391
_cell_angle_beta	89.997081
_cell_angle_gamma	95.524101
loop_
_atom_site_label
_atom_site_type_symbol
_atom_site_fract_x
_atom_site_fract_y
_atom_site_fract_z
O1	O	0.176147	-1.657212	-0.113482
O2	O	0.193008	-1.294062	-0.113486
O3	O	0.001837	-1.483988	-0.113475
O4	O	0.367318	-1.467286	-0.113492
O5	O	0.001836	-1.483974	0.113507
O6	O	0.193007	-1.294048	0.113496
O7	O	0.176147	-1.657198	0.113501
Zn8	Zn	0.184577	-1.475620	0.149537
Zn9	Zn	0.184578	-1.475639	-0.149522
O10	O	0.367318	-1.467272	0.113490
C11	C	-0.044961	-1.482755	0.000015
C12	C	-0.184404	-1.479088	0.000012
C13	C	0.191781	-1.247555	0.000004
C14	C	0.188109	-1.109000	0.000003
C15	C	0.177374	-1.703705	0.000007
C16	C	0.181045	-1.842259	-0.000000
C17	C	-0.212409	-1.706196	0.000033
C18	C	-0.291921	-1.818022	0.000045
C19	C	-0.422938	-1.814569	0.000041
C20	C	-0.474446	-1.699277	0.000020
C21	C	-0.394935	-1.587451	0.000007
C22	C	-0.263916	-1.590917	0.000016
C23	C	-0.366930	-1.360346	-0.000023
C24	C	-0.235912	-1.363796	-0.000009
C25	C	-0.418438	-1.245054	-0.000044
C26	C	-0.338927	-1.133225	-0.000047
C27	C	-0.207902	-1.136683	-0.000041
C28	C	-0.156401	-1.251970	-0.000022
C29	C	0.414116	-1.468504	-0.000003
C30	C	0.553559	-1.472172	-0.000010
N31	N	0.184576	-1.475617	0.353636
C32	C	0.295079	-1.034033	-0.000003
C33	C	0.291287	-0.890829	-0.000005
N34	N	0.184569	-1.475653	-0.353622
C35	C	0.103954	-1.555361	0.421418
C36	C	0.103950	-1.555381	0.578580
H37	H	-0.105730	-1.709019	0.000055
H38	H	-0.487677	-1.905628	0.000041
H39	H	-0.049722	-1.254797	-0.000008
H40	H	-0.380876	-1.039364	-0.000073
H41	H	0.093722	-1.067165	-0.000028
H42	H	0.034931	-1.623659	0.636869
H43	H	0.034929	-1.623616	0.363099
H44	H	0.253600	-1.407381	0.588098
O45	O	0.266747	-1.394127	0.423352
C46	C	0.198937	-1.316417	0.505996
H47	H	0.100985	-1.365034	0.527253
H48	H	0.251123	-1.297366	0.606537
H49	H	0.189869	-1.224013	0.451030
O50	O	0.071668	-0.918915	-0.000056
C51	C	-0.031570	-0.845941	-0.000016
H52	H	-0.000645	-0.749044	-0.042988
H53	H	-0.110453	-0.893363	-0.065913
H54	H	-0.067094	-0.836407	0.108881
H55	H	0.389466	-1.075868	0.000000
H56	H	-0.249968	-1.911891	0.000075
H57	H	-0.581129	-1.696475	-0.000000
H58	H	-0.143170	-1.045620	-0.000058
O59	O	-0.545687	-1.241533	0.000129
C60	C	-0.581786	-1.178093	0.117690
H61	H	-0.498108	-1.113777	0.156876
H62	H	-0.662550	-1.119955	0.091238
H63	H	-0.613893	-1.249245	0.200017
O64	O	0.400457	-0.813860	-0.000194
C65	C	0.405220	-0.737760	-0.117771
H66	H	0.305455	-0.730443	-0.156959
H67	H	0.451045	-0.640289	-0.091338
H68	H	0.463009	-0.781010	-0.200089
