data_functionalizedCrystal
_audit_creation_method	'MofGen! by Chris Wilmer'
_symmetry_space_group_name_H-M	'P1'
_symmetry_Int_Tables_number	1
_symmetry_cell_setting	triclinic
loop_
_symmetry_equiv_pos_as_xyz
  x,y,z
_cell_length_a	16.959454
_cell_length_b	12.759401
_cell_length_c	16.959447
_cell_angle_alpha	89.984564
_cell_angle_beta	90.026818
_cell_angle_gamma	89.981391
loop_
_atom_site_label
_atom_site_type_symbol
_atom_site_fract_x
_atom_site_fract_y
_atom_site_fract_z
Zn1	Zn	-0.314696	-1.606179	0.446897
Zn2	Zn	0.185304	-1.106179	0.946897
Zn3	Zn	-0.446889	-1.606068	0.314726
Zn4	Zn	0.053111	-1.106068	0.814726
Zn5	Zn	-0.314725	-1.430492	0.314738
Zn6	Zn	0.185275	-0.930492	0.814738
Zn7	Zn	-0.446833	-1.430453	0.446868
Zn8	Zn	0.053167	-0.930453	0.946868
O9	O	-0.380786	-1.518298	0.380807
O10	O	0.119214	-1.018298	0.880807
O11	O	-0.332243	-1.753185	0.429371
O12	O	0.167757	-1.253185	0.929371
O13	O	-0.429392	-1.582747	0.204117
O14	O	0.070608	-1.082747	0.704117
O15	O	-0.204110	-1.453860	0.332285
O16	O	0.295890	-0.953860	0.832285
O17	O	-0.429365	-1.753103	0.332266
O18	O	0.070635	-1.253103	0.832266
O19	O	-0.204089	-1.582936	0.429382
O20	O	0.295911	-1.082936	0.929382
O21	O	-0.332292	-1.453752	0.204125
O22	O	0.167708	-0.953752	0.704125
O23	O	-0.332238	-1.283466	0.332258
O24	O	0.167762	-0.783466	0.832258
O25	O	-0.429270	-1.453793	0.557483
O26	O	0.070730	-0.953793	1.057483
O27	O	-0.429297	-1.283437	0.429334
O28	O	0.070703	-0.783437	0.929334
O29	O	-0.332189	-1.582898	0.557504
O30	O	0.167811	-1.082898	1.057504
O31	O	-0.557492	-1.582709	0.332239
O32	O	-0.057492	-1.082709	0.832239
O33	O	-0.557452	-1.453686	0.429323
O34	O	-0.057452	-0.953686	0.929323
C35	C	-0.380765	-1.245330	0.380794
C36	C	0.119235	-0.745330	0.880794
C37	C	-0.380776	-1.128554	0.380808
C38	C	0.119224	-0.628554	0.880808
C39	C	-0.586152	-1.518210	0.380794
C40	C	-0.086152	-1.018210	0.880794
C41	C	-0.674009	-1.518268	0.380814
C42	C	-0.174009	-1.018268	0.880814
C43	C	-0.431400	-0.963973	0.431280
C44	C	0.068600	-0.463973	0.931280
C45	C	-0.431393	-1.073697	0.431273
C46	C	0.068607	-0.573697	0.931273
C47	C	-0.330167	-1.073680	0.330342
C48	C	0.169833	-0.573680	0.830342
C49	C	-0.330178	-0.963958	0.330346
C50	C	0.169822	-0.463958	0.830346
C51	C	-1.045493	-1.451213	0.431354
C52	C	-0.545493	-0.951213	0.931354
C53	C	-1.045476	-1.585675	0.330341
C54	C	-0.545476	-1.085675	0.830341
C55	C	-0.962930	-1.585639	0.330334
C56	C	-0.462930	-1.085639	0.830334
C57	C	-0.921662	-1.518387	0.380836
C58	C	-0.421662	-1.018387	0.880836
C59	C	-0.962939	-1.451172	0.431346
C60	C	-0.462939	-0.951172	0.931346
C61	C	-0.921646	-1.652845	0.279820
C62	C	-0.421646	-1.152845	0.779820
C63	C	-0.839095	-1.652810	0.279810
C64	C	-0.339095	-1.152810	0.779810
C65	C	-0.797825	-1.585563	0.330317
C66	C	-0.297825	-1.085563	0.830317
C67	C	-0.839108	-1.518346	0.380829
C68	C	-0.339108	-1.018346	0.880829
C69	C	-0.797840	-1.451094	0.431331
C70	C	-0.297840	-0.951094	0.931331
C71	C	-0.839121	-1.383881	0.481848
C72	C	-0.339121	-0.883881	0.981848
C73	C	-0.921670	-1.383924	0.481853
C74	C	-0.421670	-0.883924	0.981853
C75	C	-0.715277	-1.585520	0.330312
C76	C	-0.215277	-1.085520	0.830312
C77	C	-0.715286	-1.451053	0.431324
C78	C	-0.215286	-0.951053	0.931324
C79	C	-0.174618	-1.518415	0.380838
C80	C	0.325382	-1.018415	0.880838
C81	C	-0.086761	-1.518464	0.380851
C82	C	0.413239	-1.018464	0.880851
C83	C	-0.380720	-1.518354	0.586976
C84	C	0.119280	-1.018354	1.086976
C85	C	-0.380692	-1.518378	0.674832
C86	C	0.119308	-1.018378	1.174832
C87	C	-0.380801	-0.792331	0.380819
C88	C	0.119199	-0.292331	0.880819
C89	C	-0.380793	-0.909108	0.380819
C90	C	0.119207	-0.409108	0.880819
C91	C	-0.380794	-1.518302	0.175441
C92	C	0.119206	-1.018302	0.675441
C93	C	-0.380600	-1.518482	0.087585
C94	C	0.119400	-1.018482	0.587585
C95	C	-0.330053	-1.451309	1.046319
C96	C	0.169947	-0.951309	1.546319
C97	C	-0.431165	-1.585632	1.046297
C98	C	0.068835	-1.085632	1.546297
C99	C	-0.431183	-1.585614	0.963752
C100	C	0.068817	-1.085614	1.463752
C101	C	-0.380637	-1.518441	0.922485
C102	C	0.119363	-1.018441	1.422485
C103	C	-0.330072	-1.451286	0.963765
C104	C	0.169928	-0.951286	1.463765
C105	C	-0.481753	-1.652760	0.922466
C106	C	0.018247	-1.152760	1.422466
C107	C	-0.481774	-1.652743	0.839915
C108	C	0.018226	-1.152743	1.339915
C109	C	-0.431223	-1.585575	0.798647
C110	C	0.068777	-1.085575	1.298647
C111	C	-0.380655	-1.518419	0.839932
C112	C	0.119345	-1.018419	1.339932
C113	C	-0.330109	-1.451246	0.798665
C114	C	0.169891	-0.951246	1.298665
C115	C	-0.279536	-1.384094	0.839949
C116	C	0.220464	-0.884094	1.339949
C117	C	-0.279521	-1.384118	0.922497
C118	C	0.220479	-0.884118	1.422497
C119	C	-0.431239	-1.585551	0.716098
C120	C	0.068761	-1.085551	1.216098
C121	C	-0.330127	-1.451223	0.716112
C122	C	0.169873	-0.951223	1.216112
H123	H	-0.472614	-0.919317	0.472379
H124	H	0.027386	-0.419317	0.972379
H125	H	-0.955288	-1.329202	0.522980
H126	H	-0.455288	-0.829202	1.022980
H127	H	-0.472323	-1.640313	1.079901
H128	H	0.027677	-1.140313	1.579901
H129	H	-0.238349	-1.329445	0.956117
H130	H	0.261651	-0.829445	1.456117
H131	H	-0.288876	-1.396638	1.079935
H132	H	0.211124	-0.896638	1.579935
Cl133	Cl	-0.215994	-1.299653	0.788062
Cl134	Cl	0.284006	-0.799653	1.288062
Cl135	Cl	-0.545300	-1.737189	0.974346
Cl136	Cl	-0.045300	-1.237189	1.474346
H137	H	-0.681691	-1.396292	0.472453
H138	H	-0.181691	-0.896292	0.972453
Cl139	Cl	-0.545345	-1.737167	0.788023
Cl140	Cl	-0.045345	-1.237167	1.288023
Cl141	Cl	-0.495018	-1.142667	0.494710
Cl142	Cl	0.004982	-0.642667	0.994710
H143	H	-0.472408	-1.640232	0.682489
H144	H	0.027592	-1.140232	1.182489
Cl145	Cl	-0.266535	-1.142643	0.266897
Cl146	Cl	0.233465	-0.642643	0.766897
H147	H	-0.681669	-1.640238	0.289178
H148	H	-0.181669	-1.140238	0.789178
H149	H	-0.288966	-0.919285	0.289251
H150	H	0.211034	-0.419285	0.789251
H151	H	-0.805511	-1.329120	0.522964
H152	H	-0.305511	-0.829120	1.022964
H153	H	-1.079108	-1.396493	0.472485
H154	H	-0.579108	-0.896493	0.972485
H155	H	-0.288962	-1.396527	0.682519
H156	H	0.211038	-0.896527	1.182519
Cl157	Cl	-1.097356	-1.670216	0.266857
Cl158	Cl	-0.597356	-1.170216	0.766857
Cl159	Cl	-0.973528	-1.737391	0.216340
Cl160	Cl	-0.473528	-1.237391	0.716340
Cl161	Cl	-0.787206	-1.737313	0.216311
Cl162	Cl	-0.287206	-1.237313	0.716311
