data_functionalizedCrystal
_audit_creation_method	'MofGen! by Chris Wilmer'
_symmetry_space_group_name_H-M	'P1'
_symmetry_Int_Tables_number	1
_symmetry_cell_setting	triclinic
loop_
_symmetry_equiv_pos_as_xyz
  x,y,z
_cell_length_a	10.654545
_cell_length_b	23.532407
_cell_length_c	9.730223
_cell_angle_alpha	89.990960
_cell_angle_beta	89.997167
_cell_angle_gamma	83.665878
loop_
_atom_site_label
_atom_site_type_symbol
_atom_site_fract_x
_atom_site_fract_y
_atom_site_fract_z
O1	O	1.665309	0.079973	-0.114292
O2	O	1.299588	0.087596	-0.114299
O3	O	1.493477	0.000924	-0.114270
O4	O	1.471420	0.166644	-0.114321
O5	O	1.493464	0.000922	0.114310
O6	O	1.299576	0.087593	0.114281
O7	O	1.665296	0.079970	0.114288
Zn8	Zn	1.482434	0.083781	0.150576
Zn9	Zn	1.482450	0.083784	-0.150588
O10	O	1.471408	0.166642	0.114259
C11	C	1.252801	0.087035	-0.000010
C12	C	1.113411	0.085362	-0.000011
C13	C	1.047925	0.084573	0.124589
C14	C	0.916955	0.082992	0.124589
C15	C	0.916969	0.082991	-0.124621
C16	C	1.047937	0.084568	-0.124620
C17	C	1.492909	-0.020297	0.000023
C18	C	1.491220	-0.083525	0.000034
C19	C	1.595367	-0.481950	-0.000039
C20	C	1.593799	-0.541360	-0.000050
O21	O	1.690345	-0.577477	-0.000099
N22	N	1.478532	-0.564737	-0.000051
C23	C	1.364827	-0.528699	-0.000056
O24	O	1.266639	-0.554038	-0.000059
C25	C	1.366397	-0.469290	-0.000055
C26	C	1.481671	-0.445917	-0.000040
C27	C	1.710632	-0.458577	-0.000026
C28	C	1.712201	-0.399170	-0.000013
C29	C	1.598504	-0.363137	-0.000013
C30	C	1.483239	-0.386511	-0.000027
C31	C	1.252693	-0.433253	-0.000070
C32	C	1.254273	-0.373841	-0.000070
C33	C	1.369547	-0.350468	-0.000055
C34	C	1.371110	-0.291071	-0.000015
N35	N	1.486377	-0.267695	-0.000013
C36	C	1.600074	-0.303728	-0.000013
C37	C	1.361538	-0.653463	-0.000060
C38	C	1.359967	-0.712871	-0.000050
C39	C	1.588939	-0.725528	-0.000047
C40	C	1.590510	-0.666119	-0.000046
C41	C	1.476805	-0.630087	-0.000058
C42	C	1.603359	-0.178970	0.000016
C43	C	1.604917	-0.119558	0.000035
C44	C	1.375945	-0.106906	0.000024
C45	C	1.374386	-0.166313	0.000012
C46	C	1.488103	-0.202344	0.000004
O47	O	1.274615	-0.254920	0.000028
O48	O	1.698245	-0.278381	-0.000027
C49	C	1.712083	0.080531	-0.000004
C50	C	1.851473	0.082204	-0.000012
C51	C	1.471975	0.187863	-0.000037
C52	C	1.473664	0.251091	-0.000057
N53	N	1.482432	0.083779	0.356113
N54	N	1.482462	0.083782	-0.356124
C55	C	1.568315	0.045417	0.428052
C56	C	1.568327	0.045417	0.571935
C57	C	1.396570	0.122146	0.571927
C58	C	1.396553	0.122143	0.428047
H59	H	0.863642	0.082350	0.226051
O60	O	1.651584	0.008097	0.641877
C61	C	1.584795	-0.027312	0.725157
H62	H	1.485775	-0.028694	0.681817
H63	H	1.636603	-0.072360	0.726799
H64	H	1.577999	-0.009517	0.834195
O65	O	0.853275	0.082326	-0.245623
C66	C	0.762654	0.130641	-0.253076
H67	H	0.791749	0.165525	-0.182378
H68	H	0.756188	0.147150	-0.363285
H69	H	0.666750	0.118316	-0.219593
H70	H	1.101258	0.085209	-0.226091
O71	O	1.111503	0.085237	0.245663
C72	C	1.094314	0.035623	0.321491
H73	H	1.068692	0.000781	0.248591
H74	H	1.185424	0.020133	0.378017
H75	H	1.014932	0.045837	0.399180
H76	H	1.698791	-0.100531	0.000051
H77	H	1.695958	-0.208300	0.000003
O78	O	1.821202	-0.493492	0.000041
C79	C	1.923258	-0.460110	0.000016
H80	H	1.890787	-0.415909	0.043281
H81	H	2.002873	-0.481698	0.066392
H82	H	1.958639	-0.455731	-0.109641
H83	H	1.326651	0.153382	0.630510
H84	H	1.806069	-0.380146	-0.000006
H85	H	1.326611	0.153382	0.369470
H86	H	1.280520	-0.185344	0.000038
H87	H	1.283376	-0.077557	0.000028
O88	O	1.651774	0.008094	0.358387
C89	C	1.727597	-0.025756	0.452743
H90	H	1.676133	-0.026612	0.555316
H91	H	1.747321	-0.071156	0.411194
H92	H	1.820647	-0.006872	0.468016
H93	H	1.681517	-0.754878	-0.000052
H94	H	1.684376	-0.647094	-0.000035
H95	H	1.266099	-0.731896	-0.000039
H96	H	1.268940	-0.624128	-0.000058
H97	H	1.158824	-0.452273	-0.000091
O98	O	1.143700	-0.338921	-0.000021
C99	C	1.041633	-0.372296	-0.000073
H100	H	1.074078	-0.416504	0.043200
H101	H	0.962005	-0.350712	0.066283
H102	H	1.006280	-0.376660	-0.109739
