data_functionalizedCrystal
_audit_creation_method	'MofGen! by Chris Wilmer'
_symmetry_space_group_name_H-M	'P1'
_symmetry_Int_Tables_number	1
_symmetry_cell_setting	triclinic
loop_
_symmetry_equiv_pos_as_xyz
  x,y,z
_cell_length_a	13.262390
_cell_length_b	23.532407
_cell_length_c	11.804365
_cell_angle_alpha	101.746801
_cell_angle_beta	62.657606
_cell_angle_gamma	83.669324
loop_
_atom_site_label
_atom_site_type_symbol
_atom_site_fract_x
_atom_site_fract_y
_atom_site_fract_z
O1	O	1.519182	0.008376	-0.591068
O2	O	1.190589	0.029019	-0.484651
O3	O	1.364786	-0.064551	-0.541033
O4	O	1.344984	0.101946	-0.534686
O5	O	1.318927	-0.039941	-0.328134
O6	O	1.144730	0.053629	-0.271752
O7	O	1.473322	0.032986	-0.378169
Cu8	Cu	1.304839	0.045555	-0.305521
Cu9	Cu	1.359073	0.016450	-0.557299
O10	O	1.299125	0.126556	-0.321787
C11	C	1.125628	0.042430	-0.364589
C12	C	1.000388	0.045719	-0.324027
C13	C	0.747361	0.001322	-0.673916
C14	C	0.865032	-0.001772	-0.712028
C15	C	0.898877	0.010101	-0.615031
C16	C	0.815039	0.025067	-0.479916
C17	C	0.697359	0.028157	-0.441800
C18	C	0.848874	0.036936	-0.382915
C19	C	0.765037	0.051902	-0.247800
C20	C	0.647368	0.054992	-0.209692
C21	C	0.613523	0.043119	-0.306688
C22	C	0.966555	0.033847	-0.421031
C23	C	0.916552	0.060682	-0.188915
C24	C	0.798882	0.063775	-0.150803
C25	C	1.341350	-0.073445	-0.434413
C26	C	1.339829	-0.136611	-0.433902
C27	C	1.230498	-0.399247	-0.398569
C28	C	1.231906	-0.339891	-0.399016
O29	O	1.145170	-0.300342	-0.370963
N30	N	1.335467	-0.320616	-0.432541
C31	C	1.437631	-0.360703	-0.465635
O32	O	1.525848	-0.338858	-0.494194
C33	C	1.436225	-0.420058	-0.465197
C34	C	1.332653	-0.439328	-0.431657
C35	C	1.126936	-0.418517	-0.365032
C36	C	1.125528	-0.477869	-0.364584
C37	C	1.227684	-0.517950	-0.397671
C38	C	1.331246	-0.498679	-0.431208
C39	C	1.538389	-0.460145	-0.498300
C40	C	1.536974	-0.519504	-0.497860
C41	C	1.433403	-0.538773	-0.464320
C42	C	1.431994	-0.598112	-0.463847
N43	N	1.328432	-0.617386	-0.430321
C44	C	1.226277	-0.577305	-0.397233
C45	C	1.440578	-0.236052	-0.466554
C46	C	1.441983	-0.176696	-0.466983
C47	C	1.236258	-0.155889	-0.400366
C48	C	1.234851	-0.215244	-0.399928
C49	C	1.337016	-0.255326	-0.433029
C50	C	1.223329	-0.701948	-0.396292
C51	C	1.221930	-0.761305	-0.395841
C52	C	1.427656	-0.782108	-0.462465
C53	C	1.429055	-0.722756	-0.462910
C54	C	1.326883	-0.682677	-0.429825
O55	O	1.518685	-0.637694	-0.491890
O56	O	1.138078	-0.599160	-0.368697
C57	C	1.538284	0.019574	-0.498234
C58	C	1.663526	0.016284	-0.538804
C59	C	1.322561	0.135449	-0.428410
C60	C	1.324085	0.198614	-0.428929
N61	N	1.266702	0.066024	-0.128437
N62	N	1.397218	-0.004024	-0.734386
C63	C	1.488799	-0.053191	0.173626
C64	C	1.517649	-0.068679	0.039627
C65	C	1.454914	-0.035004	-0.002396
C66	C	1.363326	0.014161	0.089594
C67	C	1.334480	0.029653	0.223605
C68	C	1.300594	0.047839	0.047583
C69	C	1.209006	0.097004	0.139573
C70	C	1.180164	0.112493	0.273570
C71	C	1.242899	0.078819	0.315592
C72	C	1.329441	0.032347	-0.086428
C73	C	1.175121	0.115191	-0.036449
C74	C	1.146272	0.130678	0.097550
H75	H	0.994691	0.007582	-0.646070
C76	C	0.957243	-0.018236	-0.860647
C77	C	1.058367	-0.073945	-0.923066
C78	C	1.150579	-0.090412	-1.071695
C79	C	1.141667	-0.051171	-1.157905
C80	C	1.040538	0.004541	-1.095486
C81	C	0.948326	0.021009	-0.946857
H82	H	1.064969	-0.102996	-0.859248
H83	H	1.225442	-0.131654	-1.117901
H84	H	1.209928	-0.063361	-1.267929
H85	H	1.033937	0.033593	-1.159305
H86	H	0.873464	0.062250	-0.900651
C87	C	0.706657	0.080235	-0.002179
C88	C	0.715567	0.040991	0.084027
C89	C	0.623343	0.057451	0.232650
C90	C	0.522208	0.113155	0.295067
C91	C	0.513294	0.152402	0.208859
C92	C	0.605518	0.135942	0.060236
H93	H	0.790437	-0.000247	0.037824
H94	H	0.629943	0.028398	0.296467
H95	H	0.453938	0.125339	0.405087
H96	H	0.438424	0.193640	0.255063
H97	H	0.598918	0.164995	-0.003580
H98	H	1.622728	-0.444467	-0.525614
H99	H	1.592219	-0.108707	-0.035266
H100	H	0.719793	-0.008349	-0.752876
H101	H	1.478407	-0.047617	-0.111505
C102	C	1.107995	-0.782499	-0.358949
C103	C	0.999514	-0.752983	-0.220980
C104	C	0.885584	-0.774175	-0.184091
C105	C	0.880134	-0.824884	-0.285171
C106	C	0.988619	-0.854404	-0.423149
C107	C	1.102550	-0.833212	-0.460038
H108	H	1.003544	-0.715442	-0.146146
H109	H	0.805276	-0.752322	-0.081950
H110	H	0.795796	-0.840572	-0.257864
H111	H	0.984589	-0.891945	-0.497983
H112	H	1.182857	-0.855065	-0.562179
C113	C	1.110939	-0.657866	-0.359890
C114	C	1.049693	-0.670214	-0.442891
C115	C	0.937302	-0.626131	-0.406479
C116	C	0.886159	-0.569699	-0.287067
C117	C	0.947406	-0.557348	-0.204059
C118	C	1.059796	-0.601432	-0.240471
H119	H	1.087552	-0.711990	-0.531294
H120	H	0.891964	-0.635274	-0.467928
H121	H	0.802961	-0.537066	-0.260113
H122	H	0.909547	-0.515572	-0.115656
H123	H	1.105135	-0.592288	-0.179022
C124	C	1.014552	-0.374432	-0.328625
C125	C	0.963406	-0.318004	-0.209203
C126	C	0.851012	-0.273922	-0.172780
C127	C	0.789763	-0.286266	-0.255779
C128	C	0.840908	-0.342696	-0.375209
C129	C	0.953303	-0.386779	-0.411632
H130	H	1.008747	-0.308864	-0.147755
H131	H	0.813151	-0.232148	-0.084370
H132	H	0.706562	-0.253633	-0.228817
H133	H	0.795568	-0.351836	-0.436657
H134	H	0.991163	-0.428552	-0.500042
H135	H	1.404012	-0.007683	-0.161315
C136	C	1.123884	-0.111794	-0.363981
C137	C	1.120393	-0.080895	-0.465689
C138	C	1.008026	-0.036800	-0.429305
C139	C	0.899152	-0.023604	-0.291213
C140	C	0.902639	-0.054503	-0.189496
C141	C	1.015006	-0.098598	-0.225880
H142	H	1.200992	-0.090663	-0.567920
H143	H	1.005445	-0.013926	-0.504603
H144	H	0.815971	0.009038	-0.264280
H145	H	0.822040	-0.044735	-0.087264
H146	H	1.017587	-0.121472	-0.150581
C147	C	1.555911	-0.155503	-0.503866
C148	C	1.616763	-0.159488	-0.420734
C149	C	1.730697	-0.138299	-0.457628
C150	C	1.783780	-0.113126	-0.577653
C151	C	1.722927	-0.109140	-0.660793
C152	C	1.608993	-0.130329	-0.623899
H153	H	1.577469	-0.178124	-0.331877
H154	H	1.775744	-0.141250	-0.396082
H155	H	1.868121	-0.097441	-0.604964
H156	H	1.762222	-0.090504	-0.749649
H157	H	1.563947	-0.127378	-0.685445
H158	H	1.523776	-0.268683	-0.493502
C159	C	1.542975	-0.701551	-0.499785
C160	C	1.603823	-0.705525	-0.416646
C161	C	1.717746	-0.684326	-0.453532
C162	C	1.770820	-0.659152	-0.573558
C163	C	1.709972	-0.655176	-0.656705
C164	C	1.596049	-0.676376	-0.619818
H165	H	1.564534	-0.724161	-0.327789
H166	H	1.762789	-0.687269	-0.391981
H167	H	1.855153	-0.643458	-0.600863
H168	H	1.749261	-0.636540	-0.745561
H169	H	1.551006	-0.673433	-0.681370
H170	H	1.124039	0.142612	-0.070662
H171	H	1.620172	-0.552137	-0.524823
C172	C	1.540023	-0.826206	-0.498868
C173	C	1.543533	-0.857114	-0.397181
C174	C	1.655902	-0.901216	-0.433597
C175	C	1.764762	-0.914410	-0.571699
C176	C	1.761257	-0.883500	-0.673395
C177	C	1.648887	-0.839399	-0.636979
H178	H	1.462944	-0.847349	-0.294941
H179	H	1.658497	-0.924097	-0.358314
H180	H	1.847945	-0.947056	-0.598656
H181	H	1.841845	-0.893266	-0.775635
H182	H	1.646293	-0.816518	-0.712262
H183	H	1.034805	0.021662	-0.531042
H184	H	0.517708	0.045639	-0.275664
H185	H	1.105597	0.152530	0.348467
H186	H	0.579112	0.067168	-0.099673
H187	H	0.944107	0.070348	-0.109932
H188	H	1.539875	-0.080601	0.207850
H189	H	1.041193	-0.493553	-0.337282
H190	H	1.150513	-0.230928	-0.372611
H191	H	1.219407	0.091427	0.424706
H192	H	1.071699	0.170710	0.172464
