data_functionalizedCrystal
_audit_creation_method	'MofGen! by Chris Wilmer'
_symmetry_space_group_name_H-M	'P1'
_symmetry_Int_Tables_number	1
_symmetry_cell_setting	triclinic
loop_
_symmetry_equiv_pos_as_xyz
  x,y,z
_cell_length_a	26.374263
_cell_length_b	26.373608
_cell_length_c	26.370205
_cell_angle_alpha	60.005297
_cell_angle_beta	60.010839
_cell_angle_gamma	59.993700
loop_
_atom_site_label
_atom_site_type_symbol
_atom_site_fract_x
_atom_site_fract_y
_atom_site_fract_z
O1	O	0.070152	-0.740800	0.619517
O2	O	0.026377	-0.576764	0.499159
O3	O	0.130245	-0.680560	0.499088
O4	O	-0.033715	-0.637003	0.619589
O5	O	0.164701	-0.646107	0.533470
O6	O	0.060833	-0.542310	0.533541
O7	O	0.104608	-0.706346	0.653899
Cu8	Cu	0.085867	-0.621182	0.596859
Cu9	Cu	0.045119	-0.661927	0.556199
O10	O	0.000741	-0.602549	0.653971
N11	N	0.114528	-0.592529	0.625461
N12	N	0.016463	-0.690587	0.527598
C13	C	0.181428	-0.355400	0.692330
C14	C	0.181530	-0.525690	0.862573
C15	C	0.181440	-0.525667	0.692313
C16	C	0.351736	-0.525673	0.692271
C17	C	0.200174	-0.411588	0.711047
C18	C	0.200232	-0.506954	0.806384
C19	C	0.295546	-0.506943	0.711016
C20	C	0.200182	-0.506940	0.711037
C21	C	0.157567	-0.283881	0.668507
C22	C	0.157587	-0.549500	0.668479
C23	C	0.224035	-0.483107	0.734871
C24	C	0.455739	-0.507754	0.637520
C25	C	0.520749	-0.529425	0.615835
C26	C	0.520768	-0.634611	0.655947
C27	C	0.455759	-0.612939	0.677633
C28	C	0.173240	-0.251367	0.604595
C29	C	0.151546	-0.186351	0.582941
C30	C	0.098512	-0.186369	0.689113
C31	C	0.120206	-0.251385	0.710768
C32	C	0.093669	-0.533798	0.684205
C33	C	0.071992	-0.555464	0.662532
C34	C	0.178144	-0.608536	0.609422
C35	C	0.199825	-0.586869	0.631088
C36	C	0.093821	-0.533842	0.966616
C37	C	0.072187	-0.555526	1.031630
C38	C	0.178370	-0.608608	1.031591
C39	C	0.200004	-0.586926	0.966576
C40	C	0.157728	-0.549541	0.934090
C41	C	0.423247	-0.549509	0.668416
C42	C	-0.097522	-0.709158	0.508557
C43	C	-0.002050	-0.709295	0.413344
C44	C	-0.002241	-0.804604	0.508735
C45	C	-0.002225	-0.709288	0.508793
C46	C	-0.026009	-0.733087	0.484858
N47	N	0.552340	-0.592538	0.625346
O48	O	0.750867	-0.598274	0.477076
O49	O	0.751048	-0.718989	0.640960
O50	O	0.750981	-0.718715	0.537020
O51	O	0.750934	-0.598547	0.581017
O52	O	0.647701	-0.684348	0.571512
O53	O	0.647768	-0.684622	0.675452
O54	O	0.647587	-0.563907	0.511569
Cu55	Cu	0.638247	-0.621127	0.596660
Cu56	Cu	0.760388	-0.661769	0.555869
O57	O	0.647654	-0.564181	0.615509
N58	N	0.846295	-0.690358	0.527176
N59	N	0.114503	-0.154778	0.625499
O60	O	-0.033701	0.043855	0.619632
O61	O	0.130190	0.043858	0.498933
O62	O	0.026233	0.043841	0.499224
O63	O	0.070257	0.043872	0.619341
O64	O	0.060690	-0.059448	0.533654
O65	O	0.164647	-0.059431	0.533363
O66	O	0.000756	-0.059434	0.654062
Cu67	Cu	0.085848	-0.068863	0.596857
Cu68	Cu	0.045099	0.053287	0.556138
O69	O	0.104714	-0.059417	0.653771
N70	N	0.016435	0.139202	0.527497
N71	N	0.114760	-0.592585	1.063190
O72	O	0.108896	-0.740779	1.261808
O73	O	-0.011787	-0.576838	1.261822
O74	O	-0.011509	-0.680779	1.261780
O75	O	0.108618	-0.636838	1.261850
O76	O	0.022916	-0.646341	1.158496
O77	O	0.022638	-0.542399	1.158538
O78	O	0.143321	-0.706341	1.158524
Cu79	Cu	0.086123	-0.621225	1.149100
Cu80	Cu	0.045411	-0.661953	1.271246
O81	O	0.143044	-0.602399	1.158566
N82	N	0.016774	-0.690600	1.357156
C83	C	0.039504	-0.538867	0.499769
C84	C	0.168130	-0.667407	0.499680
C85	C	0.091482	-0.744243	0.653289
C86	C	-0.037145	-0.615703	0.653378
C87	C	0.699429	-0.718429	0.678853
C88	C	0.699348	-0.718091	0.550135
C89	C	0.699202	-0.564465	0.473677
C90	C	0.699287	-0.564805	0.602393
C91	C	0.168023	-0.007659	0.499484
C92	C	0.039327	-0.007807	0.499887
C93	C	-0.037119	-0.007789	0.653468
C94	C	0.091620	-0.007770	0.653109
C95	C	-0.011194	-0.538964	1.210181
C96	C	-0.010843	-0.667676	1.210109
C97	C	0.142729	-0.744214	1.210165
C98	C	0.142386	-0.615494	1.210214
H99	H	0.059391	-0.503396	0.940172
O100	O	0.028198	-0.007904	0.454841
C101	C	0.070764	-0.061411	0.438153
H102	H	0.113807	-0.079235	0.450532
H103	H	0.084645	-0.049391	0.386058
H104	H	0.048262	-0.098873	0.464372
H105	H	0.214995	-0.007372	0.461496
H106	H	-0.084187	-0.007791	0.691362
H107	H	-0.049082	-0.491880	1.210184
H108	H	0.699366	-0.755841	0.540718
O109	O	0.699353	-0.519845	0.613667
C110	C	0.752876	-0.541209	0.628236
H111	H	0.770752	-0.594148	0.646049
H112	H	0.740862	-0.523269	0.665608
H113	H	0.790293	-0.523485	0.584832
H114	H	0.699474	-0.756325	0.725922
O115	O	0.102974	-0.007799	0.698074
C116	C	0.164014	-0.007782	0.675445
H117	H	0.193381	-0.027332	0.635576
H118	H	0.184927	-0.037774	0.714334
H119	H	0.163094	0.041770	0.658126
O120	O	-0.055771	-0.678959	1.210004
C121	C	-0.033153	-0.740007	1.209987
H122	H	0.019744	-0.756369	1.190477
H123	H	-0.052026	-0.740879	1.179948
H124	H	-0.048886	-0.772139	1.259523
H125	H	0.699142	-0.526565	0.426612
H126	H	0.180620	-0.791296	1.210154
H127	H	0.180125	-0.606093	1.210228
O128	O	-0.093272	-0.604679	0.698602
C129	C	-0.085116	-0.611620	0.750920
H130	H	-0.035584	-0.642691	0.750288
H131	H	-0.119187	-0.633649	0.795029
H132	H	-0.093983	-0.564134	0.749748
H133	H	0.020147	-0.542732	1.058106
O134	O	0.028421	-0.482629	0.454685
C135	C	0.071040	-0.455054	0.437950
H136	H	0.089208	-0.475620	0.477761
H137	H	0.046888	-0.402813	0.427803
H138	H	0.111484	-0.464430	0.394753
O139	O	0.219459	-0.645007	1.063123
C140	C	0.257056	-0.699522	1.047206
H141	H	0.231944	-0.708554	1.029336
H142	H	0.266907	-0.740482	1.089951
H143	H	0.302720	-0.693613	1.009463
O144	O	0.262080	-0.602250	0.934954
C145	C	0.277776	-0.634960	0.897331
H146	H	0.241131	-0.656960	0.916929
H147	H	0.324978	-0.672848	0.896577
H148	H	0.279910	-0.601524	0.848065
H149	H	0.100832	-0.791364	0.691090
H150	H	0.019945	-0.542665	0.675322
O151	O	0.052614	-0.497405	0.720428
C152	C	0.014996	-0.442882	0.687619
H153	H	0.040079	-0.433838	0.635603
H154	H	0.005168	-0.401931	0.699255
H155	H	-0.030677	-0.448787	0.701467
O156	O	0.219262	-0.644812	0.573087
C157	C	0.280326	-0.654040	0.563873
H158	H	0.280212	-0.614847	0.571142
H159	H	0.311170	-0.654374	0.514561
H160	H	0.298973	-0.700359	0.598466
H161	H	0.215222	-0.676694	0.461838
H162	H	0.251872	-0.599651	0.618278
H163	H	0.429307	-0.646943	0.702793
H164	H	0.547237	-0.686258	0.663446
O165	O	0.552221	-0.488776	0.585807
C166	C	0.509585	-0.428145	0.582335
H167	H	0.463236	-0.425609	0.586609
H168	H	0.528350	-0.393789	0.535867
H169	H	0.502694	-0.416008	0.621721
H170	H	0.429268	-0.456103	0.630015
H171	H	0.203661	-0.277820	0.570179
H172	H	0.068098	-0.159910	0.723527
O173	O	0.166739	-0.154828	0.520840
C174	C	0.144477	-0.170700	0.493851
H175	H	0.138130	-0.217911	0.524671
H176	H	0.179298	-0.172912	0.446023
H177	H	0.098004	-0.134114	0.489035
O178	O	0.104946	-0.282872	0.772873
C179	C	0.067303	-0.240245	0.805526
H180	H	0.075582	-0.193896	0.774522
H181	H	0.079507	-0.259034	0.848907
H182	H	0.016381	-0.233334	0.819553
