data_functionalizedCrystal
_audit_creation_method	'MofGen! by Chris Wilmer'
_symmetry_space_group_name_H-M	'P1'
_symmetry_Int_Tables_number	1
_symmetry_cell_setting	triclinic
loop_
_symmetry_equiv_pos_as_xyz
  x,y,z
_cell_length_a	19.805407
_cell_length_b	12.759387
_cell_length_c	19.805405
_cell_angle_alpha	89.961850
_cell_angle_beta	90.023727
_cell_angle_gamma	89.979621
loop_
_atom_site_label
_atom_site_type_symbol
_atom_site_fract_x
_atom_site_fract_y
_atom_site_fract_z
Zn1	Zn	1.034753	-0.594004	-0.269468
Zn2	Zn	1.034663	-0.418305	-0.382674
Zn3	Zn	0.921562	-0.418336	-0.269499
Zn4	Zn	0.921531	-0.593939	-0.382615
O5	O	0.978127	-0.506146	-0.326064
O6	O	1.129457	-0.570711	-0.284497
O7	O	1.019635	-0.271288	-0.367699
O8	O	0.936628	-0.441678	-0.174778
O9	O	1.129391	-0.441626	-0.367669
O10	O	1.019789	-0.570741	-0.174756
O11	O	0.936541	-0.271310	-0.284549
O12	O	0.826842	-0.441616	-0.284493
O13	O	0.936575	-0.740969	-0.367569
O14	O	0.826819	-0.570631	-0.367599
O15	O	1.019758	-0.741016	-0.284440
O16	O	1.019605	-0.441564	-0.477383
O17	O	0.936487	-0.570601	-0.477340
C18	C	0.802271	-0.506120	-0.326043
C19	C	0.727039	-0.506134	-0.326050
C20	C	0.691730	-0.573451	-0.282819
C21	C	0.621042	-0.573455	-0.282823
C22	C	0.585664	-0.506147	-0.326061
C23	C	0.620978	-0.438823	-0.369294
C24	C	0.691665	-0.438814	-0.369287
C25	C	0.335904	-0.438855	-0.369325
C26	C	0.265212	-0.438871	-0.369330
C27	C	0.265281	-0.573496	-0.282861
C28	C	0.335969	-0.573487	-0.282853
C29	C	0.371276	-0.506160	-0.326083
C30	C	0.447925	-0.506155	-0.326078
C31	C	0.509017	-0.506157	-0.326070
C32	C	0.978173	-0.780180	-0.325994
C33	C	0.978193	-0.896956	-0.325965
C34	C	0.891672	-0.896999	-0.239375
C35	C	0.848425	-0.951881	-0.196067
C36	C	0.848445	-1.061602	-0.196043
C37	C	0.891716	-1.116445	-0.239333
C38	C	0.934964	-1.061563	-0.282641
C39	C	0.934940	-0.951838	-0.282659
C40	C	1.021480	-1.061520	-0.369232
C41	C	1.021464	-0.951799	-0.369254
C42	C	1.064751	-1.116362	-0.412522
C43	C	1.108003	-1.061480	-0.455827
C44	C	1.107982	-0.951752	-0.455849
C45	C	1.064712	-0.896917	-0.412562
C46	C	1.154670	-0.506172	-0.326086
C47	C	1.229902	-0.506183	-0.326095
C48	C	0.978051	-0.506095	-0.501920
C49	C	0.978080	-0.506108	-0.577152
C50	C	0.978120	-0.233178	-0.326085
C51	C	0.978232	-0.116402	-0.325924
C52	C	1.021402	-0.438989	-0.612496
C53	C	1.021430	-0.439012	-0.683185
C54	C	0.978134	-0.506150	-0.718528
C55	C	0.934811	-0.573277	-0.683179
C56	C	0.934786	-0.573259	-0.612492
C57	C	0.934911	-0.573355	-0.968252
C58	C	0.934937	-0.573367	-1.038944
C59	C	1.021555	-0.439109	-1.038945
C60	C	1.021530	-0.439090	-0.968258
C61	C	0.978210	-0.506220	-0.932915
C62	C	0.978180	-0.506196	-0.856267
C63	C	0.978160	-0.506170	-0.795175
C64	C	0.978222	-0.506220	-0.149521
C65	C	0.978263	-0.506251	-0.074289
H66	H	0.236525	-0.628314	-0.247658
O67	O	0.888184	-0.645756	-0.930141
H68	H	0.895443	-0.634479	-0.875049
O69	O	1.068232	-0.366684	-0.930136
H70	H	1.098367	-0.320022	-0.966589
H71	H	0.891657	-0.807657	-0.239386
O72	O	0.888103	-0.645682	-0.721293
H73	H	0.895389	-0.634409	-0.776385
H74	H	0.236409	-0.384057	-0.404542
H75	H	0.592296	-0.628273	-0.247621
O76	O	1.068301	-0.366728	-1.077063
H77	H	1.061058	-0.378032	-1.132155
H78	H	1.064692	-0.807575	-0.412574
H79	H	0.899681	-0.628047	-1.067718
H80	H	0.364770	-0.628300	-0.247646
H81	H	0.813192	-0.907216	-0.160823
H82	H	0.364643	-0.384034	-0.404526
O83	O	0.582825	-0.366220	-0.415930
H84	H	0.527739	-0.377540	-0.408678
O85	O	0.729754	-0.366211	-0.415915
H86	H	0.693279	-0.319414	-0.445987
H87	H	0.899510	-0.627916	-0.583715
H88	H	0.813228	-1.106287	-0.160779
O89	O	0.891739	-1.234787	-0.239311
H90	H	0.854398	-1.263737	-0.201923
H91	H	0.720530	-0.628264	-0.247611
H92	H	1.143229	-1.106142	-0.491073
O93	O	1.064802	-1.234705	-0.412500
H94	H	1.013756	-1.263667	-0.426156
O95	O	1.068110	-0.366579	-0.574385
H96	H	1.102513	-0.413653	-0.542129
H97	H	1.143202	-0.907074	-0.491114
H98	H	1.056706	-0.384356	-0.711959
