data_functionalizedCrystal
_audit_creation_method	'MofGen! by Chris Wilmer'
_symmetry_space_group_name_H-M	'P1'
_symmetry_Int_Tables_number	1
_symmetry_cell_setting	triclinic
loop_
_symmetry_equiv_pos_as_xyz
  x,y,z
_cell_length_a	19.377372
_cell_length_b	20.875641
_cell_length_c	20.875641
_cell_angle_alpha	60.089808
_cell_angle_beta	89.257912
_cell_angle_gamma	74.261708
loop_
_atom_site_label
_atom_site_type_symbol
_atom_site_fract_x
_atom_site_fract_y
_atom_site_fract_z
Zr1	Zr	0.618518	0.890095	-0.210831
O2	O	0.528696	0.987909	-0.298838
O3	O	0.642693	0.766491	-0.180005
O4	O	0.651719	0.893371	-0.315011
O5	O	0.516373	0.867439	-0.061713
O6	O	0.752585	0.925293	-0.332143
O7	O	0.519670	0.861029	-0.163832
O8	O	0.736439	0.698328	-0.090644
O9	O	0.532519	1.094404	-0.303213
O10	O	0.732339	0.850706	-0.184292
O11	O	0.654603	0.831667	-0.095295
O12	O	0.665230	0.981052	-0.254247
O13	O	0.587495	0.962013	-0.165250
Zr14	Zr	0.774129	0.951230	-0.075287
Zr15	Zr	0.779388	0.941007	-0.238155
Zr16	Zr	0.613260	0.900318	-0.047962
Zr17	Zr	0.624616	1.059943	-0.217809
Zr18	Zr	0.768032	0.781383	-0.068309
O19	O	0.749954	1.074835	-0.106112
O20	O	0.757432	1.060299	-0.337690
O21	O	0.521219	1.002445	-0.067260
O22	O	0.863951	0.853417	0.012720
O23	O	0.871428	0.838881	-0.218858
O24	O	0.635216	0.781027	0.051573
O25	O	0.876275	0.973887	-0.224404
O26	O	0.740928	0.947955	0.028893
O27	O	0.640062	0.916033	0.046026
O28	O	0.872978	0.980297	-0.122285
O29	O	0.660389	1.134872	-0.324933
O30	O	0.732259	0.706454	0.038815
O31	O	0.860128	0.746922	0.017095
O32	O	0.864308	0.738796	-0.112363
O33	O	0.528339	1.102530	-0.173754
O34	O	0.656209	1.142998	-0.195474
O35	O	0.727417	0.860274	-0.031871
O36	O	0.805153	0.879313	-0.120867
O37	O	0.738045	1.009659	-0.190822
O38	O	0.660309	0.990619	-0.101826
C39	C	0.688697	0.708210	-0.134330
C40	C	0.686109	0.636105	-0.131368
C41	C	0.725468	0.612168	-0.176431
C42	C	0.723037	0.544414	-0.173640
C43	C	0.681243	0.500602	-0.125790
C44	C	0.641883	0.524542	-0.080722
C45	C	0.644318	0.592291	-0.083509
C46	C	0.669613	0.296910	-0.112469
C47	C	0.667180	0.229158	-0.109687
C48	C	0.748336	0.249034	-0.202605
C49	C	0.750763	0.316787	-0.205391
C50	C	0.711406	0.340719	-0.160320
N51	N	0.678756	0.431348	-0.122938
N52	N	0.713898	0.409969	-0.163168
C53	C	0.495101	0.856980	-0.108880
C54	C	0.426808	0.835367	-0.097279
C55	C	0.027055	1.104469	-0.241708
C56	C	-0.037108	1.084142	-0.230797
C57	C	0.032958	0.948072	-0.157770
C58	C	0.097128	0.968387	-0.168671
C59	C	0.094170	1.046588	-0.210641
C60	C	0.164242	0.910506	-0.137605
C61	C	0.228407	0.930820	-0.148508
C62	C	0.225456	1.009016	-0.190479
C63	C	0.158334	1.066902	-0.221545
C64	C	0.167199	0.832306	-0.095639
C65	C	0.234313	0.774424	-0.064572
C66	C	0.298479	0.794738	-0.075472
C67	C	0.295529	0.872934	-0.117442
C68	C	0.365601	0.736852	-0.044405
C69	C	0.429765	0.757166	-0.055309
C70	C	0.359693	0.893248	-0.128346
C71	C	0.897547	0.984346	-0.177238
C72	C	0.965840	1.005959	-0.188838
C73	C	0.702902	0.907875	-0.346782
C74	C	0.705134	0.903535	-0.415924
C75	C	0.703950	1.133116	-0.151787
C76	C	0.706539	1.205221	-0.154750
C77	C	0.671154	0.969534	-0.484923
C78	C	0.673261	0.965454	-0.549888
C79	C	0.709344	0.895373	-0.545852
C80	C	0.743328	0.829370	-0.476846
C81	C	0.741225	0.833453	-0.411883
C82	C	0.719395	0.875870	-0.736225
C83	C	0.721493	0.871792	-0.801195
C84	C	0.651427	1.007876	-0.874233
C85	C	0.649323	1.011951	-0.809265
C86	C	0.683311	0.945949	-0.740265
N87	N	0.711497	0.891200	-0.612255
N88	N	0.681162	0.950124	-0.673864
C89	C	0.689746	0.933450	0.060665
C90	C	0.687513	0.937790	0.129807
C91	C	0.889920	0.771893	-0.168509
C92	C	0.955625	0.721401	-0.177147
C93	C	0.682119	0.720997	0.069393
C94	C	0.677298	0.653233	0.141498
C95	C	0.883342	0.784680	0.035214
C96	C	0.946815	0.738529	0.095718
C97	C	0.509305	1.056645	-0.321332
C98	C	0.445833	1.102797	-0.381836
C99	C	0.502727	1.069433	-0.117608
C100	C	0.437023	1.119924	-0.108971
C101	C	0.710528	1.120328	-0.355511
C102	C	0.715349	1.188093	-0.427615
C103	C	0.948472	0.682757	-0.214317
C104	C	1.010204	0.635322	-0.222448
C105	C	1.079087	0.626527	-0.193403
C106	C	1.086238	0.665178	-0.156232
C107	C	1.024507	0.712616	-0.148106
C108	C	0.713042	0.636342	0.208472
C109	C	0.708510	0.572679	0.276228
C110	C	0.668237	0.525904	0.277007
C111	C	0.632489	0.542799	0.210026
C112	C	0.637017	0.606464	0.142272
C113	C	1.017206	0.726796	0.077675
C114	C	1.076852	0.683443	0.134518
C115	C	1.066104	0.651819	0.209403
C116	C	0.995706	0.663556	0.227445
C117	C	0.936062	0.706913	0.170603
C118	C	0.375442	1.114538	-0.363793
C119	C	0.315797	1.157912	-0.420637
C120	C	0.326544	1.189540	-0.495522
C121	C	0.396943	1.177798	-0.513564
C122	C	0.456586	1.134430	-0.456722
C123	C	0.444175	1.158575	-0.071808
C124	C	0.382445	1.206028	-0.063696
C125	C	0.313563	1.214825	-0.092743
C126	C	0.306411	1.176171	-0.129911
C127	C	0.368141	1.128724	-0.138027
C128	C	0.755628	1.234851	-0.428370
C129	C	0.760172	1.298519	-0.496116
C130	C	0.724432	1.315431	-0.563105
C131	C	0.684152	1.268667	-0.562348
C132	C	0.679613	1.204997	-0.494604
H133	H	0.759498	0.647839	-0.215399
H134	H	0.366677	1.088785	-0.302822
C135	C	1.002324	0.592806	-0.263326
H136	H	0.952457	0.604829	-0.279446
H137	H	1.027325	0.608951	-0.305410
H138	H	1.022318	0.538400	-0.230331
C139	C	0.635291	1.153577	-0.493776
H140	H	0.637702	1.113231	-0.443840
H141	H	0.586219	1.184176	-0.513994
H142	H	0.654618	1.131591	-0.522981
H143	H	0.737624	0.558934	0.330760
C144	C	0.872710	0.692427	-0.246276
H145	H	0.877302	0.662621	-0.269583
H146	H	0.844533	0.675037	-0.206957
H147	H	0.849560	0.745592	-0.282021
C148	C	1.154281	0.670512	0.114664
H149	H	1.188269	0.640163	0.159237
H150	H	1.159810	0.644162	0.087809
H151	H	1.162535	0.719234	0.084704
H152	H	0.664556	0.474066	0.332182
C153	C	0.983889	0.628767	0.309818
H154	H	0.933425	0.641966	0.312431
H155	H	1.004129	0.573906	0.335464
H156	H	1.006817	0.648981	0.332377
H157	H	0.114950	0.815768	-0.086768
H158	H	0.612265	0.611781	-0.046816
C159	C	1.146983	0.574336	-0.202338
H160	H	1.132851	0.552577	-0.228629
H161	H	1.177503	0.604383	-0.229480
H162	H	1.172474	0.533836	-0.154410
H163	H	0.484414	0.710034	-0.029999
H164	H	0.607912	0.620207	0.087741
C165	C	1.162008	0.655486	-0.124271
H166	H	1.157434	0.685295	-0.100968
H167	H	1.185147	0.602321	-0.088535
H168	H	1.190185	0.672875	-0.163595
H169	H	0.513900	1.124871	-0.471421
C170	C	0.519938	1.148907	-0.039851
H171	H	0.515347	1.178732	-0.016564
H172	H	0.543092	1.095748	-0.004103
H173	H	0.548112	1.166297	-0.079177
C174	C	0.757334	0.687793	0.207632
H175	H	0.777960	0.668614	0.257230
H176	H	0.794889	0.686976	0.178088
H177	H	0.726467	0.739534	0.187074
H178	H	1.114676	0.616516	0.255680
H179	H	0.878748	0.716457	0.185305
H180	H	0.357282	0.956928	-0.162500
H181	H	0.258481	1.167462	-0.405932
C182	C	0.588201	0.491335	0.210891
H183	H	0.590637	0.450996	0.260837
H184	H	0.539120	0.521901	0.190682
H185	H	0.607541	0.469341	0.181696
H186	H	1.030341	0.744076	-0.117835
C187	C	1.029042	0.761579	-0.004692
H188	H	1.079511	0.748384	-0.007286
H189	H	1.006122	0.741375	-0.027262
H190	H	1.008809	0.816445	-0.030340
C191	C	0.260932	1.237230	-0.558041
H192	H	0.217472	1.239680	-0.536563
H193	H	0.263761	1.288248	-0.589609
H194	H	0.261076	1.213167	-0.586511
H195	H	0.405685	1.203555	-0.574542
H196	H	0.367998	0.673182	-0.010239
H197	H	0.388282	1.237493	-0.033428
H198	H	0.784732	1.221092	-0.373831
H199	H	0.263304	1.253462	-0.086129
C200	C	0.644790	1.287313	-0.636030
H201	H	0.620137	1.250358	-0.625884
H202	H	0.610789	1.337819	-0.659293
H203	H	0.679152	1.285266	-0.668365
H204	H	0.784796	0.352458	-0.244354
H205	H	0.755087	0.524925	-0.210334
C206	C	0.804471	1.349956	-0.496934
H207	H	0.825092	1.330769	-0.447332
H208	H	0.842030	1.349135	-0.526472
H209	H	0.773611	1.401700	-0.517490
H210	H	0.250319	1.183342	-0.153559
C211	C	0.237560	0.688410	-0.018405
H212	H	0.189734	0.684601	-0.016356
H213	H	0.263636	0.661518	-0.041173
H214	H	0.261306	0.666050	0.030807
C215	C	0.360263	1.086201	-0.178896
H216	H	0.310397	1.098233	-0.195023
H217	H	0.385272	1.102335	-0.220975
H218	H	0.380248	1.031796	-0.145895
C219	C	0.296032	1.031368	-0.202477
H220	H	0.284657	1.086229	-0.231926
H221	H	0.322327	1.013096	-0.155468
H222	H	0.324647	1.008577	-0.227454
C223	C	0.791633	0.222701	-0.252170
H224	H	0.784204	0.176073	-0.243654
H225	H	0.775670	0.261908	-0.303211
H226	H	0.841748	0.213860	-0.240210
H227	H	0.728134	1.367278	-0.618261
C228	C	0.621206	0.180961	-0.057049
H229	H	0.625388	0.137190	-0.061853
H230	H	0.637973	0.163952	-0.006921
H231	H	0.571889	0.212008	-0.069914
H232	H	0.637569	0.316385	-0.075766
C233	C	0.595909	0.476351	-0.028089
H234	H	0.600088	0.432578	-0.032888
H235	H	0.612673	0.459347	0.022039
H236	H	0.546592	0.507402	-0.040959
H237	H	0.155923	1.130582	-0.255700
H238	H	0.024644	1.168149	-0.275862
H239	H	-0.091756	1.131282	-0.256100
C240	C	0.631467	1.046624	-0.489370
H241	H	0.611539	1.085348	-0.539771
H242	H	0.593640	1.039801	-0.459511
H243	H	0.664748	1.062294	-0.471585
C244	C	0.036204	0.862058	-0.111602
H245	H	-0.011622	0.858249	-0.109553
H246	H	0.062280	0.835166	-0.134370
H247	H	0.059950	0.839698	-0.062390
C248	C	0.756771	0.803268	-0.660334
H249	H	0.778553	0.760946	-0.667236
H250	H	0.792959	0.813277	-0.639507
H251	H	0.721852	0.790781	-0.627438
C252	C	0.635880	1.038051	-0.625784
H253	H	0.614082	1.080370	-0.618882
H254	H	0.670791	1.050543	-0.658683
H255	H	0.599693	1.028031	-0.646604
C256	C	0.609632	1.089039	-0.813709
H257	H	0.589699	1.127764	-0.864109
H258	H	0.571807	1.082206	-0.783848
H259	H	0.642907	1.104714	-0.795923
H260	H	0.750875	0.814720	-0.797900
C261	C	0.783007	0.752278	-0.472399
H262	H	0.802945	0.713556	-0.422000
H263	H	0.749726	0.736614	-0.490185
H264	H	0.820838	0.759098	-0.502259
C265	C	0.778597	0.760855	-0.335982
H266	H	0.772182	0.773324	-0.297871
H267	H	0.757786	0.720978	-0.325586
H268	H	0.828889	0.743482	-0.337660
H269	H	0.623757	1.061611	-0.930417
