data_functionalizedCrystal
_audit_creation_method	'MofGen! by Chris Wilmer'
_symmetry_space_group_name_H-M	'P1'
_symmetry_Int_Tables_number	1
_symmetry_cell_setting	triclinic
loop_
_symmetry_equiv_pos_as_xyz
  x,y,z
_cell_length_a	16.109318
_cell_length_b	19.188930
_cell_length_c	14.586319
_cell_angle_alpha	89.991095
_cell_angle_beta	90.000075
_cell_angle_gamma	83.306672
loop_
_atom_site_label
_atom_site_type_symbol
_atom_site_fract_x
_atom_site_fract_y
_atom_site_fract_z
O1	O	1.102824	0.089802	-0.076175
O2	O	0.860727	0.100957	-0.076194
O3	O	0.988762	-0.006259	-0.076166
O4	O	0.974789	0.197018	-0.076203
O5	O	0.988753	-0.006261	0.076315
O6	O	0.860718	0.100956	0.076286
O7	O	1.102815	0.089800	0.076306
Cu8	Cu	0.981766	0.095378	0.090219
Cu9	Cu	0.981777	0.095380	-0.090107
O10	O	0.974780	0.197017	0.076278
C11	C	0.829750	0.100503	0.000044
C12	C	0.737460	0.099141	0.000037
C13	C	0.438405	0.094746	-0.083064
C14	C	0.525122	0.096020	-0.083069
C15	C	0.525132	0.096009	0.083174
C16	C	0.438417	0.094730	0.083178
C17	C	0.395055	0.094102	0.000057
C18	C	0.568487	0.096655	0.000046
C19	C	0.662510	0.098037	0.000041
C20	C	0.301027	0.092719	0.000063
C21	C	0.988305	-0.032272	0.000077
C22	C	0.986947	-0.109780	0.000085
C23	C	1.062074	-0.154525	0.000095
C24	C	1.060797	-0.227351	0.000080
C25	C	0.984390	-0.255431	0.000074
C26	C	0.909254	-0.210676	0.000058
C27	C	0.910532	-0.137851	0.000063
N28	N	0.925983	-0.363576	0.051961
N29	N	0.924774	-0.432757	0.051957
C30	C	0.980535	-0.474848	0.000055
N31	N	1.037562	-0.445146	-0.051833
N32	N	1.038774	-0.375959	-0.051826
C33	C	0.982996	-0.334396	0.000067
C34	C	1.054283	-0.598561	0.000048
C35	C	1.053003	-0.671388	0.000027
C36	C	0.901458	-0.654712	0.000014
C37	C	0.902739	-0.581885	0.000025
C38	C	0.979154	-0.553815	0.000047
C39	C	1.133793	0.090255	0.000066
C40	C	1.226083	0.091616	0.000067
C41	C	0.975237	0.223030	0.000033
C42	C	0.976596	0.300537	0.000019
N43	N	0.981765	0.095376	0.217051
N44	N	0.981784	0.095376	-0.216939
C45	C	1.038477	0.047916	0.452070
C46	C	1.038480	0.047915	0.548051
C47	C	0.925066	0.142838	0.548035
C48	C	0.925060	0.142836	0.452056
C49	C	0.981771	0.095376	0.404075
C50	C	0.981779	0.095376	0.596036
C51	C	0.981781	0.095375	0.700103
C52	C	0.981768	0.095376	0.300002
H53	H	0.403121	0.094205	0.150869
O54	O	0.391640	0.094064	-0.172715
H55	H	0.324057	0.093073	-0.158751
H56	H	0.560447	0.096522	0.150848
O57	O	0.863887	0.194027	0.400292
H58	H	0.823583	0.164618	0.356586
H59	H	1.124296	-0.131674	0.000109
O60	O	1.099620	-0.003292	0.400323
H61	H	1.090090	0.004677	0.325518
H62	H	0.847043	-0.233543	0.000050
O63	O	0.571884	0.096714	-0.172719
H64	H	0.547665	0.144035	-0.212576
O65	O	1.141832	-0.275622	0.000108
H66	H	1.144892	-0.309192	-0.062041
O67	O	0.863916	0.194033	0.599791
H68	H	0.824480	0.227032	0.550290
O69	O	0.829500	-0.089583	0.000068
H70	H	0.776152	-0.121340	0.000067
H71	H	1.116504	-0.575704	0.000061
H72	H	1.114183	-0.707819	0.000031
H73	H	0.839246	-0.677573	0.000004
O74	O	0.821710	-0.533618	0.000037
H75	H	0.768363	-0.565375	0.000040
H76	H	1.084654	0.009268	0.587125
