data_functionalizedCrystal
_audit_creation_method	'MofGen! by Chris Wilmer'
_symmetry_space_group_name_H-M	'P1'
_symmetry_Int_Tables_number	1
_symmetry_cell_setting	triclinic
loop_
_symmetry_equiv_pos_as_xyz
  x,y,z
_cell_length_a	16.974800
_cell_length_b	16.974813
_cell_length_c	14.586319
_cell_angle_alpha	86.341649
_cell_angle_beta	93.653309
_cell_angle_gamma	83.627081
loop_
_atom_site_label
_atom_site_type_symbol
_atom_site_fract_x
_atom_site_fract_y
_atom_site_fract_z
O1	O	1.049039	0.100721	-0.005848
O2	O	0.818818	0.113570	-0.023890
O3	O	0.940346	-0.007965	-0.005848
O4	O	0.927510	0.222256	-0.023890
O5	O	0.940338	-0.007967	0.146632
O6	O	0.818810	0.113568	0.128590
O7	O	1.049031	0.100719	0.146633
Cu8	Cu	0.933919	0.107144	0.151534
Cu9	Cu	0.933929	0.107146	-0.028792
O10	O	0.927502	0.222254	0.128590
C11	C	0.789356	0.113082	0.050199
C12	C	0.701580	0.111622	0.043792
C13	C	0.660344	0.110934	0.123901
C14	C	0.577871	0.109549	0.117884
C15	C	0.536636	0.108860	0.031757
C16	C	0.577879	0.109546	-0.048358
C17	C	0.660351	0.110925	-0.042340
C18	C	0.289983	0.104732	0.004846
C19	C	0.207505	0.103355	-0.001167
C20	C	0.207503	0.103357	0.165076
C21	C	0.289976	0.104741	0.171086
C22	C	0.331212	0.105423	0.090972
N23	N	0.452336	0.107447	0.025604
N24	N	0.415512	0.106830	0.097126
C25	C	0.939854	-0.037424	0.072541
C26	C	0.938390	-0.125199	0.078942
C27	C	0.937708	-0.166431	-0.001167
C28	C	0.936327	-0.248904	0.004850
C29	C	0.935633	-0.290145	0.090977
C30	C	0.936312	-0.248908	0.171092
C31	C	0.937688	-0.166435	0.165074
C32	C	0.931514	-0.536802	0.117889
C33	C	0.930141	-0.619280	0.123901
C34	C	0.930154	-0.619271	-0.042342
C35	C	0.931534	-0.536797	-0.048352
C36	C	0.932209	-0.495566	0.031762
N37	N	0.934224	-0.374446	0.097130
N38	N	0.933612	-0.411266	0.025609
C39	C	1.078493	0.101207	0.072541
C40	C	1.166268	0.102667	0.078942
C41	C	0.927995	0.251713	0.050199
C42	C	0.929459	0.339488	0.043792
N43	N	0.933918	0.107142	0.278366
N44	N	0.933937	0.107141	-0.155623
C45	C	0.987749	0.053344	0.521361
C46	C	0.987751	0.053342	0.617343
C47	C	0.880100	0.160942	0.601374
C48	C	0.880095	0.160939	0.505395
C49	C	0.933924	0.107141	0.465391
C50	C	0.933931	0.107142	0.657352
C51	C	0.933933	0.107140	0.761420
C52	C	0.933921	0.107142	0.361317
H53	H	0.693910	0.111502	0.194034
Cl54	Cl	0.929303	-0.671108	-0.143050
H55	H	0.938232	-0.132864	0.230306
H56	H	0.544301	0.108975	0.183119
H57	H	0.323548	0.105285	-0.060389
Cl58	Cl	0.812436	0.228573	0.651669
Cl59	Cl	1.055418	-0.014293	0.687704
Cl60	Cl	0.341807	0.105613	0.279365
Cl61	Cl	0.932408	-0.484957	-0.156631
H62	H	0.544300	0.108979	-0.118484
Cl63	Cl	0.812420	0.228571	0.435025
Cl64	Cl	0.155659	0.102496	0.265785
H65	H	0.173933	0.102796	-0.071306
Cl66	Cl	0.938586	-0.114593	-0.109447
Cl67	Cl	0.712192	0.111787	-0.143053
Cl68	Cl	0.935472	-0.300735	-0.095864
H69	H	0.932079	-0.503243	0.183125
Cl70	Cl	0.929273	-0.671126	0.232184
Cl71	Cl	0.935430	-0.300752	0.279366
Cl72	Cl	1.055416	-0.014291	0.471075
