data_functionalizedCrystal
_audit_creation_method	'MofGen! by Chris Wilmer'
_symmetry_space_group_name_H-M	'P1'
_symmetry_Int_Tables_number	1
_symmetry_cell_setting	triclinic
loop_
_symmetry_equiv_pos_as_xyz
  x,y,z
_cell_length_a	12.784905
_cell_length_b	12.837942
_cell_length_c	11.892283
_cell_angle_alpha	94.307221
_cell_angle_beta	86.521336
_cell_angle_gamma	83.968130
loop_
_atom_site_label
_atom_site_type_symbol
_atom_site_fract_x
_atom_site_fract_y
_atom_site_fract_z
O1	O	1.404897	0.013605	0.094008
O2	O	1.099897	0.057598	0.094009
O3	O	1.245634	-0.114692	0.094001
O4	O	1.259160	0.185895	0.094015
O5	O	1.257759	-0.129034	-0.094002
O6	O	1.112022	0.043256	-0.093994
O7	O	1.417022	-0.000736	-0.093995
Zn8	Zn	1.266447	0.018983	-0.123844
Zn9	Zn	1.250472	0.037878	0.123858
O10	O	1.271284	0.171554	-0.093988
C11	C	1.066650	0.053288	0.000007
C12	C	0.949519	0.061801	0.000007
C13	C	0.735567	-0.111641	0.000020
C14	C	0.625512	-0.103647	0.000020
C15	C	0.619350	0.085782	0.000016
C16	C	0.729405	0.077789	0.000016
C17	C	0.787510	-0.020927	0.000016
C18	C	0.897568	-0.028920	0.000008
C19	C	0.891404	0.160509	0.000012
C20	C	0.781349	0.168503	0.000012
C21	C	1.247128	-0.160072	0.000001
C22	C	1.233500	-0.273920	0.000002
C23	C	1.397330	-0.529644	0.000026
C24	C	1.384530	-0.636616	0.000028
C25	C	1.195101	-0.594838	0.000016
C26	C	1.207900	-0.487866	0.000014
C27	C	1.309018	-0.455274	0.000017
C28	C	1.321818	-0.348300	0.000007
C29	C	1.132389	-0.306523	0.000004
C30	C	1.119589	-0.413495	0.000006
C31	C	1.450269	0.003574	0.000009
C32	C	1.567400	-0.004939	0.000016
C33	C	1.269791	0.216933	0.000016
C34	C	1.283419	0.330783	0.000021
N35	N	1.277357	0.006086	-0.292894
C36	C	1.353382	-0.083717	-0.470402
C37	C	1.345733	-0.074692	-0.352063
C38	C	1.216629	0.077846	-0.352073
C39	C	1.224277	0.068821	-0.470412
C40	C	1.292655	-0.011964	-0.529572
C41	C	1.300298	-0.020993	-0.647913
C42	C	1.171200	0.131548	-0.647921
C43	C	1.163551	0.140573	-0.529582
N44	N	1.239569	0.050766	0.292908
H45	H	0.944876	-0.109299	0.000006
F46	F	1.087491	-0.629541	0.000041
H47	H	1.037261	-0.440047	0.000008
F48	F	1.038396	-0.227364	-0.000016
F49	F	0.570233	-0.200197	0.000027
F50	F	1.373068	-0.106973	-0.710874
H51	H	1.395184	-0.133119	-0.303890
H52	H	1.107882	0.206350	-0.481400
H53	H	0.782877	-0.192019	0.000012
H54	H	1.121749	0.189971	-0.696111
H55	H	1.409050	-0.149502	-0.518571
F56	F	0.557492	0.190834	0.000037
H57	H	0.933708	0.234375	0.000003
F58	F	0.719498	0.273557	0.000019
F59	F	1.429435	-0.313615	0.000003
H60	H	1.479664	-0.503109	0.000017
F61	F	1.143871	0.163827	-0.289097
F62	F	1.478523	-0.715764	0.000040
