data_functionalizedCrystal
_audit_creation_method	'MofGen! by Chris Wilmer'
_symmetry_space_group_name_H-M	'P1'
_symmetry_Int_Tables_number	1
_symmetry_cell_setting	triclinic
loop_
_symmetry_equiv_pos_as_xyz
  x,y,z
_cell_length_a	16.120484
_cell_length_b	12.759401
_cell_length_c	12.759393
_cell_angle_alpha	89.981504
_cell_angle_beta	92.862882
_cell_angle_gamma	92.925560
loop_
_atom_site_label
_atom_site_type_symbol
_atom_site_fract_x
_atom_site_fract_y
_atom_site_fract_z
Zn1	Zn	-0.331853	1.584972	-0.615146
Zn2	Zn	0.168147	2.084972	-0.115146
Zn3	Zn	-0.471291	1.575923	-0.448359
Zn4	Zn	0.028709	2.075923	0.051641
Zn5	Zn	-0.331897	1.409271	-0.439488
Zn6	Zn	0.168103	1.909271	0.060512
Zn7	Zn	-0.471227	1.400324	-0.623996
Zn8	Zn	0.028773	1.900324	-0.123996
O9	O	-0.401567	1.492622	-0.531747
O10	O	0.098433	1.992622	-0.031747
O11	O	-0.350358	1.730792	-0.593030
O12	O	0.149642	2.230792	-0.093030
O13	O	-0.452845	1.553774	-0.300164
O14	O	0.047155	2.053774	0.199836
O15	O	-0.215226	1.440109	-0.455373
O16	O	0.284774	1.940109	0.044627
O17	O	-0.452803	1.724144	-0.470492
O18	O	0.047197	2.224144	0.029508
O19	O	-0.215194	1.569196	-0.584428
O20	O	0.284806	2.069196	-0.084428
O21	O	-0.350433	1.431335	-0.293646
O22	O	0.149567	1.931335	0.206354
O23	O	-0.350370	1.261064	-0.463955
O24	O	0.149630	1.761064	0.036045
O25	O	-0.452693	1.424860	-0.769840
O26	O	0.047307	1.924860	-0.269840
O27	O	-0.452736	1.254490	-0.599512
O28	O	0.047264	1.754490	-0.099512
O29	O	-0.350296	1.560520	-0.763338
O30	O	0.149704	2.060520	-0.263338
O31	O	-0.587947	1.545098	-0.479074
O32	O	-0.087947	2.045098	0.020926
O33	O	-0.587900	1.416086	-0.608114
O34	O	-0.087900	1.916086	-0.108114
C35	C	-0.618174	1.478668	-0.545540
C36	C	-0.118174	1.978668	-0.045540
C37	C	-0.710839	1.472794	-0.551475
C38	C	-0.210839	1.972794	-0.051475
C39	C	-0.401551	1.219656	-0.531732
C40	C	0.098449	1.719656	-0.031732
C41	C	-0.401565	1.102879	-0.531752
C42	C	0.098435	1.602879	-0.031752
C43	C	-0.454952	1.044616	-0.602231
C44	C	0.045048	1.544616	-0.102231
C45	C	-0.454962	0.934891	-0.602243
C46	C	0.045038	1.434891	-0.102243
C47	C	-0.348197	0.941702	-0.461287
C48	C	0.151803	1.441702	0.038713
C49	C	-0.348183	1.051425	-0.461281
C50	C	0.151817	1.551425	0.038719
C51	C	-0.516595	1.040682	-0.683607
C52	C	-0.016595	1.540682	-0.183607
C53	C	-0.516605	0.930958	-0.683619
C54	C	-0.016605	1.430958	-0.183619
C55	C	-0.880500	1.462076	-0.562334
C56	C	-0.380500	1.962076	-0.062334
C57	C	-0.921793	1.523357	-0.501178
C58	C	-0.421793	2.023357	-0.001178
C59	C	-1.016198	1.517393	-0.507219
C60	C	-0.516198	2.017393	-0.007219
C61	C	-0.786086	1.468038	-0.556293
C62	C	-0.286086	1.968038	-0.056293
C63	C	-0.184114	1.506660	-0.517924
C64	C	0.315886	2.006660	-0.017924
C65	C	-0.091448	1.512642	-0.512033
C66	C	0.408552	2.012642	-0.012033
C67	C	-0.401483	1.492701	-0.805775
C68	C	0.098517	1.992701	-0.305775
C69	C	-0.401447	1.492735	-0.922550
C70	C	0.098553	1.992735	-0.422550
C71	C	-0.401583	1.766655	-0.531763
C72	C	0.098417	2.266655	-0.031763
C73	C	-0.401590	1.883431	-0.531770
C74	C	0.098410	2.383431	-0.031770
C75	C	-0.348123	1.563383	-0.974027
C76	C	0.151877	2.063383	-0.474027
C77	C	-0.348093	1.563410	-1.083750
C78	C	0.151907	2.063410	-0.583750
C79	C	-0.454717	1.422138	-1.090507
C80	C	0.045283	1.922138	-0.590507
C81	C	-0.454742	1.422106	-0.980787
C82	C	0.045258	1.922106	-0.480787
C83	C	-0.286568	1.644948	-0.970127
C84	C	0.213432	2.144948	-0.470127
C85	C	-0.286538	1.644975	-1.079849
C86	C	0.213462	2.144975	-0.579849
C87	C	-0.401590	1.492608	-0.258781
C88	C	0.098410	1.992608	0.241219
C89	C	-0.401391	1.492793	-0.141992
C90	C	0.098609	1.992793	0.358008
H91	H	-0.304705	1.098859	-0.403897
H92	H	0.195295	1.598859	0.096103
Cl93	Cl	-0.866912	1.611268	-0.413331
Cl94	Cl	-0.366912	2.111268	0.086669
Cl95	Cl	-0.935381	1.374163	-0.650167
Cl96	Cl	-0.435381	1.874163	-0.150167
Cl97	Cl	-0.611267	1.087135	-0.644533
Cl98	Cl	-0.111267	1.587135	-0.144533
H99	H	-0.498160	1.364575	-0.938878
H100	H	0.001840	1.864575	-0.438878
H101	H	-0.225191	1.619796	-1.109984
H102	H	0.274809	2.119796	-0.609984
H103	H	-0.581158	0.897022	-0.665804
H104	H	-0.081158	1.397022	-0.165804
H105	H	-0.498106	1.364632	-1.137937
H106	H	0.001894	1.864632	-0.637937
Cl107	Cl	-0.281091	0.877009	-0.372702
Cl108	Cl	0.218909	1.377009	0.127298
Cl109	Cl	-0.322298	1.761958	-0.919848
Cl110	Cl	0.177702	2.261958	-0.419848
H111	H	-0.222003	1.627321	-0.936253
H112	H	0.277997	2.127321	-0.436253
Cl113	Cl	-0.313224	1.768892	-1.127535
Cl114	Cl	0.186776	2.268892	-0.627535
H115	H	-0.499376	1.071595	-0.763915
H116	H	0.000624	1.571595	-0.263915
H117	H	-0.493558	0.898438	-0.759501
H118	H	0.006442	1.398438	-0.259501
