data_functionalizedCrystal
_audit_creation_method	'MofGen! by Chris Wilmer'
_symmetry_space_group_name_H-M	'P1'
_symmetry_Int_Tables_number	1
_symmetry_cell_setting	triclinic
loop_
_symmetry_equiv_pos_as_xyz
  x,y,z
_cell_length_a	18.101395
_cell_length_b	18.101398
_cell_length_c	18.215399
_cell_angle_alpha	90.027113
_cell_angle_beta	89.973154
_cell_angle_gamma	89.976925
loop_
_atom_site_label
_atom_site_type_symbol
_atom_site_fract_x
_atom_site_fract_y
_atom_site_fract_z
Zn1	Zn	-0.294993	-1.132123	-0.416276
Zn2	Zn	0.038341	-0.798789	-0.082943
Zn3	Zn	0.371674	-0.465456	0.250391
Zn4	Zn	-0.418840	-1.132018	-0.293213
Zn5	Zn	-0.085507	-0.798685	0.040120
Zn6	Zn	0.247827	-0.465351	0.373454
Zn7	Zn	-0.295000	-1.008281	-0.293207
Zn8	Zn	0.038334	-0.674948	0.040127
Zn9	Zn	0.371667	-0.341614	0.373460
Zn10	Zn	-0.418780	-1.008232	-0.416221
Zn11	Zn	-0.085446	-0.674899	-0.082888
Zn12	Zn	0.247887	-0.341566	0.250445
O13	O	-0.356903	-1.070163	-0.354729
O14	O	-0.023570	-0.736830	-0.021396
O15	O	0.309764	-0.403497	0.311937
O16	O	-0.311444	-1.235742	-0.399977
O17	O	0.021890	-0.902408	-0.066644
O18	O	0.355223	-0.569075	0.266690
O19	O	-0.402440	-1.115581	-0.190228
O20	O	-0.069107	-0.782247	0.143106
O21	O	0.264226	-0.448914	0.476439
O22	O	-0.191366	-1.024773	-0.309552
O23	O	0.141968	-0.691440	0.023781
O24	O	0.475301	-0.358106	0.357114
O25	O	-0.402434	-1.235665	-0.309563
O26	O	-0.069101	-0.902331	0.023770
O27	O	0.264233	-0.568998	0.357104
O28	O	-0.191361	-1.115759	-0.399971
O29	O	0.141973	-0.782426	-0.066638
O30	O	0.475306	-0.449092	0.266696
O31	O	-0.311455	-1.024672	-0.190223
O32	O	0.021878	-0.691338	0.143110
O33	O	0.355211	-0.358005	0.476443
O34	O	-0.311397	-0.904642	-0.309499
O35	O	0.021937	-0.571308	0.023834
O36	O	0.355270	-0.237975	0.357167
O37	O	-0.402331	-1.024690	-0.519213
O38	O	-0.068998	-0.691357	-0.185879
O39	O	0.264336	-0.358023	0.147454
O40	O	-0.402337	-0.904606	-0.399878
O41	O	-0.069004	-0.571272	-0.066544
O42	O	0.264329	-0.237939	0.266789
O43	O	-0.311385	-1.115712	-0.519253
O44	O	0.021948	-0.782378	-0.185920
O45	O	0.355281	-0.449045	0.147414
O46	O	-0.522465	-1.115533	-0.309510
O47	O	-0.189132	-0.782200	0.023823
O48	O	0.144202	-0.448867	0.357157
O49	O	-0.522421	-1.024588	-0.399884
O50	O	-0.189087	-0.691255	-0.066550
O51	O	0.144246	-0.357922	0.266783
C52	C	-0.356862	-0.877753	-0.354682
C53	C	-0.023529	-0.544420	-0.021349
C54	C	0.309805	-0.211086	0.311984
C55	C	-0.356862	-0.795439	-0.354680
C56	C	-0.023529	-0.462105	-0.021346
C57	C	0.309805	-0.128772	0.311987
C58	C	-0.549314	-1.070064	-0.354708
C59	C	-0.215980	-0.736731	-0.021374
C60	C	0.117353	-0.403398	0.311959
C61	C	-0.631628	-1.070090	-0.354723
C62	C	-0.298294	-0.736756	-0.021390
C63	C	0.035039	-0.403423	0.311944
C64	C	-0.356891	-0.496348	-0.354728
C65	C	-0.023558	-0.163014	-0.021395
C66	C	0.309776	0.170319	0.311939
C67	C	-0.299389	-0.527671	-0.298143
C68	C	0.033944	-0.194338	0.035190
C69	C	0.367277	0.138996	0.368523
C70	C	-0.299549	-0.613289	-0.297906
C71	C	0.033785	-0.279956	0.035428
C72	C	0.367118	0.053378	0.368761
C73	C	-0.356876	-0.644730	-0.354704
C74	C	-0.023543	-0.311397	-0.021371
C75	C	0.309791	0.021936	0.311963
C76	C	-0.434886	-0.613612	-0.333514
C77	C	-0.101553	-0.280279	-0.000180
C78	C	0.231781	0.053055	0.333153
C79	C	-0.434561	-0.527967	-0.333116
C80	C	-0.101228	-0.194634	0.000217
C81	C	0.232105	0.138700	0.333550
C82	C	-0.337063	-0.527963	-0.432638
C83	C	-0.003730	-0.194629	-0.099304
C84	C	0.329604	0.138704	0.234029
C85	C	-0.335331	-0.613614	-0.432216
C86	C	-0.001997	-0.280280	-0.098883
C87	C	0.331336	0.053053	0.234450
C88	C	-0.356872	-0.728590	-0.354692
C89	C	-0.023539	-0.395256	-0.021358
C90	C	0.309794	-0.061923	0.311975
C91	C	-0.356900	-0.412488	-0.354739
C92	C	-0.023567	-0.079155	-0.021405
C93	C	0.309767	0.254178	0.311928
C94	C	-0.930719	-1.070252	-0.354763
C95	C	-0.597385	-0.736919	-0.021429
C96	C	-0.264052	-0.403586	0.311904
C97	C	-0.899396	-1.013165	-0.411764
C98	C	-0.566063	-0.679832	-0.078431
C99	C	-0.232730	-0.346498	0.254902
C100	C	-0.813778	-1.012894	-0.411586
C101	C	-0.480445	-0.679560	-0.078253
C102	C	-0.147112	-0.346227	0.255081
C103	C	-0.782336	-1.070172	-0.354744
C104	C	-0.449003	-0.736838	-0.021410
C105	C	-0.115669	-0.403505	0.311923
C106	C	-0.813484	-1.049042	-0.277180
C107	C	-0.480150	-0.715709	0.056154
C108	C	-0.146817	-0.382375	0.389487
C109	C	-0.899129	-1.048674	-0.277521
C110	C	-0.565796	-0.715341	0.055813
C111	C	-0.232462	-0.382007	0.389146
C112	C	-0.899073	-1.148594	-0.374642
C113	C	-0.565740	-0.815261	-0.041309
C114	C	-0.232407	-0.481927	0.292025
C115	C	-0.813422	-1.148133	-0.376343
C116	C	-0.480089	-0.814800	-0.043010
C117	C	-0.146756	-0.481467	0.290324
C118	C	-0.698477	-1.070127	-0.354728
C119	C	-0.365143	-0.736794	-0.021395
C120	C	-0.031810	-0.403461	0.311939
C121	C	-1.014578	-1.070295	-0.354773
C122	C	-0.681245	-0.736961	-0.021440
C123	C	-0.347911	-0.403628	0.311894
C124	C	-0.163741	-1.070283	-0.354767
C125	C	0.169592	-0.736950	-0.021434
C126	C	0.502926	-0.403616	0.311900
C127	C	-0.081427	-1.070334	-0.354783
C128	C	0.251906	-0.737001	-0.021450
C129	C	0.585240	-0.403667	0.311883
C130	C	-0.356851	-1.070207	-0.546682
C131	C	-0.023517	-0.736874	-0.213349
C132	C	0.309816	-0.403540	0.119984
C133	C	-0.356828	-1.070225	-0.628481
C134	C	-0.023495	-0.736892	-0.295148
C135	C	0.309839	-0.403559	0.038186
C136	C	-0.356930	-0.263325	-0.354766
C137	C	-0.023597	0.070008	-0.021432
C138	C	0.309736	0.403341	0.311901
C139	C	-0.356905	-0.345639	-0.354752
C140	C	-0.023572	-0.012306	-0.021419
C141	C	0.309762	0.321027	0.311914
C142	C	-0.309409	-1.117648	-0.893561
C143	C	0.023924	-0.784314	-0.560228
C144	C	0.357258	-0.450981	-0.226894
C145	C	-0.309429	-1.117639	-0.816702
C146	C	0.023904	-0.784306	-0.483369
C147	C	0.357238	-0.450972	-0.150036
C148	C	-0.404140	-1.022863	-0.816650
C149	C	-0.070807	-0.689530	-0.483317
C150	C	0.262527	-0.356197	-0.149983
C151	C	-0.404123	-1.022876	-0.893507
C152	C	-0.070790	-0.689543	-0.560174
C153	C	0.262543	-0.356210	-0.226841
C154	C	-0.356753	-1.070267	-0.931961
C155	C	-0.023420	-0.736934	-0.598628
C156	C	0.309913	-0.403601	-0.265294
C157	C	-0.356790	-1.070246	-0.778245
C158	C	-0.023457	-0.736912	-0.444911
C159	C	0.309876	-0.403579	-0.111578
C160	C	-0.356812	-1.070236	-0.694911
C161	C	-0.023479	-0.736902	-0.361578
C162	C	0.309854	-0.403569	-0.028244
C163	C	-0.356732	-1.070278	-1.015300
C164	C	-0.023399	-0.736945	-0.681967
C165	C	0.309935	-0.403612	-0.348633
C166	C	-0.356902	-1.070163	-0.163523
C167	C	-0.023568	-0.736829	0.169810
C168	C	0.309765	-0.403496	0.503144
C169	C	-0.356716	-1.070288	-0.081725
C170	C	-0.023382	-0.736954	0.251609
C171	C	0.309951	-0.403621	0.584942
H172	H	-0.241363	-0.507101	-0.311277
H173	H	0.091971	-0.173767	0.022056
H174	H	0.425304	0.159566	0.355389
O175	O	-0.927607	-1.174115	-0.448289
O176	O	-0.594274	-0.840781	-0.114956
O177	O	-0.260941	-0.507448	0.218378
H178	H	-0.964667	-1.131240	-0.471547
H179	H	-0.631334	-0.797906	-0.138214
H180	H	-0.298000	-0.464573	0.195120
O181	O	-0.785151	-0.973987	-0.254474
O182	O	-0.451818	-0.640654	0.078859
O183	O	-0.118485	-0.307320	0.412193
H184	H	-0.807552	-0.959663	-0.199547
H185	H	-0.474219	-0.626329	0.133786
H186	H	-0.140886	-0.292996	0.467120
H187	H	-0.312349	-0.506121	-0.240749
H188	H	0.020984	-0.172788	0.092584
H189	H	0.354317	0.160545	0.425918
O190	O	-0.926592	-1.101361	-0.219351
O191	O	-0.593259	-0.768027	0.113983
O192	O	-0.259925	-0.434694	0.447316
H193	H	-0.960619	-1.070638	-0.178844
H194	H	-0.627286	-0.737305	0.154489
H195	H	-0.293953	-0.403972	0.487823
H196	H	-0.793062	-1.164067	-0.433426
H197	H	-0.459729	-0.830734	-0.100092
H198	H	-0.126395	-0.497400	0.233241
H199	H	-0.792016	-1.192916	-0.337853
H200	H	-0.458682	-0.859583	-0.004519
H201	H	-0.125349	-0.526250	0.328814
O202	O	-0.927972	-0.936710	-0.394548
O203	O	-0.594639	-0.603376	-0.061214
O204	O	-0.261306	-0.270043	0.272119
H205	H	-0.880693	-0.899365	-0.383288
H206	H	-0.547359	-0.566031	-0.049954
H207	H	-0.214026	-0.232698	0.283379
O208	O	-0.455191	-0.971767	-0.934927
O209	O	-0.121858	-0.638434	-0.601594
O210	O	0.211476	-0.305101	-0.268260
H211	H	-0.447226	-0.979745	-0.994831
H212	H	-0.113892	-0.646412	-0.661497
H213	H	0.219441	-0.313078	-0.328164
H214	H	-0.442706	-0.984278	-0.785332
H215	H	-0.109373	-0.650945	-0.451998
H216	H	0.223961	-0.317611	-0.118665
O217	O	-0.316907	-0.640372	-0.221431
O218	O	0.016427	-0.307039	0.111902
O219	O	0.349760	0.026294	0.445235
H220	H	-0.367969	-0.674275	-0.222765
H221	H	-0.034635	-0.340941	0.110568
H222	H	0.298698	-0.007608	0.443901
O223	O	-0.258364	-1.168741	-0.775282
O224	O	0.074969	-0.835408	-0.441949
O225	O	0.408302	-0.502074	-0.108616
H226	H	-0.225422	-1.201692	-0.814936
H227	H	0.107911	-0.868359	-0.481603
H228	H	0.441245	-0.535025	-0.148270
O229	O	-0.925668	-0.972816	-0.255219
O230	O	-0.592335	-0.639483	0.078115
O231	O	-0.259001	-0.306150	0.411448
H232	H	-0.959833	-0.977303	-0.204803
H233	H	-0.626500	-0.643970	0.128530
H234	H	-0.293167	-0.310637	0.461863
H235	H	-0.792716	-1.026113	-0.469099
H236	H	-0.459383	-0.692780	-0.135765
H237	H	-0.126050	-0.359446	0.197568
H238	H	-0.241701	-0.634330	-0.311188
H239	H	0.091632	-0.300996	0.022145
H240	H	0.424966	0.032337	0.355479
H241	H	-0.270837	-1.156236	-0.924868
H242	H	0.062496	-0.822903	-0.591534
H243	H	0.395830	-0.489570	-0.258201
O244	O	-0.456824	-0.501449	-0.257672
O245	O	-0.123491	-0.168116	0.075661
O246	O	0.209842	0.165218	0.408994
H247	H	-0.467717	-0.549797	-0.221814
H248	H	-0.134384	-0.216463	0.111519
H249	H	0.198949	0.116870	0.444853
O250	O	-0.926075	-1.204901	-0.319701
O251	O	-0.592742	-0.871568	0.013633
O252	O	-0.259409	-0.538234	0.346966
H253	H	-0.907152	-1.189099	-0.263912
H254	H	-0.573818	-0.855766	0.069421
H255	H	-0.240485	-0.522433	0.402755
O256	O	-0.493230	-0.500504	-0.385324
O257	O	-0.159896	-0.167171	-0.051991
O258	O	0.173437	0.166162	0.281343
H259	H	-0.481213	-0.521083	-0.441485
H260	H	-0.147880	-0.187750	-0.108152
H261	H	0.185453	0.145583	0.225181
O262	O	-0.493169	-0.640584	-0.386392
O263	O	-0.159835	-0.307251	-0.053059
O264	O	0.173498	0.026082	0.280274
H265	H	-0.467091	-0.676544	-0.428435
H266	H	-0.133757	-0.343211	-0.095102
H267	H	0.199576	-0.009877	0.238231
O268	O	-0.386768	-0.641964	-0.491059
O269	O	-0.053434	-0.308631	-0.157726
O270	O	0.279899	0.024703	0.175607
H271	H	-0.370007	-0.618956	-0.545024
H272	H	-0.036673	-0.285622	-0.211691
H273	H	0.296660	0.047711	0.121643
O274	O	-0.457555	-0.641980	-0.258889
O275	O	-0.124222	-0.308647	0.074444
O276	O	0.209111	0.024686	0.407777
H277	H	-0.512801	-0.619602	-0.244519
H278	H	-0.179468	-0.286269	0.088814
H279	H	0.153866	0.047064	0.422148
O280	O	-0.263018	-0.499399	-0.458160
O281	O	0.070315	-0.166065	-0.124827
O282	O	0.403648	0.167268	0.208507
H283	H	-0.239522	-0.462345	-0.415594
H284	H	0.093811	-0.129012	-0.082261
H285	H	0.427144	0.204321	0.251073
H286	H	-0.378945	-0.507706	-0.474799
H287	H	-0.045612	-0.174373	-0.141465
H288	H	0.287722	0.158960	0.191868
O289	O	-0.259291	-0.640560	-0.453392
O290	O	0.074042	-0.307227	-0.120059
O291	O	0.407376	0.026107	0.213274
H292	H	-0.236931	-0.675971	-0.408904
H293	H	0.096402	-0.342638	-0.075571
H294	H	0.429736	-0.009305	0.257763
H295	H	-0.919946	-1.026253	-0.469463
H296	H	-0.586613	-0.692920	-0.136130
H297	H	-0.253280	-0.359587	0.197204
H298	H	-0.793119	-1.089314	-0.233550
H299	H	-0.459785	-0.755980	0.099783
H300	H	-0.126452	-0.422647	0.433116
O301	O	-0.786712	-0.935979	-0.394124
O302	O	-0.453379	-0.602645	-0.060791
O303	O	-0.120046	-0.269312	0.272542
H304	H	-0.807364	-0.896894	-0.436333
H305	H	-0.474031	-0.563561	-0.103000
H306	H	-0.140697	-0.230228	0.230333
