data_functionalizedCrystal
_audit_creation_method	'MofGen! by Chris Wilmer'
_symmetry_space_group_name_H-M	'P1'
_symmetry_Int_Tables_number	1
_symmetry_cell_setting	triclinic
loop_
_symmetry_equiv_pos_as_xyz
  x,y,z
_cell_length_a	27.440280
_cell_length_b	16.704494
_cell_length_c	16.704494
_cell_angle_alpha	60.174809
_cell_angle_beta	90.004705
_cell_angle_gamma	63.425370
loop_
_atom_site_label
_atom_site_type_symbol
_atom_site_fract_x
_atom_site_fract_y
_atom_site_fract_z
Zr1	Zr	0.500950	0.863814	-0.142356
O2	O	0.431994	1.017953	-0.271803
O3	O	0.518301	0.701027	-0.097020
O4	O	0.528205	0.851325	-0.263629
O5	O	0.418587	0.880522	0.019799
O6	O	0.608407	0.851311	-0.263612
O7	O	0.422090	0.867655	-0.105194
O8	O	0.590691	0.582456	0.034421
O9	O	0.436303	1.149378	-0.278234
O10	O	0.590131	0.771177	-0.084503
O11	O	0.527663	0.780790	0.008765
O12	O	0.539324	0.957746	-0.187395
O13	O	0.476856	0.967359	-0.094127
Zr14	Zr	0.623276	0.884314	0.057019
Zr15	Zr	0.628863	0.863792	-0.142330
Zr16	Zr	0.495363	0.884336	0.056993
Zr17	Zr	0.507823	1.073422	-0.152613
Zr18	Zr	0.616403	0.674707	0.067276
O19	O	0.605925	1.047101	0.011683
O20	O	0.613870	1.017921	-0.271766
O21	O	0.424050	1.047132	0.011646
O22	O	0.692232	0.730176	0.186466
O23	O	0.700177	0.700996	-0.096983
O24	O	0.510357	0.730207	0.186429
O25	O	0.705639	0.867606	-0.105136
O26	O	0.596021	0.896803	0.178292
O27	O	0.515819	0.896817	0.178275
O28	O	0.702136	0.880474	0.019857
O29	O	0.537977	1.149360	-0.278213
O30	O	0.586249	0.598768	0.192876
O31	O	0.687923	0.598751	0.192897
O32	O	0.692364	0.582439	0.034442
O33	O	0.431862	1.165690	-0.119778
O34	O	0.533535	1.165672	-0.119758
O35	O	0.584902	0.790382	0.102058
O36	O	0.647371	0.780769	0.008790
O37	O	0.596563	0.967339	-0.094102
O38	O	0.534095	0.976952	-0.000834
C39	C	0.553517	0.611877	-0.029838
C40	C	0.550599	0.522893	-0.025484
C41	C	0.402114	0.874092	-0.042701
C42	C	0.347812	0.874101	-0.042712
C43	C	0.610348	0.345631	-0.114667
C44	C	0.607608	0.262023	-0.110578
C45	C	0.542384	0.272061	-0.013211
C46	C	0.545124	0.355669	-0.017300
C47	C	0.579106	0.392453	-0.068031
C48	C	0.581842	0.476068	-0.072125
C49	C	0.516621	0.486099	0.025247
C50	C	0.513882	0.402491	0.029336
C51	C	0.037631	0.776661	0.011067
C52	C	-0.013388	0.776656	0.011075
O53	O	-0.017221	0.693834	0.056781
N54	N	-0.065426	0.874042	-0.042634
C55	C	-0.066444	0.971440	-0.096348
O56	O	-0.115391	1.054274	-0.142031
C57	C	-0.015426	0.971445	-0.096351
C58	C	0.036611	0.874052	-0.042645
C59	C	0.089666	0.679276	0.064769
C60	C	0.140681	0.679282	0.064758
C61	C	0.139662	0.776672	0.011046
C62	C	0.087627	0.874058	-0.042655
C63	C	-0.016445	1.068843	-0.150058
C64	C	0.034579	1.068840	-0.150056
C65	C	0.086616	0.971446	-0.096350
C66	C	0.137622	0.971454	-0.096378
N67	N	0.189660	0.874068	-0.042668
C68	C	0.190680	0.776677	0.011044
C69	C	-0.173583	0.971423	-0.096337
C70	C	-0.224601	0.971419	-0.096341
C71	C	-0.171541	0.776634	0.011084
C72	C	-0.120523	0.776639	0.011082
C73	C	-0.121546	0.874037	-0.042628
C74	C	0.297814	0.776696	0.011018
C75	C	0.348831	0.776710	0.011000
C76	C	0.295767	0.971495	-0.096421
C77	C	0.244754	0.971481	-0.096407
C78	C	0.245781	0.874073	-0.042680
O79	O	0.141500	1.054233	-0.142057
O80	O	0.239629	0.693858	0.056729
C81	C	0.722112	0.874037	-0.042636
C82	C	0.776415	0.874027	-0.042625
C83	C	0.569102	0.848394	-0.292023
C84	C	0.571474	0.839682	-0.376652
C85	C	0.570709	1.136251	-0.055499
C86	C	0.573627	1.225235	-0.059853
C87	C	0.522893	1.018107	-0.643109
C88	C	0.525120	1.009926	-0.722629
C89	C	0.578160	0.815141	-0.615212
C90	C	0.575932	0.823322	-0.535693
C91	C	0.548297	0.924808	-0.549646
C92	C	0.546066	0.932988	-0.470125
C93	C	0.599109	0.738204	-0.362710
C94	C	0.601337	0.730023	-0.442229
C95	C	0.555124	0.899734	0.206687
C96	C	0.552752	0.908446	0.291315
C97	C	0.713516	0.611850	-0.029805
C98	C	0.764901	0.522856	-0.025440
C99	C	0.546528	0.637547	0.219517
C100	C	0.541238	0.557275	0.308500
C101	C	0.706527	0.637520	0.219550
C102	C	0.755540	0.557239	0.308544
C103	C	0.417699	1.110609	-0.304887
C104	C	0.368686	1.190890	-0.393881
C105	C	0.410710	1.136279	-0.055532
C106	C	0.359325	1.225272	-0.059897
C107	C	0.577698	1.110581	-0.304854
C108	C	0.582988	1.190853	-0.393837
C109	C	0.759154	0.476056	-0.072096
C110	C	0.807431	0.392447	-0.068013
C111	C	0.861455	0.355635	-0.017268
C112	C	0.867201	0.402444	0.029389
C113	C	0.818925	0.486056	0.025300
C114	C	0.568632	0.524587	0.398994
C115	C	0.563660	0.449176	0.482610
C116	C	0.531297	0.406448	0.475731
C117	C	0.503900	0.439144	0.385228
C118	C	0.508869	0.514560	0.301613
C119	C	0.811170	0.514520	0.301652
C120	C	0.857228	0.439098	0.385263
C121	C	0.847655	0.406391	0.475767
C122	C	0.792019	0.449118	0.482657
C123	C	0.745962	0.524544	0.399046
C124	C	0.313057	1.233619	-0.386989
C125	C	0.266999	1.309067	-0.470602
C126	C	0.276573	1.341778	-0.561105
C127	C	0.332208	1.299046	-0.567995
C128	C	0.378265	1.223606	-0.484384
C129	C	0.365073	1.272080	-0.013250
C130	C	0.316797	1.355710	-0.017356
C131	C	0.262773	1.392525	-0.068104
C132	C	0.257027	1.345713	-0.114757
C133	C	0.305303	1.262090	-0.110656
C134	C	0.615355	1.233557	-0.386927
C135	C	0.620337	1.308971	-0.470528
C136	C	0.592947	1.341685	-0.561039
C137	C	0.560578	1.298973	-0.567947
C138	C	0.555600	1.223555	-0.484346
H139	H	0.609510	0.506019	-0.113436
H140	H	0.300615	1.223981	-0.148640
H141	H	0.239066	1.403207	-0.629180
H142	H	0.527255	0.345041	0.543823
C143	C	0.497166	1.112562	-0.825439
N144	N	0.476107	1.189872	-0.902879
C145	C	0.342730	1.335030	-0.667558
N146	N	0.350652	1.362128	-0.742551
C147	C	-0.073677	1.175986	-0.209137
N148	N	-0.116785	1.256692	-0.253636
C149	C	0.699732	0.516539	-0.127929
N150	N	0.654977	0.547030	-0.169991
H151	H	0.646693	1.343740	-0.464884
C152	C	0.914555	0.263650	-0.012772
N153	N	0.954548	0.194364	-0.009384
H154	H	0.637661	1.206934	-0.313236
C155	C	0.482253	0.537610	0.076550
N156	N	0.456367	0.576410	0.115188
C157	C	0.821715	0.550489	0.202106
N158	N	0.829662	0.577582	0.127130
C159	C	0.918422	0.392101	0.377663
N160	N	0.964512	0.356703	0.371936
H161	H	0.529241	1.188793	-0.489987
C162	C	0.439457	1.176598	-0.491981
N163	N	0.485546	1.141193	-0.497709
C164	C	0.598427	1.424650	-0.652993
N165	N	0.602555	1.487141	-0.722251
C166	C	0.468305	0.392127	0.377677
N167	N	0.441498	0.356706	0.371993
H168	H	0.885162	0.344973	0.543840
H169	H	0.802741	0.354345	-0.106007
H170	H	0.409057	1.242113	0.028081
C171	C	0.033448	1.175988	-0.209146
N172	N	0.032596	1.256692	-0.253656
H173	H	0.784232	0.422476	0.556356
H174	H	0.600666	0.732516	-0.603868
C175	C	0.641972	0.210530	-0.161890
N176	N	0.667855	0.171747	-0.200543
H177	H	0.700667	0.559316	0.404671
C178	C	0.298952	0.669542	0.070113
N179	N	0.299810	0.588833	0.114616
C180	C	0.302512	1.197658	-0.287443
N181	N	0.294566	1.170584	-0.212468
H182	H	0.638013	0.375588	-0.155982
C183	C	0.593808	0.413214	0.582155
N184	N	0.616518	0.386127	0.657130
C185	C	0.205805	1.356057	-0.463001
N186	N	0.159715	1.391448	-0.457274
H187	H	0.823612	0.524151	0.063299
C188	C	0.604232	0.571580	0.406585
N189	N	0.631044	0.606977	0.412309
C190	C	0.492491	1.129741	-0.658456
N191	N	0.469592	1.213827	-0.670018
H192	H	0.486217	0.372527	0.070643
H193	H	0.911194	0.372459	0.070704
H194	H	0.486562	0.541164	0.227933
C195	C	0.631731	0.618394	-0.426893
N196	N	0.654622	0.534312	-0.415340
H197	H	0.321487	1.393811	0.020639
H198	H	0.202383	1.050785	-0.140151
C199	C	0.197918	0.572141	0.123848
N200	N	0.241026	0.491438	0.168361
H201	H	0.213034	1.375701	-0.156075
C202	C	0.209673	1.484510	-0.072600
N203	N	0.169680	1.553790	-0.075980
H204	H	0.538278	1.325620	-0.641652
H205	H	0.514725	0.242086	0.028104
H206	H	0.391202	0.697398	0.054736
H207	H	0.090506	0.599964	0.108512
H208	H	-0.078156	0.697333	0.054822
H209	H	-0.170719	0.697332	0.054816
H210	H	0.619792	0.662233	-0.286600
H211	H	-0.266967	1.050725	-0.140085
C212	C	-0.174716	1.078574	-0.155442
N213	N	-0.175572	1.159280	-0.199961
H214	H	0.523562	1.015624	-0.481490
H215	H	0.294947	1.050788	-0.140155
