data_functionalizedCrystal
_audit_creation_method	'MofGen! by Chris Wilmer'
_symmetry_space_group_name_H-M	'P1'
_symmetry_Int_Tables_number	1
_symmetry_cell_setting	triclinic
loop_
_symmetry_equiv_pos_as_xyz
  x,y,z
_cell_length_a	10.489746
_cell_length_b	10.489716
_cell_length_c	8.965430
_cell_angle_alpha	90.004464
_cell_angle_beta	89.999075
_cell_angle_gamma	84.535218
loop_
_atom_site_label
_atom_site_type_symbol
_atom_site_fract_x
_atom_site_fract_y
_atom_site_fract_z
O1	O	1.694034	0.179992	-0.123924
O2	O	1.322837	0.196878	-0.123948
O3	O	1.516898	0.002835	-0.123941
O4	O	1.499973	0.374035	-0.123931
O5	O	1.516882	0.002848	0.124138
O6	O	1.322821	0.196891	0.124131
O7	O	1.694017	0.180005	0.124154
Cu8	Cu	1.508418	0.188449	0.146794
Cu9	Cu	1.508437	0.188434	-0.146588
O10	O	1.499956	0.374048	0.124147
C11	C	1.275298	0.195608	0.000088
C12	C	1.133669	0.191788	0.000079
C13	C	0.980822	0.066063	0.000096
C14	C	1.058202	0.128927	0.122410
C15	C	1.058174	0.128943	-0.122177
C16	C	0.958700	0.247910	0.122529
C17	C	0.958667	0.247909	-0.122167
C18	C	1.035998	0.310860	0.000176
C19	C	1.515618	-0.044690	0.000094
C20	C	1.511814	-0.186322	0.000080
C21	C	1.630818	-0.283993	0.000101
C22	C	1.567941	-0.361361	-0.122215
C23	C	1.567898	-0.361313	0.122371
C24	C	1.448987	-0.261824	-0.122337
C25	C	1.448961	-0.261770	0.122359
C26	C	1.385997	-0.339089	0.000013
C27	C	1.741557	0.181275	0.000115
C28	C	1.883186	0.185095	0.000115
C29	C	1.501236	0.421573	0.000109
C30	C	1.505041	0.563204	0.000113
N31	N	1.508413	0.188459	0.353143
N32	N	1.508451	0.188414	-0.352937
C33	C	1.418639	0.278167	0.450446
C34	C	1.534133	0.303981	0.549868
C35	C	1.392968	0.162657	0.549849
C36	C	1.623966	0.214330	0.450377
C37	C	1.482725	0.072956	0.450348
C38	C	1.598302	0.098721	0.549726
H39	H	0.915410	0.298130	0.226055
H40	H	1.060465	0.414440	0.000246
C41	C	1.453285	-0.058934	0.391236
N42	N	1.431096	-0.158272	0.346709
H43	H	1.618153	-0.404779	0.225777
H44	H	1.398761	-0.218248	0.225768
C45	C	0.899892	0.315719	-0.261872
N46	N	0.855619	0.366783	-0.367111
H47	H	0.956111	-0.037440	0.000217
H48	H	1.674321	0.022834	0.593044
C49	C	1.246052	-0.372103	-0.000083
N50	N	1.140646	-0.396971	-0.000162
C51	C	1.316178	0.380749	0.391537
N52	N	1.239012	0.458016	0.347162
C53	C	1.563513	0.435910	0.608940
N54	N	1.585632	0.535282	0.653432
C55	C	1.755911	0.243951	0.391601
N56	N	1.855288	0.266267	0.347328
H57	H	1.295322	0.140854	0.593547
C58	C	1.770657	-0.250648	-0.000056
N59	N	1.875981	-0.225530	-0.000181
H60	H	1.101676	0.078683	0.225817
C61	C	1.116874	0.061025	-0.261882
N62	N	1.161081	0.009860	-0.367103
C63	C	1.381181	-0.203338	-0.262205
N64	N	1.330117	-0.159283	-0.367554
C65	C	1.635819	-0.420140	-0.261903
N66	N	1.686954	-0.464412	-0.367109
