data_functionalizedCrystal
_audit_creation_method	'MofGen! by Chris Wilmer'
_symmetry_space_group_name_H-M	'P1'
_symmetry_Int_Tables_number	1
_symmetry_cell_setting	triclinic
loop_
_symmetry_equiv_pos_as_xyz
  x,y,z
_cell_length_a	19.188933
_cell_length_b	19.188930
_cell_length_c	9.130313
_cell_angle_alpha	89.990995
_cell_angle_beta	89.998637
_cell_angle_gamma	83.145175
loop_
_atom_site_label
_atom_site_type_symbol
_atom_site_fract_x
_atom_site_fract_y
_atom_site_fract_z
O1	O	0.926142	0.087173	-0.121767
O2	O	0.722831	0.098906	-0.121783
O3	O	0.830354	-0.008616	-0.121746
O4	O	0.818620	0.194695	-0.121804
O5	O	0.830348	-0.008618	0.121853
O6	O	0.722825	0.098904	0.121816
O7	O	0.926136	0.087171	0.121832
Cu8	Cu	0.824480	0.093038	0.144067
Cu9	Cu	0.824487	0.093040	-0.144017
O10	O	0.818614	0.194693	0.121795
C11	C	0.696817	0.098525	0.000015
C12	C	0.619313	0.097384	0.000010
C13	C	0.066061	0.089240	-0.132757
C14	C	0.138885	0.090308	-0.132763
C15	C	0.175299	0.090844	0.000022
C16	C	0.138884	0.090294	0.132823
C17	C	0.066063	0.089219	0.132825
N18	N	0.284316	0.132262	0.098848
N19	N	0.353494	0.133285	0.098837
C20	C	0.394707	0.094082	0.000023
N21	N	0.364129	0.053827	-0.098801
N22	N	0.294944	0.052807	-0.098794
C23	C	0.254262	0.092009	0.000034
C24	C	0.510078	0.095785	-0.132776
C25	C	0.582904	0.096849	-0.132776
C26	C	0.582901	0.096842	0.132814
C27	C	0.510077	0.095771	0.132810
C28	C	0.473669	0.095246	0.000012
C29	C	0.829971	-0.034628	0.000058
C30	C	0.828830	-0.112132	0.000070
C31	C	0.891921	-0.157056	0.000082
C32	C	0.890849	-0.229880	0.000059
C33	C	0.826683	-0.257777	0.000053
C34	C	0.763584	-0.212843	0.000032
C35	C	0.764658	-0.140021	0.000041
N36	N	0.777634	-0.365783	0.082950
N37	N	0.776619	-0.434961	0.082945
C38	C	0.823445	-0.477185	0.000023
N39	N	0.871336	-0.447619	-0.082875
N40	N	0.872354	-0.378434	-0.082864
C41	C	0.825512	-0.336739	0.000042
C42	C	0.885378	-0.601073	0.000007
C43	C	0.884304	-0.673898	-0.000026
C44	C	0.757037	-0.656860	-0.000037
C45	C	0.758113	-0.584037	-0.000019
C46	C	0.822286	-0.556148	0.000010
C47	C	0.952150	0.087553	0.000031
C48	C	1.029655	0.088694	0.000026
C49	C	0.818997	0.220705	-0.000012
C50	C	0.820137	0.298210	-0.000034
N51	N	0.824480	0.093036	0.346689
N52	N	0.824493	0.093036	-0.346640
C53	C	0.872110	0.045442	0.576704
C54	C	0.872106	0.045443	0.423367
C55	C	0.776860	0.140635	0.423356
C56	C	0.776868	0.140637	0.576690
H57	H	0.168537	0.090730	0.240937
Br58	Br	0.016651	0.088479	0.313045
Br59	Br	0.979012	-0.119210	0.000081
Br60	Br	0.969935	-0.734869	-0.000025
H61	H	0.937631	-0.578365	0.000024
Br62	Br	0.936744	-0.019156	0.680751
H63	H	0.738085	0.179389	0.360916
Br64	Br	0.976478	-0.290859	0.000068
H65	H	0.612549	0.097276	0.240930
H66	H	0.713280	-0.103444	0.000032
H67	H	0.480433	0.095355	-0.240908
H68	H	0.612545	0.097288	-0.240909
Br69	Br	0.460664	0.095040	0.313027
H70	H	0.910882	0.006689	0.360958
Br71	Br	0.712245	0.205238	0.680735
Br72	Br	0.676501	-0.250701	0.000006
Br73	Br	0.669953	-0.694712	-0.000060
H74	H	0.706738	-0.547459	-0.000021
H75	H	0.168532	0.090756	-0.240895
Br76	Br	0.016653	0.088523	-0.312983
