data_functionalizedCrystal
_audit_creation_method	'MofGen! by Chris Wilmer'
_symmetry_space_group_name_H-M	'P1'
_symmetry_Int_Tables_number	1
_symmetry_cell_setting	triclinic
loop_
_symmetry_equiv_pos_as_xyz
  x,y,z
_cell_length_a	14.853569
_cell_length_b	13.930277
_cell_length_c	10.654550
_cell_angle_alpha	89.996642
_cell_angle_beta	95.939766
_cell_angle_gamma	90.005244
loop_
_atom_site_label
_atom_site_type_symbol
_atom_site_fract_x
_atom_site_fract_y
_atom_site_fract_z
O1	O	1.197245	0.079784	-0.163969
O2	O	0.934891	0.079796	-0.183499
O3	O	1.072100	0.079786	0.009068
O4	O	1.060036	0.079794	-0.356536
O5	O	1.072081	-0.079876	0.009072
O6	O	0.934871	-0.079866	-0.183495
O7	O	1.197226	-0.079877	-0.163965
Zn8	Zn	1.066046	-0.105222	-0.173729
Zn9	Zn	1.066071	0.105140	-0.173735
O10	O	1.060017	-0.079868	-0.356532
C11	C	0.901288	-0.000034	-0.182612
C12	C	0.801190	-0.000029	-0.179959
N13	N	1.066035	-0.248788	-0.173725
C14	C	0.764194	-0.000029	-0.064325
C15	C	0.744129	-0.000034	-0.293100
C16	C	0.650082	-0.000036	-0.290612
C17	C	0.613086	-0.000035	-0.174978
C18	C	0.670138	-0.000033	-0.061833
C19	C	0.593023	-0.000048	-0.403754
C20	C	0.498969	-0.000050	-0.401270
C21	C	0.461972	-0.000042	-0.285635
C22	C	0.519030	-0.000039	-0.172486
C23	C	0.482035	-0.000038	-0.056853
C24	C	0.539091	-0.000028	0.056298
C25	C	0.633141	-0.000025	0.053802
C26	C	0.367923	-0.000045	-0.283139
C27	C	0.387979	-0.000042	-0.054360
C28	C	1.005312	-0.701053	-0.258970
C29	C	1.126855	-0.701031	-0.088490
C30	C	1.126844	-0.600535	-0.088486
C31	C	1.066067	-0.550293	-0.173726
C32	C	1.005301	-0.600548	-0.258971
C33	C	1.187615	-0.550273	-0.003252
C34	C	1.187607	-0.449771	-0.003245
C35	C	1.126826	-0.399528	-0.088481
C36	C	1.066056	-0.449788	-0.173728
C37	C	1.005280	-0.399547	-0.258968
C38	C	0.944506	-0.449806	-0.344210
C39	C	0.944520	-0.550305	-0.344206
C40	C	1.126812	-0.299029	-0.088484
C41	C	1.005269	-0.299042	-0.258969
C42	C	1.230829	-0.000046	-0.164852
C43	C	1.330927	-0.000044	-0.167505
C44	C	1.071205	-0.000044	0.055859
C45	C	1.068554	-0.000040	0.195274
N46	N	1.066089	0.248706	-0.173729
C47	C	1.060912	-0.000036	-0.403323
C48	C	1.063562	-0.000033	-0.542738
C49	C	1.149341	-0.000046	0.275599
C50	C	1.146845	-0.000040	0.406594
C51	C	0.982769	-0.000024	0.376927
C52	C	0.985266	-0.000024	0.245935
C53	C	1.244069	-0.000060	0.292728
C54	C	1.241574	-0.000053	0.423723
H55	H	0.508957	-0.000021	0.150447
H56	H	1.277258	-0.066871	0.465855
N57	N	0.898134	-0.000010	0.159295
H58	H	0.895527	0.059180	0.104286
H59	H	0.845045	-0.000037	0.211355
H60	H	0.357865	-0.000036	0.039803
H61	H	1.237092	-0.408857	0.066164
H62	H	0.914959	-0.000010	0.418191
N63	N	0.694684	-0.000027	0.175828
H64	H	0.682695	-0.059214	0.226273
H65	H	0.682683	0.059199	0.226170
H66	H	0.810653	-0.000016	0.027799
N67	N	1.279527	0.091248	0.484582
H68	H	1.243033	0.147912	0.448719
H69	H	1.344669	0.098986	0.467070
H70	H	1.274226	-0.069000	0.257416
H71	H	0.774257	-0.000042	-0.387244
N72	N	1.253158	-0.604475	0.088669
H73	H	1.218358	-0.646178	0.144357
H74	H	1.291647	-0.557340	0.142589
H75	H	1.176342	-0.741940	-0.019096
N76	N	0.632923	-0.000054	-0.528466
H77	H	0.701161	-0.000044	-0.512872
H78	H	0.612103	0.059131	-0.577989
N79	N	1.192358	-0.244820	0.003433
H80	H	1.230865	-0.291898	0.057427
H81	H	1.157499	-0.203134	0.059048
H82	H	1.281129	0.066752	0.263752
N83	N	0.437461	-0.000104	-0.523327
H84	H	0.449443	0.059066	-0.573807
H85	H	0.372283	-0.000156	-0.504142
N86	N	0.306393	-0.000056	-0.405171
H87	H	0.266927	0.059130	-0.409251
H88	H	0.266979	-0.059282	-0.409154
H89	H	0.955774	-0.258141	-0.328378
H90	H	0.895025	-0.408888	-0.413619
H91	H	0.895040	-0.591231	-0.413608
H92	H	0.955828	-0.741976	-0.328369
