data_functionalizedCrystal
_audit_creation_method	'MofGen! by Chris Wilmer'
_symmetry_space_group_name_H-M	'P1'
_symmetry_Int_Tables_number	1
_symmetry_cell_setting	triclinic
loop_
_symmetry_equiv_pos_as_xyz
  x,y,z
_cell_length_a	14.853558
_cell_length_b	10.654550
_cell_length_c	9.130313
_cell_angle_alpha	90.000110
_cell_angle_beta	90.000288
_cell_angle_gamma	95.941982
loop_
_atom_site_label
_atom_site_type_symbol
_atom_site_fract_x
_atom_site_fract_y
_atom_site_fract_z
O1	O	1.197242	-0.163900	-0.121778
O2	O	0.934886	-0.183444	-0.121784
O3	O	1.072096	0.009131	-0.121775
O4	O	1.060032	-0.356474	-0.121786
O5	O	1.072095	0.009125	0.121824
O6	O	0.934885	-0.183449	0.121815
O7	O	1.197241	-0.163905	0.121821
Cu8	Cu	1.066062	-0.173677	0.144061
Cu9	Cu	1.066064	-0.173671	-0.144023
O10	O	1.060030	-0.356479	0.121812
C11	C	0.901292	-0.182563	0.000015
C12	C	0.801194	-0.179915	0.000012
C13	C	0.754168	-0.178671	-0.132779
C14	C	0.754164	-0.178662	0.132802
C15	C	0.660117	-0.176168	0.132804
C16	C	0.613091	-0.174923	0.000013
C17	C	0.660112	-0.176173	-0.132781
C18	C	0.613090	-0.174905	0.265595
C19	C	0.519037	-0.172409	0.265603
C20	C	0.472009	-0.171174	0.132810
C21	C	0.519036	-0.172425	0.000011
C22	C	0.472010	-0.171181	-0.132780
C23	C	0.519034	-0.172441	-0.265581
C24	C	0.613084	-0.174938	-0.265574
C25	C	0.377959	-0.168678	0.132803
C26	C	0.377954	-0.168683	-0.132781
C27	C	1.071210	0.055917	0.000022
C28	C	1.068559	0.195332	0.000017
C29	C	1.230835	-0.164786	0.000019
C30	C	1.330933	-0.167433	0.000012
C31	C	1.060917	-0.403265	0.000012
C32	C	1.063567	-0.542681	0.000007
N33	N	1.066068	-0.173681	0.346683
C34	C	1.149347	0.275661	0.000024
C35	C	1.146851	0.406656	0.000013
C36	C	0.982774	0.376980	-0.000004
C37	C	0.985271	0.245988	-0.000004
C38	C	1.232635	0.225005	0.000045
C39	C	1.313429	0.305335	0.000053
C40	C	1.310934	0.436330	0.000042
C41	C	1.227644	0.486995	0.000024
N42	N	1.066066	-0.173658	-0.346646
C43	C	1.126840	-0.088438	0.423339
C44	C	1.126837	-0.088423	0.576676
C45	C	1.005287	-0.258905	0.576687
C46	C	1.005286	-0.258913	0.423353
C47	C	1.187621	-0.003206	0.346669
C48	C	1.248399	0.082043	0.423325
C49	C	1.248397	0.082058	0.576662
C50	C	1.187616	-0.003176	0.653342
H51	H	0.792459	-0.179665	0.240914
F52	F	1.224992	0.626414	0.000061
H53	H	0.955799	-0.328324	0.360940
F54	F	0.804213	-0.180014	-0.274108
F55	F	0.899288	0.160492	-0.000011
H56	H	0.955803	-0.328300	0.639131
H57	H	0.339672	-0.167677	-0.240918
F58	F	0.468977	-0.171092	-0.406902
F59	F	1.187631	-0.003220	0.183475
F60	F	0.468998	-0.171081	0.406939
F61	F	0.663142	-0.176231	0.406911
H62	H	1.376720	0.501732	0.000034
F63	F	1.313073	0.172794	0.658242
F64	F	0.663137	-0.176266	-0.406896
H65	H	1.234677	0.118345	0.000058
F66	F	0.327918	-0.167319	0.274129
H67	H	1.381240	0.264075	0.000031
H68	H	0.914964	0.418242	-0.000016
F69	F	1.187611	-0.003143	0.816539
F70	F	1.313076	0.172759	0.341715
