data_functionalizedCrystal
_audit_creation_method	'MofGen! by Chris Wilmer'
_symmetry_space_group_name_H-M	'P1'
_symmetry_Int_Tables_number	1
_symmetry_cell_setting	triclinic
loop_
_symmetry_equiv_pos_as_xyz
  x,y,z
_cell_length_a	23.532407
_cell_length_b	27.731996
_cell_length_c	22.610064
_cell_angle_alpha	89.998076
_cell_angle_beta	89.997161
_cell_angle_gamma	82.735033
loop_
_atom_site_label
_atom_site_type_symbol
_atom_site_fract_x
_atom_site_fract_y
_atom_site_fract_z
O1	O	0.755125	0.058674	-0.049118
O2	O	1.088459	0.392007	0.284215
O3	O	1.421792	0.725340	0.617548
O4	O	0.589242	0.067164	-0.049137
O5	O	0.922575	0.400497	0.284197
O6	O	1.255909	0.733831	0.617530
O7	O	0.677351	-0.007472	-0.049114
O8	O	1.010684	0.325862	0.284219
O9	O	1.344018	0.659195	0.617552
O10	O	0.667016	0.133309	-0.049141
O11	O	1.000349	0.466643	0.284192
O12	O	1.333683	0.799976	0.617526
O13	O	0.677335	-0.007461	0.049255
O14	O	1.010669	0.325872	0.382588
O15	O	1.344002	0.659206	0.715922
O16	O	0.589226	0.067175	0.049232
O17	O	0.922560	0.400508	0.382566
O18	O	1.255893	0.733842	0.715899
O19	O	0.755110	0.058684	0.049251
O20	O	1.088443	0.392018	0.382584
O21	O	1.421776	0.725351	0.715918
Zn22	Zn	0.672166	0.062931	0.064860
Zn23	Zn	1.005499	0.396265	0.398193
Zn24	Zn	1.338832	0.729598	0.731527
Zn25	Zn	0.672186	0.062917	-0.064746
Zn26	Zn	1.005519	0.396250	0.268588
Zn27	Zn	1.338853	0.729584	0.601921
O28	O	0.667001	0.133320	0.049228
O29	O	1.000334	0.466654	0.382562
O30	O	1.333667	0.799987	0.715895
C31	C	0.568019	0.066953	0.000046
C32	C	0.901352	0.400287	0.333379
C33	C	1.234685	0.733620	0.666712
C34	C	0.504803	0.066303	0.000039
C35	C	0.838136	0.399637	0.333373
C36	C	1.171470	0.732970	0.666706
C37	C	0.677131	-0.025474	0.000072
C38	C	1.010464	0.307859	0.333406
C39	C	1.343798	0.641193	0.666739
C40	C	0.676491	-0.079131	0.000078
C41	C	1.009825	0.254202	0.333412
C42	C	1.343158	0.587535	0.666745
C43	C	0.105606	0.106394	0.000058
C44	C	0.438939	0.439727	0.333392
C45	C	0.772272	0.773061	0.666725
C46	C	0.046207	0.105790	0.000062
C47	C	0.379540	0.439123	0.333395
C48	C	0.712873	0.772457	0.666729
O49	O	0.009375	0.142955	0.000077
O50	O	0.342708	0.476288	0.333410
O51	O	0.676041	0.809621	0.666743
N52	N	0.023685	0.061419	0.000070
N53	N	0.357018	0.394752	0.333403
N54	N	0.690352	0.728086	0.666736
C55	C	0.060566	0.017649	0.000079
C56	C	0.393899	0.350982	0.333413
C57	C	0.727233	0.684316	0.666746
O58	O	0.035955	-0.020147	0.000086
O59	O	0.369289	0.313186	0.333420
O60	O	0.702622	0.646519	0.666753
C61	C	0.119963	0.018253	0.000080
C62	C	0.453297	0.351587	0.333413
C63	C	0.786630	0.684920	0.666746
C64	C	0.142482	0.062627	0.000066
C65	C	0.475815	0.395961	0.333400
C66	C	0.809148	0.729294	0.666733
C67	C	0.128124	0.150764	0.000046
C68	C	0.461458	0.484098	0.333379
C69	C	0.794791	0.817431	0.666712
C70	C	0.187519	0.151368	0.000041
C71	C	0.520852	0.484701	0.333374
C72	C	0.854186	0.818035	0.666707
C73	C	0.224395	0.107601	0.000049
C74	C	0.557728	0.440935	0.333382
C75	C	0.891062	0.774268	0.666715
C76	C	0.201876	0.063231	0.000061
C77	C	0.535210	0.396564	0.333395
C78	C	0.868543	0.729898	0.666728
C79	C	0.156843	-0.025516	0.000094
C80	C	0.490176	0.307817	0.333427
C81	C	0.823510	0.641151	0.666760
C82	C	0.216244	-0.024908	0.000095
C83	C	0.549577	0.308426	0.333428
C84	C	0.882911	0.641759	0.666761
C85	C	0.238762	0.019466	0.000081
C86	C	0.572096	0.352799	0.333415
C87	C	0.905429	0.686133	0.666748
C88	C	0.298147	0.020068	0.000065
C89	C	0.631480	0.353401	0.333398
C90	C	0.964814	0.686735	0.666731
N91	N	0.320669	0.064439	0.000057
N92	N	0.654002	0.397772	0.333390
N93	N	0.987335	0.731106	0.666724
C94	C	0.283793	0.108206	0.000049
C95	C	0.617126	0.441539	0.333383
C96	C	0.950459	0.774872	0.666716
C97	C	-0.064174	0.016383	0.000079
C98	C	0.269160	0.349717	0.333413
C99	C	0.602493	0.683050	0.666746
C100	C	-0.123570	0.015778	0.000075
C101	C	0.209763	0.349112	0.333408
C102	C	0.543096	0.682445	0.666741
C103	C	-0.137925	0.103920	0.000058
C104	C	0.195408	0.437253	0.333392
C105	C	0.528741	0.770586	0.666725
C106	C	-0.078528	0.104524	0.000059
C107	C	0.254806	0.437857	0.333392
C108	C	0.588139	0.771191	0.666726
C109	C	-0.041652	0.060754	0.000072
C110	C	0.291681	0.394088	0.333405
C111	C	0.625015	0.727421	0.666738
C112	C	0.408526	0.109470	0.000039
C113	C	0.741860	0.442803	0.333372
C114	C	1.075193	0.776137	0.666705
C115	C	0.467927	0.110070	0.000031
C116	C	0.801260	0.443403	0.333365
C117	C	1.134594	0.776737	0.666698
C118	C	0.482277	0.021929	0.000050
C119	C	0.815610	0.355262	0.333384
C120	C	1.148944	0.688596	0.666717
C121	C	0.422881	0.021329	0.000055
C122	C	0.756215	0.354662	0.333388
C123	C	1.089548	0.687996	0.666721
C124	C	0.386007	0.065103	0.000051
C125	C	0.719340	0.398437	0.333384
C126	C	1.052674	0.731770	0.666717
O127	O	0.335014	-0.017077	0.000053
O128	O	0.668347	0.316256	0.333386
O129	O	1.001680	0.649590	0.666719
O130	O	0.308412	0.145996	0.000050
O131	O	0.641745	0.479329	0.333383
O132	O	0.975078	0.812663	0.666716
C133	C	0.672477	-0.411860	-0.053572
C134	C	1.005810	-0.078526	0.279761
C135	C	1.339143	0.254807	0.613095
C136	C	0.670048	-0.613522	-0.053583
C137	C	1.003382	-0.280188	0.279751
C138	C	1.336715	0.053145	0.613084
O139	O	0.669717	-0.639598	-0.099186
O140	O	1.003051	-0.306265	0.234148
O141	O	1.336384	0.027069	0.567481
N142	N	0.669738	-0.638733	0.000038
N143	N	1.003072	-0.305400	0.333371
N144	N	1.336405	0.027933	0.666704
C145	C	0.670032	-0.613526	0.053665
C146	C	1.003365	-0.280193	0.386998
C147	C	1.336698	0.053141	0.720331
O148	O	0.669706	-0.639597	0.099272
O149	O	1.003040	-0.306263	0.432605
O150	O	1.336373	0.027070	0.765939
C151	C	0.672456	-0.411864	0.053675
C152	C	1.005789	-0.078531	0.387008
C153	C	1.339123	0.254802	0.720341
C154	C	0.672772	-0.386656	0.000051
C155	C	1.006105	-0.053323	0.333384
C156	C	1.339438	0.280011	0.666717
C157	C	0.672792	-0.386651	-0.107192
C158	C	1.006125	-0.053318	0.226142
C159	C	1.339459	0.280015	0.559475
C160	C	0.673402	-0.336239	-0.107188
C161	C	1.006735	-0.002906	0.226145
C162	C	1.340069	0.330428	0.559478
C163	C	0.673697	-0.311036	-0.053566
C164	C	1.007030	0.022298	0.279768
C165	C	1.340364	0.355631	0.613101
C166	C	0.673382	-0.336244	0.000054
C167	C	1.006715	-0.002911	0.333387
C168	C	1.340049	0.330423	0.666721
C169	C	0.672745	-0.386658	0.107301
C170	C	1.006078	-0.053324	0.440635
C171	C	1.339412	0.280009	0.773968
C172	C	0.673350	-0.336239	0.107299
C173	C	1.006683	-0.002905	0.440632
C174	C	1.340016	0.330428	0.773966
C175	C	0.673665	-0.311030	0.053675
C176	C	1.006999	0.022303	0.387008
C177	C	1.340332	0.355636	0.720342
C178	C	0.674287	-0.260628	0.053680
C179	C	1.007620	0.072705	0.387013
C180	C	1.340954	0.406038	0.720347
N181	N	0.674597	-0.235417	0.000060
N182	N	1.007930	0.097917	0.333393
N183	N	1.341264	0.431250	0.666726
C184	C	0.674302	-0.260620	-0.053563
C185	C	1.007635	0.072713	0.279770
C186	C	1.340969	0.406046	0.613103
C187	C	0.668760	-0.719401	0.053656
C188	C	1.002093	-0.386068	0.386989
C189	C	1.335427	-0.052735	0.720322
C190	C	0.668155	-0.769817	0.053653
C191	C	1.001488	-0.436483	0.386987
C192	C	1.334822	-0.103150	0.720320
C193	C	0.668171	-0.769809	-0.053594
C194	C	1.001504	-0.436475	0.279739
C195	C	1.334838	-0.103142	0.613072
C196	C	0.668780	-0.719393	-0.053591
C197	C	1.002113	-0.386060	0.279742
C198	C	1.335447	-0.052726	0.613075
C199	C	0.669070	-0.694190	0.000035
C200	C	1.002403	-0.360856	0.333369
C201	C	1.335737	-0.027523	0.666702
C202	C	0.675584	-0.154751	-0.053552
C203	C	1.008917	0.178582	0.279781
C204	C	1.342251	0.511915	0.613114
C205	C	0.676197	-0.104335	-0.053545
C206	C	1.009530	0.228998	0.279789
C207	C	1.342863	0.562332	0.613122
C208	C	0.676178	-0.104347	0.053703
C209	C	1.009511	0.228986	0.387036
C210	C	1.342844	0.562320	0.720369
C211	C	0.675568	-0.154759	0.053695
C212	C	1.008902	0.178574	0.387029
C213	C	1.342235	0.511908	0.720362
C214	C	0.675269	-0.179960	0.000063
C215	C	1.008603	0.153373	0.333396
C216	C	1.341936	0.486707	0.666729
O217	O	0.674612	-0.234520	0.099259
O218	O	1.007945	0.098813	0.432593
O219	O	1.341279	0.432146	0.765926
O220	O	0.674615	-0.234539	-0.099164
O221	O	1.007948	0.098794	0.234170
O222	O	1.341281	0.432127	0.567503
C223	C	0.671867	-0.462272	-0.053575
C224	C	1.005200	-0.128939	0.279758
C225	C	1.338533	0.204395	0.613091
C226	C	0.671551	-0.487480	0.000044
C227	C	1.004885	-0.154147	0.333378
C228	C	1.338218	0.179186	0.666711
C229	C	0.671846	-0.462277	0.053667
C230	C	1.005180	-0.128943	0.387001
C231	C	1.338513	0.204390	0.720334
C232	C	0.670946	-0.537896	0.000042
C233	C	1.004280	-0.204562	0.333375
C234	C	1.337613	0.128771	0.666709
C235	C	0.670651	-0.563099	-0.053581
C236	C	1.003985	-0.229766	0.279753
C237	C	1.337318	0.103567	0.613086
C238	C	0.670961	-0.537888	-0.107201
C239	C	1.004295	-0.204554	0.226132
C240	C	1.337628	0.128779	0.559465
C241	C	0.671572	-0.487475	-0.107198
C242	C	1.004905	-0.154142	0.226135
C243	C	1.338238	0.179191	0.559469
C244	C	0.671536	-0.487488	0.107288
C245	C	1.004870	-0.154155	0.440621
C246	C	1.338203	0.179178	0.773954
C247	C	0.670927	-0.537901	0.107280
C248	C	1.004260	-0.204567	0.440613
C249	C	1.337593	0.128766	0.773947
C250	C	0.670632	-0.563104	0.053657
C251	C	1.003965	-0.229771	0.386991
C252	C	1.337298	0.103562	0.720324
C253	C	0.776333	0.058895	0.000067
C254	C	1.109666	0.392229	0.333400
C255	C	1.443000	0.725562	0.666734
C256	C	0.839549	0.059545	0.000070
C257	C	1.172882	0.392879	0.333403
C258	C	1.506215	0.726212	0.666736
C259	C	0.667221	0.151323	0.000040
C260	C	1.000554	0.484656	0.333374
C261	C	1.333887	0.817989	0.666707
C262	C	0.667860	0.204980	0.000031
C263	C	1.001193	0.538313	0.333364
C264	C	1.334527	0.871646	0.666697
N265	N	0.672156	0.062941	0.153312
N266	N	1.005489	0.396274	0.486646
N267	N	1.338822	0.729608	0.819979
N268	N	0.672200	0.062904	-0.153198
N269	N	1.005534	0.396237	0.180135
N270	N	1.338867	0.729570	0.513468
C271	C	0.711202	0.029873	0.561964
C272	C	1.044536	0.363207	0.895297
C273	C	1.377869	0.696540	1.228630
C274	C	0.711205	0.029870	0.623884
C275	C	1.044539	0.363203	0.957217
C276	C	1.377872	0.696536	1.290550
O277	O	0.744380	0.001762	0.655911
O278	O	1.077713	0.335095	0.989244
O279	O	1.411047	0.668428	1.322578
N280	N	0.672186	0.062907	0.654849
N281	N	1.005519	0.396240	0.988183
N282	N	1.338852	0.729574	1.321516
C283	C	0.633157	0.095947	0.623892
C284	C	0.966490	0.429280	0.957226
C285	C	1.299823	0.762613	1.290559
O286	O	0.599967	0.124047	0.655917
O287	O	0.933301	0.457380	0.989250
O288	O	1.266634	0.790713	1.322583
C289	C	0.633151	0.095947	0.561973
C290	C	0.966485	0.429281	0.895307
C291	C	1.299818	0.762614	1.228640
C292	C	0.672178	0.062911	0.531011
C293	C	1.005511	0.396245	0.864344
C294	C	1.338844	0.729578	1.197677
C295	C	0.750225	-0.003160	0.531001
C296	C	1.083558	0.330173	0.864334
C297	C	1.416892	0.663506	1.197668
C298	C	0.750223	-0.003156	0.469085
C299	C	1.083556	0.330177	0.802419
C300	C	1.416889	0.663510	1.135752
C301	C	0.711198	0.029882	0.438132
C302	C	1.044531	0.363215	0.771466
C303	C	1.377864	0.696548	1.104799
C304	C	0.672175	0.062916	0.469095
C305	C	1.005509	0.396249	0.802428
C306	C	1.338842	0.729582	1.135762
C307	C	0.594120	0.128984	0.531017
C308	C	0.927453	0.462318	0.864351
C309	C	1.260787	0.795651	1.197684
C310	C	0.594118	0.128982	0.469094
C311	C	0.927451	0.462315	0.802428
C312	C	1.260785	0.795649	1.135761
C313	C	0.633144	0.095946	0.438132
C314	C	0.966477	0.429279	0.771465
C315	C	1.299811	0.762613	1.104798
C316	C	0.633148	0.095958	0.376227
C317	C	0.966481	0.429291	0.709560
C318	C	1.299815	0.762625	1.042893
N319	N	0.672168	0.062921	0.345261
N320	N	1.005501	0.396254	0.678594
N321	N	1.338834	0.729587	1.011927
C322	C	0.711193	0.029883	0.376214
C323	C	1.044526	0.363216	0.709547
C324	C	1.377859	0.696549	1.042880
C325	C	0.633170	0.095942	0.753926
C326	C	0.966503	0.429275	1.087259
C327	C	1.299836	0.762608	1.420592
C328	C	0.633177	0.095944	0.815843
C329	C	0.966511	0.429277	1.149177
C330	C	1.299844	0.762610	1.482510
C331	C	0.711225	0.029866	0.815831
C332	C	1.044559	0.363199	1.149164
C333	C	1.377892	0.696533	1.482497
C334	C	0.711220	0.029867	0.753912
C335	C	1.044554	0.363200	1.087245
C336	C	1.377887	0.696534	1.420578
C337	C	0.672190	0.062905	0.722960
C338	C	1.005523	0.396238	1.056293
C339	C	1.338856	0.729571	1.389627
C340	C	0.711185	0.029894	0.246186
C341	C	1.044518	0.363228	0.579520
C342	C	1.377852	0.696561	0.912853
C343	C	0.711181	0.029903	0.184265
C344	C	1.044514	0.363236	0.517599
C345	C	1.377847	0.696570	0.850932
C346	C	0.633131	0.095978	0.184283
C347	C	0.966464	0.429312	0.517617
C348	C	1.299797	0.762645	0.850950
C349	C	0.633137	0.095972	0.246199
C350	C	0.966470	0.429305	0.579532
C351	C	1.299803	0.762639	0.912866
C352	C	0.672166	0.062926	0.277149
C353	C	1.005499	0.396259	0.610482
C354	C	1.338833	0.729592	0.943816
O355	O	0.599989	0.124050	0.344160
O356	O	0.933322	0.457384	0.677493
O357	O	1.266655	0.790717	1.010827
O358	O	0.744371	0.001783	0.344182
O359	O	1.077705	0.335116	0.677515
O360	O	1.411038	0.668450	1.010848
H361	H	0.486258	0.146206	0.000020
H362	H	0.819591	0.479539	0.333353
H363	H	1.152924	0.812873	0.666687
O364	O	0.670585	-0.565088	0.165121
O365	O	1.003918	-0.231755	0.498454
O366	O	1.337251	0.101579	0.831788
H367	H	0.670886	-0.539087	0.202406
H368	H	1.004219	-0.205754	0.535739
H369	H	1.337553	0.127580	0.869072
H370	H	0.671777	-0.466973	0.150955
H371	H	1.005111	-0.133639	0.484288
H372	H	1.338444	0.199694	0.817622
H373	H	0.742965	0.002985	0.271379
H374	H	1.076299	0.336318	0.604712
H375	H	1.409632	0.669651	0.938045
H376	H	0.673577	-0.315720	0.150969
H377	H	1.006911	0.017613	0.484303
H378	H	1.340244	0.350947	0.817636
O379	O	0.675244	-0.181957	0.111529
O380	O	1.008577	0.151376	0.444862
O381	O	1.341910	0.484710	0.778195
H382	H	0.636137	-0.200431	0.114090
H383	H	0.969470	0.132903	0.447423
H384	H	1.302803	0.466236	0.780756
O385	O	0.591092	0.131588	0.849226
O386	O	0.924425	0.464922	1.182560
O387	O	1.257758	0.798255	1.515893
H388	H	0.563593	0.111368	0.877444
H389	H	0.896926	0.444701	1.210778
H390	H	1.230259	0.778034	1.544111
H391	H	0.246266	-0.060551	0.000106
H392	H	0.579599	0.272782	0.333439
H393	H	0.912933	0.606115	0.666772
O394	O	0.368759	0.156682	0.000029
O395	O	0.702092	0.490016	0.333363
O396	O	1.035425	0.823349	0.666696
H397	H	0.394405	0.187633	0.000014
H398	H	0.727738	0.520967	0.333347
H399	H	1.061071	0.854300	0.666680
O400	O	0.676529	-0.077144	-0.111384
O401	O	1.009863	0.256190	0.221950
O402	O	1.343196	0.589523	0.555283
H403	H	0.676213	-0.103142	-0.148670
H404	H	1.009547	0.230192	0.184664
H405	H	1.342880	0.563525	0.517997
O406	O	-0.054242	0.152384	0.000048
O407	O	0.279092	0.485717	0.333382
O408	O	0.612425	0.819050	0.666715
H409	H	-0.027525	0.154771	0.040141
H410	H	0.305808	0.488105	0.373474
H411	H	0.639141	0.821438	0.706808
H412	H	0.742962	0.003001	0.159057
H413	H	1.076296	0.336334	0.492391
H414	H	1.409629	0.669668	0.825724
O415	O	0.792312	-0.038792	0.435694
O416	O	1.125645	0.294542	0.769028
O417	O	1.458979	0.627875	1.102361
H418	H	0.768550	-0.062181	0.407486
H419	H	1.101883	0.271153	0.740819
H420	H	1.435217	0.604486	1.074152
O421	O	0.132564	-0.073377	0.000121
O422	O	0.465897	0.259957	0.333454
O423	O	0.799230	0.593290	0.666787
H424	H	0.168193	-0.103704	0.000137
H425	H	0.501527	0.229630	0.333471
H426	H	0.834860	0.562963	0.666804
O427	O	0.792327	-0.038791	0.564382
O428	O	1.125660	0.294543	0.897715
O429	O	1.458994	0.627876	1.231048
H430	H	0.819461	-0.061753	0.532439
H431	H	1.152794	0.271580	0.865773
H432	H	1.486128	0.604914	1.199106
O433	O	0.753306	-0.005769	0.720517
O434	O	1.086640	0.327565	1.053850
O435	O	1.419973	0.660898	1.387184
H436	H	0.780439	-0.028742	0.752449
H437	H	1.113772	0.304591	1.085782
H438	H	1.447105	0.637924	1.419116
H439	H	0.205847	0.187502	0.000030
H440	H	0.539181	0.520835	0.333363
H441	H	0.872514	0.854168	0.666696
O442	O	0.675257	-0.181928	-0.111397
O443	O	1.008590	0.151405	0.221937
O444	O	1.341923	0.484738	0.555270
H445	H	0.675580	-0.155923	-0.148677
H446	H	1.008914	0.177410	0.184657
H447	H	1.342247	0.510743	0.517990
H448	H	0.743001	0.002964	0.841044
H449	H	1.076334	0.336297	1.174377
H450	H	1.409668	0.669631	1.507710
O451	O	-0.177704	0.151128	0.000060
O452	O	0.155630	0.484461	0.333393
O453	O	0.488963	0.817795	0.666727
H454	H	-0.222788	0.143249	0.000070
H455	H	0.110545	0.476582	0.333403
H456	H	0.443878	0.809916	0.666737
H457	H	0.601388	0.122849	0.728728
H458	H	0.934721	0.456182	1.062061
H459	H	1.268054	0.789516	1.395394
O460	O	0.676495	-0.077159	0.111538
O461	O	1.009828	0.256174	0.444872
O462	O	1.343162	0.589508	0.778205
H463	H	0.676966	-0.037867	0.102526
H464	H	1.010299	0.295466	0.435859
H465	H	1.343632	0.628799	0.769193
O466	O	0.552048	0.164634	0.564404
O467	O	0.885381	0.497967	0.897738
O468	O	1.218714	0.831300	1.231071
H469	H	0.524918	0.187606	0.532469
H470	H	0.858251	0.520939	0.865802
H471	H	1.191585	0.854273	1.199135
H472	H	0.098105	0.186406	0.000041
H473	H	0.431438	0.519740	0.333375
H474	H	0.764772	0.853073	0.666708
H475	H	0.562333	0.155885	0.443896
H476	H	0.895666	0.489218	0.777230
H477	H	1.228999	0.822552	1.110563
H478	H	0.601364	0.122878	0.271409
H479	H	0.934697	0.456211	0.604743
H480	H	1.268030	0.789544	0.938076
H481	H	0.601359	0.122879	0.159072
H482	H	0.934692	0.456212	0.492405
H483	H	1.268025	0.789546	0.825739
H484	H	-0.141899	-0.020355	0.000076
H485	H	0.191435	0.312978	0.333410
H486	H	0.524768	0.646311	0.666743
O487	O	0.670631	-0.565075	-0.165039
O488	O	1.003964	-0.231741	0.168294
O489	O	1.337297	0.101592	0.501627
H490	H	0.709581	-0.559905	-0.190756
H491	H	1.042914	-0.226572	0.142577
H492	H	1.376248	0.106762	0.475911
H493	H	-0.034152	-0.019262	0.000084
H494	H	0.299181	0.314072	0.333418
H495	H	0.632515	0.647405	0.666751
O496	O	0.398589	-0.026530	0.000070
O497	O	0.731922	0.306803	0.333403
O498	O	1.065255	0.640137	0.666736
H499	H	0.413431	-0.047555	-0.040018
H500	H	0.746764	0.285778	0.293316
H501	H	1.080098	0.619112	0.626649
O502	O	0.522055	-0.025276	0.000067
O503	O	0.855388	0.308057	0.333401
O504	O	1.188721	0.641391	0.666734
H505	H	0.567139	-0.017397	0.000072
H506	H	0.900473	0.315937	0.333405
H507	H	1.233806	0.649270	0.666738
O508	O	0.671902	-0.460287	-0.165035
O509	O	1.005235	-0.126954	0.168298
O510	O	1.338569	0.206379	0.501631
H511	H	0.671587	-0.486289	-0.202318
H512	H	1.004921	-0.152956	0.131015
H513	H	1.338254	0.180378	0.464349
O514	O	0.673728	-0.309051	-0.165026
O515	O	1.007061	0.024283	0.168308
O516	O	1.340394	0.357616	0.501641
H517	H	0.673411	-0.335052	-0.202308
H518	H	1.006745	-0.001718	0.131025
H519	H	1.340078	0.331615	0.464358
O520	O	0.672460	-0.413830	-0.165032
O521	O	1.005793	-0.080497	0.168301
O522	O	1.339127	0.252837	0.501634
H523	H	0.672778	-0.387823	-0.202311
H524	H	1.006112	-0.054490	0.131023
H525	H	1.339445	0.278844	0.464356
H526	H	0.669036	-0.698872	-0.097257
H527	H	1.002370	-0.365538	0.236077
H528	H	1.335703	-0.032205	0.569410
O529	O	0.667845	-0.796995	-0.111433
O530	O	1.001179	-0.463662	0.221900
O531	O	1.334512	-0.130329	0.555234
H532	H	0.667366	-0.836286	-0.102420
H533	H	1.000699	-0.502952	0.230913
H534	H	1.334032	-0.169619	0.564246
H535	H	0.667907	-0.790338	0.097319
H536	H	1.001240	-0.457005	0.430653
H537	H	1.334573	-0.123671	0.763986
H538	H	0.668999	-0.698886	0.097327
H539	H	1.002332	-0.365552	0.430661
H540	H	1.335666	-0.032219	0.763994
H541	H	0.672489	-0.407174	0.150968
H542	H	1.005822	-0.073840	0.484301
H543	H	1.339155	0.259493	0.817634
