data_functionalizedCrystal
_audit_creation_method	'MofGen! by Chris Wilmer'
_symmetry_space_group_name_H-M	'P1'
_symmetry_Int_Tables_number	1
_symmetry_cell_setting	triclinic
loop_
_symmetry_equiv_pos_as_xyz
  x,y,z
_cell_length_a	14.628931
_cell_length_b	14.446369
_cell_length_c	14.628931
_cell_angle_alpha	90.000536
_cell_angle_beta	59.999836
_cell_angle_gamma	59.998427
loop_
_atom_site_label
_atom_site_type_symbol
_atom_site_fract_x
_atom_site_fract_y
_atom_site_fract_z
Zr1	Zr	1.000533	0.891768	-0.119931
O2	O	1.191247	0.743958	-0.265897
O3	O	0.809824	0.937080	-0.075184
O4	O	1.000531	0.937080	-0.265890
O5	O	1.000540	0.743959	0.075241
O6	O	1.000522	1.089417	-0.265884
O7	O	1.000540	0.743959	-0.075191
O8	O	0.659383	1.089418	0.075254
O9	O	1.341679	0.743958	-0.265898
O10	O	0.888257	1.070093	-0.056096
O11	O	0.888263	0.956405	0.056166
O12	O	1.112795	0.956404	-0.168366
O13	O	1.112801	0.842717	-0.056105
Zr14	Zr	1.000519	1.134729	0.120000
Zr15	Zr	1.000519	1.134729	-0.119922
Zr16	Zr	1.000532	0.891769	0.119991
Zr17	Zr	1.240455	0.891768	-0.119931
Zr18	Zr	0.760597	1.134729	0.120001
O19	O	1.191227	1.089417	0.075253
O20	O	1.191228	1.089416	-0.265885
O21	O	1.191246	0.743959	0.075241
O22	O	0.809804	1.282539	0.265967
O23	O	0.809805	1.282538	-0.075171
O24	O	0.809823	0.937081	0.265954
O25	O	1.000511	1.282538	-0.075172
O26	O	1.000521	1.089418	0.265959
O27	O	1.000529	0.937081	0.265954
O28	O	1.000511	1.282538	0.075261
O29	O	1.341669	0.937079	-0.265891
O30	O	0.659383	1.089418	0.265960
O31	O	0.659372	1.282539	0.265967
O32	O	0.659373	1.282539	0.075261
O33	O	1.341679	0.743958	-0.075192
O34	O	1.341668	0.937079	-0.075185
O35	O	0.888256	1.070093	0.168436
O36	O	0.888250	1.183780	0.056174
O37	O	1.112789	1.070092	-0.056096
O38	O	1.112794	0.956405	0.056165
C39	C	0.700420	1.013249	0.000035
C40	C	0.598567	1.013250	0.000036
C41	C	0.631921	0.933492	-0.078727
C42	C	0.526653	0.933491	-0.078729
C43	C	1.000542	0.709343	0.000024
C44	C	1.000548	0.606200	0.000020
C45	C	1.142149	0.387830	-0.070432
C46	C	1.142245	0.495062	-0.070828
C47	C	0.930206	0.602876	-0.051627
C48	C	0.931105	0.495107	-0.052144
C49	C	0.928188	0.496471	0.122209
C50	C	0.930857	0.602440	0.122016
C51	C	1.300631	1.013248	0.000034
C52	C	1.402485	1.013248	0.000034
C53	C	1.000527	1.013248	-0.300071
C54	C	1.000527	1.013248	-0.401924
C55	C	1.000509	1.317155	0.000046
C56	C	1.000504	1.420298	0.000050
C57	C	0.889141	1.069645	-0.391640
C58	C	0.889139	1.069646	-0.496909
C59	C	1.000525	1.013249	0.300140
C60	C	1.000524	1.013249	0.401994
C61	C	0.700403	1.317155	0.000046
C62	C	0.598545	1.420299	0.000050
C63	C	0.700419	1.013250	0.300141
C64	C	0.598565	1.013250	0.401994
C65	C	0.700402	1.317156	0.300152
C66	C	0.598543	1.420299	0.402009
C67	C	1.300649	0.709342	-0.300083
C68	C	1.402508	0.606198	-0.401940
C69	C	1.300648	0.709342	0.000023
C70	C	1.402507	0.606199	0.000019
C71	C	1.300632	1.013248	-0.300072
C72	C	1.402486	1.013247	-0.401925
C73	C	0.553136	1.409886	-0.055641
C74	C	0.447860	1.516489	-0.055639
C75	C	0.553153	1.069647	0.503097
C76	C	0.447882	1.069649	0.608369
C77	C	0.553129	1.522680	0.391731
C78	C	0.447852	1.629286	0.497004
H79	H	0.492077	1.081533	0.067464
Br80	Br	0.355156	1.127061	0.112443
Br81	Br	1.159482	0.932777	-0.612411
H82	H	0.559490	1.411570	0.488746
Br83	Br	0.618244	1.263493	-0.135129
Br84	Br	0.809409	0.819683	-0.191128
Br85	Br	0.382752	1.775671	0.482616
H86	H	0.793781	1.117923	-0.304901
H87	H	1.095887	0.964959	-0.488663
Br88	Br	0.573972	0.819666	-0.191118
Br89	Br	0.467520	1.472486	0.612495
Br90	Br	1.234224	0.492376	-0.013088
H91	H	1.197740	0.333874	-0.035964
H92	H	1.197470	0.332845	-0.160001
H93	H	0.973509	0.446447	0.165354
H94	H	0.559486	1.508134	0.047728
Br95	Br	1.234819	0.490981	-0.221025
Br96	Br	1.014434	0.411186	-0.201971
H97	H	0.408827	1.117934	0.695101
H98	H	0.592213	1.117924	0.511719
H99	H	0.441523	0.964972	0.511351
Br100	Br	0.533491	0.932760	0.387609
Br101	Br	0.382769	1.501913	-0.135102
Br102	Br	0.757900	0.539523	0.027869
Br103	Br	0.618228	1.537245	0.247169
Br104	Br	0.756553	0.733323	0.029814
H105	H	0.979064	0.605011	-0.140667
H106	H	0.982145	0.601922	0.160599
Br107	Br	0.758534	0.734356	0.216904
H108	H	0.823845	0.523910	0.174972
H109	H	0.793777	1.117933	-0.488278
Br110	Br	0.467513	1.633449	0.079544
