data_functionalizedCrystal
_audit_creation_method	'MofGen! by Chris Wilmer'
_symmetry_space_group_name_H-M	'P1'
_symmetry_Int_Tables_number	1
_symmetry_cell_setting	triclinic
loop_
_symmetry_equiv_pos_as_xyz
  x,y,z
_cell_length_a	12.837943
_cell_length_b	12.837942
_cell_length_c	11.892095
_cell_angle_alpha	85.697431
_cell_angle_beta	85.689438
_cell_angle_gamma	85.171060
loop_
_atom_site_label
_atom_site_type_symbol
_atom_site_fract_x
_atom_site_fract_y
_atom_site_fract_z
O1	O	1.408367	-0.266110	-0.093982
O2	O	1.908367	0.233890	0.406018
O3	O	1.105234	-0.252667	-0.093989
O4	O	1.605234	0.247333	0.406011
O5	O	1.250078	-0.107822	-0.093979
O6	O	1.750078	0.392178	0.406021
O7	O	1.263522	-0.410955	-0.093992
O8	O	1.763522	0.089045	0.406008
O9	O	1.237999	-0.119879	0.094028
O10	O	1.737999	0.380121	0.594028
O11	O	1.093155	-0.264723	0.094018
O12	O	1.593155	0.235277	0.594018
O13	O	1.396288	-0.278167	0.094025
O14	O	1.896288	0.221833	0.594025
Zn15	Zn	1.242803	-0.273359	0.123871
Zn16	Zn	1.742803	0.226641	0.623871
Zn17	Zn	1.258718	-0.257474	-0.123836
Zn18	Zn	1.758718	0.242526	0.376164
O19	O	1.251443	-0.423011	0.094014
O20	O	1.751443	0.076989	0.594014
C21	C	1.060125	-0.254153	0.000014
C22	C	1.560125	0.245847	0.500014
C23	C	0.943710	-0.240609	0.000011
C24	C	1.443710	0.259391	0.500011
C25	C	0.718835	-0.403439	0.000020
C26	C	1.218835	0.096561	0.500020
C27	C	0.609453	-0.390717	0.000019
C28	C	1.109453	0.109283	0.500019
C29	C	0.615561	-0.202446	0.000015
C30	C	1.115561	0.297554	0.500015
C31	C	0.724943	-0.215167	0.000017
C32	C	1.224943	0.284833	0.500017
C33	C	0.776577	-0.315667	0.000017
C34	C	1.276577	0.184333	0.500017
C35	C	0.885961	-0.328387	0.000011
C36	C	1.385961	0.171613	0.500011
C37	C	0.892066	-0.140117	0.000015
C38	C	1.392066	0.359883	0.500015
C39	C	0.782684	-0.127395	0.000014
C40	C	1.282684	0.372605	0.500014
C41	C	1.239497	-0.074781	0.000024
C42	C	1.739497	0.425219	0.500024
C43	C	1.225953	0.041634	0.000022
C44	C	1.725953	0.541634	0.500022
C45	C	1.441397	-0.276680	0.000020
C46	C	1.941397	0.223320	0.500020
C47	C	1.557812	-0.290224	0.000015
C48	C	2.057812	0.209776	0.500015
C49	C	1.262024	-0.456052	0.000009
C50	C	1.762024	0.043948	0.500009
C51	C	1.275569	-0.572467	0.000004
C52	C	1.775569	-0.072467	0.500004
N53	N	1.231950	-0.284200	0.292925
N54	N	1.731950	0.215800	0.792925
C55	C	1.388784	0.266509	0.000002
C56	C	1.888784	0.766509	0.500002
C57	C	1.376062	0.375892	-0.000000
C58	C	1.876062	0.875892	0.500000
C59	C	1.187791	0.369784	0.000007
C60	C	1.687791	0.869784	0.500007
C61	C	1.200512	0.260402	0.000009
C62	C	1.700512	0.760402	0.500009
C63	C	1.301011	0.208768	0.000008
C64	C	1.801011	0.708768	0.500008
C65	C	1.313731	0.099383	0.000019
C66	C	1.813731	0.599383	0.500019
C67	C	1.125461	0.093278	0.000018
C68	C	1.625461	0.593278	0.500018
C69	C	1.112740	0.202660	0.000016
C70	C	1.612740	0.702660	0.500016
N71	N	1.269579	-0.246626	-0.292889
N72	N	1.769579	0.253374	0.207111
C73	C	1.345098	-0.171130	0.529580
C74	C	1.845098	0.328870	1.029580
C75	C	1.337519	-0.178716	0.647922
C76	C	1.837519	0.321284	1.147922
C77	C	1.209210	-0.306952	0.647951
C78	C	1.709210	0.193048	1.147951
C79	C	1.216788	-0.299366	0.529610
C80	C	1.716788	0.200634	1.029610
C81	C	1.284736	-0.231454	0.470428
C82	C	1.784736	0.268546	0.970428
C83	C	1.292319	-0.223874	0.352085
C84	C	1.792319	0.276126	0.852085
C85	C	1.164005	-0.352104	0.352116
C86	C	1.664005	0.147896	0.852116
C87	C	1.156426	-0.359690	0.470458
C88	C	1.656426	0.140310	0.970458
H89	H	0.562444	-0.462191	0.000024
H90	H	1.062444	0.037809	0.500024
H91	H	1.347647	-0.168579	0.303901
H92	H	1.847647	0.331421	0.803901
H93	H	1.105969	0.411844	-0.000004
H94	H	1.605969	0.911844	0.499996
H95	H	0.573495	-0.120630	0.000108
H96	H	1.073495	0.379370	0.500108
H97	H	1.400430	-0.115841	0.481394
H98	H	1.900430	0.384159	0.981394
H99	H	1.386671	-0.129593	0.696080
H100	H	1.886671	0.370407	1.196080
H101	H	1.153882	-0.362237	0.696151
H102	H	1.653882	0.137763	1.196151
F103	F	1.469482	0.437341	-0.000011
F104	F	1.969482	0.937341	0.499989
H105	H	1.030916	0.244716	0.000012
H106	H	1.530916	0.744716	0.500012
F107	F	1.032041	0.031817	0.000037
F108	F	1.532041	0.531817	0.500037
F109	F	1.084113	-0.431961	0.533452
F110	F	1.584113	0.068039	1.033452
F111	F	1.495739	0.211553	0.000024
F112	F	1.995739	0.711553	0.500024
H113	H	0.928000	-0.410219	0.000013
H114	H	1.428000	0.089781	0.500013
F115	F	0.773791	-0.510395	0.000007
F116	F	1.273791	-0.010395	0.500007
H117	H	1.114857	-0.401227	0.303941
H118	H	1.614857	0.098773	0.803941
H119	H	0.939091	-0.068646	0.000005
H120	H	1.439091	0.431354	0.500005
F121	F	1.420690	0.044432	0.000025
F122	F	1.920690	0.544432	0.500025
F123	F	0.727720	-0.020443	0.000017
F124	F	1.227720	0.479557	0.500017
