data_functionalizedCrystal
_audit_creation_method	'MofGen! by Chris Wilmer'
_symmetry_space_group_name_H-M	'P1'
_symmetry_Int_Tables_number	1
_symmetry_cell_setting	triclinic
loop_
_symmetry_equiv_pos_as_xyz
  x,y,z
_cell_length_a	14.044220
_cell_length_b	13.101039
_cell_length_c	14.519709
_cell_angle_alpha	93.367554
_cell_angle_beta	91.565489
_cell_angle_gamma	93.659868
loop_
_atom_site_label
_atom_site_type_symbol
_atom_site_fract_x
_atom_site_fract_y
_atom_site_fract_z
O1	O	1.263284	0.085109	-0.217712
O2	O	0.987302	0.085135	-0.209687
O3	O	1.132610	0.085112	-0.080052
O4	O	1.117976	0.085132	-0.347347
O5	O	1.122184	-0.085316	-0.089370
O6	O	0.976877	-0.085293	-0.219005
O7	O	1.252858	-0.085319	-0.227030
Zn8	Zn	1.113212	-0.112365	-0.224497
Zn9	Zn	1.126948	0.112181	-0.212220
O10	O	1.107551	-0.085296	-0.356665
C11	C	0.946769	-0.000076	-0.210833
C12	C	0.841527	-0.000066	-0.200355
C13	C	0.648831	-0.000088	-0.181202
C14	C	0.591324	-0.000087	-0.255510
C15	C	0.484102	-0.000099	-0.244853
C16	C	0.756064	-0.000076	-0.191858
N17	N	1.103845	-0.265612	-0.232875
C18	C	1.091099	-0.474653	-0.244283
C19	C	1.149066	-0.525537	-0.192430
C20	C	1.141974	-0.641855	-0.198777
C21	C	1.098190	-0.358325	-0.237937
C22	C	1.293391	-0.000106	-0.225884
C23	C	1.398635	-0.000108	-0.236361
C24	C	1.126715	-0.000102	-0.050296
C25	C	1.124671	-0.000102	0.052250
N26	N	1.136324	0.265428	-0.203835
C27	C	1.113446	-0.000080	-0.386421
C28	C	1.115490	-0.000072	-0.488967
C29	C	1.117149	-0.000075	0.427754
C30	C	1.119238	-0.000083	0.323277
C31	C	1.120910	-0.000090	0.240005
C32	C	1.122999	-0.000096	0.135522
H33	H	1.204018	-0.481744	-0.143270
H34	H	0.622617	-0.000076	-0.327131
H35	H	0.617540	-0.000099	-0.109587
H36	H	1.036152	-0.518441	-0.293441
