data_functionalizedCrystal
_audit_creation_method	'MofGen! by Chris Wilmer'
_symmetry_space_group_name_H-M	'P1'
_symmetry_Int_Tables_number	1
_symmetry_cell_setting	triclinic
loop_
_symmetry_equiv_pos_as_xyz
  x,y,z
_cell_length_a	12.594517
_cell_length_b	12.594516
_cell_length_c	14.908308
_cell_angle_alpha	93.270069
_cell_angle_beta	93.276844
_cell_angle_gamma	90.011248
loop_
_atom_site_label
_atom_site_type_symbol
_atom_site_fract_x
_atom_site_fract_y
_atom_site_fract_z
Zn1	Zn	1.592541	-0.458471	-0.510140
Zn2	Zn	1.602723	-0.626208	-0.359292
Zn3	Zn	1.424822	-0.448242	-0.359295
Zn4	Zn	1.414543	-0.636404	-0.510097
O5	O	1.508657	-0.542331	-0.434706
O6	O	1.742836	-0.480736	-0.490146
O7	O	1.587687	-0.594052	-0.233051
O8	O	1.447112	-0.300654	-0.379324
O9	O	1.750317	-0.603971	-0.379319
O10	O	1.570334	-0.308170	-0.490149
O11	O	1.456984	-0.463301	-0.233053
O12	O	1.274514	-0.473188	-0.379283
O13	O	1.429592	-0.621349	-0.636345
O14	O	1.266962	-0.611430	-0.490077
O15	O	1.560366	-0.490623	-0.636376
O16	O	1.577720	-0.776505	-0.379278
O17	O	1.439465	-0.783996	-0.490074
C18	C	1.232119	-0.542306	-0.434676
C19	C	1.113813	-0.542322	-0.434685
C20	C	0.977863	-0.467064	-0.374562
C21	C	1.043111	-0.446737	-0.456882
C22	C	1.050136	-0.562602	-0.352373
C23	C	0.968268	-0.521995	-0.517115
C24	C	0.975289	-0.637900	-0.412550
C25	C	1.040502	-0.617615	-0.494927
C26	C	1.508609	-0.818871	-0.434691
C27	C	1.508684	-0.937178	-0.434714
C28	C	1.583959	-1.002322	-0.374516
C29	C	1.604359	-1.078627	-0.456857
C30	C	1.488413	-1.071676	-0.352426
C31	C	1.529131	-1.011928	-0.517098
C32	C	1.413143	-1.004966	-0.412611
C33	C	1.433503	-1.081243	-0.495009
C34	C	1.786276	-0.542357	-0.434737
C35	C	1.904581	-0.542368	-0.434750
C36	C	1.492697	-0.558264	-0.670009
C37	C	1.485896	-0.565054	-0.770280
C38	C	1.508734	-0.264713	-0.434742
C39	C	1.508766	-0.146408	-0.434757
C40	C	1.609287	-0.441663	-0.958736
C41	C	1.602900	-0.448039	-1.052950
C42	C	1.466729	-0.584175	-1.052925
C43	C	1.473117	-0.577800	-0.958711
C44	C	1.544399	-0.506542	-0.911620
C45	C	1.550791	-0.500172	-0.817403
C46	C	1.414616	-0.636303	-0.817380
C47	C	1.408228	-0.642679	-0.911594
C48	C	1.524617	-0.526383	-0.200319
C49	C	1.531625	-0.519294	-0.100048
H50	H	1.647623	-0.967808	-0.323655
N51	N	1.344592	-0.706271	-0.766577
H52	H	1.359980	-0.783433	-0.782969
H53	H	1.359467	-0.691341	-0.699760
H54	H	0.950224	-0.403360	-0.323753
H55	H	1.350190	-0.700693	-0.949949
N56	N	1.686186	-0.364838	-0.907934
H57	H	1.645611	-0.312862	-0.868834
H58	H	1.738117	-0.405560	-0.868906
H59	H	1.408694	-0.642189	-1.091283
H60	H	1.369877	-1.115569	-0.545993
H61	H	1.546225	-0.985635	-0.586766
H62	H	1.072931	-0.365926	-0.475648
N63	N	1.672885	-0.378052	-1.103762
H64	H	1.750042	-0.393471	-1.087370
H65	H	1.657937	-0.392926	-1.170577
N66	N	0.921060	-0.499178	-0.609388
H67	H	0.840906	-0.499305	-0.608838
H68	H	0.946386	-0.427261	-0.626213
N69	N	1.711420	-1.121441	-0.481659
H70	H	1.760224	-1.060347	-0.492327
H71	H	1.743221	-1.163295	-0.430982
N72	N	1.076845	-0.701957	-0.562380
H73	H	1.046772	-0.686518	-0.624525
H74	H	1.157086	-0.701861	-0.561544
N75	N	0.935724	-0.744900	-0.387668
H76	H	0.855485	-0.744321	-0.388459
H77	H	0.959634	-0.801877	-0.432462
N78	N	1.306106	-0.962129	-0.387790
H79	H	1.290827	-0.983660	-0.325569
H80	H	1.306740	-0.882001	-0.388593
N81	N	1.097535	-0.585303	-0.260135
H82	H	1.074857	-0.528387	-0.214748
H83	H	1.071818	-0.656949	-0.243001
N84	N	1.465649	-1.106690	-0.260227
H85	H	1.522529	-1.077872	-0.214793
H86	H	1.393983	-1.078714	-0.243126
H87	H	1.608834	-0.442152	-0.779063
