data_functionalizedCrystal
_audit_creation_method	'MofGen! by Chris Wilmer'
_symmetry_space_group_name_H-M	'P1'
_symmetry_Int_Tables_number	1
_symmetry_cell_setting	triclinic
loop_
_symmetry_equiv_pos_as_xyz
  x,y,z
_cell_length_a	15.944499
_cell_length_b	15.944545
_cell_length_c	9.798715
_cell_angle_alpha	90.005236
_cell_angle_beta	90.006028
_cell_angle_gamma	83.486891
loop_
_atom_site_label
_atom_site_type_symbol
_atom_site_fract_x
_atom_site_fract_y
_atom_site_fract_z
O1	O	1.114548	0.108124	0.113579
O2	O	0.869992	0.121525	0.113565
O3	O	0.998951	-0.007452	0.113556
O4	O	0.985589	0.237101	0.113588
O5	O	0.998942	-0.007452	-0.113426
O6	O	0.869983	0.121525	-0.113417
O7	O	1.114539	0.108123	-0.113403
Zn8	Zn	0.992259	0.114824	-0.149448
Zn9	Zn	0.992271	0.114825	0.149610
O10	O	0.985580	0.237101	-0.113394
C11	C	0.838693	0.120977	0.000072
C12	C	0.745444	0.119332	0.000066
C13	C	0.453907	0.194264	0.000096
C14	C	0.514941	0.155312	0.112007
C15	C	0.409808	0.113355	0.000096
C16	C	0.514918	0.155290	-0.111779
C17	C	0.574717	0.116296	0.000079
C18	C	0.469614	0.074381	0.112100
C19	C	0.469585	0.074371	-0.111787
C20	C	0.530602	0.035360	0.000152
C21	C	0.314808	0.111664	0.000108
C22	C	0.669716	0.117981	0.000078
C23	C	0.998393	-0.038746	0.000064
C24	C	0.996732	-0.131992	0.000060
C25	C	0.911837	-0.402609	0.000082
C26	C	0.952771	-0.352031	0.112000
C27	C	0.990811	-0.467635	0.000098
C28	C	0.952783	-0.352058	-0.111787
C29	C	0.993716	-0.302722	0.000077
C30	C	1.031725	-0.418285	0.112108
C31	C	1.031725	-0.418316	-0.111779
C32	C	1.072718	-0.367771	0.000165
C33	C	0.989136	-0.562637	0.000112
C34	C	0.995398	-0.207723	0.000074
C35	C	1.145838	0.108672	0.000093
C36	C	1.239086	0.110317	0.000108
C37	C	0.986138	0.268395	0.000101
C38	C	0.987798	0.361641	0.000114
N39	N	0.992257	0.114823	-0.353548
C40	C	0.943701	0.066538	-0.421367
C41	C	0.943713	0.066535	-0.578530
N42	N	0.992280	0.114819	0.353710
H43	H	0.563781	-0.031846	0.000203
F44	F	0.909167	-0.314256	-0.235454
H45	H	0.449465	0.040177	-0.206411
F46	F	1.075293	-0.455941	0.235917
H47	H	1.033856	0.156157	-0.587976
F48	F	0.541155	0.200037	-0.235438
H49	H	0.420575	0.261410	0.000213
H50	H	0.535042	0.189536	0.206623
F51	F	0.443511	0.029685	0.235898
H52	H	0.902144	0.025193	-0.636852
F53	F	1.161684	-0.347535	0.000251
F54	F	0.822939	-0.423055	0.000217
H55	H	0.919421	-0.323090	0.206614
H56	H	1.065046	-0.447272	-0.206397
F57	F	0.889347	0.012510	-0.345185
H58	H	1.033832	0.156165	-0.411838
