data_functionalizedCrystal
_audit_creation_method	'MofGen! by Chris Wilmer'
_symmetry_space_group_name_H-M	'P1'
_symmetry_Int_Tables_number	1
_symmetry_cell_setting	triclinic
loop_
_symmetry_equiv_pos_as_xyz
  x,y,z
_cell_length_a	6.817900
_cell_length_b	7.190410
_cell_length_c	27.923559
_cell_angle_alpha	86.955243
_cell_angle_beta	81.034929
_cell_angle_gamma	119.389325
loop_
_atom_site_label
_atom_site_type_symbol
_atom_site_fract_x
_atom_site_fract_y
_atom_site_fract_z
V1	V	4.064911	0.298119	-0.150918
O2	O	3.961912	-0.011204	-0.148402
O3	O	4.102520	0.588118	-0.149543
O4	O	3.993752	0.294903	-0.216895
O5	O	4.071433	0.284040	-0.080584
V6	V	4.540343	0.260959	-0.142547
O7	O	4.343917	0.379634	-0.169281
O8	O	4.711534	0.179444	-0.124185
O9	O	4.279527	-0.029040	-0.143922
O10	O	4.760739	0.570282	-0.145064
O11	O	4.651218	0.275037	-0.212882
O12	O	4.388296	0.264175	-0.076570
C13	C	4.083185	0.900315	-0.146385
C14	C	3.969175	0.658765	-0.147074
C15	C	3.830435	0.284743	-0.232988
C16	C	3.854107	0.284033	-0.286922
C17	C	4.096927	0.475335	-0.628083
C18	C	4.186043	0.472791	-0.830795
O19	O	4.279045	0.638689	-0.862706
N20	N	4.101472	0.277017	-0.849441
C21	C	3.994627	0.081866	-0.817406
O22	O	3.924759	-0.084709	-0.837917
C23	C	3.905527	0.084412	-0.614695
C24	C	3.990085	0.280198	-0.596052
C25	C	4.181480	0.671105	-0.609439
C26	C	4.159190	0.671738	-0.558764
C27	C	4.052348	0.476601	-0.526733
C28	C	3.967795	0.280831	-0.545377
C29	C	3.798698	-0.110736	-0.582661
C30	C	3.776435	-0.110081	-0.531981
C31	C	3.860993	0.085704	-0.513338
C32	C	3.838663	0.086328	-0.462670
N33	N	3.923235	0.282102	-0.444024
C34	C	4.030077	0.477239	-0.476056
C35	C	4.041408	0.080542	-0.923832
C36	C	4.063679	0.079905	-0.974509
C37	C	4.255098	0.470831	-0.987895
C38	C	4.232811	0.471466	-0.937217
C39	C	4.125979	0.276316	-0.905186
C40	C	3.983258	0.478554	-0.369634
C41	C	3.960949	0.479169	-0.318953
C42	C	3.769543	0.088245	-0.305572
C43	C	3.791839	0.087627	-0.356248
C44	C	3.898711	0.282800	-0.388278
O45	O	3.745713	-0.079481	-0.430731
O46	O	4.099973	0.643792	-0.455535
C47	C	4.119217	0.474702	-0.678758
C48	C	4.034664	0.278932	-0.697402
C49	C	3.927822	0.083795	-0.665371
C50	C	4.056935	0.278294	-0.748079
C51	C	4.163778	0.473431	-0.780111
C52	C	4.248349	0.669205	-0.761465
C53	C	4.226059	0.669838	-0.710789
C54	C	3.843251	-0.111979	-0.684017
C55	C	3.865546	-0.112597	-0.734692
C56	C	3.972388	0.082540	-0.766724
C57	C	4.214958	0.274341	-0.060475
C58	C	4.170521	0.275041	-0.006541
H59	H	4.070278	0.637482	-0.395707
H60	H	4.335336	0.828092	-0.787553
N61	N	3.705404	-0.112380	-0.375286
N62	N	3.609988	-0.286595	-0.346678
H63	H	3.548948	-0.427855	-0.360120
N64	N	4.318926	0.671381	-0.918147
N65	N	4.242635	0.793737	-0.926385
H66	H	4.303370	0.934910	-0.912908
N67	N	4.364212	0.670141	-1.020626
N68	N	4.384066	0.669518	-1.065871
H69	H	4.461131	0.810272	-1.088990
N70	N	3.977271	-0.120069	-0.993557
N71	N	3.825699	-0.172316	-1.018443
H72	H	3.764677	-0.313553	-1.031895
N73	N	3.932279	-0.118832	-0.891124
N74	N	3.856791	-0.293599	-0.907785
H75	H	3.779712	-0.434411	-0.884687
H76	H	4.228060	0.831168	-0.543590
H77	H	4.029806	0.638608	-0.303777
H78	H	4.294918	0.829267	-0.695615
N79	N	4.290617	0.870427	-0.642162
N80	N	4.467045	0.921993	-0.673835
H81	H	4.544112	1.062774	-0.696944
H82	H	3.729822	-0.270167	-0.597831
N83	N	3.667310	-0.309448	-0.499270
N84	N	3.591833	-0.484223	-0.515927
H85	H	3.514759	-0.625028	-0.492826
N86	N	3.779126	-0.312624	-0.753724
N87	N	3.683739	-0.486828	-0.725113
H88	H	3.622718	-0.628095	-0.738552
H89	H	3.756253	-0.270886	-0.657941
H90	H	3.682545	-0.070631	-0.279483
