data_functionalizedCrystal
_audit_creation_method	'MofGen! by Chris Wilmer'
_symmetry_space_group_name_H-M	'P1'
_symmetry_Int_Tables_number	1
_symmetry_cell_setting	triclinic
loop_
_symmetry_equiv_pos_as_xyz
  x,y,z
_cell_length_a	12.759401
_cell_length_b	25.639239
_cell_length_c	12.759393
_cell_angle_alpha	90.037052
_cell_angle_beta	90.018567
_cell_angle_gamma	90.037730
loop_
_atom_site_label
_atom_site_type_symbol
_atom_site_fract_x
_atom_site_fract_y
_atom_site_fract_z
Zn1	Zn	1.606080	-0.208133	0.593943
Zn2	Zn	1.605901	-0.295580	0.418246
Zn3	Zn	1.430382	-0.208159	0.418282
Zn4	Zn	1.430297	-0.295538	0.593888
O5	O	1.518165	-0.251853	0.506090
O6	O	1.753078	-0.219740	0.570645
O7	O	1.582579	-0.284012	0.271230
O8	O	1.453799	-0.134990	0.441622
O9	O	1.752946	-0.283987	0.441561
O10	O	1.582884	-0.134971	0.570680
O11	O	1.453626	-0.219784	0.271256
O12	O	1.283350	-0.219743	0.441569
O13	O	1.453655	-0.283915	0.740916
O14	O	1.283288	-0.283940	0.570585
O15	O	1.582802	-0.219699	0.740957
O16	O	1.582496	-0.368740	0.441507
O17	O	1.453481	-0.368709	0.570550
C18	C	1.245198	-0.251840	0.506075
C19	C	1.128421	-0.251848	0.506094
C20	C	1.073621	-0.218458	0.573412
C21	C	0.963897	-0.218468	0.573419
C22	C	0.963783	-0.285262	0.438786
C23	C	1.073505	-0.285249	0.438775
C24	C	1.128537	-0.185056	0.640731
C25	C	1.073736	-0.151663	0.708055
C26	C	0.964012	-0.151673	0.708062
C27	C	0.909089	-0.185076	0.640744
C28	C	1.517989	-0.387695	0.506042
C29	C	1.518009	-0.445809	0.506056
C30	C	1.585519	-0.806176	0.439012
C31	C	1.585559	-0.860780	0.439026
O32	O	1.642775	-0.889020	0.381969
N33	N	1.518350	-0.888092	0.506160
C34	C	1.451103	-0.860796	0.573291
O35	O	1.393940	-0.889041	0.630396
C36	C	1.451068	-0.806193	0.573282
C37	C	1.518275	-0.778884	0.506136
C38	C	1.652721	-0.778867	0.371873
C39	C	1.652678	-0.724266	0.371857
C40	C	1.585434	-0.696975	0.438981
C41	C	1.518232	-0.724283	0.506121
C42	C	1.383827	-0.778898	0.640418
C43	C	1.383799	-0.724291	0.640403
C44	C	1.451005	-0.696982	0.573257
C45	C	1.450946	-0.642391	0.573230
N46	N	1.518155	-0.615080	0.506096
C47	C	1.585399	-0.642371	0.438972
C48	C	1.451182	-0.975467	0.573307
C49	C	1.451210	-1.030069	0.573312
C50	C	1.585669	-1.030049	0.439048
C51	C	1.585634	-0.975446	0.439039
C52	C	1.518391	-0.948155	0.506174
C53	C	1.585305	-0.527706	0.438945
C54	C	1.585253	-0.473101	0.438932
C55	C	1.450799	-0.473126	0.573200
C56	C	1.450846	-0.527726	0.573209
C57	C	1.518108	-0.555015	0.506078
O58	O	1.393762	-0.614117	0.630260
O59	O	1.642562	-0.614120	0.381887
C60	C	1.792198	-0.251865	0.506105
C61	C	1.908975	-0.251871	0.506112
C62	C	1.518239	-0.251800	0.780123
C63	C	1.518270	-0.251777	0.896900
C64	C	1.518371	-0.115480	0.506161
C65	C	1.518459	-0.057365	0.506192
C66	C	1.518152	-0.251867	0.233123
C67	C	1.518325	-0.251743	0.116346
C68	C	1.585526	-0.218337	0.951785
C69	C	1.585551	-0.218318	1.061509
C70	C	1.451061	-0.285185	1.061454
C71	C	1.451032	-0.285200	0.951732
C72	C	1.652765	-0.184914	0.896954
C73	C	1.720027	-0.151471	0.951839
C74	C	1.720052	-0.151452	1.061563
C75	C	1.652815	-0.184876	1.116402
H76	H	1.639981	-0.450868	0.384251
H77	H	1.774763	-0.124256	0.907182
O78	O	0.802502	-0.185181	0.640749
C79	C	0.765809	-0.235307	0.667575
H80	H	0.829006	-0.265406	0.649512
H81	H	0.692378	-0.244581	0.620155
H82	H	0.746372	-0.236468	0.754745
H83	H	1.640427	-1.052280	0.384396
O84	O	1.126863	-0.317711	0.373534
C85	C	1.190310	-0.351514	0.433223
H86	H	1.206788	-0.333119	0.512911
H87	H	1.267447	-0.358483	0.390401
H88	H	1.148001	-0.390274	0.444625
H89	H	1.774813	-0.124218	1.106247
O90	O	1.235121	-0.185045	0.640532
C91	C	1.271757	-0.171539	0.539897
H92	H	1.208494	-0.180437	0.479349
H93	H	1.345129	-0.195106	0.521129
H94	H	1.291272	-0.128154	0.537837
H95	H	0.919396	-0.124480	0.762873
H96	H	1.118462	-0.124465	0.762856
O97	O	1.385393	-0.446690	0.638446
C98	C	1.326104	-0.482498	0.697741
H99	H	1.322491	-0.521439	0.654716
H100	H	1.243318	-0.466751	0.708896
H101	H	1.364558	-0.488258	0.777558
O102	O	1.650500	-0.554272	0.373695
C103	C	1.590760	-0.585908	0.305771
H104	H	1.511123	-0.594118	0.342747
H105	H	1.633600	-0.624287	0.291749
H106	H	1.579252	-0.564903	0.227893
O107	O	1.652559	-0.184951	0.790369
C108	C	1.551895	-0.171520	0.753673
H109	H	1.491367	-0.180415	0.816894
H110	H	1.533176	-0.195139	0.680281
H111	H	1.549742	-0.128148	0.734171
O112	O	1.650975	-0.948863	0.373965
C113	C	1.718805	-0.917235	0.433829
H114	H	1.681706	-0.909039	0.513415
H115	H	1.732892	-0.878849	0.391035
H116	H	1.796666	-0.938241	0.445446
H117	H	1.707407	-0.702035	0.317185
H118	H	1.707485	-0.801082	0.317212
O119	O	0.910549	-0.317784	0.373458
C120	C	0.937307	-0.369904	0.396245
H121	H	1.016991	-0.371001	0.436616
H122	H	0.941005	-0.393305	0.320336
H123	H	0.875565	-0.387552	0.450206
H124	H	1.396416	-0.953249	0.627974
O125	O	1.653005	-0.184809	1.222989
C126	C	1.726763	-0.148115	1.259677
H127	H	1.788140	-0.140805	1.196454
H128	H	1.766628	-0.163884	1.333071
H129	H	1.685168	-0.109987	1.279172
O130	O	1.385884	-1.056513	0.638628
C131	C	1.326509	-1.020709	0.697845
H132	H	1.369517	-0.981763	0.701502
H133	H	1.315265	-1.036454	0.780620
H134	H	1.246734	-1.014956	0.659298
H135	H	1.329095	-0.801124	0.695090
H136	H	1.329043	-0.702074	0.695076
H137	H	1.396319	-0.312396	1.106113
H138	H	1.396250	-0.312422	0.907043
H139	H	1.396125	-0.549962	0.627887
