data_functionalizedCrystal
_audit_creation_method	'MofGen! by Chris Wilmer'
_symmetry_space_group_name_H-M	'P1'
_symmetry_Int_Tables_number	1
_symmetry_cell_setting	triclinic
loop_
_symmetry_equiv_pos_as_xyz
  x,y,z
_cell_length_a	11.892095
_cell_length_b	12.837943
_cell_length_c	12.837942
_cell_angle_alpha	94.828940
_cell_angle_beta	85.697431
_cell_angle_gamma	94.310562
loop_
_atom_site_label
_atom_site_type_symbol
_atom_site_fract_x
_atom_site_fract_y
_atom_site_fract_z
O1	O	-0.093982	-1.408367	-0.266110
O2	O	-0.093989	-1.105234	-0.252667
O3	O	-0.093979	-1.250078	-0.107822
O4	O	-0.093992	-1.263522	-0.410955
O5	O	0.094028	-1.237999	-0.119879
O6	O	0.094018	-1.093155	-0.264723
O7	O	0.094025	-1.396288	-0.278167
Zn8	Zn	0.123871	-1.242803	-0.273359
Zn9	Zn	-0.123836	-1.258718	-0.257474
O10	O	0.094014	-1.251443	-0.423011
C11	C	0.000014	-1.060125	-0.254153
C12	C	0.000011	-0.943710	-0.240609
N13	N	0.292925	-1.231950	-0.284200
N14	N	-0.292889	-1.269579	-0.246626
C15	C	0.529580	-1.345098	-0.171130
C16	C	0.647922	-1.337519	-0.178716
C17	C	0.647951	-1.209210	-0.306952
C18	C	0.529610	-1.216788	-0.299366
C19	C	0.470428	-1.284736	-0.231454
C20	C	0.352085	-1.292319	-0.223874
C21	C	0.352116	-1.164005	-0.352104
C22	C	0.470458	-1.156426	-0.359690
C23	C	0.000024	-1.239497	-0.074781
C24	C	0.000022	-1.225953	0.041634
C25	C	0.000020	-1.441397	-0.276680
C26	C	0.000015	-1.557812	-0.290224
C27	C	0.000020	-0.718835	-0.403439
C28	C	0.000019	-0.609453	-0.390717
C29	C	0.000015	-0.615561	-0.202446
C30	C	0.000017	-0.724943	-0.215167
C31	C	0.000017	-0.776577	-0.315667
C32	C	0.000011	-0.885961	-0.328387
C33	C	0.000015	-0.892066	-0.140117
C34	C	0.000014	-0.782684	-0.127395
C35	C	0.000009	-1.262024	-0.456052
C36	C	0.000004	-1.275569	-0.572467
C37	C	0.000002	-1.388784	0.266509
C38	C	-0.000000	-1.376062	0.375892
C39	C	0.000007	-1.187791	0.369784
C40	C	0.000009	-1.200512	0.260402
C41	C	0.000008	-1.301011	0.208768
C42	C	0.000019	-1.313731	0.099383
C43	C	0.000018	-1.125461	0.093278
C44	C	0.000016	-1.112740	0.202660
H45	H	0.303901	-1.347647	-0.168579
H46	H	0.000019	-0.760876	-0.485269
H47	H	0.481394	-1.400430	-0.115841
C48	C	0.712990	-1.403922	-0.112362
C49	C	0.647889	-1.478673	-0.037681
C50	C	0.712957	-1.545078	0.028677
C51	C	0.843128	-1.536730	0.020354
C52	C	0.908237	-1.461975	-0.054330
C53	C	0.843169	-1.395571	-0.120689
H54	H	0.551522	-1.484856	-0.031517
H55	H	0.664758	-1.600416	0.083964
H56	H	0.891296	-1.585886	0.069476
H57	H	1.004604	-1.455792	-0.060495
H58	H	0.891368	-1.340232	-0.175975
H59	H	0.696151	-1.153882	-0.362237
C60	C	0.000019	-1.002197	0.259466
C61	C	0.097652	-0.920020	0.235657
C62	C	0.097659	-0.809475	0.292462
C63	C	0.000032	-0.781107	0.373075
C64	C	-0.097609	-0.863286	0.396888
C65	C	-0.097615	-0.973831	0.340083
H66	H	0.169928	-0.941018	0.175979
H67	H	0.169939	-0.748641	0.274834
H68	H	0.000036	-0.699275	0.415125
H69	H	-0.169885	-0.842288	0.456566
H70	H	-0.169896	-1.034665	0.357712
H71	H	0.000024	-0.562444	-0.462191
H72	H	0.000108	-0.573495	-0.120630
C73	C	0.287044	-1.097602	-0.418465
C74	C	0.156873	-1.105941	-0.410126
C75	C	0.091800	-1.039545	-0.476489
C76	C	0.156897	-0.964811	-0.551190
C77	C	0.287075	-0.956469	-0.559533
C78	C	0.352149	-1.022865	-0.493170
H79	H	0.108678	-1.161267	-0.354824
H80	H	-0.004567	-1.045721	-0.470313
H81	H	0.108726	-0.915661	-0.600316
H82	H	0.335270	-0.901143	-0.614834
H83	H	0.448515	-1.016689	-0.499346
H84	H	-0.000009	-1.447536	0.422901
H85	H	0.518656	-1.101102	-0.414980
H86	H	0.000012	-1.470613	0.224468
H87	H	-0.000004	-1.105969	0.411844
C88	C	0.000009	-0.725880	-0.016852
C89	C	0.097633	-0.645250	0.011533
C90	C	0.097624	-0.588448	0.122079
C91	C	-0.000009	-0.612276	0.204241
C92	C	-0.097640	-0.692910	0.175859
C93	C	-0.097631	-0.749712	0.065313
H94	H	0.169913	-0.627608	-0.049291
H95	H	0.169897	-0.528757	0.143088
H96	H	-0.000015	-0.570228	0.286074
H97	H	-0.169920	-0.710552	0.236682
H98	H	-0.169904	-0.809403	0.044303
H99	H	0.000013	-0.928000	-0.410219
H100	H	0.000005	-0.939091	-0.068646
H101	H	0.000022	-1.395563	0.057344
H102	H	0.000033	-1.053990	0.046252
