data_functionalizedCrystal
_audit_creation_method	'MofGen! by Chris Wilmer'
_symmetry_space_group_name_H-M	'P1'
_symmetry_Int_Tables_number	1
_symmetry_cell_setting	triclinic
loop_
_symmetry_equiv_pos_as_xyz
  x,y,z
_cell_length_a	12.827892
_cell_length_b	21.395362
_cell_length_c	21.395355
_cell_angle_alpha	89.956060
_cell_angle_beta	90.013138
_cell_angle_gamma	89.968728
loop_
_atom_site_label
_atom_site_type_symbol
_atom_site_fract_x
_atom_site_fract_y
_atom_site_fract_z
Zn1	Zn	-0.415711	-0.957926	0.354609
Zn2	Zn	0.084289	-0.457926	0.854609
Zn3	Zn	-0.590438	-0.957857	0.249841
Zn4	Zn	-0.090438	-0.457857	0.749841
Zn5	Zn	-0.415760	-0.853141	0.249810
Zn6	Zn	0.084240	-0.353141	0.749810
Zn7	Zn	-0.590459	-0.853138	0.354546
Zn8	Zn	-0.090459	-0.353138	0.854546
O9	O	-0.503092	-0.905516	0.302202
O10	O	-0.003092	-0.405516	0.802202
O11	O	-0.438860	-1.045595	0.340751
O12	O	0.061140	-0.545595	0.840751
O13	O	-0.567278	-0.943938	0.162159
O14	O	-0.067278	-0.443938	0.662159
O15	O	-0.269517	-0.867071	0.263725
O16	O	0.230483	-0.367071	0.763725
O17	O	-0.567231	-1.045544	0.263778
O18	O	-0.067231	-0.545544	0.763778
O19	O	-0.269482	-0.944056	0.340721
O20	O	0.230518	-0.444056	0.840721
O21	O	-0.438943	-0.867004	0.162137
O22	O	0.061057	-0.367004	0.662137
O23	O	-0.438963	-0.765463	0.263664
O24	O	0.061037	-0.265463	0.763664
O25	O	-0.567267	-0.867067	0.442232
O26	O	-0.067267	-0.367067	0.942232
O27	O	-0.567314	-0.765461	0.340613
O28	O	-0.067314	-0.265461	0.840613
O29	O	-0.438881	-0.944054	0.442279
O30	O	0.061119	-0.444054	0.942279
O31	O	-0.736677	-0.943935	0.263717
O32	O	-0.236677	-0.443935	0.763717
O33	O	-0.736692	-0.866999	0.340643
O34	O	-0.236692	-0.366999	0.840643
C35	C	-0.503147	-0.742728	0.302129
C36	C	-0.003147	-0.242728	0.802129
C37	C	-0.503196	-0.673087	0.302113
C38	C	-0.003196	-0.173087	0.802113
C39	C	-0.774602	-0.905476	0.302191
C40	C	-0.274602	-0.405476	0.802191
C41	C	-0.890755	-0.905517	0.302207
C42	C	-0.390755	-0.405517	0.802207
C43	C	-0.503071	-0.905568	0.465625
C44	C	-0.003071	-0.405568	0.965625
C45	C	-0.503062	-0.905590	0.535266
C46	C	-0.003062	-0.405590	1.035266
C47	C	-0.942497	-0.943633	0.264184
C48	C	-0.442497	-0.443633	0.764184
C49	C	-1.062548	-0.943675	0.264200
C50	C	-0.562548	-0.443675	0.764200
C51	C	-0.230522	-0.905572	0.302227
C52	C	0.269478	-0.405572	0.802227
C53	C	-0.114369	-0.905596	0.302237
C54	C	0.385631	-0.405596	0.802237
C55	C	-0.503037	-1.068939	0.302275
C56	C	-0.003037	-0.568939	0.802275
C57	C	-0.503014	-1.138580	0.302306
C58	C	-0.003014	-0.638580	0.802306
C59	C	-0.570117	-0.640389	0.342120
C60	C	-0.070117	-0.140389	0.842120
C61	C	-0.570091	-0.574953	0.342148
C62	C	-0.070091	-0.074953	0.842148
C63	C	-0.503156	-0.542218	0.302157
C64	C	-0.003156	-0.042218	0.802157
C65	C	-0.436222	-0.574924	0.262147
C66	C	0.063778	-0.074924	0.762147
C67	C	-0.436242	-0.640358	0.262125
C68	C	0.063758	-0.140358	0.762125
C69	C	-0.494737	-0.438492	0.245752
C70	C	0.005263	0.061508	0.745752
C71	C	-0.494724	-0.373059	0.245773
C72	C	0.005276	0.126941	0.745773
C73	C	-0.503088	-0.340398	0.302227
C74	C	-0.003088	0.159602	0.802227
C75	C	-0.511486	-0.373177	0.358661
C76	C	-0.011486	0.126823	0.858661
C77	C	-0.511506	-0.438611	0.358638
C78	C	-0.011506	0.061389	0.858638
C79	C	-0.503126	-0.471266	0.302177
C80	C	-0.003126	0.028734	0.802177
C81	C	-0.569984	-0.236747	0.342268
C82	C	-0.069984	0.263253	0.842268
C83	C	-0.569951	-0.171311	0.342297
C84	C	-0.069951	0.328689	0.842297
C85	C	-0.436087	-0.171283	0.262290
C86	C	0.063913	0.328717	0.762290
C87	C	-0.436115	-0.236718	0.262267
C88	C	0.063885	0.263282	0.762267
C89	C	-0.503069	-0.269446	0.302255
C90	C	-0.003069	0.230554	0.802255
C91	C	-0.503038	-0.905500	0.139414
C92	C	-0.003038	-0.405500	0.639414
C93	C	-0.502752	-0.905599	0.069773
C94	C	-0.002752	-0.405599	0.569773
C95	C	-0.436208	-0.945675	0.568005
C96	C	0.063792	-0.445675	1.068005
C97	C	-0.436163	-0.945674	0.633440
C98	C	0.063837	-0.445674	1.133440
C99	C	-0.502991	-0.905595	0.666135
C100	C	-0.002991	-0.405595	1.166135
C101	C	-0.569849	-0.865501	0.633389
C102	C	-0.069849	-0.365501	1.133389
C103	C	-0.569885	-0.865499	0.567954
C104	C	-0.069885	-0.365499	1.067954
C105	C	-0.597087	-0.900634	0.769804
C106	C	-0.097087	-0.400634	1.269804
C107	C	-0.597053	-0.900641	0.835237
C108	C	-0.097053	-0.400641	1.335237
C109	C	-0.502880	-0.905598	0.867956
C110	C	-0.002880	-0.405598	1.367956
C111	C	-0.408738	-0.910563	0.835233
C112	C	0.091262	-0.410563	1.335233
C113	C	-0.408774	-0.910560	0.769799
C114	C	0.091226	-0.410560	1.269799
C115	C	-0.502959	-0.905592	0.737087
C116	C	-0.002959	-0.405592	1.237087
C117	C	-0.435972	-0.945685	0.971646
C118	C	0.064028	-0.445685	1.471646
C119	C	-0.435925	-0.945680	1.037083
C120	C	0.064075	-0.445680	1.537083
C121	C	-0.569621	-0.865510	1.037030
C122	C	-0.069621	-0.365510	1.537030
C123	C	-0.569658	-0.865512	0.971595
C124	C	-0.069658	-0.365512	1.471595
C125	C	-0.502835	-0.905603	0.938907
C126	C	-0.002835	-0.405603	1.438907
H127	H	-0.897922	-0.976236	0.231621
H128	H	-0.397922	-0.476236	0.731621
O129	O	-0.642271	-0.136085	0.385405
O130	O	-0.142271	0.363915	0.885405
H131	H	-0.624590	-0.148703	0.434609
H132	H	-0.124590	0.351297	0.934609
O133	O	-0.520552	-0.473967	0.419502
O134	O	-0.020552	0.026033	0.919502
H135	H	-0.450572	-0.503818	0.425948
H136	H	0.049428	-0.003818	0.925948
H137	H	-1.107045	-0.976306	0.231645
H138	H	-0.607045	-0.476306	0.731645
O139	O	-0.363939	-0.271986	0.219110
O140	O	0.136061	0.228014	0.719110
H141	H	-0.375192	-0.322986	0.225816
H142	H	0.124808	0.177014	0.725816
O143	O	-1.055449	-0.862358	0.345356
O144	O	-0.555449	-0.362358	0.845356
H145	H	-1.076284	-0.873068	0.394559
H146	H	-0.576284	-0.373068	0.894559
O147	O	-0.363813	-0.988913	1.072401
O148	O	0.136187	-0.488913	1.572401
H149	H	-0.381739	-1.038084	1.059889
H150	H	0.118261	-0.538084	1.559889
H151	H	-0.935333	-0.872919	0.334774
H152	H	-0.435333	-0.372919	0.834774
O153	O	-0.698670	-0.895280	0.734522
O154	O	-0.198670	-0.395280	1.234522
H155	H	-0.709339	-0.937245	0.704736
H156	H	-0.209339	-0.437245	1.204736
H157	H	-0.381744	-0.666980	0.229546
H158	H	0.118256	-0.166980	0.729546
O159	O	-0.307242	-0.915908	0.734506
O160	O	0.192758	-0.415908	1.234506
H161	H	-0.308901	-0.958354	0.704729
H162	H	0.191099	-0.458354	1.204729
O163	O	-0.641927	-0.822269	0.668646
O164	O	-0.141927	-0.322269	1.168646
H165	H	-0.630678	-0.829009	0.719648
H166	H	-0.130678	-0.329009	1.219648
H167	H	-0.518294	-0.346585	0.404631
H168	H	-0.018294	0.153415	0.904631
H169	H	-0.624635	-0.667032	0.374682
H170	H	-0.124635	-0.167032	0.874682
H171	H	-0.624022	-0.832870	1.063650
H172	H	-0.124022	-0.332870	1.563650
O173	O	-0.642313	-0.539674	0.385276
O174	O	-0.142313	-0.039674	0.885276
H175	H	-0.688889	-0.573425	0.413067
H176	H	-0.188889	-0.073425	0.913067
H177	H	-0.381555	-0.978326	0.945030
H178	H	0.118445	-0.478326	1.445030
O179	O	-0.642156	-0.272059	0.385413
O180	O	-0.142156	0.227941	0.885413
H181	H	-0.695276	-0.301819	0.357317
H182	H	-0.195276	0.198181	0.857317
H183	H	-0.381582	-0.144630	0.229732
H184	H	0.118418	0.355370	0.729732
H185	H	-0.487893	-0.346375	0.199821
H186	H	0.012107	0.153625	0.699821
O187	O	-0.307151	-0.915894	0.870511
O188	O	0.192849	-0.415894	1.370511
H189	H	-0.322935	-0.915048	0.921508
H190	H	0.177065	-0.415048	1.421508
O191	O	-0.364136	-0.988914	0.532748
O192	O	0.135864	-0.488914	1.032748
H193	H	-0.282115	-0.978186	0.545292
H194	H	0.217885	-0.478186	1.045292
O195	O	-0.641971	-0.822249	0.532637
O196	O	-0.141971	-0.322249	1.032637
H197	H	-0.688427	-0.794372	0.566362
H198	H	-0.188427	-0.294372	1.066362
H199	H	-0.487922	-0.465080	0.199777
H200	H	0.012078	0.034920	0.699777
O201	O	-0.364047	-0.539623	0.218999
O202	O	0.135953	-0.039623	0.718999
H203	H	-0.375291	-0.488628	0.225726
H204	H	0.124709	0.011372	0.725726
H205	H	-0.381717	-0.978315	0.660101
H206	H	0.118283	-0.478315	1.160101
H207	H	-0.624104	-0.832874	0.944939
H208	H	-0.124104	-0.332874	1.444939
H209	H	-0.673709	-0.896602	0.861874
H210	H	-0.173709	-0.396602	1.361874
