data_functionalizedCrystal
_audit_creation_method	'MofGen! by Chris Wilmer'
_symmetry_space_group_name_H-M	'P1'
_symmetry_Int_Tables_number	1
_symmetry_cell_setting	triclinic
loop_
_symmetry_equiv_pos_as_xyz
  x,y,z
_cell_length_a	14.044220
_cell_length_b	9.065218
_cell_length_c	8.140239
_cell_angle_alpha	89.999539
_cell_angle_beta	90.006592
_cell_angle_gamma	90.897619
loop_
_atom_site_label
_atom_site_type_symbol
_atom_site_fract_x
_atom_site_fract_y
_atom_site_fract_z
O1	O	0.139144	-1.975813	0.136623
O2	O	0.150557	-1.547793	0.136626
O3	O	0.006810	-1.755378	0.136608
O4	O	0.282890	-1.768227	0.136641
O5	O	0.006803	-1.755376	-0.136619
O6	O	0.150549	-1.547790	-0.136601
O7	O	0.139136	-1.975810	-0.136604
Zn8	Zn	0.144842	-1.761800	-0.179983
Zn9	Zn	0.144851	-1.761803	0.180005
O10	O	0.282883	-1.768225	-0.136586
C11	C	-0.028556	-1.749752	-0.000006
C12	C	-0.133926	-1.732975	-0.000008
C13	C	0.149456	-1.492683	0.000013
C14	C	0.146176	-1.328477	0.000013
C15	C	0.140237	-2.030920	0.000013
C16	C	0.143517	-2.195126	0.000023
C17	C	-0.326850	-1.702304	0.000016
C18	C	-0.383462	-1.821293	0.000020
C19	C	-0.490812	-1.804226	0.000034
C20	C	-0.219491	-1.719368	0.000003
C21	C	0.318249	-1.773850	0.000032
C22	C	0.423619	-1.790627	0.000044
N23	N	0.144851	-1.761805	0.425688
N24	N	0.144834	-1.761808	-0.425666
H25	H	-0.351306	-1.935980	0.000130
O26	O	-0.365360	-1.565597	-0.000062
C27	C	-0.509034	-1.423739	0.000029
C28	C	-0.465534	-1.578641	0.000089
H29	H	-0.590031	-1.434233	0.000186
H30	H	-0.484706	-1.361139	-0.114352
H31	H	-0.484559	-1.361159	0.114338
H32	H	-0.489989	-1.641344	-0.114143
H33	H	-0.489859	-1.641129	0.114545
