data_functionalizedCrystal
_audit_creation_method	'MofGen! by Chris Wilmer'
_symmetry_space_group_name_H-M	'P1'
_symmetry_Int_Tables_number	1
_symmetry_cell_setting	triclinic
loop_
_symmetry_equiv_pos_as_xyz
  x,y,z
_cell_length_a	9.065215
_cell_length_b	9.065218
_cell_length_c	8.140239
_cell_angle_alpha	89.998314
_cell_angle_beta	90.001981
_cell_angle_gamma	94.984675
loop_
_atom_site_label
_atom_site_type_symbol
_atom_site_fract_x
_atom_site_fract_y
_atom_site_fract_z
O1	O	-1.960400	0.216335	-0.136579
O2	O	-1.460400	0.716335	0.363421
O3	O	-1.531115	0.234086	-0.136588
O4	O	-1.031115	0.734086	0.363412
O5	O	-1.754631	0.010568	-0.136580
O6	O	-1.254631	0.510568	0.363420
O7	O	-1.736884	0.439853	-0.136587
O8	O	-1.236884	0.939853	0.363413
O9	O	-1.754618	0.010565	0.136647
O10	O	-1.254618	0.510565	0.636647
O11	O	-1.531102	0.234083	0.136639
O12	O	-1.031102	0.734083	0.636639
O13	O	-1.960388	0.216333	0.136648
O14	O	-1.460388	0.716333	0.636648
Zn15	Zn	-1.745743	0.225208	0.180024
Zn16	Zn	-1.245743	0.725208	0.680024
Zn17	Zn	-1.745760	0.225211	-0.179964
Zn18	Zn	-1.245760	0.725211	0.320036
O19	O	-1.736872	0.439850	0.136640
O20	O	-1.236872	0.939850	0.636640
C21	C	-1.476122	0.232380	0.000025
C22	C	-0.976122	0.732380	0.500025
C23	C	-1.312279	0.227282	0.000021
C24	C	-0.812279	0.727282	0.500021
C25	C	-1.752919	-0.044420	0.000031
C26	C	-1.252919	0.455580	0.500031
C27	C	-1.747819	-0.208263	0.000023
C28	C	-1.247819	0.291737	0.500023
C29	C	-1.015381	0.218039	0.000031
C30	C	-0.515381	0.718039	0.500031
C31	C	-1.179224	0.223136	0.000021
C32	C	-0.679224	0.723136	0.500021
C33	C	-1.738584	0.494838	0.000026
C34	C	-1.238584	0.994838	0.500026
C35	C	-1.743683	0.658681	0.000023
C36	C	-1.243683	1.158681	0.500023
N37	N	-1.745743	0.225204	0.425707
N38	N	-1.245743	0.725204	0.925707
N39	N	-1.745772	0.225203	-0.425647
N40	N	-1.245772	0.725203	0.074353
