data_functionalizedCrystal
_audit_creation_method	'MofGen! by Chris Wilmer'
_symmetry_space_group_name_H-M	'P1'
_symmetry_Int_Tables_number	1
_symmetry_cell_setting	triclinic
loop_
_symmetry_equiv_pos_as_xyz
  x,y,z
_cell_length_a	11.792241
_cell_length_b	10.540539
_cell_length_c	10.268362
_cell_angle_alpha	89.996859
_cell_angle_beta	89.999626
_cell_angle_gamma	84.359454
loop_
_atom_site_label
_atom_site_type_symbol
_atom_site_fract_x
_atom_site_fract_y
_atom_site_fract_z
O1	O	1.507362	0.173992	-0.108167
O2	O	1.177067	0.191924	-0.108197
O3	O	1.349750	-0.001773	-0.108180
O4	O	1.334679	0.367689	-0.108184
O5	O	1.349735	-0.001781	0.108421
O6	O	1.177052	0.191916	0.108404
O7	O	1.507347	0.173984	0.108433
Cu8	Cu	1.342198	0.182949	0.128196
Cu9	Cu	1.342216	0.182959	-0.127959
O10	O	1.334664	0.367681	0.108416
C11	C	1.134766	0.190793	0.000100
C12	C	1.008743	0.187422	0.000088
C13	C	0.778015	0.181223	0.000126
C14	C	0.906409	0.184667	0.000105
C15	C	1.348612	-0.049076	0.000118
C16	C	1.345231	-0.190014	0.000111
C17	C	1.215660	-0.373018	-0.000387
C18	C	1.219087	-0.226411	0.000101
C19	C	1.405928	-0.251874	0.123806
C20	C	1.401623	-0.398404	0.123910
C21	C	1.404206	-0.398921	-0.122405
C22	C	1.405368	-0.251943	-0.124041
C23	C	1.549648	0.175114	0.000134
C24	C	1.675671	0.178486	0.000137
C25	C	1.335802	0.414984	0.000116
C26	C	1.339183	0.555921	0.000114
N27	N	1.342194	0.182942	0.308362
N28	N	1.342229	0.182956	-0.308125
C29	C	1.342210	0.182956	0.574032
C30	C	1.342197	0.182952	0.426195
H31	H	1.171327	-0.183649	-0.088569
H32	H	1.165836	-0.401453	-0.089091
C33	C	1.148605	-0.413602	0.118765
C34	C	1.192281	-0.390241	0.257196
C35	C	1.125231	-0.430829	0.376350
C36	C	1.014507	-0.494778	0.357074
C37	C	0.970825	-0.518142	0.218638
C38	C	1.037875	-0.477554	0.099484
H39	H	1.274251	-0.342899	0.271470
H40	H	1.157568	-0.413533	0.478829
H41	H	0.964873	-0.524824	0.445279
H42	H	0.888855	-0.565484	0.204364
H43	H	1.005538	-0.494850	-0.002996
H44	H	1.363752	-0.209140	0.215848
C45	C	1.349064	-0.441355	-0.249064
C46	C	1.244279	-0.517570	-0.242854
C47	C	1.189124	-0.560004	-0.369504
C48	C	1.238754	-0.526223	-0.502364
C49	C	1.343546	-0.450005	-0.508579
C50	C	1.398701	-0.407571	-0.381929
H51	H	1.207534	-0.542580	-0.144499
H52	H	1.111550	-0.616426	-0.364902
H53	H	1.197926	-0.557635	-0.596117
H54	H	1.380290	-0.424995	-0.606934
H55	H	1.476274	-0.351149	-0.386531
C56	C	1.345403	-0.196430	-0.247631
C57	C	1.218390	-0.211769	-0.270328
C58	C	1.158396	-0.156240	-0.393897
C59	C	1.225415	-0.085373	-0.494769
C60	C	1.352436	-0.070031	-0.472076
C61	C	1.412430	-0.125559	-0.348507
H62	H	1.168772	-0.264232	-0.195653
H63	H	1.064366	-0.167598	-0.410695
H64	H	1.181004	-0.044267	-0.586242
H65	H	1.402054	-0.017568	-0.546750
H66	H	1.506459	-0.114202	-0.331708
C67	C	1.154110	-0.169783	0.120082
C68	C	1.098942	-0.257981	0.215756
C69	C	1.033965	-0.201353	0.335745
C70	C	1.024156	-0.056527	0.360061
C71	C	1.079326	0.031680	0.264385
C72	C	1.144303	-0.024948	0.144396
H73	H	1.106202	-0.365198	0.197758
H74	H	0.993125	-0.266651	0.406571
H75	H	0.976056	-0.014608	0.448885
H76	H	1.072066	0.138896	0.282383
H77	H	1.185143	0.040349	0.073570
H78	H	1.497336	-0.228021	-0.131502
C79	C	1.524173	-0.463616	0.131535
C80	C	1.625639	-0.382314	0.137516
C81	C	1.748186	-0.447519	0.145155
C82	C	1.769266	-0.594027	0.146814
C83	C	1.667797	-0.675338	0.140834
C84	C	1.545250	-0.610133	0.133194
H85	H	1.610037	-0.273853	0.136288
H86	H	1.823300	-0.387327	0.149583
H87	H	1.859982	-0.642296	0.152470
H88	H	1.683399	-0.783799	0.142061
H89	H	1.470136	-0.670325	0.128766
H90	H	1.495319	-0.446444	-0.123229
C91	C	1.531072	-0.222082	0.130046
C92	C	1.579723	-0.141045	0.022637
C93	C	1.704867	-0.111251	0.028876
C94	C	1.781360	-0.162495	0.142523
C95	C	1.732711	-0.243537	0.249940
C96	C	1.607567	-0.273331	0.243702
H97	H	1.523097	-0.103107	-0.061498
H98	H	1.740880	-0.051258	-0.050642
H99	H	1.873999	-0.140440	0.147140
H100	H	1.789337	-0.281475	0.334076
H101	H	1.571554	-0.333324	0.323220
H102	H	1.356752	-0.426461	0.216366
