data_functionalizedCrystal
_audit_creation_method	'MofGen! by Chris Wilmer'
_symmetry_space_group_name_H-M	'P1'
_symmetry_Int_Tables_number	1
_symmetry_cell_setting	triclinic
loop_
_symmetry_equiv_pos_as_xyz
  x,y,z
_cell_length_a	16.625546
_cell_length_b	19.805407
_cell_length_c	19.805407
_cell_angle_alpha	90.007450
_cell_angle_beta	90.013603
_cell_angle_gamma	90.019784
loop_
_atom_site_label
_atom_site_type_symbol
_atom_site_fract_x
_atom_site_fract_y
_atom_site_fract_z
Zn1	Zn	-0.321192	1.034685	0.382686
Zn2	Zn	0.012142	1.368018	0.716019
Zn3	Zn	0.345475	1.701352	1.049353
Zn4	Zn	-0.455995	1.034628	0.269497
Zn5	Zn	-0.122662	1.367961	0.602831
Zn6	Zn	0.210671	1.701295	0.936164
Zn7	Zn	-0.321174	0.921520	0.269514
Zn8	Zn	0.012159	1.254853	0.602848
Zn9	Zn	0.345493	1.588187	0.936181
Zn10	Zn	-0.455980	0.921471	0.382648
Zn11	Zn	-0.122646	1.254804	0.715981
Zn12	Zn	0.210687	1.588138	1.049314
O13	O	-0.388585	0.978076	0.326086
O14	O	-0.055252	1.311409	0.659420
O15	O	0.278082	1.644743	0.992753
O16	O	-0.339087	1.129394	0.367680
O17	O	-0.005754	1.462727	0.701014
O18	O	0.327579	1.796061	1.034347
O19	O	-0.438110	1.019621	0.174783
O20	O	-0.104777	1.352954	0.508116
O21	O	0.228557	1.686287	0.841450
O22	O	-0.208344	0.936576	0.284550
O23	O	0.124989	1.269909	0.617883
O24	O	0.458323	1.603243	0.951217
O25	O	-0.438127	1.129352	0.284521
O26	O	-0.104794	1.462686	0.617854
O27	O	0.228540	1.796019	0.951188
O28	O	-0.208357	1.019718	0.367697
O29	O	0.124976	1.353051	0.701030
O30	O	0.458310	1.686384	1.034363
O31	O	-0.339057	0.936521	0.174795
O32	O	-0.005724	1.269854	0.508129
O33	O	0.327609	1.603188	0.841462
O34	O	-0.339042	0.826797	0.284513
O35	O	-0.005709	1.160130	0.617846
O36	O	0.327624	1.493464	0.951179
O37	O	-0.438101	0.936492	0.477369
O38	O	-0.104767	1.269826	0.810703
O39	O	0.228566	1.603159	1.144036
O40	O	-0.438083	0.826761	0.367631
O41	O	-0.104750	1.160094	0.700964
O42	O	0.228583	1.493428	1.034298
O43	O	-0.339072	1.019670	0.477398
O44	O	-0.005739	1.353003	0.810731
O45	O	0.327594	1.686337	1.144064
O46	O	-0.568825	1.019573	0.284484
O47	O	-0.235492	1.352906	0.617817
O48	O	0.097841	1.686240	0.951150
O49	O	-0.568814	0.936437	0.367615
O50	O	-0.235481	1.269770	0.700948
O51	O	0.097853	1.603104	1.034281
C52	C	-0.388560	0.802220	0.326070
C53	C	-0.055226	1.135553	0.659403
C54	C	0.278107	1.468887	0.992737
C55	C	-0.388568	0.726988	0.326079
C56	C	-0.055235	1.060321	0.659412
C57	C	0.278098	1.393655	0.992746
C58	C	-0.337090	0.691666	0.369446
C59	C	-0.003756	1.025000	0.702779
C60	C	0.329577	1.358333	1.036112
C61	C	-0.337094	0.620978	0.369448
C62	C	-0.003761	0.954311	0.702782
C63	C	0.329573	1.287645	1.036115
C64	C	-0.388582	0.585612	0.326087
C65	C	-0.055248	0.918946	0.659420
C66	C	0.278085	1.252279	0.992754
C67	C	-0.440063	0.620939	0.282715
C68	C	-0.106729	0.954272	0.616049
C69	C	0.226604	1.287606	0.949382
C70	C	-0.440054	0.691626	0.282710
C71	C	-0.106720	1.024960	0.616043
C72	C	0.226613	1.358293	0.949377
C73	C	-0.440099	0.335866	0.282736
C74	C	-0.106765	0.669199	0.616069
C75	C	0.226568	1.002533	0.949403
C76	C	-0.440105	0.265174	0.282746
C77	C	-0.106772	0.598507	0.616080
C78	C	0.226561	0.931840	0.949413
C79	C	-0.337139	0.265217	0.369475
C80	C	-0.003806	0.598551	0.702808
C81	C	0.329528	0.931884	1.036141
C82	C	-0.337130	0.335905	0.369469
C83	C	-0.003797	0.669238	0.702802
C84	C	0.329536	1.002571	1.036136
C85	C	-0.388608	0.371225	0.326095
C86	C	-0.055274	0.704558	0.659429
C87	C	0.278059	1.037892	0.992762
C88	C	-0.388602	0.447874	0.326092
C89	C	-0.055268	0.781207	0.659425
C90	C	0.278065	1.114540	0.992759
C91	C	-0.388593	0.508965	0.326093
C92	C	-0.055259	0.842299	0.659427
C93	C	0.278074	1.175632	0.992760
C94	C	-0.598076	0.978012	0.326058
C95	C	-0.264743	1.311345	0.659391
C96	C	0.068591	1.644679	0.992725
C97	C	-0.687697	0.978047	0.326068
C98	C	-0.354364	1.311380	0.659402
C99	C	-0.021030	1.644713	0.992735
C100	C	-1.015873	0.978165	0.326139
C101	C	-0.682539	1.311498	0.659472
C102	C	-0.349206	1.644831	0.992806
C103	C	-0.924564	0.978130	0.326121
C104	C	-0.591231	1.311463	0.659455
C105	C	-0.257898	1.644796	0.992788
C106	C	-0.851788	0.978105	0.326103
C107	C	-0.518454	1.311438	0.659437
C108	C	-0.185121	1.644772	0.992770
C109	C	-0.760473	0.978071	0.326086
C110	C	-0.427140	1.311404	0.659420
C111	C	-0.093807	1.644738	0.992753
C112	C	-0.178276	0.978159	0.326130
C113	C	0.155057	1.311492	0.659463
C114	C	0.488391	1.644825	0.992796
C115	C	-0.088655	0.978194	0.326148
C116	C	0.244678	1.311527	0.659481
C117	C	0.578012	1.644861	0.992815
C118	C	-0.388587	0.978082	0.502629
C119	C	-0.055253	1.311415	0.835962
C120	C	0.278080	1.644749	1.169296
C121	C	-0.388587	0.978085	0.577861
C122	C	-0.055254	1.311418	0.911194
C123	C	0.278079	1.644751	1.244528
C124	C	-0.388611	1.154619	0.326103
C125	C	-0.055278	1.487952	0.659437
C126	C	0.278056	1.821285	0.992770
C127	C	-0.388622	1.229851	0.326110
C128	C	-0.055289	1.563184	0.659444
C129	C	0.278045	1.896517	0.992777
C130	C	-0.337031	1.021390	0.613221
C131	C	-0.003698	1.354723	0.946554
C132	C	0.329635	1.688057	1.279888
C133	C	-0.337029	1.021384	0.683909
C134	C	-0.003696	1.354717	1.017243
C135	C	0.329638	1.688051	1.350576
C136	C	-0.388587	0.978076	0.719237
C137	C	-0.055254	1.311409	1.052570
C138	C	0.278080	1.644743	1.385903
C139	C	-0.440145	0.934766	0.683872
C140	C	-0.106812	1.268099	1.017205
C141	C	0.226521	1.601433	1.350538
C142	C	-0.440143	0.934769	0.613184
C143	C	-0.106810	1.268102	0.946518
C144	C	0.226523	1.601435	1.279851
C145	C	-0.440155	0.934753	0.968945
C146	C	-0.106822	1.268086	1.302278
C147	C	0.226512	1.601419	1.635612
C148	C	-0.440155	0.934754	1.039637
C149	C	-0.106822	1.268088	1.372970
C150	C	0.226512	1.601421	1.706304
C151	C	-0.337041	1.021368	1.039670
C152	C	-0.003707	1.354701	1.373003
C153	C	0.329626	1.688035	1.706337
C154	C	-0.337038	1.021371	0.968983
C155	C	-0.003705	1.354704	1.302316
C156	C	0.329628	1.688037	1.635649
C157	C	-0.388593	0.978059	0.933624
C158	C	-0.055260	1.311392	1.266957
C159	C	0.278073	1.644725	1.600291
C160	C	-0.388594	0.978064	0.856976
C161	C	-0.055261	1.311398	1.190309
C162	C	0.278073	1.644731	1.523642
C163	C	-0.388591	0.978073	0.795884
C164	C	-0.055258	1.311406	1.129217
C165	C	0.278076	1.644740	1.462550
C166	C	-0.388600	0.978064	1.150230
C167	C	-0.055266	1.311397	1.483564
C168	C	0.278067	1.644730	1.816897
C169	C	-0.388594	0.978057	1.074998
C170	C	-0.055261	1.311390	1.408332
C171	C	0.278073	1.644723	1.741665
H172	H	-0.295206	0.364696	0.404781
H173	H	0.038127	0.698029	0.738114
H174	H	0.371460	1.031362	1.071447
Br175	Br	-0.510114	0.875985	0.731815
Br176	Br	-0.176780	1.209319	1.065148
Br177	Br	0.156553	1.542652	1.398481
Br178	Br	-0.267228	0.573043	0.428307
Br179	Br	0.066106	0.906377	0.761640
Br180	Br	0.399439	1.239710	1.094973
H181	H	-0.295221	0.236451	0.404789
H182	H	0.038113	0.569784	0.738123
H183	H	0.371446	0.903118	1.071456
H184	H	-0.482035	0.236381	0.247434
H185	H	-0.148701	0.569715	0.580767
H186	H	0.184632	0.903048	0.914101
Br187	Br	-0.510133	0.875976	1.087581
Br188	Br	-0.176799	1.209309	1.420914
Br189	Br	0.156534	1.542642	1.754248
H190	H	-0.481972	0.720384	0.247396
H191	H	-0.148639	1.053718	0.580729
H192	H	0.184694	1.387051	0.914062
Br193	Br	-0.510110	0.875991	0.565195
Br194	Br	-0.176777	1.209324	0.898528
Br195	Br	0.156557	1.542657	1.231862
H196	H	-0.295049	1.056659	0.584463
H197	H	0.038284	1.389992	0.917796
H198	H	0.371618	1.723325	1.251129
Br199	Br	-0.509933	0.572944	0.223861
Br200	Br	-0.176600	0.906277	0.557195
Br201	Br	0.156734	1.239611	0.890528
Br202	Br	-0.267070	1.080149	1.087660
Br203	Br	0.066263	1.413483	1.420994
Br204	Br	0.399596	1.746816	1.754327
Br205	Br	-0.267094	1.080190	0.731896
Br206	Br	0.066239	1.413523	1.065229
Br207	Br	0.399572	1.746856	1.398562
Br208	Br	-0.267215	0.739655	0.428301
Br209	Br	0.066118	1.072989	0.761635
Br210	Br	0.399451	1.406322	1.094968
Br211	Br	-0.509940	0.383792	0.223854
Br212	Br	-0.176607	0.717125	0.557187
Br213	Br	0.156727	1.050459	0.890521
H214	H	-0.295057	1.056639	0.940223
H215	H	0.038276	1.389972	1.273556
H216	H	0.371610	1.723306	1.606889
H217	H	-0.482146	0.899495	0.940164
H218	H	-0.148813	1.232828	1.273498
H219	H	0.184521	1.566162	1.606831
