data_functionalizedCrystal
_audit_creation_method	'MofGen! by Chris Wilmer'
_symmetry_space_group_name_H-M	'P1'
_symmetry_Int_Tables_number	1
_symmetry_cell_setting	triclinic
loop_
_symmetry_equiv_pos_as_xyz
  x,y,z
_cell_length_a	15.995350
_cell_length_b	19.188930
_cell_length_c	15.072220
_cell_angle_alpha	89.993728
_cell_angle_beta	89.991149
_cell_angle_gamma	83.318578
loop_
_atom_site_label
_atom_site_type_symbol
_atom_site_fract_x
_atom_site_fract_y
_atom_site_fract_z
O1	O	1.110666	0.089991	-0.073718
O2	O	1.610666	0.589991	0.426282
O3	O	0.866850	0.101105	-0.073737
O4	O	1.366850	0.601105	0.426263
O5	O	0.995794	-0.006090	-0.073709
O6	O	1.495794	0.493910	0.426291
O7	O	0.981722	0.197186	-0.073745
O8	O	1.481722	0.697186	0.426255
O9	O	0.995763	-0.006084	0.073856
O10	O	1.495763	0.493916	0.573856
O11	O	0.866819	0.101111	0.073828
O12	O	1.366819	0.601111	0.573828
O13	O	1.110634	0.089997	0.073848
O14	O	1.610634	0.589997	0.573848
Zn15	Zn	0.988721	0.095555	0.097267
Zn16	Zn	1.488721	0.595555	0.597267
Zn17	Zn	0.988763	0.095547	-0.097156
Zn18	Zn	1.488763	0.595547	0.402844
O19	O	0.981690	0.197192	0.073820
O20	O	1.481690	0.697192	0.573820
C21	C	0.835641	0.100648	0.000043
C22	C	1.335641	0.600648	0.500043
C23	C	0.742696	0.099271	0.000037
C24	C	1.242696	0.599271	0.500037
C25	C	0.995323	-0.032099	0.000076
C26	C	1.495323	0.467901	0.500076
C27	C	0.993955	-0.109607	0.000083
C28	C	1.493955	0.390393	0.500083
C29	C	0.404967	0.094324	0.000056
C30	C	0.904967	0.594324	0.500056
C31	C	0.452680	0.017982	0.000398
C32	C	0.952680	0.517982	0.500398
C33	C	0.549365	0.019360	0.000059
C34	C	1.049365	0.519360	0.500059
C35	C	0.572518	0.096778	0.000047
C36	C	1.072518	0.596778	0.500047
C37	C	0.531311	0.134429	-0.084223
C38	C	1.031311	0.634429	0.415777
C39	C	0.434683	0.132511	-0.084287
C40	C	0.934683	0.632511	0.415713
C41	C	0.434302	0.134095	0.083522
C42	C	0.934302	0.634095	0.583522
C43	C	0.531247	0.134077	0.084629
C44	C	1.031247	0.634077	0.584629
C45	C	0.667211	0.098169	0.000039
C46	C	1.167211	0.598169	0.500039
C47	C	0.310274	0.092936	0.000058
C48	C	0.810274	0.592936	0.500058
C49	C	1.069615	-0.154338	0.000093
C50	C	1.569615	0.345662	0.500093
C51	C	1.068330	-0.227165	0.000079
C52	C	1.568330	0.272835	0.500079
C53	C	0.991380	-0.255258	0.000072
C54	C	1.491380	0.244742	0.500072
C55	C	0.915710	-0.210517	0.000057
C56	C	1.415710	0.289483	0.500057
C57	C	0.916997	-0.137691	0.000062
C58	C	1.416997	0.362309	0.500062
N59	N	0.932550	-0.363410	0.050287
N60	N	1.432550	0.136590	0.550287
N61	N	0.931333	-0.432592	0.050284
N62	N	1.431333	0.067408	0.550284
C63	C	0.987497	-0.474676	0.000054
C64	C	1.487497	0.025324	0.500054
N65	N	1.044937	-0.444966	-0.050161
N66	N	1.544937	0.055034	0.449839
N67	N	1.046158	-0.375779	-0.050154
N68	N	1.546158	0.124221	0.449846
C69	C	0.989976	-0.334224	0.000066
C70	C	1.489976	0.165776	0.500066
C71	C	1.061769	-0.598375	0.000048
C72	C	1.561769	-0.098375	0.500048
C73	C	1.060480	-0.671204	0.000028
C74	C	1.560480	-0.171204	0.500028
C75	C	0.907859	-0.654553	0.000015
C76	C	1.407859	-0.154553	0.500015
C77	C	0.909149	-0.581727	0.000025
C78	C	1.409149	-0.081727	0.500025
C79	C	0.986106	-0.553643	0.000046
C80	C	1.486106	-0.053643	0.500046
C81	C	1.141843	0.090454	0.000065
C82	C	1.641843	0.590454	0.500065
C83	C	1.234789	0.091831	0.000066
C84	C	1.734789	0.591831	0.500066
C85	C	0.982162	0.223201	0.000033
C86	C	1.482162	0.723201	0.500033
C87	C	0.983530	0.300709	0.000019
C88	C	1.483530	0.800709	0.500019
N89	N	0.988699	0.095560	0.229956
N90	N	1.488699	0.595560	0.729956
N91	N	0.988792	0.095537	-0.229845
N92	N	1.488792	0.595537	0.270155
C93	C	0.988762	0.095544	0.589157
C94	C	1.488762	0.595544	1.089157
C95	C	0.919536	0.152710	0.551535
C96	C	1.419536	0.652710	1.051535
C97	C	0.919693	0.152918	0.448710
C98	C	1.419693	0.652918	0.948710
C99	C	0.988730	0.095552	0.410953
C100	C	1.488730	0.595552	0.910953
C101	C	1.076036	0.111464	0.448248
C102	C	1.576036	0.611464	0.948248
C103	C	1.075648	0.111870	0.551106
C104	C	1.575648	0.611870	1.051106
C105	C	0.971460	0.022298	0.551269
C106	C	1.471460	0.522298	1.051269
C107	C	0.969454	0.022787	0.448405
C108	C	1.469454	0.522787	0.948405
C109	C	0.988717	0.095555	0.310240
C110	C	1.488717	0.595555	0.810240
C111	C	0.988780	0.095543	0.689871
C112	C	1.488780	0.595543	1.189871
H113	H	0.577890	-0.010236	0.060468
H114	H	1.077890	0.489764	0.560468
O115	O	0.835387	-0.089442	0.000068
O116	O	1.335387	0.410558	0.500068
H117	H	0.798555	-0.099420	-0.060077
H118	H	1.298555	0.400580	0.439923
H119	H	1.132280	-0.131477	0.000107
H120	H	1.632280	0.368523	0.500107
H121	H	0.434257	-0.012531	0.060832
H122	H	0.934257	0.487469	0.560832
H123	H	0.433211	-0.012395	-0.059692
H124	H	0.933211	0.487605	0.440308
H125	H	0.546404	0.190533	0.089710
H126	H	1.046404	0.690533	0.589710
O127	O	0.586432	-0.020110	-0.080087
O128	O	1.086432	0.479890	0.419913
H129	H	0.655698	-0.019269	-0.080605
H130	H	1.155698	0.480731	0.419395
H131	H	0.402334	0.190382	0.084082
H132	H	0.902334	0.690382	0.584082
H133	H	0.413844	0.109140	0.147396
H134	H	0.913844	0.609140	0.647396
O135	O	0.567541	0.097677	0.167217
O136	O	1.067541	0.597677	0.667217
H137	H	0.614780	0.053207	0.148113
H138	H	1.114780	0.553207	0.648113
H139	H	0.416488	0.105049	-0.147272
H140	H	0.916488	0.605049	0.352728
H141	H	0.905232	0.010712	0.424030
H142	H	1.405232	0.510712	0.924030
H143	H	1.016620	-0.021746	0.422708
H144	H	1.516620	0.478254	0.922708
O145	O	0.569027	0.099778	-0.167288
O146	O	1.069027	0.599778	0.332712
H147	H	0.598952	0.138773	-0.207086
H148	H	1.098952	0.638773	0.292914
O149	O	1.144767	-0.568075	0.000052
O150	O	1.644767	-0.068075	0.500052
H151	H	1.197164	-0.611418	0.000040
H152	H	1.697164	-0.111418	0.500040
O153	O	1.142089	-0.719456	0.000046
O154	O	1.642089	-0.219456	0.500046
H155	H	1.195814	-0.687688	0.000073
H156	H	1.695814	-0.187688	0.500073
H157	H	0.402230	0.188560	-0.088121
H158	H	0.902230	0.688560	0.411879
O159	O	0.833276	0.140369	0.584327
O160	O	1.333276	0.640369	1.084327
H161	H	0.805384	0.186848	0.622441
H162	H	1.305384	0.686848	1.122441
H163	H	0.845205	-0.677425	0.000005
H164	H	1.345205	-0.177425	0.500005
O165	O	0.549747	0.209768	-0.088403
O166	O	1.049747	0.709768	0.411597
H167	H	0.588572	0.221201	-0.030324
H168	H	1.088572	0.721201	0.469676
O169	O	1.145891	0.057783	0.415850
O170	O	1.645891	0.557783	0.915850
H171	H	1.177754	0.030345	0.473592
H172	H	1.677754	0.530345	0.973592
O173	O	1.149940	-0.275421	0.000106
O174	O	1.649940	0.224579	0.500106
H175	H	1.153030	-0.308994	-0.060040
H176	H	1.653030	0.191006	0.439960
O177	O	0.832711	-0.240810	0.000060
O178	O	1.332711	0.259190	0.500060
H179	H	0.844526	-0.298965	0.000070
H180	H	1.344526	0.201035	0.500070
H181	H	0.847538	-0.545305	0.000022
H182	H	1.347538	-0.045305	0.500022
O183	O	0.833717	0.140376	0.415299
O184	O	1.333717	0.640376	0.915299
H185	H	0.791651	0.134109	0.472609
H186	H	1.291651	0.634109	0.972609
H187	H	0.930403	0.206759	0.577365
H188	H	1.430403	0.706759	1.077365
O189	O	0.934295	0.224914	0.416081
O190	O	1.434295	0.724914	0.916081
H191	H	0.941280	0.259715	0.473770
H192	H	1.441280	0.759715	0.973770
H193	H	1.090935	0.165288	0.575079
H194	H	1.590935	0.665288	1.075079
H195	H	1.128756	0.071875	0.575991
H196	H	1.628756	0.571875	1.075991
H197	H	1.091695	0.164273	0.422471
H198	H	1.591695	0.664273	0.922471
O199	O	0.888970	0.002034	0.585665
O200	O	1.388970	0.502034	1.085665
H201	H	0.846376	-0.004736	0.528973
H202	H	1.346376	0.495264	1.028973
H203	H	1.021947	-0.020242	0.575598
H204	H	1.521947	0.479758	1.075598
