data_functionalizedCrystal
_audit_creation_method	'MofGen! by Chris Wilmer'
_symmetry_space_group_name_H-M	'P1'
_symmetry_Int_Tables_number	1
_symmetry_cell_setting	triclinic
loop_
_symmetry_equiv_pos_as_xyz
  x,y,z
_cell_length_a	10.723023
_cell_length_b	10.723023
_cell_length_c	14.048226
_cell_angle_alpha	89.994918
_cell_angle_beta	89.994021
_cell_angle_gamma	84.467548
loop_
_atom_site_label
_atom_site_type_symbol
_atom_site_fract_x
_atom_site_fract_y
_atom_site_fract_z
O1	O	1.657192	0.175025	-0.079148
O2	O	1.294039	0.191780	-0.079152
O3	O	1.483993	0.001826	-0.079147
O4	O	1.467238	0.364979	-0.079153
O5	O	1.483970	0.001815	0.079175
O6	O	1.294016	0.191768	0.079170
O7	O	1.657169	0.175014	0.079173
Zn8	Zn	1.475589	0.183389	0.104308
Zn9	Zn	1.475619	0.183404	-0.104287
O10	O	1.467215	0.364967	0.079168
C11	C	1.247528	0.190555	0.000009
C12	C	1.108974	0.186908	0.000007
C13	C	1.482762	-0.044679	0.000013
C14	C	1.479115	-0.183233	0.000009
C15	C	1.473731	-0.388189	-0.082009
C16	C	1.477501	-0.244986	-0.082007
C17	C	1.047190	0.185276	0.082022
C18	C	0.903987	0.181506	0.082022
C19	C	1.703680	0.176239	0.000011
C20	C	1.842234	0.179886	0.000006
C21	C	1.468446	0.411473	0.000007
C22	C	1.472093	0.550027	0.000004
N23	N	1.475577	0.183378	0.246669
N24	N	1.475641	0.183406	-0.246647
C25	C	1.559715	0.099302	0.296489
C26	C	1.559724	0.099301	0.396147
C27	C	1.475599	0.183384	0.445983
C28	C	1.391452	0.267464	0.396155
C29	C	1.391438	0.267458	0.296500
C30	C	1.391488	0.267473	0.603870
C31	C	1.391502	0.267482	0.703532
C32	C	1.559773	0.099317	0.703517
C33	C	1.559760	0.099311	0.603861
C34	C	1.475614	0.183393	0.554041
H35	H	1.472350	-0.441312	-0.152225
H36	H	1.628225	0.030838	0.255920
Br37	Br	1.476752	-0.271772	0.117050
Br38	Br	1.135717	0.187590	0.199059
H39	H	0.895358	0.181297	-0.070213
H40	H	1.322949	0.335921	0.436737
Br41	Br	1.479834	-0.156435	-0.199044
Br42	Br	1.673909	-0.014808	0.463764
H43	H	1.628266	0.030851	0.563285
Br44	Br	1.277237	0.381558	0.228886
H45	H	0.850853	0.180109	0.152237
H46	H	1.628287	0.030855	0.744087
Br47	Br	1.277328	0.381599	0.771159
H48	H	1.473488	-0.396852	0.070220
Br49	Br	1.020449	0.184570	-0.117031
Br50	Br	1.277281	0.381581	0.536259
