data_functionalizedCrystal
_audit_creation_method	'MofGen! by Chris Wilmer'
_symmetry_space_group_name_H-M	'P1'
_symmetry_Int_Tables_number	1
_symmetry_cell_setting	triclinic
loop_
_symmetry_equiv_pos_as_xyz
  x,y,z
_cell_length_a	17.699077
_cell_length_b	14.519731
_cell_length_c	16.776229
_cell_angle_alpha	89.992369
_cell_angle_beta	89.993415
_cell_angle_gamma	83.484715
loop_
_atom_site_label
_atom_site_type_symbol
_atom_site_fract_x
_atom_site_fract_y
_atom_site_fract_z
O1	O	1.004422	0.116597	-0.066279
O2	O	1.504422	0.616597	0.433721
O3	O	0.784088	0.131776	-0.066284
O4	O	1.284088	0.631776	0.433716
O5	O	0.900089	-0.010076	-0.066274
O6	O	1.400089	0.489924	0.433726
O7	O	0.888422	0.258448	-0.066289
O8	O	1.388422	0.758448	0.433711
O9	O	0.900073	-0.010085	0.066302
O10	O	1.400073	0.489915	0.566302
O11	O	0.784072	0.131767	0.066293
O12	O	1.284072	0.631767	0.566293
O13	O	1.004407	0.116588	0.066297
O14	O	1.504407	0.616588	0.566297
Zn15	Zn	0.894237	0.124176	0.087344
Zn16	Zn	1.394237	0.624176	0.587344
Zn17	Zn	0.894258	0.124188	-0.087331
Zn18	Zn	1.394258	0.624188	0.412669
O19	O	0.888406	0.258440	0.066288
O20	O	1.388406	0.758440	0.566288
C21	C	0.755881	0.131228	0.000004
C22	C	1.255881	0.631228	0.500004
C23	C	0.671858	0.129599	0.000003
C24	C	1.171858	0.629599	0.500003
C25	C	0.632380	0.128827	0.072271
C26	C	1.132380	0.628827	0.572271
C27	C	0.553433	0.127282	0.072272
C28	C	1.053433	0.627282	0.572272
C29	C	0.513965	0.126516	0.000004
C30	C	1.013965	0.626516	0.500004
C31	C	0.553449	0.127285	-0.072270
C32	C	1.053449	0.627285	0.427730
C33	C	0.632395	0.128824	-0.072270
C34	C	1.132395	0.628824	0.427730
C35	C	0.235067	0.121079	-0.072271
C36	C	0.735067	0.621079	0.427729
C37	C	0.156115	0.119543	-0.072265
C38	C	0.656115	0.619543	0.427735
C39	C	0.156106	0.119537	0.072271
C40	C	0.656106	0.619537	0.572271
C41	C	0.235052	0.121076	0.072271
C42	C	0.735052	0.621076	0.572271
C43	C	0.274529	0.121840	-0.000002
C44	C	0.774529	0.621840	0.499998
C45	C	0.360133	0.123514	-0.000003
C46	C	0.860133	0.623514	0.499997
C47	C	0.428362	0.124849	0.000003
C48	C	0.928362	0.624849	0.500003
C49	C	0.899534	-0.044437	0.000014
C50	C	1.399534	0.455563	0.500014
C51	C	0.897896	-0.146811	0.000015
C52	C	1.397896	0.353189	0.500015
C53	C	0.896565	-0.229949	0.000013
C54	C	1.396565	0.270051	0.500013
C55	C	0.894902	-0.334251	0.000007
C56	C	1.394902	0.165749	0.500007
C57	C	0.893582	-0.417384	0.000002
C58	C	1.393582	0.082616	0.500002
C59	C	0.891919	-0.521692	-0.000003
C60	C	1.391919	-0.021692	0.499997
C61	C	1.032613	0.117136	0.000008
C62	C	1.532613	0.617136	0.500008
C63	C	1.116636	0.118764	0.000004
C64	C	1.616636	0.618764	0.500004
C65	C	0.888961	0.292801	-0.000002
C66	C	1.388961	0.792801	0.499998
C67	C	0.890599	0.395174	-0.000008
C68	C	1.390599	0.895174	0.499992
N69	N	0.894229	0.124168	0.206556
N70	N	1.394229	0.624168	0.706556
N71	N	0.894272	0.124189	-0.206542
N72	N	1.394272	0.624189	0.293458
C73	C	0.945610	0.061382	0.248277
C74	C	1.445610	0.561382	0.748277
C75	C	0.945614	0.061381	0.331729
C76	C	1.445614	0.561381	0.831729
C77	C	0.894240	0.124171	0.373459
C78	C	1.394240	0.624171	0.873459
C79	C	0.842854	0.186960	0.331731
C80	C	1.342854	0.686960	0.831731
C81	C	0.842847	0.186956	0.248281
C82	C	1.342847	0.686956	0.748281
C83	C	0.842881	0.186979	0.668279
C84	C	1.342881	0.686979	1.168279
C85	C	0.842894	0.186980	0.751735
C86	C	1.342894	0.686980	1.251735
C87	C	0.945649	0.061403	0.751727
C88	C	1.445649	0.561403	1.251727
C89	C	0.945641	0.061399	0.668276
C90	C	1.445641	0.561399	1.168276
C91	C	0.894253	0.124184	0.626557
C92	C	1.394253	0.624184	1.126557
C93	C	0.894248	0.124183	0.536068
C94	C	1.394248	0.624183	1.036068
C95	C	0.894248	0.124178	0.463945
C96	C	1.394248	0.624178	0.963945
H97	H	0.664509	0.129459	0.131121
H98	H	1.164509	0.629459	0.631121
H99	H	0.987452	0.010255	0.365698
H100	H	1.487452	0.510255	0.865698
N101	N	0.790372	0.251108	0.374342
N102	N	1.290372	0.751108	0.874342
N103	N	0.744499	0.307160	0.337078
N104	N	1.244499	0.807160	0.837078
H105	H	0.707431	0.352467	0.367169
H106	H	1.207431	0.852467	0.867169
N107	N	0.513135	0.126519	-0.146092
N108	N	1.013135	0.626519	0.353908
N109	N	0.515070	0.191676	-0.194485
N110	N	1.015070	0.691676	0.305515
H111	H	0.486599	0.191138	-0.246624
H112	H	0.986599	0.691138	0.253376
N113	N	0.790375	0.251106	0.205661
N114	N	1.290375	0.751106	0.705661
N115	N	0.814463	0.308313	0.159081
N116	N	1.314463	0.808313	0.659081
H117	H	0.777402	0.353620	0.128981
H118	H	1.277402	0.853620	0.628981
H119	H	0.664537	0.129454	-0.131118
H120	H	1.164537	0.629454	0.368882
H121	H	0.801040	0.238102	0.634317
H122	H	1.301040	0.738102	1.134317
H123	H	0.987447	0.010254	0.214306
H124	H	1.487447	0.510254	0.714306
N125	N	0.513120	0.126486	0.146100
N126	N	1.013120	0.626486	0.646100
N127	N	0.548368	0.127173	0.210619
N128	N	1.048368	0.627173	0.710619
H129	H	0.519898	0.126609	0.262764
H130	H	1.019898	0.626609	0.762764
H131	H	0.267201	0.121699	-0.131121
H132	H	0.767201	0.621699	0.368879
N133	N	0.275380	0.121847	0.146084
N134	N	0.775380	0.621847	0.646084
N135	N	0.345867	0.123216	0.146073
N136	N	0.845867	0.623216	0.646073
H137	H	0.374350	0.123757	0.198205
H138	H	0.874350	0.623757	0.698205
H139	H	0.123982	0.118918	-0.131119
H140	H	0.623982	0.618918	0.368881
N141	N	0.998133	-0.002734	0.625664
N142	N	1.498133	0.497266	1.125664
N143	N	1.044010	-0.058786	0.662926
N144	N	1.544010	0.441214	1.162926
H145	H	1.081085	-0.104081	0.632833
H146	H	1.581085	0.395919	1.132833
H147	H	0.123954	0.118911	0.131120
H148	H	0.623954	0.618911	0.631120
H149	H	0.987490	0.010277	0.785704
H150	H	1.487490	0.510277	1.285704
N151	N	0.790409	0.251129	0.794350
N152	N	1.290409	0.751129	1.294350
N153	N	0.744530	0.307182	0.757092
N154	N	1.244530	0.807182	1.257092
H155	H	0.707465	0.352486	0.787188
H156	H	1.207465	0.852486	1.287188
