data_functionalizedCrystal
_audit_creation_method	'MofGen! by Chris Wilmer'
_symmetry_space_group_name_H-M	'P1'
_symmetry_Int_Tables_number	1
_symmetry_cell_setting	triclinic
loop_
_symmetry_equiv_pos_as_xyz
  x,y,z
_cell_length_a	10.654541
_cell_length_b	11.792241
_cell_length_c	9.730217
_cell_angle_alpha	89.996588
_cell_angle_beta	89.999932
_cell_angle_gamma	84.338672
loop_
_atom_site_label
_atom_site_type_symbol
_atom_site_fract_x
_atom_site_fract_y
_atom_site_fract_z
O1	O	1.667388	0.159405	-0.114248
O2	O	1.301866	0.174596	-0.114261
O3	O	1.493497	0.001850	-0.114245
O4	O	1.475756	0.332151	-0.114264
O5	O	1.493491	0.001849	0.114336
O6	O	1.301860	0.174595	0.114320
O7	O	1.667382	0.159403	0.114332
Zn8	Zn	1.484620	0.166999	0.150618
Zn9	Zn	1.484628	0.167001	-0.150547
O10	O	1.475750	0.332149	0.114316
C11	C	1.255068	0.173481	0.000028
C12	C	1.115634	0.170145	0.000024
C13	C	1.492380	-0.040444	0.000045
C14	C	1.489044	-0.166465	0.000044
C15	C	1.087078	0.376710	-0.000006
C16	C	1.007297	0.478420	-0.000026
C17	C	0.876287	0.475279	-0.000027
C18	C	0.825059	0.370416	-0.000004
C19	C	0.904841	0.268706	0.000016
C20	C	1.035851	0.271858	0.000013
C21	C	0.933396	0.062144	0.000056
C22	C	1.064405	0.065282	0.000047
C23	C	0.882167	-0.042719	0.000079
C24	C	0.961949	-0.144432	0.000089
C25	C	1.092966	-0.141286	0.000089
C26	C	1.144187	-0.036428	0.000067
C27	C	1.482911	-0.397192	0.000020
C28	C	1.486319	-0.268799	0.000033
C29	C	1.714180	0.160519	0.000040
C30	C	1.853614	0.163854	0.000035
C31	C	1.476868	0.374443	0.000023
C32	C	1.480203	0.500465	0.000015
N33	N	1.484624	0.166997	0.356154
N34	N	1.484634	0.166994	-0.356083
C35	C	1.654383	0.014075	0.356159
C36	C	1.739271	-0.062382	0.428101
C37	C	1.739283	-0.062383	0.571981
C38	C	1.654397	0.014080	0.643922
C39	C	1.569509	0.090537	0.571979
C40	C	1.569508	0.090532	0.428096
C41	C	1.399746	0.243451	0.571975
C42	C	1.399737	0.243459	0.428095
C43	C	1.314859	0.319914	0.643916
C44	C	1.229975	0.396379	0.571973
C45	C	1.229966	0.396377	0.428085
C46	C	1.314849	0.319917	0.356153
H47	H	1.193752	0.379277	-0.000035
H48	H	1.654391	0.014077	0.239004
C49	C	0.906087	-0.258158	0.000047
C50	C	0.774280	-0.239139	0.000021
C51	C	0.722772	-0.343878	-0.000039
H52	H	0.933287	-0.300165	0.079739
H53	H	0.933344	-0.300096	-0.079693
H54	H	0.747034	-0.197219	0.079752
H55	H	0.747045	-0.197149	-0.079666
H56	H	0.750029	-0.385816	-0.079779
H57	H	0.749982	-0.385877	0.079655
H58	H	0.633337	-0.330988	-0.000069
H59	H	1.160836	0.458634	0.369517
C60	C	1.179373	-0.251844	0.000039
C61	C	1.106462	-0.344339	0.000025
C62	C	1.186010	-0.446204	-0.000041
H63	H	1.231104	-0.255068	0.079725
H64	H	1.231051	-0.254982	-0.079707
H65	H	1.054805	-0.341203	0.079763
H66	H	1.054733	-0.341152	-0.079656
H67	H	1.237689	-0.449342	-0.079787
H68	H	1.237737	-0.449417	0.079647
H69	H	1.136552	-0.508974	-0.000063
H70	H	1.808383	-0.124640	0.369514
C71	C	1.831577	-0.145449	0.649850
C72	C	1.905930	-0.212399	0.556062
C73	C	1.990971	-0.288924	0.627744
H74	H	1.786227	-0.193182	0.705989
H75	H	1.884199	-0.104205	0.705943
H76	H	1.853315	-0.253640	0.499992
H77	H	1.951307	-0.164698	0.499920
H78	H	2.043592	-0.247680	0.683837
H79	H	1.945610	-0.336649	0.683880
H80	H	2.041437	-0.334352	0.564120
H81	H	0.811328	0.558101	-0.000034
H82	H	1.654402	0.014065	0.761076
C83	C	1.315108	0.319780	0.800128
C84	C	1.407640	0.236481	0.847739
C85	C	1.407918	0.236341	0.991635
H86	H	1.234822	0.303520	0.832860
H87	H	1.332839	0.392454	0.832712
H88	H	1.389901	0.163824	0.815170
H89	H	1.487940	0.252723	0.815045
H90	H	1.425649	0.309015	1.024218
H91	H	1.327627	0.220083	1.024353
H92	H	1.470707	0.179832	1.023957
C93	C	1.137758	0.479203	0.650258
C94	C	1.060507	0.418080	0.732886
C95	C	0.975554	0.494340	0.805041
H96	H	1.087080	0.524776	0.586970
H97	H	1.183218	0.526813	0.706466
H98	H	1.015051	0.370489	0.676683
H99	H	1.111151	0.372510	0.796200
H100	H	1.021014	0.541950	0.861250
H101	H	0.924884	0.539909	0.741744
H102	H	0.923137	0.452879	0.861123
H103	H	1.049022	0.563797	-0.000041
H104	H	1.314854	0.319913	0.238998
H105	H	0.718383	0.367868	0.000012
H106	H	0.775491	-0.045269	0.000086
H107	H	1.250860	-0.033857	0.000051
