data_functionalizedCrystal
_audit_creation_method	'MofGen! by Chris Wilmer'
_symmetry_space_group_name_H-M	'P1'
_symmetry_Int_Tables_number	1
_symmetry_cell_setting	triclinic
loop_
_symmetry_equiv_pos_as_xyz
  x,y,z
_cell_length_a	6.817900
_cell_length_b	12.000032
_cell_length_c	12.200875
_cell_angle_alpha	89.605781
_cell_angle_beta	107.143593
_cell_angle_gamma	119.142083
loop_
_atom_site_label
_atom_site_type_symbol
_atom_site_fract_x
_atom_site_fract_y
_atom_site_fract_z
V1	V	-4.155829	-0.177158	-0.359598
V2	V	-3.655829	0.322842	0.140402
O3	O	-4.050982	0.008214	-0.350763
O4	O	-3.550982	0.508214	0.149237
O5	O	-4.192930	-0.350986	-0.359053
O6	O	-3.692930	0.149014	0.140947
O7	O	-4.124271	-0.174564	-0.515558
O8	O	-3.624271	0.325436	-0.015558
O9	O	-4.120116	-0.169430	-0.193174
O10	O	-3.620116	0.330570	0.306826
V11	V	-4.626196	-0.154969	-0.339460
V12	V	-4.126196	0.345031	0.160540
O13	O	-4.445947	-0.225829	-0.403773
O14	O	-3.945947	0.274171	0.096227
O15	O	-4.786276	-0.106298	-0.295285
O16	O	-4.286276	0.393702	0.204715
O17	O	-4.365889	0.018859	-0.340005
O18	O	-3.865889	0.518859	0.159995
O19	O	-4.848441	-0.340341	-0.348296
O20	O	-4.348441	0.159659	0.151704
O21	O	-4.779306	-0.162697	-0.505884
O22	O	-4.279306	0.337303	-0.005884
O23	O	-4.434548	-0.157563	-0.183500
O24	O	-3.934548	0.342437	0.316500
C25	C	-4.058186	-0.393358	-0.353874
C26	C	-3.558186	0.106642	0.146126
C27	C	-4.169919	-0.535466	-0.354468
C28	C	-3.669919	-0.035466	0.145532
C29	C	-4.042975	-0.592632	-0.349225
C30	C	-3.542975	-0.092632	0.150775
C31	C	-4.158453	-0.739508	-0.349839
C32	C	-3.658453	-0.239508	0.150161
C33	C	-3.970603	-0.168312	-0.553511
C34	C	-3.470603	0.331688	-0.053511
C35	C	-4.026650	-0.167341	-0.681021
C36	C	-3.526650	0.332659	-0.181021
C37	C	-4.129224	-0.165565	-0.914476
C38	C	-3.629224	0.334435	-0.414476
C39	C	-4.072136	-0.166553	-0.784565
C40	C	-3.572136	0.333447	-0.284565
C41	C	-4.163978	0.061224	-0.345181
C42	C	-3.663978	0.561224	0.154819
C43	C	-4.031484	0.203331	-0.344595
C44	C	-3.531484	0.703331	0.155405
C45	C	-4.251560	-0.163820	-0.145542
C46	C	-3.751560	0.336180	0.354458
C47	C	-4.174748	-0.164784	-0.018030
C48	C	-3.674748	0.335216	0.481970
H49	H	-4.364086	-0.595259	-0.359400
H50	H	-3.864086	-0.095259	0.140600
Cl51	Cl	-3.743170	-0.500320	-0.341574
Cl52	Cl	-3.243170	-0.000320	0.158426
H53	H	-3.837299	-0.736880	-0.339647
H54	H	-3.337299	-0.236880	0.160353
Cl55	Cl	-4.458250	-0.831810	-0.357462
Cl56	Cl	-3.958250	-0.331810	0.142538
