data_functionalizedCrystal
_audit_creation_method	'MofGen! by Chris Wilmer'
_symmetry_space_group_name_H-M	'P1'
_symmetry_Int_Tables_number	1
_symmetry_cell_setting	triclinic
loop_
_symmetry_equiv_pos_as_xyz
  x,y,z
_cell_length_a	12.759401
_cell_length_b	12.827892
_cell_length_c	12.759393
_cell_angle_alpha	90.029972
_cell_angle_beta	90.019676
_cell_angle_gamma	90.015818
loop_
_atom_site_label
_atom_site_type_symbol
_atom_site_fract_x
_atom_site_fract_y
_atom_site_fract_z
Zn1	Zn	1.606261	-0.415971	0.593989
Zn2	Zn	2.106261	0.084029	1.093989
Zn3	Zn	1.606150	-0.590748	0.418310
Zn4	Zn	2.106150	-0.090748	0.918310
Zn5	Zn	1.430560	-0.416023	0.418328
Zn6	Zn	1.930560	0.083977	0.918328
Zn7	Zn	1.430550	-0.590672	0.593951
Zn8	Zn	1.930550	-0.090672	1.093951
O9	O	1.518380	-0.503353	0.506144
O10	O	2.018380	-0.003353	1.006144
O11	O	1.753268	-0.439165	0.570693
O12	O	2.253268	0.060835	1.070693
O13	O	1.582816	-0.567624	0.271291
O14	O	2.082816	-0.067624	0.771291
O15	O	1.453918	-0.269780	0.441652
O16	O	1.953918	0.230220	0.941652
O17	O	1.753186	-0.567573	0.441623
O18	O	2.253186	-0.067573	0.941623
O19	O	1.583005	-0.269741	0.570710
O20	O	2.083005	0.230259	1.070710
O21	O	1.453810	-0.439254	0.271304
O22	O	1.953810	0.060746	0.771304
O23	O	1.283538	-0.439180	0.441616
O24	O	1.783538	0.060820	0.941616
O25	O	1.453900	-0.567443	0.740977
O26	O	1.953900	-0.067443	1.240977
O27	O	1.283530	-0.567494	0.570646
O28	O	1.783530	-0.067494	1.070646
O29	O	1.582995	-0.439091	0.741005
O30	O	2.082995	0.060909	1.241005
O31	O	1.582806	-0.736974	0.441587
O32	O	2.082806	-0.236974	0.941587
O33	O	1.453793	-0.736918	0.570629
O34	O	1.953793	-0.236918	1.070629
C35	C	1.245413	-0.503335	0.506130
C36	C	1.745413	-0.003335	1.006130
C37	C	1.128636	-0.503353	0.506148
C38	C	1.628636	-0.003353	1.006148
C39	C	1.073817	-0.436611	0.573459
C40	C	1.573817	0.063389	1.073459
C41	C	0.964093	-0.436622	0.573466
C42	C	1.464093	0.063378	1.073466
C43	C	0.964017	-0.570124	0.438849
C44	C	1.464017	-0.070124	0.938849
C45	C	1.073739	-0.570108	0.438837
C46	C	1.573739	-0.070108	0.938837
C47	C	1.518315	-0.774863	0.506125
C48	C	2.018315	-0.274863	1.006125
C49	C	1.518383	-0.891016	0.506152
C50	C	2.018383	-0.391016	1.006152
C51	C	1.582231	-0.942699	0.570071
C52	C	2.082231	-0.442699	1.070071
C53	C	1.582302	-1.062749	0.570100
C54	C	2.082302	-0.562749	1.070100
C55	C	1.792414	-0.503372	0.506160
C56	C	2.292414	-0.003372	1.006160
C57	C	1.909190	-0.503380	0.506167
C58	C	2.409190	-0.003380	1.006167
C59	C	1.518459	-0.503253	0.780178
C60	C	2.018459	-0.003253	1.280178
C61	C	1.518492	-0.503210	0.896955
C62	C	2.018492	-0.003210	1.396955
C63	C	1.518475	-0.230783	0.506187
C64	C	2.018475	0.269217	1.006187
C65	C	1.518515	-0.114630	0.506205
C66	C	2.018515	0.385370	1.006205
C67	C	1.518362	-0.503378	0.233177
C68	C	2.018362	-0.003378	0.733177
C69	C	1.518533	-0.503126	0.116401
C70	C	2.018533	-0.003126	0.616401
C71	C	1.585717	-0.436367	0.951833
C72	C	2.085717	0.063633	1.451833
C73	C	1.585735	-0.436322	1.061557
C74	C	2.085735	0.063678	1.561557
C75	C	1.451301	-0.569973	1.061515
C76	C	1.951301	-0.069973	1.561515
C77	C	1.451278	-0.570012	0.951793
C78	C	1.951278	-0.070012	1.451793
H79	H	1.118512	-0.382252	0.628264
H80	H	1.618512	0.117748	1.128264
H81	H	1.118374	-0.624457	0.384019
H82	H	1.618374	-0.124457	0.884019
Br83	Br	0.889507	-0.660717	0.347504
Br84	Br	1.389507	-0.160717	0.847504
Br85	Br	1.673241	-0.868324	0.661265
Br86	Br	2.173241	-0.368324	1.161265
H87	H	0.919465	-0.382273	0.628275
H88	H	1.419465	0.117727	1.128275
H89	H	1.463768	-0.935646	0.451455
H90	H	1.963768	-0.435646	0.951455
H91	H	1.640444	-0.381970	0.907186
H92	H	2.140444	0.118030	1.407186
H93	H	1.636969	-1.107195	0.624820
H94	H	2.136969	-0.607195	1.124820
Br95	Br	1.427407	-1.040565	0.414978
Br96	Br	1.927407	-0.540565	0.914978
H97	H	1.640474	-0.381889	1.106233
H98	H	2.140474	0.118111	1.606233
H99	H	1.396580	-0.624362	1.106178
H100	H	1.896580	-0.124362	1.606178
H101	H	1.396529	-0.624443	0.907110
H102	H	1.896529	-0.124443	1.407110
