data_functionalizedCrystal
_audit_creation_method	'MofGen! by Chris Wilmer'
_symmetry_space_group_name_H-M	'P1'
_symmetry_Int_Tables_number	1
_symmetry_cell_setting	triclinic
loop_
_symmetry_equiv_pos_as_xyz
  x,y,z
_cell_length_a	16.109302
_cell_length_b	14.519731
_cell_length_c	14.586319
_cell_angle_alpha	89.995223
_cell_angle_beta	89.994552
_cell_angle_gamma	83.575317
loop_
_atom_site_label
_atom_site_type_symbol
_atom_site_fract_x
_atom_site_fract_y
_atom_site_fract_z
O1	O	1.103344	0.118542	-0.076284
O2	O	1.436677	0.451875	0.257050
O3	O	1.770010	0.785209	0.590383
O4	O	0.861308	0.133293	-0.076277
O5	O	1.194642	0.466627	0.257057
O6	O	1.527975	0.799960	0.590390
O7	O	0.988734	-0.008333	-0.076272
O8	O	1.322067	0.325000	0.257061
O9	O	1.655401	0.658333	0.590395
O10	O	0.975918	0.260168	-0.076288
O11	O	1.309251	0.593502	0.257045
O12	O	1.642585	0.926835	0.590378
O13	O	0.988725	-0.008335	0.076209
O14	O	1.322059	0.324998	0.409542
O15	O	1.655392	0.658331	0.742876
O16	O	0.861300	0.133291	0.076204
O17	O	1.194633	0.466624	0.409538
O18	O	1.527966	0.799958	0.742871
O19	O	1.103335	0.118540	0.076197
O20	O	1.436668	0.451873	0.409531
O21	O	1.770002	0.785207	0.742864
Cu22	Cu	0.982316	0.125915	0.090123
Cu23	Cu	1.315650	0.459249	0.423457
Cu24	Cu	1.648983	0.792582	0.756790
Cu25	Cu	0.982327	0.125918	-0.090203
Cu26	Cu	1.315660	0.459251	0.243131
Cu27	Cu	1.648994	0.792584	0.576464
O28	O	0.975909	0.260166	0.076193
O29	O	1.309243	0.593500	0.409526
O30	O	1.642576	0.926833	0.742859
C31	C	0.830328	0.132695	-0.000035
C32	C	1.163661	0.466028	0.333298
C33	C	1.496995	0.799361	0.666631
C34	C	0.738030	0.130903	-0.000032
C35	C	1.071363	0.464236	0.333301
C36	C	1.404696	0.797569	0.666634
C37	C	0.525676	0.126758	0.083076
C38	C	0.859010	0.460092	0.416409
C39	C	1.192343	0.793425	0.749743
C40	C	0.438953	0.125065	0.083073
C41	C	0.772287	0.458398	0.416406
C42	C	1.105620	0.791732	0.749740
C43	C	0.438973	0.125072	-0.083170
C44	C	0.772307	0.458405	0.250163
C45	C	1.105640	0.791739	0.583497
C46	C	0.525696	0.126759	-0.083166
C47	C	0.859029	0.460092	0.250167
C48	C	1.192362	0.793425	0.583501
C49	C	0.569044	0.127607	-0.000040
C50	C	0.902378	0.460940	0.333293
C51	C	1.235711	0.794273	0.666627
C52	C	0.395599	0.124226	-0.000047
C53	C	0.728932	0.457560	0.333286
C54	C	1.062266	0.790893	0.666619
C55	C	0.301570	0.122390	-0.000051
C56	C	0.634903	0.455724	0.333282
C57	C	0.968237	0.789057	0.666615
C58	C	0.663080	0.129441	-0.000036
C59	C	0.996413	0.462775	0.333298
C60	C	1.329746	0.796108	0.666631
C61	C	0.988129	-0.042692	-0.000031
C62	C	1.321462	0.290641	0.333302
C63	C	1.654796	0.623974	0.666635
C64	C	0.986330	-0.145069	-0.000031
C65	C	1.319663	0.188265	0.333303
C66	C	1.652996	0.521598	0.666636
C67	C	0.984868	-0.228210	-0.000033
C68	C	1.318201	0.105123	0.333301
C69	C	1.651534	0.438457	0.666634
C70	C	0.983041	-0.332515	-0.000040
C71	C	1.316374	0.000819	0.333294
C72	C	1.649707	0.334152	0.666627
C73	C	0.981591	-0.415651	-0.000046
C74	C	1.314924	-0.082317	0.333288
C75	C	1.648257	0.251016	0.666621
C76	C	0.979764	-0.519962	-0.000051
C77	C	1.313097	-0.186629	0.333283
C78	C	1.646430	0.146704	0.666616
C79	C	1.134315	0.119139	-0.000046
C80	C	1.467649	0.452472	0.333287
C81	C	1.800982	0.785805	0.666621
C82	C	1.226614	0.120930	-0.000055
C83	C	1.559947	0.454264	0.333278
C84	C	1.893280	0.787597	0.666612
C85	C	0.976514	0.294525	-0.000050
C86	C	1.309848	0.627859	0.333283
C87	C	1.643181	0.961192	0.666617
C88	C	0.978314	0.396902	-0.000057
C89	C	1.311647	0.730235	0.333277
C90	C	1.644980	1.063568	0.666610
N91	N	0.982315	0.125913	0.216955
N92	N	1.315648	0.459246	0.550289
N93	N	1.648982	0.792580	0.883622
N94	N	0.982335	0.125913	-0.217035
N95	N	1.315668	0.459246	0.116299
N96	N	1.649001	0.792579	0.449632
C97	C	1.038758	0.063222	0.451964
C98	C	1.372091	0.396555	0.785297
C99	C	1.705425	0.729888	1.118630
C100	C	1.038760	0.063220	0.547945
C101	C	1.372094	0.396553	0.881278
C102	C	1.705427	0.729886	1.214612
C103	C	0.925886	0.188607	0.547950
C104	C	1.259219	0.521940	0.881284
C105	C	1.592553	0.855274	1.214617
C106	C	0.925880	0.188604	0.451971
C107	C	1.259214	0.521937	0.785304
C108	C	1.592547	0.855271	1.118637
C109	C	0.982321	0.125913	0.403980
C110	C	1.315654	0.459246	0.737313
C111	C	1.648988	0.792579	1.070647
C112	C	0.982329	0.125913	0.595941
C113	C	1.315662	0.459247	0.929274
C114	C	1.648996	0.792580	1.262607
C115	C	0.982331	0.125911	0.700008
C116	C	1.315665	0.459245	1.033341
C117	C	1.648998	0.792578	1.366675
C118	C	0.982318	0.125913	0.299906
C119	C	1.315651	0.459246	0.633240
C120	C	1.648985	0.792580	0.966573
H121	H	0.561007	0.127447	-0.150853
H122	H	0.894341	0.460780	0.182480
H123	H	1.227674	0.794114	0.515813
H124	H	1.084714	0.012173	0.412892
H125	H	1.418048	0.345507	0.746225
H126	H	1.751381	0.678840	1.079559
O127	O	0.871033	0.249380	0.594674
O128	O	1.204367	0.582713	0.928007
O129	O	1.537700	0.916047	1.261340
C130	C	0.819659	0.199976	0.650193
C131	C	1.152993	0.533309	0.983526
C132	C	1.486326	0.866643	1.316859
H133	H	0.852661	0.127821	0.664572
H134	H	1.185994	0.461155	0.997905
H135	H	1.519327	0.794488	1.331238
H136	H	0.806574	0.238467	0.717684
H137	H	1.139908	0.571800	1.051018
H138	H	1.473241	0.905133	1.384351
H139	H	0.758202	0.193692	0.613218
H140	H	1.091535	0.527025	0.946551
H141	H	1.424869	0.860358	1.279884
O142	O	1.093665	0.002289	0.594414
O143	O	1.426999	0.335622	0.927747
O144	O	1.760332	0.668956	1.261081
C145	C	1.143461	-0.053057	0.531470
C146	C	1.476794	0.280276	0.864804
C147	C	1.810127	0.613609	1.198137
H148	H	1.144454	-0.015245	0.463050
H149	H	1.477787	0.318089	0.796383
H150	H	1.811120	0.651422	1.129717
H151	H	1.209834	-0.067105	0.559192
H152	H	1.543167	0.266229	0.892526
H153	H	1.876501	0.599562	1.225859
H154	H	1.116362	-0.121576	0.521272
H155	H	1.449696	0.211757	0.854605
H156	H	1.783029	0.545091	1.187938
O157	O	0.396919	0.124098	-0.163939
O158	O	0.730253	0.457432	0.169394
O159	O	1.063586	0.790765	0.502728
C160	C	0.427421	0.044705	-0.214519
C161	C	0.760755	0.378039	0.118815
C162	C	1.094088	0.711372	0.452148
H163	H	0.457746	-0.010632	-0.165886
H164	H	0.791079	0.322702	0.167447
H165	H	1.124413	0.656035	0.500781
H166	H	0.373512	0.016813	-0.252230
H167	H	0.706846	0.350146	0.081104
H168	H	1.040179	0.683479	0.414437
H169	H	0.475668	0.063735	-0.266340
H170	H	0.809002	0.397068	0.066993
H171	H	1.142335	0.730402	0.400326
H172	H	0.879918	0.239655	0.412900
H173	H	1.213252	0.572988	0.746233
H174	H	1.546585	0.906321	1.079566
H175	H	0.560968	0.127449	0.150762
H176	H	0.894302	0.460782	0.484096
H177	H	1.227635	0.794115	0.817429
H178	H	0.403647	0.124374	0.150755
H179	H	0.736980	0.457708	0.484088
H180	H	1.070314	0.791041	0.817421
