data_functionalizedCrystal
_audit_creation_method	'MofGen! by Chris Wilmer'
_symmetry_space_group_name_H-M	'P1'
_symmetry_Int_Tables_number	1
_symmetry_cell_setting	triclinic
loop_
_symmetry_equiv_pos_as_xyz
  x,y,z
_cell_length_a	16.120490
_cell_length_b	18.215405
_cell_length_c	18.215399
_cell_angle_alpha	90.030875
_cell_angle_beta	87.087627
_cell_angle_gamma	92.879060
loop_
_atom_site_label
_atom_site_type_symbol
_atom_site_fract_x
_atom_site_fract_y
_atom_site_fract_z
Zn1	Zn	1.274488	0.350159	-0.473060
Zn2	Zn	1.274382	0.473230	-0.349988
Zn3	Zn	1.135078	0.343932	-0.343778
Zn4	Zn	1.135023	0.466931	-0.466786
O5	O	1.204743	0.408563	-0.408403
O6	O	1.391139	0.371727	-0.461958
O7	O	1.255882	0.456109	-0.246179
O8	O	1.153639	0.241777	-0.360954
O9	O	1.391062	0.462147	-0.371538
O10	O	1.256062	0.246351	-0.455937
O11	O	1.153536	0.361114	-0.241616
O12	O	1.018406	0.355005	-0.354871
O13	O	1.153545	0.451410	-0.570603
O14	O	1.018365	0.445372	-0.445244
O15	O	1.256009	0.365618	-0.575213
O16	O	1.255829	0.575376	-0.365454
O17	O	1.153442	0.570747	-0.451265
C18	C	0.988136	0.398830	-0.398703
C19	C	0.895470	0.394684	-0.394571
C20	C	0.684523	0.430064	-0.429838
C21	C	0.725814	0.387121	-0.387026
C22	C	0.820219	0.391330	-0.391225
C23	C	0.590109	0.425855	-0.425639
C24	C	1.204641	0.599765	-0.408370
C25	C	1.204673	0.681565	-0.408384
C26	C	1.258008	0.872080	-0.457902
C27	C	1.258030	0.948940	-0.457915
C28	C	1.151464	0.944293	-0.358932
C29	C	1.151439	0.867435	-0.358923
C30	C	1.204716	0.831330	-0.408407
C31	C	1.204762	0.985048	-0.408430
C32	C	1.204785	1.068383	-0.408444
C33	C	1.204692	0.747990	-0.408394
C34	C	1.422196	0.418334	-0.418141
C35	C	1.514862	0.422498	-0.422290
C36	C	1.204782	0.408506	-0.600358
C37	C	1.204799	0.408482	-0.682157
C38	C	1.204839	1.216614	-0.408448
C39	C	1.204805	1.134814	-0.408453
C40	C	1.151553	0.358988	-0.867979
C41	C	1.151567	0.358974	-0.944838
C42	C	1.258145	0.457892	-0.949578
C43	C	1.258126	0.457909	-0.872720
C44	C	1.204831	0.408453	-0.831922
C45	C	1.204865	0.408422	-0.985640
C46	C	1.204881	0.408407	-1.068974
C47	C	1.204813	0.408469	-0.748582
C48	C	1.204752	0.408569	-0.217197
C49	C	1.204896	0.408393	-0.135405
H50	H	0.690264	0.347195	-0.347220
F51	F	1.314747	0.992305	-0.510598
H52	H	1.108089	0.973699	-0.318643
H53	H	1.108038	0.834254	-0.318618
H54	H	0.720071	0.469986	-0.469640
H55	H	1.301389	0.842686	-0.498196
H56	H	1.108182	0.318695	-0.974192
F57	F	1.094829	0.306354	-0.824561
F58	F	1.314864	0.510523	-0.993004
F59	F	1.314832	0.510562	-0.834344
