data_functionalizedCrystal
_audit_creation_method	'MofGen! by Chris Wilmer'
_symmetry_space_group_name_H-M	'P1'
_symmetry_Int_Tables_number	1
_symmetry_cell_setting	triclinic
loop_
_symmetry_equiv_pos_as_xyz
  x,y,z
_cell_length_a	16.992697
_cell_length_b	16.098571
_cell_length_c	16.974813
_cell_angle_alpha	90.591645
_cell_angle_beta	92.975198
_cell_angle_gamma	92.890263
loop_
_atom_site_label
_atom_site_type_symbol
_atom_site_fract_x
_atom_site_fract_y
_atom_site_fract_z
O1	O	-1.036585	0.080171	0.163769
O2	O	-0.536585	0.580171	0.663769
O3	O	-0.808306	0.080076	0.161934
O4	O	-0.308306	0.580076	0.661934
O5	O	-0.929158	0.072413	0.048523
O6	O	-0.429158	0.572413	0.548523
O7	O	-0.915733	0.087833	0.277179
O8	O	-0.415733	0.587833	0.777179
O9	O	-0.935391	-0.065649	0.055205
O10	O	-0.435391	0.434351	0.555205
O11	O	-0.814539	-0.057987	0.168615
O12	O	-0.314539	0.442013	0.668615
O13	O	-1.042818	-0.057891	0.170451
O14	O	-0.542818	0.442109	0.670451
Zn15	Zn	-0.929668	-0.079859	0.170594
Zn16	Zn	-0.429668	0.420141	0.670594
Zn17	Zn	-0.921456	0.102044	0.161790
Zn18	Zn	-0.421456	0.602044	0.661790
O19	O	-0.921966	-0.050229	0.283861
O20	O	-0.421966	0.449771	0.783861
C21	C	-0.782220	0.010889	0.162916
C22	C	-0.282220	0.510889	0.662916
C23	C	-0.695204	0.010425	0.155879
C24	C	-0.195204	0.510425	0.655879
N25	N	-0.935279	-0.204003	0.176602
N26	N	-0.435279	0.295997	0.676602
C27	C	-0.644683	0.015004	0.223773
C28	C	-0.144683	0.515004	0.723773
C29	C	-0.562924	0.014548	0.217157
C30	C	-0.062924	0.514548	0.717157
C31	C	-0.531688	0.009519	0.142646
C32	C	-0.031688	0.509519	0.642646
C33	C	-0.582215	0.004937	0.074747
C34	C	-0.082215	0.504937	0.574747
C35	C	-0.663973	0.005388	0.081364
C36	C	-0.163973	0.505388	0.581364
C37	C	-0.288204	0.007651	0.115221
C38	C	0.211796	0.507651	0.615221
C39	C	-0.206440	0.007203	0.108609
C40	C	0.293560	0.507203	0.608609
C41	C	-0.187155	0.016812	0.251019
C42	C	0.312845	0.516812	0.751019
C43	C	-0.268915	0.017267	0.257630
C44	C	0.231085	0.517267	0.757630
C45	C	-0.319435	0.012681	0.189731
C46	C	0.180565	0.512681	0.689731
N47	N	-0.448117	0.009055	0.135881
N48	N	0.051883	0.509055	0.635881
N49	N	-0.403004	0.013139	0.196496
N50	N	0.096996	0.513139	0.696496
C51	C	-0.961230	-0.726942	0.204493
C52	C	-0.461230	-0.226942	0.704493
C53	C	-0.957309	-0.640037	0.200285
C54	C	-0.457309	-0.140037	0.700285
C55	C	-0.908012	-0.600004	0.147355
C56	C	-0.408012	-0.100004	0.647355
C57	C	-0.862628	-0.646881	0.098637
C58	C	-0.362628	-0.146881	0.598637
C59	C	-0.866545	-0.733784	0.102850
C60	C	-0.366545	-0.233784	0.602850
C61	C	-0.893812	-0.337783	0.132096
C62	C	-0.393812	0.162217	0.632096
C63	C	-0.889900	-0.250874	0.127885
C64	C	-0.389900	0.249126	0.627885
C65	C	-0.984581	-0.244036	0.229535
C66	C	-0.484581	0.255964	0.729535
C67	C	-0.988498	-0.330941	0.233740
C68	C	-0.488498	0.169059	0.733740
C69	C	-0.943110	-0.377810	0.185024
C70	C	-0.443110	0.122190	0.685024
C71	C	-0.904005	-0.511173	0.143051
C72	C	-0.404005	-0.011173	0.643051
C73	C	-0.947113	-0.466639	0.189333
C74	C	-0.447113	0.033361	0.689333
C75	C	-0.068904	0.011301	0.169468
C76	C	0.431096	0.511301	0.669468
C77	C	-0.155919	0.011782	0.176503
C78	C	0.344081	0.511782	0.676503
C79	C	-0.931880	0.001402	0.022471
C80	C	-0.431880	0.501402	0.522471
C81	C	-0.930695	-0.004498	-0.065112
C82	C	-0.430695	0.495502	0.434888
N83	N	-0.915851	0.226187	0.155777
N84	N	-0.415851	0.726187	0.655777
C85	C	-0.926742	0.067987	-0.109896
C86	C	-0.426742	0.567987	0.390104
C87	C	-0.925623	0.062440	-0.192189
C88	C	-0.425623	0.562440	0.307811
C89	C	-0.928463	-0.015592	-0.229697
C90	C	-0.428463	0.484408	0.270303
C91	C	-0.932414	-0.088083	-0.184906
C92	C	-0.432414	0.411917	0.315094
C93	C	-0.933527	-0.082535	-0.102614
C94	C	-0.433527	0.417465	0.397386
C95	C	-0.925493	-0.040253	-0.475422
C96	C	-0.425493	0.459747	0.024578
C97	C	-0.924382	-0.045795	-0.557720
C98	C	-0.424382	0.454205	-0.057720
C99	C	-0.917590	0.104729	-0.564997
C100	C	-0.417590	0.604729	-0.064997
C101	C	-0.918708	0.110269	-0.482704
C102	C	-0.418708	0.610269	0.017296
C103	C	-0.922655	0.037779	-0.437920
C104	C	-0.422655	0.537779	0.062080
N105	N	-0.927322	-0.021264	-0.313813
N106	N	-0.427322	0.478736	0.186187
N107	N	-0.923790	0.043451	-0.353805
N108	N	-0.423790	0.543451	0.146195
C109	C	-0.919244	0.020784	0.309913
C110	C	-0.419244	0.520784	0.809913
C111	C	-0.920429	0.026690	0.397496
C112	C	-0.420429	0.526690	0.897496
H113	H	-0.670109	0.019100	0.284447
H114	H	-0.170109	0.519100	0.784447
H115	H	-0.146013	0.020544	0.306298
H116	H	0.353987	0.520544	0.806298
C117	C	-0.799841	-0.335814	0.031189
C118	C	-0.299841	0.164186	0.531189
C119	C	-0.843933	-0.389300	0.078543
C120	C	-0.343933	0.110700	0.578543
H121	H	-0.769052	-0.367625	-0.001877
H122	H	-0.269052	0.132375	0.498123
H123	H	-0.766038	-0.299604	0.063767
H124	H	-0.266038	0.200396	0.563767
H125	H	-0.834533	-0.303950	-0.000448
H126	H	-0.334533	0.196050	0.499552
H127	H	-0.809240	-0.421161	0.110184
H128	H	-0.309240	0.078839	0.610184
H129	H	-0.877739	-0.425525	0.045962
H130	H	-0.377739	0.074475	0.545962
C131	C	-0.814592	-0.516703	0.047035
C132	C	-0.314592	-0.016703	0.547035
C133	C	-0.808443	-0.602879	0.040451
C134	C	-0.308443	-0.102879	0.540451
H135	H	-0.781145	-0.489542	0.011106
H136	H	-0.281145	0.010458	0.511106
H137	H	-0.799152	-0.498882	0.099331
H138	H	-0.299152	0.001118	0.599331
H139	H	-0.867649	-0.503242	0.035118
H140	H	-0.367649	-0.003242	0.535118
H141	H	-0.755387	-0.616341	0.052374
H142	H	-0.255387	-0.116341	0.552374
H143	H	-0.823878	-0.620707	-0.011857
H144	H	-0.323878	-0.120707	0.488143
H145	H	-0.181011	0.003108	0.047930
H146	H	0.318989	0.503108	0.547930
C147	C	-0.326588	0.070577	-0.007559
C148	C	0.173412	0.570577	0.492441
C149	C	-0.343727	0.002619	0.040586
C150	C	0.156273	0.502619	0.540586
H151	H	-0.360872	0.067471	-0.053636
H152	H	0.139128	0.567471	0.446364
H153	H	-0.273431	0.069585	-0.022154
H154	H	0.226569	0.569585	0.477846
H155	H	-0.333852	0.120763	0.020459
H156	H	0.166148	0.620763	0.520459
H157	H	-0.336457	-0.047568	0.012569
H158	H	0.163543	0.452432	0.512569
H159	H	-0.396897	0.003602	0.055179
H160	H	0.103103	0.503602	0.555179
H161	H	-0.916396	0.173812	-0.452171
H162	H	-0.416396	0.673812	0.047829
H163	H	-0.556777	0.000830	0.014079
H164	H	-0.056777	0.500830	0.514079
C165	C	-0.930208	-0.098594	-0.346050
C166	C	-0.430208	0.401406	0.153950
C167	C	-0.929837	-0.119933	-0.426202
C168	C	-0.429837	0.380067	0.073798
H169	H	-0.932886	-0.147789	-0.315663
H170	H	-0.432886	0.352211	0.184337
H171	H	-0.974700	-0.066986	-0.337190
H172	H	-0.474700	0.433014	0.162810
H173	H	-0.883282	-0.066546	-0.330936
H174	H	-0.383282	0.433454	0.169064
H175	H	-0.976766	-0.151976	-0.441317
H176	H	-0.476766	0.348024	0.058683
H177	H	-0.885341	-0.151555	-0.435066
H178	H	-0.385341	0.348445	0.064934
H179	H	-0.849752	-0.218282	0.084784
H180	H	-0.349752	0.281718	0.584784
H181	H	-0.924433	0.131530	-0.079364
H182	H	-0.424433	0.631530	0.420636
C183	C	-0.674828	-0.004142	-0.060067
C184	C	-0.174828	0.495858	0.439933
C185	C	-0.719508	0.000362	0.006732
C186	C	-0.219508	0.500362	0.506732
H187	H	-0.709114	-0.007241	-0.106141
H188	H	-0.209114	0.492759	0.393859
H189	H	-0.644722	-0.052260	-0.057357
H190	H	-0.144722	0.447740	0.442643
H191	H	-0.640354	0.044031	-0.062009
H192	H	-0.140354	0.544031	0.437991
H193	H	-0.753978	-0.047814	0.008679
H194	H	-0.253978	0.452186	0.508679
H195	H	-0.749627	0.048486	0.004022
H196	H	-0.249627	0.548486	0.504022
H197	H	-1.001376	-0.759530	0.247591
H198	H	-0.501376	-0.259530	0.747591
H199	H	-0.994263	-0.601878	0.239954
H200	H	-0.494263	-0.101878	0.739954
H201	H	-0.934721	-0.151619	-0.215451
H202	H	-0.434721	0.348381	0.284549
C203	C	-1.040312	-0.451152	0.289386
C204	C	-0.540312	0.048848	0.789386
C205	C	-1.001301	-0.510639	0.247512
C206	C	-0.501301	-0.010639	0.747512
H207	H	-1.073763	-0.478323	0.325304
H208	H	-0.573763	0.021677	0.825304
H209	H	-1.071056	-0.419576	0.253520
H210	H	-0.571056	0.080424	0.753520
H211	H	-1.002570	-0.415221	0.317744
H212	H	-0.502570	0.084779	0.817744
H213	H	-1.039043	-0.546567	0.219150
H214	H	-0.539043	-0.046567	0.719150
H215	H	-0.970555	-0.542230	0.283384
H216	H	-0.470555	-0.042230	0.783384
H217	H	-0.914375	0.163746	-0.601468
H218	H	-0.414375	0.663746	-0.101468
C219	C	-0.940120	-0.231878	-0.103681
C220	C	-0.440120	0.268122	0.396319
C221	C	-0.937864	-0.162213	-0.053384
C222	C	-0.437864	0.337787	0.446616
H223	H	-0.942796	-0.281068	-0.073287
H224	H	-0.442796	0.218932	0.426713
H225	H	-0.893842	-0.230685	-0.132803
H226	H	-0.393842	0.269315	0.367197
H227	H	-0.985261	-0.231130	-0.139057
H228	H	-0.485261	0.268870	0.360943
H229	H	-0.892719	-0.162957	-0.018012
H230	H	-0.392719	0.337043	0.481988
H231	H	-0.984146	-0.163406	-0.024249
H232	H	-0.484146	0.336594	0.475751
C233	C	-0.931192	-0.194032	-0.542264
C234	C	-0.431192	0.305968	-0.042264
C235	C	-0.927497	-0.131575	-0.598950
C236	C	-0.427497	0.368425	-0.098950
H237	H	-0.933111	-0.246985	-0.567720
H238	H	-0.433111	0.253015	-0.067720
H239	H	-0.977190	-0.188963	-0.513449
H240	H	-0.477190	0.311037	-0.013449
H241	H	-0.885771	-0.188513	-0.507188
H242	H	-0.385771	0.311487	-0.007188
H243	H	-0.972921	-0.137091	-0.634022
H244	H	-0.472921	0.362909	-0.134022
H245	H	-0.881494	-0.136647	-0.627778
H246	H	-0.381494	0.363353	-0.127778
H247	H	-0.521793	0.018277	0.272443
H248	H	-0.021793	0.518277	0.772443
H249	H	-0.294340	0.021372	0.318304
H250	H	0.205660	0.521372	0.818304
C251	C	-0.919090	0.211781	-0.191121
C252	C	-0.419090	0.711781	0.308879
C253	C	-0.921321	0.142119	-0.241419
C254	C	-0.421321	0.642119	0.258581
H255	H	-0.916450	0.260972	-0.221516
H256	H	-0.416450	0.760972	0.278484
H257	H	-0.873947	0.211059	-0.155758
H258	H	-0.373947	0.711059	0.344242
H259	H	-0.965368	0.210560	-0.161987
H260	H	-0.465368	0.710560	0.338013
H261	H	-0.875040	0.143336	-0.270549
H262	H	-0.375040	0.643336	0.229451
H263	H	-0.966469	0.142841	-0.276796
H264	H	-0.466469	0.642841	0.223204
H265	H	-1.021532	-0.205866	0.269197
H266	H	-0.521532	0.294134	0.769197
C267	C	-0.772571	-0.731822	0.001945
C268	C	-0.272571	-0.231822	0.501945
C269	C	-0.816666	-0.785309	0.049296
C270	C	-0.316666	-0.285309	0.549296
H271	H	-0.741779	-0.763632	-0.031118
H272	H	-0.241779	-0.263632	0.468882
H273	H	-0.738771	-0.695611	0.034525
H274	H	-0.238771	-0.195611	0.534525
H275	H	-0.807262	-0.699957	-0.029694
H276	H	-0.307262	-0.199957	0.470306
H277	H	-0.781974	-0.817168	0.080940
H278	H	-0.281974	-0.317168	0.580940
H279	H	-0.850469	-0.821534	0.016713
H280	H	-0.350469	-0.321534	0.516713
H281	H	-1.028642	-0.363529	0.276839
H282	H	-0.528642	0.136471	0.776839
H283	H	-0.863869	-0.478569	0.099953
H284	H	-0.363869	0.021431	0.599953
