data_functionalizedCrystal
_audit_creation_method	'MofGen! by Chris Wilmer'
_symmetry_space_group_name_H-M	'P1'
_symmetry_Int_Tables_number	1
_symmetry_cell_setting	triclinic
loop_
_symmetry_equiv_pos_as_xyz
  x,y,z
_cell_length_a	10.540539
_cell_length_b	16.109301
_cell_length_c	14.586319
_cell_angle_alpha	89.994786
_cell_angle_beta	89.998549
_cell_angle_gamma	83.993486
loop_
_atom_site_label
_atom_site_type_symbol
_atom_site_fract_x
_atom_site_fract_y
_atom_site_fract_z
O1	O	1.684215	0.117165	-0.076200
O2	O	1.314645	0.128205	-0.076212
O3	O	1.509583	0.001716	-0.076197
O4	O	1.489278	0.243654	-0.076216
O5	O	1.509569	0.001714	0.076284
O6	O	1.314631	0.128203	0.076269
O7	O	1.684202	0.117163	0.076280
Cu8	Cu	1.499415	0.122683	0.090197
Cu9	Cu	1.499431	0.122685	-0.090129
O10	O	1.489264	0.243652	0.076265
C11	C	1.508753	-0.029265	0.000044
C12	C	1.506287	-0.121575	0.000046
C13	C	1.267347	0.127376	0.000027
C14	C	1.126434	0.124899	0.000023
C15	C	1.616226	-0.343175	0.000034
C16	C	1.613899	-0.429910	0.000027
C17	C	1.382612	-0.411450	0.000023
C18	C	1.384940	-0.324717	0.000024
C19	C	1.501751	-0.290582	0.000034
C20	C	1.497096	-0.464050	0.000026
C21	C	1.494572	-0.558091	0.000018
C22	C	1.504275	-0.196535	0.000041
C23	C	0.944360	0.029989	0.000386
C24	C	1.090943	0.032500	0.000033
C25	C	1.064135	0.169366	-0.087051
C26	C	0.917636	0.166213	-0.087115
C27	C	0.917105	0.168090	0.086285
C28	C	1.064075	0.168941	0.087426
C29	C	1.731500	0.117992	0.000039
C30	C	1.872413	0.120469	0.000037
C31	C	1.490093	0.274633	0.000022
C32	C	1.492559	0.366943	0.000015
N33	N	1.499413	0.122681	0.217029
N34	N	1.499443	0.122681	-0.216961
C35	C	1.585760	0.066691	0.452042
C36	C	1.585764	0.066689	0.548024
C37	C	1.413087	0.178673	0.548019
C38	C	1.413079	0.178671	0.452040
C39	C	1.499422	0.122680	0.404054
C40	C	1.499435	0.122681	0.596015
C41	C	1.499438	0.122679	0.700082
C42	C	1.499418	0.122681	0.299980
H43	H	1.711340	-0.315386	0.000041
Br44	Br	0.836098	0.276967	-0.093710
Br45	Br	1.702935	-0.009304	0.613149
Br46	Br	1.295913	0.254659	0.613146
H47	H	1.342766	0.224265	0.412965
H48	H	1.287509	-0.439253	0.000017
Br49	Br	1.769265	-0.501284	0.000021
H50	H	1.134050	-0.002489	0.062452
Br51	Br	1.229570	-0.253334	0.000012
Br52	Br	0.897570	-0.030855	0.104470
H53	H	0.914677	-0.006358	-0.061706
Br54	Br	1.161326	-0.025963	-0.104354
H55	H	0.885979	0.138187	0.152286
H56	H	0.889900	0.133349	-0.152198
H57	H	1.085521	0.237222	-0.090296
Br58	Br	1.132933	0.114703	0.194793
H59	H	1.107170	0.138478	-0.151849
H60	H	1.087341	0.236306	0.092678
H61	H	0.868927	0.234830	0.086867
Br62	Br	1.702938	-0.009298	0.386922
