data_functionalizedCrystal
_audit_creation_method	'MofGen! by Chris Wilmer'
_symmetry_space_group_name_H-M	'P1'
_symmetry_Int_Tables_number	1
_symmetry_cell_setting	triclinic
loop_
_symmetry_equiv_pos_as_xyz
  x,y,z
_cell_length_a	16.625546
_cell_length_b	17.077404
_cell_length_c	17.077396
_cell_angle_alpha	89.983895
_cell_angle_beta	89.968950
_cell_angle_gamma	90.020438
loop_
_atom_site_label
_atom_site_type_symbol
_atom_site_fract_x
_atom_site_fract_y
_atom_site_fract_z
Zn1	Zn	-0.321039	1.200039	-0.443809
Zn2	Zn	0.178961	1.700039	0.056191
Zn3	Zn	-0.455883	1.199953	-0.312539
Zn4	Zn	0.044117	1.699953	0.187461
Zn5	Zn	-0.321064	1.068776	-0.312560
Zn6	Zn	0.178936	1.568776	0.187440
Zn7	Zn	-0.455828	1.068740	-0.443766
Zn8	Zn	0.044172	1.568740	0.056234
O9	O	-0.388453	1.134377	-0.378169
O10	O	0.111547	1.634377	0.121831
O11	O	-0.338939	1.309875	-0.426406
O12	O	0.161061	1.809875	0.073594
O13	O	-0.438033	1.182531	-0.202695
O14	O	0.061967	1.682531	0.297305
O15	O	-0.208228	1.086240	-0.329997
O16	O	0.291772	1.586240	0.170003
O17	O	-0.438009	1.309811	-0.329962
O18	O	0.061991	1.809811	0.170038
O19	O	-0.208210	1.182679	-0.426426
O20	O	0.291790	1.682679	0.073574
O21	O	-0.338981	1.086156	-0.202710
O22	O	0.161019	1.586156	0.297290
O23	O	-0.338928	0.958925	-0.329955
O24	O	0.161072	1.458925	0.170045
O25	O	-0.437915	1.086178	-0.553618
O26	O	0.062085	1.586178	-0.053618
O27	O	-0.437939	0.958898	-0.426351
O28	O	0.062061	1.458898	0.073649
O29	O	-0.338885	1.182643	-0.553651
O30	O	0.161115	1.682643	-0.053651
O31	O	-0.568708	1.182496	-0.329920
O32	O	-0.068708	1.682496	0.170080
O33	O	-0.568668	1.086094	-0.426331
O34	O	-0.068668	1.586094	0.073669
C35	C	-0.388431	0.930429	-0.378151
C36	C	0.111569	1.430429	0.121849
C37	C	-0.388440	0.843179	-0.378162
C38	C	0.111560	1.343179	0.121838
C39	C	-0.336946	0.802223	-0.428457
C40	C	0.163054	1.302223	0.071543
C41	C	-0.336952	0.720243	-0.428460
C42	C	0.163048	1.220243	0.071540
C43	C	-0.388455	0.679220	-0.378173
C44	C	0.111545	1.179220	0.121827
C45	C	-0.439951	0.720182	-0.327872
C46	C	0.060049	1.220182	0.172128
C47	C	-0.439942	0.802161	-0.327865
C48	C	0.060058	1.302161	0.172135
C49	C	-0.439970	0.549312	-0.327892
C50	C	0.060030	1.049312	0.172108
C51	C	-0.439981	0.467327	-0.327900
C52	C	0.060019	0.967327	0.172100
C53	C	-0.336980	0.467394	-0.428487
C54	C	0.163020	0.967394	0.071513
C55	C	-0.336970	0.549373	-0.428480
C56	C	0.163030	1.049373	0.071520
C57	C	-0.388467	0.590329	-0.378180
C58	C	0.111533	1.090329	0.121820
C59	C	-0.597944	1.134303	-0.378136
C60	C	-0.097944	1.634303	0.121864
C61	C	-0.687565	1.134343	-0.378148
C62	C	-0.187565	1.634343	0.121852
C63	C	-1.015741	1.134480	-0.378230
C64	C	-0.515741	1.634480	0.121770
C65	C	-0.924433	1.134439	-0.378209
C66	C	-0.424433	1.634439	0.121791
C67	C	-0.851656	1.134411	-0.378188
C68	C	-0.351656	1.634411	0.121812
C69	C	-0.760342	1.134371	-0.378169
C70	C	-0.260342	1.634371	0.121831
C71	C	-0.178145	1.134473	-0.378219
C72	C	0.321855	1.634473	0.121781
C73	C	-0.088523	1.134514	-0.378240
C74	C	0.411477	1.634514	0.121760
C75	C	-0.388391	1.134417	-0.582913
C76	C	0.111609	1.634417	-0.082913
C77	C	-0.388364	1.134433	-0.670163
C78	C	0.111636	1.634433	-0.170163
C79	C	-0.388477	1.339121	-0.378187
C80	C	0.111523	1.839121	0.121813
C81	C	-0.388487	1.426371	-0.378194
C82	C	0.111513	1.926371	0.121806
C83	C	-0.336782	1.084266	-0.711160
C84	C	0.163218	1.584266	-0.211160
C85	C	-0.336764	1.084279	-0.793141
C86	C	0.163236	1.584279	-0.293141
C87	C	-0.388324	1.134464	-0.834122
C88	C	0.111676	1.634464	-0.334122
C89	C	-0.439912	1.184633	-0.793119
C90	C	0.060088	1.684633	-0.293119
C91	C	-0.439934	1.184615	-0.711140
C92	C	0.060066	1.684615	-0.211140
C93	C	-0.439862	1.184667	-0.963989
C94	C	0.060138	1.684667	-0.463989
C95	C	-0.439839	1.184685	-1.045974
C96	C	0.060161	1.684685	-0.545974
C97	C	-0.336692	1.084331	-1.045990
C98	C	0.163308	1.584331	-0.545990
C99	C	-0.336713	1.084313	-0.964011
C100	C	0.163287	1.584313	-0.464011
C101	C	-0.388301	1.134484	-0.923013
C102	C	0.111699	1.634484	-0.423013
C103	C	-0.388458	1.134383	-0.174221
C104	C	0.111542	1.634383	0.325779
C105	C	-0.388257	1.134518	-0.086971
C106	C	0.111743	1.634518	0.413029
H107	H	-0.295036	0.582771	-0.469433
H108	H	0.204964	1.082771	0.030567
N109	N	-0.281396	0.676068	-0.482691
N110	N	0.218604	1.176068	0.017309
H111	H	-0.248766	0.714495	-0.514546
H112	H	0.251234	1.214495	-0.014546
H113	H	-0.314254	0.642049	-0.518966
H114	H	0.185746	1.142049	-0.018966
H115	H	-0.481902	0.582656	-0.286931
H116	H	0.018098	1.082656	0.213069
N117	N	-0.495477	0.846339	-0.273615
N118	N	0.004523	1.346339	0.226385
H119	H	-0.528107	0.807914	-0.241759
H120	H	-0.028107	1.307914	0.258241
H121	H	-0.532829	0.880359	-0.305496
H122	H	-0.032829	1.380359	0.194504
N123	N	-0.495469	1.238794	-1.090176
N124	N	0.004531	1.738794	-0.590176
H125	H	-0.487626	1.231189	-1.148330
H126	H	0.012374	1.731189	-0.648330
H127	H	-0.482948	1.294864	-1.075860
H128	H	0.017052	1.794864	-0.575860
N129	N	-0.281108	1.030179	-0.837345
N130	N	0.218892	1.530179	-0.337345
H131	H	-0.243740	1.062113	-0.871366
H132	H	0.256260	1.562113	-0.371366
H133	H	-0.313900	0.993791	-0.871305
H134	H	0.186100	1.493791	-0.371305
N135	N	-0.281437	0.423226	-0.482742
N136	N	0.218563	0.923226	0.017258
H137	H	-0.289254	0.365068	-0.475116
H138	H	0.210746	0.865068	0.024884
H139	H	-0.223833	0.437567	-0.470630
H140	H	0.276167	0.937567	0.029370
H141	H	-0.481920	0.433929	-0.286951
H142	H	0.018080	0.933929	0.213049
H143	H	-0.481863	1.225528	-0.930612
H144	H	0.018137	1.725528	-0.430612
H145	H	-0.294791	1.043405	-0.677799
H146	H	0.205209	1.543405	-0.177799
H147	H	-0.481898	1.225490	-0.826493
H148	H	0.018102	1.725490	-0.326493
N149	N	-0.281042	1.030225	-1.090202
N150	N	0.218958	1.530225	-0.590202
H151	H	-0.288850	1.037848	-1.148354
H152	H	0.211150	1.537848	-0.648354
H153	H	-0.293577	0.974151	-1.075866
H154	H	0.206423	1.474151	-0.575866
H155	H	-0.481932	1.225472	-0.677761
H156	H	0.018068	1.725472	-0.177761
N157	N	-0.281400	0.846467	-0.482702
N158	N	0.218600	1.346467	0.017298
H159	H	-0.248780	0.808078	-0.514562
H160	H	0.251220	1.308078	-0.014562
H161	H	-0.244041	0.880478	-0.450813
H162	H	0.255959	1.380478	0.049187
N163	N	-0.495494	0.675933	-0.273629
N164	N	0.004506	1.175933	0.226371
H165	H	-0.532906	0.641923	-0.305467
H166	H	-0.032906	1.141923	0.194533
H167	H	-0.528060	0.714366	-0.241773
H168	H	-0.028060	1.214366	0.258227
H169	H	-0.294725	1.043452	-0.930646
H170	H	0.205275	1.543452	-0.430646
