data_functionalizedCrystal
_audit_creation_method	'MofGen! by Chris Wilmer'
_symmetry_space_group_name_H-M	'P1'
_symmetry_Int_Tables_number	1
_symmetry_cell_setting	triclinic
loop_
_symmetry_equiv_pos_as_xyz
  x,y,z
_cell_length_a	16.959455
_cell_length_b	16.959454
_cell_length_c	17.077396
_cell_angle_alpha	89.975265
_cell_angle_beta	89.981150
_cell_angle_gamma	90.019503
loop_
_atom_site_label
_atom_site_type_symbol
_atom_site_fract_x
_atom_site_fract_y
_atom_site_fract_z
Zn1	Zn	1.208416	-0.314694	-0.443850
Zn2	Zn	1.208329	-0.446881	-0.312592
Zn3	Zn	1.076235	-0.314720	-0.312599
Zn4	Zn	1.076209	-0.446833	-0.443817
O5	O	1.142297	-0.380782	-0.378214
O6	O	1.319015	-0.332238	-0.426449
O7	O	1.190781	-0.429381	-0.202746
O8	O	1.093816	-0.204105	-0.330026
O9	O	1.318951	-0.429356	-0.330014
O10	O	1.190929	-0.204086	-0.426455
O11	O	1.093732	-0.332282	-0.202751
O12	O	0.965621	-0.332235	-0.329995
O13	O	1.093772	-0.429273	-0.553668
O14	O	0.965602	-0.429298	-0.426400
O15	O	1.190904	-0.332191	-0.553692
O16	O	1.190756	-0.557486	-0.329983
O17	O	1.093688	-0.557450	-0.426393
C18	C	0.936931	-0.380765	-0.378195
C19	C	0.849075	-0.380776	-0.378205
C20	C	0.807765	-0.431269	-0.327925
C21	C	0.807830	-0.330290	-0.428492
C22	C	0.725284	-0.330296	-0.428501
C23	C	0.683975	-0.380789	-0.378221
C24	C	0.725212	-0.431275	-0.327931
C25	C	0.684041	-0.279805	-0.478784
C26	C	0.601490	-0.279808	-0.478795
C27	C	0.560180	-0.330306	-0.428518
C28	C	0.601422	-0.380795	-0.378227
C29	C	0.560112	-0.431288	-0.327947
C30	C	0.601353	-0.481781	-0.277659
C31	C	0.683901	-0.481773	-0.277654
C32	C	0.477631	-0.330314	-0.428523
C33	C	0.477559	-0.431294	-0.327953
C34	C	1.142231	-0.586148	-0.378201
C35	C	1.142275	-0.674005	-0.378222
C36	C	1.091828	-1.045492	-0.428410
C37	C	1.192987	-1.045469	-0.328099
C38	C	1.192960	-0.962923	-0.328092
C39	C	1.142364	-0.921658	-0.378243
C40	C	1.091797	-0.962938	-0.428403
C41	C	1.243521	-0.921636	-0.277928
C42	C	1.243495	-0.839085	-0.277918
C43	C	1.192903	-0.797819	-0.328074
C44	C	1.142334	-0.839104	-0.378236
C45	C	1.091738	-0.797839	-0.428388
C46	C	1.041172	-0.839123	-0.478554
C47	C	1.041205	-0.921671	-0.478559
C48	C	1.192871	-0.715270	-0.328070
C49	C	1.091707	-0.715285	-0.428381
C50	C	1.348466	-0.380800	-0.378234
C51	C	1.436322	-0.380807	-0.378243
C52	C	1.142345	-0.380724	-0.582959
C53	C	1.142366	-0.380699	-0.670209
C54	C	1.142385	-0.174614	-0.378245
C55	C	1.142423	-0.086757	-0.378258
C56	C	1.192944	-0.330144	-0.711212
C57	C	1.192953	-0.330118	-0.793193
C58	C	1.142388	-0.380651	-0.834168
C59	C	1.091804	-0.431208	-0.793159
C60	C	1.091791	-0.431229	-0.711180
C61	C	1.091836	-0.431160	-0.964029
C62	C	1.091850	-0.431140	-1.046013
C63	C	1.192998	-0.330048	-1.046042
C64	C	1.192985	-0.330070	-0.964063
C65	C	1.142402	-0.380628	-0.923059
C66	C	1.142295	-0.380783	-0.174267
C67	C	1.142428	-0.380585	-0.087017
H68	H	0.567920	-0.238694	-0.519744
O69	O	1.292690	-0.961598	-0.229139
C70	C	1.337326	-0.907461	-0.184874
H71	H	1.304930	-0.848642	-0.182117
H72	H	1.397338	-0.898622	-0.213671
C73	C	1.388567	-1.011965	-0.104732
C74	C	1.348774	-0.939724	-0.101340
H75	H	1.395632	-1.031866	-0.053205
H76	H	1.358498	-1.048438	-0.134556
H77	H	1.438573	-1.004588	-0.128733
H78	H	1.298766	-0.947102	-0.077348
H79	H	1.378835	-0.903252	-0.071510
H80	H	0.443931	-0.472415	-0.287011
O81	O	0.847787	-0.480430	-0.279162
C82	C	0.827580	-0.559229	-0.296181
H83	H	0.804909	-0.563293	-0.358885
H84	H	0.779641	-0.579841	-0.254065
C85	C	0.928734	-0.606978	-0.209945
C86	C	0.900896	-0.611971	-0.286962
H87	H	0.973957	-0.639514	-0.204255
H88	H	0.942346	-0.553890	-0.198477
H89	H	0.888778	-0.624154	-0.174857
H90	H	0.940848	-0.594787	-0.322047
H91	H	0.887292	-0.665058	-0.298436
O92	O	0.847992	-0.281358	-0.477413
C93	C	0.895769	-0.326420	-0.528017
H94	H	0.870876	-0.388681	-0.532767
H95	H	0.958318	-0.329109	-0.503731
C96	C	0.927663	-0.211435	-0.603851
C97	C	0.897086	-0.287904	-0.609689
H98	H	0.928479	-0.187676	-0.654229
H99	H	0.895478	-0.181075	-0.569756
H100	H	0.979785	-0.213687	-0.583609
H101	H	0.844962	-0.285650	-0.629920
H102	H	0.929263	-0.318263	-0.643789
O103	O	0.724206	-0.230874	-0.527705
C104	C	0.771976	-0.275939	-0.578313
H105	H	0.747075	-0.338197	-0.583065
H106	H	0.834526	-0.278638	-0.554029
C107	C	0.803883	-0.160953	-0.654140
C108	C	0.773295	-0.237418	-0.659982
H109	H	0.804700	-0.137190	-0.704517
H110	H	0.771702	-0.130591	-0.620043
H111	H	0.856005	-0.163212	-0.633900
H112	H	0.721171	-0.235156	-0.680212
H113	H	0.805467	-0.267779	-0.694085
H114	H	1.234123	-0.288996	-0.677856
O115	O	1.042816	-0.480312	-0.924104
C116	C	1.087803	-0.531386	-0.876701
H117	H	1.147713	-0.503509	-0.864445
H118	H	1.096470	-0.589956	-0.908284
C119	C	0.970726	-0.579953	-0.813864
C120	C	1.044306	-0.545711	-0.798806
H121	H	0.943894	-0.588793	-0.765816
H122	H	0.940416	-0.545547	-0.845802
H123	H	0.977958	-0.628758	-0.840185
H124	H	1.037072	-0.496903	-0.772495
H125	H	1.074613	-0.580110	-0.766862
H126	H	1.050630	-0.472350	-0.826527
H127	H	1.284669	-0.805477	-0.237071
H128	H	1.050597	-0.472388	-0.677795
O129	O	0.723928	-0.530928	-0.228891
C130	C	0.703735	-0.609731	-0.245906
H131	H	0.681065	-0.613802	-0.308610
H132	H	0.655801	-0.630350	-0.203789
C133	C	0.804899	-0.657459	-0.159669
C134	C	0.777061	-0.662460	-0.236686
H135	H	0.850127	-0.689987	-0.153979
H136	H	0.818502	-0.604368	-0.148203
H137	H	0.764946	-0.674640	-0.124580
H138	H	0.817009	-0.645270	-0.271772
H139	H	0.763466	-0.715550	-0.248157
O140	O	1.242228	-1.085479	-0.279421
C141	C	1.321001	-1.065285	-0.296644
H142	H	1.322627	-1.005327	-0.326806
H143	H	1.347606	-1.111708	-0.337033
C144	C	1.366918	-1.135148	-0.183108
C145	C	1.368915	-1.061504	-0.220148
H146	H	1.396475	-1.132819	-0.135924
H147	H	1.313847	-1.148756	-0.171506
H148	H	1.389087	-1.173826	-0.216774
H149	H	1.346737	-1.022829	-0.186486
H150	H	1.421983	-1.047889	-0.231743
O151	O	0.561257	-0.530745	-0.228706
C152	C	0.581416	-0.513394	-0.150496
H153	H	0.604132	-0.450245	-0.146629
H154	H	0.629306	-0.555751	-0.129905
C155	C	0.480157	-0.600088	-0.102851
C156	C	0.508052	-0.522524	-0.098101
H157	H	0.434904	-0.605723	-0.070529
H158	H	0.466577	-0.611780	-0.155542
H159	H	0.520072	-0.635376	-0.085693
H160	H	0.468140	-0.487238	-0.115267
H161	H	0.521623	-0.510826	-0.045411
H162	H	0.444057	-0.289197	-0.469461
H163	H	1.050509	-0.681692	-0.469224
H164	H	1.234037	-0.681660	-0.287221
O165	O	0.992139	-0.798997	-0.527354
C166	C	1.037098	-0.751167	-0.578067
H167	H	1.099357	-0.776001	-0.582976
H168	H	1.039815	-0.688620	-0.553782
C169	C	0.921969	-0.719366	-0.653607
C170	C	0.998435	-0.749871	-0.659642
H171	H	0.898119	-0.718562	-0.703925
H172	H	0.891678	-0.751587	-0.619439
H173	H	0.924244	-0.667246	-0.633367
H174	H	0.996159	-0.801992	-0.679872
H175	H	1.028725	-0.717658	-0.693815
O176	O	0.992170	-0.961740	-0.527395
C177	C	1.009376	-0.941508	-0.605646
H178	H	1.072511	-0.918767	-0.609668
H179	H	0.966966	-0.893615	-0.626126
C180	C	0.922633	-1.042755	-0.653084
C181	C	1.000178	-1.014830	-0.658025
H182	H	0.916955	-1.087982	-0.685395
H183	H	0.911038	-1.056384	-0.600365
H184	H	0.887300	-1.002837	-0.670149
H185	H	1.035508	-1.054744	-0.640951
H186	H	1.011778	-1.001210	-0.710743
O187	O	1.242163	-0.280987	-0.832902
C188	C	1.286781	-0.236381	-0.779158
H189	H	1.289491	-0.268775	-0.720716
H190	H	1.257865	-0.176346	-0.770442
C191	C	1.367588	-0.185207	-0.882947
C192	C	1.370923	-0.224997	-0.811170
H193	H	1.419490	-0.178181	-0.902694
H194	H	1.337527	-0.215256	-0.919156
H195	H	1.343488	-0.135182	-0.875674
H196	H	1.395013	-0.275024	-0.818445
H197	H	1.400990	-0.194955	-0.774962
H198	H	1.050660	-1.079109	-0.469256
H199	H	1.234165	-0.288926	-0.930703
H200	H	1.234184	-0.288881	-1.079431
H201	H	1.050673	-0.472286	-1.079373
