data_functionalizedCrystal
_audit_creation_method	'MofGen! by Chris Wilmer'
_symmetry_space_group_name_H-M	'P1'
_symmetry_Int_Tables_number	1
_symmetry_cell_setting	triclinic
loop_
_symmetry_equiv_pos_as_xyz
  x,y,z
_cell_length_a	19.805407
_cell_length_b	29.839131
_cell_length_c	19.805399
_cell_angle_alpha	90.029565
_cell_angle_beta	90.019573
_cell_angle_gamma	90.041420
loop_
_atom_site_label
_atom_site_type_symbol
_atom_site_fract_x
_atom_site_fract_y
_atom_site_fract_z
Zn1	Zn	1.034665	-0.178864	0.382710
Zn2	Zn	1.034550	-0.253991	0.269518
Zn3	Zn	0.921480	-0.178876	0.269535
Zn4	Zn	0.921414	-0.253967	0.382665
O5	O	0.978027	-0.216425	0.326107
O6	O	1.129366	-0.188834	0.367707
O7	O	1.019531	-0.244042	0.174804
O8	O	0.936570	-0.116007	0.284574
O9	O	1.129282	-0.244030	0.284545
O10	O	1.019727	-0.115998	0.367723
O11	O	0.936458	-0.188856	0.174816
O12	O	0.826754	-0.188832	0.284530
O13	O	0.936457	-0.243990	0.477388
O14	O	0.826706	-0.244002	0.367646
O15	O	1.019662	-0.188811	0.477421
O16	O	1.019467	-0.316855	0.284501
O17	O	0.936346	-0.316838	0.367630
C18	C	0.802171	-0.216416	0.326085
C19	C	0.726939	-0.216423	0.326092
C20	C	0.691587	-0.245193	0.369300
C21	C	0.620899	-0.245194	0.369310
C22	C	0.585564	-0.216427	0.326107
C23	C	0.620920	-0.187654	0.282897
C24	C	0.691607	-0.187651	0.282891
C25	C	0.335847	-0.187664	0.282919
C26	C	0.265155	-0.187669	0.282927
C27	C	0.265139	-0.245207	0.369338
C28	C	0.335826	-0.245204	0.369332
C29	C	0.371176	-0.216429	0.326125
C30	C	0.447825	-0.216428	0.326116
C31	C	0.508916	-0.216430	0.326112
C32	C	0.977905	-0.333147	0.326073
C33	C	0.977915	-0.383082	0.326082
C34	C	1.021387	-0.692722	0.282885
C35	C	1.021471	-0.880395	0.282912
O36	O	1.058335	-0.904656	0.246159
N37	N	0.978168	-0.903867	0.326158
C38	C	0.934844	-0.880418	0.369404
O39	O	0.898019	-0.904688	0.406194
C40	C	0.934764	-0.692746	0.369381
C41	C	0.978065	-0.669276	0.326127
C42	C	1.064685	-0.669252	0.239635
C43	C	1.064661	-0.622336	0.239626
C44	C	1.021339	-0.598891	0.282868
C45	C	0.978041	-0.622360	0.326118
C46	C	0.891444	-0.669297	0.412630
C47	C	0.891429	-0.622376	0.412621
C48	C	0.934730	-0.598907	0.369367
C49	C	0.934695	-0.551999	0.369351
N50	N	0.977998	-0.528527	0.326104
C51	C	1.021320	-0.551973	0.282863
C52	C	0.934888	-0.978948	0.369412
C53	C	0.934907	-1.025866	0.369418
C54	C	1.021534	-1.025840	0.282926
C55	C	1.021512	-0.978921	0.282918
C56	C	0.978191	-0.955476	0.326166
C57	C	1.021266	-0.453447	0.282847
C58	C	1.021237	-0.406527	0.282840
C59	C	0.934611	-0.406558	0.369334
C60	C	0.934638	-0.453473	0.369339
C61	C	0.977971	-0.476917	0.326093
O62	O	0.897855	-0.527708	0.406090
O63	O	1.058150	-0.527694	0.246090
C64	C	1.021411	-0.739637	0.282894
C65	C	0.978113	-0.763107	0.326144
C66	C	0.934791	-0.739661	0.369386
C67	C	0.978132	-0.810025	0.326149
C68	C	1.021454	-0.833470	0.282908
C69	C	1.064757	-0.809998	0.239661
C70	C	1.064733	-0.763083	0.239653
C71	C	0.891488	-0.763133	0.412632
C72	C	0.891515	-0.810049	0.412637
C73	C	0.934837	-0.833494	0.369395
C74	C	1.154570	-0.216434	0.326129
C75	C	1.229802	-0.216437	0.326139
C76	C	0.978065	-0.216396	0.502650
C77	C	0.978081	-0.216384	0.577882
C78	C	0.978168	-0.099246	0.326156
C79	C	0.978228	-0.049312	0.326176
C80	C	0.978028	-0.216420	0.150251
C81	C	0.978143	-0.216306	0.075019
C82	C	1.021407	-0.187652	0.613244
C83	C	1.021414	-0.187638	0.683933
C84	C	0.978098	-0.216361	0.719258
C85	C	0.934767	-0.245095	0.683890
C86	C	0.934757	-0.245105	0.613203
C87	C	0.934806	-0.245053	0.968963
C88	C	0.934820	-0.245041	1.039656
C89	C	1.021462	-0.187586	1.039694
C90	C	1.021453	-0.187597	0.969006
C91	C	0.978120	-0.216329	0.933645
C92	C	0.978112	-0.216342	0.856997
C93	C	0.978109	-0.216350	0.795905
H94	H	0.720390	-0.164221	0.247710
H95	H	1.099922	-0.603230	0.204407
H96	H	0.364592	-0.268631	0.404510
O97	O	1.063366	-0.383799	0.240801
C98	C	1.101596	-0.414557	0.202628
H99	H	1.103937	-0.447988	0.230362
H100	H	1.154923	-0.400969	0.195454
H101	H	1.076843	-0.419588	0.151200
H102	H	1.099967	-0.688336	0.204423
H103	H	1.056554	-0.472529	0.247634
H104	H	1.056809	-1.044937	0.247717
H105	H	0.856180	-0.688398	0.447849
O106	O	0.230724	-0.159769	0.240974
C107	C	0.160754	-0.165939	0.250252
H108	H	0.151082	-0.200628	0.272331
H109	H	0.133873	-0.162856	0.199562
H110	H	0.140727	-0.139323	0.286366
H111	H	1.056696	-0.164242	0.712722
H112	H	0.899531	-0.268455	0.940181
O113	O	0.370076	-0.159699	0.240886
C114	C	0.323727	-0.134302	0.202769
H115	H	0.273323	-0.152707	0.200375
H116	H	0.344133	-0.129457	0.149453
H117	H	0.316248	-0.100207	0.227655
O118	O	1.063543	-0.956174	0.240810
C119	C	1.048782	-0.967667	0.173338
H120	H	1.022772	-1.001749	0.171918
H121	H	1.097649	-0.969256	0.143034
H122	H	1.013989	-0.941292	0.150504
H123	H	0.236348	-0.268634	0.404522
O124	O	0.586493	-0.159749	0.240954
C125	C	0.516522	-0.165911	0.250235
H126	H	0.506841	-0.200603	0.272303
H127	H	0.489638	-0.162818	0.199548
H128	H	0.496505	-0.139298	0.286359
O129	O	0.892817	-1.048592	0.411493
C130	C	0.854568	-1.017832	0.449644
H131	H	0.882280	-0.984369	0.452004
H132	H	0.847322	-1.031368	0.502969
H133	H	0.803176	-1.012885	0.424809
H134	H	0.899609	-0.959863	0.404631
O135	O	0.849284	-0.599672	0.454658
C136	C	0.811088	-0.630452	0.492846
H137	H	0.808775	-0.663909	0.465122
H138	H	0.757750	-0.616931	0.500022
H139	H	0.835853	-0.635406	0.544271
O140	O	0.892553	-0.476205	0.411417
C141	C	0.854297	-0.445448	0.449566
H142	H	0.882000	-0.411981	0.451922
H143	H	0.847057	-0.458983	0.502893
H144	H	0.802902	-0.440509	0.424733
H145	H	0.899337	-0.387461	0.404539
H146	H	1.099993	-0.743977	0.204431
H147	H	1.100029	-0.829096	0.204451
O148	O	1.063551	-0.159653	0.934798
C149	C	1.101806	-0.134296	0.981168
H150	H	1.074093	-0.132732	1.031553
H151	H	1.109063	-0.098904	0.960761
H152	H	1.153193	-0.150748	0.988688
H153	H	0.856248	-0.829154	0.447859
H154	H	0.592119	-0.268622	0.404494
H155	H	0.856211	-0.744047	0.447845
H156	H	1.056683	-0.164264	0.584488
H157	H	1.056744	-0.164189	1.068493
O158	O	0.892673	-0.272956	1.073866
C159	C	0.854434	-0.298326	1.027499
H160	H	0.852104	-0.279933	0.977117
H161	H	0.801104	-0.303108	1.047915
H162	H	0.879172	-0.332450	1.019970
H163	H	0.899496	-0.268480	0.712657
H164	H	0.720352	-0.268620	0.404479
O165	O	0.892658	-0.273065	0.578954
C166	C	0.854420	-0.298409	0.625288
H167	H	0.882145	-0.299953	0.675683
H168	H	0.847165	-0.333809	0.604850
H169	H	0.803030	-0.281959	0.632798
