data_functionalizedCrystal
_audit_creation_method	'MofGen! by Chris Wilmer'
_symmetry_space_group_name_H-M	'P1'
_symmetry_Int_Tables_number	1
_symmetry_cell_setting	triclinic
loop_
_symmetry_equiv_pos_as_xyz
  x,y,z
_cell_length_a	16.625548
_cell_length_b	10.686285
_cell_length_c	10.686551
_cell_angle_alpha	80.915481
_cell_angle_beta	85.603024
_cell_angle_gamma	85.632645
loop_
_atom_site_label
_atom_site_type_symbol
_atom_site_fract_x
_atom_site_fract_y
_atom_site_fract_z
Zn1	Zn	1.288144	-0.450125	-0.679055
Zn2	Zn	1.788144	0.049875	-0.179055
Zn3	Zn	1.288079	-0.678705	-0.450553
Zn4	Zn	1.788079	-0.178705	0.049447
Zn5	Zn	1.143696	-0.466483	-0.466812
Zn6	Zn	1.643696	0.033517	0.033188
Zn7	Zn	1.162915	-0.662326	-0.662752
Zn8	Zn	1.662915	-0.162326	-0.162752
O9	O	1.220709	-0.564410	-0.564793
O10	O	1.720709	-0.064410	-0.064793
O11	O	1.400970	-0.480456	-0.648763
O12	O	1.900970	0.019544	-0.148763
O13	O	1.260856	-0.664254	-0.275079
O14	O	1.760856	-0.164254	0.224921
O15	O	1.154841	-0.286691	-0.508594
O16	O	1.654841	0.213309	-0.008594
O17	O	1.400922	-0.648392	-0.480883
O18	O	1.900922	-0.148392	0.019117
O19	O	1.260967	-0.274673	-0.664528
O20	O	1.760967	0.225327	-0.164528
O21	O	1.154778	-0.508336	-0.287024
O22	O	1.654778	-0.008336	0.212976
O23	O	1.033412	-0.492454	-0.492785
O24	O	1.533412	0.007546	0.007215
O25	O	1.187598	-0.620477	-0.842545
O26	O	1.687598	-0.120477	-0.342545
O27	O	1.047532	-0.636338	-0.636741
O28	O	1.547532	-0.136338	-0.136741
O29	O	1.279603	-0.464574	-0.854523
O30	O	1.779603	0.035426	-0.354523
O31	O	1.279492	-0.854155	-0.465074
O32	O	1.779492	-0.354155	0.034926
O33	O	1.187535	-0.842121	-0.620976
O34	O	1.687535	-0.342121	-0.120976
C35	C	1.235615	-0.894191	-0.539519
C36	C	1.735615	-0.394191	-0.039519
C37	C	1.242067	-1.035270	-0.528750
C38	C	1.742067	-0.535270	-0.028750
C39	C	1.011216	-0.564395	-0.564759
C40	C	1.511216	-0.064395	-0.064759
C41	C	0.921596	-0.564416	-0.564772
C42	C	1.421596	-0.064416	-0.064772
C43	C	0.593423	-0.564420	-0.564826
C44	C	1.093423	-0.064420	-0.064826
C45	C	0.684731	-0.564416	-0.564807
C46	C	1.184731	-0.064416	-0.064807
C47	C	0.757507	-0.564419	-0.564798
C48	C	1.257507	-0.064419	-0.064798
C49	C	0.848820	-0.564413	-0.564781
C50	C	1.348820	-0.064413	-0.064781
C51	C	1.431020	-0.564426	-0.564828
C52	C	1.931020	-0.064426	-0.064828
C53	C	1.520642	-0.564433	-0.564843
C54	C	2.020642	-0.064433	-0.064843
C55	C	1.235752	-0.538873	-0.895880
C56	C	1.735752	-0.038873	-0.395880
C57	C	1.242162	-0.527991	-1.036969
C58	C	1.742162	-0.027991	-0.536969
C59	C	1.205768	-0.233339	-0.590193
C60	C	1.705768	0.266661	-0.090193
C61	C	1.199401	-0.092256	-0.601017
C62	C	1.699401	0.407744	-0.101017
C63	C	1.205767	-0.589756	-0.235001
C64	C	1.705767	-0.089756	0.264999
C65	C	1.199496	-0.600280	-0.093940
C66	C	1.699496	-0.100280	0.406060
H67	H	1.157936	-1.033116	-0.671130
H68	H	1.657936	-0.533116	-0.171130
H69	H	1.283529	-1.094419	-0.458624
H70	H	1.783529	-0.594419	0.041376
N71	N	1.297042	-0.434973	-1.115345
N72	N	1.797042	0.065027	-0.615345
H73	H	1.279389	-0.346036	-1.099296
H74	H	1.779389	0.153964	-0.599296
H75	H	1.354492	-0.456547	-1.090805
H76	H	1.854492	0.043453	-0.590805
N77	N	1.144617	-0.693299	-1.015585
N78	N	1.644617	-0.193299	-0.515585
H79	H	1.147663	-0.688151	-0.922521
H80	H	1.647663	-0.188151	-0.422521
H81	H	1.087176	-0.671778	-1.040196
H82	H	1.587176	-0.171778	-0.540196
