data_functionalizedCrystal
_audit_creation_method	'MofGen! by Chris Wilmer'
_symmetry_space_group_name_H-M	'P1'
_symmetry_Int_Tables_number	1
_symmetry_cell_setting	triclinic
loop_
_symmetry_equiv_pos_as_xyz
  x,y,z
_cell_length_a	19.188933
_cell_length_b	19.188930
_cell_length_c	8.140239
_cell_angle_alpha	89.991371
_cell_angle_beta	89.998698
_cell_angle_gamma	83.145175
loop_
_atom_site_label
_atom_site_type_symbol
_atom_site_fract_x
_atom_site_fract_y
_atom_site_fract_z
O1	O	0.926142	0.087173	-0.136577
O2	O	0.722831	0.098906	-0.136595
O3	O	0.830354	-0.008616	-0.136553
O4	O	0.818620	0.194695	-0.136619
O5	O	0.830348	-0.008617	0.136674
O6	O	0.722825	0.098905	0.136632
O7	O	0.926136	0.087172	0.136650
Zn8	Zn	0.824480	0.093038	0.180022
Zn9	Zn	0.824488	0.093040	-0.179967
O10	O	0.818614	0.194694	0.136609
C11	C	0.696817	0.098525	0.000017
C12	C	0.619313	0.097384	0.000012
C13	C	0.066061	0.089239	-0.148904
C14	C	0.138885	0.090307	-0.148911
C15	C	0.175299	0.090844	0.000024
C16	C	0.138885	0.090295	0.148978
C17	C	0.066063	0.089219	0.148980
N18	N	0.284316	0.132262	0.110871
N19	N	0.353494	0.133285	0.110858
C20	C	0.394707	0.094082	0.000026
N21	N	0.364129	0.053826	-0.110818
N22	N	0.294944	0.052806	-0.110810
C23	C	0.254262	0.092009	0.000038
C24	C	0.510078	0.095785	-0.148925
C25	C	0.582904	0.096848	-0.148925
C26	C	0.582901	0.096843	0.148968
C27	C	0.510077	0.095772	0.148964
C28	C	0.473669	0.095246	0.000013
C29	C	0.829971	-0.034628	0.000065
C30	C	0.828830	-0.112132	0.000079
C31	C	0.891921	-0.157056	0.000092
C32	C	0.890849	-0.229880	0.000066
C33	C	0.826683	-0.257777	0.000059
C34	C	0.763584	-0.212843	0.000036
C35	C	0.764658	-0.140021	0.000046
N36	N	0.777634	-0.365782	0.093039
N37	N	0.776619	-0.434961	0.093033
C38	C	0.823445	-0.477185	0.000026
N39	N	0.871336	-0.447619	-0.092955
N40	N	0.872354	-0.378434	-0.092942
C41	C	0.825512	-0.336739	0.000047
C42	C	0.885378	-0.601073	0.000008
C43	C	0.884304	-0.673898	-0.000029
C44	C	0.757037	-0.656860	-0.000042
C45	C	0.758113	-0.584037	-0.000021
C46	C	0.822286	-0.556148	0.000011
C47	C	0.952150	0.087553	0.000035
C48	C	1.029655	0.088694	0.000029
C49	C	0.818997	0.220705	-0.000013
C50	C	0.820137	0.298210	-0.000038
N51	N	0.824480	0.093037	0.425704
N52	N	0.824493	0.093036	-0.425649
H53	H	0.612549	0.097277	0.270234
H54	H	0.480433	0.095354	-0.270209
H55	H	0.942227	-0.266463	0.000070
F56	F	0.621650	0.097422	-0.307450
F57	F	0.688746	-0.686545	-0.000057
H58	H	0.713280	-0.103444	0.000036
F59	F	0.027317	0.088676	-0.307432
H60	H	0.711340	-0.235562	0.000027
F61	F	0.177640	0.090863	0.307485
F62	F	0.953675	-0.571389	0.000050
H63	H	0.036421	0.088778	0.270263
H64	H	0.935682	-0.710475	-0.000027
F65	F	0.960219	-0.127379	0.000091
H66	H	0.480435	0.095330	0.270242
F67	F	0.690962	-0.536224	-0.000029
H68	H	0.168532	0.090755	-0.270194
