data_functionalizedCrystal
_audit_creation_method	'MofGen! by Chris Wilmer'
_symmetry_space_group_name_H-M	'P1'
_symmetry_Int_Tables_number	1
_symmetry_cell_setting	triclinic
loop_
_symmetry_equiv_pos_as_xyz
  x,y,z
_cell_length_a	11.169416
_cell_length_b	12.759401
_cell_length_c	12.759386
_cell_angle_alpha	90.040388
_cell_angle_beta	89.938984
_cell_angle_gamma	89.989499
loop_
_atom_site_label
_atom_site_type_symbol
_atom_site_fract_x
_atom_site_fract_y
_atom_site_fract_z
Zn1	Zn	-0.477348	-1.606514	-0.594003
Zn2	Zn	-0.678194	-1.606355	-0.418332
Zn3	Zn	-0.477524	-1.430749	-0.418343
Zn4	Zn	-0.677988	-1.430818	-0.593974
O5	O	-0.577763	-1.518609	-0.506163
O6	O	-0.504003	-1.753514	-0.570708
O7	O	-0.651734	-1.582965	-0.271312
O8	O	-0.309551	-1.454102	-0.441661
O9	O	-0.651564	-1.753397	-0.441643
O10	O	-0.309421	-1.583236	-0.570718
O11	O	-0.504303	-1.453948	-0.271320
O12	O	-0.504104	-1.283737	-0.441632
O13	O	-0.651213	-1.454220	-0.740999
O14	O	-0.651384	-1.283788	-0.570668
O15	O	-0.503803	-1.583303	-0.741021
O16	O	-0.846116	-1.583032	-0.441615
O17	O	-0.845965	-1.454066	-0.570658
C18	C	-0.577741	-1.245642	-0.506149
C19	C	-0.577761	-1.128865	-0.506168
C20	C	-0.889588	-1.518567	-0.506155
C21	C	-1.022988	-1.518646	-0.506187
C22	C	-0.577465	-1.518787	-0.780197
C23	C	-0.577338	-1.518863	-0.896974
C24	C	-0.264721	-1.518680	-0.506194
C25	C	-0.131321	-1.518710	-0.506207
C26	C	-0.577786	-1.792642	-0.506178
C27	C	-0.577796	-1.909419	-0.506184
C28	C	-0.654572	-1.074057	-0.573245
C29	C	-0.654588	-0.964333	-0.573257
C30	C	-0.500976	-0.964235	-0.439104
C31	C	-0.500956	-1.073957	-0.439098
C32	C	-0.743263	-1.074113	-0.650694
C33	C	-0.743278	-0.964389	-0.650706
C34	C	-0.577974	-1.518492	-0.233195
C35	C	-0.577763	-1.518619	-0.116419
C36	C	-0.653852	-1.586341	-0.061501
C37	C	-0.653644	-1.586461	0.048223
C38	C	-0.501246	-1.451134	0.048100
C39	C	-0.501461	-1.451010	-0.061622
C40	C	-0.741834	-1.664475	-0.061429
C41	C	-0.741626	-1.664594	0.048295
H42	H	-0.438400	-1.118577	-0.384484
C43	C	-0.416502	-0.903832	-0.365331
H44	H	-0.427517	-0.830636	-0.374937
H45	H	-0.335871	-0.921831	-0.380824
H46	H	-0.434020	-0.921757	-0.294708
H47	H	-0.439514	-1.395853	-0.106332
C48	C	-0.867716	-1.635767	-0.101308
H49	H	-0.867858	-1.635697	-0.175765
H50	H	-0.888996	-1.568126	-0.076324
H51	H	-0.923952	-1.685788	-0.076448
H52	H	-0.710049	-0.930418	-0.728056
C53	C	-0.709707	-1.114434	-0.760659
H54	H	-0.709709	-1.188892	-0.760651
H55	H	-0.632274	-1.089642	-0.778957
H56	H	-0.766459	-1.089657	-0.810207
C57	C	-0.862503	-1.120064	-0.611149
H58	H	-0.915619	-1.064601	-0.593547
H59	H	-0.848191	-1.161925	-0.550912
H60	H	-0.897272	-1.162004	-0.664603
H61	H	-0.439124	-1.396088	0.092730
H62	H	-0.830109	-1.636057	0.082593
H63	H	-0.836222	-0.934591	-0.628778
C64	C	-0.696095	-1.768556	-0.107715
H65	H	-0.675584	-1.814994	-0.052401
H66	H	-0.627449	-1.755603	-0.149765
H67	H	-0.757051	-1.799294	-0.149523
C68	C	-0.706989	-1.774342	0.088247
H69	H	-0.692875	-1.819393	0.030220
H70	H	-0.770293	-1.801824	0.129712
H71	H	-0.636406	-1.769512	0.129445
