data_functionalizedCrystal
_audit_creation_method	'MofGen! by Chris Wilmer'
_symmetry_space_group_name_H-M	'P1'
_symmetry_Int_Tables_number	1
_symmetry_cell_setting	triclinic
loop_
_symmetry_equiv_pos_as_xyz
  x,y,z
_cell_length_a	17.640112
_cell_length_b	21.395361
_cell_length_c	21.395356
_cell_angle_alpha	90.028219
_cell_angle_beta	101.171778
_cell_angle_gamma	78.744210
loop_
_atom_site_label
_atom_site_type_symbol
_atom_site_fract_x
_atom_site_fract_y
_atom_site_fract_z
Zn1	Zn	1.208336	0.055602	-0.160935
Zn2	Zn	1.208216	0.160398	-0.056176
Zn3	Zn	1.076152	0.076825	-0.077320
Zn4	Zn	1.076111	0.181559	-0.182052
O5	O	1.142204	0.118596	-0.119121
O6	O	1.318926	0.051766	-0.129352
O7	O	1.190664	0.149338	0.028692
O8	O	1.093754	-0.013679	-0.088423
O9	O	1.318838	0.128759	-0.052386
O10	O	1.190869	-0.029271	-0.149855
O11	O	1.093637	0.087937	0.013157
O12	O	0.965540	0.108456	-0.108899
O13	O	1.093684	0.164824	-0.266923
O14	O	0.965511	0.185403	-0.185845
O15	O	1.190830	0.072284	-0.251409
O16	O	1.190624	0.250894	-0.072862
O17	O	1.093568	0.266440	-0.165342
C18	C	0.936847	0.151529	-0.151959
C19	C	0.848994	0.165633	-0.166022
C20	C	0.560026	0.011438	-0.012290
C21	C	0.477475	0.024703	-0.025513
C22	C	0.477498	0.104939	-0.105499
C23	C	0.560050	0.091678	-0.092285
C24	C	0.601308	0.044927	-0.045679
C25	C	0.601333	0.125167	-0.125674
C26	C	0.683878	0.111909	-0.112458
C27	C	0.725141	0.065162	-0.065854
C28	C	0.683853	0.031669	-0.032464
C29	C	0.560074	0.171921	-0.172276
C30	C	0.601356	0.205410	-0.205665
C31	C	0.683903	0.192149	-0.192453
C32	C	0.725166	0.145402	-0.145848
C33	C	0.725191	0.225642	-0.225842
C34	C	0.807736	0.212384	-0.212627
C35	C	0.807712	0.132144	-0.132633
C36	C	1.142100	0.281400	-0.119109
C37	C	1.142128	0.351037	-0.119114
C38	C	1.142266	0.118547	-0.282534
C39	C	1.142292	0.118526	-0.352171
C40	C	1.348363	0.085535	-0.086155
C41	C	1.436216	0.071446	-0.072107
C42	C	1.192710	0.375627	-0.070995
C43	C	1.192747	0.441056	-0.071006
C44	C	1.142188	0.481896	-0.119131
C45	C	1.091602	0.457298	-0.167259
C46	C	1.091572	0.391869	-0.167250
C47	C	1.071021	0.597027	-0.135432
C48	C	1.071050	0.662456	-0.135437
C49	C	1.142281	0.683701	-0.119162
C50	C	1.213486	0.639511	-0.102869
C51	C	1.213456	0.574081	-0.102861
C52	C	1.142215	0.552844	-0.119147
C53	C	1.192908	0.779237	-0.071052
C54	C	1.192946	0.844667	-0.071067
C55	C	1.091793	0.860909	-0.167318
C56	C	1.091762	0.795479	-0.167305
C57	C	1.142318	0.754647	-0.119169
C58	C	1.142330	0.955152	-0.119153
C59	C	1.142387	0.885502	-0.119194
C60	C	1.091784	0.086548	-0.392961
C61	C	1.091781	0.086537	-0.458397
C62	C	1.142301	0.118495	-0.483038
C63	C	1.192813	0.150480	-0.442240
C64	C	1.192809	0.150496	-0.376806
C65	C	1.213516	0.111996	-0.575331
C66	C	1.213521	0.111976	-0.640763
C67	C	1.142314	0.118451	-0.684857
C68	C	1.071099	0.124933	-0.663511
C69	C	1.071095	0.124948	-0.598078
C70	C	1.142311	0.118482	-0.553989
C71	C	1.091799	0.086459	-0.796601
C72	C	1.091795	0.086453	-0.862038
C73	C	1.192833	0.150391	-0.845878
C74	C	1.192830	0.150402	-0.780443
C75	C	1.142314	0.118433	-0.755808
C76	C	1.142187	0.118592	0.043664
C77	C	1.142314	0.118412	0.113325
H78	H	0.443866	-0.002576	0.001675
H79	H	1.013070	0.698432	-0.148697
H80	H	1.050630	0.894159	-0.206506
Cl81	Cl	0.859638	0.254487	-0.254601
H82	H	1.050438	0.490554	-0.206444
H83	H	0.717448	-0.006409	0.005478
H84	H	1.013011	0.579738	-0.148688
Cl85	Cl	1.302966	0.518530	-0.082385
H86	H	1.050647	0.060519	-0.372908
Cl87	Cl	0.859584	0.073366	-0.074046
H88	H	0.691587	0.263710	-0.263784
H89	H	1.233946	0.176501	-0.462307
H90	H	0.593620	-0.026641	0.025651
Cl91	Cl	1.027977	0.360955	-0.227748
Cl92	Cl	1.256547	0.875579	-0.010572
Cl93	Cl	1.028298	0.046317	-0.509683
Cl94	Cl	0.828914	0.048497	-0.049236
H95	H	0.443895	0.143005	-0.143443
Cl96	Cl	0.549482	0.264187	-0.264244
Cl97	Cl	0.981572	0.133101	-0.571245
H98	H	1.050665	0.060428	-0.776542
H99	H	1.013116	0.130201	-0.699412
Cl100	Cl	1.256312	0.190699	-0.325524
H101	H	1.233969	0.176411	-0.865940
Cl102	Cl	1.256462	0.727903	-0.010539
Cl103	Cl	1.028270	0.046269	-0.913322
Cl104	Cl	1.256278	0.324297	-0.010488
Cl105	Cl	0.456301	0.188595	-0.188881
Cl106	Cl	1.256336	0.190600	-0.729161
H107	H	1.233940	0.461081	-0.031821
Cl108	Cl	1.303039	0.666211	-0.082402
H109	H	1.271509	0.106695	-0.658137
H110	H	1.050570	0.775457	-0.206487
H111	H	1.271506	0.106718	-0.539432
