data_functionalizedCrystal
_audit_creation_method	'MofGen! by Chris Wilmer'
_symmetry_space_group_name_H-M	'P1'
_symmetry_Int_Tables_number	1
_symmetry_cell_setting	triclinic
loop_
_symmetry_equiv_pos_as_xyz
  x,y,z
_cell_length_a	10.654550
_cell_length_b	11.792241
_cell_length_c	9.130313
_cell_angle_alpha	89.998583
_cell_angle_beta	89.996220
_cell_angle_gamma	84.339159
loop_
_atom_site_label
_atom_site_type_symbol
_atom_site_fract_x
_atom_site_fract_y
_atom_site_fract_z
O1	O	1.667383	0.159415	-0.121920
O2	O	1.301862	0.174603	-0.121897
O3	O	1.493493	0.001859	-0.121899
O4	O	1.475752	0.332159	-0.121918
O5	O	1.493490	0.001864	0.121700
O6	O	1.301859	0.174608	0.121702
O7	O	1.667381	0.159419	0.121678
Cu8	Cu	1.484620	0.167014	0.143933
Cu9	Cu	1.484623	0.167008	-0.144151
O10	O	1.475750	0.332164	0.121680
C11	C	1.255066	0.173490	-0.000095
C12	C	1.115632	0.170154	-0.000085
C13	C	1.035858	0.271863	-0.000113
C14	C	0.904847	0.268721	-0.000138
C15	C	0.933394	0.062152	-0.000114
C16	C	1.064404	0.065295	-0.000079
C17	C	1.019376	0.391124	-0.000133
C18	C	0.888364	0.387982	-0.000158
C19	C	1.492377	-0.040432	-0.000100
C20	C	1.489042	-0.166454	-0.000101
C21	C	1.482908	-0.397180	-0.000125
C22	C	1.486316	-0.268787	-0.000112
C23	C	1.714177	0.160532	-0.000127
C24	C	1.853611	0.163869	-0.000146
C25	C	1.476865	0.374455	-0.000122
C26	C	1.480201	0.500476	-0.000130
N27	N	1.484627	0.167017	0.346555
N28	N	1.484625	0.166996	-0.346774
C29	C	1.569503	0.090552	0.423206
C30	C	1.569500	0.090539	0.576543
C31	C	1.399740	0.243465	0.576564
C32	C	1.399739	0.243472	0.423230
C33	C	1.667516	0.002265	0.423195
C34	C	1.667513	0.002251	0.576532
H35	H	0.842589	0.424026	0.105008
H36	H	1.763969	0.021698	0.618141
O37	O	0.838627	0.441582	-0.121891
C38	C	0.879612	0.542536	-0.343562
C39	C	0.936107	0.481842	-0.205790
H40	H	0.958394	0.575124	-0.411418
H41	H	0.828831	0.480114	-0.411651
H42	H	0.809760	0.617379	-0.309551
H43	H	1.006010	0.407004	-0.239671
H44	H	0.986810	0.544339	-0.137735
O45	O	1.631461	-0.096204	0.633036
C46	C	1.563555	-0.281136	0.582139
C47	C	1.604368	-0.169703	0.517951
H48	H	1.541614	-0.340581	0.489124
H49	H	1.642979	-0.324163	0.652337
H50	H	1.475762	-0.261121	0.652492
H51	H	1.692132	-0.189619	0.447531
H52	H	1.524869	-0.126707	0.447836
H53	H	0.891668	-0.023221	-0.000132
H54	H	1.048574	0.437769	0.101816
O55	O	1.317165	0.317772	0.650822
C56	C	1.148833	0.469497	0.634658
C57	C	1.242265	0.385386	0.550384
H58	H	1.088270	0.524201	0.553490
H59	H	1.085682	0.420012	0.706400
H60	H	1.203451	0.526603	0.706491
H61	H	1.187750	0.328260	0.478471
H62	H	1.305416	0.434942	0.478734
H63	H	1.129352	-0.017527	-0.000036
H64	H	1.054925	0.429096	-0.105307
O65	O	1.642433	-0.101843	0.373457
C66	C	1.715647	-0.267452	0.231296
C67	C	1.744237	-0.149590	0.287559
H68	H	1.797926	-0.306080	0.161812
H69	H	1.701566	-0.325703	0.328339
H70	H	1.626228	-0.257789	0.161999
H71	H	1.833667	-0.159145	0.356832
H72	H	1.758239	-0.091382	0.190451
O73	O	1.776303	0.035213	0.366678
C74	C	1.980653	0.097284	0.417551
C75	C	1.857532	0.059961	0.481753
H76	H	2.046350	0.117326	0.510557
H77	H	2.028548	0.025671	0.347320
H78	H	1.958166	0.176572	0.347226
H79	H	1.879910	-0.019301	0.552143
H80	H	1.809671	0.131641	0.551900
H81	H	1.330615	0.305726	0.360822
