data_functionalizedCrystal
_audit_creation_method	'MofGen! by Chris Wilmer'
_symmetry_space_group_name_H-M	'P1'
_symmetry_Int_Tables_number	1
_symmetry_cell_setting	triclinic
loop_
_symmetry_equiv_pos_as_xyz
  x,y,z
_cell_length_a	15.944545
_cell_length_b	14.519709
_cell_length_c	13.596369
_cell_angle_alpha	89.998664
_cell_angle_beta	90.003141
_cell_angle_gamma	96.411841
loop_
_atom_site_label
_atom_site_type_symbol
_atom_site_fract_x
_atom_site_fract_y
_atom_site_fract_z
O1	O	1.114702	-0.118908	0.081730
O2	O	0.870173	-0.133578	0.081746
O3	O	0.998921	0.008007	0.081729
O4	O	0.985954	-0.260493	0.081747
O5	O	0.998905	0.007999	-0.081854
O6	O	0.870157	-0.133586	-0.081837
O7	O	1.114686	-0.118916	-0.081853
Zn8	Zn	0.992419	-0.126252	-0.107817
Zn9	Zn	0.992440	-0.126242	0.107710
O10	O	0.985939	-0.260501	-0.081836
C11	C	0.838870	-0.132974	-0.000043
C12	C	0.745621	-0.131151	-0.000038
C13	C	0.474853	-0.037944	-0.000054
C14	C	0.525492	-0.082885	-0.080709
C15	C	0.409968	-0.124651	-0.000055
C16	C	0.525489	-0.082900	0.080571
C17	C	0.574886	-0.127840	-0.000045
C18	C	0.459379	-0.169569	-0.080776
C19	C	0.459372	-0.169572	0.080577
C20	C	0.509978	-0.214576	-0.000097
C21	C	0.314963	-0.122811	-0.000061
C22	C	0.669888	-0.129686	-0.000045
C23	C	0.998309	0.042362	-0.000063
C24	C	0.996498	0.144740	-0.000063
C25	C	1.145989	-0.119520	-0.000061
C26	C	1.239238	-0.121343	-0.000061
C27	C	0.986551	-0.294856	-0.000042
C28	C	0.988362	-0.397234	-0.000035
N29	N	0.992411	-0.126259	-0.254909
C30	C	0.989831	0.519624	-0.000037
C31	C	0.991683	0.415319	-0.000045
C32	C	0.993165	0.332185	-0.000051
C33	C	0.995016	0.227874	-0.000057
C34	C	0.992416	-0.126261	-0.343907
C35	C	0.992424	-0.126254	-0.455558
C36	C	0.992435	-0.126244	-0.544549
C37	C	0.992444	-0.126238	-0.656207
N38	N	0.992455	-0.126228	0.254802
H39	H	0.554360	-0.046263	0.148754
H40	H	0.459092	0.036729	-0.000138
H41	H	0.554364	-0.046269	-0.148900
H42	H	0.430616	-0.206163	-0.149036
H43	H	0.430485	-0.206155	0.148771
H44	H	0.525578	-0.289307	-0.000139
