data_functionalizedCrystal
_audit_creation_method	'MofGen! by Chris Wilmer'
_symmetry_space_group_name_H-M	'P1'
_symmetry_Int_Tables_number	1
_symmetry_cell_setting	triclinic
loop_
_symmetry_equiv_pos_as_xyz
  x,y,z
_cell_length_a	16.992701
_cell_length_b	13.596369
_cell_length_c	16.974813
_cell_angle_alpha	93.660550
_cell_angle_beta	87.023742
_cell_angle_gamma	90.005303
loop_
_atom_site_label
_atom_site_type_symbol
_atom_site_fract_x
_atom_site_fract_y
_atom_site_fract_z
O1	O	1.040212	0.095139	0.167641
O2	O	0.811928	0.094994	0.165804
O3	O	0.932434	0.085932	0.052021
O4	O	0.919706	0.104201	0.281424
O5	O	0.932422	-0.077651	0.052014
O6	O	0.811916	-0.068590	0.165797
O7	O	1.040200	-0.068444	0.167634
Zn8	Zn	0.926056	-0.094489	0.166714
Zn9	Zn	0.926072	0.121039	0.166724
O10	O	0.919694	-0.059383	0.281417
C11	C	0.782712	0.013014	0.163435
C12	C	0.695676	0.012452	0.156376
N13	N	0.926051	-0.241582	0.166708
C14	C	0.206767	0.008679	0.108947
C15	C	0.288547	0.009201	0.115586
C16	C	0.320009	0.015159	0.190340
C17	C	0.269688	0.020584	0.258461
C18	C	0.187910	0.020054	0.251822
C19	C	0.563577	0.017347	0.217857
C20	C	0.645361	0.017880	0.224491
C21	C	0.664214	0.006495	0.081615
C22	C	0.582434	0.005972	0.074983
C23	C	0.532120	0.011392	0.143103
N24	N	0.403601	0.015696	0.197128
N25	N	0.448530	0.010847	0.136315
C26	C	0.926071	-0.642871	0.166725
C27	C	0.926063	-0.531220	0.166723
C28	C	0.926061	-0.442230	0.166717
C29	C	0.926053	-0.330572	0.166714
C30	C	1.069416	0.013538	0.170004
C31	C	1.156452	0.014106	0.177062
C32	C	0.931944	0.001794	0.022529
C33	C	0.930491	-0.005197	-0.065340
N34	N	0.926083	0.268131	0.166725
C35	C	0.929817	0.080687	-0.106613
C36	C	0.928448	0.074115	-0.189174
C37	C	0.927758	-0.018342	-0.230462
C38	C	0.928430	-0.104233	-0.189184
C39	C	0.929793	-0.097660	-0.106624
C40	C	0.923673	-0.047562	-0.477382
C41	C	0.922311	-0.054129	-0.559949
C42	C	0.922328	0.124220	-0.559933
C43	C	0.923697	0.130785	-0.477372
C44	C	0.924364	0.044894	-0.436100
N45	N	0.926360	-0.025062	-0.314854
N46	N	0.925756	0.051615	-0.351710
C47	C	0.920185	0.024758	0.310910
C48	C	0.921637	0.031755	0.398779
H49	H	0.181157	0.003833	0.048074
C50	C	0.930576	0.182398	-0.061203
N51	N	0.931144	0.259010	-0.027003
C52	C	0.924456	0.232495	-0.431961
N53	N	0.925030	0.309104	-0.397758
C54	C	0.679967	0.024432	0.306731
N55	N	0.706033	0.029370	0.368671
H56	H	0.146944	0.024471	0.307289
C57	C	0.508242	0.023297	0.292793
N58	N	0.466560	0.027772	0.349238
C59	C	0.719565	0.000518	0.006688
N60	N	0.761257	-0.003991	-0.049750
H61	H	0.329510	0.004777	0.060119
C62	C	0.547832	-0.000603	-0.007253
N63	N	0.521769	-0.005559	-0.069195
C64	C	0.304300	0.027134	0.340692
N65	N	0.330369	0.032072	0.402631
C66	C	0.921585	0.218693	-0.605338
N67	N	0.921021	0.289854	-0.639537
H68	H	0.927863	-0.179514	-0.222807
H69	H	0.930331	-0.167596	-0.073020
C70	C	0.921549	-0.155843	-0.605364
N71	N	0.920976	-0.232451	-0.639571
H72	H	0.924232	-0.117501	-0.443790
H73	H	0.927902	0.144051	-0.222775
