data_functionalizedCrystal
_audit_creation_method	'MofGen! by Chris Wilmer'
_symmetry_space_group_name_H-M	'P1'
_symmetry_Int_Tables_number	1
_symmetry_cell_setting	triclinic
loop_
_symmetry_equiv_pos_as_xyz
  x,y,z
_cell_length_a	12.811438
_cell_length_b	12.837942
_cell_length_c	8.140239
_cell_angle_alpha	89.996939
_cell_angle_beta	84.565819
_cell_angle_gamma	89.411773
loop_
_atom_site_label
_atom_site_type_symbol
_atom_site_fract_x
_atom_site_fract_y
_atom_site_fract_z
O1	O	1.406643	0.139684	-0.346163
O2	O	1.102578	0.154873	-0.300869
O3	O	1.247868	-0.003653	-0.322502
O4	O	1.261352	0.298211	-0.324530
O5	O	1.247859	-0.003655	-0.049273
O6	O	1.102569	0.154871	-0.027641
O7	O	1.406634	0.139683	-0.072935
Zn8	Zn	1.254600	0.147277	-0.006907
Zn9	Zn	1.254612	0.147279	-0.366897
O10	O	1.261343	0.298209	-0.051302
C11	C	1.063384	0.154021	-0.158417
C12	C	0.946611	0.151472	-0.141022
C13	C	0.782020	0.147879	0.032422
C14	C	0.891739	0.150274	0.016086
C15	C	0.891757	0.150277	-0.281804
C16	C	0.782039	0.147882	-0.265468
C17	C	0.727174	0.146681	-0.108349
C18	C	0.617454	0.144278	-0.092014
C19	C	0.617474	0.144289	-0.389902
C20	C	0.727193	0.146684	-0.406239
C21	C	1.243308	-0.042294	-0.185210
C22	C	1.229722	-0.157430	-0.183189
C23	C	1.393052	-0.397684	-0.207553
C24	C	1.380291	-0.505865	-0.205655
C25	C	1.191441	-0.481975	-0.177506
C26	C	1.204202	-0.373794	-0.179404
C27	C	1.305010	-0.331653	-0.194426
C28	C	1.317770	-0.223470	-0.196312
C29	C	1.128921	-0.199582	-0.168175
C30	C	1.116160	-0.307763	-0.166277
C31	C	1.445827	0.140535	-0.215390
C32	C	1.562600	0.143083	-0.232796
C33	C	1.265903	0.336850	-0.188598
C34	C	1.279489	0.451986	-0.190629
N35	N	1.254599	0.147274	0.238776
N36	N	1.254620	0.147273	-0.612581
H37	H	0.572785	0.143308	0.035920
C38	C	1.428654	-0.177110	-0.212839
C39	C	1.504803	-0.201849	-0.082318
C40	C	1.615691	-0.155493	-0.098851
C41	C	1.650429	-0.084397	-0.245905
C42	C	1.574279	-0.059654	-0.376436
C43	C	1.463391	-0.106010	-0.359903
H44	H	1.479089	-0.254482	0.026549
H45	H	1.672062	-0.173810	-0.002222
H46	H	1.732515	-0.050081	-0.258143
H47	H	1.599993	-0.007021	-0.485303
H48	H	1.407020	-0.087693	-0.456531
C49	C	1.080565	-0.528353	-0.161025
C50	C	1.045815	-0.599469	-0.014001
C51	C	0.934939	-0.645853	0.002464
C52	C	0.858814	-0.621122	-0.128095
C53	C	0.893563	-0.550003	-0.275129
C54	C	1.004438	-0.503619	-0.291594
H55	H	1.102169	-0.617779	0.082656
H56	H	0.909217	-0.698500	0.111309
H57	H	0.776737	-0.655458	-0.115906
H58	H	0.837209	-0.531692	-0.371786
H59	H	1.030161	-0.450972	-0.400440
C60	C	1.503934	-0.351318	-0.224060
C61	C	1.580070	-0.376051	-0.093517
C62	C	1.690953	-0.329686	-0.110021
C63	C	1.725701	-0.258589	-0.257068
C64	C	1.649564	-0.233852	-0.387622
C65	C	1.538680	-0.280217	-0.371118
H66	H	1.554348	-0.428685	0.015345
H67	H	1.747315	-0.347998	-0.013376
H68	H	1.807784	-0.224267	-0.269286
H69	H	1.675285	-0.181218	-0.496484
H70	H	1.482319	-0.261905	-0.467763
H71	H	0.737349	0.146908	0.160354
C72	C	1.477138	-0.578500	-0.220088
C73	C	1.556790	-0.573487	-0.090078
C74	C	1.653641	-0.646123	-0.104515
C75	C	1.670841	-0.723773	-0.248961
C76	C	1.591187	-0.728789	-0.378980
C77	C	1.494335	-0.656153	-0.364544
H78	H	1.544060	-0.516004	0.016859
H79	H	1.712606	-0.642410	-0.008265
H80	H	1.742536	-0.777543	-0.259647
H81	H	1.603917	-0.786273	-0.485917
H82	H	1.435370	-0.659867	-0.460794
C83	C	1.005278	-0.354128	-0.149760
C84	C	0.970537	-0.425226	-0.002711
C85	C	0.859653	-0.471590	0.013808
C86	C	0.783509	-0.446855	-0.116723
C87	C	0.818249	-0.375753	-0.263783
C88	C	0.929133	-0.329389	-0.280301
H89	H	1.026904	-0.443540	0.093925
H90	H	0.833937	-0.524225	0.122671
H91	H	0.701426	-0.481176	-0.104495
H92	H	0.761881	-0.357439	-0.360419
H93	H	0.954849	-0.276754	-0.389165
C94	C	1.032064	-0.126948	-0.153734
C95	C	1.014859	-0.049280	-0.293039
C96	C	0.918005	0.023352	-0.278589
C97	C	0.838356	0.018317	-0.124834
C98	C	0.855559	-0.059354	0.014483
C99	C	0.952413	-0.131986	0.000033
H100	H	1.073822	-0.045550	-0.406868
H101	H	0.905270	0.080849	-0.381721
H102	H	0.766659	0.072084	-0.114137
H103	H	0.796596	-0.063084	0.128311
H104	H	0.965148	-0.189483	0.103164
H105	H	0.572807	0.143317	-0.504529
H106	H	0.936390	0.151253	0.130717
H107	H	0.936446	0.151264	-0.409722
H108	H	0.771878	0.147666	-0.534160
