data_functionalizedCrystal
_audit_creation_method	'MofGen! by Chris Wilmer'
_symmetry_space_group_name_H-M	'P1'
_symmetry_Int_Tables_number	1
_symmetry_cell_setting	triclinic
loop_
_symmetry_equiv_pos_as_xyz
  x,y,z
_cell_length_a	21.395362
_cell_length_b	18.050590
_cell_length_c	21.395355
_cell_angle_alpha	89.981964
_cell_angle_beta	89.956060
_cell_angle_gamma	90.034430
loop_
_atom_site_label
_atom_site_type_symbol
_atom_site_fract_x
_atom_site_fract_y
_atom_site_fract_z
Zn1	Zn	0.957912	-0.295431	-0.354588
Zn2	Zn	1.291246	0.037903	-0.021254
Zn3	Zn	1.624579	0.371236	0.312079
Zn4	Zn	0.957837	-0.419603	-0.249811
Zn5	Zn	1.291170	-0.086269	0.083522
Zn6	Zn	1.624504	0.247064	0.416856
Zn7	Zn	0.853127	-0.295465	-0.249789
Zn8	Zn	1.186461	0.037868	0.083544
Zn9	Zn	1.519794	0.371201	0.416878
Zn10	Zn	0.853119	-0.419618	-0.354516
Zn11	Zn	1.186452	-0.086284	-0.021183
Zn12	Zn	1.519785	0.247049	0.312151
O13	O	0.905499	-0.357529	-0.302176
O14	O	1.238832	-0.024196	0.031157
O15	O	1.572166	0.309138	0.364491
O16	O	1.045580	-0.311881	-0.340728
O17	O	1.378914	0.021452	-0.007395
O18	O	1.712247	0.354785	0.325938
O19	O	0.943919	-0.403143	-0.162130
O20	O	1.277253	-0.069810	0.171203
O21	O	1.610586	0.263523	0.504536
O22	O	0.867062	-0.191536	-0.263712
O23	O	1.200396	0.141797	0.069622
O24	O	1.533729	0.475131	0.402955
O25	O	1.045525	-0.403110	-0.263749
O26	O	1.378858	-0.069777	0.069584
O27	O	1.712192	0.263557	0.402917
O28	O	0.944048	-0.191511	-0.340707
O29	O	1.277381	0.141823	-0.007373
O30	O	1.610714	0.475156	0.325960
O31	O	0.866989	-0.311940	-0.162114
O32	O	1.200323	0.021393	0.171219
O33	O	1.533656	0.354726	0.504553
O34	O	0.765448	-0.311955	-0.263642
O35	O	1.098782	0.021378	0.069691
O36	O	1.432115	0.354711	0.403025
O37	O	0.867048	-0.403136	-0.442203
O38	O	1.200381	-0.069803	-0.108870
O39	O	1.533714	0.263531	0.224463
O40	O	0.765442	-0.403170	-0.340584
O41	O	1.098775	-0.069836	-0.007251
O42	O	1.432109	0.263497	0.326082
O43	O	0.944039	-0.311896	-0.442256
O44	O	1.277373	0.021437	-0.108923
O45	O	1.610706	0.354770	0.224411
O46	O	0.943911	-0.523529	-0.263680
O47	O	1.277244	-0.190196	0.069654
O48	O	1.610578	0.143138	0.402987
O49	O	0.866975	-0.523540	-0.340606
O50	O	1.200308	-0.190207	-0.007272
O51	O	1.533641	0.143126	0.326061
C52	C	0.742711	-0.357568	-0.302103
C53	C	1.076045	-0.024235	0.031230
C54	C	1.409378	0.309098	0.364563
C55	C	0.673070	-0.357603	-0.302087
C56	C	1.006403	-0.024270	0.031246
C57	C	1.339737	0.309064	0.364580
C58	C	0.905451	-0.550481	-0.302151
C59	C	1.238784	-0.217148	0.031182
C60	C	1.572117	0.116185	0.364516
C61	C	0.905487	-0.633027	-0.302161
C62	C	1.238821	-0.299694	0.031172
C63	C	1.572154	0.033640	0.364505
C64	C	0.640370	-0.405161	-0.342091
C65	C	0.973703	-0.071828	-0.008758
C66	C	1.307037	0.261505	0.324576
C67	C	0.574935	-0.405143	-0.342119
C68	C	0.908268	-0.071810	-0.008785
C69	C	1.241601	0.261524	0.324548
C70	C	0.542202	-0.357574	-0.302132
C71	C	0.875535	-0.024241	0.031202
C72	C	1.208868	0.309092	0.364535
C73	C	0.574910	-0.310007	-0.262125
C74	C	0.908243	0.023326	0.071208
C75	C	1.241576	0.356660	0.404542
C76	C	0.640344	-0.310021	-0.262103
C77	C	0.973677	0.023312	0.071231
C78	C	1.307010	0.356645	0.404564
C79	C	0.438476	-0.351592	-0.245726
C80	C	0.771809	-0.018258	0.087607
C81	C	1.105143	0.315075	0.420940
C82	C	0.373043	-0.351583	-0.245748
C83	C	0.706376	-0.018249	0.087586
C84	C	1.039710	0.315084	0.420919
C85	C	0.340381	-0.357526	-0.302201
C86	C	0.673714	-0.024193	0.031133
C87	C	1.007048	0.309141	0.364466
C88	C	0.373160	-0.363494	-0.358634
C89	C	0.706493	-0.030161	-0.025301
C90	C	1.039827	0.303173	0.308032
C91	C	0.438594	-0.363508	-0.358612
C92	C	0.771927	-0.030175	-0.025279
C93	C	1.105261	0.303158	0.308054
C94	C	0.471249	-0.357553	-0.302152
C95	C	0.804583	-0.024220	0.031182
C96	C	1.137916	0.309113	0.364515
C97	C	0.236728	-0.405067	-0.342238
C98	C	0.570062	-0.071734	-0.008905
C99	C	0.903395	0.261600	0.324428
C100	C	0.171292	-0.405044	-0.342267
C101	C	0.504625	-0.071710	-0.008934
C102	C	0.837959	0.261623	0.324399
C103	C	0.171268	-0.309911	-0.262268
C104	C	0.504601	0.023422	0.071065
C105	C	0.837935	0.356755	0.404399
C106	C	0.236703	-0.309931	-0.262245
C107	C	0.570037	0.023402	0.071089
C108	C	0.903370	0.356736	0.404422
C109	C	0.269430	-0.357513	-0.302229
C110	C	0.602763	-0.024179	0.031104
C111	C	0.936096	0.309154	0.364438
C112	C	0.947412	-0.832444	-0.260387
C113	C	1.280746	-0.499111	0.072946
C114	C	1.614079	-0.165778	0.406279
C115	C	0.962722	-0.881784	-0.317576
C116	C	1.296056	-0.548451	0.015757
C117	C	1.629389	-0.215118	0.349090
C118	C	0.905523	-0.784157	-0.302186
C119	C	1.238856	-0.450824	0.031147
C120	C	1.572190	-0.117491	0.364480
C121	C	0.890277	-0.881899	-0.245023
C122	C	1.223610	-0.548566	0.088311
C123	C	1.556943	-0.215232	0.421644
C124	C	0.905559	-0.930142	-0.302205
C125	C	1.238892	-0.596809	0.031128
C126	C	1.572225	-0.263476	0.364461
C127	C	0.920862	-0.832410	-0.359405
C128	C	1.254196	-0.499077	-0.026072
C129	C	1.587529	-0.165743	0.307261
C130	C	0.848390	-0.832520	-0.286813
C131	C	1.181724	-0.499187	0.046520
C132	C	1.515057	-0.165854	0.379853
C133	C	0.863678	-0.881838	-0.344042
C134	C	1.197012	-0.548505	-0.010708
C135	C	1.530345	-0.215171	0.322625
C136	C	0.905504	-0.700059	-0.302174
C137	C	1.238837	-0.366726	0.031159
C138	C	1.572171	-0.033392	0.364492
C139	C	0.905577	-1.014239	-0.302224
C140	C	1.238911	-0.680906	0.031110
C141	C	1.572244	-0.347572	0.364443
C142	C	1.068922	-0.357490	-0.302249
C143	C	1.402256	-0.024157	0.031084
C144	C	1.735589	0.309177	0.364417
C145	C	1.138563	-0.357474	-0.302281
C146	C	1.471897	-0.024140	0.031053
C147	C	1.805230	0.309193	0.364386
C148	C	0.905551	-0.357514	-0.465599
C149	C	1.238884	-0.024181	-0.132266
C150	C	1.572218	0.309153	0.201067
C151	C	0.905573	-0.357508	-0.535241
C152	C	1.238906	-0.024174	-0.201907
C153	C	1.572240	0.309159	0.131426
C154	C	0.905564	-0.163823	-0.302215
C155	C	1.238898	0.169510	0.031119
C156	C	1.572231	0.502843	0.364452
C157	C	0.905592	-0.081278	-0.302231
C158	C	1.238926	0.252056	0.031102
C159	C	1.572259	0.585389	0.364435
C160	C	0.945661	-0.309997	-0.567982
C161	C	1.278994	0.023336	-0.234649
C162	C	1.612327	0.356670	0.098684
C163	C	0.945660	-0.309965	-0.633418
C164	C	1.278993	0.023368	-0.300084
C165	C	1.612327	0.356702	0.033249
C166	C	0.905578	-0.357457	-0.666109
C167	C	1.238911	-0.024124	-0.332776
C168	C	1.572245	0.309210	0.000558
C169	C	0.865482	-0.404971	-0.633359
C170	C	1.198816	-0.071638	-0.300026
C171	C	1.532149	0.261696	0.033307
C172	C	0.865480	-0.404996	-0.567925
C173	C	1.198813	-0.071663	-0.234592
C174	C	1.532147	0.261671	0.098741
C175	C	0.900614	-0.424328	-0.769773
C176	C	1.233947	-0.090994	-0.436440
C177	C	1.567281	0.242339	-0.103107
C178	C	0.900621	-0.424304	-0.835206
C179	C	1.233954	-0.090970	-0.501873
C180	C	1.567287	0.242363	-0.168540
C181	C	0.905582	-0.357379	-0.867930
C182	C	1.238915	-0.024045	-0.534596
C183	C	1.572248	0.309288	-0.201263
C184	C	0.910549	-0.290475	-0.835212
C185	C	1.243882	0.042858	-0.501879
C186	C	1.577216	0.376191	-0.168546
C187	C	0.910547	-0.290501	-0.769778
C188	C	1.243880	0.042833	-0.436445
C189	C	1.577213	0.376166	-0.103111
C190	C	0.905576	-0.357434	-0.737061
C191	C	1.238909	-0.024101	-0.403728
C192	C	1.572242	0.309232	-0.070395
C193	C	0.945671	-0.309829	-0.971624
C194	C	1.279004	0.023504	-0.638291
C195	C	1.612337	0.356837	-0.304957
C196	C	0.945665	-0.309796	-1.037061
C197	C	1.278999	0.023537	-0.703727
C198	C	1.612332	0.356871	-0.370394
C199	C	0.865491	-0.404808	-1.037001
C200	C	1.198825	-0.071475	-0.703668
C201	C	1.532158	0.261858	-0.370335
C202	C	0.865493	-0.404835	-0.971566
C203	C	1.198827	-0.071502	-0.638232
C204	C	1.532160	0.261832	-0.304899
C205	C	0.905586	-0.357346	-0.938881
C206	C	1.238920	-0.024013	-0.605548
C207	C	1.572253	0.309320	-0.272214
C208	C	0.905483	-0.357490	-0.139388
C209	C	1.238816	-0.024157	0.193945
C210	C	1.572150	0.309176	0.527278
C211	C	0.905582	-0.357288	-0.069747
C212	C	1.238916	-0.023954	0.263586
C213	C	1.572249	0.309379	0.596919
H214	H	0.667012	-0.443905	-0.374650
H215	H	1.000345	-0.110572	-0.041317
H216	H	1.333678	0.222762	0.292016
N217	N	0.994349	-0.803703	-0.213618
N218	N	1.327682	-0.470370	0.119716
N219	N	1.661015	-0.137037	0.453049
H220	H	0.972154	-0.772947	-0.181023
H221	H	1.305487	-0.439614	0.152310
H222	H	1.638820	-0.106281	0.485643
H223	H	1.015929	-0.846851	-0.192732
H224	H	1.349263	-0.513518	0.140602
H225	H	1.682596	-0.180185	0.473935
N226	N	1.026740	-0.910458	-0.334813
N227	N	1.360073	-0.577125	-0.001480
N228	N	1.693407	-0.243792	0.331853
H229	H	1.026173	-0.966407	-0.335091
H230	H	1.359506	-0.633074	-0.001757
H231	H	1.692839	-0.299741	0.331576
H232	H	1.038561	-0.891630	-0.377681
H233	H	1.371894	-0.558297	-0.044348
H234	H	1.705228	-0.224964	0.288986
N235	N	0.136019	-0.456344	-0.385414
N236	N	0.469352	-0.123010	-0.052081
N237	N	0.802686	0.210323	0.281252
H238	H	0.166683	-0.486490	-0.410736
H239	H	0.500016	-0.153156	-0.077403
H240	H	0.833349	0.180177	0.255931
H241	H	0.108820	-0.490654	-0.359860
H242	H	0.442153	-0.157321	-0.026526
H243	H	0.775486	0.176012	0.306807
N244	N	0.938036	-0.803746	-0.423472
N245	N	1.271369	-0.470413	-0.090138
N246	N	1.604703	-0.137080	0.243195
H247	H	0.937934	-0.747795	-0.423065
H248	H	1.271267	-0.414462	-0.089731
H249	H	1.604601	-0.081129	0.243602
H250	H	0.981054	-0.822155	-0.435148
H251	H	1.314388	-0.488822	-0.101814
H252	H	1.647721	-0.155488	0.231519
N253	N	0.915906	-0.218285	-0.870496
N254	N	1.249240	0.115048	-0.537163
N255	N	1.582573	0.448381	-0.203829
H256	H	0.915152	-0.228418	-0.916913
H257	H	1.248486	0.104916	-0.583579
H258	H	1.581819	0.438249	-0.250246
H259	H	0.879686	-0.185094	-0.859029
H260	H	1.213020	0.148239	-0.525696
H261	H	1.546353	0.481572	-0.192363
N262	N	0.337695	-0.345148	-0.184882
N263	N	0.671028	-0.011814	0.148452
N264	N	1.004361	0.321519	0.481785
H265	H	0.310575	-0.299382	-0.185806
H266	H	0.643908	0.033951	0.147527
H267	H	0.977241	0.367284	0.480860
H268	H	0.310548	-0.390409	-0.178978
H269	H	0.643882	-0.057076	0.154356
H270	H	0.977215	0.276258	0.487689
N271	N	0.988901	-0.258770	-0.532739
N272	N	1.322235	0.074563	-0.199405
N273	N	1.655568	0.407896	0.133928
H274	H	0.979186	-0.205708	-0.544124
H275	H	1.312519	0.127625	-0.210791
H276	H	1.645853	0.460958	0.122543
H277	H	0.982803	-0.266051	-0.486327
H278	H	1.316136	0.067283	-0.152994
H279	H	1.649469	0.400616	0.180340
N280	N	0.539661	-0.456449	-0.385265
N281	N	0.872994	-0.123115	-0.051932
N282	N	1.206328	0.210218	0.281402
H283	H	0.512463	-0.490809	-0.359753
H284	H	0.845797	-0.157476	-0.026420
H285	H	1.179130	0.175858	0.306913
H286	H	0.512599	-0.426267	-0.414350
H287	H	0.845932	-0.092934	-0.081017
H288	H	1.179265	0.240399	0.252316
H289	H	0.828269	-0.903388	-0.379439
H290	H	1.161603	-0.570055	-0.046106
H291	H	1.494936	-0.236722	0.287228
H292	H	0.346568	-0.368332	-0.404604
H293	H	0.679901	-0.034999	-0.071271
H294	H	1.013235	0.298334	0.262062
N295	N	0.135973	-0.258598	-0.219142
N296	N	0.469306	0.074735	0.114191
N297	N	0.802640	0.408069	0.447524
H298	H	0.089558	-0.265803	-0.225227
H299	H	0.422892	0.067530	0.108106
H300	H	0.756225	0.400864	0.441439
H301	H	0.147352	-0.270080	-0.174373
H302	H	0.480685	0.063253	0.158961
H303	H	0.814019	0.396587	0.492294
N304	N	0.988920	-0.258616	-0.936373
N305	N	1.322253	0.074717	-0.603040
N306	N	1.655587	0.408050	-0.269707
H307	H	1.017946	-0.288813	-0.909258
H308	H	1.351279	0.044520	-0.575924
H309	H	1.684613	0.377854	-0.242591
H310	H	1.014270	-0.228529	-0.967094
H311	H	1.347604	0.104805	-0.633760
H312	H	1.680937	0.438138	-0.300427
H313	H	0.465064	-0.346749	-0.199752
H314	H	0.798397	-0.013415	0.133581
H315	H	1.131730	0.319918	0.466914
H316	H	0.465280	-0.368366	-0.404562
H317	H	0.798614	-0.035032	-0.071229
H318	H	1.131947	0.298301	0.262104
H319	H	0.263328	-0.271207	-0.229666
H320	H	0.596661	0.062126	0.103668
H321	H	0.929995	0.395459	0.437001
H322	H	0.800073	-0.810862	-0.273781
H323	H	1.133406	-0.477529	0.059552
H324	H	1.466740	-0.144196	0.392885
H325	H	0.832849	-0.443470	-1.063618
H326	H	1.166183	-0.110136	-0.730284
H327	H	1.499516	0.223197	-0.396951
N328	N	0.822240	-0.456183	-0.668615
N329	N	1.155574	-0.122850	-0.335281
N330	N	1.488907	0.210484	-0.001948
H331	H	0.828323	-0.448957	-0.715036
H332	H	1.161657	-0.115623	-0.381702
H333	H	1.494990	0.217710	-0.048369
H334	H	0.831964	-0.509228	-0.657188
H335	H	1.165298	-0.175895	-0.323854
H336	H	1.498631	0.157439	0.009479
H337	H	0.263376	-0.443807	-0.374799
H338	H	0.596709	-0.110474	-0.041466
H339	H	0.930042	0.222860	0.291867
H340	H	0.877367	-0.903637	-0.196673
H341	H	1.210700	-0.570304	0.136661
H342	H	1.544034	-0.236970	0.469994
N343	N	0.822265	-0.456082	-0.936238
N344	N	1.155598	-0.122748	-0.602904
N345	N	1.488932	0.210585	-0.269571
H346	H	0.793243	-0.425912	-0.909068
H347	H	1.126576	-0.092579	-0.575735
H348	H	1.459910	0.240755	-0.242401
H349	H	0.796910	-0.486159	-0.966906
H350	H	1.130243	-0.152825	-0.633573
H351	H	1.463576	0.180508	-0.300240
H352	H	0.978303	-0.271272	-0.660081
H353	H	1.311636	0.062061	-0.326748
H354	H	1.644969	0.395394	0.006586
N355	N	0.988894	-0.258537	-1.072378
N356	N	1.322227	0.074797	-0.739045
N357	N	1.655560	0.408130	-0.405712
H358	H	1.014288	-0.228457	-1.041741
H359	H	1.347622	0.104876	-0.708408
H360	H	1.680955	0.438209	-0.375074
H361	H	1.017879	-0.288742	-1.099556
H362	H	1.351212	0.044591	-0.766223
H363	H	1.684546	0.377925	-0.432889
N364	N	0.915906	-0.218349	-0.734489
N365	N	1.249239	0.114985	-0.401155
N366	N	1.582572	0.448318	-0.067822
H367	H	0.919051	-0.175945	-0.765143
H368	H	1.252384	0.157389	-0.431810
H369	H	1.585718	0.490722	-0.098476
H370	H	0.877732	-0.211472	-0.707311
H371	H	1.211066	0.121861	-0.373977
H372	H	1.544399	0.455194	-0.040644
H373	H	0.896580	-0.478780	-0.861840
H374	H	1.229913	-0.145447	-0.528507
H375	H	1.563247	0.187886	-0.195173
H376	H	0.896406	-0.478812	-0.743135
H377	H	1.229740	-0.145479	-0.409802
H378	H	1.563073	0.187854	-0.076469
N379	N	0.822232	-0.456231	-0.532606
N380	N	1.155565	-0.122898	-0.199273
N381	N	1.488899	0.210436	0.134060
H382	H	0.796834	-0.486309	-0.563243
H383	H	1.130168	-0.152975	-0.229909
H384	H	1.463501	0.180358	0.103424
H385	H	0.847716	-0.490609	-0.505473
H386	H	1.181049	-0.157276	-0.172140
H387	H	1.514382	0.176058	0.161194
H388	H	0.548254	-0.271275	-0.229568
H389	H	0.881588	0.062058	0.103765
H390	H	1.214921	0.395392	0.437098
H391	H	0.666968	-0.271291	-0.229527
H392	H	1.000301	0.062042	0.103807
H393	H	1.333634	0.395375	0.437140
