data_functionalizedCrystal
_audit_creation_method	'MofGen! by Chris Wilmer'
_symmetry_space_group_name_H-M	'P1'
_symmetry_Int_Tables_number	1
_symmetry_cell_setting	triclinic
loop_
_symmetry_equiv_pos_as_xyz
  x,y,z
_cell_length_a	34.490303
_cell_length_b	34.489386
_cell_length_c	34.485816
_cell_angle_alpha	60.004462
_cell_angle_beta	60.008900
_cell_angle_gamma	59.994399
loop_
_atom_site_label
_atom_site_type_symbol
_atom_site_fract_x
_atom_site_fract_y
_atom_site_fract_z
O1	O	0.053846	-0.566517	0.473678
O2	O	0.553846	-0.066517	0.973678
O3	O	0.020329	-0.441078	0.381663
O4	O	0.520329	0.058922	0.881663
O5	O	0.099768	-0.520436	0.381578
O6	O	0.599768	-0.020436	0.881578
O7	O	-0.025592	-0.487159	0.473762
O8	O	0.474408	0.012841	0.973762
O9	O	0.126127	-0.494082	0.407849
O10	O	0.626127	0.005918	0.907849
O11	O	0.046689	-0.414724	0.407933
O12	O	0.546689	0.085276	0.907933
O13	O	0.080206	-0.540163	0.499949
O14	O	0.580206	-0.040163	0.999949
Zn15	Zn	0.067632	-0.473259	0.458112
Zn16	Zn	0.567632	0.026741	0.958112
Zn17	Zn	0.032903	-0.507982	0.423499
Zn18	Zn	0.532903	-0.007982	0.923499
O19	O	0.000767	-0.460805	0.500033
O20	O	0.500767	0.039195	1.000033
N21	N	0.091336	-0.449565	0.481736
N22	N	0.591336	0.050435	0.981736
N23	N	0.009203	-0.531680	0.399875
N24	N	0.509203	-0.031680	0.899875
C25	C	0.142510	-0.268211	0.532817
C26	C	0.642510	0.231789	1.032817
C27	C	0.142641	-0.398441	0.662987
C28	C	0.642641	0.101559	1.162987
C29	C	0.142524	-0.398421	0.532817
C30	C	0.642524	0.101579	1.032817
C31	C	0.272762	-0.398394	0.532723
C32	C	0.772762	0.101606	1.032723
C33	C	0.156853	-0.311177	0.547124
C34	C	0.656853	0.188823	1.047124
C35	C	0.156928	-0.384109	0.620020
C36	C	0.656928	0.115891	1.120020
C37	C	0.229794	-0.384081	0.547073
C38	C	0.729794	0.115919	1.047073
C39	C	0.156863	-0.384097	0.547124
C40	C	0.656863	0.115903	1.047124
C41	C	0.124253	-0.213522	0.514606
C42	C	0.624253	0.286478	1.014606
C43	C	0.124277	-0.416652	0.514606
C44	C	0.624277	0.083348	1.014606
C45	C	0.175110	-0.365866	0.565335
C46	C	0.675110	0.134134	1.065335
C47	C	0.352285	-0.384669	0.490824
C48	C	0.852285	0.115331	0.990824
C49	C	0.401998	-0.401229	0.474223
C50	C	0.901998	0.098771	0.974223
C51	C	0.402027	-0.481671	0.504898
C52	C	0.902027	0.018329	1.004898
C53	C	0.352316	-0.465109	0.521500
C54	C	0.852316	0.034891	1.021500
C55	C	0.136220	-0.188652	0.465734
C56	C	0.636220	0.311348	0.965734
C57	C	0.119621	-0.138936	0.449181
C58	C	0.619621	0.361064	0.949181
C59	C	0.079092	-0.138961	0.530374
C60	C	0.579092	0.361039	1.030374
C61	C	0.095691	-0.188678	0.546927
C62	C	0.595691	0.311322	1.046927
C63	C	0.075398	-0.404656	0.526651
C64	C	0.575398	0.095344	1.026651
C65	C	0.058814	-0.421229	0.510091
C66	C	0.558814	0.078771	1.010091
C67	C	0.139984	-0.461794	0.469452
C68	C	0.639984	0.038206	0.969452
C69	C	0.156570	-0.445221	0.486007
C70	C	0.656570	0.054779	0.986007
C71	C	0.075593	-0.404694	0.742565
C72	C	0.575593	0.095306	1.242565
C73	C	0.059066	-0.421281	0.792280
C74	C	0.559066	0.078719	1.292280
C75	C	0.140274	-0.461856	0.792215
C76	C	0.640274	0.038144	1.292215
C77	C	0.156800	-0.445269	0.742499
C78	C	0.656800	0.054731	1.242499
C79	C	0.124458	-0.416687	0.717675
C80	C	0.624458	0.083313	1.217675
C81	C	0.327446	-0.416608	0.514460
C82	C	0.827446	0.083392	1.014460
C83	C	-0.023585	-0.564792	0.161919
C84	C	0.476415	-0.064792	0.661919
C85	C	-0.023910	-0.769260	0.366530
C86	C	0.476090	-0.269260	0.866530
C87	C	-0.023880	-0.564780	0.366623
C88	C	0.476120	-0.064780	0.866623
C89	C	-0.228325	-0.564561	0.366222
C90	C	0.271675	-0.064561	0.866222
C91	C	-0.129610	-0.597564	0.333467
C92	C	0.370390	-0.097564	0.833467
C93	C	-0.056729	-0.597644	0.333613
C94	C	0.443271	-0.097644	0.833613
C95	C	-0.074925	-0.615849	0.315324
C96	C	0.425075	-0.115849	0.815324
C97	C	-0.088689	-0.695351	0.357144
C98	C	0.411311	-0.195351	0.857144
C99	C	-0.072155	-0.745068	0.373736
C100	C	0.427845	-0.245068	0.873736
C101	C	0.008283	-0.745150	0.343188
C102	C	0.508283	-0.245150	0.843188
C103	C	-0.008252	-0.695435	0.326596
C104	C	0.491748	-0.195435	0.826596
C105	C	-0.154529	-0.609541	0.382326
C106	C	0.345471	-0.109541	0.882326
C107	C	-0.204241	-0.592916	0.398818
C108	C	0.295759	-0.092916	0.898818
C109	C	-0.204114	-0.552341	0.317588
C110	C	0.295886	-0.052341	0.817588
C111	C	-0.154401	-0.568966	0.301096
C112	C	0.345599	-0.068966	0.801096
C113	C	-0.068707	-0.548770	0.321590
C114	C	0.431293	-0.048770	0.821590
C115	C	-0.052166	-0.532225	0.338221
C116	C	0.447834	-0.032225	0.838221
C117	C	-0.011669	-0.613425	0.378886
C118	C	0.488331	-0.113425	0.878886
C119	C	-0.028210	-0.629972	0.362261
C120	C	0.471790	-0.129972	0.862261
C121	C	-0.068581	-0.548777	0.235758
C122	C	0.431419	-0.048777	0.735758
C123	C	-0.051939	-0.532234	0.186043
C124	C	0.448061	-0.032234	0.686043
C125	C	-0.011379	-0.613438	0.186090
C126	C	0.488621	-0.113438	0.686090
C127	C	-0.028020	-0.629981	0.235806
C128	C	0.471980	-0.129981	0.735806
C129	C	-0.056622	-0.597649	0.260639
C130	C	0.443378	-0.097649	0.760639
C131	C	-0.056739	-0.670537	0.333576
C132	C	0.443261	-0.170537	0.833576
C133	C	-0.005614	-0.545951	0.107238
C134	C	0.494386	-0.045951	0.607238
C135	C	-0.006360	-0.823943	0.385033
C136	C	0.493640	-0.323943	0.885033
C137	C	-0.005995	-0.545937	0.384582
C138	C	0.494005	-0.045937	0.884582
C139	C	-0.283006	-0.545971	0.383725
C140	C	0.216994	-0.045971	0.883725
N141	N	0.426163	-0.449489	0.481488
N142	N	0.926163	0.050511	0.981488
O143	O	0.588601	-0.457377	0.364497
O144	O	1.088601	0.042623	0.864497
O145	O	0.588789	-0.549696	0.489801
O146	O	1.088789	-0.049696	0.989801
O147	O	0.588709	-0.549485	0.410335
O148	O	1.088709	-0.049485	0.910335
O149	O	0.588681	-0.457588	0.443963
O150	O	1.088681	0.042412	0.943963
O151	O	0.509731	-0.523223	0.436741
O152	O	1.009731	-0.023223	0.936741
O153	O	0.509811	-0.523434	0.516207
O154	O	1.009811	-0.023434	1.016207
O155	O	0.509624	-0.431115	0.390903
O156	O	1.009624	0.068885	0.890903
Zn157	Zn	0.497178	-0.473105	0.457747
Zn158	Zn	0.997178	0.026895	0.957747
Zn159	Zn	0.601234	-0.507706	0.422956
Zn160	Zn	1.101234	-0.007706	0.922956
O161	O	0.509704	-0.431326	0.470368
O162	O	1.009704	0.068674	0.970368
N163	N	0.672250	-0.531322	0.399211
N164	N	1.172250	-0.031322	0.899211
N165	N	0.091303	-0.114798	0.481730
N166	N	0.591303	0.385202	0.981730
O167	O	-0.025603	0.047729	0.473733
O168	O	0.474397	0.547729	0.973733
O169	O	0.099703	0.047764	0.381394
O170	O	0.599703	0.547764	0.881394
O171	O	0.020199	0.047731	0.381655
O172	O	0.520199	0.547731	0.881655
O173	O	0.053901	0.047761	0.473472
O174	O	0.553901	0.547761	0.973472
O175	O	0.046564	-0.031252	0.407974
O176	O	0.546564	0.468748	0.907974
O177	O	0.126068	-0.031219	0.407713
O178	O	0.626068	0.468781	0.907713
O179	O	0.000762	-0.031254	0.500052
O180	O	0.500762	0.468746	1.000052
Zn181	Zn	0.067601	-0.043777	0.458061
Zn182	Zn	0.567601	0.456223	0.958061
Zn183	Zn	0.032864	0.060287	0.423385
Zn184	Zn	0.532864	0.560287	0.923385
O185	O	0.080266	-0.031222	0.499791
O186	O	0.580266	0.468778	0.999791
N187	N	0.009156	0.131307	0.399717
N188	N	0.509156	0.631307	0.899717
N189	N	0.091635	-0.449614	0.816396
N190	N	0.591635	0.050386	1.316396
O191	O	0.083664	-0.566502	0.978913
O192	O	0.583664	-0.066502	1.478913
O193	O	-0.008637	-0.441152	0.978954
O194	O	0.491363	0.058848	1.478954
O195	O	-0.008421	-0.520640	0.978930
O196	O	0.491579	-0.020640	1.478930
O197	O	0.083448	-0.487013	0.978936
O198	O	0.583448	0.012987	1.478936
O199	O	0.017877	-0.494296	0.899950
O200	O	0.517877	0.005704	1.399950
O201	O	0.017661	-0.414807	0.899974
O202	O	0.517661	0.085193	1.399974
O203	O	0.109961	-0.540157	0.899933
O204	O	0.609961	-0.040157	1.399933
Zn205	Zn	0.067986	-0.473299	0.887414
Zn206	Zn	0.567986	0.026701	1.387414
Zn207	Zn	0.033338	-0.508010	0.991473
Zn208	Zn	0.533338	-0.008010	1.491473
O209	O	0.109746	-0.460669	0.899956
O210	O	0.609746	0.039331	1.399956
N211	N	0.009689	-0.531700	1.062491
N212	N	0.509689	-0.031700	1.562491
C213	C	0.030367	-0.412095	0.382120
C214	C	0.530367	0.087905	0.882120
C215	C	0.128741	-0.510370	0.382016
C216	C	0.628741	-0.010370	0.882016
C217	C	0.070168	-0.569147	0.499490
C218	C	0.570168	-0.069147	0.999490
C219	C	-0.028207	-0.470871	0.499595
C220	C	0.471793	0.029129	0.999595
C221	C	0.549323	-0.549278	0.518791
C222	C	1.049323	-0.049278	1.018791
C223	C	0.549225	-0.549017	0.420381
C224	C	1.049225	-0.049017	0.920381
C225	C	0.549087	-0.431532	0.361914
C226	C	1.049087	0.068468	0.861914
C227	C	0.549188	-0.431794	0.460322
C228	C	1.049188	0.068206	0.960322
C229	C	0.128638	0.008374	0.381806
C230	C	0.628638	0.508374	0.881806
C231	C	0.030215	0.008236	0.382161
C232	C	0.530215	0.508236	0.882161
C233	C	-0.028206	0.008233	0.499608
C234	C	0.471794	0.508233	0.999608
C235	C	0.070250	0.008272	0.499285
C236	C	0.570250	0.508272	0.999285
C237	C	-0.008199	-0.412187	0.939469
C238	C	0.491801	0.087813	1.439469
C239	C	-0.007927	-0.510619	0.939425
C240	C	0.492073	-0.010619	1.439425
C241	C	0.109523	-0.569121	0.939417
C242	C	0.609523	-0.069121	1.439417
C243	C	0.109257	-0.470684	0.939444
C244	C	0.609257	0.029316	1.439444
H245	H	0.019274	-0.411508	0.812539
H246	H	0.519274	0.088492	1.312539
C247	C	0.080001	0.008281	0.538257
C248	C	0.580001	0.508281	1.038257
N249	N	0.087346	0.008286	0.567611
N250	N	0.587346	0.508286	1.067611
H251	H	0.164551	0.008603	0.352745
H252	H	0.664551	0.508603	0.852745
C253	C	0.020692	-0.363415	0.343076
C254	C	0.520692	0.136585	0.843076
N255	N	0.013405	-0.326749	0.313667
N256	N	0.513405	0.173251	0.813667
C257	C	0.148644	-0.617784	0.939486
C258	C	0.648644	-0.117784	1.439486
N259	N	0.178099	-0.654448	0.939569
N260	N	0.678099	-0.154448	1.439569
H261	H	0.022995	0.008233	0.353314
H262	H	0.522995	0.508233	0.853314
C263	C	-0.046901	-0.520322	0.939376
C264	C	0.453099	-0.020322	1.439376
N265	N	-0.076257	-0.527630	0.939339
N266	N	0.423743	-0.027630	1.439339
C267	C	-0.047347	-0.363552	0.939484
C268	C	0.452653	0.136448	1.439484
N269	N	-0.076834	-0.326920	0.939495
N270	N	0.423166	0.173080	1.439495
H271	H	0.549182	-0.402927	0.467517
H272	H	1.049182	0.097073	0.967517
H273	H	0.164745	-0.517463	0.353068
H274	H	0.664745	-0.017463	0.853068
C275	C	-0.076831	0.008248	0.538761
C276	C	0.423169	0.508248	1.038761
N277	N	-0.113458	0.008269	0.568248
N278	N	0.386542	0.508269	1.068248
H279	H	0.077330	-0.605181	0.528391
H280	H	0.577330	-0.105181	1.028391
C281	C	-0.076848	-0.461293	0.538702
C282	C	0.423152	0.038707	1.038702
N283	N	-0.113485	-0.454078	0.568158
N284	N	0.386515	0.045922	1.068158
C285	C	0.549393	-0.588433	0.567409
C286	C	1.049393	-0.088433	1.067409
N287	N	0.549447	-0.617925	0.604028
N288	N	1.049447	-0.117925	1.104028
H289	H	0.138119	-0.463487	0.939440
H290	H	0.638119	0.036513	1.439440
C291	C	0.549240	-0.588019	0.410661
C292	C	1.049240	-0.088019	0.910661
N293	N	0.549252	-0.617395	0.403340
N294	N	1.049252	-0.117395	0.903340
C295	C	0.082526	-0.216031	0.600688
C296	C	0.582526	0.283969	1.100688
N297	N	0.072610	-0.236634	0.641183
N298	N	0.572610	0.263366	1.141183
C299	C	0.040011	-0.373226	0.715263
C300	C	0.540011	0.126774	1.215263
N301	N	0.013211	-0.349517	0.694699
N302	N	0.513211	0.150483	1.194699
C303	C	0.175853	-0.493290	0.819520
C304	C	0.675853	0.006710	1.319520
N305	N	0.202652	-0.516969	0.840085
N306	N	0.702652	-0.016969	1.340085
C307	C	0.548940	-0.392352	0.313321
C308	C	1.048940	0.107648	0.813321
N309	N	0.548806	-0.362833	0.276729
N310	N	1.048806	0.137167	0.776729
H311	H	0.196592	-0.455039	0.722237
H312	H	0.696592	0.044961	1.222237
C313	C	0.061621	-0.772540	0.335512
C314	C	0.561621	-0.272540	0.835512
N315	N	0.101795	-0.793169	0.329729
N316	N	0.601795	-0.293169	0.829729
C317	C	0.005045	-0.408034	0.523339
C318	C	0.505045	0.091966	1.023339
N319	N	-0.035453	-0.398095	0.533317
N320	N	0.464547	0.101905	1.033317
C321	C	0.039872	-0.373222	0.558102
C322	C	0.539872	0.126778	1.058102
N323	N	0.013113	-0.349544	0.581790
N324	N	0.513113	0.150456	1.081790
H325	H	0.422223	-0.375220	0.454977
H326	H	0.922223	0.124780	0.954977
C327	C	0.210339	-0.458420	0.472760
C328	C	0.710339	0.041580	0.972760
N329	N	0.250838	-0.468363	0.462784
N330	N	0.750838	0.031637	0.962784
C331	C	0.324996	-0.500248	0.547502
C332	C	0.824996	-0.000248	1.047502
N333	N	0.304420	-0.526717	0.567086
N334	N	0.804420	-0.026717	1.067086
C335	C	0.175512	-0.493225	0.437994
C336	C	0.675512	0.006775	0.937994
N337	N	0.202271	-0.516896	0.414299
N338	N	0.702271	-0.016896	0.914299
C339	C	0.324930	-0.331315	0.483081
C340	C	0.824930	0.168685	0.983081
N341	N	0.304328	-0.291128	0.477248
N342	N	0.804328	0.208872	0.977248
C343	C	0.429383	-0.535023	0.512643
C344	C	0.929383	-0.035023	1.012643
N345	N	0.449988	-0.575210	0.518478
N346	N	0.949988	-0.075210	1.018478
H347	H	0.129365	-0.118686	0.409385
H348	H	0.629365	0.381314	0.909385
C349	C	0.167638	-0.215977	0.430177
C350	C	0.667638	0.284023	0.930177
N351	N	0.191302	-0.236559	0.403396
N352	N	0.691302	0.263441	0.903396
H353	H	0.055841	-0.118733	0.556693
H354	H	0.555841	0.381267	1.056693
H355	H	-0.091873	-0.522445	0.255974
H356	H	0.408127	-0.022445	0.755974
C357	C	0.020078	-0.649008	0.158780
C358	C	0.520078	-0.149008	0.658780
N359	N	0.043773	-0.675801	0.138211
N360	N	0.543773	-0.175801	0.638211
C361	C	-0.014861	-0.683745	0.263172
C362	C	0.485139	-0.183745	0.763172
N363	N	-0.004951	-0.724240	0.283783
N364	N	0.495049	-0.224240	0.783783
C365	C	-0.100080	-0.513206	0.290079
C366	C	0.399920	-0.013206	0.790079
N367	N	-0.123711	-0.486419	0.266344
N368	N	0.376289	0.013581	0.766344
C369	C	-0.065339	-0.478460	0.324995
C370	C	0.434661	0.021540	0.824995
N371	N	-0.075261	-0.437965	0.315032
N372	N	0.424739	0.062035	0.815032
C373	C	0.019721	-0.648990	0.410379
C374	C	0.519721	-0.148990	0.910379
N375	N	0.043369	-0.675779	0.434097
N376	N	0.543369	-0.175779	0.934097
C377	C	-0.065105	-0.478469	0.158681
C378	C	0.434895	0.021531	0.658681
N379	N	-0.075023	-0.437974	0.138071
N380	N	0.424977	0.062026	0.638071
H381	H	-0.018458	-0.669769	0.372051
H382	H	0.481542	-0.169769	0.872051
H383	H	0.017768	-0.675232	0.307405
H384	H	0.517768	-0.175232	0.807405
H385	H	-0.098172	-0.765271	0.392919
H386	H	0.401828	-0.265271	0.892919
H387	H	-0.134345	-0.632833	0.408685
H388	H	0.365655	-0.132833	0.908685
C389	C	-0.231654	-0.606092	0.452568
C390	C	0.268346	-0.106092	0.952568
N391	N	-0.252299	-0.616018	0.493053
N392	N	0.247701	-0.116018	0.993053
C393	C	-0.142026	-0.667968	0.364823
C394	C	0.357974	-0.167968	0.864823
N395	N	-0.182200	-0.647342	0.370606
N396	N	0.317800	-0.147342	0.870606
H397	H	-0.134111	-0.559208	0.261309
H398	H	0.365889	-0.059208	0.761309
C399	C	-0.231385	-0.520887	0.281979
C400	C	0.268615	-0.020887	0.781979
N401	N	-0.251925	-0.497194	0.255158
N402	N	0.248075	0.002806	0.755158
