data_functionalizedCrystal
_audit_creation_method	'MofGen! by Chris Wilmer'
_symmetry_space_group_name_H-M	'P1'
_symmetry_Int_Tables_number	1
_symmetry_cell_setting	triclinic
loop_
_symmetry_equiv_pos_as_xyz
  x,y,z
_cell_length_a	21.295417
_cell_length_b	16.625547
_cell_length_c	16.625539
_cell_angle_alpha	90.027058
_cell_angle_beta	89.966627
_cell_angle_gamma	89.970308
loop_
_atom_site_label
_atom_site_type_symbol
_atom_site_fract_x
_atom_site_fract_y
_atom_site_fract_z
Zn1	Zn	-0.250622	-1.232635	-0.456021
Zn2	Zn	0.249378	-0.732635	0.043979
Zn3	Zn	-0.355895	-1.232520	-0.321176
Zn4	Zn	0.144105	-0.732520	0.178824
Zn5	Zn	-0.250642	-1.097797	-0.321186
Zn6	Zn	0.249358	-0.597797	0.178814
Zn7	Zn	-0.355855	-1.097749	-0.455950
Zn8	Zn	0.144145	-0.597749	0.044050
O9	O	-0.303254	-1.165175	-0.388583
O10	O	0.196746	-0.665175	0.111417
O11	O	-0.264594	-1.345452	-0.438158
O12	O	0.235406	-0.845452	0.061842
O13	O	-0.341958	-1.214620	-0.208345
O14	O	0.158042	-0.714620	0.291655
O15	O	-0.162550	-1.115753	-0.339105
O16	O	0.337450	-0.615753	0.160895
O17	O	-0.341938	-1.345367	-0.339088
O18	O	0.158062	-0.845367	0.160912
O19	O	-0.162535	-1.214818	-0.438168
O20	O	0.337465	-0.714818	0.061832
O21	O	-0.264629	-1.115640	-0.208352
O22	O	0.235371	-0.615640	0.291648
O23	O	-0.264591	-0.984958	-0.339037
O24	O	0.235409	-0.484958	0.160963
O25	O	-0.341871	-1.115670	-0.568792
O26	O	0.158129	-0.615670	-0.068792
O27	O	-0.341891	-0.984923	-0.438048
O28	O	0.158109	-0.484923	0.061952
O29	O	-0.264556	-1.214771	-0.568844
O30	O	0.235444	-0.714771	-0.068844
O31	O	-0.443979	-1.214573	-0.339020
O32	O	0.056021	-0.714573	0.160980
O33	O	-0.443950	-1.115558	-0.438039
O34	O	0.056050	-0.615558	0.061961
C35	C	-0.303239	-0.955684	-0.388537
C36	C	0.196761	-0.455684	0.111463
C37	C	-0.303248	-0.866063	-0.388536
C38	C	0.196752	-0.366063	0.111464
C39	C	-0.303249	-0.793281	-0.388543
C40	C	0.196751	-0.293281	0.111457
C41	C	-0.303251	-0.701972	-0.388560
C42	C	0.196749	-0.201972	0.111440
C43	C	-0.303256	-0.629196	-0.388578
C44	C	0.196744	-0.129196	0.111422
C45	C	-0.303260	-0.537882	-0.388593
C46	C	0.196740	-0.037882	0.111407
C47	C	-0.466805	-1.165070	-0.388538
C48	C	0.033195	-0.665070	0.111462
C49	C	-0.536773	-1.165098	-0.388546
C50	C	-0.036773	-0.665098	0.111454
C51	C	-0.569634	-1.216701	-0.337040
C52	C	-0.069634	-0.716701	0.162960
C53	C	-0.635377	-1.216739	-0.337058
C54	C	-0.135377	-0.716739	0.162942
C55	C	-0.668256	-1.165159	-0.388574
C56	C	-0.168256	-0.665159	0.111426
C57	C	-0.635387	-1.113552	-0.440090
C58	C	-0.135387	-0.613552	0.059910
C59	C	-0.569646	-1.113522	-0.440076
C60	C	-0.069646	-0.613522	0.059924
N61	N	-0.771521	-1.094624	-0.394705
N62	N	-0.271521	-0.594624	0.105295
N63	N	-0.833972	-1.094656	-0.394714
N64	N	-0.333972	-0.594656	0.105286
C65	C	-0.866331	-1.165250	-0.388620
C66	C	-0.366331	-0.665250	0.111380
N67	N	-0.833878	-1.235813	-0.382502
N68	N	-0.333878	-0.735813	0.117498
N69	N	-0.771421	-1.235780	-0.382490
N70	N	-0.271421	-0.735780	0.117510
C71	C	-0.739541	-1.165187	-0.388595
C72	C	-0.239541	-0.665187	0.111405
C73	C	-0.970477	-1.216898	-0.337131
C74	C	-0.470477	-0.716898	0.162869
C75	C	-1.036221	-1.216937	-0.337155
C76	C	-0.536221	-0.716937	0.162845
C77	C	-1.036230	-1.113743	-0.440183
C78	C	-0.536230	-0.613743	0.059817
C79	C	-0.970487	-1.113712	-0.440163
C80	C	-0.470487	-0.613712	0.059837
C81	C	-0.937615	-1.165288	-0.388633
C82	C	-0.437615	-0.665288	0.111367
C83	C	-0.139063	-1.165303	-0.388646
C84	C	0.360937	-0.665303	0.111354
C85	C	-0.069095	-1.165358	-0.388672
C86	C	0.430905	-0.665358	0.111328
C87	C	-0.303207	-1.165228	-0.598892
C88	C	0.196793	-0.665228	-0.098892
C89	C	-0.303187	-1.165250	-0.688513
C90	C	0.196813	-0.665250	-0.188513
C91	C	-0.303266	-0.375484	-0.388620
C92	C	0.196734	0.124516	0.111380
C93	C	-0.303265	-0.465105	-0.388611
C94	C	0.196735	0.034895	0.111389
C95	C	-0.303116	-1.165287	-1.016689
C96	C	0.196884	-0.665287	-0.516689
C97	C	-0.303138	-1.165275	-0.925381
C98	C	0.196862	-0.665275	-0.425381
C99	C	-0.303152	-1.165269	-0.852604
C100	C	0.196848	-0.665269	-0.352604
C101	C	-0.303173	-1.165256	-0.761290
C102	C	0.196827	-0.665256	-0.261290
C103	C	-0.303255	-1.165170	-0.179092
C104	C	0.196745	-0.665170	0.320908
C105	C	-0.303098	-1.165303	-0.089472
C106	C	0.196902	-0.665303	0.410528
H107	H	-0.542871	-1.258700	-0.295084
H108	H	-0.042871	-0.758700	0.204916
Cl109	Cl	-1.077557	-1.048905	-0.504952
Cl110	Cl	-0.577557	-0.548905	-0.004952
H111	H	-0.662137	-1.258764	-0.295116
H112	H	-0.162137	-0.758764	0.204884
H113	H	-0.542890	-1.071500	-0.482020
H114	H	-0.042890	-0.571500	0.017980
H115	H	-0.943711	-1.258897	-0.295175
H116	H	-0.443711	-0.758897	0.204825
Cl117	Cl	-1.077532	-1.281822	-0.272404
Cl118	Cl	-0.577532	-0.781822	0.227596
H119	H	-0.662161	-1.071557	-0.482036
H120	H	-0.162161	-0.571557	0.017964
Cl121	Cl	-0.929174	-1.048831	-0.504914
Cl122	Cl	-0.429174	-0.548831	-0.004914
