data_functionalizedCrystal
_audit_creation_method	'MofGen! by Chris Wilmer'
_symmetry_space_group_name_H-M	'P1'
_symmetry_Int_Tables_number	1
_symmetry_cell_setting	triclinic
loop_
_symmetry_equiv_pos_as_xyz
  x,y,z
_cell_length_a	9.065218
_cell_length_b	7.088929
_cell_length_c	9.065215
_cell_angle_alpha	96.315081
_cell_angle_beta	94.984675
_cell_angle_gamma	96.294088
loop_
_atom_site_label
_atom_site_type_symbol
_atom_site_fract_x
_atom_site_fract_y
_atom_site_fract_z
O1	O	-1.945446	0.159081	0.231333
O2	O	-1.516162	0.159063	0.249078
O3	O	-1.739680	0.159064	0.025562
O4	O	-1.721928	0.159080	0.454849
O5	O	-1.769550	-0.158911	-0.004377
O6	O	-1.546032	-0.158912	0.219138
O7	O	-1.975316	-0.158894	0.201394
Cu8	Cu	-1.763401	-0.187937	0.207532
Cu9	Cu	-1.728077	0.188106	0.242939
O10	O	-1.751798	-0.158895	0.424910
C11	C	-1.476111	0.000073	0.232402
C12	C	-1.312269	0.000066	0.227302
N13	N	-1.788258	-0.452424	0.182629
C14	C	-1.015368	0.000088	0.218068
C15	C	-1.179212	0.000072	0.223166
C16	C	-1.752910	0.000079	-0.044394
C17	C	-1.747811	0.000084	-0.208237
N18	N	-1.703232	0.452594	0.267831
C19	C	-1.738567	0.000095	0.494866
C20	C	-1.743665	0.000102	0.658710
H21	H	-1.876394	-0.534080	0.094339
H22	H	-1.615112	-0.465761	0.356125
