data_functionalizedCrystal
_audit_creation_method	'MofGen! by Chris Wilmer'
_symmetry_space_group_name_H-M	'P1'
_symmetry_Int_Tables_number	1
_symmetry_cell_setting	triclinic
loop_
_symmetry_equiv_pos_as_xyz
  x,y,z
_cell_length_a	10.540514
_cell_length_b	10.654555
_cell_length_c	9.730223
_cell_angle_alpha	89.998893
_cell_angle_beta	89.998205
_cell_angle_gamma	95.498884
loop_
_atom_site_label
_atom_site_type_symbol
_atom_site_fract_x
_atom_site_fract_y
_atom_site_fract_z
O1	O	0.178329	-1.667877	0.114308
O2	O	0.195310	-1.302404	0.114304
O3	O	0.002108	-1.493495	0.114308
O4	O	0.371531	-1.476786	0.114304
O5	O	0.002113	-1.493493	-0.114272
O6	O	0.195314	-1.302401	-0.114276
O7	O	0.178334	-1.667875	-0.114272
Zn8	Zn	0.186825	-1.485138	-0.150566
Zn9	Zn	0.186819	-1.485141	0.150598
O10	O	0.371536	-1.476784	-0.114276
C11	C	0.194064	-1.255604	0.000013
C12	C	0.190329	-1.116160	0.000012
C13	C	0.185071	-0.919630	0.124620
C14	C	0.188573	-1.050653	0.124616
C15	C	0.188571	-1.050639	-0.124595
C16	C	0.185060	-0.919619	-0.124589
C17	C	0.185078	-0.919639	0.268500
C18	C	0.188580	-1.050662	0.268495
C19	C	-0.045193	-1.492247	0.000021
C20	C	-0.186141	-1.488518	0.000031
C21	C	-0.256893	-1.625185	0.000030
C22	C	-0.403505	-1.621352	-0.000498
C23	C	-0.378449	-1.414192	-0.130257
C24	C	-0.231911	-1.418994	-0.130357
C25	C	-0.231517	-1.416974	0.129590
C26	C	-0.378496	-1.415655	0.131293
C27	C	0.418836	-1.478031	0.000014
C28	C	0.559785	-1.481760	0.000013
N29	N	0.186829	-1.485145	-0.356102
C30	C	0.179580	-0.714674	0.000020
C31	C	0.183317	-0.854118	0.000023
C32	C	0.101308	-1.569782	-0.428026
C33	C	0.101293	-1.569779	-0.571909
C34	C	0.272329	-1.400497	-0.571931
C35	C	0.272338	-1.400495	-0.428051
C36	C	0.002565	-1.667519	-0.428015
C37	C	0.002550	-1.667516	-0.571898
N38	N	0.186805	-1.485143	0.356134
H39	H	0.095446	-0.894791	0.323750
H40	H	-0.446191	-1.674498	0.092862
N41	N	-0.407966	-1.278388	-0.136217
H42	H	-0.325810	-1.221214	-0.134707
H43	H	-0.461823	-1.259424	-0.054323
N44	N	-0.434832	-1.475589	-0.259168
H45	H	-0.394474	-1.431454	-0.342432
H46	H	-0.529794	-1.469127	-0.260525
H47	H	-0.200039	-1.462465	0.228362
N48	N	0.183143	-0.848958	-0.258973
H49	H	0.183904	-0.910438	-0.337909
H50	H	0.260695	-0.785706	-0.264823
H51	H	0.033485	-1.758711	-0.383388
N52	N	0.190473	-1.121290	-0.258989
H53	H	0.188832	-1.059902	-0.337921
H54	H	0.113370	-1.185132	-0.264421
H55	H	0.275486	-0.867957	0.313143
H56	H	-0.089658	-1.636979	-0.616513
N57	N	-0.216880	-1.697559	-0.123521
H58	H	-0.153122	-1.642203	-0.179491
H59	H	-0.294105	-1.724050	-0.181818
N60	N	0.068822	-1.119138	0.327623
H61	H	0.008383	-1.055855	0.356202
H62	H	0.091403	-1.169823	0.410296
H63	H	0.278219	-1.075519	0.323723
N64	N	0.031376	-1.795353	-0.623635
H65	H	0.031373	-1.795402	-0.727435
H66	H	-0.035776	-1.861801	-0.588958
H67	H	-0.228394	-1.680618	0.093448
H68	H	-0.445251	-1.674267	-0.094431
H69	H	-0.203699	-1.468340	-0.228107
H70	H	-0.419512	-1.465034	0.227669
N71	N	-0.168269	-1.286023	-0.137773
H72	H	-0.072673	-1.288104	-0.137912
H73	H	-0.194278	-1.236601	-0.055560
N74	N	-0.410492	-1.280877	0.142198
H75	H	-0.377327	-1.232210	0.058465
H76	H	-0.369588	-1.240962	0.227466
N77	N	-0.168879	-1.283447	0.131269
H78	H	-0.111384	-1.269312	0.048560
H79	H	-0.116828	-1.269199	0.217983
N80	N	0.364554	-1.309187	-0.350472
H81	H	0.418717	-1.255564	-0.417888
H82	H	0.421144	-1.357742	-0.290773
H83	H	-0.095010	-1.646051	-0.388960
N84	N	0.364550	-1.309197	-0.649533
H85	H	0.351566	-1.322036	-0.751596
H86	H	0.454750	-1.324493	-0.624398
