data_functionalizedCrystal
_audit_creation_method	'MofGen! by Chris Wilmer'
_symmetry_space_group_name_H-M	'P1'
_symmetry_Int_Tables_number	1
_symmetry_cell_setting	triclinic
loop_
_symmetry_equiv_pos_as_xyz
  x,y,z
_cell_length_a	19.077105
_cell_length_b	10.686285
_cell_length_c	19.077174
_cell_angle_alpha	87.730334
_cell_angle_beta	85.483752
_cell_angle_gamma	83.162422
loop_
_atom_site_label
_atom_site_type_symbol
_atom_site_fract_x
_atom_site_fract_y
_atom_site_fract_z
Zn1	Zn	1.119037	-0.613109	-0.416696
Zn2	Zn	1.122575	-0.815290	-0.290516
Zn3	Zn	0.995693	-0.595470	-0.294817
Zn4	Zn	1.009466	-0.815208	-0.403637
O5	O	1.061693	-0.709769	-0.351417
O6	O	1.218463	-0.647346	-0.403623
O7	O	1.101461	-0.778783	-0.192738
O8	O	1.004810	-0.421236	-0.318250
O9	O	1.221062	-0.795887	-0.310919
O10	O	1.095431	-0.434195	-0.407794
O11	O	1.008241	-0.617282	-0.195898
O12	O	0.898564	-0.617202	-0.305587
O13	O	1.028284	-0.795746	-0.503718
O14	O	0.908682	-0.778642	-0.385537
O15	O	1.108785	-0.647266	-0.513312
O16	O	1.114815	-0.991854	-0.298257
O17	O	1.031714	-0.991793	-0.381366
C18	C	0.877965	-0.696000	-0.344612
C19	C	0.799367	-0.690141	-0.341717
C20	C	0.767730	-0.771559	-0.381906
C21	C	0.693879	-0.766037	-0.379189
C22	C	0.651665	-0.679104	-0.336279
C23	C	0.683307	-0.597678	-0.296088
C24	C	0.757157	-0.603194	-0.298809
C25	C	0.430230	-0.653574	-0.323690
C26	C	0.356375	-0.648067	-0.320970
C27	C	0.366952	-0.816425	-0.404073
C28	C	0.440803	-0.821939	-0.406787
C29	C	0.472438	-0.740509	-0.366599
N30	N	0.576177	-0.673461	-0.333500
N31	N	0.547925	-0.746147	-0.369382
C32	C	1.075163	-1.037610	-0.337944
C33	C	1.080992	-1.177868	-0.332206
C34	C	1.246138	-0.723593	-0.358248
C35	C	1.324738	-0.729484	-0.361160
C36	C	1.069676	-0.723464	-0.534729
C37	C	1.073078	-0.729300	-0.612846
C38	C	1.048189	-0.380651	-0.364959
C39	C	1.042435	-0.240401	-0.370730
C40	C	1.026144	-0.647959	-0.651190
C41	C	1.029338	-0.653453	-0.724588
C42	C	1.079470	-0.740283	-0.759641
C43	C	1.126407	-0.821633	-0.721292
C44	C	1.123208	-0.816144	-0.647894
C45	C	1.094236	-0.765720	-0.978979
C46	C	1.097432	-0.771200	-1.052382
C47	C	1.000362	-0.603021	-1.055674
C48	C	0.997171	-0.597535	-0.982275
C49	C	1.044105	-0.678889	-0.943931
N50	N	1.082738	-0.745898	-0.834667
N51	N	1.040834	-0.673279	-0.868907
C52	C	1.053777	-0.696040	-0.168823
C53	C	1.050498	-0.689859	-0.090727
H54	H	0.455978	-0.587277	-0.290960
O55	O	0.642377	-0.513290	-0.254309
C56	C	0.658469	-0.536799	-0.183774
H57	H	0.714018	-0.589189	-0.182254
H58	H	0.618532	-0.596731	-0.155849
C59	C	0.586732	-0.346400	-0.148369
C60	C	0.654961	-0.410738	-0.146502
H61	H	0.584565	-0.268642	-0.125376
H62	H	0.575888	-0.330564	-0.195889
H63	H	0.553459	-0.396357	-0.125099
H64	H	0.688231	-0.360788	-0.169780
H65	H	0.665810	-0.426564	-0.098985
H66	H	0.341186	-0.882719	-0.436792
H67	H	0.322006	-0.577261	-0.286032
O68	O	0.983716	-0.574304	-0.761731
C69	C	0.938775	-0.496504	-0.715052
H70	H	0.965283	-0.490398	-0.663985
H71	H	0.886622	-0.538094	-0.703354
C72	C	0.891769	-0.371086	-0.811571
C73	C	0.924330	-0.363579	-0.748851
H74	H	0.882855	-0.289093	-0.832420
H75	H	0.922045	-0.423504	-0.843020
H76	H	0.848312	-0.405750	-0.801813
H77	H	0.967790	-0.328931	-0.758610
H78	H	0.894061	-0.311152	-0.717405
H79	H	0.782914	-0.536889	-0.266087
H80	H	0.956347	-0.526832	-0.953739
H81	H	0.962151	-0.536788	-1.086901
H82	H	1.004967	-1.186638	-0.408103
O83	O	1.139735	-0.844863	-0.941702
C84	C	1.100975	-0.920160	-0.894389
H85	H	1.046561	-0.925433	-0.914120
H86	H	1.094520	-0.876816	-0.840275
C87	C	1.207691	-1.047360	-0.864919
C88	C	1.140861	-1.053845	-0.889157
H89	H	1.232295	-1.129822	-0.861688
H90	H	1.233805	-0.996629	-0.896793
H91	H	1.202302	-1.011235	-0.819827
H92	H	1.146250	-1.089955	-0.934252
H93	H	1.114748	-1.104586	-0.857291
H94	H	0.802095	-0.842353	-0.416846
O95	O	1.168826	-0.894981	-0.610577
C96	C	1.209716	-0.823398	-0.572780
H97	H	1.180376	-0.725082	-0.564796
H98	H	1.262785	-0.815580	-0.603577
C99	C	1.258364	-1.009332	-0.510484
C100	C	1.222325	-0.888580	-0.500672
H101	H	1.266145	-1.049540	-0.466006
H102	H	1.230818	-1.057560	-0.535950
H103	H	1.302584	-1.002800	-0.536151
H104	H	1.178103	-0.895115	-0.475015
H105	H	1.249865	-0.840355	-0.475200
H106	H	1.118457	-1.231638	-0.294826
H107	H	1.167222	-0.892338	-0.749838
H108	H	1.138259	-0.841909	-1.080921
H109	H	0.668124	-0.832337	-0.411915
O110	O	0.977413	-0.563779	-0.617056
C111	C	0.932828	-0.629024	-0.569964
H112	H	0.961213	-0.725693	-0.555955
H113	H	0.882225	-0.641078	-0.595741
C114	C	0.879271	-0.434694	-0.519835
C115	C	0.914138	-0.553421	-0.502624
H116	H	0.867740	-0.388058	-0.478297
H117	H	0.909308	-0.390736	-0.551563
H118	H	0.837107	-0.444757	-0.541317
H119	H	0.956306	-0.543358	-0.481151
H120	H	0.884108	-0.597376	-0.470891
H121	H	0.475168	-0.892732	-0.441727
