data_functionalizedCrystal
_audit_creation_method	'MofGen! by Chris Wilmer'
_symmetry_space_group_name_H-M	'P1'
_symmetry_Int_Tables_number	1
_symmetry_cell_setting	triclinic
loop_
_symmetry_equiv_pos_as_xyz
  x,y,z
_cell_length_a	18.050589
_cell_length_b	12.827893
_cell_length_c	12.827885
_cell_angle_alpha	90.021379
_cell_angle_beta	89.970449
_cell_angle_gamma	89.973570
loop_
_atom_site_label
_atom_site_type_symbol
_atom_site_fract_x
_atom_site_fract_y
_atom_site_fract_z
Zn1	Zn	-0.295659	-1.597578	-0.590904
Zn2	Zn	0.204341	-1.097578	-0.090904
Zn3	Zn	-0.419867	-1.597433	-0.416165
Zn4	Zn	0.080133	-1.097433	0.083835
Zn5	Zn	-0.295691	-1.422819	-0.416172
Zn6	Zn	0.204309	-0.922819	0.083828
Zn7	Zn	-0.419808	-1.422766	-0.590859
Zn8	Zn	0.080192	-0.922766	-0.090859
O9	O	-0.357756	-1.510149	-0.503525
O10	O	0.142244	-1.010149	-0.003525
O11	O	-0.312147	-1.743795	-0.567740
O12	O	0.187853	-1.243795	-0.067740
O13	O	-0.403433	-1.574231	-0.269930
O14	O	0.096567	-1.074231	0.230070
O15	O	-0.191762	-1.446085	-0.439372
O16	O	0.308238	-0.946085	0.060628
O17	O	-0.403402	-1.743688	-0.439360
O18	O	0.096598	-1.243688	0.060640
O19	O	-0.191739	-1.574479	-0.567747
O20	O	0.308261	-1.074479	-0.067747
O21	O	-0.312202	-1.445943	-0.269935
O22	O	0.187798	-0.945943	0.230065
O23	O	-0.312144	-1.276576	-0.439328
O24	O	0.187856	-0.776576	0.060672
O25	O	-0.403301	-1.445994	-0.737101
O26	O	0.096699	-0.945994	-0.237101
O27	O	-0.403332	-1.276537	-0.567670
O28	O	0.096668	-0.776537	-0.067670
O29	O	-0.312089	-1.574428	-0.737134
O30	O	0.187911	-1.074428	-0.237134
O31	O	-0.523784	-1.574180	-0.439317
O32	O	-0.023784	-1.074180	0.060683
O33	O	-0.523740	-1.445853	-0.567664
O34	O	-0.023740	-0.945853	-0.067664
C35	C	-0.357736	-1.238639	-0.503496
C36	C	0.142264	-0.738639	-0.003496
C37	C	-0.357745	-1.122486	-0.503508
C38	C	0.142255	-0.622486	-0.003508
C39	C	-0.312668	-1.070754	-0.567132
C40	C	0.187332	-0.570754	-0.067132
C41	C	-0.312677	-0.950704	-0.567146
C42	C	0.187323	-0.450704	-0.067146
C43	C	-0.550708	-1.510023	-0.503507
C44	C	-0.050708	-1.010023	-0.003507
C45	C	-0.633254	-1.510065	-0.503535
C46	C	-0.133254	-1.010065	-0.003535
C47	C	-0.832708	-1.440349	-0.573306
C48	C	-0.332708	-0.940349	-0.073306
C49	C	-0.882155	-1.414872	-0.477948
C50	C	-0.382155	-0.914872	0.022052
C51	C	-0.784384	-1.510167	-0.503549
C52	C	-0.284384	-1.010167	-0.003549
C53	C	-0.882019	-1.535696	-0.598917
C54	C	-0.382019	-1.035696	-0.098917
C55	C	-0.930370	-1.510264	-0.503570
C56	C	-0.430370	-1.010264	-0.003570
C57	C	-0.832744	-1.484640	-0.408140
C58	C	-0.332744	-0.984640	0.091860
C59	C	-0.832604	-1.605508	-0.529174
C60	C	-0.332604	-1.105508	-0.029174
C61	C	-0.882029	-1.580067	-0.433751
C62	C	-0.382029	-1.080067	0.066249
C63	C	-0.700286	-1.510109	-0.503538
C64	C	-0.200286	-1.010109	-0.003538
C65	C	-1.014466	-1.510323	-0.503570
C66	C	-0.514466	-1.010323	-0.003570
C67	C	-0.164051	-1.510304	-0.503565
C68	C	0.335949	-1.010304	-0.003565
C69	C	-0.081505	-1.510370	-0.503582
C70	C	0.418495	-1.010370	-0.003582
C71	C	-0.357685	-1.510221	-0.776095
C72	C	0.142315	-1.010221	-0.276095
C73	C	-0.357655	-1.510252	-0.892248
C74	C	0.142345	-1.010252	-0.392248
C75	C	-0.357771	-0.782719	-0.503546
C76	C	0.142229	-0.282719	-0.003546
C77	C	-0.357762	-0.898872	-0.503534
C78	C	0.142238	-0.398872	-0.003534
C79	C	-0.312502	-1.446791	-0.944036
C80	C	0.187498	-0.946791	-0.444036
C81	C	-0.312469	-1.446822	-1.064086
C82	C	0.187531	-0.946822	-0.564086
C83	C	-0.357774	-1.510137	-0.232015
C84	C	0.142226	-1.010137	0.267985
C85	C	-0.357595	-1.510309	-0.115862
C86	C	0.142405	-1.010309	0.384138
H87	H	-0.274067	-1.115341	-0.621588
H88	H	0.225933	-0.615341	-0.121588
Cl89	Cl	-0.915255	-1.671293	-0.342587
Cl90	Cl	-0.415255	-1.171293	0.157413
Cl91	Cl	-0.417308	-1.594168	-0.961005
Cl92	Cl	0.082692	-1.094168	-0.461005
H93	H	-0.396360	-0.943354	-0.449066
H94	H	0.103640	-0.443354	0.050934
Cl95	Cl	-0.798974	-1.729892	-0.562678
Cl96	Cl	-0.298974	-1.229892	-0.062678
H97	H	-0.396342	-1.077899	-0.449046
H98	H	0.103658	-0.577899	0.050954
H99	H	-0.273872	-1.392434	-0.899496
H100	H	0.226128	-0.892434	-0.399496
Cl101	Cl	-0.799269	-1.349063	-0.664256
Cl102	Cl	-0.299269	-0.849063	-0.164256
Cl103	Cl	-0.799469	-1.451221	-0.283596
Cl104	Cl	-0.299469	-0.951221	0.216404
H105	H	-0.903664	-1.557249	-0.679561
H106	H	-0.403664	-1.057249	-0.179561
H107	H	-0.274087	-0.906215	-0.621620
H108	H	0.225913	-0.406215	-0.121620
Cl109	Cl	-0.915757	-1.290455	-0.444486
Cl110	Cl	-0.415757	-0.790455	0.055514
Cl111	Cl	-0.252778	-1.362940	-1.132840
Cl112	Cl	0.247222	-0.862940	-0.632840
H113	H	-0.396251	-1.564647	-1.071333
H114	H	0.103749	-1.064647	-0.571333
