data_functionalizedCrystal
_audit_creation_method	'MofGen! by Chris Wilmer'
_symmetry_space_group_name_H-M	'P1'
_symmetry_Int_Tables_number	1
_symmetry_cell_setting	triclinic
loop_
_symmetry_equiv_pos_as_xyz
  x,y,z
_cell_length_a	10.654550
_cell_length_b	15.995350
_cell_length_c	9.730223
_cell_angle_alpha	89.997832
_cell_angle_beta	89.999957
_cell_angle_gamma	83.988653
loop_
_atom_site_label
_atom_site_type_symbol
_atom_site_fract_x
_atom_site_fract_y
_atom_site_fract_z
O1	O	1.666303	0.117602	-0.114180
O2	O	1.300678	0.128807	-0.114204
O3	O	1.493485	0.001375	-0.114190
O4	O	1.473496	0.245034	-0.114194
O5	O	1.493473	0.001371	0.114390
O6	O	1.300666	0.128803	0.114375
O7	O	1.666290	0.117599	0.114400
Zn8	Zn	1.483476	0.123201	0.150680
Zn9	Zn	1.483492	0.123205	-0.150484
O10	O	1.473483	0.245031	0.114386
C11	C	1.253884	0.127982	0.000082
C12	C	1.114473	0.125521	0.000073
C13	C	1.492652	-0.029826	0.000097
C14	C	1.490175	-0.122791	0.000089
C15	C	1.034008	0.200551	0.000075
C16	C	0.903017	0.198233	0.000099
C17	C	0.932971	0.045849	0.000112
C18	C	1.063959	0.048168	0.000098
C19	C	1.481277	-0.460590	0.000093
C20	C	1.343964	-0.413954	-0.000429
C21	C	1.346442	-0.317249	0.000087
C22	C	1.485691	-0.293004	0.000090
C23	C	1.553412	-0.333690	0.130623
C24	C	1.549962	-0.430346	0.130732
C25	C	1.552813	-0.430684	-0.129206
C26	C	1.552780	-0.333739	-0.130931
C27	C	1.488192	-0.198292	0.000093
C28	C	1.478780	-0.555303	0.000099
C29	C	1.713084	0.118423	0.000110
C30	C	1.852495	0.120885	0.000111
C31	C	1.474316	0.276232	0.000095
C32	C	1.476793	0.369197	0.000094
N33	N	1.483474	0.123197	0.356216
N34	N	1.483504	0.123202	-0.356021
C35	C	1.568878	0.066794	0.428148
C36	C	1.568890	0.066794	0.572031
C37	C	1.398091	0.179608	0.572037
C38	C	1.398074	0.179603	0.428157
H39	H	1.075132	0.263537	0.000065
Br40	Br	1.173173	-0.053666	0.000112
Br41	Br	1.684775	-0.009758	0.330520
Br42	Br	1.257717	-0.270385	-0.155872
Br43	Br	1.467634	-0.461335	0.293355
Br44	Br	1.257094	-0.271318	0.156294
H45	H	1.289086	-0.432803	-0.094036
Br46	Br	0.793817	0.300064	0.000110
Br47	Br	0.864407	-0.059125	0.000141
H48	H	1.654054	-0.461857	-0.130081
Br49	Br	1.252621	-0.447543	0.154234
H50	H	1.650775	-0.462009	0.136657
Br51	Br	1.723925	-0.309162	0.138727
H52	H	1.503268	-0.306776	-0.227495
Br53	Br	1.475004	-0.286848	0.292527
Br54	Br	1.282197	0.256157	0.669675
Br55	Br	1.477983	-0.465337	-0.294107
Br56	Br	1.722032	-0.307146	-0.144077
Br57	Br	1.282151	0.256148	0.330523
H58	H	1.638432	0.020865	0.630595
