data_functionalizedCrystal
_audit_creation_method	'MofGen! by Chris Wilmer'
_symmetry_space_group_name_H-M	'P1'
_symmetry_Int_Tables_number	1
_symmetry_cell_setting	triclinic
loop_
_symmetry_equiv_pos_as_xyz
  x,y,z
_cell_length_a	19.121063
_cell_length_b	21.395362
_cell_length_c	21.395355
_cell_angle_alpha	90.048039
_cell_angle_beta	92.420740
_cell_angle_gamma	87.511762
loop_
_atom_site_label
_atom_site_type_symbol
_atom_site_fract_x
_atom_site_fract_y
_atom_site_fract_z
Zn1	Zn	-0.279359	-0.947243	-0.365271
Zn2	Zn	-0.029359	-0.697243	-0.115271
Zn3	Zn	0.220641	-0.447243	0.134729
Zn4	Zn	0.470641	-0.197243	0.384729
Zn5	Zn	-0.396795	-0.942682	-0.264956
Zn6	Zn	-0.146795	-0.692682	-0.014956
Zn7	Zn	0.103205	-0.442682	0.235044
Zn8	Zn	0.353205	-0.192682	0.485044
Zn9	Zn	-0.279397	-0.842456	-0.260466
Zn10	Zn	-0.029397	-0.592456	-0.010466
Zn11	Zn	0.220603	-0.342456	0.239534
Zn12	Zn	0.470603	-0.092456	0.489534
Zn13	Zn	-0.396814	-0.837963	-0.369654
Zn14	Zn	-0.146814	-0.587963	-0.119654
Zn15	Zn	0.103186	-0.337963	0.130346
Zn16	Zn	0.353186	-0.087963	0.380346
O17	O	-0.338091	-0.892586	-0.315087
O18	O	-0.088091	-0.642586	-0.065087
O19	O	0.161909	-0.392586	0.184913
O20	O	0.411909	-0.142586	0.434913
O21	O	-0.294913	-1.034316	-0.352009
O22	O	-0.044913	-0.784316	-0.102009
O23	O	0.205087	-0.534316	0.147991
O24	O	0.455087	-0.284316	0.397991
O25	O	-0.381229	-0.929358	-0.176683
O26	O	-0.131229	-0.679358	0.073317
O27	O	0.118771	-0.429358	0.323317
O28	O	0.368771	-0.179358	0.573317
O29	O	-0.181105	-0.860145	-0.270655
O30	O	0.068895	-0.610145	-0.020655
O31	O	0.318895	-0.360145	0.229345
O32	O	0.568895	-0.110145	0.479345
O33	O	-0.381193	-1.030966	-0.278308
O34	O	-0.131193	-0.780966	-0.028308
O35	O	0.118807	-0.530966	0.221692
O36	O	0.368807	-0.280966	0.471692
O37	O	-0.181077	-0.937131	-0.347655
O38	O	0.068923	-0.687131	-0.097655
O39	O	0.318923	-0.437131	0.152345
O40	O	0.568923	-0.187131	0.402345
O41	O	-0.294977	-0.855723	-0.173384
O42	O	-0.044977	-0.605723	0.076616
O43	O	0.205023	-0.355723	0.326616
O44	O	0.455023	-0.105723	0.576616
O45	O	-0.294996	-0.754181	-0.274905
O46	O	-0.044996	-0.504181	-0.024905
O47	O	0.205004	-0.254181	0.225095
O48	O	0.455004	-0.004181	0.475095
O49	O	-0.381226	-0.852487	-0.456751
O50	O	-0.131226	-0.602487	-0.206751
O51	O	0.118774	-0.352487	0.043249
O52	O	0.368774	-0.102487	0.293249
O53	O	-0.381262	-0.750880	-0.355126
O54	O	-0.131262	-0.500880	-0.105126
O55	O	0.118738	-0.250880	0.144874
O56	O	0.368738	-0.000880	0.394874
O57	O	-0.294932	-0.932775	-0.453530
O58	O	-0.044932	-0.682775	-0.203530
O59	O	0.205068	-0.432775	0.046470
O60	O	0.455068	-0.182775	0.296470
O61	O	-0.495084	-0.925002	-0.282559
O62	O	-0.245084	-0.675002	-0.032559
O63	O	0.004916	-0.425002	0.217441
O64	O	0.254916	-0.175002	0.467441
O65	O	-0.495098	-0.848065	-0.359480
O66	O	-0.245098	-0.598065	-0.109480
O67	O	0.004902	-0.348065	0.140520
O68	O	0.254902	-0.098065	0.390520
C69	C	-0.338136	-0.729796	-0.315004
C70	C	-0.088136	-0.479796	-0.065004
C71	C	0.161864	-0.229796	0.184996
C72	C	0.411864	0.020204	0.434996
C73	C	-0.338172	-0.660154	-0.314984
C74	C	-0.088172	-0.410154	-0.064984
C75	C	0.161828	-0.160154	0.185016
C76	C	0.411828	0.089846	0.435016
C77	C	-0.383152	-0.625736	-0.356695
C78	C	-0.133152	-0.375736	-0.106695
C79	C	0.116848	-0.125736	0.143305
C80	C	0.366848	0.124264	0.393305
C81	C	-0.383138	-0.560301	-0.356718
C82	C	-0.133138	-0.310301	-0.106718
C83	C	0.116862	-0.060301	0.143282
C84	C	0.366862	0.189699	0.393282
C85	C	-0.338151	-0.529286	-0.315019
C86	C	-0.088151	-0.279286	-0.065019
C87	C	0.161849	-0.029286	0.184981
C88	C	0.411849	0.220714	0.434981
C89	C	-0.293162	-0.563712	-0.273305
C90	C	-0.043162	-0.313712	-0.023305
C91	C	0.206838	-0.063712	0.226695
C92	C	0.456838	0.186288	0.476695
C93	C	-0.293173	-0.629146	-0.273288
C94	C	-0.043173	-0.379146	-0.023288
C95	C	0.206827	-0.129146	0.226712
C96	C	0.456827	0.120854	0.476712
C97	C	-0.332498	-0.425776	-0.258391
C98	C	-0.082498	-0.175776	-0.008391
C99	C	0.167502	0.074224	0.241609
C100	C	0.417502	0.324224	0.491609
C101	C	-0.332492	-0.360344	-0.258408
C102	C	-0.082492	-0.110344	-0.008408
C103	C	0.167508	0.139656	0.241592
C104	C	0.417508	0.389656	0.491592
C105	C	-0.338115	-0.327467	-0.315072
C106	C	-0.088115	-0.077467	-0.065072
C107	C	0.161885	0.172533	0.184928
C108	C	0.411885	0.422533	0.434928
C109	C	-0.343757	-0.360030	-0.371723
C110	C	-0.093757	-0.110030	-0.121723
C111	C	0.156243	0.139970	0.128277
C112	C	0.406243	0.389970	0.378277
C113	C	-0.343768	-0.425464	-0.371705
C114	C	-0.093768	-0.175464	-0.121705
C115	C	0.156232	0.074536	0.128295
C116	C	0.406232	0.324536	0.378295
C117	C	-0.338134	-0.458335	-0.315033
C118	C	-0.088134	-0.208335	-0.065033
C119	C	0.161866	0.041665	0.184967
C120	C	0.411866	0.291665	0.434967
C121	C	-0.383081	-0.222097	-0.356811
C122	C	-0.133081	0.027903	-0.106811
C123	C	0.116919	0.277903	0.143189
C124	C	0.366919	0.527903	0.393189
C125	C	-0.383062	-0.156661	-0.356835
C126	C	-0.133062	0.093339	-0.106835
C127	C	0.116938	0.343339	0.143165
C128	C	0.366938	0.593339	0.393165
C129	C	-0.293091	-0.160074	-0.273417
C130	C	-0.043091	0.089926	-0.023417
C131	C	0.206909	0.339926	0.226583
C132	C	0.456909	0.589926	0.476583
C133	C	-0.293106	-0.225508	-0.273398
C134	C	-0.043106	0.024492	-0.023398
C135	C	0.206894	0.274492	0.226602
C136	C	0.456894	0.524492	0.476602
C137	C	-0.338105	-0.256516	-0.315095
C138	C	-0.088105	-0.006516	-0.065095
C139	C	0.161895	0.243484	0.184905
C140	C	0.411895	0.493484	0.434905
C141	C	-0.520576	-0.885568	-0.321996
C142	C	-0.270576	-0.635568	-0.071996
C143	C	-0.020576	-0.385568	0.178004
C144	C	0.229424	-0.135568	0.428004
C145	C	-0.598643	-0.882623	-0.324972
C146	C	-0.348643	-0.632623	-0.074972
C147	C	-0.098643	-0.382623	0.175028
C148	C	0.151357	-0.132623	0.425028
C149	C	-0.635289	-0.921327	-0.286355
C150	C	-0.385289	-0.671327	-0.036355
C151	C	-0.135289	-0.421327	0.213645
C152	C	0.114711	-0.171327	0.463645
C153	C	-0.708642	-0.918561	-0.289158
C154	C	-0.458642	-0.668561	-0.039158
C155	C	-0.208642	-0.418561	0.210842
C156	C	0.041358	-0.168561	0.460842
C157	C	-0.745348	-0.877087	-0.330576
C158	C	-0.495348	-0.627087	-0.080576
C159	C	-0.245348	-0.377087	0.169424
C160	C	0.004652	-0.127087	0.419424
C161	C	-0.708697	-0.838381	-0.369197
C162	C	-0.458697	-0.588381	-0.119197
C163	C	-0.208697	-0.338381	0.130803
C164	C	0.041303	-0.088381	0.380803
C165	C	-0.635346	-0.841151	-0.366397
C166	C	-0.385346	-0.591151	-0.116397
C167	C	-0.135346	-0.341151	0.133603
C168	C	0.114654	-0.091151	0.383603
C169	C	-0.966824	-0.866722	-0.341036
C170	C	-0.716824	-0.616722	-0.091036
C171	C	-0.466824	-0.366722	0.158964
C172	C	-0.216824	-0.116722	0.408964
C173	C	-1.040180	-0.863954	-0.343832
C174	C	-0.790180	-0.613954	-0.093832
C175	C	-0.540180	-0.363954	0.156168
C176	C	-0.290180	-0.113954	0.406168
C177	C	-1.040120	-0.944135	-0.263794
C178	C	-0.790120	-0.694135	-0.013794
C179	C	-0.540120	-0.444135	0.236206
C180	C	-0.290120	-0.194135	0.486206
C181	C	-0.966767	-0.946898	-0.260995
C182	C	-0.716767	-0.696898	-0.010995
C183	C	-0.466767	-0.446898	0.239005
C184	C	-0.216767	-0.196898	0.489005
C185	C	-0.930123	-0.908194	-0.299618
C186	C	-0.680123	-0.658194	-0.049618
C187	C	-0.430123	-0.408194	0.200382
C188	C	-0.180123	-0.158194	0.450382
C189	C	-0.820326	-0.874257	-0.333441
C190	C	-0.570326	-0.624257	-0.083441
C191	C	-0.320326	-0.374257	0.166559
C192	C	-0.070326	-0.124257	0.416559
C193	C	-0.855146	-0.911028	-0.296756
C194	C	-0.605146	-0.661028	-0.046756
C195	C	-0.355146	-0.411028	0.203244
C196	C	-0.105146	-0.161028	0.453244
C197	C	-0.154894	-0.899648	-0.308165
C198	C	0.095106	-0.649648	-0.058165
C199	C	0.345106	-0.399648	0.191835
C200	C	0.595106	-0.149648	0.441835
C201	C	-0.076826	-0.902658	-0.305215
C202	C	0.173174	-0.652658	-0.055215
C203	C	0.423174	-0.402658	0.194785
C204	C	0.673174	-0.152658	0.444785
C205	C	-0.338077	-0.892638	-0.478510
C206	C	-0.088077	-0.642638	-0.228510
C207	C	0.161923	-0.392638	0.021490
C208	C	0.411923	-0.142638	0.271490
C209	C	-0.338071	-0.892661	-0.548151
C210	C	-0.088071	-0.642661	-0.298151
C211	C	0.161929	-0.392661	-0.048151
C212	C	0.411929	-0.142661	0.201849
C213	C	-0.338058	-0.056010	-0.315153
C214	C	-0.088058	0.193990	-0.065153
C215	C	0.161942	0.443990	0.184847
C216	C	0.411942	0.693990	0.434847
C217	C	-0.338074	-0.125651	-0.315136
C218	C	-0.088074	0.124349	-0.065136
C219	C	0.161926	0.374349	0.184864
C220	C	0.411926	0.624349	0.434864
C221	C	-0.293136	-0.934465	-0.579188
C222	C	-0.043136	-0.684465	-0.329188
C223	C	0.206864	-0.434465	-0.079188
C224	C	0.456864	-0.184465	0.170812
C225	C	-0.293106	-0.934465	-0.644622
C226	C	-0.043106	-0.684465	-0.394622
C227	C	0.206894	-0.434465	-0.144622
C228	C	0.456894	-0.184465	0.105378
C229	C	-0.338023	-0.892667	-0.679017
C230	C	-0.088023	-0.642667	-0.429017
C231	C	0.161977	-0.392667	-0.179017
C232	C	0.411977	-0.142667	0.070983
C233	C	-0.382961	-0.850856	-0.647972
C234	C	-0.132961	-0.600856	-0.397972
C235	C	0.117039	-0.350856	-0.147972
C236	C	0.367039	-0.100856	0.102028
C237	C	-0.382985	-0.850852	-0.582539
C238	C	-0.132985	-0.600852	-0.332539
C239	C	0.117015	-0.350852	-0.082539
C240	C	0.367015	-0.100852	0.167461
C241	C	-0.401266	-0.885288	-0.785084
C242	C	-0.151266	-0.635288	-0.535084
C243	C	0.098734	-0.385288	-0.285084
C244	C	0.348734	-0.135288	-0.035084
C245	C	-0.401243	-0.885296	-0.850517
C246	C	-0.151243	-0.635296	-0.600517
C247	C	0.098757	-0.385296	-0.350517
C248	C	0.348757	-0.135296	-0.100517
C249	C	-0.337949	-0.892674	-0.880835
C250	C	-0.087949	-0.642674	-0.630835
C251	C	0.162051	-0.392674	-0.380835
C252	C	0.412051	-0.142674	-0.130835
C253	C	-0.274675	-0.900058	-0.845714
C254	C	-0.024675	-0.650058	-0.595714
C255	C	0.225325	-0.400058	-0.345714
C256	C	0.475325	-0.150058	-0.095714
C257	C	-0.274699	-0.900055	-0.780281
C258	C	-0.024699	-0.650055	-0.530281
C259	C	0.225301	-0.400055	-0.280281
C260	C	0.475301	-0.150055	-0.030281
C261	C	-0.338002	-0.892666	-0.749969
C262	C	-0.088002	-0.642666	-0.499969
C263	C	0.161998	-0.392666	-0.249969
C264	C	0.411998	-0.142666	0.000031
C265	C	-0.292977	-0.934481	-0.982824
C266	C	-0.042977	-0.684481	-0.732824
C267	C	0.207023	-0.434481	-0.482824
C268	C	0.457023	-0.184481	-0.232824
C269	C	-0.292946	-0.934477	-1.048259
C270	C	-0.042946	-0.684477	-0.798259
C271	C	0.207054	-0.434477	-0.548259
C272	C	0.457054	-0.184477	-0.298259
C273	C	-0.382808	-0.850870	-1.051608
C274	C	-0.132808	-0.600870	-0.801608
C275	C	0.117192	-0.350870	-0.551608
C276	C	0.367192	-0.100870	-0.301608
C277	C	-0.382833	-0.850871	-0.986174
C278	C	-0.132833	-0.600871	-0.736174
C279	C	0.117167	-0.350871	-0.486174
C280	C	0.367167	-0.100871	-0.236174
C281	C	-0.337918	-0.892680	-0.951786
C282	C	-0.087918	-0.642680	-0.701786
C283	C	0.162082	-0.392680	-0.451786
C284	C	0.412082	-0.142680	-0.201786
C285	C	-0.338055	-0.892571	-0.152298
C286	C	-0.088055	-0.642571	0.097702
C287	C	0.161945	-0.392571	0.347702
C288	C	0.411945	-0.142571	0.597702
C289	C	-0.337863	-0.892678	-0.082650
C290	C	-0.087863	-0.642678	0.167350
C291	C	0.162137	-0.392678	0.417350
C292	C	0.412137	-0.142678	0.667350
H293	H	-0.348335	-0.333264	-0.417864
H294	H	-0.098335	-0.083264	-0.167864
H295	H	0.151665	0.166736	0.082136
H296	H	0.401665	0.416736	0.332136
F297	F	-0.927707	-0.991047	-0.216919
F298	F	-0.677707	-0.741047	0.033081
F299	F	-0.427707	-0.491047	0.283081
F300	F	-0.177707	-0.241047	0.533081
H301	H	-0.419373	-0.816832	-1.079612
H302	H	-0.169373	-0.566832	-0.829612
H303	H	0.080627	-0.316832	-0.579612
H304	H	0.330627	-0.066832	-0.329612
H305	H	-0.605509	-0.809634	-0.397844
H306	H	-0.355509	-0.559634	-0.147844
H307	H	-0.105509	-0.309634	0.102156
H308	H	0.144491	-0.059634	0.352156
H309	H	-0.348360	-0.451975	-0.417832
H310	H	-0.098360	-0.201975	-0.167832
H311	H	0.151640	0.048025	0.082168
H312	H	0.401640	0.298025	0.332168
H313	H	-0.419719	-0.247345	-0.390766
H314	H	-0.169719	0.002655	-0.140766
H315	H	0.080281	0.252655	0.109234
H316	H	0.330281	0.502655	0.359234
F317	F	-1.079125	-0.985326	-0.222694
F318	F	-0.829125	-0.735326	0.027306
F319	F	-0.579125	-0.485326	0.277306
F320	F	-0.329125	-0.235326	0.527306
H321	H	-1.070064	-0.830188	-0.377570
H322	H	-0.820064	-0.580188	-0.127570
H323	H	-0.570064	-0.330188	0.122430
H324	H	-0.320064	-0.080188	0.372430
F325	F	-0.430662	-0.806379	-0.953141
F326	F	-0.180662	-0.556379	-0.703141
F327	F	0.069338	-0.306379	-0.453141
F328	F	0.319338	-0.056379	-0.203141
F329	F	-0.430763	-0.806370	-0.684579
F330	F	-0.180763	-0.556370	-0.434579
F331	F	0.069237	-0.306370	-0.184579
F332	F	0.319237	-0.056370	0.065421
H333	H	-0.419792	-0.650978	-0.390649
H334	H	-0.169792	-0.400978	-0.140649
H335	H	0.080208	-0.150978	0.109351
H336	H	0.330208	0.099022	0.359351
F337	F	-0.431013	-0.523663	-0.401114
F338	F	-0.181013	-0.273663	-0.151114
F339	F	0.068987	-0.023663	0.098886
F340	F	0.318987	0.226337	0.348886
F341	F	-0.430935	-0.120031	-0.401234
F342	F	-0.180935	0.129969	-0.151234
F343	F	0.069065	0.379969	0.098766
F344	F	0.319065	0.629969	0.348766
F345	F	-0.859398	-0.830118	-0.377519
F346	F	-0.609398	-0.580118	-0.127519
F347	F	-0.359398	-0.330118	0.122481
F348	F	-0.109398	-0.080118	0.372481
F349	F	-0.245209	-0.127070	-0.229040
F350	F	0.004791	0.122930	0.020960
F351	F	0.254791	0.372930	0.270960
F352	F	0.504791	0.622930	0.520960
F353	F	-0.207360	-0.907910	-0.742905
F354	F	0.042640	-0.657910	-0.492905
F355	F	0.292640	-0.407910	-0.242905
F356	F	0.542640	-0.157910	0.007095
F357	F	-0.468585	-0.877442	-0.887889
F358	F	-0.218585	-0.627442	-0.637889
F359	F	0.031415	-0.377442	-0.387889
F360	F	0.281415	-0.127442	-0.137889
F361	F	-0.430813	-0.806357	-0.549506
F362	F	-0.180813	-0.556357	-0.299506
F363	F	0.069187	-0.306357	-0.049506
F364	F	0.319187	-0.056357	0.200494
H365	H	-0.605408	-0.955097	-0.252626
H366	H	-0.355408	-0.705097	-0.002626
H367	H	-0.105408	-0.455097	0.247374
H368	H	0.144592	-0.205097	0.497374
H369	H	-0.738476	-0.950078	-0.257712
H370	H	-0.488476	-0.700078	-0.007712
H371	H	-0.238476	-0.450078	0.242288
H372	H	0.011524	-0.200078	0.492288
H373	H	-0.452795	-0.879112	-0.760404
H374	H	-0.202795	-0.629112	-0.510404
H375	H	0.047205	-0.379112	-0.260404
H376	H	0.297205	-0.129112	-0.010404
H377	H	-0.256350	-0.968518	-1.073528
H378	H	-0.006350	-0.718518	-0.823528
H379	H	0.243650	-0.468518	-0.573528
H380	H	0.493650	-0.218518	-0.323528
F381	F	-0.207307	-0.907914	-0.877976
F382	F	0.042693	-0.657914	-0.627976
F383	F	0.292693	-0.407914	-0.377976
F384	F	0.542693	-0.157914	-0.127976
F385	F	-0.245266	-0.978950	-0.677661
F386	F	0.004734	-0.728950	-0.427661
F387	F	0.254734	-0.478950	-0.177661
F388	F	0.504734	-0.228950	0.072339
H389	H	-0.936994	-0.835206	-0.372484
H390	H	-0.686994	-0.585206	-0.122484
H391	H	-0.436994	-0.335206	0.127516
H392	H	-0.186994	-0.085206	0.377516
H393	H	-0.738589	-0.804615	-0.402923
H394	H	-0.488589	-0.554615	-0.152923
H395	H	-0.238589	-0.304615	0.097077
H396	H	0.011411	-0.054615	0.347077
F397	F	-0.816079	-0.955169	-0.252681
F398	F	-0.566079	-0.705169	-0.002681
F399	F	-0.316079	-0.455169	0.247319
F400	F	-0.066079	-0.205169	0.497319
H401	H	-0.256401	-0.968520	-0.954823
H402	H	-0.006401	-0.718520	-0.704823
H403	H	0.243599	-0.468520	-0.454823
H404	H	0.493599	-0.218520	-0.204823
F405	F	-0.326515	-0.460760	-0.198077
F406	F	-0.076515	-0.210760	0.051923
F407	F	0.173485	0.039240	0.301923
F408	F	0.423485	0.289240	0.551923
H409	H	-0.256482	-0.253532	-0.239430
H410	H	-0.006482	-0.003532	0.010570
H411	H	0.243518	0.246468	0.260570
H412	H	0.493518	0.496468	0.510570
H413	H	-0.327902	-0.333835	-0.212280
H414	H	-0.077902	-0.083835	0.037720
H415	H	0.172098	0.166165	0.287720
H416	H	0.422098	0.416165	0.537720
F417	F	-0.245282	-0.530704	-0.228929
F418	F	0.004718	-0.280704	0.021071
F419	F	0.254718	-0.030704	0.271071
F420	F	0.504718	0.219296	0.521071
H421	H	-0.256543	-0.657169	-0.239322
H422	H	-0.006543	-0.407169	0.010678
H423	H	0.243457	-0.157169	0.260678
H424	H	0.493457	0.092831	0.510678
F425	F	-0.245331	-0.978959	-0.542593
F426	F	0.004669	-0.728959	-0.292593
F427	F	0.254669	-0.478959	-0.042593
F428	F	0.504669	-0.228959	0.207407
