data_functionalizedCrystal
_audit_creation_method	'MofGen! by Chris Wilmer'
_symmetry_space_group_name_H-M	'P1'
_symmetry_Int_Tables_number	1
_symmetry_cell_setting	triclinic
loop_
_symmetry_equiv_pos_as_xyz
  x,y,z
_cell_length_a	14.044191
_cell_length_b	10.654550
_cell_length_c	9.730223
_cell_angle_alpha	90.000193
_cell_angle_beta	89.997994
_cell_angle_gamma	88.838340
loop_
_atom_site_label
_atom_site_type_symbol
_atom_site_fract_x
_atom_site_fract_y
_atom_site_fract_z
O1	O	-1.259695	-0.303022	-0.114217
O2	O	-0.759695	0.196978	0.385783
O3	O	-0.983653	-0.292080	-0.114234
O4	O	-0.483653	0.207920	0.385766
O5	O	-1.128021	-0.115450	-0.114220
O6	O	-0.628021	0.384550	0.385780
O7	O	-1.115328	-0.479652	-0.114231
O8	O	-0.615328	0.020348	0.385769
O9	O	-1.128019	-0.115454	0.114360
O10	O	-0.628019	0.384546	0.614360
O11	O	-0.983652	-0.292084	0.114346
O12	O	-0.483652	0.207916	0.614346
O13	O	-1.259693	-0.303027	0.114363
O14	O	-0.759693	0.196973	0.614363
Zn15	Zn	-1.121672	-0.297556	0.150647
Zn16	Zn	-0.621672	0.202444	0.650647
Zn17	Zn	-1.121675	-0.297550	-0.150517
Zn18	Zn	-0.621675	0.202450	0.349483
O19	O	-1.115326	-0.479657	0.114349
O20	O	-0.615326	0.020343	0.614349
C21	C	-0.948307	-0.287295	0.000054
C22	C	-0.448307	0.212705	0.500054
C23	C	-0.842987	-0.273016	0.000047
C24	C	-0.342987	0.226984	0.500047
C25	C	-1.127088	-0.068560	0.000068
C26	C	-0.627088	0.431440	0.500068
C27	C	-1.124300	0.071163	0.000063
C28	C	-0.624300	0.571163	0.500063
C29	C	-1.295040	-0.307812	0.000073
C30	C	-0.795040	0.192188	0.500073
C31	C	-1.400360	-0.322091	0.000070
C32	C	-0.900360	0.177909	0.500070
C33	C	-0.593195	-0.348181	0.000058
C34	C	-0.093195	0.151819	0.500058
C35	C	-0.650158	-0.246931	0.000059
C36	C	-0.150158	0.253069	0.500059
C37	C	-0.757458	-0.261448	0.000052
C38	C	-0.257458	0.238552	0.500052
C39	C	-0.485885	-0.333666	0.000065
C40	C	0.014115	0.166334	0.500065
C41	C	-1.116259	-0.526546	0.000058
C42	C	-0.616259	-0.026546	0.500058
C43	C	-1.119047	-0.666270	0.000054
C44	C	-0.619047	-0.166270	0.500054
N45	N	-1.121678	-0.297561	0.356183
N46	N	-0.621678	0.202439	0.856183
C47	C	-1.209301	0.142104	0.000073
C48	C	-0.709301	0.642104	0.500073
C49	C	-1.206675	0.273389	0.000063
C50	C	-0.706675	0.773389	0.500063
C51	C	-1.034039	0.262779	0.000040
C52	C	-0.534039	0.762779	0.500040
C53	C	-1.036666	0.131497	0.000040
C54	C	-0.536666	0.631497	0.500040
C55	C	-1.296934	0.081770	0.000096
C56	C	-0.796934	0.581770	0.500096
C57	C	-1.381943	0.152712	0.000108
C58	C	-0.881943	0.652712	0.500108
C59	C	-1.379317	0.283997	0.000098
C60	C	-0.879317	0.783997	0.500098
C61	C	-1.291683	0.344340	0.000077
C62	C	-0.791683	0.844340	0.500077
N63	N	-1.121677	-0.297537	-0.356054
N64	N	-0.621677	0.202463	0.143946
C65	C	-1.185620	-0.219379	0.428115
C66	C	-0.685620	0.280621	0.928115
C67	C	-1.185618	-0.219364	0.571998
C68	C	-0.685618	0.280636	1.071998
C69	C	-1.057727	-0.375721	0.572004
C70	C	-0.557727	0.124279	1.072004
C71	C	-1.057726	-0.375730	0.428123
C72	C	-0.557726	0.124270	0.928123
C73	C	-1.249572	-0.141211	0.356175
C74	C	-0.749572	0.358789	0.856175
C75	C	-1.313521	-0.063024	0.428107
C76	C	-0.813521	0.436976	0.928107
C77	C	-1.313518	-0.063009	0.571990
C78	C	-0.813518	0.436991	1.071990
C79	C	-1.249567	-0.141179	0.643941
C80	C	-0.749567	0.358821	1.143941
H81	H	-0.618341	-0.149345	-0.000035
H82	H	-0.118341	0.350655	0.499965
H83	H	-1.005657	-0.439391	0.369556
H84	H	-0.505657	0.060609	0.869556
H85	H	-1.249582	-0.141219	0.239018
H86	H	-0.749582	0.358781	0.739018
H87	H	-1.365581	0.000663	0.630556
H88	H	-0.865581	0.500663	1.130556
H89	H	-0.625010	-0.445759	0.000051
H90	H	-0.125010	0.054241	0.500051
H91	H	-1.289552	0.451241	0.000054
H92	H	-0.789552	0.951241	0.500054
H93	H	-1.299082	-0.025128	0.000109
H94	H	-0.799082	0.474872	0.500109
H95	H	-1.365582	0.000628	0.369518
H96	H	-0.865582	0.500628	0.869518
H97	H	-0.962692	0.311922	0.000025
H98	H	-0.462692	0.811922	0.500025
H99	H	-1.005662	-0.439366	0.630595
H100	H	-0.505662	0.060634	1.130595
H101	H	-1.453291	0.103572	0.000090
H102	H	-0.953291	0.603572	0.500090
H103	H	-1.448535	0.341754	0.000093
H104	H	-0.948535	0.841754	0.500093
H105	H	-0.967451	0.073735	0.000034
H106	H	-0.467451	0.573735	0.500034
H107	H	-1.249564	-0.141151	0.761100
H108	H	-0.749564	0.358849	1.261100
