data_functionalizedCrystal
_audit_creation_method	'MofGen! by Chris Wilmer'
_symmetry_space_group_name_H-M	'P1'
_symmetry_Int_Tables_number	1
_symmetry_cell_setting	triclinic
loop_
_symmetry_equiv_pos_as_xyz
  x,y,z
_cell_length_a	12.827893
_cell_length_b	18.050589
_cell_length_c	12.827893
_cell_angle_alpha	90.007221
_cell_angle_beta	90.003786
_cell_angle_gamma	90.028191
loop_
_atom_site_label
_atom_site_type_symbol
_atom_site_fract_x
_atom_site_fract_y
_atom_site_fract_z
Zn1	Zn	1.597417	-0.295788	0.590850
Zn2	Zn	2.097417	0.204212	1.090850
Zn3	Zn	1.597319	-0.419947	0.416111
Zn4	Zn	2.097319	0.080053	0.916111
Zn5	Zn	1.422705	-0.295776	0.416124
Zn6	Zn	1.922705	0.204224	0.916124
Zn7	Zn	1.422604	-0.419940	0.590811
Zn8	Zn	1.922604	0.080060	1.090811
O9	O	1.510011	-0.357863	0.503474
O10	O	2.010011	0.142137	1.003474
O11	O	1.743640	-0.312266	0.567681
O12	O	2.243640	0.187734	1.067681
O13	O	1.574157	-0.403473	0.269877
O14	O	2.074157	0.096527	0.769877
O15	O	1.445964	-0.191853	0.439323
O16	O	1.945964	0.308147	0.939323
O17	O	1.743568	-0.403485	0.439302
O18	O	2.243568	0.096515	0.939302
O19	O	1.574324	-0.191862	0.567694
O20	O	2.074324	0.308138	1.067694
O21	O	1.445870	-0.312245	0.269886
O22	O	1.945870	0.187755	0.769886
O23	O	1.276456	-0.312238	0.439285
O24	O	1.776456	0.187762	0.939285
O25	O	1.445792	-0.403474	0.737052
O26	O	1.945792	0.096526	1.237052
O27	O	1.276382	-0.403462	0.567627
O28	O	1.776382	0.096538	1.067627
O29	O	1.574226	-0.312259	0.737081
O30	O	2.074226	0.187741	1.237081
O31	O	1.574059	-0.523871	0.439264
O32	O	2.074059	-0.023871	0.939264
O33	O	1.445697	-0.523866	0.567615
O34	O	1.945697	-0.023866	1.067615
C35	C	1.238501	-0.357848	0.503454
C36	C	1.738501	0.142152	1.003454
C37	C	1.122348	-0.357860	0.503470
C38	C	1.622348	0.142140	1.003470
C39	C	1.070554	-0.403071	0.566880
C40	C	1.570554	0.096929	1.066880
C41	C	0.950504	-0.403084	0.566898
C42	C	1.450504	0.096916	1.066898
C43	C	1.509885	-0.550815	0.503456
C44	C	2.009885	-0.050815	1.003456
C45	C	1.509927	-0.633361	0.503484
C46	C	2.009927	-0.133361	1.003484
C47	C	1.440192	-0.832836	0.573257
C48	C	1.940192	-0.332836	1.073257
C49	C	1.414741	-0.882256	0.477900
C50	C	1.914741	-0.382256	0.977900
C51	C	1.510029	-0.784491	0.503498
C52	C	2.010029	-0.284491	1.003498
C53	C	1.535532	-0.882152	0.598865
C54	C	2.035532	-0.382152	1.098865
C55	C	1.510127	-0.930476	0.503519
C56	C	2.010127	-0.430476	1.003519
C57	C	1.484528	-0.832825	0.408090
C58	C	1.984528	-0.332825	0.908090
C59	C	1.605363	-0.832716	0.529120
C60	C	2.105363	-0.332716	1.029120
C61	C	1.579949	-0.882114	0.433697
C62	C	2.079949	-0.382114	0.933697
C63	C	1.509971	-0.700393	0.503487
C64	C	2.009971	-0.200393	1.003487
C65	C	1.510185	-1.014573	0.503519
C66	C	2.010185	-0.514573	1.003519
C67	C	1.782581	-0.357878	0.503494
C68	C	2.282581	0.142122	1.003494
C69	C	1.898734	-0.357884	0.503503
C70	C	2.398734	0.142116	1.003503
C71	C	1.510009	-0.357867	0.776044
C72	C	2.010009	0.142133	1.276044
C73	C	1.510008	-0.357869	0.892197
C74	C	2.010008	0.142131	1.392197
C75	C	1.510166	-0.164157	0.503514
C76	C	2.010166	0.335843	1.003514
C77	C	1.510232	-0.081611	0.503531
C78	C	2.010232	0.418389	1.003531
C79	C	1.573481	-0.403008	0.943977
C80	C	2.073481	0.096992	1.443977
C81	C	1.573482	-0.403010	1.064028
C82	C	2.073482	0.096990	1.564028
C83	C	1.510006	-0.357875	1.231964
C84	C	2.010006	0.142125	1.731964
C85	C	1.510007	-0.357873	1.115811
C86	C	2.010007	0.142127	1.615811
H87	H	1.077814	-0.319160	0.449201
H88	H	1.577814	0.180840	0.949201
Br89	Br	0.972959	-0.293371	0.413003
Br90	Br	1.472959	0.206629	0.913003
Br91	Br	0.876273	-0.467608	0.657378
Br92	Br	1.376273	0.032392	1.157378
Br93	Br	1.144770	-0.467574	0.657343
Br94	Br	1.644770	0.032426	1.157343
Br95	Br	1.341619	-0.796767	0.671448
Br96	Br	1.841619	-0.296767	1.171448
Br97	Br	1.664053	-0.467432	1.138239
Br98	Br	2.164053	0.032568	1.638239
H99	H	1.557063	-0.903819	0.679508
H100	H	2.057063	-0.403819	1.179508
Br101	Br	1.419415	-0.293463	1.041606
Br102	Br	1.919415	0.206537	1.541606
H103	H	1.334166	-0.904034	0.456248
H104	H	1.834166	-0.404034	0.956248
H105	H	1.627827	-0.441648	0.899431
H106	H	2.127827	0.058352	1.399431
H107	H	1.639049	-0.903616	0.374645
H108	H	2.139049	-0.403616	0.874645
Br109	Br	1.448491	-0.796867	0.273640
Br110	Br	1.948491	-0.296867	0.773640
Br111	Br	1.739633	-0.796419	0.565282
Br112	Br	2.239633	-0.296419	1.065282
H113	H	1.455670	-0.319223	0.936743
H114	H	1.955670	0.180777	1.436743
