data_functionalizedCrystal
_audit_creation_method	'MofGen! by Chris Wilmer'
_symmetry_space_group_name_H-M	'P1'
_symmetry_Int_Tables_number	1
_symmetry_cell_setting	triclinic
loop_
_symmetry_equiv_pos_as_xyz
  x,y,z
_cell_length_a	21.395362
_cell_length_b	18.101395
_cell_length_c	21.395356
_cell_angle_alpha	89.977170
_cell_angle_beta	89.964230
_cell_angle_gamma	90.046983
loop_
_atom_site_label
_atom_site_type_symbol
_atom_site_fract_x
_atom_site_fract_y
_atom_site_fract_z
Zn1	Zn	0.957807	-0.294550	-0.354598
Zn2	Zn	0.957724	-0.418388	-0.249825
Zn3	Zn	0.853037	-0.294599	-0.249799
Zn4	Zn	0.852991	-0.418388	-0.354530
O5	O	0.905390	-0.356481	-0.302188
O6	O	1.045474	-0.310956	-0.340739
O7	O	0.943822	-0.401988	-0.162144
O8	O	0.866989	-0.190960	-0.263718
O9	O	1.045413	-0.401940	-0.263763
O10	O	0.943964	-0.190923	-0.340713
O11	O	0.866909	-0.311041	-0.162125
O12	O	0.765353	-0.311041	-0.263652
O13	O	0.866910	-0.401940	-0.442217
O14	O	0.765319	-0.401988	-0.340598
O15	O	0.943919	-0.310956	-0.442267
O16	O	0.943777	-0.522021	-0.263697
O17	O	0.866829	-0.522021	-0.340623
C18	C	0.742602	-0.356521	-0.302115
C19	C	0.672961	-0.356555	-0.302099
C20	C	0.640246	-0.403974	-0.342105
C21	C	0.574811	-0.403956	-0.342132
C22	C	0.542093	-0.356527	-0.302144
C23	C	0.574815	-0.309099	-0.262135
C24	C	0.640249	-0.309113	-0.262113
C25	C	0.438376	-0.350569	-0.245738
C26	C	0.372943	-0.350560	-0.245760
C27	C	0.340272	-0.356478	-0.302213
C28	C	0.373042	-0.362421	-0.358647
C29	C	0.438476	-0.362436	-0.358624
C30	C	0.471140	-0.356506	-0.302164
C31	C	0.236605	-0.403880	-0.342252
C32	C	0.171168	-0.403857	-0.342281
C33	C	0.171173	-0.309003	-0.262278
C34	C	0.236609	-0.309023	-0.262255
C35	C	0.269321	-0.356465	-0.302241
C36	C	0.905306	-0.548892	-0.302170
C37	C	0.905327	-0.631206	-0.302183
C38	C	0.905465	-0.930297	-0.302216
C39	C	0.857164	-0.899003	-0.350736
C40	C	0.856935	-0.813385	-0.350585
C41	C	0.905397	-0.781914	-0.302200
C42	C	0.887523	-0.813066	-0.236161
C43	C	0.887212	-0.898711	-0.236451
C44	C	0.971745	-0.898620	-0.319154
C45	C	0.971355	-0.812970	-0.320602
C46	C	0.905359	-0.698055	-0.302187
C47	C	0.905501	-1.014156	-0.302225
C48	C	1.068813	-0.356443	-0.302261
C49	C	1.138454	-0.356426	-0.302293
C50	C	0.905418	-0.356442	-0.465611
C51	C	0.905431	-0.356426	-0.535253
C52	C	0.905491	-0.163319	-0.302220
C53	C	0.905534	-0.081005	-0.302234
C54	C	0.945550	-0.403627	-1.037060
C55	C	0.945538	-0.403650	-0.971624
C56	C	0.905490	-0.356308	-0.938891
C57	C	0.865439	-0.308953	-0.971599
C58	C	0.865447	-0.308936	-1.037033
C59	C	0.900565	-0.289615	-0.835232
C60	C	0.900562	-0.289630	-0.769799
C61	C	0.905462	-0.356361	-0.737070
C62	C	0.910379	-0.423078	-0.769783
C63	C	0.910387	-0.423061	-0.835217
C64	C	0.905477	-0.356322	-0.867939
C65	C	0.945495	-0.403743	-0.633418
C66	C	0.945480	-0.403767	-0.567981
C67	C	0.865384	-0.309063	-0.567957
C68	C	0.865396	-0.309045	-0.633393
C69	C	0.905455	-0.356384	-0.666119
C70	C	0.905397	-0.356467	-0.139400
C71	C	0.905506	-0.356275	-0.069760
H72	H	0.464971	-0.345746	-0.199764
H73	H	0.548171	-0.270480	-0.229577
F74	F	0.931195	-0.925773	-0.187583
F75	F	0.473350	-0.368757	-0.418684
F76	F	0.871632	-0.925862	-0.414948
F77	F	0.824865	-0.785137	-0.217074
H78	H	0.921597	-0.792681	-0.199023
H79	H	0.666885	-0.270496	-0.229536
F80	F	0.988179	-0.454015	-1.071886
H81	H	0.914390	-0.477384	-0.861849
H82	H	0.868116	-0.792321	-0.399551
H83	H	0.896561	-0.235305	-0.743169
F84	F	0.136351	-0.454325	-0.384866
H85	H	0.988040	-0.920167	-0.366491
F86	F	0.338276	-0.368717	-0.418734
H87	H	0.914371	-0.477416	-0.743137
F88	F	0.988128	-0.454124	-0.668250
H89	H	0.808335	-0.920604	-0.339656
H90	H	0.832791	-0.270483	-0.660017
H91	H	0.263240	-0.442507	-0.374814
F92	F	0.792720	-0.786706	-0.335920
H93	H	0.548170	-0.442570	-0.374712
F94	F	0.271427	-0.258554	-0.219673
H95	H	0.144535	-0.270382	-0.229722
F96	F	0.988099	-0.454172	-0.533180
F97	F	0.823885	-0.924930	-0.217701
H98	H	0.984833	-0.792607	-0.369204
F99	F	0.988159	-0.454052	-0.936815
F100	F	1.020883	-0.784957	-0.277784
H101	H	1.007730	-0.918855	-0.283816
H102	H	0.896616	-0.235267	-0.861874
H103	H	0.832839	-0.270375	-1.063657
F104	F	0.675057	-0.454464	-0.384663
F105	F	0.338073	-0.344235	-0.185698
F106	F	0.822749	-0.258694	-0.533125
F107	F	0.822819	-0.258567	-0.936761
