data_functionalizedCrystal
_audit_creation_method	'MofGen! by Chris Wilmer'
_symmetry_space_group_name_H-M	'P1'
_symmetry_Int_Tables_number	1
_symmetry_cell_setting	triclinic
loop_
_symmetry_equiv_pos_as_xyz
  x,y,z
_cell_length_a	17.640112
_cell_length_b	19.121063
_cell_length_c	17.640968
_cell_angle_alpha	81.648500
_cell_angle_beta	92.139080
_cell_angle_gamma	103.148881
loop_
_atom_site_label
_atom_site_type_symbol
_atom_site_fract_x
_atom_site_fract_y
_atom_site_fract_z
Zn1	Zn	1.247036	-0.020114	-0.196194
Zn2	Zn	1.747036	0.479886	0.303806
Zn3	Zn	1.215936	-0.164540	-0.077209
Zn4	Zn	1.715936	0.335460	0.422791
Zn5	Zn	1.092687	-0.065650	-0.097361
Zn6	Zn	1.592687	0.434350	0.402639
Zn7	Zn	1.115017	-0.155325	-0.229281
Zn8	Zn	1.615017	0.344675	0.270719
O9	O	1.167669	-0.101407	-0.150011
O10	O	1.667669	0.398593	0.349989
O11	O	1.349741	-0.024071	-0.158129
O12	O	1.849741	0.475929	0.341871
O13	O	1.177226	-0.174335	0.025122
O14	O	1.677226	0.325665	0.525122
O15	O	1.116833	0.038363	-0.105059
O16	O	1.616833	0.538363	0.394941
O17	O	1.326892	-0.130180	-0.070712
O18	O	1.826892	0.369820	0.429288
O19	O	1.230232	0.071818	-0.177670
O20	O	1.730232	0.571818	0.322330
O21	O	1.086676	-0.101681	0.010316
O22	O	1.586676	0.398319	0.510316
O23	O	0.988819	-0.092746	-0.137142
O24	O	1.488819	0.407254	0.362858
O25	O	1.154890	-0.114475	-0.329896
O26	O	1.654890	0.385525	0.170104
O27	O	1.005224	-0.158630	-0.234062
O28	O	1.505224	0.341370	0.265938
O29	O	1.251884	-0.015136	-0.305587
O30	O	1.751884	0.484864	0.194413
O31	O	1.198878	-0.261289	-0.102795
O32	O	1.698878	0.238711	0.397205
O33	O	1.124733	-0.254519	-0.214521
O34	O	1.624733	0.245481	0.285479
C35	C	0.969322	-0.129630	-0.191380
C36	C	1.469322	0.370370	0.308620
C37	C	0.884471	-0.141717	-0.209096
C38	C	1.384471	0.358283	0.290904
C39	C	0.562686	-0.009571	-0.015428
C40	C	1.062686	0.490429	0.484572
C41	C	0.482957	-0.020940	-0.032086
C42	C	0.982957	0.479060	0.467914
C43	C	0.500055	-0.089704	-0.132851
C44	C	1.000055	0.410296	0.367149
C45	C	0.579787	-0.078338	-0.116204
C46	C	1.079787	0.421662	0.383796
C47	C	0.611096	-0.038271	-0.057491
C48	C	1.111096	0.461729	0.442509
C49	C	0.628197	-0.107038	-0.158266
C50	C	1.128197	0.392962	0.341734
C51	C	0.707921	-0.095675	-0.141618
C52	C	1.207921	0.404325	0.358382
C53	C	0.739236	-0.055612	-0.082906
C54	C	1.239236	0.444388	0.417094
C55	C	0.690820	-0.026908	-0.040842
C56	C	1.190820	0.473092	0.459158
C57	C	0.596886	-0.147109	-0.216975
C58	C	1.096886	0.352891	0.283025
C59	C	0.645295	-0.175809	-0.259038
C60	C	1.145295	0.324191	0.240962
C61	C	0.725022	-0.164442	-0.242393
C62	C	1.225022	0.335558	0.257607
C63	C	0.756337	-0.124379	-0.183682
C64	C	1.256337	0.375621	0.316318
C65	C	0.773438	-0.193146	-0.284457
C66	C	1.273438	0.306854	0.215543
C67	C	0.853163	-0.181784	-0.267809
C68	C	1.353163	0.318216	0.232191
C69	C	0.836061	-0.113017	-0.167033
C70	C	1.336061	0.386983	0.332967
C71	C	1.160878	-0.283301	-0.160074
C72	C	1.660878	0.216699	0.339926
C73	C	1.158048	-0.361101	-0.164389
C74	C	1.658048	0.138899	0.335611
C75	C	1.195368	-0.401138	-0.108278
C76	C	1.695368	0.098862	0.391722
C77	C	1.192712	-0.474238	-0.112340
C78	C	1.692712	0.025762	0.387660
C79	C	1.152731	-0.507299	-0.172510
C80	C	1.652731	-0.007299	0.327490
C81	C	1.115410	-0.467255	-0.228626
C82	C	1.615410	0.032745	0.271374
C83	C	1.118071	-0.394156	-0.224567
C84	C	1.618071	0.105844	0.275433
C85	C	1.142766	-0.727835	-0.187679
C86	C	1.642766	-0.227835	0.312321
C87	C	1.140106	-0.800941	-0.191733
C88	C	1.640106	-0.300941	0.308267
C89	C	1.217410	-0.807918	-0.075447
C90	C	1.717410	-0.307918	0.424553
C91	C	1.220063	-0.734818	-0.071390
C92	C	1.720063	-0.234818	0.428610
C93	C	1.182746	-0.694779	-0.127508
C94	C	1.682746	-0.194779	0.372492
C95	C	1.150013	-0.582019	-0.176662
C96	C	1.650013	-0.082019	0.323338
C97	C	1.185469	-0.620060	-0.123359
C98	C	1.685469	-0.120060	0.376641
C99	C	1.366791	-0.073074	-0.108482
C100	C	1.866791	0.426926	0.391518
C101	C	1.451644	-0.061001	-0.090784
C102	C	1.951644	0.438999	0.409216
C103	C	1.209347	-0.058698	-0.345729
C104	C	1.709347	0.441302	0.154271
C105	C	1.227107	-0.040499	-0.429132
C106	C	1.727107	0.459501	0.070868
C107	C	1.174511	0.081204	-0.139922
C108	C	1.674511	0.581204	0.360078
C109	C	1.177426	0.159022	-0.135622
C110	C	1.677426	0.659022	0.364378
C111	C	1.033051	-0.239247	-0.766711
C112	C	1.533051	0.260753	-0.266711
C113	C	1.049756	-0.222134	-0.845077
C114	C	1.549756	0.277866	-0.345077
C115	C	1.150747	-0.118701	-0.819756
C116	C	1.650747	0.381299	-0.319756
C117	C	1.134048	-0.135803	-0.741387
C118	C	1.634048	0.364197	-0.241387
C119	C	1.075199	-0.196077	-0.714871
C120	C	1.575199	0.303923	-0.214871
C121	C	1.176197	-0.092633	-0.689546
C122	C	1.676197	0.407367	-0.189546
C123	C	1.159501	-0.109736	-0.611183
C124	C	1.659501	0.390264	-0.111183
C125	C	1.100657	-0.170009	-0.584660
C126	C	1.600657	0.329991	-0.084660
C127	C	1.058504	-0.213180	-0.636508
C128	C	1.558504	0.286820	-0.136508
C129	C	1.235048	-0.032362	-0.716063
C130	C	1.735048	0.467638	-0.216063
C131	C	1.277197	0.010807	-0.664223
C132	C	1.777197	0.510807	-0.164223
C133	C	1.260498	-0.006292	-0.585859
C134	C	1.760498	0.493708	-0.085859
C135	C	1.201654	-0.066565	-0.559336
C136	C	1.701654	0.433435	-0.059336
C137	C	1.302651	0.036879	-0.534012
C138	C	1.802651	0.536879	-0.034012
C139	C	1.285956	0.019776	-0.455648
C140	C	1.785956	0.519776	0.044352
C141	C	1.184959	-0.083668	-0.480973
C142	C	1.684959	0.416332	0.019027
C143	C	1.126199	-0.143893	0.044957
C144	C	1.626199	0.356107	0.544957
C145	C	1.108594	-0.161874	0.128402
C146	C	1.608594	0.338126	0.628402
H147	H	0.531968	-0.156359	-0.230528
H148	H	1.031968	0.343641	0.269472
Br149	Br	1.249623	-0.356279	-0.026608
Br150	Br	1.749623	0.143721	0.473392
Br151	Br	1.078002	-0.193228	-0.478309
Br152	Br	1.578002	0.306772	0.021691
Br153	Br	1.343162	0.078359	-0.385288
Br154	Br	1.843162	0.578359	0.114712
H155	H	0.443545	0.002440	0.002166
H156	H	0.943545	0.502440	0.502166
H157	H	0.861557	-0.080377	-0.119234
H158	H	1.361557	0.419623	0.380766
Br159	Br	1.067426	-0.339816	-0.300724
Br160	Br	1.567426	0.160184	0.199276
H161	H	1.015429	-0.257293	-0.887285
H162	H	1.515429	0.242707	-0.387285
H163	H	1.218025	-0.593138	-0.074370
H164	H	1.718025	-0.093138	0.425630
Br165	Br	1.095755	-0.626893	-0.258321
Br166	Br	1.595755	-0.126893	0.241679
H167	H	1.107560	-0.827852	-0.240742
H168	H	1.607560	-0.327852	0.259258
H169	H	1.223101	-0.506834	-0.066648
H170	H	1.723101	-0.006834	0.433352
Br171	Br	0.953175	-0.321042	-0.730719
Br172	Br	1.453175	0.178958	-0.230719
H173	H	0.804153	-0.046363	-0.069350
H174	H	1.304153	0.453637	0.430650
Br175	Br	0.918866	-0.220739	-0.324890
Br176	Br	1.418866	0.279261	0.175110
H177	H	0.747933	-0.225774	-0.332256
H178	H	1.247933	0.274226	0.167744
H179	H	1.252619	-0.707901	-0.022394
H180	H	1.752619	-0.207901	0.477606
Br181	Br	0.978629	-0.294975	-0.600515
Br182	Br	1.478629	0.205025	-0.100515
Br183	Br	1.061157	-0.512121	-0.310293
Br184	Br	1.561157	-0.012121	0.189707
H185	H	1.248641	-0.018440	-0.779872
H186	H	1.748641	0.481560	-0.279872
Br187	Br	1.230614	-0.036906	-0.855749
Br188	Br	1.730614	0.463094	-0.355749
Br189	Br	1.357064	0.092602	-0.700216
Br190	Br	1.857064	0.592602	-0.200216
H191	H	0.619792	-0.208434	-0.306840
H192	H	1.119792	0.291566	0.193160
Br193	Br	1.382524	0.118668	-0.570006
Br194	Br	1.882524	0.618668	-0.070006
H195	H	0.716316	0.005731	0.006957
H196	H	1.216316	0.505731	0.506957
Br197	Br	1.268057	-0.862257	0.000707
Br198	Br	1.768057	-0.362257	0.500707
H199	H	0.588182	0.023068	0.032371
H200	H	1.088182	0.523068	0.532371
H201	H	1.112379	-0.695242	-0.233372
H202	H	1.612379	-0.195242	0.266628
Br203	Br	0.457554	-0.144092	-0.212519
Br204	Br	0.957554	0.355908	0.287481
H205	H	1.137021	-0.132735	-0.459385
H206	H	1.637021	0.367265	0.040615
