data_functionalizedCrystal
_audit_creation_method	'MofGen! by Chris Wilmer'
_symmetry_space_group_name_H-M	'P1'
_symmetry_Int_Tables_number	1
_symmetry_cell_setting	triclinic
loop_
_symmetry_equiv_pos_as_xyz
  x,y,z
_cell_length_a	23.096457
_cell_length_b	15.698487
_cell_length_c	15.698487
_cell_angle_alpha	89.997494
_cell_angle_beta	119.998483
_cell_angle_gamma	60.000577
loop_
_atom_site_label
_atom_site_type_symbol
_atom_site_fract_x
_atom_site_fract_y
_atom_site_fract_z
Zr1	Zr	0.633718	0.820650	0.111720
O2	O	0.754508	0.684633	0.247735
O3	O	0.512930	0.862344	0.070029
O4	O	0.633719	0.862343	0.247736
O5	O	0.633717	0.684638	-0.070157
O6	O	0.633717	1.002527	0.247731
O7	O	0.633719	0.684634	0.070028
O8	O	0.417648	1.002529	-0.070155
O9	O	0.849786	0.684636	0.247729
O10	O	0.562609	0.984748	0.052238
O11	O	0.562609	0.880133	-0.052376
O12	O	0.704822	0.880131	0.156851
O13	O	0.704822	0.775517	0.052237
Zr14	Zr	0.633710	1.044235	-0.111867
Zr15	Zr	0.633714	1.044228	0.111712
Zr16	Zr	0.633714	0.820657	-0.111858
Zr17	Zr	0.785675	0.820656	0.111710
Zr18	Zr	0.481753	1.044230	-0.111857
O19	O	0.754497	1.002542	-0.070176
O20	O	0.754503	1.002532	0.247724
O21	O	0.754503	0.684642	-0.070164
O22	O	0.512920	1.180253	-0.247882
O23	O	0.512925	1.180243	0.070017
O24	O	0.512925	0.862354	-0.247870
O25	O	0.633711	1.180248	0.070010
O26	O	0.633709	1.002543	-0.247883
O27	O	0.633711	0.862358	-0.247878
O28	O	0.633709	1.180252	-0.070175
O29	O	0.849783	0.862351	0.247723
O30	O	0.417645	1.002535	-0.247870
O31	O	0.417642	1.180249	-0.247876
O32	O	0.417645	1.180244	-0.070161
O33	O	0.849783	0.684642	0.070014
O34	O	0.849780	0.862356	0.070008
O35	O	0.562606	0.984754	-0.156998
O36	O	0.562606	1.089369	-0.052384
O37	O	0.704819	0.984753	0.052229
O38	O	0.704819	0.880138	-0.052385
C39	C	0.443638	0.932436	-0.000062
C40	C	0.379129	0.932433	-0.000058
C41	C	0.633719	0.652781	-0.000063
C42	C	0.633720	0.557866	-0.000060
C43	C	0.633719	0.932434	0.279589
C44	C	0.633720	0.932431	0.374503
C45	C	0.348828	0.987034	0.054554
C46	C	0.288205	0.987044	0.054545
C47	C	0.257898	0.932433	-0.000061
C48	C	0.288203	0.877830	-0.054684
C49	C	0.348818	0.877830	-0.054682
N50	N	0.195504	0.843561	0.007515
N51	N	0.137923	0.843563	0.007519
C52	C	0.075266	0.932432	-0.000070
N53	N	0.072372	1.021298	-0.007644
N54	N	0.129961	1.021294	-0.007643
C55	C	0.192170	0.932428	-0.000069
C56	C	-0.020769	0.987049	0.054535
C57	C	-0.081397	0.987062	0.054519
C58	C	-0.081392	0.877838	-0.054704
C59	C	-0.020772	0.877835	-0.054695
C60	C	0.009538	0.932438	-0.000070
C61	C	0.823789	0.932450	-0.000085
C62	C	0.888299	0.932452	-0.000089
C63	C	0.633722	0.480784	-0.000062
C64	C	0.633718	0.384087	-0.000073
C65	C	0.633709	1.212105	-0.000084
C66	C	0.633708	1.307020	-0.000087
C67	C	0.633706	0.932455	0.548268
C68	C	0.633710	0.932444	0.451570
C69	C	0.633709	0.932452	0.720265
C70	C	0.633708	0.932456	0.625350
C71	C	0.443634	1.212098	-0.000072
C72	C	0.379122	1.307010	-0.000071
C73	C	0.443634	0.932444	-0.279724
C74	C	0.379122	0.932445	-0.374634
C75	C	0.443629	1.212106	-0.279734
C76	C	0.379116	1.307022	-0.374648
C77	C	0.823799	0.652779	0.279587
C78	C	0.888312	0.557864	0.374501
C79	C	0.823794	0.652788	-0.000075
C80	C	0.888305	0.557875	-0.000076
C81	C	0.823794	0.932441	0.279577
C82	C	0.888305	0.932441	0.374488
C83	C	0.348829	1.296971	0.054550
C84	C	0.288222	1.386142	0.054571
C85	C	0.257906	1.485352	-0.000035
C86	C	0.288205	1.495390	-0.054658
C87	C	0.348815	1.406219	-0.054673
C88	C	0.348825	0.987056	-0.473826
C89	C	0.288219	0.987053	-0.563014
C90	C	0.257906	0.932444	-0.553007
C91	C	0.288209	0.877825	-0.453804
C92	C	0.348819	0.877823	-0.364619
C93	C	0.348820	1.406212	-0.364613
C94	C	0.288212	1.495404	-0.453787
C95	C	0.257897	1.485403	-0.552994
C96	C	0.288199	1.386202	-0.563027
C97	C	0.348810	1.297012	-0.473854
C98	C	0.918615	0.458673	0.364466
C99	C	0.979242	0.369482	0.453640
C100	C	1.009561	0.379483	0.552847
C101	C	0.979255	0.478684	0.562880
C102	C	0.918633	0.567873	0.473708
C103	C	0.918605	0.567915	-0.054687
C104	C	0.979229	0.478743	-0.054684
C105	C	1.009548	0.379533	-0.000075
C106	C	0.979245	0.369496	0.054544
C107	C	0.918627	0.458666	0.054546
C108	C	0.918599	0.987061	0.364447
C109	C	0.979206	0.987081	0.453617
C110	C	1.009523	0.932474	0.552827
C111	C	0.979223	0.877852	0.562865
C112	C	0.918613	0.877839	0.473696
H113	H	0.373502	1.031498	0.099029
H114	H	0.208552	1.557952	-0.000016
C115	C	0.254884	1.604515	-0.442727
N116	N	0.229780	1.686695	-0.434394
C117	C	0.254842	1.604531	-0.114730
N118	N	0.229706	1.686739	-0.159982
C119	C	0.885308	0.817732	0.484759
N120	N	0.860227	0.772454	0.493098
H121	H	0.263522	0.833367	-0.099145
H122	H	1.003917	0.833392	0.643654
H123	H	0.893924	0.648689	-0.099164
H124	H	0.208553	0.932454	-0.625635
C125	C	0.382123	1.417280	-0.114776
N126	N	0.407207	1.425619	-0.160050
H127	H	0.893933	0.450510	0.283695
H128	H	-0.106068	0.833373	-0.099165
H129	H	1.003891	0.486936	-0.099165
C130	C	0.382145	0.817770	-0.114770
N131	N	0.407246	0.772534	-0.160031
C132	C	0.254851	0.817764	-0.442814
N133	N	0.229720	0.772533	-0.434539
H134	H	0.003908	1.031514	0.099010
C135	C	0.885294	0.447605	0.114614
N136	N	0.860190	0.439266	0.159858
C137	C	0.254889	1.047152	-0.672126
N138	N	0.229784	1.092421	-0.754308
H139	H	0.003902	0.833369	-0.099161
C140	C	-0.114718	1.047117	0.114612
N141	N	-0.139812	1.092345	0.159883
H142	H	0.373512	1.216197	0.099030
H143	H	1.058907	0.306933	-0.000085
H144	H	1.058923	0.306851	0.625449
C145	C	0.254897	1.375078	0.114652
N146	N	0.229796	1.366741	0.159902
C147	C	0.382163	1.047129	-0.484860
N148	N	0.407273	1.092373	-0.493179
H149	H	0.263529	1.031509	0.099018
H150	H	0.373478	0.833355	-0.283856
C151	C	0.191216	1.583524	-0.651077
N152	N	0.140989	1.657434	-0.724949
C153	C	0.254836	1.375218	-0.672165
N154	N	0.229701	1.366948	-0.754371
H155	H	1.003940	0.288707	0.099006
C156	C	1.012566	0.260371	0.442580
N157	N	1.037664	0.178191	0.434247
H158	H	0.893925	1.031528	0.283674
C159	C	1.012529	1.047165	0.442552
N160	N	1.037626	1.092420	0.434214
H161	H	1.003948	0.486815	0.643665
C162	C	1.076198	0.932496	0.650906
N163	N	1.126419	0.932515	0.724776
H164	H	0.373469	1.216250	-0.482040
H165	H	0.373494	1.414375	-0.283842
H166	H	0.893960	0.648636	0.481891
