data_functionalizedCrystal
_audit_creation_method	'MofGen! by Chris Wilmer'
_symmetry_space_group_name_H-M	'P1'
_symmetry_Int_Tables_number	1
_symmetry_cell_setting	triclinic
loop_
_symmetry_equiv_pos_as_xyz
  x,y,z
_cell_length_a	11.169417
_cell_length_b	12.645330
_cell_length_c	11.169409
_cell_angle_alpha	89.967722
_cell_angle_beta	89.980487
_cell_angle_gamma	90.018941
loop_
_atom_site_label
_atom_site_type_symbol
_atom_site_fract_x
_atom_site_fract_y
_atom_site_fract_z
Zn1	Zn	1.834901	-0.421918	-0.678533
Zn2	Zn	1.834765	-0.599229	-0.477850
Zn3	Zn	1.634187	-0.421984	-0.477869
Zn4	Zn	1.634169	-0.599144	-0.678496
O5	O	1.734505	-0.510569	-0.578187
O6	O	2.002833	-0.445447	-0.651920
O7	O	1.808108	-0.575780	-0.309903
O8	O	1.660877	-0.273628	-0.504510
O9	O	2.002732	-0.575717	-0.504479
O10	O	1.808341	-0.273580	-0.651938
O11	O	1.660745	-0.445559	-0.309916
O12	O	1.466235	-0.445476	-0.504475
O13	O	1.660846	-0.575571	-0.846451
O14	O	1.466221	-0.575635	-0.651875
O15	O	1.808323	-0.445364	-0.846478
O16	O	1.808090	-0.747565	-0.504443
O17	O	1.660713	-0.747502	-0.651857
C18	C	1.422681	-0.510554	-0.578173
C19	C	1.289281	-0.510574	-0.578196
C20	C	1.734418	-0.785999	-0.578170
C21	C	1.734490	-0.903829	-0.578203
C22	C	1.642158	-1.071397	-0.671227
C23	C	1.641685	-0.948838	-0.670928
C24	C	1.700247	-0.948438	-0.451721
C25	C	1.699683	-1.071036	-0.452285
C26	C	1.861631	-1.070912	-0.610636
C27	C	1.860852	-0.948305	-0.613402
C28	C	2.047548	-0.510584	-0.578202
C29	C	2.180948	-0.510590	-0.578208
C30	C	1.734597	-0.510451	-0.891230
C31	C	1.734637	-0.510401	-1.024630
C32	C	1.734626	-0.234063	-0.578230
C33	C	1.734677	-0.116233	-0.578249
C34	C	1.734483	-0.510610	-0.266362
C35	C	1.734676	-0.510361	-0.132963
H36	H	1.663110	-0.918673	-0.764714
H37	H	1.606879	-1.099732	-0.424848
H38	H	1.608410	-0.917832	-0.423787
H39	H	1.764146	-1.100700	-0.380647
H40	H	1.765497	-0.919286	-0.380552
H41	H	1.892868	-1.101745	-0.701299
H42	H	1.886676	-0.919143	-0.706486
H43	H	1.663386	-1.100798	-0.765321
H44	H	1.930560	-1.099906	-0.542916
H45	H	1.548628	-1.102302	-0.650045
H46	H	1.547568	-0.919607	-0.649472
H47	H	1.933414	-0.917660	-0.550612
