data_functionalizedCrystal
_audit_creation_method	'MofGen! by Chris Wilmer'
_symmetry_space_group_name_H-M	'P1'
_symmetry_Int_Tables_number	1
_symmetry_cell_setting	triclinic
loop_
_symmetry_equiv_pos_as_xyz
  x,y,z
_cell_length_a	15.995350
_cell_length_b	15.995292
_cell_length_c	13.101039
_cell_angle_alpha	93.364742
_cell_angle_beta	86.645958
_cell_angle_gamma	83.480495
loop_
_atom_site_label
_atom_site_type_symbol
_atom_site_fract_x
_atom_site_fract_y
_atom_site_fract_z
O1	O	1.115565	0.103313	-0.085120
O2	O	0.871788	0.116640	-0.085141
O3	O	1.000366	-0.011914	-0.085131
O4	O	0.986987	0.231868	-0.085129
O5	O	0.991140	-0.002676	0.085298
O6	O	0.862563	0.125879	0.085289
O7	O	1.106340	0.112552	0.085309
Zn8	Zn	0.982987	0.120682	0.112358
Zn9	Zn	0.995141	0.108510	-0.112190
O10	O	0.977762	0.241107	0.085300
C11	C	0.835981	0.120708	0.000071
C12	C	0.743031	0.119056	0.000063
C13	C	0.405284	0.113125	0.000085
C14	C	0.452717	0.021591	0.000464
C15	C	0.549428	0.023222	0.000073
C16	C	0.572844	0.116067	0.000075
C17	C	0.537016	0.155949	-0.097244
C18	C	0.440384	0.153645	-0.097319
C19	C	0.429554	0.166043	0.096491
C20	C	0.526430	0.166091	0.097770
C21	C	0.667542	0.117734	0.000066
C22	C	0.310586	0.111460	0.000087
C23	C	0.995209	-0.038491	0.000081
C24	C	0.993577	-0.131444	0.000073
C25	C	0.987575	-0.469182	0.000082
C26	C	1.080358	-0.445849	0.000470
C27	C	1.082143	-0.349194	0.000082
C28	C	0.990553	-0.301626	0.000078
C29	C	0.949424	-0.336003	-0.097246
C30	C	0.948311	-0.432798	-0.097324
C31	C	0.935925	-0.422149	0.096486
C32	C	0.939294	-0.325587	0.097768
C33	C	0.992231	-0.206931	0.000072
C34	C	0.985894	-0.563878	0.000080
C35	C	1.142147	0.108484	0.000095
C36	C	1.235097	0.110136	0.000096
C37	C	0.982919	0.267683	0.000086
C38	C	0.984551	0.360636	0.000087
N39	N	0.974697	0.128989	0.265606
N40	N	1.003437	0.100196	-0.265438
C41	C	0.963420	0.140299	0.474648
C42	C	1.014712	0.088889	0.525527
C43	C	1.008437	0.095182	0.641845
C44	C	0.969694	0.134007	0.358319
H45	H	0.408361	0.220623	-0.101734
O46	O	0.905376	0.198337	0.527004
C47	C	0.850340	0.156867	0.589053
H48	H	0.882746	0.092164	0.604985
H49	H	0.790625	0.149064	0.547792
C50	C	0.787311	0.288983	0.671477
C51	C	0.827115	0.209516	0.691053
H52	H	0.772981	0.321460	0.734394
H53	H	0.824388	0.316923	0.629672
H54	H	0.737553	0.282469	0.637090
H55	H	0.876877	0.216031	0.725427
H56	H	0.790047	0.181579	0.732867
O57	O	0.965713	-0.451158	0.184521
C58	C	0.901010	-0.484797	0.240794
H59	H	0.852013	-0.503713	0.186808
H60	H	0.869788	-0.435281	0.301537
C61	C	0.998872	-0.539648	0.359442
C62	C	0.938697	-0.562887	0.293134
H63	H	1.022118	-0.587815	0.391732
H64	H	1.042464	-0.516982	0.321532
H65	H	0.972845	-0.498384	0.410052
H66	H	0.964727	-0.604143	0.242518
H67	H	0.895110	-0.585562	0.331037
O68	O	1.072636	0.030564	0.473436
C69	C	1.057430	-0.050839	0.499728
H70	H	0.988784	-0.049506	0.529236
H71	H	1.100435	-0.072113	0.562003
C72	C	1.159766	-0.114458	0.368223
C73	C	1.075453	-0.112823	0.404457
H74	H	1.170887	-0.152695	0.309458
H75	H	1.170014	-0.059616	0.350512
H76	H	1.195594	-0.132184	0.420128
H77	H	1.039627	-0.095087	0.352558
H78	H	1.065199	-0.167664	0.422158
O79	O	0.578990	-0.014565	0.083259
C80	C	0.666978	-0.013126	0.082920
H81	H	0.685909	0.040186	0.035739
H82	H	0.700452	-0.075861	0.047860
C83	C	0.669046	-0.064306	0.251593
C84	C	0.692297	0.001178	0.193651
H85	H	0.684666	-0.055487	0.319896
H86	H	0.609768	-0.065279	0.251820
H87	H	0.696944	-0.116579	0.222364
H88	H	0.664392	0.053447	0.222872
H89	H	0.751572	0.002160	0.193431
O90	O	0.425999	-0.017449	0.083753
C91	C	0.364033	0.037446	0.142982
H92	H	0.333636	0.086471	0.092556
H93	H	0.394564	0.070530	0.208052
C94	C	0.333499	-0.073719	0.249831
C95	C	0.296160	-0.013510	0.187896
H96	H	0.291633	-0.105150	0.277541
H97	H	0.375249	-0.110703	0.209931
H98	H	0.358940	-0.046140	0.304048
H99	H	0.270729	-0.041091	0.133673
H100	H	0.254404	0.023468	0.227789
O101	O	0.391696	0.246659	0.097420
C102	C	0.413878	0.293529	0.184195
H103	H	0.475626	0.262410	0.211304
H104	H	0.362001	0.295600	0.248095
C105	C	0.348936	0.422190	0.122749
C106	C	0.424779	0.383972	0.156039
H107	H	0.355656	0.477980	0.105384
H108	H	0.333988	0.390612	0.064288
H109	H	0.305712	0.423907	0.176005
H110	H	0.467998	0.382246	0.102780
H111	H	0.439734	0.415552	0.214490
H112	H	0.581076	-0.016303	-0.069812
O113	O	0.433769	-0.026237	-0.082405
C114	C	0.377784	0.022652	-0.140705
H115	H	0.384086	0.092346	-0.124159
H116	H	0.310327	0.010407	-0.119397
C117	C	0.391502	-0.087146	-0.275845
C118	C	0.399247	-0.001547	-0.255529
H119	H	0.404737	-0.102074	-0.346674
H120	H	0.429217	-0.120085	-0.236566
H121	H	0.335287	-0.097339	-0.258081
H122	H	0.455463	0.008644	-0.273281
H123	H	0.361541	0.031394	-0.294814
H124	H	0.426021	0.116770	-0.170068
O125	O	0.575685	0.113852	-0.183579
C126	C	0.663136	0.119089	-0.184919
H127	H	0.681888	0.131962	-0.103367
H128	H	0.679379	0.172518	-0.233604
C129	C	0.688362	0.019435	-0.330944
C130	C	0.711394	0.035239	-0.230779
H131	H	0.718130	-0.032286	-0.359237
H132	H	0.629444	0.015908	-0.330044
H133	H	0.701898	0.063965	-0.371502
H134	H	0.697848	-0.009286	-0.190221
H135	H	0.770311	0.038756	-0.231674
H136	H	0.551322	0.223964	-0.100862
H137	H	0.405032	0.140110	0.170257
O138	O	0.554244	0.131498	0.183769
C139	C	0.512171	0.176921	0.270986
H140	H	0.449874	0.210952	0.249146
H141	H	0.553259	0.225071	0.302006
C142	C	0.571377	0.073731	0.380680
C143	C	0.494859	0.115522	0.353857
H144	H	0.560701	0.035859	0.431802
H145	H	0.599725	0.043130	0.321921
H146	H	0.605609	0.113864	0.406524
H147	H	0.460633	0.075391	0.328002
H148	H	0.466505	0.146116	0.412614
H149	H	1.114704	-0.326387	0.069847
O150	O	0.544412	0.247231	0.104608
C151	C	0.599654	0.260597	0.020837
H152	H	0.593539	0.212183	-0.044892
H153	H	0.667293	0.253625	0.044971
C154	C	0.584402	0.409476	0.066251
C155	C	0.576885	0.350018	-0.014483
H156	H	0.570360	0.464636	0.044466
H157	H	0.547186	0.400471	0.122691
H158	H	0.640769	0.403655	0.086355
H159	H	0.520517	0.355832	-0.034576
H160	H	0.614090	0.359026	-0.070927
O161	O	1.118544	-0.474883	0.083653
C162	C	1.120648	-0.563330	0.081586
H163	H	1.115845	-0.589418	-0.000455
H164	H	1.065406	-0.580367	0.132055
C165	C	1.209960	-0.569649	0.222742
C166	C	1.204067	-0.601691	0.121977
H167	H	1.261414	-0.593312	0.247661
H168	H	1.208540	-0.510060	0.224138
H169	H	1.163920	-0.583849	0.264787
H170	H	1.250100	-0.587481	0.079932
H171	H	1.205496	-0.661278	0.120575
O172	O	1.127153	-0.484981	-0.082399
C173	C	1.076414	-0.533404	-0.140706
H174	H	1.007294	-0.507370	-0.124162
H175	H	1.086264	-0.601750	-0.119404
C176	C	1.185951	-0.561114	-0.275842
C177	C	1.101056	-0.529135	-0.255528
H178	H	1.201152	-0.558485	-0.346669
H179	H	1.220136	-0.528493	-0.236558
H180	H	1.194148	-0.618067	-0.258083
H181	H	1.092862	-0.472180	-0.273275
H182	H	1.066870	-0.561746	-0.294818
O183	O	1.130362	-0.331712	-0.083180
C184	C	1.198292	-0.290131	-0.050795
H185	H	1.211069	-0.305565	0.031115
H186	H	1.181804	-0.219128	-0.053891
C187	C	1.261815	-0.300819	-0.222487
C188	C	1.277513	-0.319781	-0.121887
H189	H	1.310682	-0.319105	-0.266341
H190	H	1.216048	-0.328830	-0.244307
H191	H	1.248074	-0.241650	-0.225052
H192	H	1.291244	-0.378950	-0.119320
H193	H	1.323285	-0.291781	-0.100068
H194	H	0.880505	-0.447587	-0.101737
O195	O	0.991213	-0.469529	-0.184177
C196	C	0.936970	-0.514237	-0.241785
H197	H	0.868748	-0.487271	-0.220187
H198	H	0.946320	-0.583651	-0.224818
C199	C	1.041038	-0.538853	-0.383336
C200	C	0.957247	-0.505728	-0.356815
H201	H	1.053547	-0.533608	-0.454291
H202	H	1.077584	-0.508735	-0.344523
H203	H	1.048819	-0.596695	-0.369188
H204	H	0.949470	-0.447884	-0.370950
H205	H	0.920700	-0.535835	-0.395632
O206	O	0.869310	-0.298086	-0.101628
C207	C	0.870438	-0.210348	-0.105927
H208	H	0.935339	-0.197086	-0.137049
H209	H	0.856199	-0.178385	-0.025728
C210	C	0.723522	-0.191888	-0.138693
C211	C	0.803233	-0.175600	-0.176926
H212	H	0.682065	-0.170452	-0.182484
H213	H	0.722760	-0.250998	-0.135793
H214	H	0.711668	-0.165251	-0.071861
H215	H	0.815091	-0.202245	-0.243750
H216	H	0.803995	-0.116493	-0.179839
O217	O	0.992654	-0.316728	-0.183550
C218	C	1.060053	-0.272150	-0.156290
H219	H	1.077418	-0.286898	-0.075582
H220	H	1.040346	-0.201559	-0.158661
C221	C	1.115509	-0.280779	-0.331457
C222	C	1.136842	-0.298898	-0.232333
H223	H	1.162876	-0.297274	-0.378366
H224	H	1.070099	-0.310809	-0.349825
H225	H	1.099086	-0.221953	-0.333419
H226	H	1.153255	-0.357724	-0.230370
H227	H	1.182257	-0.268878	-0.213967
H228	H	0.969182	-0.303118	0.169768
O229	O	0.859194	-0.285788	0.104927
C230	C	0.845408	-0.234751	0.197180
H231	H	0.908452	-0.218655	0.224300
H232	H	0.812788	-0.270184	0.257992
C233	C	0.711819	-0.172648	0.145861
C234	C	0.789251	-0.152873	0.179166
H235	H	0.677176	-0.122144	0.134752
H236	H	0.721105	-0.207035	0.083710
H237	H	0.684647	-0.202177	0.196543
H238	H	0.816427	-0.123355	0.128479
H239	H	0.779969	-0.118480	0.241309
O240	O	0.854349	-0.438682	0.097406
C241	C	0.808627	-0.396211	0.184179
H242	H	0.841826	-0.340335	0.211293
H243	H	0.804849	-0.441311	0.248077
C244	C	0.678166	-0.433005	0.122720
C245	C	0.718938	-0.364372	0.156017
H246	H	0.622840	-0.413368	0.105351
H247	H	0.708969	-0.461621	0.064262
H248	H	0.675026	-0.470582	0.175975
H249	H	0.722087	-0.326803	0.102759
H250	H	0.688133	-0.335749	0.214466
