data_functionalizedCrystal
_audit_creation_method	'MofGen! by Chris Wilmer'
_symmetry_space_group_name_H-M	'P1'
_symmetry_Int_Tables_number	1
_symmetry_cell_setting	triclinic
loop_
_symmetry_equiv_pos_as_xyz
  x,y,z
_cell_length_a	17.019383
_cell_length_b	17.000371
_cell_length_c	10.868271
_cell_angle_alpha	89.994403
_cell_angle_beta	86.119708
_cell_angle_gamma	79.508757
loop_
_atom_site_label
_atom_site_type_symbol
_atom_site_fract_x
_atom_site_fract_y
_atom_site_fract_z
O1	O	1.039628	0.101470	-0.212372
O2	O	0.809069	0.114389	-0.187969
O3	O	0.938664	-0.007952	-0.201677
O4	O	0.910033	0.223812	-0.198664
O5	O	0.938655	-0.007957	0.002969
O6	O	0.809060	0.114384	0.016677
O7	O	1.039618	0.101466	-0.007726
Zn8	Zn	0.924337	0.107924	0.036967
Zn9	Zn	0.924350	0.107930	-0.232662
O10	O	0.910023	0.223807	0.005982
C11	C	0.779710	0.113895	-0.082539
C12	C	0.692243	0.112419	-0.073281
C13	C	0.940197	-0.037610	-0.099517
C14	C	0.944770	-0.125973	-0.100003
C15	C	0.651149	0.111730	-0.180475
C16	C	0.568962	0.110357	-0.171758
C17	C	0.527872	0.109666	-0.055846
C18	C	0.568972	0.110357	0.051356
C19	C	0.651156	0.111737	0.042638
C20	C	0.279728	0.105506	-0.023941
C21	C	0.197538	0.104124	-0.015231
C22	C	0.197534	0.104125	-0.238346
C23	C	0.279721	0.105500	-0.247054
C24	C	0.320812	0.106195	-0.139852
C25	C	0.443864	0.108259	-0.046933
C26	C	0.404817	0.107608	-0.148766
C27	C	0.874398	-0.157923	-0.092560
C28	C	0.878699	-0.240950	-0.093011
C29	C	0.953374	-0.292027	-0.100915
C30	C	1.023752	-0.260073	-0.108355
C31	C	1.019449	-0.177047	-0.107894
C32	C	0.969992	-0.543191	-0.102683
C33	C	0.974289	-0.626222	-0.103147
C34	C	0.829236	-0.607094	-0.087800
C35	C	0.824941	-0.524067	-0.087348
C36	C	0.895318	-0.492120	-0.094781
C37	C	0.957773	-0.376895	-0.101381
C38	C	0.890919	-0.407254	-0.094306
C39	C	1.068977	0.101960	-0.113159
C40	C	1.156444	0.103436	-0.122425
C41	C	0.908490	0.253465	-0.096181
C42	C	0.903917	0.341828	-0.095704
N43	N	0.924334	0.107919	0.220981
N44	N	0.924359	0.107929	-0.416678
C45	C	0.924346	0.107929	0.471986
C46	C	0.924337	0.107926	0.332310
H47	H	0.535507	0.109796	-0.259046
H48	H	1.084553	-0.301666	-0.114783
H49	H	0.684613	0.112301	0.129927
H50	H	0.313172	0.106057	-0.341442
N51	N	1.050577	-0.678389	-0.111199
N52	N	1.098648	-0.675530	-0.030014
H53	H	1.152524	-0.712373	-0.035700
N54	N	1.091341	-0.144422	-0.115485
N55	N	1.158011	-0.190032	-0.122536
H56	H	1.208787	-0.166993	-0.127890
H57	H	1.027299	-0.517190	-0.108739
H58	H	0.164068	0.103561	-0.325624
H59	H	0.535509	0.109800	0.145734
H60	H	0.164081	0.103584	0.079163
N61	N	0.748668	-0.471885	-0.079259
N62	N	0.744838	-0.397757	-0.078849
H63	H	0.690970	-0.360901	-0.073140
H64	H	0.313176	0.106067	0.063350
N65	N	0.757343	-0.639713	-0.080202
N66	N	0.708302	-0.624027	-0.161269
H67	H	0.657522	-0.647062	-0.155897
N68	N	0.446800	0.108303	-0.267155
N69	N	0.503817	0.052988	-0.298065
H70	H	0.533476	0.053475	-0.381677
H71	H	1.018573	-0.418491	-0.107819
N72	N	0.693107	0.112426	-0.298888
N73	N	0.656402	0.111811	-0.394586
H74	H	0.686032	0.112303	-0.478220
N75	N	0.401888	0.107560	0.071465
N76	N	0.344873	0.162873	0.102394
H77	H	0.315223	0.162381	0.186013
H78	H	0.830119	-0.365664	-0.087863
N79	N	0.798119	-0.105751	-0.084515
N80	N	0.750046	-0.108616	-0.165696
H81	H	0.696172	-0.071771	-0.160016
H82	H	0.821395	-0.266959	-0.086960
