data_functionalizedCrystal
_audit_creation_method	'MofGen! by Chris Wilmer'
_symmetry_space_group_name_H-M	'P1'
_symmetry_Int_Tables_number	1
_symmetry_cell_setting	triclinic
loop_
_symmetry_equiv_pos_as_xyz
  x,y,z
_cell_length_a	17.077404
_cell_length_b	18.101395
_cell_length_c	17.077396
_cell_angle_alpha	90.027467
_cell_angle_beta	90.019501
_cell_angle_gamma	90.031329
loop_
_atom_site_label
_atom_site_type_symbol
_atom_site_fract_x
_atom_site_fract_y
_atom_site_fract_z
Zn1	Zn	1.200010	-0.294825	0.443848
Zn2	Zn	1.199898	-0.418674	0.312585
Zn3	Zn	1.068742	-0.294851	0.312596
Zn4	Zn	1.068691	-0.418630	0.443808
O5	O	1.134335	-0.356745	0.378209
O6	O	1.309842	-0.311261	0.426448
O7	O	1.182474	-0.402278	0.202739
O8	O	1.086223	-0.191215	0.330029
O9	O	1.309760	-0.402253	0.330009
O10	O	1.182665	-0.191196	0.426459
O11	O	1.086114	-0.311306	0.202748
O12	O	0.958888	-0.311263	0.329990
O13	O	1.086136	-0.402178	0.553660
O14	O	0.958851	-0.402203	0.426391
O15	O	1.182616	-0.311219	0.553690
O16	O	1.182425	-0.522301	0.329970
O17	O	1.086028	-0.522269	0.426379
C18	C	0.930387	-0.356732	0.378188
C19	C	0.843137	-0.356744	0.378197
C20	C	0.802148	-0.404167	0.428312
C21	C	0.720168	-0.404169	0.428325
C22	C	0.679178	-0.356750	0.378218
C23	C	0.720173	-0.309321	0.328100
C24	C	0.802152	-0.309316	0.328092
C25	C	0.549303	-0.309336	0.328119
C26	C	0.467318	-0.309341	0.328126
C27	C	0.467319	-0.404188	0.428352
C28	C	0.549298	-0.404184	0.428344
C29	C	0.590287	-0.356755	0.378225
C30	C	1.134230	-0.549156	0.378186
C31	C	1.134257	-0.631470	0.378203
C32	C	1.134429	-0.930561	0.378245
C33	C	1.073919	-0.899246	0.439054
C34	C	1.073632	-0.813628	0.438863
C35	C	1.134344	-0.782178	0.378225
C36	C	1.111947	-0.813330	0.295495
C37	C	1.111557	-0.898975	0.295859
C38	C	1.217469	-0.898904	0.399437
C39	C	1.216980	-0.813253	0.401252
C40	C	1.134297	-0.698319	0.378208
C41	C	1.134474	-1.014420	0.378256
C42	C	1.339079	-0.356759	0.378231
C43	C	1.426329	-0.356765	0.378241
C44	C	1.134383	-0.356690	0.582954
C45	C	1.134403	-0.356667	0.670203
C46	C	1.134462	-0.163583	0.378250
C47	C	1.134516	-0.081269	0.378267
C48	C	1.134333	-0.356746	0.174261
C49	C	1.134465	-0.356561	0.087012
C50	C	1.184642	-0.309301	0.711210
C51	C	1.184651	-0.309276	0.793191
C52	C	1.134425	-0.356622	0.834163
C53	C	1.084181	-0.403990	0.793150
C54	C	1.084168	-0.404011	0.711171
C55	C	1.084212	-0.403946	0.964021
C56	C	1.084226	-0.403927	1.046005
C57	C	1.184695	-0.309211	1.046040
C58	C	1.184683	-0.309232	0.964061
C59	C	1.134439	-0.356601	0.923054
H60	H	0.686798	-0.442787	0.469133
H61	H	0.582670	-0.442800	0.469141
C62	C	0.991269	-0.928398	0.420323
N63	N	0.929017	-0.950354	0.406209
H64	H	0.433942	-0.442804	0.469163
H65	H	1.043287	-0.442508	0.930635
C66	C	0.847230	-0.456333	0.483435
N67	N	0.881183	-0.495624	0.524958
H68	H	0.582674	-0.270708	0.287314
H69	H	1.154633	-0.792959	0.248952
C70	C	1.030806	-0.784448	0.270810
N71	N	0.969688	-0.762697	0.252222
H72	H	1.225544	-0.270749	0.677857
H73	H	0.433946	-0.270720	0.287333
C74	C	0.675081	-0.257158	0.272983
N75	N	0.641119	-0.217869	0.231466
H76	H	1.012081	-0.793205	0.424826
C77	C	1.029550	-0.926054	0.271612
N78	N	0.967780	-0.946447	0.253351
C79	C	0.847239	-0.257148	0.272959
N80	N	0.881198	-0.217852	0.231433
C81	C	1.092559	-0.785169	0.521736
N82	N	1.106812	-0.763738	0.584160
C83	C	1.168504	-0.926965	0.232557
N84	N	1.211392	-0.948044	0.184874
C85	C	1.092655	-0.927010	0.522195
N86	N	1.106767	-0.947929	0.584819
H87	H	1.237888	-0.920452	0.458736
C88	C	1.239818	-0.785712	0.483487
N89	N	1.257022	-0.764954	0.545422
H90	H	1.043326	-0.442478	1.079363
H91	H	1.264448	-0.791840	0.360190
C92	C	1.028924	-0.456064	0.838223
N93	N	0.987303	-0.495287	0.872171
C94	C	1.278374	-0.926265	0.339608
N95	N	1.324242	-0.946878	0.294544
H96	H	1.225562	-0.270708	0.826575
C97	C	1.239932	-0.257147	0.918993
N98	N	1.281543	-0.217914	0.885048
H99	H	1.043251	-0.442574	0.677785
C100	C	1.239963	-0.257104	1.091149
N101	N	1.281592	-0.217860	1.125129
