data_functionalizedCrystal
_audit_creation_method	'MofGen! by Chris Wilmer'
_symmetry_space_group_name_H-M	'P1'
_symmetry_Int_Tables_number	1
_symmetry_cell_setting	triclinic
loop_
_symmetry_equiv_pos_as_xyz
  x,y,z
_cell_length_a	10.489741
_cell_length_b	14.971486
_cell_length_c	13.448316
_cell_angle_alpha	90.001801
_cell_angle_beta	89.993703
_cell_angle_gamma	95.923349
loop_
_atom_site_label
_atom_site_type_symbol
_atom_site_fract_x
_atom_site_fract_y
_atom_site_fract_z
O1	O	0.166222	-1.187893	-0.082577
O2	O	0.186128	-0.927607	-0.082604
O3	O	-0.009491	-1.063673	-0.082584
O4	O	0.361841	-1.051827	-0.082597
O5	O	-0.009503	-1.063655	0.082800
O6	O	0.186116	-0.927589	0.082780
O7	O	0.166210	-1.187876	0.082807
Cu8	Cu	0.176162	-1.057731	0.097894
Cu9	Cu	0.176176	-1.057752	-0.097691
O10	O	0.361829	-1.051810	0.082787
C11	C	0.185232	-0.894268	0.000085
C12	C	0.182564	-0.794956	0.000074
C13	C	-0.057019	-1.062769	0.000107
C14	C	-0.198617	-1.060093	0.000105
C15	C	0.167106	-1.221215	0.000116
C16	C	0.169774	-1.320527	0.000120
C17	C	-0.265755	-0.973518	0.000089
C18	C	-0.358357	-1.014406	0.081636
C19	C	-0.358320	-1.014444	-0.081419
C20	C	-0.289354	-1.101017	0.081720
C21	C	-0.289307	-1.101043	-0.081409
C22	C	-0.381882	-1.141994	0.000158
C23	C	0.409357	-1.052713	0.000094
C24	C	0.550955	-1.055390	0.000089
N25	N	0.176151	-1.057723	0.235459
C26	C	0.297485	-0.738385	0.000072
C27	C	0.294971	-0.645071	0.000087
C28	C	0.177534	-0.608330	0.000097
C29	C	0.062604	-0.664909	0.000103
C30	C	0.065120	-0.758221	0.000095
C31	C	0.057369	-0.470416	0.000117
C32	C	0.054853	-0.377098	0.000123
C33	C	0.287220	-0.357267	0.000108
C34	C	0.289736	-0.450579	0.000101
C35	C	0.174805	-0.507151	0.000104
N36	N	0.176177	-1.057766	-0.235255
C37	C	0.089567	-1.117992	0.287508
C38	C	0.089566	-1.117998	0.391611
C39	C	0.176156	-1.057738	0.443663
C40	C	0.262745	-0.997462	0.391607
C41	C	0.262739	-0.997453	0.287505
C42	C	0.262753	-0.997487	0.608587
C43	C	0.262761	-0.997497	0.712695
C44	C	0.089580	-1.118032	0.712693
C45	C	0.089574	-1.118023	0.608591
C46	C	0.176165	-1.057748	0.556542
H47	H	-0.215280	-0.902336	0.000164
H48	H	0.333261	-0.948402	0.566212
H49	H	-0.036219	-0.516476	0.000121
H50	H	0.388551	-0.599014	0.000083
H51	H	-0.040774	-0.347187	0.000132
H52	H	0.019072	-1.167095	0.566211
H53	H	-0.258681	-1.137650	-0.150347
H54	H	-0.388950	-0.977767	0.150571
H55	H	-0.033015	-0.634987	0.000126
H56	H	0.333243	-0.948375	0.245128
H57	H	0.019060	-1.167067	0.245134
H58	H	0.333244	-0.948393	0.433993
H59	H	0.380801	-0.311201	0.000110
H60	H	-0.258951	-1.137610	0.150739
H61	H	-0.028461	-0.804281	0.000097
H62	H	-0.432131	-1.213239	0.000211
H63	H	-0.388855	-0.977809	-0.150368
H64	H	0.019061	-1.167073	0.433989
H65	H	0.333271	-0.948426	0.755071
H66	H	0.019075	-1.167109	0.755077
H67	H	0.393115	-0.768291	0.000063
H68	H	0.385363	-0.480489	0.000083
