data_functionalizedCrystal
_audit_creation_method	'MofGen! by Chris Wilmer'
_symmetry_space_group_name_H-M	'P1'
_symmetry_Int_Tables_number	1
_symmetry_cell_setting	triclinic
loop_
_symmetry_equiv_pos_as_xyz
  x,y,z
_cell_length_a	14.044191
_cell_length_b	14.044220
_cell_length_c	13.101039
_cell_angle_alpha	86.332523
_cell_angle_beta	93.662449
_cell_angle_gamma	93.190327
loop_
_atom_site_label
_atom_site_type_symbol
_atom_site_fract_x
_atom_site_fract_y
_atom_site_fract_z
O1	O	1.281976	0.225377	0.085169
O2	O	1.615310	0.558711	0.418503
O3	O	1.948643	0.892044	0.751836
O4	O	1.005305	0.217064	0.085182
O5	O	1.338638	0.550397	0.418515
O6	O	1.671971	0.883731	0.751849
O7	O	1.139487	0.082885	0.085166
O8	O	1.472820	0.416219	0.418499
O9	O	1.806154	0.749552	0.751832
O10	O	1.147794	0.359556	0.085186
O11	O	1.481127	0.692889	0.418519
O12	O	1.814461	1.026223	0.751852
O13	O	1.129861	0.092530	-0.085263
O14	O	1.463194	0.425863	0.248070
O15	O	1.796528	0.759197	0.581404
O16	O	0.995679	0.226708	-0.085247
O17	O	1.329012	0.560042	0.248087
O18	O	1.662345	0.893375	0.581420
O19	O	1.272350	0.235022	-0.085259
O20	O	1.605684	0.568355	0.248074
O21	O	1.939017	0.901689	0.581407
Zn22	Zn	1.132486	0.232396	-0.112312
Zn23	Zn	1.465820	0.565730	0.221021
Zn24	Zn	1.799153	0.899063	0.554354
Zn25	Zn	1.145169	0.219689	0.112235
Zn26	Zn	1.478502	0.553023	0.445568
Zn27	Zn	1.811836	0.886356	0.778902
O28	O	1.138168	0.369200	-0.085243
O29	O	1.471501	0.702534	0.248090
O30	O	1.804835	1.035867	0.581424
C31	C	0.964870	0.218250	-0.000031
C32	C	1.298203	0.551583	0.333303
C33	C	1.631536	0.884916	0.666636
C34	C	0.858727	0.207402	-0.000026
C35	C	1.192060	0.540735	0.333307
C36	C	1.525394	0.874069	0.666641
C37	C	1.131038	0.052086	-0.000049
C38	C	1.464372	0.385419	0.333285
C39	C	1.797705	0.718752	0.666618
C40	C	1.120194	-0.054057	-0.000050
C41	C	1.453527	0.279276	0.333284
C42	C	1.786860	0.612609	0.666617
C43	C	0.613268	0.264503	-0.000032
C44	C	0.946601	0.597836	0.333301
C45	C	1.279935	0.931169	0.666634
C46	C	0.664393	0.187587	-0.000036
C47	C	0.997727	0.520920	0.333297
C48	C	1.331060	0.854253	0.666631
C49	C	0.772531	0.198615	-0.000031
C50	C	1.105864	0.531948	0.333303
C51	C	1.439197	0.865281	0.666636
C52	C	0.505121	0.253476	-0.000038
C53	C	0.838454	0.586810	0.333296
C54	C	1.171788	0.920143	0.666629
C55	C	1.100368	-0.248396	-0.000034
C56	C	1.433702	0.084937	0.333299
C57	C	1.767035	0.418270	0.666633
C58	C	1.177283	-0.299524	-0.000034
C59	C	1.510616	0.033809	0.333299
C60	C	1.843950	0.367142	0.666632
C61	C	1.166252	-0.407661	-0.000026
C62	C	1.499585	-0.074328	0.333308
C63	C	1.832919	0.259005	0.666641
C64	C	1.111398	-0.140250	-0.000043
C65	C	1.444731	0.193084	0.333291
C66	C	1.778065	0.526417	0.666624
C67	C	1.312785	0.233836	-0.000044
C68	C	1.646119	0.567169	0.333289
C69	C	1.979452	0.900503	0.666622
C70	C	1.418929	0.244683	-0.000042
C71	C	1.752262	0.578017	0.333291
C72	C	2.085595	0.911350	0.666625
C73	C	1.146617	0.400000	-0.000026
C74	C	1.479950	0.733333	0.333307
C75	C	1.813283	1.066667	0.666640
C76	C	1.157462	0.506143	-0.000019
C77	C	1.490795	0.839476	0.333315
C78	C	1.824128	1.172809	0.666648
N79	N	1.123838	0.241069	-0.265560
N80	N	1.457171	0.574402	0.067774
N81	N	1.790504	0.907735	0.401107
C82	C	1.112072	0.252876	-0.474601
C83	C	1.445405	0.586210	-0.141267
C84	C	1.778738	0.919543	0.192066
C85	C	1.165588	0.199205	-0.525483
C86	C	1.498921	0.532539	-0.192150
C87	C	1.832254	0.865872	0.141184
C88	C	1.159041	0.205775	-0.641801
C89	C	1.492374	0.539109	-0.308467
C90	C	1.825708	0.872442	0.024866
C91	C	1.118617	0.246308	-0.358273
C92	C	1.451951	0.579641	-0.024939
C93	C	1.785284	0.912974	0.308394
N94	N	1.153824	0.211010	0.265482
N95	N	1.487158	0.544343	0.598816
N96	N	1.820491	0.877677	0.932149
H97	H	0.626954	0.113451	0.000031
H98	H	0.960287	0.446784	0.333364
H99	H	1.293620	0.780117	0.666697
H100	H	1.061342	0.303757	-0.518392
H101	H	1.394675	0.637091	-0.185058
H102	H	1.728009	0.970424	0.148275
H103	H	1.026241	-0.285836	-0.000028
H104	H	1.359574	0.047498	0.333305
H105	H	1.692908	0.380831	0.666639
H106	H	1.216322	0.148323	-0.481687
H107	H	1.549655	0.481656	-0.148354
H108	H	1.882988	0.814989	0.184980
H109	H	0.650710	0.338629	-0.000024
H110	H	0.984043	0.671962	0.333309
H111	H	1.317377	1.005296	0.666643
H112	H	1.251420	-0.262087	0.000031
H113	H	1.584754	0.071246	0.333364
H114	H	1.918087	0.404580	0.666698
