data_functionalizedCrystal
_audit_creation_method	'MofGen! by Chris Wilmer'
_symmetry_space_group_name_H-M	'P1'
_symmetry_Int_Tables_number	1
_symmetry_cell_setting	triclinic
loop_
_symmetry_equiv_pos_as_xyz
  x,y,z
_cell_length_a	11.792241
_cell_length_b	17.019294
_cell_length_c	10.868271
_cell_angle_alpha	86.115896
_cell_angle_beta	89.999893
_cell_angle_gamma	83.793186
loop_
_atom_site_label
_atom_site_type_symbol
_atom_site_fract_x
_atom_site_fract_y
_atom_site_fract_z
O1	O	1.505776	0.108120	-0.113657
O2	O	1.175318	0.119263	-0.114866
O3	O	1.349766	-0.001102	-0.102092
O4	O	1.331329	0.228485	-0.126431
O5	O	1.349752	-0.001107	0.102554
O6	O	1.175304	0.119258	0.089779
O7	O	1.505762	0.108115	0.090989
Zn8	Zn	1.340531	0.113686	0.122876
Zn9	Zn	1.340549	0.113692	-0.146753
O10	O	1.331314	0.228480	0.078214
C11	C	1.133028	0.118561	-0.012473
C12	C	1.007036	0.116466	-0.012261
C13	C	1.349059	-0.030497	0.003344
C14	C	1.346962	-0.118076	0.012620
C15	C	0.776364	0.112613	-0.011818
C16	C	0.904727	0.114754	-0.012064
C17	C	1.345987	-0.159214	-0.094573
C18	C	1.344009	-0.241504	-0.085854
C19	C	1.343015	-0.282654	0.030060
C20	C	1.343986	-0.241510	0.137262
C21	C	1.345956	-0.159222	0.128541
C22	C	1.337059	-0.531113	0.061972
C23	C	1.335093	-0.613408	0.070685
C24	C	1.335114	-0.613395	-0.152431
C25	C	1.337091	-0.531105	-0.161142
C26	C	1.338056	-0.489968	-0.053941
C27	C	1.340996	-0.366768	0.038976
C28	C	1.340066	-0.405855	-0.062857
C29	C	1.548053	0.108818	-0.011407
C30	C	1.674044	0.110913	-0.011627
C31	C	1.332021	0.257875	-0.027224
C32	C	1.334118	0.345454	-0.036508
N33	N	1.340526	0.113681	0.306890
N34	N	1.340563	0.113691	-0.330767
C35	C	1.340544	0.113691	0.557895
C36	C	1.340530	0.113688	0.418218
H37	H	1.346803	-0.125715	-0.188963
H38	H	1.343220	-0.274995	-0.173142
H39	H	1.334277	-0.646910	0.165081
H40	H	1.337902	-0.497606	-0.255531
H41	H	1.346734	-0.125727	0.215829
H42	H	1.334326	-0.646898	-0.239708
H43	H	1.340868	-0.372346	-0.157234
H44	H	1.340190	-0.400282	0.133354
H45	H	1.337868	-0.497631	0.149264
H46	H	1.343169	-0.275021	0.231642
