data_functionalizedCrystal
_audit_creation_method	'MofGen! by Chris Wilmer'
_symmetry_space_group_name_H-M	'P1'
_symmetry_Int_Tables_number	1
_symmetry_cell_setting	triclinic
loop_
_symmetry_equiv_pos_as_xyz
  x,y,z
_cell_length_a	12.759395
_cell_length_b	17.077402
_cell_length_c	17.077396
_cell_angle_alpha	90.031388
_cell_angle_beta	89.985232
_cell_angle_gamma	89.975580
loop_
_atom_site_label
_atom_site_type_symbol
_atom_site_fract_x
_atom_site_fract_y
_atom_site_fract_z
Zn1	Zn	1.606149	0.312464	-0.443788
Zn2	Zn	2.106149	0.812464	0.056212
Zn3	Zn	1.606033	0.443742	-0.312519
Zn4	Zn	2.106033	0.943742	0.187481
Zn5	Zn	1.430465	0.312498	-0.312541
Zn6	Zn	1.930465	0.812498	0.187459
Zn7	Zn	1.430415	0.443695	-0.443747
Zn8	Zn	1.930415	0.943695	0.056253
O9	O	1.518266	0.378100	-0.378149
O10	O	2.018266	0.878100	0.121851
O11	O	1.753155	0.329883	-0.426382
O12	O	2.253155	0.829883	0.073618
O13	O	1.582715	0.426366	-0.202675
O14	O	2.082715	0.926366	0.297325
O15	O	1.453840	0.202646	-0.329977
O16	O	1.953840	0.702646	0.170023
O17	O	1.753069	0.426333	-0.329939
O18	O	2.253069	0.926333	0.170061
O19	O	1.582915	0.202621	-0.426404
O20	O	2.082915	0.702621	0.073596
O21	O	1.453727	0.329942	-0.202691
O22	O	1.953727	0.829942	0.297309
O23	O	1.283437	0.329896	-0.329938
O24	O	1.783437	0.829896	0.170062
O25	O	1.453754	0.426253	-0.553600
O26	O	1.953754	0.926253	-0.053600
O27	O	1.283400	0.426286	-0.426335
O28	O	1.783400	0.926286	0.073665
O29	O	1.582866	0.329838	-0.553629
O30	O	2.082866	0.829838	-0.053629
O31	O	1.582667	0.553583	-0.329900
O32	O	2.082667	1.053583	0.170100
O33	O	1.453641	0.553548	-0.426314
O34	O	1.953641	1.053548	0.073686
C35	C	1.245298	0.378090	-0.378135
C36	C	1.745298	0.878090	0.121865
C37	C	1.128521	0.378105	-0.378148
C38	C	1.628521	0.878105	0.121852
C39	C	1.518164	0.582047	-0.378117
C40	C	2.018164	1.082047	0.121883
C41	C	1.518217	0.669297	-0.378130
C42	C	2.018217	1.169297	0.121870
C43	C	1.518317	0.378036	-0.582893
C44	C	2.018317	0.878036	-0.082893
C45	C	1.518340	0.378009	-0.670143
C46	C	2.018340	0.878009	-0.170143
C47	C	1.128521	0.478638	-0.478364
C48	C	1.628521	0.978638	0.021636
C49	C	1.073661	0.528911	-0.528474
C50	C	1.573661	1.028911	-0.028474
C51	C	0.963939	0.528920	-0.528483
C52	C	1.463939	1.028920	-0.028483
C53	C	0.909076	0.478650	-0.478379
C54	C	1.409076	0.978650	0.021621
C55	C	0.963936	0.428377	-0.428269
C56	C	1.463936	0.928377	0.071731
C57	C	1.073661	0.428375	-0.428263
C58	C	1.573661	0.928375	0.071737
C59	C	0.963936	0.327841	-0.328059
C60	C	1.463936	0.827841	0.171941
C61	C	1.073658	0.327835	-0.328044
C62	C	1.573658	0.827835	0.171956
C63	C	0.909073	0.277571	-0.277954
C64	C	1.409073	0.777571	0.222046
C65	C	0.963934	0.227301	-0.227839
C66	C	1.463934	0.727301	0.272161
C67	C	1.073662	0.227294	-0.227831
C68	C	1.573662	0.727294	0.272169
C69	C	1.128519	0.277562	-0.277934
C70	C	1.628519	0.777562	0.222066
C71	C	1.792299	0.378110	-0.378163
C72	C	2.292299	0.878110	0.121837
C73	C	1.909076	0.378114	-0.378169
C74	C	2.409076	0.878114	0.121831
C75	C	1.518396	0.173355	-0.378197
C76	C	2.018396	0.673355	0.121803
C77	C	1.518452	0.086105	-0.378218
C78	C	2.018452	0.586105	0.121782
C79	C	1.585469	0.710279	-0.327982
C80	C	2.085469	1.210279	0.172018
C81	C	1.585520	0.792260	-0.328002
C82	C	2.085520	1.292260	0.171998
C83	C	1.518314	0.833257	-0.378167
C84	C	2.018314	1.333257	0.121833
C85	C	1.451058	0.792269	-0.428321
C86	C	1.951058	1.292269	0.071679
C87	C	1.451013	0.710290	-0.428304
C88	C	1.951013	1.210290	0.071696
C89	C	1.451156	0.963139	-0.428351
C90	C	1.951156	1.463139	0.071649
C91	C	1.451199	1.045123	-0.428366
C92	C	1.951199	1.545123	0.071634
C93	C	1.585663	1.045109	-0.328048
C94	C	2.085663	1.545109	0.171952
C95	C	1.585618	0.963130	-0.328031
C96	C	2.085618	1.463130	0.171969
C97	C	1.518361	0.922148	-0.378185
C98	C	2.018361	1.422148	0.121815
C99	C	1.585599	0.428126	-1.045951
C100	C	2.085599	0.928126	-0.545951
C101	C	1.585573	0.428149	-0.963971
C102	C	2.085573	0.928149	-0.463971
C103	C	1.518407	0.377953	-0.922992
C104	C	2.018407	0.877953	-0.422992
C105	C	1.451256	0.327738	-0.963998
C106	C	1.951256	0.827738	-0.463998
C107	C	1.451278	0.327719	-1.045977
C108	C	1.951278	0.827719	-0.545977
C109	C	1.451217	0.327778	-0.793128
C110	C	1.951217	0.827778	-0.293128
C111	C	1.451196	0.327795	-0.711143
C112	C	1.951196	0.827795	-0.211143
C113	C	1.585511	0.428208	-0.711122
C114	C	2.085511	0.928208	-0.211122
C115	C	1.585533	0.428189	-0.793101
C116	C	2.085533	0.928189	-0.293101
C117	C	1.518384	0.377972	-0.834101
C118	C	2.018384	0.877972	-0.334101
C119	C	1.518274	0.378106	-0.174201
C120	C	2.018274	0.878106	0.325799
C121	C	1.518456	0.377912	-0.086951
C122	C	2.018456	0.877912	0.413049
H123	H	1.217863	0.478641	-0.478355
H124	H	1.717863	0.978641	0.021645
H125	H	1.217860	0.277563	-0.277930
H126	H	1.717860	0.777563	0.222070
H127	H	1.640283	0.825624	-0.287165
H128	H	2.140283	1.325624	0.212835
H129	H	1.640337	0.929750	-0.287179
H130	H	2.140337	1.429750	0.212821
H131	H	1.396251	0.676923	-0.469141
H132	H	1.896251	1.176923	0.030859
H133	H	1.396507	0.286920	-0.677780
H134	H	1.896507	0.786920	-0.177780
H135	H	1.118323	0.186350	-0.187030
H136	H	1.618323	0.686350	0.312970
H137	H	1.640298	0.468997	-1.079311
H138	H	2.140298	0.968997	-0.579311
H139	H	0.919255	0.186371	-0.187052
H140	H	1.419255	0.686371	0.312948
Cl141	Cl	1.669956	0.658749	-0.264908
Cl142	Cl	2.169956	1.158749	0.235092
H143	H	1.640235	0.469047	-0.930592
H144	H	2.140235	0.969047	-0.430592
H145	H	0.819732	0.277579	-0.277969
H146	H	1.319732	0.777579	0.222031
H147	H	1.396536	0.286886	-0.826507
H148	H	1.896536	0.786886	-0.326507
H149	H	1.640231	0.469059	-0.826464
H150	H	2.140231	0.969059	-0.326464
Cl151	Cl	1.670204	1.096629	-0.264991
Cl152	Cl	2.170204	1.596629	0.235009
Cl153	Cl	1.669925	0.491340	-0.659579
Cl154	Cl	2.169925	0.991340	-0.159579
Cl155	Cl	1.366833	0.264624	-0.912481
Cl156	Cl	1.866833	0.764624	-0.412481
Cl157	Cl	0.894968	0.592116	-0.591484
Cl158	Cl	1.394968	1.092116	-0.091484
H159	H	1.396493	1.078501	-0.469230
H160	H	1.896493	1.578501	0.030770
Cl161	Cl	1.366575	0.843808	-0.491391
Cl162	Cl	1.866575	1.343808	0.008609
Cl163	Cl	1.366605	0.911619	-0.491403
Cl164	Cl	1.866605	1.411619	0.008597
Cl165	Cl	1.142636	0.592110	-0.591453
Cl166	Cl	1.642636	1.092110	-0.091453
Cl167	Cl	0.771139	0.478653	-0.478404
Cl168	Cl	1.271139	0.978653	0.021596
Cl169	Cl	1.366871	0.264587	-1.097520
Cl170	Cl	1.866871	0.764587	-0.597520
