data_functionalizedCrystal
_audit_creation_method	'MofGen! by Chris Wilmer'
_symmetry_space_group_name_H-M	'P1'
_symmetry_Int_Tables_number	1
_symmetry_cell_setting	triclinic
loop_
_symmetry_equiv_pos_as_xyz
  x,y,z
_cell_length_a	27.732048
_cell_length_b	10.540535
_cell_length_c	9.616153
_cell_angle_alpha	89.996418
_cell_angle_beta	89.998655
_cell_angle_gamma	83.583149
loop_
_atom_site_label
_atom_site_type_symbol
_atom_site_fract_x
_atom_site_fract_y
_atom_site_fract_z
O1	O	0.641879	0.151022	-0.115471
O2	O	0.501230	0.173985	-0.115513
O3	O	0.574764	-0.022343	-0.115477
O4	O	0.568345	0.347350	-0.115507
O5	O	0.574754	-0.022338	0.115814
O6	O	0.501220	0.173990	0.115778
O7	O	0.641869	0.151026	0.115821
Zn8	Zn	0.571543	0.162509	0.152522
Zn9	Zn	0.571556	0.162503	-0.152215
O10	O	0.568334	0.347354	0.115784
C11	C	0.483215	0.173506	0.000127
C12	C	0.429551	0.172054	0.000111
C13	C	0.574278	-0.069623	0.000169
C14	C	0.572839	-0.210509	0.000171
C15	C	0.519150	-0.244848	0.000144
C16	C	0.517636	-0.391382	-0.000406
C17	C	0.597353	-0.420900	-0.131675
C18	C	0.598496	-0.274184	-0.131761
C19	C	0.599265	-0.274351	0.131270
C20	C	0.596782	-0.420590	0.132977
C21	C	0.091408	0.278933	0.000163
C22	C	-0.110285	0.273548	0.000176
O23	O	-0.140926	0.371281	0.000228
N24	N	-0.130141	0.157133	0.000183
C25	C	-0.099571	0.042057	0.000196
O26	O	-0.121087	-0.057084	0.000216
C27	C	0.102122	0.047444	0.000193
C28	C	0.121975	0.163866	0.000172
C29	C	0.111262	0.395346	0.000143
C30	C	0.161682	0.396691	0.000133
C31	C	0.192249	0.281623	0.000141
C32	C	0.172395	0.165211	0.000161
C33	C	0.132692	-0.067631	0.000216
C34	C	0.183118	-0.066274	0.000218
C35	C	0.202971	0.050148	0.000197
C36	C	0.253383	0.051489	0.000159
N37	N	0.273239	0.167903	0.000152
C38	C	0.242672	0.282971	0.000143
C39	C	-0.205462	0.039237	0.000194
C40	C	-0.255885	0.037890	0.000193
C41	C	-0.266597	0.269381	0.000175
C42	C	-0.216173	0.270727	0.000167
C43	C	-0.185606	0.155652	0.000187
C44	C	0.348559	0.285787	0.000119
C45	C	0.398984	0.287122	0.000103
C46	C	0.409691	0.055631	0.000127
C47	C	0.359270	0.054295	0.000136
C48	C	0.328705	0.169384	0.000137
O49	O	0.284052	-0.046192	0.000122
O50	O	0.264198	0.382097	0.000153
C51	C	0.040988	0.277588	0.000174
C52	C	0.021134	0.161176	0.000193
C53	C	0.051701	0.046108	0.000202
C54	C	-0.029289	0.159829	0.000191
C55	C	-0.059855	0.274896	0.000183
C56	C	-0.039999	0.391310	0.000176
C57	C	0.010421	0.392656	0.000165
C58	C	0.031845	-0.070306	0.000209
C59	C	-0.018576	-0.071642	0.000218
C60	C	-0.049143	0.043425	0.000209
C61	C	0.659884	0.151506	0.000177
C62	C	0.713548	0.152957	0.000184
C63	C	0.568820	0.394634	0.000135
C64	C	0.570259	0.535520	0.000124
N65	N	0.571537	0.162512	0.360496
N66	N	0.571566	0.162490	-0.360189
C67	C	0.532081	0.267193	0.580847
C68	C	0.532168	0.267575	0.419679
C69	C	0.622070	0.190451	0.418958
C70	C	0.621855	0.191189	0.580176
C71	C	0.560964	0.029532	0.580415
C72	C	0.559804	0.030447	0.419188
H73	H	0.496443	-0.419804	0.094046
Br74	Br	0.332325	-0.103707	0.000169
Br75	Br	0.543502	0.432080	0.355355
H76	H	0.494417	0.250976	0.619648
H77	H	0.026580	0.487458	0.000150
H78	H	0.580207	-0.233212	-0.230673
H79	H	0.586657	-0.051040	0.378907
H80	H	0.498883	-0.200504	-0.094245
H81	H	0.577066	-0.448346	0.230485
Br82	Br	0.105762	-0.225643	0.000214
Br83	Br	0.571335	-0.202385	0.297848
H84	H	0.652178	0.117883	0.619179
Br85	Br	0.672240	0.066660	0.355074
Br86	Br	0.608947	-0.100315	0.643964
Br87	Br	0.637309	0.352752	0.642826
H88	H	0.496561	-0.418914	-0.095465
H89	H	0.635190	-0.471293	0.141345
Br90	Br	0.637872	0.350166	0.351634
Br91	Br	0.500835	-0.015635	0.648248
Br92	Br	0.665103	-0.240234	0.133425
H93	H	0.498529	-0.201988	0.094652
Br94	Br	0.497844	-0.004937	0.355509
Br95	Br	0.664095	-0.238638	-0.141044
H96	H	-0.272045	-0.056912	0.000188
Br97	Br	0.307085	0.441979	0.000122
Br98	Br	0.661934	-0.502625	-0.139217
H99	H	0.415145	0.381930	0.000085
Br100	Br	0.566388	-0.471048	-0.295823
H101	H	-0.180579	-0.054477	0.000211
Br102	Br	0.224598	-0.222457	0.000253
H103	H	0.177842	0.491494	0.000115
Br104	Br	-0.189235	0.428733	0.000139
H105	H	0.086379	0.489053	0.000141
H106	H	-0.291493	0.363074	0.000169
H107	H	0.538807	0.365324	0.621340
H108	H	0.434587	-0.038054	0.000129
Br109	Br	-0.081493	0.547472	0.000153
Br110	Br	0.469578	0.240161	0.353794
Br111	Br	-0.045512	-0.229659	0.000223
H112	H	0.056728	-0.164010	0.000219
