data_functionalizedCrystal
_audit_creation_method	'MofGen! by Chris Wilmer'
_symmetry_space_group_name_H-M	'P1'
_symmetry_Int_Tables_number	1
_symmetry_cell_setting	triclinic
loop_
_symmetry_equiv_pos_as_xyz
  x,y,z
_cell_length_a	17.077404
_cell_length_b	19.120900
_cell_length_c	17.077396
_cell_angle_alpha	92.471365
_cell_angle_beta	90.021457
_cell_angle_gamma	92.472284
loop_
_atom_site_label
_atom_site_type_symbol
_atom_site_fract_x
_atom_site_fract_y
_atom_site_fract_z
Zn1	Zn	-1.186663	0.279647	-0.430533
Zn2	Zn	-1.180945	0.397111	-0.293659
Zn3	Zn	-1.055394	0.279669	-0.299275
Zn4	Zn	-1.049740	0.397067	-0.424880
O5	O	-1.118186	0.338374	-0.362087
O6	O	-1.295751	0.295238	-0.412391
O7	O	-1.164264	0.381560	-0.184555
O8	O	-1.077566	0.181376	-0.321403
O9	O	-1.291550	0.381538	-0.311831
O10	O	-1.174009	0.181360	-0.417837
O11	O	-1.072022	0.295276	-0.188682
O12	O	-0.944798	0.295233	-0.315922
O13	O	-1.067930	0.381463	-0.535478
O14	O	-0.940644	0.381485	-0.408203
O15	O	-1.168527	0.295195	-0.539631
O16	O	-1.158782	0.495396	-0.306349
O17	O	-1.062386	0.495363	-0.402757
C18	C	-0.914239	0.338357	-0.362059
C19	C	-0.826988	0.338367	-0.362065
C20	C	-0.783853	0.383346	-0.410030
C21	C	-0.701872	0.383346	-0.410040
C22	C	-0.663029	0.338371	-0.362079
C23	C	-0.706170	0.293387	-0.314112
C24	C	-0.788150	0.293384	-0.314107
C25	C	-0.535300	0.293398	-0.314124
C26	C	-0.453315	0.293402	-0.314128
C27	C	-0.449022	0.383360	-0.410058
C28	C	-0.531002	0.383356	-0.410053
C29	C	-0.574138	0.338374	-0.362084
C30	C	-1.109371	0.520865	-0.353347
C31	C	-1.105672	0.598936	-0.349635
C32	C	-1.118236	0.338322	-0.566833
C33	C	-1.118257	0.338300	-0.654084
C34	C	-0.322929	0.338386	-0.362107
C35	C	-0.410179	0.338380	-0.362094
C36	C	-1.082213	1.040491	-0.326144
C37	C	-1.085690	0.967135	-0.329632
C38	C	-1.137608	0.930389	-0.381624
C39	C	-1.186045	0.967003	-0.430136
C40	C	-1.182563	1.040357	-0.426651
C41	C	-1.150627	0.708904	-0.394663
C42	C	-1.154107	0.635544	-0.398142
C43	C	-1.053751	0.635681	-0.297638
C44	C	-1.050277	0.709037	-0.294155
C45	C	-1.098712	0.745644	-0.342670
C46	C	-1.141165	0.855408	-0.385188
C47	C	-1.095150	0.820624	-0.339109
C48	C	-1.127009	1.155170	-0.370884
C49	C	-1.130648	1.077099	-0.374651
C50	C	-1.170640	0.293376	-0.697238
C51	C	-1.170650	0.293353	-0.779220
C52	C	-1.118281	0.338257	-0.818046
C53	C	-1.065893	0.383183	-0.774886
C54	C	-1.065879	0.383202	-0.692906
C55	C	-1.065927	0.383140	-0.945758
C56	C	-1.065941	0.383122	-1.027744
C57	C	-1.170698	0.293292	-1.032072
C58	C	-1.170684	0.293311	-0.950092
C59	C	-1.118296	0.338237	-0.906938
C60	C	-1.118184	0.338375	-0.158139
C61	C	-1.118324	0.338199	-0.070898
H62	H	-1.039939	1.070404	-0.283804
O63	O	-1.033462	0.927647	-0.277302
H64	H	-0.996788	0.965522	-0.240552
H65	H	-1.008002	0.738950	-0.251816
O66	O	-1.001506	0.596200	-0.245319
H67	H	-1.012642	0.539019	-0.256478
O68	O	-0.664288	0.244874	-0.262377
H69	H	-0.679434	0.256851	-0.200177
H70	H	-0.666754	0.419972	-0.449098
H71	H	-1.228314	0.937081	-0.472473
H72	H	-0.413897	0.419984	-0.449118
O73	O	-1.210098	0.595907	-0.454229
H74	H	-1.243186	0.633685	-0.487387
H75	H	-1.023255	0.419713	-0.910625
O76	O	-0.411398	0.244903	-0.262405
H77	H	-0.429775	0.189786	-0.278609
H78	H	-0.570419	0.256762	-0.275070
O79	O	-0.834681	0.244873	-0.262373
H80	H	-0.870504	0.276264	-0.220879
H81	H	-1.221998	1.070163	-0.466157
H82	H	-1.023250	0.419742	-0.806504
H83	H	-1.190075	0.738700	-0.434158
O84	O	-1.009368	0.431647	-0.646362
H85	H	-1.020157	0.486775	-0.659443
O86	O	-0.825748	0.431852	-0.461763
H87	H	-0.781976	0.463122	-0.495125
O88	O	-0.572902	0.431861	-0.461783
H89	H	-0.529137	0.463135	-0.495146
O90	O	-1.039165	0.860257	-0.283025
H91	H	-0.997626	0.893690	-0.316530
H92	H	-1.213307	0.256774	-0.814353
H93	H	-1.183439	0.825484	-0.427520
H94	H	-1.213287	0.256812	-0.665632
H95	H	-1.213332	0.256750	-0.918482
H96	H	-1.213352	0.256710	-1.067212
H97	H	-1.023296	0.419686	-1.059353
