data_functionalizedCrystal
_audit_creation_method	'MofGen! by Chris Wilmer'
_symmetry_space_group_name_H-M	'P1'
_symmetry_Int_Tables_number	1
_symmetry_cell_setting	triclinic
loop_
_symmetry_equiv_pos_as_xyz
  x,y,z
_cell_length_a	19.188930
_cell_length_b	10.654551
_cell_length_c	9.130313
_cell_angle_alpha	90.000320
_cell_angle_beta	89.993647
_cell_angle_gamma	83.815026
loop_
_atom_site_label
_atom_site_type_symbol
_atom_site_fract_x
_atom_site_fract_y
_atom_site_fract_z
O1	O	0.098062	1.665758	-0.121799
O2	O	0.107404	1.300082	-0.121808
O3	O	0.001146	1.493473	-0.121775
O4	O	0.204319	1.472368	-0.121832
O5	O	0.001149	1.493471	0.121824
O6	O	0.107407	1.300080	0.121791
O7	O	0.098065	1.665756	0.121800
Cu8	Cu	0.102736	1.482918	0.144038
Cu9	Cu	0.102732	1.482921	-0.144046
O10	O	0.204322	1.472365	0.121767
C11	C	0.106719	1.253298	-0.000009
C12	C	0.104666	1.113898	-0.000011
C13	C	0.101767	0.917426	0.132777
C14	C	0.103702	1.048406	0.132777
C15	C	0.103703	1.048402	-0.132808
C16	C	0.101773	0.917424	-0.132806
C17	C	0.100796	0.851942	0.265574
C18	C	0.101761	0.917429	0.398371
C19	C	0.103696	1.048408	0.398371
C20	C	0.104666	1.113901	0.265574
C21	C	-0.024868	1.492788	0.000029
C22	C	-0.102386	1.490737	0.000042
C23	C	-0.146567	1.604212	0.000051
C24	C	-0.219404	1.602284	0.000028
C25	C	-0.248055	1.486875	0.000024
C26	C	-0.203864	1.373385	0.000006
C27	C	-0.131029	1.375316	0.000015
N28	N	-0.356637	1.398658	0.082923
N29	N	-0.425827	1.396831	0.082918
C30	C	-0.467502	1.481051	-0.000006
N31	N	-0.437374	1.567185	-0.082906
N32	N	-0.368178	1.569015	-0.082894
C33	C	-0.327032	1.484769	0.000013
C34	C	-0.590662	1.592444	-0.000024
C35	C	-0.663499	1.590512	-0.000056
C36	C	-0.647958	1.361609	-0.000063
C37	C	-0.575122	1.363545	-0.000045
C38	C	-0.546479	1.478966	-0.000019
C39	C	0.230336	1.473050	-0.000040
C40	C	0.307854	1.475102	-0.000062
C41	C	0.098749	1.712541	-0.000002
C42	C	0.100802	1.851940	-0.000010
N43	N	0.102738	1.482925	0.346661
N44	N	0.102725	1.482923	-0.346669
C45	C	0.055703	1.568580	0.423327
C46	C	0.055695	1.568577	0.576664
C47	C	0.149762	1.397259	0.576654
C48	C	0.149766	1.397258	0.423320
C49	C	0.008674	1.654247	0.346668
C50	C	-0.038364	1.739910	0.423335
C51	C	-0.038372	1.739907	0.576671
C52	C	0.008658	1.654241	0.653341
H53	H	0.100989	0.864104	-0.240933
H54	H	0.100977	0.864094	0.506489
H55	H	0.188052	1.327514	0.639089
O56	O	-0.711157	1.712910	-0.000053
H57	H	-0.744726	1.717488	0.099221
H58	H	-0.123251	1.698197	0.000068
O59	O	-0.267071	1.724679	0.000058
H60	H	-0.234917	1.805261	0.000090
O61	O	0.104756	1.119042	0.541591
H62	H	0.103757	1.051498	0.633926
O63	O	-0.234760	1.248903	0.000019
H64	H	-0.292830	1.266624	0.000034
H65	H	0.104492	1.101738	-0.240925
H66	H	0.188066	1.327508	0.360897
O67	O	0.008674	1.654243	0.181284
H68	H	0.020327	1.747986	0.140851
O69	O	-0.089100	1.832306	0.659358
H70	H	-0.143611	1.816634	0.629920
O71	O	-0.083369	1.252921	0.000030
H72	H	-0.115525	1.172341	0.000034
O73	O	0.008648	1.654242	0.818728
H74	H	0.049252	1.580286	0.859156
H75	H	-0.567339	1.686427	-0.000009
H76	H	0.099219	0.745293	0.265589
H77	H	0.106250	1.220552	0.265584
H78	H	-0.671285	1.267641	-0.000074
O79	O	-0.527461	1.241154	-0.000019
H80	H	-0.559619	1.160576	-0.000009
O81	O	-0.089104	1.832275	0.340655
H82	H	-0.081199	1.817888	0.221151
