data_functionalizedCrystal
_audit_creation_method	'MofGen! by Chris Wilmer'
_symmetry_space_group_name_H-M	'P1'
_symmetry_Int_Tables_number	1
_symmetry_cell_setting	triclinic
loop_
_symmetry_equiv_pos_as_xyz
  x,y,z
_cell_length_a	10.489741
_cell_length_b	11.792241
_cell_length_c	10.268362
_cell_angle_alpha	90.000979
_cell_angle_beta	90.002404
_cell_angle_gamma	84.366295
loop_
_atom_site_label
_atom_site_type_symbol
_atom_site_fract_x
_atom_site_fract_y
_atom_site_fract_z
O1	O	-1.693510	-0.160130	-0.108220
O2	O	-1.322263	-0.175161	-0.108241
O3	O	-1.516896	-0.002500	-0.108221
O4	O	-1.498877	-0.332792	-0.108240
O5	O	-1.516875	-0.002507	0.108380
O6	O	-1.322242	-0.175169	0.108360
O7	O	-1.693489	-0.160138	0.108380
Cu8	Cu	-1.507864	-0.167654	0.128148
Cu9	Cu	-1.507888	-0.167645	-0.128008
O10	O	-1.498857	-0.332800	0.108361
C11	C	-1.274725	-0.174030	0.000057
C12	C	-1.133107	-0.170633	0.000050
C13	C	-1.515753	0.039791	0.000079
C14	C	-1.512366	0.165813	0.000078
C15	C	-1.741027	-0.161269	0.000080
C16	C	-1.882645	-0.164666	0.000079
C17	C	-1.065341	-0.060774	0.000068
C18	C	-0.973048	-0.112667	-0.106727
C19	C	-0.973061	-0.112700	0.106824
C20	C	-1.042679	-0.222571	-0.106834
C21	C	-1.042702	-0.222590	0.106813
C22	C	-0.950436	-0.274563	-0.000009
C23	C	-1.499999	-0.375090	0.000058
C24	C	-1.503387	-0.501113	0.000051
N25	N	-1.507856	-0.167660	0.308313
C26	C	-1.506136	0.396542	0.000055
C27	C	-1.509598	0.268148	0.000067
C28	C	-1.507864	-0.167662	0.426156
C29	C	-1.507879	-0.167653	0.573994
N30	N	-1.507897	-0.167639	0.691826
H31	H	-1.115339	0.029538	-0.000060
H32	H	-0.942200	-0.066179	-0.197012
H33	H	-1.073357	-0.269016	-0.197224
H34	H	-0.900704	-0.364970	-0.000072
H35	H	-1.073581	-0.269039	0.197101
O36	O	-0.932231	-0.051122	0.226434
H37	H	-0.978703	0.037594	0.226204
