data_functionalizedCrystal
_audit_creation_method	'MofGen! by Chris Wilmer'
_symmetry_space_group_name_H-M	'P1'
_symmetry_Int_Tables_number	1
_symmetry_cell_setting	triclinic
loop_
_symmetry_equiv_pos_as_xyz
  x,y,z
_cell_length_a	19.077105
_cell_length_b	25.639239
_cell_length_c	19.077174
_cell_angle_alpha	92.270789
_cell_angle_beta	85.483752
_cell_angle_gamma	87.734929
loop_
_atom_site_label
_atom_site_type_symbol
_atom_site_fract_x
_atom_site_fract_y
_atom_site_fract_z
Zn1	Zn	1.093621	-0.254037	-0.441824
Zn2	Zn	1.593621	0.245963	0.058176
Zn3	Zn	1.088778	-0.337809	-0.323930
Zn4	Zn	1.588778	0.162191	0.176070
Zn5	Zn	0.971008	-0.246728	-0.319222
Zn6	Zn	1.471008	0.253272	0.180778
Zn7	Zn	0.975672	-0.337775	-0.437048
Zn8	Zn	1.475672	0.162225	0.062952
O9	O	1.032270	-0.294087	-0.380506
O10	O	1.532270	0.205913	0.119494
O11	O	1.191628	-0.268222	-0.430154
O12	O	1.691628	0.231778	0.069846
O13	O	1.069177	-0.322682	-0.224656
O14	O	1.569177	0.177318	0.275344
O15	O	0.987348	-0.174535	-0.335514
O16	O	1.487348	0.325465	0.164486
O17	O	1.188069	-0.329769	-0.343538
O18	O	1.688069	0.170231	0.156462
O19	O	1.077431	-0.179905	-0.425589
O20	O	1.577431	0.320095	0.074411
O21	O	0.982652	-0.255766	-0.221197
O22	O	1.482652	0.244234	0.278803
O23	O	0.872978	-0.255733	-0.330883
O24	O	1.372978	0.244267	0.169117
O25	O	0.995296	-0.329711	-0.536331
O26	O	1.495296	0.170289	-0.036331
O27	O	0.876404	-0.322624	-0.417449
O28	O	1.376404	0.177376	0.082551
O29	O	1.081953	-0.268189	-0.539840
O30	O	1.581953	0.231811	-0.039840
O31	O	1.073699	-0.410966	-0.338907
O32	O	1.573699	0.089034	0.161093
O33	O	0.990600	-0.410941	-0.422014
O34	O	1.490600	0.089059	0.077986
C35	C	0.849112	-0.288382	-0.373137
C36	C	1.349112	0.211618	0.126863
C37	C	0.770758	-0.285954	-0.370001
C38	C	1.270758	0.214046	0.129999
C39	C	0.735746	-0.319689	-0.413528
C40	C	1.235746	0.180311	0.086472
C41	C	0.662123	-0.317401	-0.410585
C42	C	1.162123	0.182599	0.089415
C43	C	0.623514	-0.281381	-0.364112
C44	C	1.123514	0.218619	0.135888
C45	C	0.658531	-0.247643	-0.320584
C46	C	1.158531	0.252357	0.179416
C47	C	0.732152	-0.249928	-0.323531
C48	C	1.232152	0.250072	0.176469
C49	C	0.403136	-0.270803	-0.350476
C50	C	0.903136	0.229197	0.149524
C51	C	0.329510	-0.268521	-0.347530
C52	C	0.829510	0.231479	0.152470
C53	C	0.333107	-0.338279	-0.437533
C54	C	0.833107	0.161721	0.062467
C55	C	0.406730	-0.340563	-0.440473
C56	C	0.906730	0.159437	0.059527
C57	C	0.441741	-0.306824	-0.396948
C58	C	0.941741	0.193176	0.103052
N59	N	0.548259	-0.279043	-0.361101
N60	N	1.048259	0.220957	0.138899
N61	N	0.516994	-0.309160	-0.399962
N62	N	1.016994	0.190840	0.100038
C63	C	1.032150	-0.429925	-0.380469
C64	C	1.532150	0.070075	0.119531
C65	C	1.032164	-0.488040	-0.380479
C66	C	1.532164	0.011960	0.119521
C67	C	1.075660	-0.848413	-0.337314
C68	C	1.575660	-0.348413	0.162686
C69	C	1.075688	-0.903019	-0.337324
C70	C	1.575688	-0.403019	0.162676
O71	O	1.112545	-0.931259	-0.300583
O72	O	1.612545	-0.431259	0.199417
N73	N	1.032395	-0.930331	-0.380558
N74	N	1.532395	-0.430331	0.119442
C75	C	0.989078	-0.903036	-0.423789
C76	C	1.489078	-0.403036	0.076211
O77	O	0.952258	-0.931282	-0.460564
O78	O	1.452258	-0.431282	0.039436
C79	C	0.989055	-0.848432	-0.423781
C80	C	1.489055	-0.348432	0.076219
C81	C	1.032344	-0.821122	-0.380540
C82	C	1.532344	-0.321122	0.119460
C83	C	1.118947	-0.821103	-0.294076
C84	C	1.618947	-0.321103	0.205924
C85	C	1.118918	-0.766501	-0.294065
C86	C	1.618918	-0.266501	0.205935
C87	C	1.075602	-0.739210	-0.337291
C88	C	1.575602	-0.239210	0.162709
C89	C	1.032315	-0.766520	-0.380529
C90	C	1.532315	-0.266520	0.119471
C91	C	0.945742	-0.821138	-0.467016
C92	C	1.445742	-0.321138	0.032984
C93	C	0.945722	-0.766530	-0.467005
C94	C	1.445722	-0.266530	0.032995
C95	C	0.989012	-0.739220	-0.423764
C96	C	1.489012	-0.239220	0.076236
C97	C	0.988971	-0.684627	-0.423743
C98	C	1.488971	-0.184627	0.076257
N99	N	1.032263	-0.657314	-0.380510
N100	N	1.532263	-0.157314	0.119490
C101	C	1.075579	-0.684606	-0.337284
C102	C	1.575579	-0.184606	0.162716
C103	C	0.989132	-1.017709	-0.423802
C104	C	1.489132	-0.517709	0.076198
C105	C	0.989151	-1.072312	-0.423806
C106	C	1.489151	-0.572312	0.076194
C107	C	1.075762	-1.072291	-0.337342
C108	C	1.575762	-0.572291	0.162658
C109	C	1.075738	-1.017686	-0.337335
C110	C	1.575738	-0.517686	0.162665
C111	C	1.032424	-0.990396	-0.380568
C112	C	1.532424	-0.490396	0.119432
C113	C	1.075514	-0.569938	-0.337263
C114	C	1.575514	-0.069938	0.162737
C115	C	1.075480	-0.515331	-0.337253
C116	C	1.575480	-0.015331	0.162747
C117	C	0.988872	-0.515357	-0.423719
C118	C	1.488872	-0.015357	0.076281
C119	C	0.988904	-0.569959	-0.423727
C120	C	1.488904	-0.069959	0.076273
C121	C	1.032231	-0.597248	-0.380496
C122	C	1.532231	-0.097248	0.119504
O123	O	0.952135	-0.656351	-0.460468
O124	O	1.452135	-0.156351	0.039532
O125	O	1.112400	-0.656354	-0.300522
O126	O	1.612400	-0.156354	0.199478
C127	C	1.216142	-0.299815	-0.387904
C128	C	1.716142	0.200185	0.112096
C129	C	1.294498	-0.302256	-0.391057
C130	C	1.794498	0.197744	0.108943
C131	C	1.032410	-0.157720	-0.380559
C132	C	1.532410	0.342280	0.119441
C133	C	1.032470	-0.099608	-0.380582
C134	C	1.532470	0.400392	0.119418
C135	C	1.039685	-0.299761	-0.564379
C136	C	1.539685	0.200239	-0.064379
C137	C	1.042845	-0.302179	-0.642735
C138	C	1.542845	0.197821	-0.142735
C139	C	0.999283	-0.268476	-0.677746
C140	C	1.499283	0.231524	-0.177746
C141	C	1.002250	-0.270753	-0.751369
C142	C	1.502250	0.229247	-0.251369
C143	C	1.048782	-0.306730	-0.789981
C144	C	1.548782	0.193270	-0.289981
C145	C	1.092346	-0.340437	-0.754966
C146	C	1.592346	0.159563	-0.254966
C147	C	1.089376	-0.338163	-0.681343
C148	C	1.589376	0.161837	-0.181343
C149	C	1.062494	-0.317270	-1.010362
C150	C	1.562494	0.182730	-0.510362
C151	C	1.065462	-0.319540	-1.083989
C152	C	1.565462	0.180460	-0.583989
C153	C	0.975364	-0.249857	-1.080388
C154	C	1.475364	0.250143	-0.580388
C155	C	0.972401	-0.247584	-1.006764
C156	C	1.472401	0.252416	-0.506764
C157	C	1.015962	-0.281292	-0.971755
C158	C	1.515962	0.218708	-0.471755
N159	N	1.051817	-0.309056	-0.865236
N160	N	1.551817	0.190944	-0.365236
N161	N	1.012923	-0.278968	-0.896501
N162	N	1.512923	0.221032	-0.396501
C163	C	1.024924	-0.288398	-0.197350
C164	C	1.524924	0.211602	0.302650
C165	C	1.021900	-0.285837	-0.119000
C166	C	1.521900	0.214163	0.381000
H167	H	1.110731	-0.493097	-0.302038
H168	H	1.610731	0.006903	0.197962
H169	H	0.760658	-0.222456	-0.288090
H170	H	1.260658	0.277544	0.211910
C171	C	1.123167	-0.599948	-0.289705
C172	C	1.623167	-0.099948	0.210295
H173	H	1.148934	-0.575856	-0.263951
H174	H	1.648934	-0.075856	0.236049
H175	H	1.154965	-0.623007	-0.317927
H176	H	1.654965	-0.123007	0.182073
H177	H	1.094991	-0.619489	-0.257883
H178	H	1.594991	-0.119489	0.242117
H179	H	0.939899	-0.222414	-1.108900
H180	H	1.439899	0.277586	-0.608900
H181	H	1.130231	-0.369733	-0.786409
H182	H	1.630231	0.130267	-0.286409
H183	H	0.953656	-0.592196	-0.458940
H184	H	1.453656	-0.092196	0.041060
C185	C	1.166546	-0.736467	-0.246508
C186	C	1.666546	-0.236467	0.253492
H187	H	1.192349	-0.760549	-0.220775
H188	H	1.692349	-0.260549	0.279225
H189	H	1.138364	-0.713406	-0.214678
H190	H	1.638364	-0.213406	0.285322
H191	H	1.198323	-0.716927	-0.274738
H192	H	1.698323	-0.216927	0.225262
H193	H	0.438161	-0.369896	-0.478315
H194	H	0.938161	0.130104	0.021685
C195	C	0.954335	-0.233676	-0.789878
C196	C	1.454335	0.266324	-0.289878
H197	H	0.926204	-0.211919	-0.756338
H198	H	1.426204	0.288081	-0.256338
H199	H	0.924754	-0.253602	-0.817354
H200	H	1.424754	0.246398	-0.317354
H201	H	0.982492	-0.212624	-0.819692
H202	H	1.482492	0.287376	-0.319692
H203	H	1.103358	-0.348838	-1.115425
H204	H	1.603358	0.151162	-0.615425
H205	H	0.633620	-0.344872	-0.446028
H206	H	1.133620	0.155128	0.053972
C207	C	1.137293	-0.375235	-0.642828
C208	C	1.637293	0.124765	-0.142828
H209	H	1.128854	-0.368732	-0.593452
H210	H	1.628854	0.131268	-0.093452
H211	H	1.185154	-0.369434	-0.656800
H212	H	1.685154	0.130566	-0.156800
H213	H	1.127419	-0.410415	-0.654465
H214	H	1.627419	0.089585	-0.154465
H215	H	1.110989	-0.995454	-0.302124
H216	H	1.610989	-0.495454	0.197876
C217	C	1.110410	-0.354345	-0.971857
C218	C	1.610410	0.145655	-0.471857
H219	H	1.101974	-0.347845	-0.922480
H220	H	1.601974	0.152155	-0.422480
H221	H	1.158270	-0.348543	-0.985831
H222	H	1.658270	0.151457	-0.485831
H223	H	1.100537	-0.389525	-0.983497
H224	H	1.600537	0.110475	-0.483497
C225	C	0.778210	-0.359311	-0.464650
C226	C	1.278210	0.140689	0.035350
H227	H	0.746811	-0.379070	-0.490155
H228	H	1.246811	0.120930	0.009845
H229	H	0.805817	-0.382118	-0.438779
H230	H	1.305817	0.117882	0.061221
H231	H	0.808191	-0.341183	-0.496567
H232	H	1.308191	0.158817	0.003433
H233	H	1.154223	-0.843318	-0.258876
H234	H	1.654223	-0.343318	0.241124
C235	C	1.123406	-1.102318	-0.289791
C236	C	1.623406	-0.602318	0.210209
H237	H	1.117220	-1.138749	-0.295996
H238	H	1.617220	-0.638749	0.204004
H239	H	1.111212	-1.091610	-0.242003
H240	H	1.611212	-0.591610	0.257997
H241	H	1.171182	-1.095127	-0.302052
H242	H	1.671182	-0.595127	0.197948
C243	C	0.941528	-1.102347	-0.471367
C244	C	1.441528	-0.602347	0.028633
H245	H	0.915733	-1.078268	-0.497111
H246	H	1.415733	-0.578268	0.002889
H247	H	0.909755	-1.121894	-0.443149
H248	H	1.409755	-0.621894	0.056851
H249	H	0.969724	-1.125402	-0.503199
H250	H	1.469724	-0.625402	-0.003199
H251	H	0.953854	-0.995491	-0.459005
H252	H	1.453854	-0.495491	0.040995
C253	C	0.898127	-0.851167	-0.514588
C254	C	1.398127	-0.351167	-0.014588
H255	H	0.872338	-0.827086	-0.540333
H256	H	1.372338	-0.327086	-0.040333
H257	H	0.866348	-0.870714	-0.486376
H258	H	1.366348	-0.370714	0.013624
H259	H	0.926326	-0.874223	-0.546417
H260	H	1.426326	-0.374223	-0.046417
C261	C	0.616062	-0.208023	-0.269462
C262	C	1.116062	0.291977	0.230538
H263	H	0.567201	-0.211497	-0.273934
H264	H	1.067201	0.288503	0.226066
H265	H	0.628576	-0.173601	-0.280346
H266	H	1.128576	0.326399	0.219654
H267	H	0.626203	-0.214537	-0.222559
H268	H	1.126203	0.285463	0.277441
H269	H	0.910451	-0.744313	-0.502213
H270	H	1.410451	-0.244313	-0.002213
H271	H	0.934507	-0.218288	-0.975331
H272	H	1.434507	0.281712	-0.475331
H273	H	0.304594	-0.365747	-0.472970
H274	H	0.804594	0.134253	0.027030
H275	H	0.961395	-0.239177	-0.646313
H276	H	1.461395	0.260823	-0.146313
C277	C	0.287040	-0.228894	-0.296412
C278	C	0.787040	0.271106	0.203588
H279	H	0.318435	-0.209123	-0.270917
H280	H	0.818435	0.290877	0.229083
H281	H	0.257057	-0.247016	-0.264496
H282	H	0.757057	0.252984	0.235504
H283	H	0.259435	-0.206090	-0.322296
H284	H	0.759435	0.293910	0.177704
C285	C	0.441638	-0.233699	-0.302587
C286	C	0.941638	0.266301	0.197413
H287	H	0.408098	-0.211927	-0.274481
H288	H	0.908098	0.288073	0.225519
H289	H	0.471475	-0.212672	-0.330751
H290	H	0.971475	0.287328	0.169249
H291	H	0.469090	-0.253613	-0.272970
H292	H	0.969090	0.246387	0.227030
H293	H	0.953603	-0.493128	-0.458912
H294	H	1.453603	0.006872	0.041088
