data_functionalizedCrystal
_audit_creation_method	'MofGen! by Chris Wilmer'
_symmetry_space_group_name_H-M	'P1'
_symmetry_Int_Tables_number	1
_symmetry_cell_setting	triclinic
loop_
_symmetry_equiv_pos_as_xyz
  x,y,z
_cell_length_a	14.560438
_cell_length_b	21.606444
_cell_length_c	21.606444
_cell_angle_alpha	90.000833
_cell_angle_beta	119.999908
_cell_angle_gamma	120.006128
loop_
_atom_site_label
_atom_site_type_symbol
_atom_site_fract_x
_atom_site_fract_y
_atom_site_fract_z
Zr1	Zr	-1.005427	0.596111	-0.081272
O2	O	-1.197049	0.497264	-0.180101
O3	O	-0.813806	0.626427	-0.050972
O4	O	-1.005436	0.626401	-0.180100
O5	O	-1.005413	0.497295	0.050881
O6	O	-1.005442	0.728250	-0.180104
O7	O	-1.005419	0.497290	-0.050973
O8	O	-0.662651	0.728298	0.050882
O9	O	-1.348203	0.497248	-0.180105
O10	O	-0.892627	0.715349	-0.038057
O11	O	-0.892618	0.639344	0.037958
O12	O	-1.118237	0.639312	-0.114073
O13	O	-1.118227	0.563307	-0.038058
Zr14	Zr	-1.005427	0.758558	0.081168
Zr15	Zr	-1.005438	0.758550	-0.081278
Zr16	Zr	-1.005417	0.596120	0.081173
Zr17	Zr	-1.246501	0.596086	-0.081279
Zr18	Zr	-0.764354	0.758583	0.081174
O19	O	-1.197049	0.728242	0.050868
O20	O	-1.197064	0.728230	-0.180109
O21	O	-1.197034	0.497275	0.050876
O22	O	-0.813806	0.857406	0.179996
O23	O	-0.813821	0.857394	-0.050981
O24	O	-0.813791	0.626439	0.180004
O25	O	-1.005442	0.857374	-0.050986
O26	O	-1.005419	0.728269	0.179995
O27	O	-1.005413	0.626419	0.179999
O28	O	-1.005436	0.857379	0.050868
O29	O	-1.348212	0.626365	-0.180110
O30	O	-0.662643	0.728305	0.180005
O31	O	-0.662651	0.857422	0.180000
O32	O	-0.662660	0.857415	0.050878
O33	O	-1.348195	0.497254	-0.050982
O34	O	-1.348203	0.626371	-0.050987
O35	O	-0.892618	0.715357	0.113968
O36	O	-0.892627	0.791362	0.037953
O37	O	-1.118237	0.715326	-0.038063
O38	O	-1.118227	0.639320	0.037952
C39	C	-0.703881	0.677366	-0.000044
C40	C	-0.601539	0.677377	-0.000041
C41	C	-0.470178	0.733492	0.056070
C42	C	-0.374043	0.733471	0.056069
C43	C	-0.540644	0.621218	-0.056161
C44	C	-0.636777	0.621236	-0.056156
C45	C	-0.142597	0.775374	0.148981
C46	C	-0.011229	0.831499	0.205087
C47	C	0.031124	0.906562	0.229124
C48	C	-0.057887	0.925512	0.197045
C49	C	-0.189252	0.869390	0.140934
C50	C	-0.231602	0.794320	0.116910
C51	C	-0.868218	0.579340	-0.149068
C52	C	-0.999585	0.523221	-0.205183
C53	C	-1.041947	0.448156	-0.229227
C54	C	-0.952943	0.429206	-0.197162
C55	C	-0.821575	0.485325	-0.141047
C56	C	-0.779220	0.560390	-0.117002
C57	C	-1.005415	0.474149	-0.000045
C58	C	-1.005410	0.405189	-0.000042
C59	C	-0.306962	0.677315	-0.000056
C60	C	-0.409270	0.677338	-0.000047
C61	C	-0.887645	0.412481	0.039634
C62	C	-0.887649	0.347683	0.039635
C63	C	-1.005419	0.275596	-0.000046
C64	C	-1.123193	0.268306	-0.039724
C65	C	-1.123188	0.333102	-0.039720
C66	C	-1.123215	0.006988	-0.039741
C67	C	-1.123211	-0.057810	-0.039744
C68	C	-0.887676	0.021569	0.039614
C69	C	-0.887671	0.086365	0.039618
C70	C	-1.005444	0.079070	-0.000056
C71	C	-1.005439	0.149331	-0.000055
C72	C	-1.005425	0.205335	-0.000052
C73	C	-1.005440	0.677324	-0.203247
C74	C	-1.005445	0.677321	-0.272209
C75	C	-1.005440	0.880521	-0.000060
C76	C	-1.005445	0.949480	-0.000062
C77	C	-1.123210	0.637630	-0.344288
C78	C	-1.123206	0.637637	-0.409082
C79	C	-1.005436	0.677330	-0.401797
C80	C	-0.887662	0.717026	-0.329712
C81	C	-0.887667	0.717023	-0.264918
C82	C	-0.887640	0.717038	-0.591015
C83	C	-0.887644	0.717035	-0.655815
C84	C	-1.123179	0.637651	-0.735179
C85	C	-1.123184	0.637649	-0.670385
C86	C	-1.005410	0.677347	-0.598306
C87	C	-1.005416	0.677341	-0.528048
C88	C	-1.005430	0.677332	-0.472053
C89	C	-1.005415	0.677345	0.203142
C90	C	-1.005410	0.677349	0.272105
C91	C	-0.703894	0.880552	-0.000051
C92	C	-0.601556	0.949522	-0.000051
C93	C	-0.703868	0.677377	0.203151
C94	C	-0.601521	0.677391	0.272116
C95	C	-0.703881	0.880563	0.203143
C96	C	-0.601539	0.949536	0.272106
C97	C	-1.306974	0.474107	-0.203248
C98	C	-1.409316	0.405133	-0.272211
C99	C	-1.306961	0.474117	-0.000053
C100	C	-1.409299	0.405147	-0.000054
C101	C	-1.306987	0.677293	-0.203255
C102	C	-1.409334	0.677278	-0.272220
C103	C	-0.553497	0.942234	-0.039734
C104	C	-0.457353	1.007032	-0.039749
C105	C	-0.409263	1.079119	-0.000076
C106	C	-0.457332	1.086406	0.039608
C107	C	-0.553481	1.021609	0.039618
C108	C	-0.553458	0.717076	0.344186
C109	C	-0.457306	0.717086	0.408992
C110	C	-0.409212	0.677416	0.401727
C111	C	-0.457285	0.637726	0.329649
C112	C	-0.553442	0.637712	0.264845
C113	C	-0.553483	1.021608	0.264812
C114	C	-0.457335	1.086422	0.329604
C115	C	-0.409238	1.079163	0.401688
C116	C	-0.457303	1.007084	0.408981
C117	C	-0.553456	0.942271	0.344190
C118	C	-1.457384	0.333061	-0.264917
C119	C	-1.553562	0.268247	-0.329709
C120	C	-1.601664	0.275506	-0.401793
C121	C	-1.553592	0.347585	-0.409085
C122	C	-1.457423	0.412398	-0.344294
C123	C	-1.457368	0.412436	0.039623
C124	C	-1.553538	0.347637	0.039620
C125	C	-1.601632	0.275550	-0.000056
C126	C	-1.553559	0.268263	-0.039737
C127	C	-1.457396	0.333061	-0.039738
C128	C	-1.457397	0.716956	-0.264931
C129	C	-1.553550	0.716958	-0.329725
C130	C	-1.601644	0.677276	-0.401808
C131	C	-1.553571	0.637597	-0.409096
C132	C	-1.457414	0.637601	-0.344302
H133	H	-0.749105	0.469891	-0.114942
N134	N	-0.405399	0.594946	0.321819
H135	H	-0.337186	0.600987	0.373812
H136	H	-0.365563	0.615790	0.293175
H137	H	-0.987437	0.368082	-0.216743
H138	H	-0.418163	1.145108	0.071908
H139	H	-1.592769	0.353487	-0.467784
N140	N	-0.305492	0.677437	0.471624
H141	H	-0.338961	0.654858	0.502810
H142	H	-0.225746	0.731204	0.502748
N143	N	-1.405578	0.490132	-0.352167
H144	H	-1.450647	0.484888	-0.407665
H145	H	-1.309051	0.518751	-0.327018
N146	N	-1.405509	0.490181	0.082418
H147	H	-1.450570	0.484955	0.107545
H148	H	-1.422246	0.518788	0.045981
H149	H	-0.330972	1.131875	-0.000089
H150	H	-1.219083	0.209606	-0.072029
N151	N	-1.095585	0.543659	-0.239774
H152	H	-1.096246	0.565575	-0.198828
H153	H	-1.185176	0.496690	-0.278979
H154	H	-1.592663	0.353586	0.071936
N155	N	-1.405538	0.325190	-0.082521
H156	H	-1.337318	0.377173	-0.076505
H157	H	-1.478980	0.296525	-0.138010
N158	N	-0.405447	0.759907	0.486727
H159	H	-0.422185	0.723526	0.515388
H160	H	-0.450519	0.785041	0.481429
H161	H	-0.592629	1.027533	0.206123
N162	N	-0.760614	0.490228	0.082430
H163	H	-0.709126	0.496302	0.137938
H164	H	-0.778579	0.530126	0.076354
N165	N	-0.605344	0.594861	0.187113
H166	H	-0.560300	0.569721	0.192351
H167	H	-0.588653	0.631253	0.158458
N168	N	-1.250212	0.325234	-0.082521
H169	H	-1.255462	0.350350	-0.122448
H170	H	-1.255383	0.350337	-0.046077
H171	H	-1.418225	0.327137	-0.206228
N172	N	-0.405503	1.164158	0.321729
H173	H	-0.450557	1.158916	0.266232
H174	H	-0.308972	1.192786	0.346889
N175	N	-0.305530	1.149072	0.471567
H176	H	-0.282390	1.195828	0.456001
H177	H	-0.225797	1.149051	0.502729
H178	H	-0.592598	1.027554	0.071937
N179	N	-1.605395	0.190511	-0.321834
H180	H	-1.560314	0.195754	-0.266336
H181	H	-1.588671	0.161894	-0.346991
H182	H	-1.592680	0.749268	-0.323776
N183	N	-0.605255	0.864539	0.352065
H184	H	-0.673463	0.824575	0.300087
H185	H	-0.645073	0.858532	0.380721
N186	N	-1.605420	0.190509	-0.082513
H187	H	-1.645332	0.184409	-0.138026
H188	H	-1.673570	0.150623	-0.076419
H189	H	-1.219120	-0.116509	-0.072058
N190	N	-1.405538	0.759758	-0.187190
H191	H	-1.450583	0.784893	-0.192415
H192	H	-1.309007	0.799654	-0.158576
N193	N	-1.250247	0.594849	-0.486813
H194	H	-1.301759	0.539335	-0.492900
H195	H	-1.232310	0.600932	-0.526725
H196	H	-1.679971	0.222725	-0.454544
H197	H	-0.418129	1.001185	0.467680
H198	H	-1.679933	0.222794	-0.000049
N199	N	-1.705344	0.677284	-0.471689
H200	H	-1.728486	0.708445	-0.456126
H201	H	-1.785080	0.623522	-0.502855
H202	H	-1.148918	0.402464	-0.274926
H203	H	-1.592744	0.605290	-0.467794
H204	H	-1.418291	0.605287	-0.350248
H205	H	-0.441479	0.779203	0.101763
H206	H	-0.023385	0.986638	0.216615
N207	N	-0.285258	0.889819	0.106331
H208	H	-0.238496	0.945890	0.130068
H209	H	-0.354088	0.860192	0.115820
N210	N	0.172812	0.967100	0.289632
H211	H	0.222771	0.943706	0.306302
H212	H	0.181879	0.990667	0.334467
H213	H	0.061238	0.816063	0.231204
H214	H	-0.177076	0.714252	0.129422
H215	H	-0.569320	0.575511	-0.101848
H216	H	-0.592606	0.749380	0.350116
N217	N	-0.760631	0.355546	0.082429
H218	H	-0.686025	0.411046	0.107563
H219	H	-0.755512	0.330388	0.045993
N220	N	-0.822526	0.660306	-0.123126
H221	H	-0.898842	0.663795	-0.151959
H222	H	-0.755714	0.694035	-0.132954
H223	H	-0.791771	0.145060	0.071928
H224	H	-0.791779	0.027502	0.071921
H225	H	-1.219114	0.001038	-0.072060
H226	H	-1.219112	0.605302	-0.350228
H227	H	-1.219084	0.605323	-0.676324
N228	N	-1.250211	0.594833	-0.812924
H229	H	-1.232345	0.600858	-0.852867
H230	H	-1.301648	0.615656	-0.818927
N231	N	-0.760609	0.759853	-0.513283
H232	H	-0.709126	0.739044	-0.507216
H233	H	-0.778567	0.753826	-0.473381
H234	H	-0.791735	0.749361	-0.649875
H235	H	-0.791772	0.749349	-0.323785
N236	N	-0.760647	0.759837	-0.187175
H237	H	-0.709150	0.739036	-0.181095
H238	H	-0.778629	0.753803	-0.147282
H239	H	-0.592651	0.883543	-0.072050
H240	H	-0.418228	1.001084	-0.072064
