data_functionalizedCrystal
_audit_creation_method	'MofGen! by Chris Wilmer'
_symmetry_space_group_name_H-M	'P1'
_symmetry_Int_Tables_number	1
_symmetry_cell_setting	triclinic
loop_
_symmetry_equiv_pos_as_xyz
  x,y,z
_cell_length_a	15.995292
_cell_length_b	15.995350
_cell_length_c	9.730217
_cell_angle_alpha	89.998981
_cell_angle_beta	89.997417
_cell_angle_gamma	83.480495
loop_
_atom_site_label
_atom_site_type_symbol
_atom_site_fract_x
_atom_site_fract_y
_atom_site_fract_z
O1	O	1.111012	0.107693	-0.114320
O2	O	0.867230	0.121072	-0.114314
O3	O	0.995785	-0.007507	-0.114316
O4	O	0.982457	0.236272	-0.114318
O5	O	0.995781	-0.007508	0.114264
O6	O	0.867226	0.121071	0.114266
O7	O	1.111008	0.107692	0.114260
Zn8	Zn	0.989117	0.114381	0.150555
Zn9	Zn	0.989122	0.114383	-0.150609
O10	O	0.982453	0.236270	0.114262
C11	C	0.836033	0.120527	-0.000023
C12	C	0.743080	0.118894	-0.000021
C13	C	0.405341	0.112893	-0.000037
C14	C	0.428654	0.205697	-0.000548
C15	C	0.525329	0.207461	-0.000027
C16	C	0.572897	0.115871	-0.000030
C17	C	0.543793	0.069472	0.130497
C18	C	0.447003	0.068355	0.130600
C19	C	0.447152	0.066461	-0.129338
C20	C	0.543644	0.069901	-0.131058
C21	C	0.667593	0.117549	-0.000021
C22	C	0.310646	0.111212	-0.000036
C23	C	0.995232	-0.038702	-0.000029
C24	C	0.993580	-0.131652	-0.000036
C25	C	0.987648	-0.469398	-0.000032
C26	C	0.896094	-0.421945	-0.000542
C27	C	0.897746	-0.325255	-0.000027
C28	C	0.990591	-0.301838	-0.000035
C29	C	1.035746	-0.342926	0.130492
C30	C	1.033446	-0.439561	0.130602
C31	C	1.035342	-0.439918	-0.129337
C32	C	1.035320	-0.342973	-0.131062
C33	C	0.992259	-0.207141	-0.000032
C34	C	0.985983	-0.564095	-0.000025
C35	C	1.142206	0.108237	-0.000034
C36	C	1.235159	0.109870	-0.000045
C37	C	0.983006	0.267466	-0.000029
C38	C	0.984658	0.360416	-0.000030
N39	N	0.989119	0.114380	0.356091
N40	N	0.989126	0.114378	-0.356146
C41	C	1.103001	0.000556	0.356080
C42	C	1.159947	-0.056353	0.428015
C43	C	1.159956	-0.056353	0.571894
C44	C	1.103010	0.000560	0.643843
C45	C	1.046064	0.057469	0.571909
C46	C	1.046063	0.057465	0.428026
C47	C	0.932180	0.171287	0.571920
C48	C	0.932174	0.171293	0.428040
C49	C	0.875234	0.228200	0.643869
C50	C	0.818290	0.285115	0.571934
C51	C	0.818285	0.285113	0.428046
C52	C	0.875227	0.228202	0.356106
H53	H	0.576615	0.003049	-0.138943
F54	F	1.220548	-0.116924	0.351436
F55	F	0.994750	-0.305824	0.257463
H56	H	0.543731	0.244017	0.093698
H57	H	0.420184	0.100488	0.228173
F58	F	0.848350	-0.447827	0.120791
H59	H	1.103014	0.000549	0.760998
F60	F	1.220560	-0.116926	0.648453
H61	H	1.102845	-0.471693	-0.130220
H62	H	0.875240	0.228194	0.761023
F63	F	0.550202	0.254954	-0.122325
H64	H	0.875231	0.228199	0.238951
H65	H	1.103007	0.000558	0.238926
F66	F	0.757687	0.345674	0.648513
F67	F	0.757669	0.345681	0.351500
F68	F	0.428867	-0.022826	-0.130492
H69	H	0.562216	0.103683	-0.227620
F70	F	0.427981	-0.020580	0.138409
H71	H	1.103027	-0.327625	-0.138949
H72	H	0.400659	0.241469	-0.094155
H73	H	0.575661	0.002074	0.135348
F74	F	0.390722	0.252196	0.121111
H75	H	0.859502	-0.440469	-0.094145
H76	H	0.563851	0.101692	0.227636
F77	F	0.990400	-0.463476	0.258137
F78	F	0.410144	0.104390	-0.258651
F79	F	0.851351	-0.288092	-0.122325
H80	H	1.100664	-0.471823	0.136518
F81	F	0.851032	-0.288820	0.122480
H82	H	1.103957	-0.328814	0.135341
F83	F	0.996213	-0.466747	-0.258649
F84	F	0.992500	-0.306958	-0.257292
