data_functionalizedCrystal
_audit_creation_method	'MofGen! by Chris Wilmer'
_symmetry_space_group_name_H-M	'P1'
_symmetry_Int_Tables_number	1
_symmetry_cell_setting	triclinic
loop_
_symmetry_equiv_pos_as_xyz
  x,y,z
_cell_length_a	16.625547
_cell_length_b	16.625546
_cell_length_c	15.296720
_cell_angle_alpha	99.642470
_cell_angle_beta	99.657115
_cell_angle_gamma	90.022405
loop_
_atom_site_label
_atom_site_type_symbol
_atom_site_fract_x
_atom_site_fract_y
_atom_site_fract_z
Zn1	Zn	1.153714	-0.399894	-0.510148
Zn2	Zn	1.487047	-0.066561	-0.176815
Zn3	Zn	1.820381	0.266773	0.156519
Zn4	Zn	1.176968	-0.511408	-0.359295
Zn5	Zn	1.510301	-0.178075	-0.025962
Zn6	Zn	1.843635	0.155258	0.307371
Zn7	Zn	1.042225	-0.376595	-0.359304
Zn8	Zn	1.375558	-0.043261	-0.025971
Zn9	Zn	1.708892	0.290072	0.307362
Zn10	Zn	1.018856	-0.534678	-0.510083
Zn11	Zn	1.352190	-0.201345	-0.176750
Zn12	Zn	1.685523	0.131988	0.156583
O13	O	1.097941	-0.455644	-0.434708
O14	O	1.431274	-0.122311	-0.101374
O15	O	1.764607	0.211023	0.231959
O16	O	1.269627	-0.414699	-0.490160
O17	O	1.602961	-0.081366	-0.156827
O18	O	1.936294	0.251968	0.176506
O19	O	1.178606	-0.474036	-0.233063
O20	O	1.511939	-0.140702	0.100271
O21	O	1.845272	0.192631	0.433604
O22	O	1.057062	-0.266858	-0.379345
O23	O	1.390396	0.066475	-0.046012
O24	O	1.723729	0.399809	0.287322
O25	O	1.286712	-0.496628	-0.379329
O26	O	1.620045	-0.163295	-0.045996
O27	O	1.953379	0.170039	0.287337
O28	O	1.138973	-0.283976	-0.490169
O29	O	1.472306	0.049358	-0.156836
O30	O	1.805639	0.382691	0.176497
O31	O	1.079611	-0.374989	-0.233069
O32	O	1.412944	-0.041655	0.100264
O33	O	1.746277	0.291678	0.433597
O34	O	0.926296	-0.397553	-0.379282
O35	O	1.259630	-0.064219	-0.045949
O36	O	1.592963	0.269114	0.287384
O37	O	1.017234	-0.536288	-0.636326
O38	O	1.350567	-0.202955	-0.302992
O39	O	1.683900	0.130378	0.030341
O40	O	0.909127	-0.513696	-0.490059
O41	O	1.242461	-0.180363	-0.156726
O42	O	1.575794	0.152971	0.176608
O43	O	1.116313	-0.437263	-0.636373
O44	O	1.449646	-0.103930	-0.303040
O45	O	1.782980	0.229404	0.030294
O46	O	1.155946	-0.627323	-0.379267
O47	O	1.489279	-0.293989	-0.045933
O48	O	1.822613	0.039344	0.287400
O49	O	1.039782	-0.644419	-0.490050
O50	O	1.373115	-0.311086	-0.156717
O51	O	1.706449	0.022248	0.176617
C52	C	0.888457	-0.455622	-0.434665
C53	C	1.221790	-0.122288	-0.101332
C54	C	1.555123	0.211045	0.232002
C55	C	0.798835	-0.455635	-0.434668
C56	C	1.132168	-0.122302	-0.101335
C57	C	1.465502	0.211032	0.231998
C58	C	0.726051	-0.455638	-0.434679
C59	C	1.059384	-0.122305	-0.101346
C60	C	1.392717	0.211029	0.231987
C61	C	0.634739	-0.455646	-0.434702
C62	C	0.968072	-0.122313	-0.101369
C63	C	1.301405	0.211021	0.231965
C64	C	0.561959	-0.455657	-0.434725
C65	C	0.895292	-0.122324	-0.101392
C66	C	1.228625	0.211010	0.231942
C67	C	0.470641	-0.455666	-0.434747
C68	C	0.803975	-0.122332	-0.101413
C69	C	1.137308	0.211001	0.231920
C70	C	1.097870	-0.665129	-0.434670
C71	C	1.431204	-0.331796	-0.101337
C72	C	1.764537	0.001538	0.231997
C73	C	1.097909	-0.754752	-0.434684
C74	C	1.431243	-0.421419	-0.101351
C75	C	1.764576	-0.088086	0.231983
C76	C	1.098035	-1.082942	-0.434778
C77	C	1.431369	-0.749609	-0.101445
C78	C	1.764702	-0.416276	0.231889
C79	C	1.097997	-0.991630	-0.434754
C80	C	1.431331	-0.658297	-0.101421
C81	C	1.764664	-0.324964	0.231912
C82	C	1.097972	-0.918850	-0.434730
C83	C	1.431305	-0.585517	-0.101397
C84	C	1.764638	-0.252183	0.231936
C85	C	1.097935	-0.827532	-0.434708
C86	C	1.431268	-0.494199	-0.101374
C87	C	1.764602	-0.160866	0.231959
C88	C	1.308243	-0.455667	-0.434751
C89	C	1.641576	-0.122334	-0.101418
C90	C	1.974910	0.211000	0.231916
C91	C	1.397861	-0.455677	-0.434769
C92	C	1.731195	-0.122343	-0.101436
C93	C	2.064528	0.210990	0.231897
C94	C	1.061573	-0.491970	-0.669996
C95	C	1.394906	-0.158637	-0.336662
C96	C	1.728239	0.174696	-0.003329
C97	C	1.046075	-0.507450	-0.770261
C98	C	1.379408	-0.174117	-0.436928
C99	C	1.712741	0.159216	-0.103595
C100	C	1.098030	-0.245344	-0.434765
C101	C	1.431364	0.087989	-0.101432
C102	C	1.764697	0.421323	0.231901
C103	C	1.098069	-0.155727	-0.434790
C104	C	1.431402	0.177607	-0.101457
C105	C	1.764735	0.510940	0.231877
C106	C	1.208737	-0.344864	-1.052993
C107	C	1.542070	-0.011530	-0.719659
C108	C	1.875404	0.321803	-0.386326
C109	C	1.223303	-0.330321	-0.958788
C110	C	1.556636	0.003013	-0.625455
C111	C	1.889970	0.336346	-0.292121
C112	C	1.178997	-0.374602	-0.911652
C113	C	1.512330	-0.041268	-0.578318
C114	C	1.845664	0.292065	-0.244985
C115	C	1.120123	-0.433429	-0.958729
C116	C	1.453456	-0.100095	-0.625396
C117	C	1.786789	0.233238	-0.292063
C118	C	1.105560	-0.447977	-1.052943
C119	C	1.438893	-0.114644	-0.719610
C120	C	1.772226	0.218689	-0.386276
C121	C	1.075820	-0.477715	-0.911602
C122	C	1.409153	-0.144382	-0.578269
C123	C	1.742487	0.188951	-0.244935
C124	C	1.016946	-0.536542	-0.958680
C125	C	1.350279	-0.203209	-0.625346
C126	C	1.683612	0.130124	-0.292013
C127	C	1.002385	-0.551088	-1.052884
C128	C	1.335718	-0.217755	-0.719551
C129	C	1.669051	0.115579	-0.386217
C130	C	1.046691	-0.506807	-1.100020
C131	C	1.380024	-0.173474	-0.766687
C132	C	1.713357	0.159859	-0.433354
C133	C	1.090383	-0.463166	-0.817388
C134	C	1.423716	-0.129833	-0.484055
C135	C	1.757050	0.203500	-0.150722
C136	C	0.987206	-0.566280	-0.817339
C137	C	1.320539	-0.232947	-0.484005
C138	C	1.653872	0.100386	-0.150672
C139	C	0.972640	-0.580823	-0.911543
C140	C	1.305973	-0.247490	-0.578210
C141	C	1.639306	0.085843	-0.244877
C142	C	1.134214	-0.419401	-0.200335
C143	C	1.467547	-0.086067	0.132998
C144	C	1.800880	0.247266	0.466331
C145	C	1.149868	-0.403693	-0.100070
C146	C	1.483201	-0.070360	0.233263
C147	C	1.816535	0.262973	0.566597
H148	H	1.138318	-0.415268	-0.779067
H149	H	1.471652	-0.081935	-0.445734
H150	H	1.804985	0.251398	-0.112400
H151	H	1.034834	-0.518645	-1.176730
H152	H	1.368168	-0.185312	-0.843396
H153	H	1.701501	0.148022	-0.510063
F154	F	1.194500	-0.359121	-0.811390
F155	F	1.527833	-0.025787	-0.478057
F156	F	1.861167	0.307546	-0.144724
F157	F	0.909984	-0.643430	-0.961658
F158	F	1.243317	-0.310097	-0.628324
F159	F	1.576650	0.023236	-0.294991
F160	F	0.939737	-0.613709	-1.102985
F161	F	1.273070	-0.280376	-0.769652
F162	F	1.606403	0.052958	-0.436318
H163	H	1.244809	-0.308821	-1.091380
H164	H	1.578142	0.024512	-0.758046
H165	H	1.911476	0.357846	-0.424713
F166	F	1.285959	-0.267716	-0.908692
F167	F	1.619293	0.065618	-0.575358
F168	F	1.952626	0.398951	-0.242025
F169	F	0.940053	-0.613414	-0.767178
F170	F	1.273386	-0.280081	-0.433844
F171	F	1.606719	0.053252	-0.100511
