data_functionalizedCrystal
_audit_creation_method	'MofGen! by Chris Wilmer'
_symmetry_space_group_name_H-M	'P1'
_symmetry_Int_Tables_number	1
_symmetry_cell_setting	triclinic
loop_
_symmetry_equiv_pos_as_xyz
  x,y,z
_cell_length_a	13.897449
_cell_length_b	16.120484
_cell_length_c	13.897441
_cell_angle_alpha	92.866498
_cell_angle_beta	89.981404
_cell_angle_gamma	92.926780
loop_
_atom_site_label
_atom_site_type_symbol
_atom_site_fract_x
_atom_site_fract_y
_atom_site_fract_z
Zn1	Zn	1.455161	-0.331860	-0.564824
Zn2	Zn	1.788494	0.001473	-0.231491
Zn3	Zn	2.121827	0.334807	0.101843
Zn4	Zn	1.446859	-0.471289	-0.411694
Zn5	Zn	1.780192	-0.137956	-0.078361
Zn6	Zn	2.113525	0.195377	0.254972
Zn7	Zn	1.293854	-0.331897	-0.403545
Zn8	Zn	1.627187	0.001436	-0.070211
Zn9	Zn	1.960520	0.334769	0.263122
Zn10	Zn	1.285633	-0.471237	-0.572944
Zn11	Zn	1.618966	-0.137904	-0.239610
Zn12	Zn	1.952299	0.195430	0.093723
O13	O	1.370376	-0.401571	-0.488252
O14	O	1.703710	-0.068238	-0.154918
O15	O	2.037043	0.265096	0.178415
O16	O	1.589041	-0.350362	-0.544524
O17	O	1.922374	-0.017029	-0.211190
O18	O	2.255707	0.316305	0.122143
O19	O	1.426528	-0.452836	-0.275634
O20	O	1.759862	-0.119503	0.057700
O21	O	2.093195	0.213830	0.391033
O22	O	1.322166	-0.215227	-0.418130
O23	O	1.655499	0.118107	-0.084797
O24	O	1.988833	0.451440	0.248537
O25	O	1.582941	-0.452800	-0.432020
O26	O	1.916274	-0.119467	-0.098686
O27	O	2.249608	0.213867	0.234647
O28	O	1.440678	-0.215199	-0.536621
O29	O	1.774011	0.118134	-0.203288
O30	O	2.107344	0.451467	0.130045
O31	O	1.314116	-0.350426	-0.269646
O32	O	1.647449	-0.017092	0.063687
O33	O	1.980783	0.316241	0.397020
O34	O	1.157782	-0.350375	-0.426003
O35	O	1.491115	-0.017041	-0.092670
O36	O	1.824448	0.316292	0.240663
O37	O	1.308155	-0.452711	-0.706846
O38	O	1.641488	-0.119377	-0.373513
O39	O	1.974821	0.213956	-0.040180
O40	O	1.151742	-0.452747	-0.550460
O41	O	1.485075	-0.119414	-0.217127
O42	O	1.818409	0.213920	0.116207
O43	O	1.432706	-0.350311	-0.700881
O44	O	1.766040	-0.016978	-0.367547
O45	O	2.099373	0.316355	-0.034214
O46	O	1.418557	-0.587948	-0.439893
O47	O	1.751890	-0.254615	-0.106560
O48	O	2.085223	0.078719	0.226773
O49	O	1.300105	-0.587910	-0.558363
O50	O	1.633438	-0.254576	-0.225029
O51	O	1.966771	0.078757	0.108304
C52	C	1.119763	-0.401560	-0.488229
C53	C	1.453096	-0.068227	-0.154896
C54	C	1.786429	0.265107	0.178438
C55	C	1.012548	-0.401575	-0.488243
C56	C	1.345881	-0.068242	-0.154910
C57	C	1.679214	0.265091	0.178423
C58	C	0.816253	-0.401578	-0.488269
C59	C	1.149586	-0.068245	-0.154936
C60	C	1.482919	0.265089	0.178398
C61	C	0.925485	-0.401574	-0.488252
C62	C	1.258819	-0.068241	-0.154919
C63	C	1.592152	0.265093	0.178415
C64	C	1.357564	-0.618179	-0.500914
C65	C	1.690897	-0.284846	-0.167581
C66	C	2.024231	0.048488	0.165752
C67	C	1.352171	-0.710845	-0.506364
C68	C	1.685504	-0.377511	-0.173030
C69	C	2.018838	-0.044178	0.160303
C70	C	1.342330	-0.880506	-0.516333
C71	C	1.675664	-0.547173	-0.182999
C72	C	2.008997	-0.213840	0.150334
C73	C	1.398595	-0.921795	-0.460187
C74	C	1.731928	-0.588462	-0.126853
C75	C	2.065262	-0.255128	0.206480
C76	C	1.393120	-1.016201	-0.465733
C77	C	1.726453	-0.682867	-0.132400
C78	C	2.059786	-0.349534	0.200933
C79	C	1.347805	-0.786092	-0.510787
C80	C	1.681138	-0.452759	-0.177454
C81	C	2.014471	-0.119426	0.155880
C82	C	1.621969	-0.401583	-0.488275
C83	C	1.955302	-0.068249	-0.154942
C84	C	2.288635	0.265084	0.178392
C85	C	1.729182	-0.401588	-0.488285
C86	C	2.062516	-0.068254	-0.154952
C87	C	2.395849	0.265079	0.178382
C88	C	1.370439	-0.401501	-0.739841
C89	C	1.703773	-0.068168	-0.406507
C90	C	2.037106	0.265166	-0.073174
C91	C	1.370466	-0.401471	-0.847053
C92	C	1.703800	-0.068138	-0.513720
C93	C	2.037133	0.265196	-0.180386
C94	C	1.383265	-0.184117	-0.475561
C95	C	1.716598	0.149216	-0.142227
C96	C	2.049932	0.482550	0.191106
C97	C	1.388757	-0.091451	-0.470153
C98	C	1.722091	0.241882	-0.136819
C99	C	2.055424	0.575215	0.196514
C100	C	1.370488	-0.401448	-0.934121
C101	C	1.703821	-0.068114	-0.600788
C102	C	2.037154	0.265219	-0.267455
C103	C	1.370517	-0.401410	-1.043352
C104	C	1.703851	-0.068077	-0.710018
C105	C	2.037184	0.265257	-0.376685
C106	C	1.370372	-0.401581	-0.237638
C107	C	1.703706	-0.068247	0.095695
C108	C	2.037039	0.265086	0.429029
C109	C	1.370546	-0.401376	-0.130412
C110	C	1.703880	-0.068042	0.202921
C111	C	2.037213	0.265291	0.536254
H112	H	1.290052	-0.916056	-0.568562
H113	H	1.623386	-0.582723	-0.235228
H114	H	1.956719	-0.249390	0.098105
O115	O	1.460878	-0.879260	-0.397886
O116	O	1.794211	-0.545926	-0.064553
O117	O	2.127545	-0.212593	0.268781
C118	C	1.523247	-0.745015	-0.335549
C119	C	1.856581	-0.411681	-0.002216
C120	C	2.189914	-0.078348	0.331118
C121	C	1.452662	-0.793086	-0.406131
C122	C	1.785996	-0.459753	-0.072798
C123	C	2.119329	-0.126420	0.260536
H124	H	1.516643	-0.675335	-0.342205
H125	H	1.849977	-0.342002	-0.008872
H126	H	2.183310	-0.008669	0.324461
H127	H	1.505371	-0.762082	-0.258720
H128	H	1.838704	-0.428749	0.074613
H129	H	2.172038	-0.095416	0.407947
H130	H	1.600041	-0.762048	-0.353518
H131	H	1.933374	-0.428715	-0.020184
H132	H	2.266708	-0.095381	0.313149
H133	H	1.375844	-0.776079	-0.388251
H134	H	1.709177	-0.442746	-0.054917
H135	H	2.042511	-0.109412	0.278416
H136	H	1.470622	-0.776014	-0.482940
H137	H	1.803955	-0.442681	-0.149606
H138	H	2.137288	-0.109348	0.183727
