data_functionalizedCrystal
_audit_creation_method	'MofGen! by Chris Wilmer'
_symmetry_space_group_name_H-M	'P1'
_symmetry_Int_Tables_number	1
_symmetry_cell_setting	triclinic
loop_
_symmetry_equiv_pos_as_xyz
  x,y,z
_cell_length_a	14.853566
_cell_length_b	13.330367
_cell_length_c	14.853567
_cell_angle_alpha	90.008763
_cell_angle_beta	96.365328
_cell_angle_gamma	90.004068
loop_
_atom_site_label
_atom_site_type_symbol
_atom_site_fract_x
_atom_site_fract_y
_atom_site_fract_z
O1	O	1.196370	0.083349	-0.117686
O2	O	0.933910	0.083364	-0.131708
O3	O	1.072151	0.083359	0.006533
O4	O	1.058130	0.083354	-0.255927
O5	O	1.072130	-0.083488	0.006511
O6	O	0.933889	-0.083483	-0.131730
O7	O	1.196349	-0.083499	-0.117708
Cu8	Cu	1.065117	-0.098725	-0.124721
Cu9	Cu	1.065142	0.098591	-0.124695
O10	O	1.058108	-0.083493	-0.255949
C11	C	0.900311	-0.000057	-0.131084
C12	C	0.800227	-0.000051	-0.129181
C13	C	0.377054	0.090880	-0.121118
C14	C	0.377052	-0.091023	-0.121143
C15	C	0.471086	-0.091020	-0.122930
C16	C	0.518108	-0.000066	-0.123813
C17	C	0.471096	0.090886	-0.122908
C18	C	0.518104	-0.181970	-0.123844
C19	C	0.612144	-0.181971	-0.125632
C20	C	0.659168	-0.091015	-0.126509
C21	C	0.612151	-0.000060	-0.125603
C22	C	0.659173	0.090895	-0.126486
C23	C	0.612158	0.181851	-0.125574
C24	C	0.518121	0.181841	-0.123785
C25	C	0.753205	-0.091006	-0.128298
C26	C	0.753215	0.090900	-0.128276
N27	N	1.065106	-0.237507	-0.124739
C28	C	1.119898	-0.710124	-0.179458
C29	C	1.010414	-0.710104	-0.069896
C30	C	1.010401	-0.605085	-0.069910
C31	C	1.065138	-0.552581	-0.124698
C32	C	1.119888	-0.605096	-0.179471
C33	C	0.955658	-0.552563	-0.015130
C34	C	0.955644	-0.447538	-0.015141
C35	C	1.010377	-0.395032	-0.069934
C36	C	1.065129	-0.447553	-0.124711
C37	C	1.119866	-0.395049	-0.179499
C38	C	1.174613	-0.447568	-0.234282
C39	C	1.174621	-0.552590	-0.234265
C40	C	1.010369	-0.290011	-0.069951
C41	C	1.119856	-0.290021	-0.179513
C42	C	1.229948	-0.000075	-0.118332
C43	C	1.330032	-0.000075	-0.120235
C44	C	1.071505	-0.000062	0.040111
C45	C	1.069601	-0.000053	0.140194
N46	N	1.065160	0.237372	-0.124670
C47	C	1.058754	-0.000071	-0.289526
C48	C	1.060658	-0.000073	-0.389610
C49	C	0.979435	-0.000067	0.552728
C50	C	1.143668	-0.000076	0.574009
C51	C	1.145458	-0.000070	0.479976
C52	C	1.064236	-0.000064	0.422313
C53	C	0.981223	-0.000064	0.458685
C54	C	1.228470	-0.000081	0.443597
C55	C	1.230263	-0.000076	0.349558
C56	C	1.149040	-0.000063	0.291894
C57	C	1.066023	-0.000061	0.328271
C58	C	0.984801	-0.000055	0.270608
C59	C	0.901784	-0.000047	0.306983
C60	C	0.899999	-0.000050	0.401021
C61	C	1.150824	-0.000059	0.197856
C62	C	0.986588	-0.000052	0.176566
H63	H	1.164426	-0.247280	-0.224133
N64	N	1.319802	-0.000073	0.310337
H65	H	1.324211	0.061782	0.271811
H66	H	1.324149	-0.061959	0.271826
N67	N	0.951333	-0.233368	-0.010865
H68	H	0.907248	-0.189812	-0.050034
H69	H	0.990599	-0.189834	0.033171
N70	N	1.233671	-0.609230	-0.293344
H71	H	1.194479	-0.652829	-0.337390
H72	H	1.277744	-0.652722	-0.254100
N73	N	0.896599	-0.390897	0.043942
H74	H	0.861927	-0.440095	0.078652
H75	H	0.852570	-0.347345	0.004707
H76	H	0.338771	0.164934	-0.120372
N77	N	1.233645	-0.390931	-0.293376
H78	H	1.268329	-0.440131	-0.328079
H79	H	1.277665	-0.347341	-0.254148
H80	H	0.920446	-0.000043	0.129622
N81	N	0.814181	-0.000065	0.244788
H82	H	0.827917	-0.000076	0.179698
H83	H	0.778006	0.061785	0.256571
N84	N	0.467405	0.279931	-0.122802
H85	H	0.421153	0.283978	-0.177903
H86	H	0.511517	0.337500	-0.123596
H87	H	0.832411	-0.000044	0.430646
N88	N	0.803912	-0.189096	-0.129279
H89	H	0.870620	-0.175293	-0.130546
H90	H	0.780235	-0.228808	-0.184820
N91	N	1.316067	-0.000076	0.505789
H92	H	1.368927	-0.000081	0.468478
H93	H	1.318895	-0.061925	0.545264
N94	N	1.178940	-0.766759	-0.238547
H95	H	1.170642	-0.841258	-0.230231
H96	H	1.244482	-0.748387	-0.220857
N97	N	0.662875	0.279952	-0.126520
H98	H	0.639274	0.319718	-0.182042
H99	H	0.729568	0.266067	-0.127760
N100	N	0.889899	-0.000052	0.591952
H101	H	0.901086	-0.000052	0.660274
H102	H	0.854345	-0.061903	0.570858
N103	N	0.662849	-0.280069	-0.126598
H104	H	0.729557	-0.266267	-0.127862
H105	H	0.639176	-0.319792	-0.182134
H106	H	0.338760	-0.165074	-0.120430
H107	H	0.965855	-0.752859	-0.025284
N108	N	0.896632	-0.609188	0.043968
H109	H	0.904944	-0.683688	0.035660
H110	H	0.831086	-0.590848	0.026280
H111	H	1.218415	-0.000073	0.168244
N112	N	0.803924	0.189008	-0.129220
H113	H	0.780318	0.228772	-0.184742
H114	H	0.870619	0.175135	-0.130459
N115	N	0.467393	-0.280067	-0.122902
H116	H	0.400536	-0.266278	-0.122873
H117	H	0.490216	-0.319185	-0.066747
N118	N	1.231269	-0.000099	0.636196
H119	H	1.217540	-0.000106	0.701288
H120	H	1.267452	0.061751	0.624424
