data_functionalizedCrystal
_audit_creation_method	'MofGen! by Chris Wilmer'
_symmetry_space_group_name_H-M	'P1'
_symmetry_Int_Tables_number	1
_symmetry_cell_setting	triclinic
loop_
_symmetry_equiv_pos_as_xyz
  x,y,z
_cell_length_a	14.519709
_cell_length_b	10.540539
_cell_length_c	13.596369
_cell_angle_alpha	89.996161
_cell_angle_beta	90.000291
_cell_angle_gamma	84.102818
loop_
_atom_site_label
_atom_site_type_symbol
_atom_site_fract_x
_atom_site_fract_y
_atom_site_fract_z
O1	O	1.224765	0.166400	-0.081658
O2	O	0.956394	0.185995	-0.081688
O3	O	1.096702	-0.008572	-0.081671
O4	O	1.084457	0.360966	-0.081675
O5	O	1.096688	-0.008582	0.081912
O6	O	0.956380	0.185985	0.081895
O7	O	1.224751	0.166389	0.081924
Zn8	Zn	1.090563	0.176185	0.107882
Zn9	Zn	1.090582	0.176199	-0.107646
O10	O	1.084442	0.360956	0.081908
C11	C	0.922022	0.185077	0.000100
C12	C	0.819626	0.182340	0.000088
C13	C	1.095777	-0.055870	0.000118
C14	C	1.093029	-0.196790	0.000113
C15	C	0.444676	0.172265	0.000133
C16	C	0.548999	0.175063	0.000120
C17	C	0.632148	0.177303	0.000110
C18	C	0.736477	0.180101	0.000099
C19	C	0.987750	-0.379142	-0.000266
C20	C	0.990535	-0.232553	0.000102
C21	C	1.142346	-0.258957	0.093532
C22	C	1.138848	-0.405466	0.093610
C23	C	1.140949	-0.405994	-0.092414
C24	C	1.141893	-0.259022	-0.093649
C25	C	1.259123	0.167308	0.000135
C26	C	1.361519	0.170044	0.000140
C27	C	1.085368	0.408255	0.000116
C28	C	1.088115	0.549175	0.000115
N29	N	1.090557	0.176175	0.254974
N30	N	1.090595	0.176199	-0.254737
C31	C	1.090580	0.176200	0.656265
C32	C	1.090571	0.176198	0.544613
C33	C	1.090569	0.176189	0.455623
C34	C	1.090559	0.176184	0.343964
H35	H	0.951729	-0.189549	-0.066865
C36	C	0.906136	-0.312036	0.147428
C37	C	0.933296	-0.419354	0.089651
H38	H	0.872514	-0.336864	0.202935
H39	H	0.959462	-0.274722	0.168919
H40	H	0.867999	-0.251749	0.109616
H41	H	0.971439	-0.479638	0.127461
H42	H	0.879962	-0.456687	0.068161
C43	C	0.906501	-0.308672	-0.147395
C44	C	0.933097	-0.417188	-0.090704
H45	H	0.872767	-0.332170	-0.203234
H46	H	0.868628	-0.248741	-0.109034
H47	H	0.960076	-0.271524	-0.168378
H48	H	0.879522	-0.454331	-0.069715
H49	H	0.970972	-0.477140	-0.129073
H50	H	0.951446	-0.190402	0.067172
C51	C	1.263565	-0.155429	0.017038
C52	C	1.243955	-0.229814	0.098245
H53	H	1.326292	-0.137431	0.019952
H54	H	1.253625	-0.200629	-0.041809
H55	H	1.224084	-0.077769	0.017909
H56	H	1.283431	-0.307479	0.097370
H57	H	1.253903	-0.184615	0.157107
C58	C	1.239476	-0.603321	-0.096806
C59	C	1.240886	-0.470771	-0.093266
H60	H	1.301171	-0.643313	-0.097334
H61	H	1.207906	-0.630767	-0.040738
H62	H	1.208405	-0.625778	-0.154760
H63	H	1.271950	-0.448313	-0.035308
H64	H	1.272469	-0.443315	-0.149339
H65	H	1.212560	-0.454188	0.097856
H66	H	1.108076	-0.216013	0.163044
H67	H	1.102389	-0.433298	0.163435
H68	H	1.107782	-0.437204	-0.163219
H69	H	1.105808	-0.217791	-0.162758
H70	H	1.216619	-0.235563	-0.099282
