data_functionalizedCrystal
_audit_creation_method	'MofGen! by Chris Wilmer'
_symmetry_space_group_name_H-M	'P1'
_symmetry_Int_Tables_number	1
_symmetry_cell_setting	triclinic
loop_
_symmetry_equiv_pos_as_xyz
  x,y,z
_cell_length_a	19.805407
_cell_length_b	19.805405
_cell_length_c	19.805398
_cell_angle_alpha	90.025822
_cell_angle_beta	90.017356
_cell_angle_gamma	90.026712
loop_
_atom_site_label
_atom_site_type_symbol
_atom_site_fract_x
_atom_site_fract_y
_atom_site_fract_z
Zn1	Zn	-1.034705	0.269508	-0.382747
Zn2	Zn	-0.534705	0.769508	0.117253
Zn3	Zn	-1.034624	0.382693	-0.269559
Zn4	Zn	-0.534624	0.882693	0.230441
Zn5	Zn	-0.921527	0.269522	-0.269569
Zn6	Zn	-0.421527	0.769522	0.230431
Zn7	Zn	-0.921480	0.382659	-0.382703
Zn8	Zn	-0.421480	0.882659	0.117297
O9	O	-0.978084	0.326096	-0.326144
O10	O	-0.478084	0.826096	0.173856
O11	O	-1.129411	0.284531	-0.367747
O12	O	-0.629411	0.784531	0.132253
O13	O	-1.019607	0.367701	-0.174844
O14	O	-0.519607	0.867701	0.325156
O15	O	-0.936593	0.174803	-0.284605
O16	O	-0.436593	0.674803	0.215395
O17	O	-1.129351	0.367688	-0.284588
O18	O	-0.629351	0.867688	0.215412
O19	O	-1.019744	0.174793	-0.367756
O20	O	-0.519744	0.674793	0.132244
O21	O	-0.936515	0.284554	-0.174851
O22	O	-0.436515	0.784554	0.325149
O23	O	-0.826804	0.284521	-0.284562
O24	O	-0.326804	0.784521	0.215438
O25	O	-0.936514	0.367629	-0.477425
O26	O	-0.436514	0.867629	0.022575
O27	O	-0.826770	0.367642	-0.367681
O28	O	-0.326770	0.867642	0.132319
O29	O	-1.019699	0.284498	-0.477458
O30	O	-0.519699	0.784498	0.022542
O31	O	-1.019562	0.477405	-0.284545
O32	O	-0.519562	0.977405	0.215455
O33	O	-0.936436	0.477380	-0.367671
O34	O	-0.436436	0.977380	0.132329
C35	C	-0.802228	0.326079	-0.326118
C36	C	-0.302228	0.826079	0.173882
C37	C	-0.726996	0.326089	-0.326123
C38	C	-0.226996	0.826089	0.173877
C39	C	-0.978004	0.501952	-0.326117
C40	C	-0.478004	1.001952	0.173883
C41	C	-0.978031	0.577184	-0.326128
C42	C	-0.478031	1.077184	0.173872
C43	C	-0.978111	0.326058	-0.502687
C44	C	-0.478111	0.826058	-0.002687
C45	C	-0.978122	0.326042	-0.577919
C46	C	-0.478122	0.826042	-0.077919
C47	C	-0.691652	0.369435	-0.369332
C48	C	-0.191652	0.869435	0.130668
C49	C	-0.620963	0.369435	-0.369339
C50	C	-0.120963	0.869435	0.130661
C51	C	-0.585620	0.326092	-0.326134
C52	C	-0.085620	0.826092	0.173866
C53	C	-0.620970	0.282741	-0.282923
C54	C	-0.120970	0.782741	0.217077
C55	C	-0.691657	0.282738	-0.282919
C56	C	-0.191657	0.782738	0.217081
C57	C	-0.335896	0.282751	-0.282938
C58	C	0.164104	0.782751	0.217062
C59	C	-0.265204	0.282759	-0.282944
C60	C	0.234796	0.782759	0.217056
C61	C	-0.265203	0.369447	-0.369358
C62	C	0.234797	0.869447	0.130642
C63	C	-0.335890	0.369445	-0.369354
C64	C	0.164110	0.869445	0.130646
C65	C	-0.371233	0.326092	-0.326146
C66	C	0.128767	0.826092	0.173854
C67	C	-0.447881	0.326091	-0.326139
C68	C	0.052119	0.826091	0.173861
C69	C	-0.508973	0.326095	-0.326137
C70	C	-0.008973	0.826095	0.173863
C71	C	-0.154627	0.326108	-0.326165
C72	C	0.345373	0.826108	0.173835
C73	C	-0.229859	0.326102	-0.326157
C74	C	0.270141	0.826102	0.173843
C75	C	-1.021357	0.612518	-0.282891
C76	C	-0.521357	1.112518	0.217109
C77	C	-1.021384	0.683207	-0.282908
C78	C	-0.521384	1.183207	0.217092
C79	C	-0.978082	0.718559	-0.326160
C80	C	-0.478082	1.218559	0.173840
C81	C	-0.934755	0.683219	-0.369402
C82	C	-0.434755	1.183219	0.130598
C83	C	-0.934731	0.612532	-0.369388
C84	C	-0.434731	1.112532	0.130612
C85	C	-0.934848	0.968292	-0.369461
C86	C	-0.434848	1.468292	0.130539
C87	C	-0.934873	1.038985	-0.369471
C88	C	-0.434873	1.538985	0.130529
C89	C	-1.021500	1.038967	-0.282981
C90	C	-0.521500	1.538967	0.217019
C91	C	-1.021477	0.968280	-0.282967
C92	C	-0.521477	1.468280	0.217033
C93	C	-0.978153	0.932946	-0.326212
C94	C	-0.478153	1.432946	0.173788
C95	C	-0.978125	0.856298	-0.326193
C96	C	-0.478125	1.356298	0.173807
C97	C	-0.978106	0.795206	-0.326175
C98	C	-0.478106	1.295206	0.173825
C99	C	-0.978177	1.149553	-0.326194
C100	C	-0.478177	1.649553	0.173806
C101	C	-0.978202	1.074321	-0.326236
C102	C	-0.478202	1.574321	0.173764
C103	C	-1.021518	0.282636	-1.039728
C104	C	-0.521518	0.782636	-0.539728
C105	C	-1.021507	0.282657	-0.969040
C106	C	-0.521507	0.782657	-0.469040
C107	C	-0.978191	0.325948	-0.933681
C108	C	-0.478191	0.825948	-0.433681
C109	C	-0.934888	0.369226	-0.969014
C110	C	-0.434888	0.869226	-0.469014
C111	C	-0.934902	0.369208	-1.039702
C112	C	-0.434902	0.869208	-0.539702
C113	C	-0.934829	0.369300	-0.683941
C114	C	-0.434829	0.869300	-0.183941
C115	C	-0.934816	0.369313	-0.613249
C116	C	-0.434816	0.869313	-0.113249
C117	C	-1.021434	0.282748	-0.613279
C118	C	-0.521434	0.782748	-0.113279
C119	C	-1.021449	0.282730	-0.683966
C120	C	-0.521449	0.782730	-0.183966
C121	C	-0.978148	0.326010	-0.719294
C122	C	-0.478148	0.826010	-0.219294
C123	C	-0.978161	0.325988	-0.795942
C124	C	-0.478161	0.825988	-0.295942
C125	C	-0.978174	0.325967	-0.857034
C126	C	-0.478174	0.825967	-0.357034
C127	C	-0.978096	0.326084	-0.150288
C128	C	-0.478096	0.826084	0.349712
C129	C	-0.978216	0.325909	-0.075057
C130	C	-0.478216	0.825909	0.424943
H131	H	-0.720423	0.404732	-0.404512
H132	H	-0.220423	0.904732	0.095488
C133	C	-0.374764	0.235066	-0.235403
C134	C	0.125236	0.735066	0.264597
N135	N	-0.404042	0.199148	-0.199597
N136	N	0.095958	0.699148	0.300403
C137	C	-0.887190	0.416903	-0.722792
C138	C	-0.387190	0.916903	-0.222792
N139	N	-0.851304	0.452758	-0.752056
N140	N	-0.351304	0.952758	-0.252056
C141	C	-0.887265	0.416811	-1.078562
C142	C	-0.387265	0.916811	-0.578562
N143	N	-0.851385	0.452668	-1.107831
N144	N	-0.351385	0.952668	-0.607831
C145	C	-0.887238	0.416846	-0.930117
C146	C	-0.387238	0.916846	-0.430117
N147	N	-0.851345	0.452712	-0.900820
N148	N	-0.351345	0.952712	-0.400820
H149	H	-1.056787	0.247379	-1.068513
H150	H	-0.556787	0.747379	-0.568513
C151	C	-0.226328	0.235071	-0.235417
C152	C	0.273672	0.735071	0.264583
N153	N	-0.197047	0.199153	-0.199623
N154	N	0.302953	0.699153	0.300377
H155	H	-1.056779	1.067745	-0.247772
H156	H	-0.556779	1.567745	0.252228
H157	H	-1.056615	0.583739	-0.247667
H158	H	-0.556615	1.083739	0.252333
C159	C	-0.582090	0.235062	-0.235398
C160	C	-0.082090	0.735062	0.264602
N161	N	-0.552806	0.199150	-0.199600
N162	N	-0.052806	0.699150	0.300400
C163	C	-0.887239	1.077871	-0.417057
C164	C	-0.387239	1.577871	0.082943
N165	N	-0.851363	1.107159	-0.452897
N166	N	-0.351363	1.607159	0.047103
H167	H	-0.364663	0.404741	-0.404534
H168	H	0.135337	0.904741	0.095466
H169	H	-0.720433	0.247438	-0.247737
H170	H	-0.220433	0.747438	0.252263
C171	C	-1.069041	0.722072	-0.235339
C172	C	-0.569041	1.222072	0.264661
N173	N	-1.104937	0.751345	-0.199507
N174	N	-0.604937	1.251345	0.300493
H175	H	-0.899500	0.712009	-0.404621
H176	H	-0.399500	1.212009	0.095379
C177	C	-0.582088	0.417131	-0.416860
C178	C	-0.082088	0.917131	0.083140
N179	N	-0.552807	0.453063	-0.452650
N180	N	-0.052807	0.953063	0.047350
H181	H	-1.056735	0.939499	-0.247745
H182	H	-0.556735	1.439499	0.252255
C183	C	-0.226319	0.417131	-0.416894
C184	C	0.273681	0.917131	0.083106
N185	N	-0.197033	0.453046	-0.452697
N186	N	0.302967	0.953046	0.047303
C187	C	-0.887224	0.929434	-0.417066
C188	C	-0.387224	1.429434	0.082934
N189	N	-0.851365	0.900164	-0.452937
N190	N	-0.351365	1.400164	0.047063
H191	H	-0.899453	0.583763	-0.404597
H192	H	-0.399453	1.083763	0.095403
H193	H	-1.056770	0.247421	-0.940279
H194	H	-0.556770	0.747421	-0.440279
H195	H	-1.056719	0.247475	-0.712752
H196	H	-0.556719	0.747475	-0.212752
C197	C	-1.069071	0.235143	-0.574413
C198	C	-0.569071	0.735143	-0.074413
N199	N	-1.104950	0.199286	-0.545140
N200	N	-0.604950	0.699286	-0.045140
C201	C	-0.887165	0.416941	-0.574355
C202	C	-0.387165	0.916941	-0.074355
N203	N	-0.851276	0.452813	-0.545061
N204	N	-0.351276	0.952813	-0.045061
