data_functionalizedCrystal
_audit_creation_method	'MofGen! by Chris Wilmer'
_symmetry_space_group_name_H-M	'P1'
_symmetry_Int_Tables_number	1
_symmetry_cell_setting	triclinic
loop_
_symmetry_equiv_pos_as_xyz
  x,y,z
_cell_length_a	10.654550
_cell_length_b	15.995350
_cell_length_c	9.730223
_cell_angle_alpha	90.000899
_cell_angle_beta	89.996251
_cell_angle_gamma	83.988639
loop_
_atom_site_label
_atom_site_type_symbol
_atom_site_fract_x
_atom_site_fract_y
_atom_site_fract_z
O1	O	1.666298	0.117599	-0.114395
O2	O	1.300673	0.128803	-0.114373
O3	O	1.493480	0.001371	-0.114383
O4	O	1.473491	0.245031	-0.114385
O5	O	1.493478	0.001375	0.114197
O6	O	1.300671	0.128806	0.114207
O7	O	1.666295	0.117602	0.114185
Zn8	Zn	1.483483	0.123205	0.150488
Zn9	Zn	1.483486	0.123200	-0.150676
O10	O	1.473488	0.245034	0.114195
C11	C	1.253885	0.127982	-0.000080
C12	C	1.114473	0.125521	-0.000071
C13	C	1.034008	0.200551	-0.000092
C14	C	0.903017	0.198233	-0.000116
C15	C	0.932971	0.045849	-0.000104
C16	C	1.063959	0.048168	-0.000071
C17	C	1.084522	0.277904	-0.000093
C18	C	1.004055	0.352940	-0.000115
C19	C	0.873064	0.350622	-0.000138
C20	C	0.822541	0.273268	-0.000140
C21	C	1.492652	-0.029827	-0.000096
C22	C	1.490175	-0.122791	-0.000104
C23	C	1.481278	-0.460591	-0.000098
C24	C	1.343964	-0.413954	-0.000603
C25	C	1.346442	-0.317249	-0.000087
C26	C	1.485691	-0.293004	-0.000102
C27	C	1.553417	-0.333687	0.130422
C28	C	1.549968	-0.430342	0.130531
C29	C	1.552807	-0.430688	-0.129407
C30	C	1.552775	-0.333743	-0.131132
C31	C	1.488192	-0.198292	-0.000099
C32	C	1.478780	-0.555303	-0.000092
C33	C	1.713084	0.118423	-0.000111
C34	C	1.852495	0.120884	-0.000129
C35	C	1.474316	0.276232	-0.000095
C36	C	1.476793	0.369197	-0.000097
N37	N	1.483490	0.123207	0.356024
N38	N	1.483488	0.123191	-0.356212
C39	C	1.568886	0.066800	0.427946
C40	C	1.568883	0.066789	0.571829
C41	C	1.398083	0.179602	0.571856
C42	C	1.398081	0.179607	0.427976
C43	C	1.654295	0.010400	0.355994
C44	C	1.739700	-0.046012	0.427915
C45	C	1.739697	-0.046022	0.571798
C46	C	1.654289	0.010379	0.643760
H47	H	1.129477	-0.012928	-0.000058
C48	C	1.686153	-0.473124	0.138554
C49	C	1.797695	-0.419307	0.144846
C50	C	1.933875	-0.462084	0.152883
C51	C	1.958514	-0.558676	0.154629
C52	C	1.846969	-0.612498	0.148337
C53	C	1.710788	-0.569722	0.140299
H54	H	1.779458	-0.347798	0.143554
H55	H	2.016448	-0.422240	0.157541
H56	H	2.059323	-0.590342	0.160579
H57	H	1.865205	-0.684007	0.149629
H58	H	1.628215	-0.609565	0.135641
H59	H	1.328548	0.225522	0.630457
C60	C	1.489867	-0.295724	0.261661
C61	C	1.376612	-0.227864	0.250666
C62	C	1.313053	-0.189903	0.381901
C63	C	1.362749	-0.219802	0.524130
C64	C	1.476010	-0.287666	0.535130
C65	C	1.539569	-0.325627	0.403896
H66	H	1.339819	-0.205728	0.145375
H67	H	1.229210	-0.139666	0.373757
H68	H	1.315699	-0.191702	0.621278
H69	H	1.512803	-0.309802	0.640422
H70	H	1.623413	-0.375864	0.412039
C71	C	1.492163	-0.458785	-0.263060
C72	C	1.376904	-0.509251	-0.256486
C73	C	1.316244	-0.537348	-0.390130
C74	C	1.370844	-0.514978	-0.530347
C75	C	1.486109	-0.464509	-0.536926
C76	C	1.546769	-0.436412	-0.403283
H77	H	1.336480	-0.525813	-0.152684
H78	H	1.230917	-0.574708	-0.385259
H79	H	1.325940	-0.535777	-0.629278
H80	H	1.526533	-0.447947	-0.640728
H81	H	1.632096	-0.399052	-0.408154
C82	C	1.833641	-0.108053	0.348766
C83	C	1.833663	-0.108041	0.190503
C84	C	1.927605	-0.170085	0.111358
C85	C	2.021527	-0.232141	0.190476
C86	C	2.021509	-0.232157	0.348747
C87	C	1.927566	-0.170113	0.427893
H88	H	1.764134	-0.062100	0.131928
H89	H	1.927618	-0.170073	-0.005805
H90	H	2.091069	-0.278070	0.131888
H91	H	2.091038	-0.278097	0.407323
H92	H	1.927553	-0.170124	0.545056
H93	H	1.654285	0.010360	0.760919
H94	H	1.191179	0.279800	-0.000080
H95	H	1.045200	0.415918	-0.000102
C96	C	1.274497	-0.279263	-0.126466
C97	C	1.214384	-0.336917	-0.228567
C98	C	1.142422	-0.298934	-0.354941
C99	C	1.130573	-0.203298	-0.379215
C100	C	1.190688	-0.145638	-0.277111
C101	C	1.262650	-0.183621	-0.150737
H102	H	1.223153	-0.407718	-0.210600
H103	H	1.097921	-0.341618	-0.430525
H104	H	1.077302	-0.175181	-0.472765
H105	H	1.181918	-0.074837	-0.295078
H106	H	1.307151	-0.140937	-0.075153
H107	H	0.807551	0.411720	-0.000142
H108	H	0.715878	0.271387	-0.000138
C109	C	1.269820	-0.439425	-0.127050
C110	C	1.147335	-0.481368	-0.107858
C111	C	1.073195	-0.506847	-0.234314
C112	C	1.121540	-0.490383	-0.379961
C113	C	1.244031	-0.448438	-0.399159
C114	C	1.318171	-0.422959	-0.272703
H115	H	1.111542	-0.493557	-0.000036
H116	H	0.982519	-0.537897	-0.220101
H117	H	1.066657	-0.509244	-0.473571
H118	H	1.279824	-0.436249	-0.506981
H119	H	1.408847	-0.391908	-0.286916
C120	C	1.689961	-0.312198	-0.141793
C121	C	1.799583	-0.383053	-0.142227
C122	C	1.936776	-0.361510	-0.152871
C123	C	1.964347	-0.269112	-0.163082
C124	C	1.854722	-0.198251	-0.162648
C125	C	1.717529	-0.219794	-0.152004
H126	H	1.779176	-0.451457	-0.134668
H127	H	2.017927	-0.413966	-0.153192
H128	H	2.065905	-0.253164	-0.170961
H129	H	1.875129	-0.129847	-0.170207
H130	H	1.636378	-0.167338	-0.151683
H131	H	0.891824	-0.017129	-0.000128
H132	H	1.328542	0.225539	0.369417
H133	H	1.289324	-0.433864	0.092484
H134	H	1.292844	-0.289694	0.093643
H135	H	1.503258	-0.306783	-0.227690
H136	H	1.654048	-0.461861	-0.130294
H137	H	1.500580	-0.448929	0.228110
H138	H	1.655720	-0.318967	0.135266
H139	H	1.654308	0.010404	0.238837
H140	H	1.809228	-0.091960	0.630355
