data_functionalizedCrystal
_audit_creation_method	'MofGen! by Chris Wilmer'
_symmetry_space_group_name_H-M	'P1'
_symmetry_Int_Tables_number	1
_symmetry_cell_setting	triclinic
loop_
_symmetry_equiv_pos_as_xyz
  x,y,z
_cell_length_a	21.395362
_cell_length_b	21.395361
_cell_length_c	21.395355
_cell_angle_alpha	89.978489
_cell_angle_beta	89.956060
_cell_angle_gamma	90.046585
loop_
_atom_site_label
_atom_site_type_symbol
_atom_site_fract_x
_atom_site_fract_y
_atom_site_fract_z
Zn1	Zn	0.957859	-0.249246	-0.354573
Zn2	Zn	0.957762	-0.354005	-0.249790
Zn3	Zn	0.853074	-0.249275	-0.249774
Zn4	Zn	0.853044	-0.354018	-0.354494
O5	O	0.905435	-0.301636	-0.302158
O6	O	1.045524	-0.263125	-0.340712
O7	O	0.943847	-0.340119	-0.162110
O8	O	0.867028	-0.161593	-0.263702
O9	O	1.045453	-0.340091	-0.263729
O10	O	0.944013	-0.161572	-0.340697
O11	O	0.866934	-0.263174	-0.162098
O12	O	0.765392	-0.263187	-0.263626
O13	O	0.866976	-0.340113	-0.442183
O14	O	0.765370	-0.340141	-0.340564
O15	O	0.943983	-0.263137	-0.442240
O16	O	0.943817	-0.441685	-0.263653
O17	O	0.866881	-0.441695	-0.340579
C18	C	0.742647	-0.301669	-0.302085
C19	C	0.673006	-0.301698	-0.302069
C20	C	0.640297	-0.341822	-0.342070
C21	C	0.574862	-0.341806	-0.342098
C22	C	0.542138	-0.301674	-0.302113
C23	C	0.574854	-0.261543	-0.262109
C24	C	0.640288	-0.261555	-0.262087
C25	C	0.438413	-0.296627	-0.245708
C26	C	0.372980	-0.296619	-0.245730
C27	C	0.340317	-0.301633	-0.302182
C28	C	0.373095	-0.306668	-0.358616
C29	C	0.438529	-0.306681	-0.358594
C30	C	0.471185	-0.301656	-0.302133
C31	C	0.236656	-0.341742	-0.342218
C32	C	0.171219	-0.341723	-0.342247
C33	C	0.171213	-0.261462	-0.262252
C34	C	0.236648	-0.261479	-0.262229
C35	C	0.269366	-0.301622	-0.302211
C36	C	0.905352	-0.464424	-0.302123
C37	C	0.905374	-0.534065	-0.302129
C38	C	0.945470	-0.566752	-0.262114
C39	C	0.945499	-0.632188	-0.262128
C40	C	0.905421	-0.664933	-0.302150
C41	C	0.865322	-0.632238	-0.342172
C42	C	0.865299	-0.566804	-0.342162
C43	C	0.849006	-0.768664	-0.307041
C44	C	0.849029	-0.834097	-0.307047
C45	C	0.905494	-0.866754	-0.302187
C46	C	0.961939	-0.833970	-0.297307
C47	C	0.961915	-0.768536	-0.297296
C48	C	0.905443	-0.735886	-0.302167
C49	C	0.945625	-0.970394	-0.262186
C50	C	0.945655	-1.035830	-0.262204
C51	C	0.865473	-1.035879	-0.342245
C52	C	0.865448	-0.970444	-0.342230
C53	C	0.905524	-0.937705	-0.302197
C54	C	1.068858	-0.301603	-0.302231
C55	C	1.138499	-0.301589	-0.302262
C56	C	0.905487	-0.301623	-0.465581
C57	C	0.905509	-0.301618	-0.535222
C58	C	0.905535	-0.138213	-0.302206
C59	C	0.905578	-0.068571	-0.302227
C60	C	0.945605	-0.261535	-0.567966
C61	C	0.945604	-0.261508	-0.633402
C62	C	0.905514	-0.301575	-0.666091
C63	C	0.865410	-0.341661	-0.633339
C64	C	0.865407	-0.341682	-0.567904
C65	C	0.900538	-0.357992	-0.769752
C66	C	0.900545	-0.357972	-0.835185
C67	C	0.905518	-0.301509	-0.867911
C68	C	0.910497	-0.245065	-0.835197
C69	C	0.910495	-0.245086	-0.769763
C70	C	0.905512	-0.301556	-0.737043
C71	C	0.945615	-0.261393	-0.971608
C72	C	0.945610	-0.261365	-1.037045
C73	C	0.865419	-0.341524	-1.036980
C74	C	0.865421	-0.341547	-0.971545
C75	C	0.905522	-0.301482	-0.938863
C76	C	0.905419	-0.301603	-0.139370
C77	C	0.905518	-0.301432	-0.069729
H78	H	0.144589	-0.374395	-0.374824
Cl79	Cl	0.479734	-0.313006	-0.429535
Cl80	Cl	1.032928	-0.875017	-0.291190
Cl81	Cl	0.995909	-0.673289	-0.211820
H82	H	0.465002	-0.292541	-0.199734
H83	H	0.832691	-0.658904	-0.374760
Cl84	Cl	0.814997	-0.392078	-0.526738
H85	H	0.978260	-0.228721	-1.063704
Cl86	Cl	0.332041	-0.312969	-0.429591
H87	H	0.978258	-0.228910	-0.541360
H88	H	0.666932	-0.374509	-0.374627
Cl89	Cl	1.032870	-0.727324	-0.291168
Cl90	Cl	0.996004	-0.929233	-0.211859
Cl91	Cl	0.130080	-0.211006	-0.211989
Cl92	Cl	0.533734	-0.392251	-0.392389
Cl93	Cl	0.916749	-0.174132	-0.728639
Cl94	Cl	0.815092	-1.077039	-0.392563
Cl95	Cl	0.996072	-1.076924	-0.211900
H96	H	0.832770	-0.374141	-1.063595
Cl97	Cl	0.996024	-0.211024	-0.930519
H98	H	0.666919	-0.228880	-0.229513
Cl99	Cl	0.778071	-0.875304	-0.313181
Cl100	Cl	0.533716	-0.211088	-0.211846
H101	H	0.263296	-0.374426	-0.374776
Cl102	Cl	0.916752	-0.174078	-0.876332
Cl103	Cl	0.331780	-0.290289	-0.174786
H104	H	0.832795	-0.943828	-0.374811
H105	H	0.263280	-0.228809	-0.229652
H106	H	0.978103	-0.540098	-0.229519
H107	H	0.832647	-0.540189	-0.374747
H108	H	0.803022	-0.742081	-0.311001
Cl109	Cl	0.815014	-0.391943	-0.930379
H110	H	0.978254	-0.228864	-0.660067
H111	H	0.896494	-0.403932	-0.861815
H112	H	0.896321	-0.403959	-0.743111
Cl113	Cl	0.815008	-0.392029	-0.674432
