data_functionalizedCrystal
_audit_creation_method	'MofGen! by Chris Wilmer'
_symmetry_space_group_name_H-M	'P1'
_symmetry_Int_Tables_number	1
_symmetry_cell_setting	triclinic
loop_
_symmetry_equiv_pos_as_xyz
  x,y,z
_cell_length_a	16.959454
_cell_length_b	11.169417
_cell_length_c	11.169409
_cell_angle_alpha	89.980176
_cell_angle_beta	90.027925
_cell_angle_gamma	89.998132
loop_
_atom_site_label
_atom_site_type_symbol
_atom_site_fract_x
_atom_site_fract_y
_atom_site_fract_z
Zn1	Zn	0.314599	1.835040	-0.678580
Zn2	Zn	0.647932	2.168374	-0.345246
Zn3	Zn	0.981266	2.501707	-0.011913
Zn4	Zn	0.446806	1.834962	-0.477912
Zn5	Zn	0.780139	2.168296	-0.144579
Zn6	Zn	1.113472	2.501629	0.188755
Zn7	Zn	0.314647	1.634326	-0.477914
Zn8	Zn	0.647980	1.967660	-0.144581
Zn9	Zn	0.981314	2.300993	0.188753
Zn10	Zn	0.446741	1.634366	-0.678557
Zn11	Zn	0.780075	1.967700	-0.345223
Zn12	Zn	1.113408	2.301033	-0.011890
O13	O	0.380698	1.734674	-0.578241
O14	O	0.714032	2.068007	-0.244907
O15	O	1.047365	2.401340	0.088426
O16	O	0.332143	2.002980	-0.651969
O17	O	0.665477	2.336313	-0.318636
O18	O	0.998810	2.669646	0.014697
O19	O	0.429322	1.808298	-0.309962
O20	O	0.762655	2.141632	0.023371
O21	O	1.095988	2.474965	0.356704
O22	O	0.204030	1.660967	-0.504543
O23	O	0.537363	1.994300	-0.171210
O24	O	0.870697	2.327634	0.162124
O25	O	0.429275	2.002922	-0.504540
O26	O	0.762608	2.336256	-0.171206
O27	O	1.095942	2.669589	0.162127
O28	O	0.203994	1.808431	-0.651971
O29	O	0.537328	2.141764	-0.318638
O30	O	0.870661	2.475098	0.014695
O31	O	0.332225	1.660892	-0.309964
O32	O	0.665559	1.994225	0.023369
O33	O	0.998892	2.327558	0.356703
O34	O	0.332163	1.466382	-0.504521
O35	O	0.665496	1.799715	-0.171188
O36	O	0.998830	2.133048	0.162146
O37	O	0.429165	1.661036	-0.846510
O38	O	0.762499	1.994369	-0.513176
O39	O	1.095832	2.327702	-0.179843
O40	O	0.429212	1.466411	-0.651932
O41	O	0.762545	1.799745	-0.318599
O42	O	1.095879	2.133078	0.014734
O43	O	0.332081	1.808470	-0.846526
O44	O	0.665414	2.141803	-0.513193
O45	O	0.998748	2.475137	-0.179860
O46	O	0.557408	1.808337	-0.504518
O47	O	0.890741	2.141671	-0.171184
O48	O	1.224075	2.475004	0.162149
O49	O	0.557361	1.660960	-0.651930
O50	O	0.890694	1.994293	-0.318597
O51	O	1.224027	2.327627	0.014736
C52	C	0.380686	1.422849	-0.578225
C53	C	0.714020	1.756182	-0.244892
C54	C	1.047353	2.089516	0.088442
C55	C	0.380700	1.289449	-0.578247
C56	C	0.714034	1.622782	-0.244914
C57	C	1.047367	1.956116	0.088420
C58	C	0.174530	1.734703	-0.578260
C59	C	0.507863	2.068037	-0.244927
C60	C	0.841197	2.401370	0.088407
C61	C	0.086673	1.734716	-0.578268
C62	C	0.420007	2.068049	-0.244935
C63	C	0.753340	2.401382	0.088399
C64	C	-0.284823	1.811560	-0.655047
C65	C	0.048510	2.144893	-0.321714
C66	C	0.381844	2.478226	0.011619
C67	C	-0.284781	1.658005	-0.501529
C68	C	0.048552	1.991338	-0.168196
C69	C	0.381885	2.324671	0.165138
C70	C	-0.202235	1.657987	-0.501525
C71	C	0.131098	1.991320	-0.168191
C72	C	0.464431	2.324654	0.165142
C73	C	-0.160979	1.734758	-0.578282
C74	C	0.172354	2.068092	-0.244948
C75	C	0.505687	2.401425	0.088385
C76	C	-0.202269	1.811547	-0.655043
C77	C	0.131064	2.144880	-0.321710
C78	C	0.464397	2.478214	0.011624
C79	C	-0.160939	1.581208	-0.424756
C80	C	0.172394	1.914542	-0.091423
C81	C	0.505728	2.247875	0.241910
C82	C	-0.078388	1.581189	-0.424748
C83	C	0.254945	1.914522	-0.091415
C84	C	0.588278	2.247855	0.241919
C85	C	-0.037131	1.657955	-0.501512
C86	C	0.296202	1.991288	-0.168178
C87	C	0.629536	2.324622	0.165155
C88	C	-0.078426	1.734746	-0.578277
C89	C	0.254907	2.068079	-0.244944
C90	C	0.588241	2.401412	0.088390
C91	C	-0.037170	1.811517	-0.655034
C92	C	0.296163	2.144850	-0.321701
C93	C	0.629497	2.478184	0.011633
C94	C	-0.078464	1.888303	-0.731806
C95	C	0.254870	2.221636	-0.398473
C96	C	0.588203	2.554969	-0.065140
C97	C	-0.161012	1.888313	-0.731807
C98	C	0.172321	2.221647	-0.398473
C99	C	0.505655	2.554980	-0.065140
C100	C	0.045418	1.657944	-0.501511
C101	C	0.378751	1.991278	-0.168178
C102	C	0.712084	2.324611	0.165155
C103	C	0.045383	1.811504	-0.655029
C104	C	0.378717	2.144838	-0.321696
C105	C	0.712050	2.478171	0.011637
C106	C	0.586065	1.734677	-0.578248
C107	C	0.919398	2.068010	-0.244914
C108	C	1.252731	2.401344	0.088419
C109	C	0.673921	1.734788	-0.578291
C110	C	1.007254	2.068122	-0.244957
C111	C	1.340588	2.401455	0.088376
C112	C	0.380611	1.734766	-0.891283
C113	C	0.713944	2.068099	-0.557950
C114	C	1.047277	2.401433	-0.224616
C115	C	0.380573	1.734805	-1.024683
C116	C	0.713906	2.068139	-0.691350
C117	C	1.047240	2.401472	-0.358017
C118	C	0.380711	2.047716	-0.578257
C119	C	0.714044	2.381049	-0.244923
C120	C	1.047378	2.714383	0.088410
C121	C	0.380716	2.181116	-0.578264
C122	C	0.714050	2.514449	-0.244930
C123	C	1.047383	2.847783	0.088403
C124	C	0.380729	1.734651	-0.266416
C125	C	0.714062	2.067984	0.066918
C126	C	1.047395	2.401318	0.400251
C127	C	0.380543	1.734844	-0.133016
C128	C	0.713877	2.068178	0.200317
C129	C	1.047210	2.401511	0.533650
H130	H	0.078968	1.874013	-0.717544
H131	H	0.412302	2.207346	-0.384211
H132	H	0.745635	2.540679	-0.050877
H133	H	-0.194638	1.950831	-0.794311
H134	H	0.138695	2.284164	-0.460978
H135	H	0.472028	2.617497	-0.127644
F136	F	-0.328770	1.893268	-0.736758
F137	F	0.004563	2.226602	-0.403425
F138	F	0.337897	2.559935	-0.070091
H139	H	-0.044862	1.950815	-0.794296
H140	H	0.288471	2.284149	-0.460963
H141	H	0.621804	2.617482	-0.127630
F142	F	-0.328691	1.576311	-0.419838
F143	F	0.004643	1.909644	-0.086504
F144	F	0.337976	2.242977	0.246829
H145	H	-0.044774	1.518664	-0.362236
H146	H	0.288559	1.851998	-0.028903
H147	H	0.621893	2.185331	0.304431
H148	H	-0.194532	1.518709	-0.362257
H149	H	0.138801	1.852043	-0.028923
H150	H	0.472134	2.185376	0.304410
F151	F	0.089362	1.576237	-0.419803
F152	F	0.422695	1.909571	-0.086470
F153	F	0.756028	2.242904	0.246864
