data_functionalizedCrystal
_audit_creation_method	'MofGen! by Chris Wilmer'
_symmetry_space_group_name_H-M	'P1'
_symmetry_Int_Tables_number	1
_symmetry_cell_setting	triclinic
loop_
_symmetry_equiv_pos_as_xyz
  x,y,z
_cell_length_a	33.510554
_cell_length_b	33.509711
_cell_length_c	33.506470
_cell_angle_alpha	60.004186
_cell_angle_beta	60.008358
_cell_angle_gamma	59.994760
loop_
_atom_site_label
_atom_site_type_symbol
_atom_site_fract_x
_atom_site_fract_y
_atom_site_fract_z
O1	O	0.055430	-0.583081	0.487524
O2	O	0.555430	-0.083081	0.987524
O3	O	0.020931	-0.453975	0.392819
O4	O	0.520931	0.046025	0.892819
O5	O	0.102693	-0.535652	0.392731
O6	O	0.602693	-0.035652	0.892731
O7	O	-0.026332	-0.501404	0.487613
O8	O	0.473668	-0.001404	0.987613
O9	O	0.129823	-0.508526	0.419767
O10	O	0.629823	-0.008526	0.919767
O11	O	0.048062	-0.426850	0.419856
O12	O	0.548062	0.073150	0.919856
O13	O	0.082561	-0.555956	0.514561
O14	O	0.582561	-0.055956	1.014561
Cu15	Cu	0.067789	-0.488926	0.469677
Cu16	Cu	0.567789	0.011074	0.969677
Cu17	Cu	0.035703	-0.521005	0.437703
Cu18	Cu	0.535703	-0.021005	0.937703
O19	O	0.000799	-0.474279	0.514649
O20	O	0.500799	0.025721	1.014649
N21	N	0.090357	-0.466366	0.492168
N22	N	0.590357	0.033634	0.992168
N23	N	0.013139	-0.543569	0.415212
N24	N	0.513139	-0.043569	0.915212
C25	C	0.143028	-0.279707	0.544737
C26	C	0.643028	0.220293	1.044737
C27	C	0.143165	-0.413746	0.678712
C28	C	0.643165	0.086254	1.178712
C29	C	0.143043	-0.413725	0.544739
C30	C	0.643043	0.086275	1.044739
C31	C	0.277090	-0.413694	0.544637
C32	C	0.777090	0.086306	1.044637
C33	C	0.157791	-0.323929	0.559462
C34	C	0.657791	0.176071	1.059462
C35	C	0.157869	-0.398994	0.634489
C36	C	0.657869	0.101006	1.134489
C37	C	0.232865	-0.398963	0.559407
C38	C	0.732865	0.101037	1.059407
C39	C	0.157801	-0.398982	0.559463
C40	C	0.657801	0.101018	1.059463
C41	C	0.124237	-0.223419	0.525994
C42	C	0.624237	0.276581	1.025994
C43	C	0.124262	-0.432490	0.525997
C44	C	0.624262	0.067510	1.025997
C45	C	0.176583	-0.380217	0.578205
C46	C	0.676583	0.119783	1.078205
C47	C	0.358938	-0.399566	0.501510
C48	C	0.858938	0.100434	1.001510
C49	C	0.410104	-0.416609	0.484423
C50	C	0.910104	0.083391	0.984423
C51	C	0.410135	-0.499402	0.515995
C52	C	0.910135	0.000598	1.015995
C53	C	0.358969	-0.482358	0.533084
C54	C	0.858969	0.017642	1.033084
C55	C	0.136554	-0.197822	0.475693
C56	C	0.636554	0.302178	0.975693
C57	C	0.119469	-0.146653	0.458657
C58	C	0.619469	0.353347	0.958657
C59	C	0.077755	-0.146680	0.542223
C60	C	0.577755	0.353320	1.042223
C61	C	0.094840	-0.197850	0.559260
C62	C	0.594840	0.302150	1.059260
C63	C	0.073954	-0.420144	0.538396
C64	C	0.573954	0.079856	1.038396
C65	C	0.056884	-0.437203	0.521352
C66	C	0.556884	0.062797	1.021352
C67	C	0.140427	-0.478952	0.479524
C68	C	0.640427	0.021048	0.979524
C69	C	0.157498	-0.461894	0.496561
C70	C	0.657498	0.038106	0.996561
C71	C	0.074158	-0.420182	0.760618
C72	C	0.574158	0.079818	1.260618
C73	C	0.057149	-0.437256	0.811786
C74	C	0.557149	0.062744	1.311786
C75	C	0.140732	-0.479014	0.811717
C76	C	0.640732	0.020986	1.311717
C77	C	0.157740	-0.461942	0.760547
C78	C	0.657740	0.038058	1.260547
C79	C	0.124452	-0.432525	0.734999
C80	C	0.624452	0.067475	1.234999
C81	C	0.333372	-0.432439	0.525839
C82	C	0.833372	0.067561	1.025839
C83	C	-0.020612	-0.577650	0.170305
C84	C	0.479388	-0.077650	0.670305
C85	C	-0.020943	-0.788098	0.380897
C86	C	0.479057	-0.288098	0.880897
C87	C	-0.020912	-0.577638	0.380991
C88	C	0.479088	-0.077638	0.880991
C89	C	-0.231336	-0.577418	0.380585
C90	C	0.268664	-0.077418	0.880585
C91	C	-0.129735	-0.611383	0.346870
C92	C	0.370265	-0.111383	0.846870
C93	C	-0.054722	-0.611464	0.347017
C94	C	0.445278	-0.111464	0.847017
C95	C	-0.073450	-0.630202	0.328195
C96	C	0.426550	-0.130202	0.828195
C97	C	-0.087616	-0.712029	0.371239
C98	C	0.412384	-0.212029	0.871239
C99	C	-0.070599	-0.763199	0.388315
C100	C	0.429401	-0.263199	0.888315
C101	C	0.012191	-0.763282	0.356872
C102	C	0.512191	-0.263282	0.856872
C103	C	-0.004828	-0.712113	0.339795
C104	C	0.495172	-0.212113	0.839795
C105	C	-0.155381	-0.623711	0.397158
C106	C	0.344619	-0.123711	0.897158
C107	C	-0.206547	-0.606601	0.414133
C108	C	0.293453	-0.106601	0.914133
C109	C	-0.206417	-0.564839	0.330529
C110	C	0.293583	-0.064839	0.830529
C111	C	-0.155251	-0.581949	0.313554
C112	C	0.344749	-0.081949	0.813554
C113	C	-0.067051	-0.561160	0.334643
C114	C	0.432949	-0.061160	0.834643
C115	C	-0.050026	-0.544131	0.351759
C116	C	0.449974	-0.044131	0.851759
C117	C	-0.008343	-0.627704	0.393612
C118	C	0.491657	-0.127704	0.893612
C119	C	-0.025368	-0.644736	0.376502
C120	C	0.474632	-0.144736	0.876502
C121	C	-0.066922	-0.561168	0.246303
C122	C	0.433078	-0.061168	0.746303
C123	C	-0.049794	-0.544141	0.195134
C124	C	0.450206	-0.044141	0.695134
C125	C	-0.008048	-0.627719	0.195183
C126	C	0.491952	-0.127719	0.695183
C127	C	-0.025175	-0.644745	0.246352
C128	C	0.474825	-0.144745	0.746352
C129	C	-0.054614	-0.611468	0.271911
C130	C	0.445386	-0.111468	0.771911
C131	C	-0.054732	-0.686488	0.346980
C132	C	0.445268	-0.186488	0.846980
C133	C	-0.002117	-0.558258	0.114025
C134	C	0.497883	-0.058258	0.614025
C135	C	-0.002879	-0.844379	0.399940
C136	C	0.497121	-0.344379	0.899940
C137	C	-0.002504	-0.558243	0.399473
C138	C	0.497496	-0.058243	0.899473
C139	C	-0.287615	-0.558285	0.398601
C140	C	0.212385	-0.058285	0.898601
N141	N	0.434975	-0.466279	0.491900
N142	N	0.934975	0.033721	0.991900
O143	O	0.591199	-0.470749	0.375150
O144	O	1.091199	0.029251	0.875150
O145	O	0.591395	-0.565767	0.504116
O146	O	1.091395	-0.065767	1.004116
O147	O	0.591311	-0.565550	0.422329
O148	O	1.091311	-0.065550	0.922329
O149	O	0.591283	-0.470966	0.456937
O150	O	1.091283	0.029034	0.956937
O151	O	0.510024	-0.538522	0.449509
O152	O	1.010024	-0.038522	0.949509
O153	O	0.510108	-0.538739	0.531297
O154	O	1.010108	-0.038739	1.031297
O155	O	0.509913	-0.443721	0.402330
O156	O	1.009913	0.056279	0.902330
Cu157	Cu	0.502588	-0.488762	0.469295
Cu158	Cu	1.002588	0.011238	0.969295
Cu159	Cu	0.598719	-0.520726	0.437151
Cu160	Cu	1.098719	-0.020726	0.937151
O161	O	0.509997	-0.443938	0.484117
O162	O	1.009997	0.056062	0.984117
N163	N	0.666332	-0.543209	0.414541
N164	N	1.166332	-0.043209	0.914541
N165	N	0.090323	-0.121809	0.492157
N166	N	0.590323	0.378191	0.992157
O167	O	-0.026342	0.034503	0.487582
O168	O	0.473658	0.534503	0.987582
O169	O	0.102626	0.034543	0.392540
O170	O	0.602626	0.534543	0.892540
O171	O	0.020797	0.034507	0.392812
O172	O	0.520797	0.534507	0.892812
O173	O	0.055487	0.034539	0.487310
O174	O	0.555487	0.534539	0.987310
O175	O	0.047933	-0.046785	0.419900
O176	O	0.547933	0.453215	0.919900
O177	O	0.129763	-0.046749	0.419628
O178	O	0.629763	0.453251	0.919628
O179	O	0.000794	-0.046789	0.514670
O180	O	0.500794	0.453211	1.014670
Cu181	Cu	0.067756	-0.054192	0.469623
Cu182	Cu	0.567756	0.445808	0.969623
Cu183	Cu	0.035664	0.041946	0.437588
Cu184	Cu	0.535664	0.541946	0.937588
O185	O	0.082623	-0.046753	0.514399
O186	O	0.582623	0.453247	1.014399
N187	N	0.013091	0.109564	0.415054
N188	N	0.513091	0.609564	0.915054
N189	N	0.090671	-0.466416	0.836606
N190	N	0.590671	0.033584	1.336606
O191	O	0.086120	-0.583065	0.992910
O192	O	0.586120	-0.083065	1.492910
O193	O	-0.008880	-0.454051	0.992954
O194	O	0.491120	0.045949	1.492954
O195	O	-0.008658	-0.535864	0.992931
O196	O	0.491342	-0.035864	1.492931
O197	O	0.085897	-0.501252	0.992933
O198	O	0.585897	-0.001252	1.492933
O199	O	0.018407	-0.508749	0.911642
O200	O	0.518407	-0.008749	1.411642
O201	O	0.018185	-0.426936	0.911665
O202	O	0.518185	0.073064	1.411665
O203	O	0.113185	-0.555949	0.911621
O204	O	0.613185	-0.055949	1.411621
Cu205	Cu	0.068156	-0.488967	0.904221
Cu206	Cu	0.568156	0.011033	1.404221
Cu207	Cu	0.036148	-0.521034	1.000355
Cu208	Cu	0.536148	-0.021034	1.500355
O209	O	0.112963	-0.474136	0.911644
O210	O	0.612963	0.025864	1.411644
N211	N	0.013633	-0.543590	1.067970
N212	N	0.513633	-0.043590	1.567970
C213	C	0.031262	-0.424144	0.393290
C214	C	0.531262	0.075856	0.893290
C215	C	0.132513	-0.525291	0.393180
C216	C	0.632513	-0.025291	0.893180
C217	C	0.072229	-0.585787	0.514090
C218	C	0.572229	-0.085787	1.014090
C219	C	-0.029022	-0.484640	0.514200
C220	C	0.470978	0.015360	1.014200
C221	C	0.550775	-0.565338	0.533954
C222	C	1.050775	-0.065338	1.033954
C223	C	0.550672	-0.565070	0.432670
C224	C	1.050672	-0.065070	0.932670
C225	C	0.550530	-0.444149	0.372492
C226	C	1.050530	0.055851	0.872492
C227	C	0.550635	-0.444418	0.473776
C228	C	1.050635	0.055582	0.973776
C229	C	0.132408	-0.005998	0.392963
C230	C	0.632408	0.494002	0.892963
C231	C	0.031106	-0.006142	0.393333
C232	C	0.531106	0.493858	0.893333
C233	C	-0.029021	-0.006147	0.514213
C234	C	0.470979	0.493853	1.014213
C235	C	0.072314	-0.006104	0.513878
C236	C	0.572314	0.493896	1.013878
C237	C	-0.008430	-0.424240	0.952316
C238	C	0.491570	0.075760	1.452316
C239	C	-0.008150	-0.525550	0.952271
C240	C	0.491850	-0.025550	1.452271
C241	C	0.112735	-0.585760	0.952260
C242	C	0.612735	-0.085760	1.452260
C243	C	0.112461	-0.484444	0.952286
C244	C	0.612461	0.015556	1.452286
H245	H	0.016194	-0.427197	0.832639
H246	H	0.516194	0.072803	1.332639
N247	N	0.181352	-0.005595	0.353344
N248	N	0.681352	0.494405	0.853344
H249	H	0.176580	0.024634	0.323936
H250	H	0.676580	0.524634	0.823936
H251	H	0.197091	-0.035655	0.343723
H252	H	0.697091	0.464345	0.843723
N253	N	0.081986	-0.634912	0.553494
N254	N	0.581986	-0.134912	1.053494
H255	H	0.078115	-0.630427	0.583036
H256	H	0.578115	-0.130427	1.083036
H257	H	0.116381	-0.656662	0.540815
H258	H	0.616381	-0.156662	1.040815
N259	N	0.550685	-0.604432	0.422869
N260	N	1.050685	-0.104432	0.922869
H261	H	0.580845	-0.633978	0.426706
H262	H	1.080845	-0.133978	0.926706
H263	H	0.550623	-0.591708	0.388476
H264	H	1.050623	-0.091708	0.888476
N265	N	0.021499	-0.375017	0.353890
N266	N	0.521499	0.124983	0.853890
H267	H	-0.006847	-0.368698	0.345786
H268	H	0.493153	0.131302	0.845786
H269	H	0.051560	-0.374879	0.323678
H270	H	0.551560	0.125121	0.823678
N271	N	-0.078109	-0.474982	0.553667
N272	N	0.421891	0.025018	1.053667
H273	H	-0.099935	-0.440592	0.541090
H274	H	0.400065	0.059408	1.041090
H275	H	-0.073542	-0.478912	0.583186
H276	H	0.426458	0.021088	1.083186
H277	H	0.550467	-0.414317	0.335455
H278	H	1.050467	0.085683	0.835455
H279	H	0.015562	-0.654800	0.417614
H280	H	0.515562	-0.154800	0.917614
H281	H	0.169570	-0.532590	0.363385
H282	H	0.669570	-0.032590	0.863385
H283	H	0.550826	-0.595166	0.570996
H284	H	1.050826	-0.095166	1.070996
H285	H	-0.128252	-0.691169	0.377093
H286	H	0.371748	-0.191169	0.877093
H287	H	0.023675	-0.006147	0.363643
H288	H	0.523675	0.493853	0.863643
N289	N	0.331398	-0.517818	0.559323
N290	N	0.831398	-0.017818	1.059323
H291	H	0.295100	-0.499449	0.569052
H292	H	0.795100	0.000551	1.069052
H293	H	0.340374	-0.542731	0.589526
H294	H	0.840374	-0.042731	1.089526
N295	N	0.038107	-0.388423	0.570135
N296	N	0.538107	0.111577	1.070135
H297	H	0.003647	-0.383186	0.575396
H298	H	0.503647	0.116814	1.075396
H299	H	0.043352	-0.355827	0.553510
H300	H	0.543352	0.144173	1.053510
H301	H	0.142562	-0.622811	0.952240
H302	H	0.642562	-0.122811	1.452240
N303	N	-0.047486	-0.535340	0.952228
N304	N	0.452514	-0.035340	1.452228
H305	H	-0.034801	-0.569743	0.952207
H306	H	0.465199	-0.069743	1.452207
H307	H	-0.056939	-0.511334	0.922088
H308	H	0.443061	-0.011334	1.422088
N309	N	0.550627	-0.405059	0.483578
N310	N	1.050627	0.094941	0.983578
H311	H	0.550672	-0.417742	0.517972
H312	H	1.050672	0.082258	1.017972
H313	H	0.520466	-0.375525	0.479714
H314	H	1.020466	0.124475	0.979714
N315	N	-0.078079	-0.006165	0.553739
N316	N	0.421921	0.493835	1.053739
H317	H	-0.099944	-0.006177	0.541229
H318	H	0.400056	0.493823	1.041229
H319	H	-0.093599	0.023973	0.563179
H320	H	0.406401	0.523973	1.063179
H321	H	0.079744	-0.006095	0.543566
H322	H	0.579744	0.493905	1.043566
N323	N	-0.047940	-0.375162	0.952334
N324	N	0.452060	0.124838	1.452334
H325	H	-0.078115	-0.375092	0.952337
H326	H	0.421885	0.124908	1.452337
H327	H	-0.036011	-0.348733	0.922203
H328	H	0.463989	0.151267	1.422203
N329	N	0.151811	-0.474639	0.952285
N330	N	0.651811	0.025361	1.452285
H331	H	0.139130	-0.440233	0.952295
H332	H	0.639130	0.059767	1.452295
H333	H	0.181352	-0.478533	0.922143
H334	H	0.681352	0.021467	1.422143
H335	H	0.167840	-0.502959	0.832516
H336	H	0.667840	-0.002959	1.332516
N337	N	0.038244	-0.388439	0.733075
N338	N	0.538244	0.111561	1.233075
H339	H	0.017008	-0.406879	0.741994
H340	H	0.517008	0.093121	1.241994
H341	H	0.056675	-0.379494	0.696780
H342	H	0.556675	0.120506	1.196780
N343	N	0.211989	-0.475257	0.732917
N344	N	0.711989	0.024743	1.232917
H345	H	0.230493	-0.496479	0.756867
H346	H	0.730493	0.003521	1.256867
H347	H	0.220862	-0.444476	0.711685
H348	H	0.720862	0.055524	1.211685
H349	H	0.167497	-0.502899	0.455559
H350	H	0.667497	-0.002899	0.955559
N351	N	0.002624	-0.423891	0.534723
N352	N	0.502624	0.076109	1.034723
H353	H	-0.012639	-0.436413	0.571430
H354	H	0.487361	0.063587	1.071430
H355	H	-0.003103	-0.439159	0.519427
H356	H	0.496897	0.060841	1.019427
N357	N	0.211759	-0.475204	0.483188
N358	N	0.711759	0.024796	0.983188
H359	H	0.230224	-0.496419	0.461955
H360	H	0.730224	0.003581	0.961955
H361	H	0.220688	-0.493647	0.513945
H362	H	0.720688	0.006353	1.013945
H363	H	0.430973	-0.540048	0.521891
H364	H	0.930973	-0.040048	1.021891
H365	H	0.430920	-0.389838	0.464614
H366	H	0.930920	0.110162	0.964614
N367	N	0.081560	-0.225455	0.613513
N368	N	0.581560	0.274545	1.113513
H369	H	0.096842	-0.261751	0.619260
H370	H	0.596842	0.238249	1.119260
H371	H	0.044856	-0.216524	0.628799
H372	H	0.544856	0.283476	1.128799
N373	N	0.331327	-0.345723	0.493696
N374	N	0.831327	0.154277	0.993696
H375	H	0.355290	-0.327486	0.475691
H376	H	0.855290	0.172514	0.975691
H377	H	0.310119	-0.340704	0.526395
H378	H	0.810119	0.159296	1.026395
H379	H	0.160490	-0.218637	0.448603
H380	H	0.660490	0.281363	0.948603
H381	H	0.129496	-0.125810	0.417697
H382	H	0.629496	0.374190	0.917697
H383	H	0.053825	-0.125861	0.569312
H384	H	0.553825	0.374139	1.069312
H385	H	-0.059824	-0.503179	0.174290
H386	H	0.440176	-0.003179	0.674290
H387	H	-0.090896	-0.534066	0.267110
H388	H	0.409104	-0.034066	0.767110
H389	H	0.015913	-0.654818	0.174378
H390	H	0.515913	-0.154818	0.674378
H391	H	-0.090949	-0.534065	0.310634
H392	H	0.409051	-0.034065	0.810634
N393	N	-0.011893	-0.699001	0.273969
N394	N	0.488107	-0.199001	0.773969
H395	H	-0.024380	-0.714282	0.265027
H396	H	0.475620	-0.214282	0.765027
H397	H	-0.027207	-0.704701	0.310253
H398	H	0.472793	-0.204701	0.810253
N399	N	-0.063321	-0.489877	0.338426
N400	N	0.436679	0.010123	0.838426
H401	H	-0.100025	-0.474545	0.350875
H402	H	0.399975	0.025455	0.850875
H403	H	-0.050736	-0.474633	0.301723
H404	H	0.449264	0.025367	0.801723
N405	N	-0.012066	-0.698990	0.389828
N406	N	0.487934	-0.198990	0.889828
H407	H	-0.042827	-0.707896	0.408232
H408	H	0.457173	-0.207896	0.908232
H409	H	0.009129	-0.717454	0.411081
H410	H	0.509129	-0.217454	0.911081
N411	N	0.030638	-0.684559	0.313631
N412	N	0.530638	-0.184559	0.813631
H413	H	0.055589	-0.693487	0.283412
H414	H	0.555589	-0.193487	0.783412
H415	H	0.047770	-0.693486	0.336083
H416	H	0.547770	-0.193486	0.836083
N417	N	0.066016	-0.790924	0.349131
N418	N	0.566016	-0.290924	0.849131
H419	H	0.084268	-0.766980	0.331171
H420	H	0.584268	-0.266980	0.831171
H421	H	0.078770	-0.812162	0.329213
H422	H	0.578770	-0.312162	0.829213
H423	H	-0.097376	-0.783993	0.408060
H424	H	0.402624	-0.283993	0.908060
H425	H	-0.134607	-0.647683	0.424287
H426	H	0.365393	-0.147683	0.924287
H427	H	-0.227429	-0.616637	0.455084
H428	H	0.272571	-0.116637	0.955084
H429	H	-0.227194	-0.540877	0.303400
H430	H	0.272806	-0.040877	0.803400
H431	H	-0.134369	-0.571905	0.272603
H432	H	0.365631	-0.071905	0.772603
