data_functionalizedCrystal
_audit_creation_method	'MofGen! by Chris Wilmer'
_symmetry_space_group_name_H-M	'P1'
_symmetry_Int_Tables_number	1
_symmetry_cell_setting	triclinic
loop_
_symmetry_equiv_pos_as_xyz
  x,y,z
_cell_length_a	23.532407
_cell_length_b	15.944551
_cell_length_c	14.421503
_cell_angle_alpha	89.996660
_cell_angle_beta	90.002238
_cell_angle_gamma	83.173708
loop_
_atom_site_label
_atom_site_type_symbol
_atom_site_fract_x
_atom_site_fract_y
_atom_site_fract_z
O1	O	-0.755658	-0.101953	-0.076998
O2	O	-0.255658	0.398047	0.423002
O3	O	-0.589852	-0.116706	-0.077025
O4	O	-0.089852	0.383294	0.422975
O5	O	-0.677283	0.012983	-0.077003
O6	O	-0.177283	0.512983	0.422997
O7	O	-0.668227	-0.231642	-0.077021
O8	O	-0.168227	0.268358	0.422979
O9	O	-0.677268	0.012964	0.077221
O10	O	-0.177268	0.512964	0.577221
O11	O	-0.589837	-0.116726	0.077198
O12	O	-0.089837	0.383274	0.577198
O13	O	-0.755643	-0.101972	0.077225
O14	O	-0.255643	0.398028	0.577225
Cu15	Cu	-0.672739	-0.109351	0.091294
Cu16	Cu	-0.172739	0.390649	0.591294
Cu17	Cu	-0.672756	-0.109328	-0.091094
Cu18	Cu	-0.172756	0.390672	0.408906
O19	O	-0.668213	-0.231662	0.077203
O20	O	-0.168213	0.268338	0.577203
C21	C	-0.676899	0.044265	0.000109
C22	C	-0.176899	0.544265	0.500109
C23	C	-0.675772	0.137501	0.000110
C24	C	-0.175772	0.637501	0.500110
C25	C	-0.568627	-0.116340	0.000083
C26	C	-0.068627	0.383660	0.500083
C27	C	-0.505406	-0.115211	0.000073
C28	C	-0.005406	0.384789	0.500073
C29	C	-0.776868	-0.102338	0.000115
C30	C	-0.276868	0.397662	0.500115
C31	C	-0.840090	-0.103468	0.000119
C32	C	-0.340090	0.396532	0.500119
C33	C	-0.106572	-0.184874	0.000109
C34	C	0.393428	0.315126	0.500109
C35	C	-0.047168	-0.183824	0.000115
C36	C	0.452832	0.316176	0.500115
O37	O	-0.010674	-0.248403	0.000144
O38	O	0.489326	0.251597	0.500144
N39	N	-0.024243	-0.106724	0.000119
N40	N	0.475757	0.393276	0.500119
C41	C	-0.060726	-0.030668	0.000127
C42	C	0.439274	0.469332	0.500127
O43	O	-0.035772	0.035009	0.000132
O44	O	0.464228	0.535009	0.500132
C45	C	-0.120129	-0.031718	0.000128
C46	C	0.379871	0.468282	0.500128
C47	C	-0.143051	-0.108823	0.000114
C48	C	0.356949	0.391177	0.500114
C49	C	-0.129494	-0.261973	0.000097
C50	C	0.370506	0.238027	0.500097
C51	C	-0.188894	-0.263022	0.000089
C52	C	0.311106	0.236978	0.500089
C53	C	-0.225373	-0.186971	0.000094
C54	C	0.274627	0.313029	0.500094
C55	C	-0.202451	-0.109872	0.000107
C56	C	0.297549	0.390128	0.500107
C57	C	-0.156611	0.044337	0.000143
C58	C	0.343389	0.544337	0.500143
C59	C	-0.216018	0.043281	0.000144
C60	C	0.283982	0.543281	0.500144
C61	C	-0.238939	-0.033825	0.000131
C62	C	0.261061	0.466175	0.500131
C63	C	-0.298329	-0.034871	0.000105
C64	C	0.201671	0.465129	0.500105
N65	N	-0.321254	-0.111971	0.000100
N66	N	0.178746	0.388029	0.500100
C67	C	-0.284776	-0.188022	0.000095
C68	C	0.215224	0.311978	0.500095
C69	C	0.064025	-0.028468	0.000127
C70	C	0.564025	0.471532	0.500127
C71	C	0.123427	-0.027417	0.000119
C72	C	0.623427	0.472583	0.500119
C73	C	0.136981	-0.180574	0.000109
C74	C	0.636981	0.319426	0.500109
C75	C	0.077578	-0.181624	0.000110
C76	C	0.577578	0.318376	0.500110
C77	C	0.041100	-0.105569	0.000123
C78	C	0.541100	0.394431	0.500123
C79	C	-0.409521	-0.190219	0.000079
C80	C	0.090479	0.309781	0.500079
C81	C	-0.468927	-0.191261	0.000067
C82	C	0.031073	0.308739	0.500067
C83	C	-0.482476	-0.038104	0.000083
C84	C	0.017524	0.461896	0.500083
C85	C	-0.423075	-0.037062	0.000089
C86	C	0.076925	0.462938	0.500089
C87	C	-0.386599	-0.113126	0.000090
C88	C	0.113401	0.386874	0.500090
O89	O	-0.334859	0.029673	0.000080
O90	O	0.165141	0.529673	0.500080
O91	O	-0.309738	-0.253687	0.000103
O92	O	0.190262	0.246313	0.500103
C93	C	-0.668596	-0.262943	0.000089
C94	C	-0.168596	0.237057	0.500089
C95	C	-0.669723	-0.356179	0.000082
C96	C	-0.169723	0.143821	0.500082
N97	N	-0.672731	-0.109366	0.219575
N98	N	-0.172731	0.390634	0.719575
C99	C	-0.618885	0.351879	0.000087
C100	C	-0.118885	0.851879	0.500087
C101	C	-0.645294	0.413109	0.076133
C102	C	-0.145294	0.913109	0.576133
C103	C	-0.673733	0.308210	0.000102
C104	C	-0.173733	0.808210	0.500102
C105	C	-0.645322	0.413111	-0.075919
C106	C	-0.145322	0.913111	0.424081
C107	C	-0.671760	0.473106	0.000091
C108	C	-0.171760	0.973106	0.500091
C109	C	-0.700158	0.368212	0.076211
C110	C	-0.200158	0.868212	0.576211
C111	C	-0.700178	0.368208	-0.075910
C112	C	-0.200178	0.868208	0.424090
C113	C	-0.726627	0.429421	0.000155
C114	C	-0.226627	0.929421	0.500155
C115	C	-0.674869	0.213217	0.000109
C116	C	-0.174869	0.713217	0.500109
C117	C	-0.670629	0.568097	0.000090
C118	C	-0.170629	1.068097	0.500090
N119	N	-0.672769	-0.109306	-0.219375
N120	N	-0.172769	0.390694	0.280625
C121	C	-0.632296	-0.169308	0.469218
C122	C	-0.132296	0.330692	0.969218
C123	C	-0.683757	-0.185182	0.531028
C124	C	-0.183757	0.314818	1.031028
C125	C	-0.672745	-0.109346	0.408736
C126	C	-0.172745	0.390654	0.908736
C127	C	-0.621298	-0.093492	0.531020
C128	C	-0.121298	0.406508	1.031020
C129	C	-0.672754	-0.109328	0.591458
C130	C	-0.172754	0.390672	1.091458
C131	C	-0.724232	-0.125257	0.469185
C132	C	-0.224232	0.374743	0.969185
C133	C	-0.661739	-0.033535	0.469172
C134	C	-0.161739	0.466465	0.969172
C135	C	-0.713237	-0.049376	0.530954
C136	C	-0.213237	0.450624	1.030954
C137	C	-0.672739	-0.109358	0.303475
C138	C	-0.172739	0.390642	0.803475
C139	C	-0.672766	-0.109315	0.696717
C140	C	-0.172766	0.390685	1.196717
H141	H	-0.487586	-0.254052	0.000056
H142	H	0.012414	0.245948	0.500056
H143	H	-0.598124	-0.220056	0.442111
H144	H	-0.098124	0.279944	0.942111
F145	F	-0.521309	0.042829	0.000090
F146	F	-0.021309	0.542829	0.500090
F147	F	-0.370708	-0.271175	0.000081
F148	F	0.129292	0.228825	0.500081
F149	F	-0.614965	0.439126	0.160157
F150	F	-0.114965	0.939126	0.660157
F151	F	-0.559378	0.307842	0.000172
F152	F	-0.059378	0.807842	0.500172
F153	F	-0.757999	0.016916	0.566168
F154	F	-0.257999	0.516916	1.066168
H155	H	-0.723331	0.348409	0.140572
H156	H	-0.223331	0.848409	0.640572
F157	F	-0.213281	-0.345089	0.000079
F158	F	0.286719	0.154911	0.500079
F159	F	-0.254837	0.124232	0.000160
F160	F	0.245163	0.624232	0.500160
H161	H	-0.772194	0.462964	0.000205
H162	H	-0.272194	0.962964	0.500205
F163	F	-0.695936	-0.268969	0.566541
F164	F	-0.195936	0.231031	1.066541
H165	H	-0.723363	0.348281	-0.140196
H166	H	-0.223363	0.848281	0.359804
H167	H	-0.622122	0.433001	-0.140214
H168	H	-0.122122	0.933001	0.359786
H169	H	-0.767753	-0.138736	0.442138
H170	H	-0.267753	0.361264	0.942138
H171	H	-0.652405	0.030549	0.441981
H172	H	-0.152405	0.530549	0.941981
H173	H	-0.099799	-0.323906	0.000096
H174	H	0.400201	0.176094	0.500096
F175	F	0.053189	-0.263689	0.000097
F176	F	0.553189	0.236311	0.500097
F177	F	-0.564425	-0.075973	0.566525
F178	F	-0.064425	0.424027	1.066525
H179	H	0.166693	-0.242498	0.000109
H180	H	0.666693	0.257502	0.500109
F181	F	0.025207	0.052486	0.000132
F182	F	0.525207	0.552486	0.500132
F183	F	0.147815	0.054649	0.000113
F184	F	0.647815	0.554649	0.500113
F185	F	-0.132230	0.126405	0.000144
F186	F	0.367770	0.626405	0.500144
F187	F	-0.398680	0.045002	0.000104
F188	F	0.101320	0.545002	0.500104
