data_functionalizedCrystal
_audit_creation_method	'MofGen! by Chris Wilmer'
_symmetry_space_group_name_H-M	'P1'
_symmetry_Int_Tables_number	1
_symmetry_cell_setting	triclinic
loop_
_symmetry_equiv_pos_as_xyz
  x,y,z
_cell_length_a	12.827893
_cell_length_b	19.121063
_cell_length_c	12.827885
_cell_angle_alpha	87.596223
_cell_angle_beta	90.019272
_cell_angle_gamma	92.468878
loop_
_atom_site_label
_atom_site_type_symbol
_atom_site_fract_x
_atom_site_fract_y
_atom_site_fract_z
Zn1	Zn	1.579836	-0.279578	0.608539
Zn2	Zn	1.572236	-0.397045	0.441232
Zn3	Zn	1.405075	-0.279613	0.433815
Zn4	Zn	1.397572	-0.396992	0.615928
O5	O	1.488680	-0.338307	0.524878
O6	O	1.725063	-0.295168	0.586357
O7	O	1.550022	-0.381504	0.294014
O8	O	1.434577	-0.181324	0.450795
O9	O	1.719480	-0.381470	0.463437
O10	O	1.562973	-0.181298	0.579165
O11	O	1.427209	-0.295227	0.288565
O12	O	1.257844	-0.295176	0.457961
O13	O	1.421790	-0.381381	0.761182
O14	O	1.252332	-0.381414	0.591759
O15	O	1.555698	-0.295117	0.755753
O16	O	1.542747	-0.495322	0.470602
O17	O	1.414422	-0.495284	0.598951
C18	C	1.217171	-0.338293	0.524858
C19	C	1.101017	-0.338305	0.524875
C20	C	1.476974	-0.520787	0.536406
C21	C	1.472062	-0.598853	0.541373
C22	C	1.046528	-0.381045	0.590989
C23	C	0.926477	-0.381057	0.591008
C24	C	1.536618	-0.635525	0.476937
C25	C	1.532005	-0.708876	0.481614
C26	C	1.462829	-0.745553	0.550723
C27	C	1.398270	-0.708876	0.615166
C28	C	1.402890	-0.635526	0.610493
C29	C	1.445540	-0.967022	0.568177
C30	C	1.440923	-1.040377	0.572842
C31	C	1.574660	-1.040372	0.439292
C32	C	1.579269	-0.967021	0.434621
C33	C	1.514714	-0.930350	0.499067
C34	C	1.458109	-0.820530	0.555503
C35	C	1.519440	-0.855374	0.494292
C36	C	1.761249	-0.338321	0.524900
C37	C	1.877402	-0.338327	0.524909
C38	C	1.488755	-0.338239	0.797444
C39	C	1.488787	-0.338210	0.913596
C40	C	1.500460	-0.155115	0.513328
C41	C	1.505479	-0.077049	0.508406
C42	C	1.488668	-0.338324	0.253370
C43	C	1.488851	-0.338155	0.137206
C44	C	1.428071	-0.295480	1.082726
C45	C	1.428036	-0.295509	0.962678
H46	H	1.088756	-0.417624	0.647580
F47	F	1.045828	-0.290484	0.450912
H48	H	1.375997	-0.258975	0.915836
F49	F	1.600718	-0.747902	0.413036
F50	F	1.556802	-0.385972	0.974811
H51	H	0.879628	-0.417651	0.647607
F52	F	0.938626	-0.290499	0.450914
H53	H	1.376065	-0.258920	1.124959
H54	H	1.592944	-0.605667	0.420657
F55	F	1.652907	-0.927991	0.361078
F56	F	1.334183	-0.596497	0.679077
F57	F	1.556840	-0.385937	1.082010
H58	H	1.627218	-1.070237	0.386825
H59	H	1.575767	-0.825510	0.438028
F60	F	1.384488	-0.859571	0.629051
F61	F	1.367283	-1.079410	0.646389
F62	F	1.376833	-0.928003	0.636766
H63	H	1.341950	-0.738744	0.671440
