data_functionalizedCrystal
_audit_creation_method	'MofGen! by Chris Wilmer'
_symmetry_space_group_name_H-M	'P1'
_symmetry_Int_Tables_number	1
_symmetry_cell_setting	triclinic
loop_
_symmetry_equiv_pos_as_xyz
  x,y,z
_cell_length_a	14.044190
_cell_length_b	14.044220
_cell_length_c	9.130313
_cell_angle_alpha	90.004466
_cell_angle_beta	89.993628
_cell_angle_gamma	93.190328
loop_
_atom_site_label
_atom_site_type_symbol
_atom_site_fract_x
_atom_site_fract_y
_atom_site_fract_z
O1	O	0.230164	1.277168	-0.121673
O2	O	0.221858	1.000496	-0.121709
O3	O	0.087675	1.134676	-0.121663
O4	O	0.364347	1.142989	-0.121720
O5	O	0.087678	1.134674	0.121936
O6	O	0.221862	1.000495	0.121890
O7	O	0.230167	1.277167	0.121926
Cu8	Cu	0.226015	1.138831	0.144150
Cu9	Cu	0.226010	1.138832	-0.143934
O10	O	0.364351	1.142987	0.121879
C11	C	0.052054	1.131039	0.000140
C12	C	-0.054089	1.120191	0.000152
C13	C	0.218224	0.964874	0.000086
C14	C	0.207380	0.858731	0.000073
C15	C	-0.299547	1.177292	0.000102
C16	C	-0.248422	1.100375	0.000102
C17	C	-0.140285	1.111404	0.000130
C18	C	-0.407694	1.166265	0.000074
C19	C	0.187553	0.664392	0.000106
C20	C	0.264468	0.613264	0.000097
C21	C	0.253436	0.505128	0.000115
C22	C	0.198583	0.772539	0.000088
C23	C	0.399971	1.146624	0.000073
C24	C	0.506114	1.157472	0.000052
C25	C	0.233801	1.312789	0.000127
C26	C	0.244646	1.418932	0.000130
N27	N	0.226018	1.138836	0.346773
N28	N	0.226000	1.138834	-0.346556
C29	C	0.166625	1.198269	0.423445
C30	C	0.166613	1.198266	0.576782
C31	C	0.285396	1.079394	0.576760
C32	C	0.285402	1.079393	0.423426
C33	C	0.107241	1.257712	0.346792
C34	C	0.047844	1.317151	0.423464
C35	C	0.047832	1.317148	0.576801
C36	C	0.107218	1.257705	0.653465
H37	H	-0.285865	1.026243	0.000084
H38	H	-0.262106	1.251418	0.000126
F39	F	0.361367	0.662200	0.000071
H40	H	0.113425	0.626954	0.000130
H41	H	0.107247	1.257723	0.221937
H42	H	-0.000538	1.365538	0.639226
F43	F	-0.015363	1.380402	0.341872
F44	F	0.107192	1.257698	0.816662
F45	F	0.348596	1.016138	0.658356
H46	H	0.333764	1.030996	0.360999
