data_functionalizedCrystal
_audit_creation_method	'MofGen! by Chris Wilmer'
_symmetry_space_group_name_H-M	'P1'
_symmetry_Int_Tables_number	1
_symmetry_cell_setting	triclinic
loop_
_symmetry_equiv_pos_as_xyz
  x,y,z
_cell_length_a	19.288840
_cell_length_b	14.853559
_cell_length_c	13.330367
_cell_angle_alpha	89.999454
_cell_angle_beta	90.012240
_cell_angle_gamma	83.378735
loop_
_atom_site_label
_atom_site_type_symbol
_atom_site_fract_x
_atom_site_fract_y
_atom_site_fract_z
O1	O	0.921737	0.112352	0.083586
O2	O	0.719525	0.127546	0.083551
O3	O	0.826035	-0.011313	0.083569
O4	O	0.815226	0.251211	0.083569
O5	O	0.826024	-0.011308	-0.083279
O6	O	0.719514	0.127551	-0.083296
O7	O	0.921726	0.112356	-0.083261
Cu8	Cu	0.820619	0.119954	-0.098513
Cu9	Cu	0.820632	0.119949	0.098803
O10	O	0.815215	0.251215	-0.083278
C11	C	0.693641	0.127063	0.000123
C12	C	0.616531	0.125607	0.000110
C13	C	0.580332	0.124905	0.091061
C14	C	0.507880	0.123527	0.091073
C15	C	0.471633	0.122832	0.000129
C16	C	0.507841	0.123539	-0.090834
C17	C	0.580290	0.124927	-0.090844
C18	C	0.362116	0.067830	-0.069533
C19	C	0.289669	0.066437	-0.069519
C20	C	0.248175	0.118556	0.000155
C21	C	0.279138	0.172058	0.069833
C22	C	0.351588	0.173445	0.069823
C23	C	0.393074	0.121328	0.000129
C24	C	0.133415	0.116361	0.091126
C25	C	0.060961	0.114988	0.091134
C26	C	0.060925	0.114992	-0.090775
C27	C	0.133376	0.116374	-0.090781
C28	C	0.169617	0.117054	0.000172
C29	C	0.825541	-0.044897	0.000147
C30	C	0.824077	-0.144972	0.000152
C31	C	0.817870	-0.568113	0.091100
C32	C	0.817858	-0.568104	-0.090804
C33	C	0.819240	-0.474078	-0.090804
C34	C	0.819935	-0.427066	0.000148
C35	C	0.819250	-0.474079	0.091102
C36	C	0.819918	-0.427057	-0.181756
C37	C	0.821299	-0.333026	-0.181760
C38	C	0.822000	-0.286013	-0.090806
C39	C	0.821315	-0.333032	0.000151
C40	C	0.822011	-0.286019	0.091103
C41	C	0.821331	-0.333038	0.182061
C42	C	0.819951	-0.427066	0.182056
C43	C	0.823381	-0.191984	-0.090801
C44	C	0.823391	-0.191985	0.091105
C45	C	0.947610	0.112839	0.000169
C46	C	1.024719	0.114295	0.000189
C47	C	0.815709	0.284799	0.000146
C48	C	0.817174	0.384874	0.000147
N49	N	0.820615	0.119956	-0.237294
C50	C	0.773445	0.181425	-0.289828
C51	C	0.867788	0.058485	-0.289789
C52	C	0.867795	0.058481	-0.394808
C53	C	0.820626	0.119949	-0.447341
C54	C	0.773449	0.181421	-0.394856
C55	C	0.914966	-0.002996	-0.447301
C56	C	0.914975	-0.003002	-0.552326
C57	C	0.867808	0.058471	-0.604861
C58	C	0.820630	0.119946	-0.552369
C59	C	0.773461	0.181414	-0.604902
C60	C	0.726286	0.242894	-0.552412
C61	C	0.726283	0.242894	-0.447391
C62	C	0.867811	0.058471	-0.709882
C63	C	0.773465	0.181410	-0.709930
N64	N	0.820641	0.119939	0.237585
H65	H	0.245355	0.214502	0.126565
F66	F	0.918011	-0.006962	-0.765739
F67	F	0.022352	0.114260	-0.187565
F68	F	0.817107	-0.618138	-0.187596
F69	F	0.965182	-0.068431	-0.608182
H70	H	0.478324	0.122976	-0.164881
H71	H	0.031488	0.114422	0.165200
H72	H	0.609835	0.125459	0.165122
F73	F	0.469346	0.122780	0.187879
F74	F	0.384538	0.230386	0.143974
H75	H	0.823919	-0.153704	-0.164857
H76	H	0.162851	0.116939	-0.164843
F77	F	0.817152	-0.618154	0.187899
H78	H	0.735056	0.231469	-0.752696
F79	F	0.819164	-0.477093	-0.278547
F80	F	0.822020	-0.282994	-0.278564
H81	H	0.264465	0.022869	-0.126250
F82	F	0.171987	0.117092	0.187924
H83	H	0.395896	0.025385	-0.126275
F84	F	0.618818	0.125674	-0.187650
F85	F	0.965161	-0.068417	-0.391392
H86	H	0.823961	-0.153715	0.165171
F87	F	0.822073	-0.282993	0.278856
H88	H	0.687877	0.292938	-0.595197
H89	H	0.819396	-0.465356	0.256109
H90	H	0.687874	0.292948	-0.404647
H91	H	0.735038	0.231483	-0.247088
H92	H	0.906189	0.008435	-0.247014
