data_functionalizedCrystal
_audit_creation_method	'MofGen! by Chris Wilmer'
_symmetry_space_group_name_H-M	'P1'
_symmetry_Int_Tables_number	1
_symmetry_cell_setting	triclinic
loop_
_symmetry_equiv_pos_as_xyz
  x,y,z
_cell_length_a	13.033808
_cell_length_b	17.637651
_cell_length_c	13.032268
_cell_angle_alpha	84.482255
_cell_angle_beta	103.297372
_cell_angle_gamma	109.644814
loop_
_atom_site_label
_atom_site_type_symbol
_atom_site_fract_x
_atom_site_fract_y
_atom_site_fract_z
Zn1	Zn	1.499144	-0.203748	-0.346210
Zn2	Zn	1.494815	-0.316755	-0.141783
Zn3	Zn	1.344084	-0.203804	-0.191136
Zn4	Zn	1.285628	-0.355174	-0.332721
O5	O	1.405918	-0.269870	-0.252962
O6	O	1.651008	-0.202637	-0.304083
O7	O	1.497472	-0.285716	-0.003522
O8	O	1.390929	-0.093155	-0.238007
O9	O	1.647827	-0.285662	-0.153891
O10	O	1.504851	-0.093113	-0.351939
O11	O	1.386731	-0.202732	-0.039782
O12	O	1.183892	-0.239986	-0.224927
O13	O	1.291299	-0.351142	-0.479317
O14	O	1.140944	-0.351197	-0.328948
O15	O	1.448168	-0.239890	-0.489228
O16	O	1.440790	-0.432493	-0.140811
O17	O	1.287101	-0.460720	-0.281093
C18	C	1.122892	-0.299767	-0.280830
C19	C	1.001804	-0.312579	-0.292772
C20	C	0.843893	-0.276441	-0.259088
C21	C	0.969044	-0.263199	-0.246742
C22	C	1.357159	-0.475294	-0.204152
C23	C	1.336393	-0.563169	-0.183296
C24	C	1.564326	-0.851843	-0.411662
C25	C	1.544782	-0.934417	-0.392050
C26	C	1.426268	-0.934543	-0.273275
C27	C	1.445806	-0.851967	-0.292874
C28	C	1.514835	-0.810624	-0.362069
C29	C	1.396316	-0.810748	-0.243280
C30	C	1.415848	-0.728180	-0.262882
C31	C	1.484871	-0.686832	-0.332076
C32	C	1.534367	-0.728056	-0.381670
C33	C	1.327281	-0.852094	-0.174091
C34	C	1.277790	-0.810874	-0.124498
C35	C	1.297329	-0.728304	-0.144093
C36	C	1.366352	-0.686956	-0.213288
C37	C	1.247832	-0.687080	-0.094499
C38	C	1.267364	-0.604512	-0.114101
C39	C	1.385884	-0.604388	-0.232889
C40	C	1.690048	-0.239857	-0.224987
C41	C	1.811128	-0.227068	-0.213065
C42	C	1.363696	-0.299796	-0.522869
C43	C	1.345704	-0.312548	-0.637887
C44	C	1.454894	-0.063644	-0.301983
C45	C	1.475764	0.024238	-0.322872
C46	C	1.415298	-0.263188	-0.694070
C47	C	1.396704	-0.276367	-0.812947
C48	C	1.448052	-0.239998	0.015887
C49	C	1.466308	-0.227000	0.130873
H50	H	0.875729	-0.174997	-0.164518
H51	H	1.191621	-0.720755	-0.038169
O52	O	0.766979	-0.338620	-0.317011
C53	C	0.734435	-0.452331	-0.423130
C54	C	0.821653	-0.381959	-0.357535
H55	H	0.778606	-0.487380	-0.455930
H56	H	0.678819	-0.493998	-0.370988
H57	H	0.681301	-0.427672	-0.491100
H58	H	0.874864	-0.406546	-0.289560
H59	H	0.877191	-0.340304	-0.409749
O60	O	1.258328	-0.374679	-0.685496
C61	C	1.199355	-0.496397	-0.783778
C62	C	1.298412	-0.426084	-0.729887
H63	H	1.231726	-0.537967	-0.819701
H64	H	1.149850	-0.531572	-0.723017
H65	H	1.143143	-0.471667	-0.848580
H66	H	1.354705	-0.450745	-0.665091
H67	H	1.347834	-0.390920	-0.790712
H68	H	1.500773	-0.619600	-0.348034
O69	O	1.359314	-0.974597	-0.205932
C70	C	1.328186	-0.986008	-0.029026
C71	C	1.404092	-0.940570	-0.105189
H72	H	1.364372	-0.958527	0.052446
H73	H	1.241331	-0.981077	-0.059538
H74	H	1.322697	-1.052107	-0.023590
H75	H	1.409674	-0.874455	-0.110659
H76	H	1.490906	-0.945568	-0.074647
H77	H	1.227063	-0.570951	-0.073718
H78	H	1.488643	-0.211170	-0.654162
O79	O	1.553777	-0.164989	-0.821364
C80	C	1.651972	-0.095248	-0.659359
C81	C	1.552897	-0.165524	-0.713309
H82	H	1.651280	-0.095647	-0.571993
H83	H	1.733273	-0.102156	-0.668510
H84	H	1.644663	-0.035873	-0.697664
H85	H	1.560099	-0.224932	-0.675042
H86	H	1.471636	-0.158545	-0.704167
O87	O	1.210645	-0.851147	-0.057410
C88	C	1.043676	-0.958394	-0.035708
C89	C	1.119629	-0.912870	-0.111795
H90	H	0.970059	-1.008296	-0.079653
H91	H	1.092982	-0.985816	0.032449
H92	H	1.011719	-0.914725	-0.003601
H93	H	1.151605	-0.956488	-0.143981
H94	H	1.070274	-0.885435	-0.179893
O95	O	1.592920	-0.974515	-0.440067
C96	C	1.715814	-1.053626	-0.417553
C97	C	1.661358	-1.008264	-0.363030
H98	H	1.771177	-1.080909	-0.355294
H99	H	1.648198	-1.103620	-0.467340
H100	H	1.768445	-1.009875	-0.470404
H101	H	1.608735	-1.051952	-0.310127
H102	H	1.729029	-0.958258	-0.313308
O103	O	1.452804	-0.564151	-0.300188
C104	C	1.467519	-0.484874	-0.460645
C105	C	1.391626	-0.530399	-0.384509
H106	H	1.418081	-0.457588	-0.528847
H107	H	1.541073	-0.434869	-0.416814
H108	H	1.499577	-0.528518	-0.492672
H109	H	1.359486	-0.486818	-0.352459
H110	H	1.318131	-0.580415	-0.428389
H111	H	1.590587	-0.694392	-0.438008
O112	O	1.631232	-0.811737	-0.479030
C113	C	1.662438	-0.800371	-0.655904
C114	C	1.586567	-0.845850	-0.579730
H115	H	1.626368	-0.827944	-0.737330
H116	H	1.667869	-0.734281	-0.661483
H117	H	1.749302	-0.805252	-0.625261
H118	H	1.499665	-0.841033	-0.610314
H119	H	1.581230	-0.911921	-0.574157
O120	O	1.046204	-0.201163	-0.188736
C121	C	1.199099	-0.161375	-0.038984
C122	C	1.111789	-0.231701	-0.104595
H123	H	1.252132	-0.186039	0.029072
H124	H	1.254797	-0.119769	-0.091105
H125	H	1.154943	-0.126249	-0.006306
H126	H	1.155852	-0.266888	-0.137284
H127	H	1.056097	-0.273250	-0.052429
O128	O	0.924856	-0.374673	-0.350828
C129	C	0.853171	-0.436420	-0.521038
C130	C	0.940389	-0.366066	-0.455409
H131	H	0.865684	-0.429476	-0.605609
H132	H	0.863224	-0.495797	-0.485480
H133	H	0.765975	-0.436041	-0.520621
H134	H	1.027622	-0.366369	-0.455800
H135	H	0.930238	-0.306721	-0.490989
H136	H	1.311368	-0.919328	-0.158145
H137	H	1.323345	-0.328382	-0.852854
