data_functionalizedCrystal
_audit_creation_method	'MofGen! by Chris Wilmer'
_symmetry_space_group_name_H-M	'P1'
_symmetry_Int_Tables_number	1
_symmetry_cell_setting	triclinic
loop_
_symmetry_equiv_pos_as_xyz
  x,y,z
_cell_length_a	9.065218
_cell_length_b	10.868271
_cell_length_c	9.065215
_cell_angle_alpha	90.004170
_cell_angle_beta	85.015291
_cell_angle_gamma	90.004378
loop_
_atom_site_label
_atom_site_type_symbol
_atom_site_fract_x
_atom_site_fract_y
_atom_site_fract_z
O1	O	1.960399	0.102323	0.216358
O2	O	2.293732	0.435656	0.549691
O3	O	2.627065	0.768989	0.883025
O4	O	1.531114	0.102324	0.234104
O5	O	1.864447	0.435658	0.567438
O6	O	2.197780	0.768991	0.900771
O7	O	1.754632	0.102318	0.010589
O8	O	2.087965	0.435652	0.343922
O9	O	2.421298	0.768985	0.677255
O10	O	1.736881	0.102329	0.439874
O11	O	2.070214	0.435662	0.773207
O12	O	2.403548	0.768995	1.106541
O13	O	1.754613	-0.102326	0.010580
O14	O	2.087946	0.231007	0.343913
O15	O	2.421280	0.564340	0.677246
O16	O	1.531095	-0.102320	0.234095
O17	O	1.864428	0.231013	0.567429
O18	O	2.197762	0.564346	0.900762
O19	O	1.960380	-0.102322	0.216349
O20	O	2.293713	0.231011	0.549682
O21	O	2.627047	0.564345	0.883016
Zn22	Zn	1.745735	-0.134813	0.225221
Zn23	Zn	2.079068	0.198520	0.558554
Zn24	Zn	2.412401	0.531854	0.891887
Zn25	Zn	1.745759	0.134815	0.225233
Zn26	Zn	2.079093	0.468149	0.558566
Zn27	Zn	2.412426	0.801482	0.891899
O28	O	1.736862	-0.102316	0.439865
O29	O	2.070195	0.231017	0.773198
O30	O	2.403529	0.564351	1.106532
C31	C	1.476118	0.000002	0.232394
C32	C	1.809451	0.333335	0.565728
C33	C	2.142785	0.666669	0.899061
C34	C	1.312275	0.000003	0.227295
C35	C	1.645608	0.333336	0.560628
C36	C	1.978942	0.666669	0.893961
N37	N	1.745729	-0.318827	0.225212
N38	N	2.079062	0.014506	0.558545
N39	N	2.412395	0.347840	0.891879
C40	C	1.745752	-0.569833	0.225229
C41	C	2.079085	-0.236500	0.558563
C42	C	2.412418	0.096834	0.891896
C43	C	1.745734	-0.430156	0.225224
C44	C	2.079067	-0.096822	0.558557
C45	C	2.412401	0.236511	0.891891
C46	C	2.015376	0.000003	0.218059
C47	C	2.348709	0.333336	0.551392
C48	C	2.682043	0.666670	0.884726
C49	C	2.179219	0.000010	0.223159
C50	C	2.512552	0.333344	0.556492
C51	C	2.845886	0.666677	0.889825
C52	C	1.752917	-0.000003	-0.044403
C53	C	2.086251	0.333330	0.288931
C54	C	2.419584	0.666664	0.622264
C55	C	1.747819	0.000001	-0.208246
C56	C	2.081153	0.333334	0.125088
C57	C	2.414486	0.666668	0.458421
N58	N	1.745777	0.318829	0.225230
N59	N	2.079110	0.652163	0.558563
N60	N	2.412444	0.985496	0.891897
C61	C	1.738576	0.000008	0.494856
C62	C	2.071910	0.333341	0.828189
C63	C	2.405243	0.666675	1.161523
C64	C	1.743674	0.000012	0.658699
C65	C	2.077008	0.333345	0.992033
C66	C	2.410341	0.666679	1.325366
