data_functionalizedCrystal
_audit_creation_method	'MofGen! by Chris Wilmer'
_symmetry_space_group_name_H-M	'P1'
_symmetry_Int_Tables_number	1
_symmetry_cell_setting	triclinic
loop_
_symmetry_equiv_pos_as_xyz
  x,y,z
_cell_length_a	17.699097
_cell_length_b	10.489746
_cell_length_c	16.776229
_cell_angle_alpha	89.993070
_cell_angle_beta	89.989262
_cell_angle_gamma	83.914866
loop_
_atom_site_label
_atom_site_type_symbol
_atom_site_fract_x
_atom_site_fract_y
_atom_site_fract_z
O1	O	1.005130	0.161376	-0.066355
O2	O	0.784890	0.182343	-0.066342
O3	O	0.900019	-0.013831	-0.066343
O4	O	0.890000	0.357550	-0.066354
O5	O	0.900004	-0.013843	0.066233
O6	O	0.784875	0.182331	0.066234
O7	O	1.005114	0.161364	0.066221
Zn8	Zn	0.894992	0.171846	0.087277
Zn9	Zn	0.895012	0.171861	-0.087398
O10	O	0.889985	0.357538	0.066222
C11	C	0.756681	0.181583	-0.000052
C12	C	0.672648	0.179320	-0.000047
C13	C	0.156847	0.165459	-0.072346
C14	C	0.235805	0.167576	-0.072343
C15	C	0.275270	0.168630	-0.000072
C16	C	0.235773	0.167554	0.072200
C17	C	0.156817	0.165428	0.072195
C18	C	0.554193	0.176127	0.072220
C19	C	0.633155	0.178257	0.072220
C20	C	0.633182	0.178275	-0.072317
C21	C	0.554226	0.176149	-0.072322
C22	C	0.514736	0.175066	-0.000051
C23	C	0.429121	0.172768	-0.000056
C24	C	0.360883	0.170937	-0.000066
C25	C	0.899254	-0.061354	-0.000055
C26	C	0.896988	-0.202941	-0.000055
C27	C	0.822393	-0.354419	-0.000061
C28	C	0.859695	-0.277711	-0.065429
C29	C	0.859697	-0.277764	0.065282
C30	C	0.930289	-0.378509	-0.065494
C31	C	0.930281	-0.378567	0.065275
C32	C	0.967635	-0.301909	-0.000109
C33	C	1.033324	0.162124	-0.000070
C34	C	1.117356	0.164387	-0.000081
C35	C	0.890750	0.405061	-0.000068
C36	C	0.893017	0.546648	-0.000073
N37	N	0.894983	0.171834	0.206488
N38	N	0.895027	0.171863	-0.206609
C39	C	0.945979	0.085004	0.248205
C40	C	0.945983	0.085003	0.331657
C41	C	0.894995	0.171839	0.373391
C42	C	0.843994	0.258673	0.331669
C43	C	0.843987	0.258667	0.248218
C44	C	0.844022	0.258698	0.668216
C45	C	0.844035	0.258700	0.751672
C46	C	0.946018	0.085034	0.751655
C47	C	0.946010	0.085028	0.668205
C48	C	0.895007	0.171857	0.626489
C49	C	0.895002	0.171855	0.536001
C50	C	0.895003	0.171847	0.463878
H51	H	0.522052	0.175227	0.131068
H52	H	0.960089	-0.422336	-0.120821
N53	N	1.000992	-0.008625	0.376662
H54	H	1.034754	0.040080	0.411268
H55	H	0.971719	-0.065019	0.411258
N56	N	1.001029	-0.008624	0.796648
H57	H	0.993298	0.004548	0.855846
H58	H	0.991798	-0.099092	0.782071
N59	N	0.114284	0.164330	-0.150296
H60	H	0.151286	0.165328	-0.196075
H61	H	0.087229	0.084411	-0.153445
H62	H	0.267912	0.168404	0.131044
H63	H	0.665284	0.179115	0.131075
H64	H	0.124663	0.164568	0.131041
H65	H	0.522097	0.175297	-0.131172
H66	H	0.829887	-0.233679	-0.120690
H67	H	0.665344	0.179152	-0.131164
H68	H	0.802495	0.329400	0.634258
N69	N	0.788994	0.352326	0.376677
H70	H	0.796736	0.339158	0.435873
H71	H	0.798224	0.442792	0.362077
N72	N	0.788982	0.352312	0.203219
H73	H	0.756682	0.407325	0.242319
H74	H	0.818254	0.408641	0.168577
N75	N	0.789034	0.352356	0.796689
H76	H	0.756719	0.407357	0.757600
H77	H	0.755323	0.303579	0.831328
N78	N	0.820191	-0.219492	0.138489
H79	H	0.776439	-0.155354	0.121819
H80	H	0.800344	-0.289351	0.171420
H81	H	0.987502	0.014297	0.214231
H82	H	0.960062	-0.422622	0.120538
H83	H	0.760982	-0.378002	-0.000122
N84	N	1.049040	-0.270994	-0.000150
H85	H	1.075624	-0.308014	-0.049547
H86	H	1.050066	-0.174916	0.000353
N87	N	1.001001	-0.008627	0.623186
H88	H	1.054797	0.005948	0.637688
H89	H	0.991727	-0.099093	0.637736
N90	N	0.278402	0.168716	-0.150286
H91	H	0.241420	0.167729	-0.196069
H92	H	0.305464	0.248629	-0.153438
