data_functionalizedCrystal
_audit_creation_method	'MofGen! by Chris Wilmer'
_symmetry_space_group_name_H-M	'P1'
_symmetry_Int_Tables_number	1
_symmetry_cell_setting	triclinic
loop_
_symmetry_equiv_pos_as_xyz
  x,y,z
_cell_length_a	10.654541
_cell_length_b	14.519709
_cell_length_c	9.130307
_cell_angle_alpha	89.995756
_cell_angle_beta	89.999822
_cell_angle_gamma	84.082037
loop_
_atom_site_label
_atom_site_type_symbol
_atom_site_fract_x
_atom_site_fract_y
_atom_site_fract_z
O1	O	1.666593	0.129520	-0.121758
O2	O	1.300996	0.141863	-0.121771
O3	O	1.493488	0.001504	-0.121751
O4	O	1.474101	0.269880	-0.121778
O5	O	1.493481	0.001502	0.121848
O6	O	1.300989	0.141862	0.121828
O7	O	1.666587	0.129519	0.121841
Cu8	Cu	1.483788	0.135690	0.144077
Cu9	Cu	1.483795	0.135692	-0.144007
O10	O	1.474095	0.269879	0.121821
C11	C	1.254203	0.140957	0.000027
C12	C	1.114786	0.138247	0.000022
C13	C	1.492581	-0.032862	0.000049
C14	C	1.489874	-0.135257	0.000049
C15	C	1.085201	0.306085	-0.000013
C16	C	1.004912	0.388727	-0.000036
C17	C	0.873919	0.386175	-0.000038
C18	C	0.823213	0.300972	-0.000011
C19	C	0.903502	0.218330	0.000012
C20	C	1.034496	0.220891	0.000009
C21	C	0.933086	0.050493	0.000058
C22	C	1.064080	0.053043	0.000049
C23	C	0.882380	-0.034710	0.000085
C24	C	0.962669	-0.117354	0.000098
C25	C	1.093670	-0.114798	0.000097
C26	C	1.144369	-0.029599	0.000072
C27	C	1.479906	-0.510204	0.000011
C28	C	1.482674	-0.405882	0.000022
C29	C	1.484890	-0.322734	0.000032
C30	C	1.487658	-0.218405	0.000040
C31	C	1.713380	0.130425	0.000040
C32	C	1.852797	0.133135	0.000035
C33	C	1.475002	0.304244	0.000018
C34	C	1.477709	0.406639	0.000008
N35	N	1.483792	0.135689	0.346700
N36	N	1.483801	0.135686	-0.346630
C37	C	1.654313	0.011436	0.346708
C38	C	1.739582	-0.050687	0.423378
C39	C	1.739594	-0.050688	0.576712
C40	C	1.654326	0.011440	0.653378
C41	C	1.569057	0.073564	0.576707
C42	C	1.569056	0.073559	0.423370
C43	C	1.398532	0.197810	0.576700
C44	C	1.398524	0.197816	0.423366
C45	C	1.313264	0.259937	0.653366
C46	C	1.227999	0.322067	0.576695
C47	C	1.227991	0.322066	0.423352
C48	C	1.313255	0.259940	0.346695
H49	H	1.191861	0.308172	-0.000044
O50	O	0.913206	-0.200033	0.000061
C51	C	0.780372	-0.184563	0.000109
H52	H	0.749771	-0.112792	-0.046024
H53	H	0.743908	-0.189260	0.116981
C54	C	0.763449	-0.346425	-0.038737
C55	C	0.725865	-0.258277	-0.095409
H56	H	0.729825	-0.391896	-0.097651
H57	H	0.852942	-0.356848	-0.038764
H58	H	0.733060	-0.350325	0.058655
H59	H	0.756268	-0.254374	-0.192792
H60	H	0.636376	-0.247854	-0.095401
H61	H	1.313273	0.259931	0.778218
H62	H	1.159035	-0.182096	0.000122
O63	O	1.822457	-0.111122	0.349131
C64	C	1.897739	-0.165936	0.449684
H65	H	1.846256	-0.167334	0.558990
H66	H	1.991085	-0.135344	0.465982
C67	C	1.986654	-0.263533	0.255604
C68	C	1.923418	-0.265256	0.389851
H69	H	2.002500	-0.324798	0.218695
H70	H	1.935940	-0.226602	0.187858
H71	H	2.064436	-0.238036	0.269203
H72	H	1.845632	-0.290742	0.376246
H73	H	1.974120	-0.302194	0.457594
O74	O	1.145299	0.382376	0.651393
C75	C	1.163564	0.369031	0.803168
H76	H	1.263332	0.335247	0.824106
H77	H	1.092392	0.322283	0.846682
C78	C	1.022350	0.504734	0.856180
C79	C	1.144891	0.463247	0.881897
H80	H	1.010827	0.562850	0.904747
H81	H	1.010041	0.513724	0.753927
H82	H	0.963055	0.465768	0.892443
H83	H	1.204184	0.502207	0.845619
H84	H	1.157211	0.454266	0.984147
H85	H	1.809023	-0.101277	0.639137
H86	H	0.716550	0.298901	0.000006
O87	O	1.145112	0.382503	0.349106
C88	C	1.069840	0.437314	0.449660
H89	H	1.121335	0.438708	0.558958
H90	H	0.976496	0.406722	0.465977
C91	C	0.980905	0.534917	0.255574
C92	C	1.044156	0.536636	0.389812
H93	H	0.965056	0.596182	0.218656
H94	H	1.031613	0.497988	0.187828
H95	H	0.903125	0.509419	0.269190
H96	H	1.121940	0.562122	0.376192
H97	H	0.993460	0.573572	0.457555
H98	H	1.654331	0.011428	0.778230
H99	H	1.046212	0.458098	-0.000054
H100	H	1.313260	0.259936	0.221843
H101	H	0.808546	0.453470	-0.000046
H102	H	0.775717	-0.036782	0.000092
H103	H	1.251028	-0.027510	0.000055
H104	H	1.654322	0.011438	0.221855
