data_functionalizedCrystal
_audit_creation_method	'MofGen! by Chris Wilmer'
_symmetry_space_group_name_H-M	'P1'
_symmetry_Int_Tables_number	1
_symmetry_cell_setting	triclinic
loop_
_symmetry_equiv_pos_as_xyz
  x,y,z
_cell_length_a	14.560438
_cell_length_b	27.440280
_cell_length_c	27.440280
_cell_angle_alpha	89.993636
_cell_angle_beta	119.997941
_cell_angle_gamma	59.999761
loop_
_atom_site_label
_atom_site_type_symbol
_atom_site_fract_x
_atom_site_fract_y
_atom_site_fract_z
Zr1	Zr	1.005196	0.469506	0.063925
O2	O	1.196804	0.391689	0.141751
O3	O	0.813588	0.493361	0.040063
O4	O	1.005173	0.493363	0.141732
O5	O	1.005236	0.391686	-0.040111
O6	O	1.005156	0.573566	0.141722
O7	O	1.005218	0.391687	0.040082
O8	O	0.662444	0.573562	-0.040146
O9	O	1.347948	0.391690	0.141756
O10	O	0.892386	0.563390	0.029884
O11	O	0.892412	0.503534	-0.029956
O12	O	1.117980	0.503537	0.089746
O13	O	1.118006	0.443682	0.029906
Zr14	Zr	1.005196	0.597419	-0.063990
Zr15	Zr	1.005168	0.597420	0.063909
Zr16	Zr	1.005224	0.469504	-0.063974
Zr17	Zr	1.246253	0.469507	0.063933
Zr18	Zr	0.764139	0.597418	-0.063998
O19	O	1.196804	0.573564	-0.040128
O20	O	1.196764	0.573567	0.141728
O21	O	1.196844	0.391687	-0.040105
O22	O	0.813588	0.675236	-0.141816
O23	O	0.813548	0.675238	0.040040
O24	O	0.813628	0.493358	-0.141793
O25	O	1.005156	0.675239	0.040046
O26	O	1.005219	0.573562	-0.141797
O27	O	1.005236	0.493359	-0.141787
O28	O	1.005174	0.675238	-0.040147
O29	O	1.347925	0.493365	0.141744
O30	O	0.662467	0.573560	-0.141809
O31	O	0.662444	0.675235	-0.141821
O32	O	0.662422	0.675237	-0.040159
O33	O	1.347970	0.391688	0.040094
O34	O	1.347948	0.493363	0.040081
O35	O	0.892412	0.563388	-0.089811
O36	O	0.892386	0.623243	-0.029971
O37	O	1.117980	0.563391	0.029891
O38	O	1.118006	0.503535	-0.029949
C39	C	0.703670	0.533461	-0.000043
C40	C	0.601335	0.533461	-0.000046
C41	C	0.636549	0.489276	0.044148
C42	C	0.540410	0.489279	0.044163
C43	C	0.373843	0.577653	-0.044215
C44	C	0.469982	0.577653	-0.044228
C45	C	1.005231	0.373461	-0.000012
C46	C	1.005243	0.319158	-0.000006
C47	C	0.887417	0.013703	-0.031297
C48	C	0.887410	-0.037315	-0.031302
O49	O	0.787261	-0.037133	-0.057895
N50	N	1.005166	-0.094074	-0.000054
C51	C	1.122937	-0.099815	0.031197
O52	O	1.223098	-0.152777	0.057775
C53	C	1.122943	-0.048797	0.031198
C54	C	1.005179	0.007962	-0.000047
C55	C	0.769662	0.070459	-0.062540
C56	C	0.769670	0.121474	-0.062534
C57	C	0.887432	0.115733	-0.031284
C58	C	1.005187	0.058977	-0.000041
C59	C	1.240713	-0.054537	0.062445
C60	C	1.240709	-0.003513	0.062444
C61	C	1.122945	0.053245	0.031198
C62	C	1.122956	0.104250	0.031215
N63	N	1.005200	0.161009	-0.000033
C64	C	0.887438	0.166751	-0.031283
C65	C	1.122916	-0.206953	0.031191
C66	C	1.122912	-0.257971	0.031193
C67	C	0.887384	-0.195468	-0.031307
C68	C	0.887389	-0.144450	-0.031305
C69	C	1.005160	-0.150194	-0.000058
C70	C	0.887463	0.273883	-0.031266
C71	C	0.887481	0.324900	-0.031255
C72	C	1.123008	0.262393	0.031242
C73	C	1.122991	0.211380	0.031233
C74	C	1.005208	0.217130	-0.000025
O75	O	1.223054	0.104114	0.057793
O76	O	0.787295	0.219715	-0.057863
C77	C	1.306721	0.533464	-0.000022
C78	C	1.409056	0.533464	-0.000019
C79	C	1.005160	0.533465	0.159950
C80	C	1.005148	0.533466	0.214246
C81	C	1.005161	0.693464	-0.000053
C82	C	1.005149	0.747767	-0.000059
C83	C	0.887417	0.564712	0.417707
C84	C	0.887410	0.564715	0.366684
O85	O	0.787261	0.591302	0.313722
N86	N	1.005166	0.533470	0.372415
C87	C	1.122937	0.502225	0.429172
O88	O	1.223097	0.475649	0.429361
C89	C	1.122943	0.502227	0.480193
C90	C	1.005179	0.533469	0.474458
C91	C	0.769662	0.595953	0.411974
C92	C	0.769670	0.595949	0.462993
C93	C	0.887432	0.564706	0.519744
C94	C	1.005187	0.533466	0.525477
C95	C	1.240713	0.470986	0.536949
C96	C	1.240709	0.470991	0.587970
C97	C	1.122945	0.502233	0.582236
C98	C	1.122956	0.502219	0.633247
N99	N	1.005200	0.533464	0.627517
C100	C	0.887438	0.564708	0.570765
C101	C	1.122916	0.502225	0.322022
C102	C	1.122911	0.502219	0.271002
C103	C	0.887383	0.564710	0.208518
C104	C	0.887389	0.564712	0.259539
C105	C	1.005159	0.533470	0.316292
C106	C	0.887463	0.564698	0.677911
C107	C	0.887481	0.564690	0.728937
C108	C	1.123008	0.502202	0.791417
C109	C	1.122991	0.502208	0.740395
C110	C	1.005208	0.533460	0.683641
O111	O	1.223054	0.475647	0.686229
O112	O	0.787295	0.591285	0.570587
C113	C	1.005232	0.533457	0.839985
C114	C	1.005243	0.533447	0.785689
C115	C	0.703635	0.693462	-0.000063
C116	C	0.601288	0.747765	-0.000073
C117	C	0.703706	0.533459	-0.160025
C118	C	0.601383	0.533458	-0.214325
C119	C	0.703671	0.693460	-0.160045
C120	C	0.601336	0.747762	-0.214352
C121	C	1.306721	0.373465	0.159980
C122	C	1.409056	0.319163	0.214287
C123	C	1.306757	0.373463	-0.000002
C124	C	1.409104	0.319160	0.000008
C125	C	1.306686	0.533466	0.159960
C126	C	1.409009	0.533467	0.214260
C127	C	0.553225	0.742023	0.031171
C128	C	0.457072	0.793041	0.031173
C129	C	0.408978	0.849801	-0.000072
C130	C	0.457051	0.855541	-0.031318
C131	C	0.553208	0.804524	-0.031316
C132	C	0.553331	0.564700	-0.271074
C133	C	0.457202	0.564697	-0.322100
C134	C	0.409119	0.533454	-0.316375
C135	C	0.457180	0.502208	-0.259620
C136	C	0.553315	0.502208	-0.208596
C137	C	0.553264	0.804512	-0.208619
C138	C	0.457123	0.855539	-0.259641
C139	C	0.409049	0.849815	-0.316396
C140	C	0.457130	0.793059	-0.322127
C141	C	0.553276	0.742033	-0.271106
C142	C	1.457139	0.262413	0.208554
C143	C	1.553310	0.211386	0.259576
C144	C	1.601390	0.217110	0.316331
C145	C	1.553303	0.273866	0.322062
C146	C	1.457140	0.324892	0.271041
C147	C	1.457177	0.324902	-0.031231
C148	C	1.553356	0.273884	-0.031219
C149	C	1.601454	0.217124	0.000029
C150	C	1.553376	0.211384	0.031271
C151	C	1.457206	0.262401	0.031263
C152	C	1.457061	0.564716	0.208516
C153	C	1.553192	0.564729	0.259532
C154	C	1.601275	0.533489	0.316291
C155	C	1.553213	0.502239	0.322034
C156	C	1.457078	0.502230	0.271018
H157	H	0.569093	0.453300	0.080151
H158	H	1.679555	0.533501	0.357826
N159	N	0.432000	0.625309	-0.091900
H160	H	0.512837	0.618603	-0.085202
H161	H	0.378833	0.665853	-0.089951
H162	H	0.330760	0.891368	-0.357936
N163	N	0.760367	-0.083237	-0.065012
H164	H	0.755118	-0.060674	-0.096452
H165	H	0.755181	-0.060723	-0.036322
N166	N	0.305418	0.533466	-0.371415
H167	H	0.225619	0.551251	-0.371448
H168	H	0.338987	0.491142	-0.371410
H169	H	1.418067	0.257718	0.056699
N170	N	1.367734	-0.115747	0.096138
H171	H	1.349884	-0.147203	0.091400
H172	H	1.419162	-0.120478	0.139830
H173	H	0.417879	0.901762	-0.056757
H174	H	1.592462	0.278520	0.368278
H175	H	1.592552	0.165163	0.056712
H176	H	0.592329	0.809207	-0.056762
N177	N	0.405361	0.598403	-0.383310
H178	H	0.478731	0.582021	-0.388080
H179	H	0.365437	0.642103	-0.388052
H180	H	0.743500	0.453289	0.080120
H181	H	1.336614	0.445551	0.634180
N182	N	0.605177	0.598401	-0.277257
H183	H	0.560141	0.618188	-0.320953
H184	H	0.701703	0.569714	-0.257441
H185	H	0.592426	0.476769	-0.162390
N186	N	0.405258	0.916751	-0.253458
H187	H	0.478616	0.921529	-0.230911
H188	H	0.365334	0.921488	-0.230945
N189	N	1.249998	0.150158	0.064930
H190	H	1.255243	0.127589	0.096364
H191	H	1.324531	0.154310	0.084691
H192	H	1.417927	0.590155	0.162305
N193	N	1.405278	0.468515	0.277225
H194	H	1.422035	0.437069	0.257462
H195	H	1.308770	0.497200	0.257457
N196	N	0.405271	0.786890	-0.383342
H197	H	0.337065	0.827829	-0.414789
H198	H	0.365440	0.764334	-0.388070
N199	N	0.405307	0.468516	-0.253450
H200	H	0.337109	0.473264	-0.294388
H201	H	0.365461	0.484927	-0.230901
N202	N	0.232172	0.625316	-0.091865
H203	H	0.176610	0.618612	-0.085153
H204	H	0.212602	0.623365	-0.132409
N205	N	0.605093	0.810694	-0.147410
H206	H	0.560041	0.854391	-0.151529
H207	H	0.701618	0.790884	-0.124872
H208	H	0.592403	0.695827	-0.275782
H209	H	1.417998	0.257741	0.162347
N210	N	1.605161	0.150176	0.253387
H211	H	1.560095	0.154298	0.209690
H212	H	1.588438	0.127641	0.273198
H213	H	1.679691	0.175557	0.357871
H214	H	0.791579	0.371115	-0.056701
H215	H	1.592377	0.476805	0.368254
H216	H	1.336614	-0.008197	0.087882
N217	N	1.605014	0.598436	0.253331
H218	H	1.559969	0.618219	0.209632
H219	H	1.701541	0.569754	0.273145
N220	N	1.405279	0.386100	0.277228
H221	H	1.450332	0.381978	0.320925
H222	H	1.308758	0.408627	0.257423
H223	H	0.791553	0.278573	-0.056721
H224	H	0.673774	0.167686	-0.087974
H225	H	0.673761	0.075144	-0.087990
H226	H	0.791495	-0.190801	-0.056750
H227	H	1.418023	0.371114	-0.056680
N228	N	1.249928	-0.319186	0.064901
H229	H	1.324524	-0.315075	0.084697
H230	H	1.255068	-0.341712	0.036216
H231	H	1.592485	0.278570	-0.056663
N232	N	1.367731	0.437295	0.543143
H233	H	1.442321	0.417511	0.586840
H234	H	1.372843	0.465989	0.523331
H235	H	0.330680	0.891337	-0.000069
H236	H	0.791495	0.590150	0.162300
N237	N	1.249947	-0.213152	0.064903
H238	H	1.324536	-0.256852	0.084698
H239	H	1.255072	-0.193349	0.096312
N240	N	1.250019	0.256206	0.064949
H241	H	1.232143	0.297140	0.060207
H242	H	1.301447	0.233648	0.048546
H243	H	1.679762	0.175587	0.000031
N244	N	0.405233	0.786834	0.064871
H245	H	0.308714	0.806611	0.036216
H246	H	0.422056	0.806592	0.096316
H247	H	0.791580	0.590131	0.724261
H248	H	0.791553	0.590147	0.631705
N249	N	0.642653	0.629664	0.456804
H250	H	0.568060	0.649461	0.413107
H251	H	0.637544	0.661074	0.476605
H252	H	0.791495	0.590152	0.254864
N253	N	0.642637	0.629656	0.350766
H254	H	0.568053	0.649444	0.354887
H255	H	0.637502	0.600969	0.328242
H256	H	1.218807	0.476771	0.275679
N257	N	1.250003	0.468502	0.746576
H258	H	1.324605	0.448706	0.790271
H259	H	1.255131	0.497190	0.726766
H260	H	1.218887	0.476763	0.837632
N261	N	1.249947	0.468534	0.383234
H262	H	1.324535	0.448746	0.379116
H263	H	1.255112	0.437121	0.405782
H264	H	0.592382	0.695811	0.056622
