data_functionalizedCrystal
_audit_creation_method	'MofGen! by Chris Wilmer'
_symmetry_space_group_name_H-M	'P1'
_symmetry_Int_Tables_number	1
_symmetry_cell_setting	triclinic
loop_
_symmetry_equiv_pos_as_xyz
  x,y,z
_cell_length_a	10.723024
_cell_length_b	10.654550
_cell_length_c	9.798715
_cell_angle_alpha	89.999786
_cell_angle_beta	89.997785
_cell_angle_gamma	84.476400
loop_
_atom_site_label
_atom_site_type_symbol
_atom_site_fract_x
_atom_site_fract_y
_atom_site_fract_z
O1	O	0.175273	1.667813	-0.113385
O2	O	0.191972	1.302332	-0.113410
O3	O	0.002047	1.493503	-0.113392
O4	O	0.365197	1.476642	-0.113403
O5	O	0.002046	1.493490	0.113590
O6	O	0.191970	1.302319	0.113572
O7	O	0.175271	1.667800	0.113597
Zn8	Zn	0.183621	1.485057	0.149623
Zn9	Zn	0.183623	1.485075	-0.149436
O10	O	0.365196	1.476629	0.113579
C11	C	0.190745	1.255528	0.000078
C12	C	0.187077	1.116085	0.000068
C13	C	-0.044453	1.492269	0.000097
C14	C	-0.183008	1.488598	0.000092
C15	C	0.298901	1.036583	0.000069
C16	C	0.295447	0.905562	0.000093
C17	C	0.068334	0.933560	0.000110
C18	C	0.071789	1.064577	0.000096
C19	C	-0.257975	1.595567	0.000098
C20	C	-0.401179	1.591776	0.000092
C21	C	0.411696	1.477863	0.000086
C22	C	0.550251	1.481534	0.000083
C23	C	0.176498	1.714604	0.000106
C24	C	0.180167	1.854047	0.000106
N25	N	0.183619	1.485054	0.353722
N26	N	0.183615	1.485088	-0.353536
C27	C	0.263712	1.404803	0.421525
C28	C	0.263710	1.404820	0.578688
H29	H	0.392775	1.078515	0.000057
H30	H	-0.465598	1.683350	0.000103
C31	C	0.016974	1.652065	0.660503
C32	C	0.091034	1.577846	0.567772
H33	H	-0.040185	1.709324	0.611911
H34	H	0.069148	1.697898	0.716221
H35	H	-0.028284	1.599305	0.716250
H36	H	0.136299	1.630606	0.512032
H37	H	0.038854	1.532011	0.512031
H38	H	-0.224844	1.394211	0.000077
H39	H	0.386506	0.840836	0.000096
C40	C	-0.037808	0.745149	0.000125
C41	C	-0.058386	0.876937	0.000122
H42	H	-0.116043	0.710198	0.000121
H43	H	0.008274	0.717938	0.079274
H44	H	0.008286	0.717934	-0.079034
H45	H	-0.104472	0.904152	0.079287
H46	H	-0.104487	0.904159	-0.079035
H47	H	-0.019278	1.129312	0.000099
C48	C	0.479167	1.333544	0.622938
C49	C	0.356284	1.312058	0.657385
H50	H	0.536317	1.276267	0.671519
H51	H	0.493230	1.417548	0.646288
H52	H	0.491297	1.321365	0.527644
H53	H	0.344151	1.324246	0.752678
H54	H	0.342216	1.228033	0.634044
H55	H	-0.216138	1.689955	0.000112
C56	C	-0.287104	1.353004	-0.116611
C57	C	-0.362805	1.357897	0.000071
H58	H	-0.233429	1.276672	-0.116620
H59	H	-0.238072	1.422649	-0.116591
H60	H	-0.338475	1.356353	-0.195757
H61	H	-0.311435	1.354557	0.079217
H62	H	-0.411842	1.288233	0.000063
C63	C	0.335538	1.188200	0.377295
C64	C	0.356291	1.312028	0.342837
H65	H	0.392701	1.130926	0.328724
H66	H	0.252179	1.173636	0.353939
H67	H	0.347680	1.176058	0.472591
H68	H	0.344139	1.324174	0.247542
H69	H	0.439670	1.326598	0.366184
H70	H	0.115051	1.553778	0.412025
