data_functionalizedCrystal
_audit_creation_method	'MofGen! by Chris Wilmer'
_symmetry_space_group_name_H-M	'P1'
_symmetry_Int_Tables_number	1
_symmetry_cell_setting	triclinic
loop_
_symmetry_equiv_pos_as_xyz
  x,y,z
_cell_length_a	8.497374
_cell_length_b	13.032831
_cell_length_c	13.032721
_cell_angle_alpha	89.097115
_cell_angle_beta	97.169095
_cell_angle_gamma	97.172717
loop_
_atom_site_label
_atom_site_type_symbol
_atom_site_fract_x
_atom_site_fract_y
_atom_site_fract_z
Zn1	Zn	1.299749	1.519982	0.609635
Zn2	Zn	1.799749	2.019982	1.109635
Zn3	Zn	1.064703	1.498071	0.781567
Zn4	Zn	1.564703	1.998071	1.281567
Zn5	Zn	0.998870	1.348061	0.587743
Zn6	Zn	1.498870	1.848061	1.087743
Zn7	Zn	1.291326	1.326132	0.759681
Zn8	Zn	1.791326	1.826132	1.259681
O9	O	1.163662	1.423062	0.684657
O10	O	1.663662	1.923062	1.184657
O11	O	1.299646	1.660983	0.650764
O12	O	1.799646	2.160983	1.150764
O13	O	0.835209	1.478179	0.755853
O14	O	1.335209	1.978179	1.255853
O15	O	1.014756	1.389213	0.446737
O16	O	1.514756	1.889213	0.946737
O17	O	1.126959	1.644885	0.777081
O18	O	1.626959	2.144885	1.277081
O19	O	1.235810	1.515523	0.462821
O20	O	1.735810	2.015523	0.962821
O21	O	0.786842	1.367967	0.613452
O22	O	1.286842	1.867967	1.113452
O23	O	1.006589	1.201245	0.592230
O24	O	1.506589	1.701245	1.092230
O25	O	1.513205	1.351839	0.739780
O26	O	2.013205	1.851839	1.239780
O27	O	1.221455	1.185134	0.718552
O28	O	1.721455	1.685134	1.218552
O29	O	1.519393	1.494260	0.629542
O30	O	2.019393	1.994260	1.129542
O31	O	1.118792	1.456916	0.922574
O32	O	1.618792	1.956916	1.422574
O33	O	1.285291	1.330593	0.906494
O34	O	1.785291	1.830593	1.406494
C35	C	1.105965	1.155876	0.650641
C36	C	1.605965	1.655876	1.150641
C37	C	1.081324	1.041569	0.636114
C38	C	1.581324	1.541569	1.136114
C39	C	1.176523	0.982652	0.692239
C40	C	1.676523	1.482652	1.192239
C41	C	1.151057	0.864510	0.677225
C42	C	1.651057	1.364510	1.177225
C43	C	1.208312	1.389026	0.951852
C44	C	1.708312	1.889026	1.451852
C45	C	1.227486	1.374559	1.066171
C46	C	1.727486	1.874559	1.566171
C47	C	1.575141	1.423054	0.684657
C48	C	2.075141	1.923054	1.184657
C49	C	1.753788	1.423055	0.684668
C50	C	2.253788	1.923055	1.184668
C51	C	1.221586	1.691291	0.718806
C52	C	1.721586	2.191291	1.218806
C53	C	1.246269	1.805594	0.733358
C54	C	1.746269	2.305594	1.233358
C55	C	1.118879	1.457259	0.416421
C56	C	1.618879	1.957259	0.916421
C57	C	1.099795	1.471831	0.302116
C58	C	1.599795	1.971831	0.802116
C59	C	1.153738	1.430666	1.125067
C60	C	1.653738	1.930666	1.625067
C61	C	1.173554	1.415716	1.243222
C62	C	1.673554	1.915716	1.743222
H63	H	0.980973	1.004548	0.576944
H64	H	1.480973	1.504548	1.076944
O65	O	1.309472	1.031696	0.770597
O66	O	1.809472	1.531696	1.270597
H67	H	1.291329	1.000874	0.848698
H68	H	1.791329	1.500874	1.348698
O69	O	1.050703	1.508983	1.076007
O70	O	1.550703	2.008983	1.576007
H71	H	1.051320	1.508443	0.990903
H72	H	1.551320	2.008443	1.490903
O73	O	1.276616	1.337408	1.292278
O74	O	1.776616	1.837408	1.792278
H75	H	1.275992	1.337944	1.377382
H76	H	1.775992	1.837944	1.877382
H77	H	1.021987	1.530944	1.265071
H78	H	1.521987	2.030944	1.765071
H79	H	1.305302	1.315459	1.103223
H80	H	1.805302	1.815459	1.603223
O81	O	1.379221	0.854620	0.811732
O82	O	1.879221	1.354620	1.311732
H83	H	1.445089	0.793489	0.850554
H84	H	1.945089	1.293489	1.350554
O85	O	1.018084	0.815488	0.598863
O86	O	1.518084	1.315488	1.098863
H87	H	1.018929	0.730387	0.599382
H88	H	1.518929	1.230387	1.099382
