data_functionalizedCrystal
_audit_creation_method	'MofGen! by Chris Wilmer'
_symmetry_space_group_name_H-M	'P1'
_symmetry_Int_Tables_number	1
_symmetry_cell_setting	triclinic
loop_
_symmetry_equiv_pos_as_xyz
  x,y,z
_cell_length_a	12.759401
_cell_length_b	16.959453
_cell_length_c	12.759393
_cell_angle_alpha	89.964958
_cell_angle_beta	89.978811
_cell_angle_gamma	90.019935
loop_
_atom_site_label
_atom_site_type_symbol
_atom_site_fract_x
_atom_site_fract_y
_atom_site_fract_z
Zn1	Zn	1.606217	-0.314636	-0.594031
Zn2	Zn	1.606095	-0.446838	-0.418341
Zn3	Zn	1.430519	-0.314677	-0.418363
Zn4	Zn	1.430491	-0.446776	-0.593974
O5	O	1.518330	-0.380732	-0.506177
O6	O	1.753222	-0.332181	-0.570741
O7	O	1.582765	-0.429349	-0.271323
O8	O	1.453888	-0.204061	-0.441699
O9	O	1.753132	-0.429309	-0.441662
O10	O	1.582973	-0.204031	-0.570762
O11	O	1.453770	-0.332251	-0.271339
O12	O	1.283494	-0.332192	-0.441643
O13	O	1.453841	-0.429205	-0.741003
O14	O	1.283474	-0.429244	-0.570664
O15	O	1.582946	-0.332122	-0.741045
O16	O	1.582738	-0.557440	-0.441606
O17	O	1.453723	-0.557395	-0.570643
C18	C	1.245363	-0.380716	-0.506150
C19	C	1.128586	-0.380729	-0.506164
C20	C	0.963944	-0.431240	-0.438898
C21	C	1.073668	-0.431226	-0.438868
C22	C	1.073775	-0.330238	-0.573485
C23	C	0.964053	-0.330249	-0.573509
C24	C	0.963883	-0.489547	-0.361181
C25	C	1.073607	-0.489533	-0.361151
C26	C	1.518243	-0.586098	-0.506139
C27	C	1.518301	-0.673955	-0.506157
C28	C	1.585631	-1.045356	-0.573507
C29	C	1.451323	-1.045504	-0.439003
C30	C	1.451285	-0.962958	-0.438979
C31	C	1.518419	-0.921607	-0.506221
C32	C	1.585592	-0.962802	-0.573487
C33	C	1.384105	-0.921757	-0.371722
C34	C	1.384063	-0.839206	-0.371696
C35	C	1.451203	-0.797854	-0.438933
C36	C	1.518380	-0.839054	-0.506201
C37	C	1.585514	-0.797703	-0.573443
C38	C	1.652696	-0.838902	-0.640707
C39	C	1.652732	-0.921450	-0.640725
C40	C	1.451167	-0.715305	-0.438915
C41	C	1.585475	-0.715150	-0.573424
C42	C	1.792364	-0.380748	-0.506205
C43	C	1.909140	-0.380754	-0.506217
C44	C	1.518404	-0.380652	-0.780211
C45	C	1.518435	-0.380618	-0.896987
C46	C	1.518447	-0.174563	-0.506239
C47	C	1.518497	-0.086707	-0.506265
C48	C	1.585670	-0.330062	-0.951873
C49	C	1.585694	-0.330034	-1.061597
C50	C	1.451248	-0.431124	-1.061540
C51	C	1.451219	-0.431148	-0.951818
C52	C	1.663294	-0.271701	-0.951907
C53	C	1.663319	-0.271672	-1.061631
C54	C	1.518318	-0.380754	-0.233210
C55	C	1.518490	-0.380565	-0.116434
H56	H	1.107597	-0.467537	-0.283896
C57	C	1.726540	-0.793410	-0.714668
H58	H	1.716892	-0.738348	-0.705016
H59	H	1.711140	-0.806904	-0.785250
H60	H	1.797151	-0.806903	-0.699350
H61	H	1.396467	-0.472312	-0.907134
C62	C	1.134183	-0.274692	-0.647508
H63	H	1.207379	-0.281918	-0.637858
H64	H	1.116205	-0.221571	-0.632265
H65	H	1.116240	-0.286330	-0.718079
H66	H	1.103382	-0.550767	-0.382798
C67	C	1.377318	-0.486706	-1.121853
H68	H	1.337267	-0.516815	-1.073447
H69	H	1.417494	-0.521139	-1.164649
H70	H	1.331566	-0.456449	-1.164658
H71	H	0.934064	-0.473086	-0.279855
H72	H	1.740563	-0.293646	-0.917873
H73	H	1.744688	-0.288068	-1.091412
C74	C	0.917900	-0.568143	-0.400367
H75	H	0.973349	-0.603137	-0.417796
H76	H	0.876030	-0.558811	-0.460653
H77	H	0.875963	-0.590977	-0.346810
H78	H	1.329445	-0.955431	-0.316980
H79	H	1.640148	-0.681487	-0.628177
H80	H	1.707428	-0.955001	-0.695488
H81	H	1.634213	-0.213509	-1.095682
H82	H	0.919436	-0.289132	-0.628318
H83	H	1.641533	-0.210487	-0.922155
C84	C	1.659523	-1.090669	-0.647495
H85	H	1.649931	-1.145755	-0.637884
H86	H	1.730114	-1.077109	-0.632184
H87	H	1.644092	-1.077107	-0.718071
H88	H	1.396662	-1.079177	-0.384262
C89	C	1.310177	-0.793895	-0.297700
H90	H	1.270207	-0.830346	-0.257652
H91	H	1.264363	-0.761687	-0.337832
H92	H	1.350389	-0.761705	-0.251948
C93	C	1.377274	-0.669991	-0.364938
H94	H	1.337298	-0.706440	-0.324894
H95	H	1.331466	-0.637786	-0.405081
H96	H	1.417477	-0.637797	-0.319181
