data_functionalizedCrystal
_audit_creation_method	'MofGen! by Chris Wilmer'
_symmetry_space_group_name_H-M	'P1'
_symmetry_Int_Tables_number	1
_symmetry_cell_setting	triclinic
loop_
_symmetry_equiv_pos_as_xyz
  x,y,z
_cell_length_a	12.759401
_cell_length_b	16.959453
_cell_length_c	12.759393
_cell_angle_alpha	90.035074
_cell_angle_beta	90.021189
_cell_angle_gamma	90.024769
loop_
_atom_site_label
_atom_site_type_symbol
_atom_site_fract_x
_atom_site_fract_y
_atom_site_fract_z
Zn1	Zn	1.606182	-0.314636	0.594031
Zn2	Zn	1.606045	-0.446838	0.418341
Zn3	Zn	1.430483	-0.314677	0.418362
Zn4	Zn	1.430441	-0.446776	0.593974
O5	O	1.518288	-0.380732	0.506177
O6	O	1.753184	-0.332181	0.570740
O7	O	1.582717	-0.429349	0.271322
O8	O	1.453865	-0.204061	0.441698
O9	O	1.753084	-0.429309	0.441661
O10	O	1.582950	-0.204031	0.570762
O11	O	1.453733	-0.332251	0.271338
O12	O	1.283457	-0.332192	0.441643
O13	O	1.453793	-0.429205	0.741003
O14	O	1.283426	-0.429245	0.570664
O15	O	1.582909	-0.332122	0.741045
O16	O	1.582676	-0.557440	0.441606
O17	O	1.453660	-0.557395	0.570642
C18	C	1.245320	-0.380716	0.506150
C19	C	1.128544	-0.380729	0.506163
C20	C	0.963895	-0.431240	0.438898
C21	C	1.073620	-0.431226	0.438868
C22	C	1.073738	-0.330238	0.573485
C23	C	0.964016	-0.330249	0.573509
C24	C	0.963828	-0.489547	0.361180
C25	C	1.073552	-0.489533	0.361151
C26	C	1.518177	-0.586098	0.506138
C27	C	1.518226	-0.673955	0.506157
C28	C	1.451021	-0.715234	0.573293
C29	C	1.585484	-0.715229	0.439044
C30	C	1.585536	-0.797774	0.439063
C31	C	1.518330	-0.839054	0.506199
C32	C	1.451073	-0.797788	0.573316
C33	C	1.652799	-0.839047	0.371955
C34	C	1.652855	-0.921598	0.371972
C35	C	1.585644	-0.962879	0.439104
C36	C	1.518383	-0.921608	0.506223
C37	C	1.451177	-0.962887	0.573359
C38	C	1.383910	-0.921617	0.640473
C39	C	1.383861	-0.839069	0.640448
C40	C	1.585692	-1.045427	0.439129
C41	C	1.451229	-1.045441	0.573382
C42	C	1.792321	-0.380748	0.506205
C43	C	1.909098	-0.380754	0.506217
C44	C	1.518361	-0.380652	0.780210
C45	C	1.518393	-0.380618	0.896987
C46	C	1.518427	-0.174563	0.506239
C47	C	1.518487	-0.086707	0.506265
C48	C	1.518275	-0.380754	0.233210
C49	C	1.518447	-0.380565	0.116433
C50	C	1.585633	-0.330062	0.951873
C51	C	1.585657	-0.330034	1.061597
C52	C	1.451200	-0.431124	1.061540
C53	C	1.451170	-0.431148	0.951818
C54	C	1.663264	-0.271701	0.951907
C55	C	1.663289	-0.271672	1.061631
H56	H	0.934011	-0.473086	0.279855
F57	F	1.379590	-0.484945	0.893408
H58	H	0.919404	-0.289132	0.628318
H59	H	1.396468	-0.472261	1.106197
F60	F	1.379693	-1.089367	0.644834
F61	F	1.769641	-0.293093	1.100562
H62	H	1.118466	-0.289117	0.628271
H63	H	0.929789	-0.547727	0.390198
H64	H	1.329096	-0.805462	0.695091
H65	H	1.107545	-0.467537	0.283896
H66	H	1.396249	-0.681630	0.627934
H67	H	1.103320	-0.550767	0.382798
F68	F	1.312394	-0.965559	0.711929
H69	H	1.640206	-0.681616	0.384389
H70	H	1.641509	-0.210487	0.922155
F71	F	1.724327	-0.795111	0.300518
H72	H	1.634189	-0.213509	1.095682
F73	F	1.764257	-0.300381	0.907416
H74	H	1.707627	-0.955193	0.317322
F75	F	1.657283	-1.089346	0.367712
