data_functionalizedCrystal
_audit_creation_method	'MofGen! by Chris Wilmer'
_symmetry_space_group_name_H-M	'P1'
_symmetry_Int_Tables_number	1
_symmetry_cell_setting	triclinic
loop_
_symmetry_equiv_pos_as_xyz
  x,y,z
_cell_length_a	19.188930
_cell_length_b	13.930277
_cell_length_c	14.853567
_cell_angle_alpha	89.999243
_cell_angle_beta	83.389856
_cell_angle_gamma	89.978906
loop_
_atom_site_label
_atom_site_type_symbol
_atom_site_fract_x
_atom_site_fract_y
_atom_site_fract_z
O1	O	0.926523	-0.080132	0.112552
O2	O	0.723262	-0.080065	0.127704
O3	O	0.830322	-0.080103	-0.011132
O4	O	0.819463	-0.080094	0.251388
O5	O	0.830307	0.079559	-0.011135
O6	O	0.723247	0.079597	0.127701
O7	O	0.926508	0.079530	0.112549
Zn8	Zn	0.824875	0.104913	0.120124
Zn9	Zn	0.824895	-0.105448	0.120128
O10	O	0.819448	0.079568	0.251385
C11	C	0.697242	-0.000225	0.127211
C12	C	0.619733	-0.000200	0.125739
N13	N	0.824867	0.248479	0.120121
N14	N	0.824909	-0.249014	0.120124
C15	C	0.575080	-0.000212	0.207203
C16	C	0.502252	-0.000223	0.205819
C17	C	0.474079	-0.000241	0.122966
C18	C	0.518741	-0.000223	0.041491
C19	C	0.591568	-0.000203	0.042878
N20	N	0.365893	-0.054622	0.059637
N21	N	0.296710	-0.054643	0.058326
C22	C	0.254657	-0.000300	0.118785
N23	N	0.284398	0.054054	0.180619
N24	N	0.353588	0.054071	0.181933
C25	C	0.395112	-0.000262	0.121454
C26	C	0.131035	-0.000322	0.198755
C27	C	0.058205	-0.000327	0.197367
C28	C	0.074696	-0.000336	0.033038
C29	C	0.147524	-0.000322	0.034427
C30	C	0.175689	-0.000319	0.117288
C31	C	0.952528	-0.000311	0.113041
C32	C	1.030038	-0.000343	0.114514
C33	C	0.829823	-0.000275	-0.044720
C34	C	0.828348	-0.000282	-0.144795
C35	C	0.777487	0.700766	0.181581
C36	C	0.872322	0.700701	0.058669
C37	C	0.872314	0.600206	0.058666
C38	C	0.824892	0.549985	0.120122
C39	C	0.777479	0.600261	0.181582
C40	C	0.919731	0.549923	-0.002786
C41	C	0.919725	0.449421	-0.002791
C42	C	0.872300	0.399199	0.058662
C43	C	0.824884	0.449480	0.120123
C44	C	0.777462	0.399260	0.181580
C45	C	0.730042	0.449540	0.243037
C46	C	0.730053	0.550038	0.243034
C47	C	0.872289	0.298700	0.058665
C48	C	0.777454	0.298755	0.181580
C49	C	0.758520	-0.000241	-0.556941
C50	C	0.885709	-0.000283	-0.578929
C51	C	0.887095	-0.000289	-0.484903
C52	C	0.824193	-0.000270	-0.426891
C53	C	0.759904	-0.000244	-0.462906
C54	C	0.951383	-0.000305	-0.448881
C55	C	0.952772	-0.000310	-0.354850
C56	C	0.889869	-0.000298	-0.296836
C57	C	0.825577	-0.000273	-0.332856
C58	C	0.762675	-0.000254	-0.274845
C59	C	0.698383	-0.000236	-0.310862
C60	C	0.697001	-0.000232	-0.404892
C61	C	0.891251	-0.000302	-0.202807
C62	C	0.764059	-0.000257	-0.180809
C63	C	0.819948	-0.000262	0.284972
C64	C	0.821422	-0.000261	0.385048
H65	H	0.598007	-0.000212	0.274675
H66	H	0.936921	-0.000291	-0.626167
H67	H	0.691446	0.590982	0.293072
H68	H	0.738834	0.257871	0.231623
H69	H	0.910900	0.257767	0.008631
H70	H	0.153968	-0.000306	0.266225
H71	H	0.051759	-0.000410	-0.034423
H72	H	0.183881	-0.000317	-0.031910
H73	H	0.495798	-0.000251	-0.025968
H74	H	0.021850	-0.000331	0.263708
H75	H	1.002595	-0.000312	-0.496120
H76	H	0.627925	-0.000194	-0.023463
H77	H	0.644657	-0.000217	-0.434227
H78	H	0.465889	-0.000230	0.272159
H79	H	0.706174	-0.000231	-0.586271
H80	H	1.005123	-0.000326	-0.325533
H81	H	0.691434	0.408639	0.293079
H82	H	0.943596	-0.000310	-0.173485
H83	H	0.712835	-0.000245	-0.133582
H84	H	0.738877	0.741706	0.231616
H85	H	0.958344	0.590815	-0.052818
H86	H	0.910935	0.741594	0.008637
H87	H	0.958336	0.408489	-0.052833
H88	H	0.647168	-0.000214	-0.263617
