data_functionalizedCrystal
_audit_creation_method	'MofGen! by Chris Wilmer'
_symmetry_space_group_name_H-M	'P1'
_symmetry_Int_Tables_number	1
_symmetry_cell_setting	triclinic
loop_
_symmetry_equiv_pos_as_xyz
  x,y,z
_cell_length_a	8.497374
_cell_length_b	8.497374
_cell_length_c	16.625548
_cell_angle_alpha	90.003540
_cell_angle_beta	89.997839
_cell_angle_gamma	90.005237
loop_
_atom_site_label
_atom_site_type_symbol
_atom_site_fract_x
_atom_site_fract_y
_atom_site_fract_z
Zn1	Zn	0.628285	0.892183	1.232665
Zn2	Zn	1.128285	1.392183	1.732665
Zn3	Zn	0.892030	0.628448	1.232658
Zn4	Zn	1.392030	1.128448	1.732658
Zn5	Zn	0.628263	0.628402	1.097867
Zn6	Zn	1.128263	1.128402	1.597867
Zn7	Zn	0.892021	0.892171	1.097847
Zn8	Zn	1.392021	1.392171	1.597847
O9	O	0.760150	0.760301	1.165259
O10	O	1.260150	1.260301	1.665259
O11	O	0.663284	0.857222	1.345496
O12	O	1.163284	1.357222	1.845496
O13	O	0.857036	0.407680	1.214783
O14	O	1.357036	0.907680	1.714783
O15	O	0.407503	0.663378	1.115759
O16	O	0.907503	1.163378	1.615759
O17	O	0.857057	0.663458	1.345492
O18	O	1.357057	1.163458	1.845492
O19	O	0.407519	0.857177	1.214794
O20	O	0.907519	1.357177	1.714794
O21	O	0.663247	0.407646	1.115752
O22	O	1.163247	0.907646	1.615752
O23	O	0.663238	0.663367	0.985032
O24	O	1.163238	1.163367	1.485032
O25	O	0.857041	1.112935	1.115726
O26	O	1.357041	1.612935	1.615726
O27	O	0.857020	0.857158	0.985017
O28	O	1.357020	1.357158	1.485017
O29	O	0.663275	1.112944	1.214775
O30	O	1.163275	1.612944	1.714775
O31	O	1.112791	0.663447	1.214765
O32	O	1.612791	1.163447	1.714765
O33	O	1.112785	0.857203	1.115719
O34	O	1.612785	1.357203	1.615719
C35	C	0.760127	0.760257	0.955768
C36	C	1.260127	1.260257	1.455768
C37	C	0.760156	0.760275	0.866147
C38	C	1.260156	1.260275	1.366147
C39	C	1.170030	0.760324	1.165249
C40	C	1.670030	1.260324	1.665249
C41	C	1.348674	0.760298	1.165271
C42	C	1.848674	1.260298	1.665271
C43	C	0.760152	1.171781	1.165253
C44	C	1.260152	1.671781	1.665253
C45	C	0.760169	1.350425	1.165255
C46	C	1.260169	1.850425	1.665255
C47	C	0.760166	0.760343	0.537972
C48	C	1.260166	1.260343	1.037972
C49	C	0.760159	0.760319	0.629280
C50	C	1.260159	1.260319	1.129280
C51	C	0.760162	0.760308	0.702057
C52	C	1.260162	1.260308	1.202057
C53	C	0.760153	0.760287	0.793371
C54	C	1.260153	1.260287	1.293371
C55	C	0.760174	0.760346	1.375568
C56	C	1.260174	1.260346	1.875568
C57	C	0.760184	0.760365	1.465189
C58	C	1.260184	1.260365	1.965189
