data_functionalizedCrystal
_audit_creation_method	'MofGen! by Chris Wilmer'
_symmetry_space_group_name_H-M	'P1'
_symmetry_Int_Tables_number	1
_symmetry_cell_setting	triclinic
loop_
_symmetry_equiv_pos_as_xyz
  x,y,z
_cell_length_a	27.440280
_cell_length_b	27.440280
_cell_length_c	14.560438
_cell_angle_alpha	59.993237
_cell_angle_beta	89.996099
_cell_angle_gamma	60.002656
loop_
_atom_site_label
_atom_site_type_symbol
_atom_site_fract_x
_atom_site_fract_y
_atom_site_fract_z
Zr1	Zr	0.469573	0.533367	-0.120646
O2	O	0.391768	0.635042	-0.267307
O3	O	0.493414	0.431699	-0.075676
O4	O	0.493427	0.533366	-0.267297
O5	O	0.391757	0.533373	0.075455
O6	O	0.573628	0.533358	-0.267302
O7	O	0.391755	0.533374	-0.075685
O8	O	0.573607	0.351494	0.075473
O9	O	0.391779	0.715237	-0.267320
O10	O	0.563449	0.473508	-0.056514
O11	O	0.503596	0.473513	0.056285
O12	O	0.503611	0.593213	-0.169325
O13	O	0.443758	0.593218	-0.056526
Zr14	Zr	0.597489	0.533352	0.120397
Zr15	Zr	0.597486	0.533355	-0.120655
Zr16	Zr	0.469576	0.533365	0.120406
Zr17	Zr	0.469592	0.661270	-0.120668
Zr18	Zr	0.597471	0.405449	0.120418
O19	O	0.573648	0.635021	0.075426
O20	O	0.573643	0.635024	-0.267319
O21	O	0.391772	0.635039	0.075439
O22	O	0.675295	0.431678	0.267057
O23	O	0.675290	0.431681	-0.075688
O24	O	0.493419	0.431695	0.267069
O25	O	0.675305	0.533347	-0.075705
O26	O	0.573636	0.533353	0.267047
O27	O	0.493434	0.533361	0.267053
O28	O	0.675307	0.533345	0.075436
O29	O	0.493453	0.715228	-0.267327
O30	O	0.573609	0.351492	0.267077
O31	O	0.675283	0.351482	0.267070
O32	O	0.675280	0.351484	0.075466
O33	O	0.391782	0.715236	-0.075716
O34	O	0.493456	0.715226	-0.075722
O35	O	0.563452	0.473506	0.169075
O36	O	0.623304	0.473501	0.056276
O37	O	0.563466	0.593207	-0.056534
O38	O	0.503614	0.593211	0.056265
C39	C	0.533508	0.373373	-0.000098
C40	C	0.533500	0.319074	-0.000089
C41	C	0.577716	0.040186	0.083149
C42	C	0.577710	0.091208	0.083153
O43	O	0.615290	0.080027	0.153948
N44	N	0.533525	0.160904	-0.000112
C45	C	0.489347	0.179578	-0.083393
O46	O	0.451764	0.243545	-0.154217
C47	C	0.489355	0.128557	-0.083401
C48	C	0.533539	0.058861	-0.000124
C49	C	0.621897	-0.029507	0.166419
C50	C	0.621901	-0.080525	0.166415
C51	C	0.577725	-0.061850	0.083142
C52	C	0.533544	0.007842	-0.000128
C53	C	0.445179	0.147232	-0.166687
C54	C	0.445192	0.096203	-0.166688
C55	C	0.489376	0.026507	-0.083411
C56	C	0.489372	-0.024501	-0.083404
N57	N	0.533557	-0.094197	-0.000139
C58	C	0.577733	-0.112872	0.083134
C59	C	0.489333	0.286724	-0.083371
C60	C	0.489321	0.337745	-0.083360
C61	C	0.577686	0.249371	0.083186
C62	C	0.577694	0.198349	0.083178
C63	C	0.533518	0.217028	-0.000106
C64	C	0.577739	-0.220011	0.083121
C65	C	0.577739	-0.271029	0.083113
C66	C	0.489376	-0.182651	-0.083436
C67	C	0.489375	-0.131637	-0.083425
C68	C	0.533562	-0.150321	-0.000141
O69	O	0.451812	-0.013372	-0.154166
O70	O	0.615314	-0.176839	0.153937
C71	C	0.373532	0.533375	-0.000114
C72	C	0.319229	0.533381	-0.000110
C73	C	-0.017470	0.533345	-0.083391
C74	C	-0.068488	0.533340	-0.083392
O75	O	-0.094863	0.533315	-0.154182
N76	N	-0.094004	0.533341	-0.000128
C77	C	-0.068497	0.533339	0.083148
O78	O	-0.094885	0.533339	0.153970
C79	C	-0.017477	0.533339	0.083152
C80	C	0.008033	0.533346	-0.000124
C81	C	0.008041	0.533351	-0.166659
C82	C	0.059055	0.533357	-0.166659
C83	C	0.084558	0.533358	-0.083392
C84	C	0.059047	0.533352	-0.000124
C85	C	0.008031	0.533333	0.166432
C86	C	0.059055	0.533332	0.166429
C87	C	0.084565	0.533339	0.083154
C88	C	0.135563	0.533359	0.083144
N89	N	0.161080	0.533358	-0.000120
C90	C	0.135577	0.533357	-0.083387
C91	C	-0.175641	0.533338	0.083133
C92	C	-0.226662	0.533343	0.083125
C93	C	-0.226648	0.533343	-0.083413
C94	C	-0.175629	0.533343	-0.083409
C95	C	-0.150124	0.533338	-0.000130
C96	C	0.242710	0.533371	-0.083382
C97	C	0.293726	0.533380	-0.083378
C98	C	0.293710	0.533377	0.083164
C99	C	0.242696	0.533371	0.083156
C100	C	0.217198	0.533366	-0.000122
O101	O	0.161973	0.533381	0.153900
O102	O	0.161976	0.533349	-0.154190
C103	C	0.693531	0.533344	-0.000136
C104	C	0.747833	0.533339	-0.000139
C105	C	0.533527	0.533362	-0.301644
C106	C	0.533526	0.533363	-0.403977
C107	C	0.533554	0.693347	-0.000151
C108	C	0.533562	0.747645	-0.000160
C109	C	0.502292	0.595847	-0.510939
C110	C	0.502299	0.595844	-0.607088
C111	C	0.564775	0.470868	-0.489299
C112	C	0.564771	0.470872	-0.393153
C113	C	0.533535	0.533357	0.301395
C114	C	0.533537	0.533356	0.403728
C115	C	0.693507	0.373357	-0.000109
C116	C	0.747802	0.319054	-0.000104
C117	C	0.533512	0.373370	0.301421
C118	C	0.533505	0.319071	0.403763
C119	C	0.693511	0.373354	0.301410
C120	C	0.747807	0.319050	0.403748
C121	C	0.373551	0.693365	-0.301660
C122	C	0.319255	0.747670	-0.403998
C123	C	0.373555	0.693362	-0.000140
C124	C	0.319260	0.747666	-0.000146
C125	C	0.533550	0.693350	-0.301671
C126	C	0.533557	0.747649	-0.404013
C127	C	0.742055	0.293556	-0.058987
C128	C	0.793066	0.242539	-0.059005
C129	C	0.849822	0.217017	-0.000132
C130	C	0.855568	0.242520	0.058753
C131	C	0.804558	0.293540	0.058763
C132	C	0.564746	0.293568	0.510710
C133	C	0.564738	0.242555	0.606880
C134	C	0.533492	0.217043	0.596101
C135	C	0.502247	0.242551	0.489144
C136	C	0.502252	0.293566	0.392976
C137	C	0.804553	0.293546	0.392928
C138	C	0.855574	0.242528	0.489076
C139	C	0.849849	0.217012	0.596044
C140	C	0.793098	0.242522	0.606863
C141	C	0.742077	0.293542	0.510715
C142	C	0.262509	0.773180	-0.393177
C143	C	0.211488	0.824214	-0.489326
C144	C	0.217213	0.849732	-0.596294
C145	C	0.273965	0.824219	-0.607112
C146	C	0.324985	0.773190	-0.510965
C147	C	0.325007	0.773169	0.058728
C148	C	0.273997	0.824200	0.058719
C149	C	0.217240	0.849723	-0.000158
C150	C	0.211494	0.824218	-0.059038
C151	C	0.262504	0.773191	-0.059035
C152	C	0.564809	0.773145	-0.393198
C153	C	0.564827	0.824158	-0.489350
C154	C	0.533589	0.849677	-0.596315
C155	C	0.502336	0.824176	-0.607128
C156	C	0.502322	0.773161	-0.510977
H157	H	0.613719	-0.327781	0.150932
O158	O	0.910708	0.217826	0.478600
C159	C	0.942096	0.230289	0.530683
H160	H	0.908995	0.274998	0.535132
H161	H	0.970291	0.243819	0.479659
H162	H	0.972383	0.182130	0.619370
O163	O	0.595009	0.318469	0.521048
C164	C	0.554900	0.389959	0.468958
H165	H	0.513784	0.411594	0.403429
H166	H	0.577567	0.416395	0.426259
H167	H	0.540918	0.399696	0.535062
H168	H	0.809245	0.314294	0.106720
O169	O	0.446425	-0.063964	-0.164424
C170	C	0.407424	-0.058425	-0.237902
H171	H	0.431230	-0.107748	-0.233934
H172	H	0.393165	-0.012780	-0.327505
H173	H	0.366343	-0.050269	-0.211687
O174	O	0.620601	0.130671	0.164214
C175	C	0.617781	0.116247	0.270813
H176	H	0.595311	0.165853	0.265786
H177	H	0.664873	0.077578	0.334412
H178	H	0.590878	0.093644	0.298442
H179	H	0.257817	0.752428	-0.106973
O180	O	0.664734	-0.047572	0.247351
C181	C	0.637691	-0.020735	0.308307
H182	H	0.589438	0.025275	0.254653
H183	H	0.663067	-0.003569	0.331000
H184	H	0.638702	-0.062211	0.388557
H185	H	0.476902	0.844962	-0.694232
O186	O	0.156404	0.848954	-0.116314
C187	C	0.162261	0.815492	-0.168254
H188	H	0.207780	0.794467	-0.179941
H189	H	0.125660	0.853771	-0.253773
H190	H	0.158078	0.771180	-0.113053
H191	H	0.175664	0.891283	-0.674574
O192	O	0.083732	0.533370	0.247371
C193	C	0.050277	0.533351	0.320874
H194	H	0.003065	0.555041	0.276010
H195	H	0.048365	0.566641	0.347735
H196	H	0.072349	0.478358	0.398312
O197	O	0.533575	0.167463	0.689641
C198	C	0.567841	0.150440	0.786341
H199	H	0.600875	0.164501	0.764245
H200	H	0.593272	0.092775	0.854263
H201	H	0.537085	0.180278	0.818709
O202	O	0.899397	0.167537	0.689468
C203	C	0.899310	0.192458	0.753903
H204	H	0.870457	0.251202	0.697457
H205	H	0.946904	0.172421	0.792831
H206	H	0.880501	0.173902	0.823523
O207	O	0.257017	0.748411	-0.289214
C208	C	0.284657	0.760886	-0.230093
H209	H	0.319431	0.767228	-0.266815
H210	H	0.307306	0.715568	-0.137552
H211	H	0.249587	0.809949	-0.238101
O212	O	0.595096	0.410233	-0.289156
C213	C	0.588378	0.423639	-0.206618
H214	H	0.576885	0.477337	-0.244099
H215	H	0.631854	0.383727	-0.132454
H216	H	0.550963	0.420691	-0.176559
H217	H	0.476807	0.221772	0.480384
H218	H	0.590247	0.752375	-0.306110
O219	O	0.595191	0.848875	-0.478631
C220	C	0.622761	0.815402	-0.363601
H221	H	0.598245	0.794386	-0.312341
H222	H	0.621081	0.853673	-0.350196
H223	H	0.671251	0.771084	-0.335248
H224	H	0.533605	0.891217	-0.674598
H225	H	0.590212	0.419989	-0.480499
O226	O	0.380092	0.748478	0.115944
C227	C	0.374213	0.781928	0.167919
H228	H	0.328690	0.833645	0.121725
H229	H	0.410809	0.790714	0.164747
H230	H	0.378387	0.748473	0.259312
H231	H	0.476870	0.752407	-0.519798
H232	H	0.590183	0.221793	0.693960
O233	O	0.910672	0.217705	0.116115
C234	C	0.917218	0.188165	0.231059
H235	H	0.871294	0.211228	0.240695
H236	H	0.944075	0.199322	0.267150
H237	H	0.941577	0.130058	0.278279
H238	H	0.476865	0.646724	-0.694178
H239	H	0.476814	0.314324	0.305899
O240	O	0.318547	0.533261	-0.164182
C241	C	0.335750	0.473900	-0.158903
H242	H	0.342472	0.432404	-0.071073
H243	H	0.379265	0.453975	-0.177898
H244	H	0.299427	0.487318	-0.223466
H245	H	0.695874	0.314301	0.519541
O246	O	0.620688	-0.238284	0.164137
C247	C	0.659687	-0.310741	0.237608
H248	H	0.635881	-0.334151	0.233624
H249	H	0.673943	-0.326914	0.327215
H250	H	0.700770	-0.329748	0.211397
O251	O	0.787463	0.217723	0.710712
C252	C	0.756004	0.188191	0.723072
H253	H	0.727837	0.211242	0.636523
H254	H	0.725686	0.199369	0.773664
H255	H	0.789048	0.130081	0.769022
O256	O	0.620680	0.231150	0.164047
C257	C	0.677242	0.191832	0.158741
H258	H	0.674585	0.167346	0.116420
H259	H	0.710986	0.149669	0.247500
H260	H	0.691893	0.226685	0.108014
H261	H	0.809226	0.314313	0.305838
O262	O	0.217845	0.533461	-0.164309
C263	C	0.158658	0.592836	-0.225265
H264	H	0.141109	0.612624	-0.171619
H265	H	0.129462	0.579483	-0.247940
H266	H	0.157541	0.634412	-0.305524
O267	O	0.156396	0.848997	-0.478658
C268	C	0.149866	0.878505	-0.419345
H269	H	0.195797	0.855451	-0.366288
H270	H	0.123039	0.867305	-0.362172
H271	H	0.125483	0.936618	-0.481611
O272	O	0.664886	-0.148193	0.247355
C273	C	0.703864	-0.153720	0.320857
H274	H	0.701746	-0.104386	0.275989
H275	H	0.751409	-0.199350	0.347727
H276	H	0.689957	-0.161895	0.398291
H277	H	0.278619	0.845003	-0.694217
H278	H	0.278686	0.844958	0.106670
H279	H	0.371188	0.752420	-0.519789
O280	O	0.167753	0.899266	0.000007
C281	C	0.185003	0.916308	0.064580
H282	H	0.232095	0.871552	0.126832
H283	H	0.152778	0.926909	0.112521
H284	H	0.184086	0.964244	0.006604
O285	O	0.446367	0.304811	-0.164102
C286	C	0.414039	0.277951	-0.113095
H287	H	0.442531	0.231915	-0.022172
H288	H	0.401965	0.260817	-0.160943
H289	H	0.371480	0.319401	-0.114926
H290	H	0.314481	0.533380	0.150957
O291	O	0.471859	0.656593	-0.521594
C292	C	0.410875	0.694603	-0.580895
H293	H	0.405764	0.676832	-0.633957
H294	H	0.391742	0.751766	-0.638064
H295	H	0.385805	0.685947	-0.518621
H296	H	-0.012732	0.533327	0.234242
H297	H	0.453335	0.394492	-0.151160
H298	H	0.409218	0.111420	-0.234513
O299	O	0.402308	0.214917	-0.247732
C300	C	0.405121	0.229312	-0.354321
H301	H	0.451727	0.189437	-0.344673
H302	H	0.395037	0.282912	-0.410891
H303	H	0.370876	0.227229	-0.393589
O304	O	0.083776	0.533325	-0.247600
C305	C	0.050310	0.533339	-0.321098
H306	H	0.024791	0.511639	-0.276226
H307	H	0.081689	0.500056	-0.347969
H308	H	0.017392	0.588332	-0.398531
O309	O	0.446468	-0.164615	-0.164193
C310	C	0.414130	-0.191482	-0.113273
H311	H	0.442576	-0.237474	-0.022306
H312	H	0.402148	-0.208684	-0.161091
H313	H	0.371519	-0.150014	-0.115248
H314	H	-0.012717	0.533348	-0.234466
O315	O	0.899414	0.167387	0.000066
C316	C	0.933583	0.108349	0.111476
H317	H	0.922440	0.123750	0.172238
H318	H	0.983074	0.083642	0.122623
H319	H	0.922866	0.069915	0.129656
O320	O	-0.150808	0.533221	-0.164205
C321	C	-0.133612	0.473863	-0.158929
H322	H	-0.126894	0.432369	-0.071101
H323	H	-0.090097	0.453933	-0.177922
H324	H	-0.169938	0.487287	-0.223496
O325	O	-0.251383	0.533213	-0.164158
C326	C	-0.251223	0.473850	-0.113175
H327	H	-0.215104	0.432360	-0.026820
H328	H	-0.241836	0.453918	-0.168034
H329	H	-0.296599	0.487269	-0.103448
H330	H	-0.247434	0.533349	0.150926
H331	H	0.221920	0.533376	0.150957
H332	H	0.695846	0.314335	-0.106942
O333	O	-0.150965	0.533377	0.164077
C334	C	-0.184425	0.533363	0.237571
H335	H	-0.231637	0.555059	0.192696
H336	H	-0.186335	0.566651	0.264438
H337	H	-0.162359	0.478371	0.315006
O338	O	0.787370	0.217821	-0.116217
C339	C	0.726336	0.251296	-0.168181
H340	H	0.699142	0.272315	-0.121985
H341	H	0.719214	0.213027	-0.165000
H342	H	0.711298	0.295613	-0.259576
