data_functionalizedCrystal
_audit_creation_method	'MofGen! by Chris Wilmer'
_symmetry_space_group_name_H-M	'P1'
_symmetry_Int_Tables_number	1
_symmetry_cell_setting	triclinic
loop_
_symmetry_equiv_pos_as_xyz
  x,y,z
_cell_length_a	28.938199
_cell_length_b	28.937346
_cell_length_c	28.934044
_cell_angle_alpha	60.005004
_cell_angle_beta	60.009897
_cell_angle_gamma	59.994060
loop_
_atom_site_label
_atom_site_type_symbol
_atom_site_fract_x
_atom_site_fract_y
_atom_site_fract_z
O1	O	0.064043	-0.675186	0.564597
O2	O	0.564043	-0.175186	1.064597
O3	O	0.024124	-0.525682	0.454913
O4	O	0.524124	-0.025682	0.954913
O5	O	0.118795	-0.620275	0.454833
O6	O	0.618795	-0.120275	0.954833
O7	O	-0.030629	-0.580593	0.564678
O8	O	0.469371	-0.080593	1.064678
O9	O	0.150204	-0.588870	0.486157
O10	O	0.650204	-0.088870	0.986157
O11	O	0.055533	-0.494276	0.486238
O12	O	0.555533	0.005724	0.986238
O13	O	0.095452	-0.643780	0.595921
O14	O	0.595452	-0.143780	1.095921
Cu15	Cu	0.078360	-0.566161	0.543940
Cu16	Cu	0.578360	-0.066161	1.043940
Cu17	Cu	0.041215	-0.603301	0.506895
Cu18	Cu	0.541215	-0.103301	1.006895
O19	O	0.000780	-0.549187	0.596002
O20	O	0.500780	-0.049187	1.096002
N21	N	0.104487	-0.540042	0.569998
N22	N	0.604487	-0.040042	1.069998
N23	N	0.015094	-0.629425	0.480837
N24	N	0.515094	-0.129425	0.980837
C25	C	0.165467	-0.323909	0.630915
C26	C	0.665467	0.176091	1.130915
C27	C	0.165587	-0.479117	0.786068
C28	C	0.665587	0.020883	1.286068
C29	C	0.165481	-0.479095	0.630906
C30	C	0.665481	0.020905	1.130906
C31	C	0.320696	-0.479083	0.630835
C32	C	0.820696	0.020917	1.130835
C33	C	0.182557	-0.375118	0.647971
C34	C	0.682557	0.124882	1.147971
C35	C	0.182626	-0.462038	0.734858
C36	C	0.682626	0.037962	1.234858
C37	C	0.269485	-0.462018	0.647928
C38	C	0.769485	0.037982	1.147928
C39	C	0.182566	-0.462025	0.647966
C40	C	0.682566	0.037975	1.147966
C41	C	0.143714	-0.258726	0.609206
C42	C	0.643714	0.241274	1.109206
C43	C	0.143738	-0.500820	0.609192
C44	C	0.643738	-0.000820	1.109192
C45	C	0.204309	-0.440300	0.669680
C46	C	0.704309	0.059700	1.169680
C47	C	0.415481	-0.462740	0.580919
C48	C	0.915481	0.037260	1.080919
C49	C	0.474732	-0.482485	0.561145
C50	C	0.974732	0.017515	1.061145
C51	C	0.474757	-0.578356	0.597704
C52	C	0.974757	-0.078356	1.097704
C53	C	0.415508	-0.558609	0.617479
C54	C	0.915508	-0.058609	1.117479
C55	C	0.157989	-0.229089	0.550957
C56	C	0.657989	0.270911	1.050957
C57	C	0.138212	-0.169834	0.531225
C58	C	0.638212	0.330166	1.031225
C59	C	0.089890	-0.169857	0.627992
C60	C	0.589890	0.330143	1.127992
C61	C	0.109667	-0.229112	0.647725
C62	C	0.609667	0.270888	1.147725
C63	C	0.085482	-0.486515	0.623535
C64	C	0.585482	0.013485	1.123535
C65	C	0.065722	-0.506265	0.603789
C66	C	0.565722	-0.006265	1.103789
C67	C	0.162467	-0.554625	0.555370
C68	C	0.662467	-0.054625	1.055370
C69	C	0.182230	-0.534875	0.575110
C70	C	0.682230	-0.034875	1.075110
C71	C	0.085661	-0.486557	0.880902
C72	C	0.585661	0.013443	1.380902
C73	C	0.065952	-0.506323	0.940155
C74	C	0.565952	-0.006323	1.440155
C75	C	0.162734	-0.554693	0.940102
C76	C	0.662734	-0.054693	1.440102
C77	C	0.182441	-0.534928	0.880847
C78	C	0.682441	-0.034928	1.380847
C79	C	0.143904	-0.500859	0.851249
C80	C	0.643904	-0.000859	1.351249
C81	C	0.385871	-0.500801	0.609083
C82	C	0.885871	-0.000801	1.109083
C83	C	-0.110907	-0.668480	0.441278
C84	C	0.389093	-0.168480	0.941278
C85	C	-0.024049	-0.668588	0.441475
C86	C	0.475951	-0.168588	0.941475
C87	C	-0.045729	-0.690282	0.419668
C88	C	0.454271	-0.190282	0.919668
C89	C	-0.062146	-0.785032	0.469507
C90	C	0.437854	-0.285032	0.969507
C91	C	-0.042446	-0.844287	0.489286
C92	C	0.457554	-0.344287	0.989286
C93	C	0.053426	-0.844399	0.452899
C94	C	0.553426	-0.344399	0.952899
C95	C	0.033725	-0.785144	0.433120
C96	C	0.533725	-0.285144	0.933120
C97	C	-0.140617	-0.682751	0.499509
C98	C	0.359383	-0.182751	0.999509
C99	C	-0.199867	-0.662928	0.519152
C100	C	0.300133	-0.162928	1.019152
C101	C	-0.199694	-0.614571	0.422330
C102	C	0.300306	-0.114571	0.922330
C103	C	-0.140443	-0.634393	0.402687
C104	C	0.359557	-0.134393	0.902687
C105	C	-0.038320	-0.610337	0.427144
C106	C	0.461680	-0.110337	0.927144
C107	C	-0.018610	-0.590621	0.446974
C108	C	0.481390	-0.090621	0.946974
C109	C	0.029642	-0.687402	0.495454
C110	C	0.529642	-0.187402	0.995454
C111	C	0.009933	-0.707121	0.475630
C112	C	0.509933	-0.207121	0.975630
C113	C	-0.038148	-0.610347	0.324832
C114	C	0.461852	-0.110347	0.824832
C115	C	-0.018301	-0.590634	0.265579
C116	C	0.481699	-0.090634	0.765579
C117	C	0.030035	-0.687421	0.265643
C118	C	0.530035	-0.187421	0.765643
C119	C	0.010190	-0.707133	0.324897
C120	C	0.510190	-0.207133	0.824897
C121	C	-0.023903	-0.668595	0.354491
C122	C	0.476097	-0.168595	0.854491
C123	C	-0.024062	-0.755463	0.441426
C124	C	0.475938	-0.255463	0.941426
N125	N	0.503527	-0.540005	0.569810
N126	N	1.003527	-0.040005	1.069810
O127	O	0.684453	-0.545211	0.434650
O128	O	1.184453	-0.045211	0.934650
O129	O	0.684643	-0.655237	0.584005
O130	O	1.184643	-0.155237	1.084005
O131	O	0.684567	-0.654986	0.489282
O132	O	1.184567	-0.154986	0.989282
O133	O	0.684529	-0.545462	0.529373
O134	O	1.184529	-0.045462	1.029373
O135	O	0.590438	-0.623674	0.520735
O136	O	1.090438	-0.123674	1.020735
O137	O	0.590513	-0.623924	0.615457
O138	O	1.090513	-0.123924	1.115457
O139	O	0.590323	-0.513899	0.466102
O140	O	1.090323	-0.013899	0.966102
Cu141	Cu	0.581823	-0.566053	0.543652
Cu142	Cu	1.081823	-0.066053	1.043652
Cu143	Cu	0.693143	-0.603083	0.506456
Cu144	Cu	1.193143	-0.103083	1.006456
O145	O	0.590399	-0.514149	0.560825
O146	O	1.090399	-0.014149	1.060825
N147	N	0.771439	-0.629131	0.480292
N148	N	1.271439	-0.129131	0.980292
N149	N	0.104456	-0.141061	0.570015
N150	N	0.604456	0.358939	1.070015
O151	O	-0.030629	0.039964	0.564688
O152	O	0.469371	0.539964	1.064688
O153	O	0.118732	0.039984	0.454661
O154	O	0.618732	0.539984	0.954661
O155	O	0.023980	0.039958	0.454946
O156	O	0.523980	0.539958	0.954946
O157	O	0.064123	0.039990	0.564403
O158	O	0.564123	0.539990	1.064403
O159	O	0.055392	-0.054179	0.486321
O160	O	0.555392	0.445821	0.986321
O161	O	0.150144	-0.054153	0.486036
O162	O	0.650144	0.445847	0.986036
O163	O	0.000784	-0.054173	0.596063
O164	O	0.500784	0.445827	1.096063
Cu165	Cu	0.078332	-0.062759	0.543914
Cu166	Cu	0.578332	0.437241	1.043914
Cu167	Cu	0.041183	0.048570	0.506810
Cu168	Cu	0.541183	0.548570	1.006810
O169	O	0.095535	-0.054147	0.595778
O170	O	0.595535	0.445853	1.095778
N171	N	0.015053	0.126872	0.480710
N172	N	0.515053	0.626872	0.980710
N173	N	0.104760	-0.540096	0.968910
N174	N	0.604760	-0.040096	1.468910
O175	O	0.099447	-0.675167	1.149923
O176	O	0.599447	-0.175167	1.649923
O177	O	-0.010552	-0.525757	1.149951
O178	O	0.489448	-0.025757	1.649951
O179	O	-0.010297	-0.620493	1.149918
O180	O	0.489703	-0.120493	1.649918
O181	O	0.099192	-0.580431	1.149956
O182	O	0.599192	-0.080431	1.649956
O183	O	0.021064	-0.589100	1.055785
O184	O	0.521064	-0.089100	1.555785
O185	O	0.020809	-0.494365	1.055818
O186	O	0.520809	0.005635	1.555818
O187	O	0.130808	-0.643774	1.055790
O188	O	0.630808	-0.143774	1.555790
Cu189	Cu	0.078672	-0.566203	1.047209
Cu190	Cu	0.578672	-0.066203	1.547209
Cu191	Cu	0.041584	-0.603328	1.158532
Cu192	Cu	0.541584	-0.103328	1.658532
O193	O	0.130553	-0.549038	1.055823
O194	O	0.630553	-0.049038	1.555823
N195	N	0.015495	-0.629442	1.236831
N196	N	0.515495	-0.129442	1.736831
C197	C	0.036087	-0.491140	0.455465
C198	C	0.536087	0.008860	0.955465
C199	C	0.153325	-0.608283	0.455364
C200	C	0.653325	-0.108283	0.955364
C201	C	0.083488	-0.678322	0.595370
C202	C	0.583488	-0.178322	1.095370
C203	C	-0.033750	-0.561180	0.595470
C204	C	0.466250	-0.061180	1.095470
C205	C	0.637601	-0.654732	0.618548
C206	C	1.137601	-0.154732	1.118548
C207	C	0.637509	-0.654422	0.501245
C208	C	1.137509	-0.154422	1.001245
C209	C	0.637362	-0.514403	0.431560
C210	C	1.137362	-0.014403	0.931560
C211	C	0.637458	-0.514713	0.548862
C212	C	1.137458	-0.014713	1.048862
C213	C	0.153215	-0.006966	0.455158
C214	C	0.653215	0.493034	0.955158
C215	C	0.035916	-0.007114	0.455550
C216	C	0.535916	0.492886	0.955550
C217	C	-0.033739	-0.007106	0.595527
C218	C	0.466261	0.492894	1.095527
C219	C	0.083600	-0.007076	0.595174
C220	C	0.583600	0.492924	1.095174
C221	C	-0.010020	-0.491238	1.102888
C222	C	0.489980	0.008762	1.602888
C223	C	-0.009698	-0.608550	1.102828
C224	C	0.490302	-0.108550	1.602828
C225	C	0.130276	-0.678293	1.102853
C226	C	0.630276	-0.178293	1.602853
C227	C	0.129961	-0.560974	1.102892
C228	C	0.629961	-0.060974	1.602892
H229	H	0.018524	-0.494668	0.964293
H230	H	0.518524	0.005332	1.464293
H231	H	-0.044080	-0.617108	1.102779
H232	H	0.455920	-0.117108	1.602779
C233	C	0.637439	-0.700325	0.489918
C234	C	1.137439	-0.200325	0.989918
C235	C	0.589055	-0.715459	0.528505
C236	C	1.089055	-0.215459	1.028505
C237	C	0.588975	-0.757748	0.518092
C238	C	1.088975	-0.257748	1.018092
H239	H	0.637371	-0.686552	0.452473
H240	H	1.137371	-0.186552	0.952473
H241	H	0.670272	-0.732525	0.494136
H242	H	1.170272	-0.232525	0.994136
H243	H	0.556231	-0.683266	0.524282
H244	H	1.056231	-0.183266	1.024282
H245	H	0.589113	-0.729242	0.565953
H246	H	1.089113	-0.229242	1.065953
H247	H	0.621809	-0.789948	0.522310
H248	H	1.121809	-0.289948	1.022310
H249	H	0.588909	-0.743971	0.480647
H250	H	1.088909	-0.243971	0.980647
H251	H	0.556151	-0.768026	0.544275
H252	H	1.056151	-0.268026	1.044275
C253	C	0.176246	-0.735553	1.102868
C254	C	0.676246	-0.235553	1.602868
C255	C	0.155962	-0.770490	1.102863
C256	C	0.655962	-0.270490	1.602863
C257	C	0.198292	-0.823243	1.102882
C258	C	0.698292	-0.323243	1.602882
H259	H	0.208430	-0.730673	1.070052
H260	H	0.708430	-0.230673	1.570052
H261	H	0.186530	-0.752526	1.135709
H262	H	0.686530	-0.252526	1.635709
H263	H	0.145687	-0.753521	1.070024
H264	H	0.645687	-0.253521	1.570024
H265	H	0.123785	-0.775386	1.135675
H266	H	0.623785	-0.275386	1.635675
H267	H	0.208575	-0.840215	1.135724
H268	H	0.708575	-0.340215	1.635724
H269	H	0.230472	-0.818357	1.070067
H270	H	0.730472	-0.318357	1.570067
H271	H	0.184533	-0.846956	1.102884
H272	H	0.684533	-0.346956	1.602884
H273	H	0.637300	-0.479859	0.388668
H274	H	1.137300	0.020141	0.888668
H275	H	0.027560	-0.448192	0.421017
H276	H	0.527560	0.051808	0.921017
H277	H	0.196241	-0.616742	0.420869
H278	H	0.696241	-0.116742	0.920869
C279	C	0.175766	-0.549430	1.102869
C280	C	0.675766	-0.049430	1.602869
C281	C	0.155249	-0.494165	1.102868
C282	C	0.655249	0.005835	1.602868
C283	C	0.197431	-0.483508	1.102839
C284	C	0.697431	0.016492	1.602839
H285	H	0.186113	-0.575493	1.135684
H286	H	0.686113	-0.075493	1.635684
H287	H	0.207951	-0.553618	1.070027
H288	H	0.707951	-0.053618	1.570027
H289	H	0.123074	-0.489982	1.135707
H290	H	0.623074	0.010018	1.635707
H291	H	0.144906	-0.468090	1.070056
H292	H	0.644906	0.031910	1.570056
H293	H	0.229616	-0.487696	1.069997
H294	H	0.729616	0.012304	1.569997
H295	H	0.207775	-0.509574	1.135654
H296	H	0.707775	-0.009574	1.635654
H297	H	0.183518	-0.446008	1.102833
H298	H	0.683518	0.053992	1.602833
C299	C	-0.108475	-0.719688	0.541344
C300	C	0.391525	-0.219688	1.041344
C301	C	-0.074445	-0.692957	0.532902
C302	C	0.425555	-0.192957	1.032902
C303	C	-0.044824	-0.726970	0.571427
C304	C	0.455176	-0.226970	1.071427
H305	H	-0.134593	-0.725363	0.578861
H306	H	0.365407	-0.225363	1.078861
H307	H	-0.085339	-0.755220	0.535677
H308	H	0.414661	-0.255220	1.035677
H309	H	-0.097580	-0.657436	0.538574
H310	H	0.402420	-0.157436	1.038574
H311	H	-0.048317	-0.687283	0.495392
H312	H	0.451683	-0.187283	0.995392
H313	H	-0.021688	-0.762502	0.565760
H314	H	0.478312	-0.262502	1.065760
H315	H	-0.070946	-0.732643	0.608942
H316	H	0.429054	-0.232643	1.108942
H317	H	-0.021727	-0.708840	0.565701
H318	H	0.478273	-0.208840	1.065701
H319	H	0.092017	-0.721269	0.629819
H320	H	0.592017	-0.221269	1.129819
H321	H	-0.076633	-0.007113	0.630069
H322	H	0.423367	0.492887	1.130069
C323	C	-0.091001	-0.549788	0.641405
C324	C	0.408999	-0.049788	1.141405
C325	C	-0.125882	-0.494547	0.621043
C326	C	0.374118	0.005453	1.121043
C327	C	-0.178622	-0.484030	0.663345
C328	C	0.321378	0.015970	1.163345
H329	H	-0.108038	-0.575895	0.651751
H330	H	0.391962	-0.075895	1.151751
H331	H	-0.086077	-0.554010	0.673565
H332	H	0.413923	-0.054010	1.173565
H333	H	-0.130808	-0.490330	0.588892
H334	H	0.369192	0.009670	1.088892
H335	H	-0.108863	-0.468428	0.610701
H336	H	0.391137	0.031572	1.110701
H337	H	-0.173698	-0.488252	0.695505
H338	H	0.326302	0.011748	1.195505
H339	H	-0.195654	-0.510140	0.673688
H340	H	0.304346	-0.010140	1.173688
H341	H	-0.202294	-0.446547	0.649537
H342	H	0.297706	0.053453	1.149537
C343	C	0.637413	-0.468897	0.560415
C344	C	1.137413	0.031103	1.060415
C345	C	0.637458	-0.489419	0.615665
C346	C	1.137458	0.010581	1.115665
C347	C	0.637408	-0.447227	0.626330
C348	C	1.137408	0.052773	1.126330
H349	H	0.670203	-0.458533	0.534338
H350	H	1.170203	0.041467	1.034338
H351	H	0.604549	-0.436720	0.556257
H352	H	1.104549	0.063280	1.056257
H353	H	0.670318	-0.521586	0.619818
H354	H	1.170318	-0.021586	1.119818
H355	H	0.604669	-0.499780	0.641754
H356	H	1.104669	0.000220	1.141754
H357	H	0.604544	-0.415050	0.622172
H358	H	1.104544	0.084950	1.122172
H359	H	0.670199	-0.436866	0.600250
H360	H	1.170199	0.063134	1.100250
H361	H	0.637434	-0.461144	0.663819
H362	H	1.137434	0.038856	1.163819
H363	H	0.054276	-0.458811	0.856808
H364	H	0.554276	0.041189	1.356808
H365	H	0.637649	-0.689271	0.661445
H366	H	1.137649	-0.189271	1.161445
H367	H	0.092195	-0.007066	0.629560
H368	H	0.592195	0.492934	1.129560
H369	H	0.194117	-0.582425	0.964198
H370	H	0.694117	-0.082425	1.464198
C371	C	0.210317	-0.006578	0.409044
C372	C	0.710317	0.493422	0.909044
C373	C	0.245228	-0.006443	0.429269
C374	C	0.745228	0.493557	0.929269
C375	C	0.297832	-0.006078	0.386802
C376	C	0.797832	0.493922	0.886802
H377	H	0.227456	-0.039324	0.398578
H378	H	0.727456	0.460676	0.898578
H379	H	0.205179	0.026335	0.376982
H380	H	0.705179	0.526335	0.876982
H381	H	0.250368	-0.039352	0.461320
H382	H	0.750368	0.460648	0.961320
H383	H	0.228107	0.026301	0.439730
H384	H	0.728107	0.526301	0.939730
H385	H	0.292693	0.026834	0.354740
H386	H	0.792693	0.526834	0.854740
H387	H	0.314966	-0.038825	0.376339
H388	H	0.814966	0.461175	0.876339
H389	H	0.321524	-0.005981	0.400517
H390	H	0.821524	0.494019	0.900517
H391	H	-0.044554	-0.448327	1.102896
H392	H	0.455446	0.051673	1.602896
C393	C	0.245702	-0.550494	0.848755
C394	C	0.745702	-0.050494	1.348755
C395	C	0.275230	-0.584545	0.887361
C396	C	0.775230	-0.084545	1.387361
C397	C	0.333505	-0.598887	0.857820
C398	C	0.833505	-0.098887	1.357820
H399	H	0.255484	-0.570623	0.825635
H400	H	0.755484	-0.070623	1.325635
H401	H	0.255423	-0.516993	0.825655
H402	H	0.755423	-0.016993	1.325655
H403	H	0.265514	-0.618040	0.910452
H404	H	0.765514	-0.118040	1.410452
H405	H	0.265465	-0.564427	0.910482
H406	H	0.765465	-0.064427	1.410482
H407	H	0.343226	-0.565386	0.834720
H408	H	0.843226	-0.065386	1.334720
H409	H	0.343282	-0.619014	0.834701
H410	H	0.843282	-0.119014	1.334701
H411	H	0.353547	-0.621987	0.884010
H412	H	0.853547	-0.121987	1.384010
C413	C	0.024480	-0.007256	0.409755
C414	C	0.524480	0.492744	0.909755
C415	C	0.011289	-0.055708	0.429181
C416	C	0.511289	0.444292	0.929181
C417	C	0.000765	-0.055870	0.387008
C418	C	0.500765	0.444130	0.887008
H419	H	-0.006413	0.025524	0.400914
H420	H	0.493587	0.525524	0.900914
H421	H	0.057191	-0.007289	0.376811
H422	H	0.557191	0.492711	0.876811
H423	H	-0.021418	-0.055671	0.462115
H424	H	0.478582	0.444329	0.962115
H425	H	0.042175	-0.088496	0.438018
H426	H	0.542175	0.411504	0.938018
H427	H	0.033475	-0.055902	0.354064
H428	H	0.533475	0.444098	0.854064
H429	H	-0.030128	-0.023087	0.378169
H430	H	0.469872	0.476913	0.878169
H431	H	-0.008182	-0.088746	0.400180
H432	H	0.491818	0.411254	0.900180
C433	C	0.043600	-0.449521	0.660503
C434	C	0.543600	0.050479	1.160503
C435	C	-0.011646	-0.441205	0.668818
C436	C	0.488354	0.058795	1.168818
C437	C	-0.050243	-0.407122	0.702865
C438	C	0.449757	0.092878	1.202865
H439	H	0.049242	-0.467571	0.696040
H440	H	0.549242	0.032429	1.196040
H441	H	0.049248	-0.413983	0.642412
H442	H	0.549248	0.086017	1.142412
H443	H	-0.017292	-0.476736	0.686910
H444	H	0.482708	0.023264	1.186910
H445	H	-0.017306	-0.423148	0.633291
H446	H	0.482694	0.076852	1.133291
H447	H	-0.044595	-0.371584	0.684774
H448	H	0.455405	0.128416	1.184774
H449	H	-0.044597	-0.425176	0.738400
H450	H	0.455403	0.074824	1.238400
H451	H	-0.087732	-0.401471	0.708507
H452	H	0.412268	0.098529	1.208507
H453	H	0.193817	-0.582360	0.527624
H454	H	0.693817	-0.082360	1.027624
C455	C	0.245495	-0.550367	0.559421
C456	C	0.745495	-0.050367	1.059421
C457	C	0.269836	-0.530214	0.500478
C458	C	0.769836	-0.030214	1.000478
C459	C	0.328113	-0.544478	0.486002
C460	C	0.828113	-0.044478	0.986002
H461	H	0.251826	-0.533734	0.576001
H462	H	0.751826	-0.033734	1.076001
H463	H	0.262186	-0.590351	0.572998
H464	H	0.762186	-0.090351	1.072998
H465	H	0.253150	-0.490238	0.486906
H466	H	0.753150	0.009762	0.986906
H467	H	0.263521	-0.546844	0.483884
H468	H	0.763521	-0.046844	0.983884
H469	H	0.344805	-0.584461	0.499580
H470	H	0.844805	-0.084461	0.999580
H471	H	0.334439	-0.527844	0.502586
H472	H	0.834439	-0.027844	1.002586
H473	H	0.344637	-0.530811	0.446008
H474	H	0.844637	-0.030811	0.946008
C475	C	0.383397	-0.599951	0.647949
C476	C	0.883397	-0.099951	1.147949
C477	C	0.397787	-0.627460	0.611887
C478	C	0.897787	-0.127460	1.111887
C479	C	0.368215	-0.665547	0.639931
C480	C	0.868215	-0.165547	1.139931
H481	H	0.393110	-0.627137	0.680865
H482	H	0.893110	-0.127137	1.180865
H483	H	0.343858	-0.579937	0.658510
H484	H	0.843858	-0.079937	1.158510
H485	H	0.437317	-0.647474	0.601333
H486	H	0.937317	-0.147474	1.101333
H487	H	0.388072	-0.600289	0.578970
H488	H	0.888072	-0.100289	1.078970
H489	H	0.328676	-0.645532	0.650493
H490	H	0.828676	-0.145532	1.150493
H491	H	0.377931	-0.692729	0.672847
H492	H	0.877931	-0.192729	1.172847
H493	H	0.377970	-0.684212	0.615466
H494	H	0.877970	-0.184212	1.115466
C495	C	0.506782	-0.441068	0.530550
C496	C	1.006782	0.058932	1.030550
C497	C	0.468148	-0.386212	0.527416
C498	C	0.968148	0.113788	1.027416
C499	C	0.497653	-0.348045	0.499226
C500	C	0.997653	0.151955	0.999226
H501	H	0.529919	-0.450904	0.550687
H502	H	1.029919	0.049096	1.050687
H503	H	0.529862	-0.442546	0.493409
H504	H	1.029862	0.057454	0.993409
H505	H	0.445078	-0.384736	0.564551
H506	H	0.945078	0.115264	1.064551
H507	H	0.445011	-0.376359	0.507276
H508	H	0.945011	0.123641	1.007276
H509	H	0.520733	-0.349523	0.462085
H510	H	1.020733	0.150477	0.962085
H511	H	0.520789	-0.357886	0.519365
H512	H	1.020789	0.142114	1.019365
H513	H	0.471445	-0.310821	0.497091
H514	H	0.971445	0.189179	0.997091
H515	H	0.057785	-0.718806	0.241554
H516	H	0.557785	-0.218806	0.741554
C517	C	0.383273	-0.399966	0.571721
C518	C	0.883273	0.100034	1.071721
C519	C	0.349242	-0.379625	0.539722
C520	C	0.849242	0.120375	1.039722
C521	C	0.319572	-0.321800	0.531230
C522	C	0.819572	0.178200	1.031230
H523	H	0.360130	-0.394399	0.607287
H524	H	0.860130	0.105601	1.107287
H525	H	0.409378	-0.380102	0.552089
H526	H	0.909378	0.119898	1.052089
H527	H	0.323140	-0.399482	0.559354
H528	H	0.823140	0.100518	1.059354
H529	H	0.372371	-0.385177	0.504151
H530	H	0.872371	0.114823	1.004151
H531	H	0.345677	-0.301936	0.511598
H532	H	0.845677	0.198064	1.011598
H533	H	0.296432	-0.316239	0.566798
H534	H	0.796432	0.183761	1.066798
H535	H	0.296482	-0.307990	0.509514
H536	H	0.796482	0.192010	1.009514
H537	H	0.185713	-0.253197	0.519589
H538	H	0.685713	0.246803	1.019589
C539	C	0.153791	-0.137754	0.467959
C540	C	0.653791	0.362246	0.967959
C541	C	0.187854	-0.176372	0.438450
C542	C	0.687854	0.323628	0.938450
C543	C	0.202220	-0.146844	0.380168
C544	C	0.702220	0.353156	0.880168
H545	H	0.120317	-0.114642	0.458188
H546	H	0.620317	0.385358	0.958188
H547	H	0.173915	-0.114644	0.458209
H548	H	0.673915	0.385356	0.958209
H549	H	0.167730	-0.199473	0.448195
H550	H	0.667730	0.300527	0.948195
H551	H	0.221335	-0.199485	0.448203
H552	H	0.721335	0.300515	0.948203
H553	H	0.222344	-0.123734	0.370419
H554	H	0.722344	0.376266	0.870419
H555	H	0.168743	-0.123733	0.370404
H556	H	0.668743	0.376267	0.870404
H557	H	0.225337	-0.173042	0.360140
H558	H	0.725337	0.326958	0.860140
H559	H	0.498884	-0.625426	0.604536
H560	H	0.998884	-0.125426	1.104536
C561	C	0.052912	-0.137803	0.669902
C562	C	0.552912	0.362197	1.169902
C563	C	0.044640	-0.176443	0.725139
C564	C	0.544640	0.323557	1.225139
C565	C	0.010572	-0.146938	0.763761
C566	C	0.510572	0.353062	1.263761
H567	H	0.070955	-0.114680	0.664273
H568	H	0.570955	0.385320	1.164273
H569	H	0.017364	-0.114706	0.664265
H570	H	0.517364	0.385294	1.164265
H571	H	0.080182	-0.199530	0.730773
H572	H	0.580182	0.300470	1.230773
H573	H	0.026591	-0.199567	0.730786
H574	H	0.526591	0.300433	1.230786
H575	H	-0.024976	-0.123841	0.758125
H576	H	0.475024	0.376159	1.258125
H577	H	0.028618	-0.123816	0.758127
H578	H	0.528618	0.376184	1.258127
H579	H	0.004951	-0.173150	0.801244
H580	H	0.504951	0.326850	1.301244
H581	H	0.098041	-0.253238	0.695156
H582	H	0.598041	0.246762	1.195156
C583	C	-0.033864	-0.527367	0.233487
C584	C	0.466136	-0.027367	0.733487
C585	C	-0.067981	-0.497841	0.272089
C586	C	0.432019	0.002159	0.772089
C587	C	-0.082334	-0.439560	0.242545
C588	C	0.417666	0.060440	0.742545
H589	H	-0.000387	-0.517615	0.210428
H590	H	0.499613	-0.017615	0.710428
H591	H	-0.053944	-0.517612	0.210324
H592	H	0.446056	-0.017612	0.710324
H593	H	-0.047900	-0.507591	0.295241
H594	H	0.452100	-0.007591	0.795241
H595	H	-0.101465	-0.507575	0.295149
H596	H	0.398535	-0.007575	0.795149
H597	H	-0.102415	-0.429805	0.219383
H598	H	0.397585	0.070195	0.719383
H599	H	-0.048854	-0.429814	0.219487
H600	H	0.451146	0.070186	0.719487
H601	H	-0.105488	-0.419519	0.268732
H602	H	0.394512	0.080481	0.768732
H603	H	-0.065911	-0.578960	0.348925
H604	H	0.434089	-0.078960	0.848925
C605	C	0.025694	-0.770400	0.356994
C606	C	0.525694	-0.270400	0.856994
C607	C	0.059782	-0.799927	0.318393
C608	C	0.559782	-0.299927	0.818393
C609	C	0.074068	-0.858208	0.347938
C610	C	0.574068	-0.358208	0.847938
H611	H	0.045776	-0.780214	0.380174
H612	H	0.545776	-0.280214	0.880174
H613	H	-0.007824	-0.780092	0.380036
H614	H	0.492176	-0.280092	0.880036
H615	H	0.093295	-0.790240	0.295361
H616	H	0.593295	-0.290240	0.795361
H617	H	0.039712	-0.790131	0.295212
H618	H	0.539712	-0.290131	0.795212
H619	H	0.040550	-0.867900	0.370980
H620	H	0.540550	-0.367900	0.870980
H621	H	0.094148	-0.868016	0.371117
H622	H	0.594148	-0.368016	0.871117
H623	H	0.097194	-0.878250	0.321752
H624	H	0.597194	-0.378250	0.821752
H625	H	-0.065985	-0.578958	0.399332
H626	H	0.434015	-0.078958	0.899332
C627	C	-0.034007	-0.527371	0.431298
C628	C	0.465993	-0.027371	0.931298
C629	C	-0.013743	-0.503039	0.372361
C630	C	0.486257	-0.003039	0.872361
C631	C	-0.027902	-0.444778	0.357897
C632	C	0.472098	0.055222	0.857897
H633	H	-0.073975	-0.510596	0.444791
H634	H	0.426025	-0.010596	0.944791
H635	H	-0.017380	-0.521132	0.447965
H636	H	0.482620	-0.021132	0.947965
H637	H	-0.030372	-0.509274	0.355701
H638	H	0.469628	-0.009274	0.855701
H639	H	0.026223	-0.519797	0.358854
H640	H	0.526223	-0.019797	0.858854
H641	H	-0.011275	-0.438538	0.374564
H642	H	0.488725	0.061462	0.874564
H643	H	-0.067869	-0.428008	0.371394
H644	H	0.432131	0.071992	0.871394
H645	H	-0.014150	-0.428262	0.317908
H646	H	0.485850	0.071738	0.817908
C647	C	0.066509	-0.729329	0.532549
C648	C	0.566509	-0.229329	1.032549
C649	C	0.074775	-0.784561	0.540860
C650	C	0.574775	-0.284561	1.040860
C651	C	0.108727	-0.823201	0.575037
C652	C	0.608727	-0.323201	1.075037
H653	H	0.102065	-0.723758	0.514572
H654	H	0.602065	-0.223758	1.014572
H655	H	0.048367	-0.723649	0.568080
H656	H	0.548367	-0.223649	1.068080
H657	H	0.092918	-0.790239	0.505336
H658	H	0.592918	-0.290239	1.005336
H659	H	0.039229	-0.790150	0.558844
H660	H	0.539229	-0.290150	1.058844
H661	H	0.090585	-0.817521	0.610568
H662	H	0.590585	-0.317521	1.110568
H663	H	0.144281	-0.817625	0.557056
H664	H	0.644281	-0.317625	1.057056
H665	H	0.114336	-0.860680	0.580685
H666	H	0.614336	-0.360680	1.080685
H667	H	0.021552	-0.754553	0.487300
H668	H	0.521552	-0.254553	0.987300
C669	C	0.075162	-0.753142	0.402669
C670	C	0.575162	-0.253142	0.902669
C671	C	0.129983	-0.791821	0.399646
C672	C	0.629983	-0.291821	0.899646
C673	C	0.168168	-0.762361	0.371605
C674	C	0.668168	-0.262361	0.871605
H675	H	0.073787	-0.730034	0.365504
H676	H	0.573787	-0.230034	0.865504
H677	H	0.065256	-0.730034	0.422872
H678	H	0.565256	-0.230034	0.922872
H679	H	0.139885	-0.814919	0.379443
H680	H	0.639885	-0.314919	0.879443
H681	H	0.131376	-0.814930	0.436803
H682	H	0.631376	-0.314930	0.936803
H683	H	0.158262	-0.739253	0.391807
H684	H	0.658262	-0.239253	0.891807
H685	H	0.166788	-0.739255	0.334441
H686	H	0.666788	-0.239255	0.834441
H687	H	0.205367	-0.788600	0.369554
H688	H	0.705367	-0.288600	0.869554
H689	H	0.100481	-0.868567	0.446139
H690	H	0.600481	-0.368567	0.946139
C691	C	-0.083884	-0.876287	0.519744
C692	C	0.416116	-0.376287	1.019744
C693	C	-0.111398	-0.861848	0.483666
C694	C	0.388602	-0.361848	0.983666
C695	C	-0.149597	-0.891297	0.511732
C696	C	0.350403	-0.391297	1.011732
H697	H	-0.063975	-0.915843	0.530371
H698	H	0.436025	-0.415843	1.030371
H699	H	-0.111049	-0.866493	0.552627
H700	H	0.388951	-0.366493	1.052627
H701	H	-0.084237	-0.871647	0.450793
H702	H	0.415763	-0.371647	0.950793
H703	H	-0.131318	-0.822297	0.473037
H704	H	0.368682	-0.322297	0.973037
H705	H	-0.176762	-0.881502	0.544615
H706	H	0.323238	-0.381502	1.044615
H707	H	-0.129684	-0.930851	0.522358
H708	H	0.370316	-0.430851	1.022358
H709	H	-0.168274	-0.881500	0.487259
H710	H	0.331726	-0.381500	0.987259
C711	C	-0.232026	-0.678510	0.582401
C712	C	0.267974	-0.178510	1.082401
C713	C	-0.193477	-0.712620	0.611993
C714	C	0.306523	-0.212620	1.111993
C715	C	-0.223080	-0.726995	0.670257
C716	C	0.276920	-0.226995	1.170257
H717	H	-0.255144	-0.645039	0.592173
H718	H	0.244856	-0.145039	1.092173
H719	H	-0.255132	-0.698607	0.592079
H720	H	0.244868	-0.198607	1.092079
H721	H	-0.170380	-0.692524	0.602318
H722	H	0.329620	-0.192524	1.102318
H723	H	-0.170358	-0.746099	0.602237
H724	H	0.329642	-0.246099	1.102237
H725	H	-0.246186	-0.747092	0.679935
H726	H	0.253814	-0.247092	1.179935
H727	H	-0.246197	-0.693521	0.680023
H728	H	0.253803	-0.193521	1.180023
H729	H	-0.196929	-0.750144	0.690342
H730	H	0.303071	-0.250144	1.190342
C731	C	-0.231664	-0.577552	0.380343
C732	C	0.268336	-0.077552	0.880343
C733	C	-0.192963	-0.569296	0.325140
C734	C	0.307037	-0.069296	0.825140
C735	C	-0.222392	-0.535190	0.286447
C736	C	0.277608	-0.035190	0.786447
H737	H	-0.254784	-0.595563	0.385912
H738	H	0.245216	-0.095563	0.885912
H739	H	-0.254753	-0.541997	0.385969
H740	H	0.245247	-0.041997	0.885969
H741	H	-0.169883	-0.604843	0.319516
H742	H	0.330117	-0.104843	0.819516
H743	H	-0.169842	-0.551278	0.319553
H744	H	0.330158	-0.051278	0.819553
H745	H	-0.245481	-0.499636	0.292073
H746	H	0.254519	0.000364	0.792073
H747	H	-0.245511	-0.553205	0.292021
H748	H	0.254489	-0.053205	0.792021
H749	H	-0.196138	-0.529580	0.248987
H750	H	0.303862	-0.029580	0.748987
H751	H	0.018285	-0.494604	0.615454
H752	H	0.518285	0.005396	1.115454
C753	C	-0.124856	-0.752727	0.478398
C754	C	0.375144	-0.252727	0.978398
C755	C	-0.132693	-0.718707	0.425801
C756	C	0.367307	-0.218707	0.925801
C757	C	-0.190454	-0.688929	0.433965
C758	C	0.309546	-0.188929	0.933965
H759	H	-0.144785	-0.778754	0.497924
H760	H	0.355215	-0.278754	0.997924
H761	H	-0.138791	-0.729567	0.500083
H762	H	0.361209	-0.229567	1.000083
H763	H	-0.118766	-0.741864	0.404126
H764	H	0.381234	-0.241864	0.904126
H765	H	-0.112778	-0.692669	0.406268
H766	H	0.387222	-0.192669	0.906268
H767	H	-0.204388	-0.665769	0.455650
H768	H	0.295612	-0.165769	0.955650
H769	H	-0.210378	-0.714960	0.453492
H770	H	0.289622	-0.214960	0.953492
H771	H	-0.195778	-0.665839	0.398281
H772	H	0.304222	-0.165839	0.898281
H773	H	-0.116252	-0.622767	0.355267
H774	H	0.383748	-0.122767	0.855267
