data_functionalizedCrystal
_audit_creation_method	'MofGen! by Chris Wilmer'
_symmetry_space_group_name_H-M	'P1'
_symmetry_Int_Tables_number	1
_symmetry_cell_setting	triclinic
loop_
_symmetry_equiv_pos_as_xyz
  x,y,z
_cell_length_a	6.817900
_cell_length_b	17.982959
_cell_length_c	11.168136
_cell_angle_alpha	94.260762
_cell_angle_beta	108.508683
_cell_angle_gamma	102.451857
loop_
_atom_site_label
_atom_site_type_symbol
_atom_site_fract_x
_atom_site_fract_y
_atom_site_fract_z
V1	V	-4.079252	-0.105424	-0.394227
O2	O	-4.070935	0.005054	-0.386179
O3	O	-4.025439	-0.209027	-0.392052
O4	O	-4.056012	-0.103808	-0.565924
O5	O	-4.040150	-0.100893	-0.211104
V6	V	-4.560321	-0.092209	-0.372260
O7	O	-4.345893	-0.134412	-0.442412
O8	O	-4.743877	-0.063221	-0.324075
O9	O	-4.390928	0.011394	-0.374435
O10	O	-4.686035	-0.202687	-0.380307
O11	O	-4.716820	-0.096740	-0.555383
O12	O	-4.360354	-0.093825	-0.200562
C13	C	-3.868309	-0.234283	-0.385968
C14	C	-3.905765	-0.318979	-0.385334
C15	C	-3.907307	-0.100064	-0.607757
C16	C	-3.969553	-0.099428	-0.748124
C17	C	-4.106204	-0.362651	-0.391355
C18	C	-4.141390	-0.442233	-0.390767
C19	C	-3.976129	-0.478141	-0.384150
C20	C	-3.775675	-0.434464	-0.378133
C21	C	-3.740496	-0.354884	-0.378730
C22	C	-3.917543	-0.755400	-0.375728
C23	C	-3.952736	-0.834985	-0.375128
C24	C	-4.318436	-0.842748	-0.387765
C25	C	-4.283258	-0.763168	-0.388362
C26	C	-4.082811	-0.719499	-0.382352
C27	C	-4.044662	-0.633207	-0.382991
C28	C	-4.014271	-0.564430	-0.383501
C29	C	-4.171094	-0.102758	-0.816833
C30	C	-4.235433	-0.102101	-0.961910
C31	C	-4.211399	0.036646	-0.380516
C32	C	-4.153183	0.121342	-0.381157
C33	C	-4.172401	-0.097571	-0.158723
C34	C	-4.089393	-0.098203	-0.018354
H35	H	-4.240778	-0.333419	-0.396731
H36	H	-4.296005	-0.106091	-0.768251
H37	H	-3.916738	-0.095357	-0.959299
C38	C	-3.520008	-0.306845	-0.372096
H39	H	-3.426614	-0.339625	-0.368056
H40	H	-3.534898	-0.282600	-0.446075
H41	H	-3.462463	-0.268678	-0.298044
C42	C	-3.800828	-0.094997	-0.813755
H43	H	-3.666050	-0.093011	-0.751839
H44	H	-3.841551	-0.139269	-0.876673
H45	H	-3.790772	-0.049986	-0.853228
H46	H	-3.818153	-0.864219	-0.369748
H47	H	-4.304606	-0.477787	-0.395671
H48	H	-4.408089	-0.104955	-1.020975
C49	C	-3.697060	-0.707372	-0.369106
H50	H	-3.603675	-0.740157	-0.365066
H51	H	-3.711949	-0.683131	-0.443088
H52	H	-3.639504	-0.669203	-0.295057
H53	H	-4.417831	-0.733935	-0.393743
C54	C	-4.538939	-0.890788	-0.394398
H55	H	-4.536240	-0.943327	-0.393111
H56	H	-4.572087	-0.872381	-0.323082
H57	H	-4.644523	-0.886301	-0.471113
H58	H	-3.641123	-0.463707	-0.372753
