data_functionalizedCrystal
_audit_creation_method	'MofGen! by Chris Wilmer'
_symmetry_space_group_name_H-M	'P1'
_symmetry_Int_Tables_number	1
_symmetry_cell_setting	triclinic
loop_
_symmetry_equiv_pos_as_xyz
  x,y,z
_cell_length_a	12.759401
_cell_length_b	18.215405
_cell_length_c	12.759393
_cell_angle_alpha	89.966515
_cell_angle_beta	89.980404
_cell_angle_gamma	90.023009
loop_
_atom_site_label
_atom_site_type_symbol
_atom_site_fract_x
_atom_site_fract_y
_atom_site_fract_z
Zn1	Zn	1.606208	-0.292943	-0.593961
Zn2	Zn	2.106208	0.207057	-0.093961
Zn3	Zn	1.606074	-0.416027	-0.418272
Zn4	Zn	2.106074	0.083973	0.081728
Zn5	Zn	1.430506	-0.292980	-0.418300
Zn6	Zn	1.930506	0.207020	0.081700
Zn7	Zn	1.430474	-0.415973	-0.593913
Zn8	Zn	1.930474	0.084027	-0.093913
O9	O	1.518316	-0.354481	-0.506111
O10	O	2.018316	0.145519	-0.006111
O11	O	1.753211	-0.309278	-0.570663
O12	O	2.253211	0.190722	-0.070663
O13	O	1.582743	-0.399743	-0.271254
O14	O	2.082743	0.100257	0.228746
O15	O	1.453883	-0.189991	-0.441634
O16	O	1.953883	0.310009	0.058366
O17	O	1.753113	-0.399707	-0.441585
O18	O	2.253113	0.100293	0.058415
O19	O	1.582970	-0.189964	-0.570691
O20	O	2.082970	0.310036	-0.070691
O21	O	1.453754	-0.309340	-0.271275
O22	O	1.953754	0.190660	0.228725
O23	O	1.283481	-0.309288	-0.441587
O24	O	1.783481	0.190712	0.058413
O25	O	1.453827	-0.399615	-0.740940
O26	O	1.953827	0.100385	-0.240940
O27	O	1.283457	-0.399650	-0.570609
O28	O	1.783457	0.100350	-0.070609
O29	O	1.582938	-0.309226	-0.740975
O30	O	2.082938	0.190774	-0.240975
O31	O	1.582711	-0.519004	-0.441539
O32	O	2.082711	-0.019004	0.058461
O33	O	1.453698	-0.518965	-0.570582
O34	O	1.953698	-0.018965	-0.070582
C35	C	1.245348	-0.354468	-0.506097
C36	C	1.745348	0.145532	-0.006097
C37	C	1.128572	-0.354480	-0.506116
C38	C	1.628572	0.145520	-0.006116
C39	C	0.963993	-0.401614	-0.573199
C40	C	1.463993	0.098386	-0.073199
C41	C	1.073717	-0.401606	-0.573188
C42	C	1.573717	0.098394	-0.073188
C43	C	1.073696	-0.307364	-0.439042
C44	C	1.573696	0.192636	0.060958
C45	C	0.963974	-0.307376	-0.439049
C46	C	1.463974	0.192624	0.060951
C47	C	1.518215	-0.545687	-0.506075
C48	C	2.018215	-0.045687	-0.006075
C49	C	1.518268	-0.627486	-0.506095
C50	C	2.018268	-0.127486	-0.006095
C51	C	1.585515	-0.815605	-0.573386
C52	C	2.085515	-0.315605	-0.073386
C53	C	1.585554	-0.892464	-0.573405
C54	C	2.085554	-0.392464	-0.073405
C55	C	1.451245	-0.892605	-0.438902
C56	C	1.951245	-0.392605	0.061098
C57	C	1.451203	-0.815747	-0.438888
C58	C	1.951203	-0.315747	0.061112
C59	C	1.518344	-0.777249	-0.506129
C60	C	2.018344	-0.277249	-0.006129
C61	C	1.518425	-0.930966	-0.506162
C62	C	2.018425	-0.430966	-0.006162
C63	C	1.518465	-1.014299	-0.506183
C64	C	2.018465	-0.514299	-0.006183
C65	C	1.518302	-0.693911	-0.506109
C66	C	2.018302	-0.193911	-0.006109
C67	C	1.792349	-0.354495	-0.506126
C68	C	2.292349	0.145505	-0.006126
C69	C	1.909125	-0.354500	-0.506133
C70	C	2.409125	0.145500	-0.006133
C71	C	1.518394	-0.354410	-0.780145
C72	C	2.018394	0.145590	-0.280145
C73	C	1.518428	-0.354380	-0.896921
C74	C	2.018428	0.145620	-0.396921
C75	C	1.518445	-0.162528	-0.506171
C76	C	2.018445	0.337472	-0.006171
C77	C	1.518500	-0.080729	-0.506196
C78	C	2.018500	0.419271	-0.006196
C79	C	1.585661	-0.307307	-0.951803
C80	C	2.085661	0.192693	-0.451803
C81	C	1.585679	-0.307275	-1.061528
C82	C	2.085679	0.192725	-0.561528
C83	C	1.451227	-0.401396	-1.061478
C84	C	1.951227	0.098604	-0.561478
C85	C	1.451205	-0.401424	-0.951756
C86	C	1.951205	0.098576	-0.451756
C87	C	1.518298	-0.354498	-0.233144
C88	C	2.018298	0.145502	0.266856
C89	C	1.518468	-0.354321	-0.116368
C90	C	2.018468	0.145679	0.383632
H91	H	1.118367	-0.268996	-0.384426
H92	H	1.618367	0.231004	0.115574
H93	H	1.396448	-0.439756	-0.907070
H94	H	1.896448	0.060244	-0.407070
C95	C	0.903615	-0.255542	-0.365270
C96	C	1.403615	0.244458	0.134730
N97	N	0.858153	-0.216503	-0.309702
N98	N	1.358153	0.283497	0.190298
H99	H	1.640249	-0.923689	-0.628175
H100	H	2.140249	-0.423689	-0.128175
H101	H	1.396499	-0.784516	-0.384119
H102	H	1.896499	-0.284516	0.115881
C103	C	1.659366	-0.773260	-0.647358
C104	C	2.159366	-0.273260	-0.147358
N105	N	1.714989	-0.741368	-0.703080
N106	N	2.214989	-0.241368	-0.203080
H107	H	1.118386	-0.439972	-0.627799
H108	H	1.618386	0.060028	-0.127799
H109	H	1.396584	-0.923959	-0.384155
H110	H	1.896584	-0.423959	0.115845
C111	C	1.659598	-0.255551	-0.891489
C112	C	2.159598	0.244449	-0.391489
N113	N	1.715287	-0.216564	-0.846064
N114	N	2.215287	0.283436	-0.346064
C115	C	1.377284	-0.453140	-1.121806
C116	C	1.877284	0.046860	-0.621806
N117	N	1.321588	-0.492115	-1.167245
N118	N	1.821588	0.007885	-0.667245
C119	C	0.903664	-0.453460	-0.646983
C120	C	1.403664	0.046540	-0.146983
N121	N	0.858227	-0.492514	-0.702555
N122	N	1.358227	0.007486	-0.202555
C123	C	1.659643	-0.255492	-1.121893
C124	C	2.159643	0.244508	-0.621893
N125	N	1.715356	-0.216487	-1.167359
N126	N	2.215356	0.283513	-0.667359
