data_functionalizedCrystal
_audit_creation_method	'MofGen! by Chris Wilmer'
_symmetry_space_group_name_H-M	'P1'
_symmetry_Int_Tables_number	1
_symmetry_cell_setting	triclinic
loop_
_symmetry_equiv_pos_as_xyz
  x,y,z
_cell_length_a	15.995350
_cell_length_b	19.188930
_cell_length_c	14.472310
_cell_angle_alpha	89.993787
_cell_angle_beta	89.990621
_cell_angle_gamma	83.318578
loop_
_atom_site_label
_atom_site_type_symbol
_atom_site_fract_x
_atom_site_fract_y
_atom_site_fract_z
O1	O	1.110667	0.089991	-0.076773
O2	O	0.866851	0.101105	-0.076794
O3	O	0.995795	-0.006090	-0.076765
O4	O	0.981723	0.197186	-0.076802
O5	O	0.995762	-0.006083	0.076917
O6	O	0.866818	0.101111	0.076888
O7	O	1.110634	0.089998	0.076909
Cu8	Cu	0.988723	0.095555	0.090931
Cu9	Cu	0.988762	0.095547	-0.090816
O10	O	0.981690	0.197192	0.076880
C11	C	0.835641	0.100648	0.000045
C12	C	0.742696	0.099271	0.000038
C13	C	0.404967	0.094324	0.000058
C14	C	0.452680	0.017982	0.000415
C15	C	0.549365	0.019360	0.000062
C16	C	0.572518	0.096778	0.000049
C17	C	0.531312	0.134429	-0.087714
C18	C	0.434683	0.132511	-0.087781
C19	C	0.434301	0.134095	0.086984
C20	C	0.531246	0.134077	0.088137
C21	C	0.667211	0.098169	0.000040
C22	C	0.310274	0.092936	0.000060
C23	C	0.995323	-0.032099	0.000079
C24	C	0.993955	-0.109607	0.000087
C25	C	1.069615	-0.154338	0.000097
C26	C	1.068330	-0.227165	0.000082
C27	C	0.991380	-0.255258	0.000075
C28	C	0.915710	-0.210517	0.000059
C29	C	0.916997	-0.137691	0.000065
N30	N	0.932550	-0.363410	0.052371
N31	N	0.931332	-0.432592	0.052368
C32	C	0.987497	-0.474676	0.000056
N33	N	1.044938	-0.444967	-0.052240
N34	N	1.046158	-0.375779	-0.052233
C35	C	0.989976	-0.334224	0.000069
C36	C	1.061769	-0.598375	0.000050
C37	C	1.060480	-0.671204	0.000029
C38	C	0.907859	-0.654553	0.000015
C39	C	0.909149	-0.581727	0.000027
C40	C	0.986106	-0.553643	0.000048
C41	C	1.141843	0.090454	0.000068
C42	C	1.234789	0.091831	0.000069
C43	C	0.982162	0.223201	0.000034
C44	C	0.983530	0.300709	0.000020
N45	N	0.988701	0.095560	0.218762
N46	N	0.988790	0.095537	-0.218647
C47	C	0.988761	0.095545	0.592853
C48	C	0.919535	0.152710	0.553672
C49	C	0.919694	0.152918	0.446584
C50	C	0.988731	0.095552	0.407262
C51	C	1.076037	0.111464	0.446103
C52	C	1.075648	0.111870	0.553224
C53	C	0.971460	0.022298	0.553394
C54	C	0.969454	0.022787	0.446266
C55	C	0.988719	0.095555	0.302374
C56	C	0.988778	0.095543	0.697741
H57	H	0.558650	0.106592	0.153064
C58	C	0.882690	0.006474	0.411979
N59	N	0.817337	-0.005810	0.386149
H60	H	0.909193	0.006998	0.580460
H61	H	1.129943	-0.263592	0.000087
H62	H	1.122095	-0.707624	0.000033
C63	C	1.154270	-0.123450	0.000113
N64	N	1.218034	-0.100184	0.000123
H65	H	0.854420	0.143386	0.579456
H66	H	0.559796	0.108273	-0.153020
H67	H	1.124432	-0.575508	0.000063
C68	C	0.390839	0.208228	-0.093194
N69	N	0.357819	0.265257	-0.097281
C70	C	0.823213	-0.685451	0.000004
N71	N	0.759455	-0.708726	-0.000006
C72	C	0.426367	-0.023063	-0.084118
N73	N	0.406544	-0.053978	-0.147788
H74	H	0.930714	0.207273	0.420941
C75	C	0.833762	-0.088484	0.000056
N76	N	0.771067	-0.051421	0.000051
H77	H	0.853057	-0.233394	0.000052
H78	H	0.847538	-0.545305	0.000023
C79	C	0.832006	0.140124	0.411106
N80	N	0.765953	0.130491	0.384389
C81	C	0.934214	0.225729	0.590012
N82	N	0.945272	0.280726	0.617384
H83	H	1.090934	0.165288	0.578192
H84	H	1.128755	0.071875	0.579141
C85	C	1.147279	0.056714	0.411690
N86	N	1.200938	0.015475	0.385768
C87	C	0.551736	0.210344	0.095297
N88	N	0.567175	0.267788	0.100688
H89	H	1.091696	0.164273	0.419257
C90	C	0.587169	-0.020897	-0.085067
N91	N	0.615642	-0.051219	-0.149191
C92	C	1.033187	-0.037375	0.410131
N93	N	1.081202	-0.082687	0.382923
C94	C	1.039659	-0.035173	0.587631
N95	N	1.091028	-0.078455	0.613424
H96	H	0.434256	-0.012531	0.063354
C97	C	0.410104	0.095404	-0.176393
N98	N	0.391595	0.067451	-0.243135
C99	C	0.587903	-0.020629	0.085050
N100	N	0.616926	-0.050754	0.149063
H101	H	0.545229	0.191306	-0.090987
H102	H	0.402333	0.190382	0.087568
C103	C	0.406672	0.100377	0.176853
N104	N	0.385863	0.074972	0.244537
