data_functionalizedCrystal
_audit_creation_method	'MofGen! by Chris Wilmer'
_symmetry_space_group_name_H-M	'P1'
_symmetry_Int_Tables_number	1
_symmetry_cell_setting	triclinic
loop_
_symmetry_equiv_pos_as_xyz
  x,y,z
_cell_length_a	11.792241
_cell_length_b	14.044190
_cell_length_c	10.268362
_cell_angle_alpha	90.010061
_cell_angle_beta	89.999626
_cell_angle_gamma	91.307403
loop_
_atom_site_label
_atom_site_type_symbol
_atom_site_fract_x
_atom_site_fract_y
_atom_site_fract_z
O1	O	1.519116	-0.129987	-0.108189
O2	O	1.190032	-0.143384	-0.108221
O3	O	1.349630	0.001325	-0.108179
O4	O	1.359518	-0.274696	-0.108230
O5	O	1.349615	0.001331	0.108421
O6	O	1.190017	-0.143378	0.108380
O7	O	1.519100	-0.129981	0.108412
Cu8	Cu	1.354557	-0.136679	0.128173
Cu9	Cu	1.354575	-0.136686	-0.127982
O10	O	1.359502	-0.274690	0.108371
C11	C	1.147655	-0.142539	0.000076
C12	C	1.021404	-0.140021	0.000065
C13	C	0.790257	-0.135389	0.000103
C14	C	0.918884	-0.137962	0.000082
C15	C	1.561478	-0.130826	0.000112
C16	C	1.687728	-0.133344	0.000115
C17	C	1.345297	0.036664	0.000124
C18	C	1.332395	0.141957	0.000134
C19	C	1.363835	-0.310029	0.000064
C20	C	1.376737	-0.415322	0.000046
C21	C	1.400312	0.391894	0.000090
C22	C	1.308825	0.334735	0.000090
C23	C	1.321943	0.227463	0.000115
C24	C	1.387197	0.499176	0.000065
N25	N	1.354552	-0.136673	0.308339
N26	N	1.354589	-0.136684	-0.308148
C27	C	1.354570	-0.136684	0.574010
C28	C	1.354556	-0.136681	0.426172
H29	H	1.220649	0.366364	0.000074
H30	H	1.488481	0.360267	0.000112
