data_functionalizedCrystal
_audit_creation_method	'MofGen! by Chris Wilmer'
_symmetry_space_group_name_H-M	'P1'
_symmetry_Int_Tables_number	1
_symmetry_cell_setting	triclinic
loop_
_symmetry_equiv_pos_as_xyz
  x,y,z
_cell_length_a	14.853567
_cell_length_b	13.339070
_cell_length_c	12.376457
_cell_angle_alpha	75.601917
_cell_angle_beta	78.693154
_cell_angle_gamma	80.367887
loop_
_atom_site_label
_atom_site_type_symbol
_atom_site_fract_x
_atom_site_fract_y
_atom_site_fract_z
O1	O	1.241701	-0.112764	-0.093937
O2	O	0.983163	-0.128500	-0.093953
O3	O	1.082760	0.026673	-0.093943
O4	O	1.142104	-0.267937	-0.093947
O5	O	1.057860	-0.012068	0.094067
O6	O	0.958263	-0.167240	0.094057
O7	O	1.216801	-0.151504	0.094073
Zn8	Zn	1.083579	-0.165523	0.123916
Zn9	Zn	1.116386	-0.114481	-0.123796
O10	O	1.117204	-0.306677	0.094063
C11	C	0.936947	-0.147157	0.000050
C12	C	0.836332	-0.145018	0.000044
C13	C	1.263018	-0.132847	0.000067
C14	C	1.363634	-0.134984	0.000066
C15	C	1.060286	0.045006	0.000059
C16	C	1.030406	0.157351	0.000053
C17	C	1.801374	-0.236191	0.000045
C18	C	1.776747	-0.051840	0.000047
C19	C	1.682212	-0.049832	0.000053
C20	C	1.647254	-0.141004	0.000054
C21	C	1.706831	-0.234185	0.000047
C22	C	1.622629	0.043349	0.000048
C23	C	1.528088	0.045361	0.000053
C24	C	1.493128	-0.045814	0.000061
C25	C	1.552711	-0.138998	0.000056
C26	C	1.517754	-0.230171	0.000057
C27	C	1.577334	-0.323358	0.000060
C28	C	1.671871	-0.325360	0.000056
C29	C	1.398591	-0.043812	0.000065
C30	C	1.423211	-0.228164	0.000060
C31	C	1.139679	-0.325010	0.000058
C32	C	1.169559	-0.437354	0.000057
N33	N	1.061195	-0.200357	0.292972
C34	C	1.262738	0.521815	0.000067
C35	C	1.290813	0.416260	0.000080
C36	C	1.225714	0.351528	0.000073
C37	C	1.132534	0.392361	0.000054
C38	C	1.104455	0.497924	0.000051
C39	C	1.067431	0.327637	0.000056
C40	C	0.974252	0.368469	0.000037
C41	C	0.946177	0.474023	0.000033
C42	C	1.011277	0.538755	0.000040
C43	C	1.095510	0.222074	0.000059
C44	C	0.937228	0.198183	0.000043
C45	C	0.909153	0.303737	0.000030
N46	N	1.138774	-0.079639	-0.292852
C47	C	1.190728	0.001242	0.647969
C48	C	1.206390	0.025623	0.529630
C49	C	1.170092	-0.030870	0.470460
C50	C	1.118131	-0.111748	0.529639
C51	C	1.102475	-0.136136	0.647989
C52	C	1.081838	-0.168249	0.470481
C53	C	1.029877	-0.249127	0.529660
C54	C	1.014223	-0.273511	0.647998
C55	C	1.050520	-0.217018	0.707169
C56	C	1.097495	-0.143860	0.352131
C57	C	1.009241	-0.281239	0.352151
C58	C	0.993580	-0.305619	0.470490
H59	H	1.394756	-0.302411	0.000067
H60	H	1.248696	0.091472	0.481451
Cl61	Cl	1.189778	-0.000216	0.321689
H62	H	1.350086	0.032061	0.000055
H63	H	1.651100	0.117578	0.000042
Cl64	Cl	1.876271	-0.353334	0.000050
H65	H	1.805216	0.022390	0.000040
H66	H	1.479585	0.121239	0.000052
Cl67	Cl	1.212645	0.170754	0.000082
Cl68	Cl	1.407950	0.364940	0.000078
H69	H	0.884217	0.145476	0.000043
Cl70	Cl	0.928260	-0.407293	0.544898
H71	H	1.315730	0.574526	0.000082
Cl72	Cl	0.963612	-0.352266	0.277773
H73	H	0.971922	-0.339374	0.696183
H74	H	0.870304	0.507263	0.000027
Cl75	Cl	0.792016	0.355083	0.000005
Cl76	Cl	0.976003	0.671486	-0.000110
Cl77	Cl	1.030826	-0.247665	0.855944
Cl78	Cl	1.746778	-0.442495	0.000045
Cl79	Cl	1.533378	-0.437967	0.000048
Cl80	Cl	1.261011	0.218830	0.000082
Cl81	Cl	1.162813	-0.042188	0.277748
Cl82	Cl	1.236364	0.072245	0.722355
