data_functionalizedCrystal
_audit_creation_method	'MofGen! by Chris Wilmer'
_symmetry_space_group_name_H-M	'P1'
_symmetry_Int_Tables_number	1
_symmetry_cell_setting	triclinic
loop_
_symmetry_equiv_pos_as_xyz
  x,y,z
_cell_length_a	17.639617
_cell_length_b	16.120444
_cell_length_c	17.640968
_cell_angle_alpha	82.193498
_cell_angle_beta	70.333968
_cell_angle_gamma	104.620503
loop_
_atom_site_label
_atom_site_type_symbol
_atom_site_fract_x
_atom_site_fract_y
_atom_site_fract_z
Zn1	Zn	1.358807	0.110278	-0.716845
Zn2	Zn	1.323832	-0.064503	-0.585974
Zn3	Zn	1.190264	0.039621	-0.553935
Zn4	Zn	1.213924	-0.064421	-0.695853
O5	O	1.271706	0.005244	-0.638152
O6	O	1.470699	0.116629	-0.721679
O7	O	1.281574	-0.080294	-0.467560
O8	O	1.217356	0.165683	-0.570922
O9	O	1.445003	-0.011782	-0.625528
O10	O	1.341184	0.217594	-0.690612
O11	O	1.183442	-0.003795	-0.444021
O12	O	1.076870	-0.003716	-0.550567
O13	O	1.257682	-0.011643	-0.812802
O14	O	1.094253	-0.080156	-0.654834
O15	O	1.364127	0.116707	-0.828224
O16	O	1.304517	-0.181181	-0.605173
O17	O	1.223769	-0.181121	-0.685901
C18	C	1.055346	-0.049595	-0.596946
C19	C	0.962789	-0.073070	-0.579338
C20	C	0.725308	0.183653	-0.772118
C21	C	0.638332	0.161569	-0.755557
C22	C	0.611572	0.027993	-0.655278
C23	C	0.698547	0.050063	-0.671833
C24	C	0.755409	0.127895	-0.730254
C25	C	0.728648	-0.005694	-0.629969
C26	C	0.815615	0.016377	-0.646520
C27	C	0.872482	0.094206	-0.704936
C28	C	0.842376	0.149966	-0.746805
C29	C	0.671784	-0.083522	-0.571545
C30	C	0.701885	-0.139280	-0.529680
C31	C	0.788855	-0.117212	-0.546236
C32	C	0.845721	-0.039383	-0.604651
C33	C	0.818960	-0.172973	-0.504367
C34	C	0.905928	-0.150901	-0.520918
C35	C	0.932688	-0.017312	-0.621203
C36	C	1.262941	-0.211396	-0.646758
C37	C	1.259274	-0.304050	-0.650481
C38	C	1.290974	-0.514944	-0.619051
C39	C	1.252595	-0.473676	-0.657290
C40	C	1.256312	-0.379287	-0.653500
C41	C	1.287258	-0.609341	-0.622840
C42	C	1.488912	0.060296	-0.679519
C43	C	1.581472	0.083756	-0.697147
C44	C	1.317445	0.060423	-0.850942
C45	C	1.336936	0.083937	-0.941621
C46	C	1.280532	0.222740	-0.629535
C47	C	1.284293	0.315424	-0.625863
C48	C	1.123972	-0.172855	-1.199708
C49	C	1.142305	-0.150745	-1.284917
C50	C	1.253136	-0.017105	-1.300965
C51	C	1.234810	-0.039201	-1.215755
C52	C	1.170228	-0.117078	-1.165133
C53	C	1.281065	0.016576	-1.181180
C54	C	1.262743	-0.005522	-1.095978
C55	C	1.198165	-0.083396	-1.045351
C56	C	1.151905	-0.139176	-1.079931
C57	C	1.345651	0.094449	-1.231804
C58	C	1.391907	0.150226	-1.197229
C59	C	1.373581	0.128132	-1.112025
C60	C	1.309003	0.050257	-1.061398
C61	C	1.419841	0.183911	-1.077445
C62	C	1.401519	0.161813	-0.992243
C63	C	1.290681	0.028160	-0.976196
C64	C	1.226196	-0.049648	-0.426196
C65	C	1.206876	-0.072886	-0.335539
H66	H	0.565263	-0.035375	-0.607710
H67	H	0.978990	0.046064	-0.668777
H68	H	1.104634	-0.196171	-1.313063
H69	H	1.099297	-0.202576	-1.038706
H70	H	1.326621	-0.479389	-0.583469
H71	H	1.439183	0.207234	-0.964091
H72	H	1.071364	-0.236255	-1.158483
H73	H	0.943295	0.112177	-0.718408
H74	H	0.888677	0.213342	-0.794380
H75	H	1.216945	-0.509235	-0.692874
H76	H	0.655577	-0.202649	-0.482112
H77	H	1.238072	-0.035240	-0.934971
H78	H	1.360569	0.112436	-1.301181
H79	H	0.930436	-0.196305	-0.486828
H80	H	0.600968	-0.101476	-0.558052
H81	H	1.183252	-0.101389	-0.975975
H82	H	1.305721	0.046301	-1.342193
H83	H	0.771609	0.247028	-0.819693
H84	H	1.444492	0.213631	-1.238458
H85	H	1.472429	0.247314	-1.118675
H86	H	0.772650	-0.236338	-0.456795
H87	H	0.613829	0.206983	-0.789648
