data_functionalizedCrystal
_audit_creation_method	'MofGen! by Chris Wilmer'
_symmetry_space_group_name_H-M	'P1'
_symmetry_Int_Tables_number	1
_symmetry_cell_setting	triclinic
loop_
_symmetry_equiv_pos_as_xyz
  x,y,z
_cell_length_a	15.995350
_cell_length_b	15.995350
_cell_length_c	10.868271
_cell_angle_alpha	90.002904
_cell_angle_beta	90.000670
_cell_angle_gamma	83.492375
loop_
_atom_site_label
_atom_site_type_symbol
_atom_site_fract_x
_atom_site_fract_y
_atom_site_fract_z
O1	O	1.110985	0.107927	0.102212
O2	O	1.610985	0.607927	0.602212
O3	O	0.867210	0.121255	0.102236
O4	O	1.367210	0.621255	0.602236
O5	O	0.995761	-0.007297	0.102222
O6	O	1.495761	0.492703	0.602222
O7	O	0.982434	0.236478	0.102226
O8	O	1.482434	0.736478	0.602226
O9	O	0.995751	-0.007302	-0.102422
O10	O	1.495751	0.492698	0.397578
O11	O	0.867199	0.121250	-0.102408
O12	O	1.367199	0.621250	0.397592
O13	O	1.110975	0.107922	-0.102433
O14	O	1.610975	0.607922	0.397567
Zn15	Zn	0.989085	0.114585	-0.134912
Zn16	Zn	1.489085	0.614585	0.365088
Zn17	Zn	0.989099	0.114592	0.134716
Zn18	Zn	1.489099	0.614592	0.634716
O19	O	0.982423	0.236474	-0.102419
O20	O	1.482423	0.736474	0.397581
C21	C	0.836010	0.120701	-0.000083
C22	C	1.336010	0.620701	0.499917
C23	C	0.743060	0.119049	-0.000073
C24	C	1.243060	0.619049	0.499927
C25	C	0.405312	0.113117	-0.000099
C26	C	0.905312	0.613117	0.499901
C27	C	0.452746	0.021565	-0.000557
C28	C	0.952746	0.521565	0.499443
C29	C	0.549436	0.023217	-0.000087
C30	C	1.049436	0.523217	0.499913
C31	C	0.572873	0.116060	-0.000087
C32	C	1.072873	0.616060	0.499913
C33	C	0.531792	0.161219	0.116771
C34	C	1.031792	0.661219	0.616771
C35	C	0.435156	0.158919	0.116860
C36	C	0.935156	0.658919	0.616860
C37	C	0.434805	0.160805	-0.115859
C38	C	0.934805	0.660805	0.384141
C39	C	0.531750	0.160783	-0.117395
C40	C	1.031750	0.660783	0.382605
C41	C	0.667570	0.117727	-0.000076
C42	C	1.167570	0.617727	0.499924
C43	C	0.310614	0.111452	-0.000101
C44	C	0.810614	0.611452	0.499899
C45	C	0.995205	-0.038494	-0.000098
C46	C	1.495205	0.461506	0.499902
C47	C	0.993553	-0.131444	-0.000091
C48	C	1.493553	0.368556	0.499909
C49	C	0.987621	-0.469192	-0.000094
C50	C	1.487621	0.030808	0.499906
C51	C	0.896069	-0.421758	0.000374
C52	C	1.396069	0.078242	0.500374
C53	C	0.897721	-0.325068	-0.000087
C54	C	1.397721	0.174932	0.499913
C55	C	0.990564	-0.301631	-0.000092
C56	C	1.490564	0.198369	0.499908
C57	C	1.035714	-0.342712	-0.116956
C58	C	1.535714	0.157288	0.383044
C59	C	1.033414	-0.439347	-0.117054
C60	C	1.533414	0.060653	0.382946
C61	C	1.035318	-0.439700	0.115665
C62	C	1.535318	0.060300	0.615665
C63	C	1.035296	-0.342755	0.117210
C64	C	1.535296	0.157245	0.617210
C65	C	0.992231	-0.206934	-0.000094
C66	C	1.492231	0.293066	0.499906
C67	C	0.985956	-0.563890	-0.000100
C68	C	1.485956	-0.063890	0.499900
C69	C	1.142175	0.108476	-0.000111
C70	C	1.642175	0.608476	0.499889
C71	C	1.235125	0.110127	-0.000113
C72	C	1.735125	0.610127	0.499887
C73	C	0.982980	0.267671	-0.000096
C74	C	1.482980	0.767671	0.499904
C75	C	0.984631	0.360621	-0.000095
C76	C	1.484631	0.860621	0.499905
N77	N	0.989082	0.114580	-0.318926
N78	N	1.489082	0.614580	0.181074
C79	C	0.989095	0.114590	-0.569932
C80	C	1.489095	0.614590	-0.069932
C81	C	0.989085	0.114587	-0.430255
C82	C	1.489085	0.614587	0.069745
N83	N	0.989109	0.114590	0.318730
N84	N	1.489109	0.614590	0.818730
H85	H	0.577861	-0.012280	-0.083856
H86	H	1.077861	0.487720	0.416144
H87	H	0.547115	0.228487	-0.124453
H88	H	1.047115	0.728487	0.375547
Cl89	Cl	1.139532	-0.488737	0.116877
Cl90	Cl	1.639532	0.011263	0.616877
Cl91	Cl	0.989102	-0.471395	0.252421
Cl92	Cl	1.489102	0.028605	0.752421
H93	H	1.000482	-0.457651	-0.204408
H94	H	1.500482	0.042349	0.295592
Cl95	Cl	0.984748	-0.300192	0.250709
Cl96	Cl	1.484748	0.199808	0.750709
Cl97	Cl	1.141024	-0.320905	-0.123679
Cl98	Cl	1.641024	0.179095	0.376321
Cl99	Cl	0.842540	-0.282043	-0.129634
Cl100	Cl	1.342540	0.217957	0.370366
Cl101	Cl	0.385769	0.265020	-0.117081
Cl102	Cl	0.885769	0.765020	0.382919
Cl103	Cl	0.424138	-0.034941	-0.129943
Cl104	Cl	0.924138	0.465059	0.370057
Cl105	Cl	0.839575	-0.450364	0.129766
Cl106	Cl	1.339575	0.049636	0.629766
Cl107	Cl	0.839660	-0.452369	-0.127904
Cl108	Cl	1.339660	0.047631	0.372096
H109	H	0.577299	-0.012516	0.083827
H110	H	1.077299	0.487484	0.583827
Cl111	Cl	1.139828	-0.319034	0.128108
Cl112	Cl	1.639828	0.180966	0.628108
H113	H	0.433157	-0.014860	0.082784
H114	H	0.933157	0.485140	0.582784
H115	H	0.862230	-0.296644	0.083686
H116	H	1.362230	0.203356	0.583686
Cl117	Cl	0.406892	0.108080	0.251726
Cl118	Cl	0.906892	0.608080	0.751726
Cl119	Cl	0.385363	0.262692	0.125051
Cl120	Cl	0.885363	0.762692	0.625051
H121	H	0.560170	0.129857	0.203739
H122	H	1.060170	0.629857	0.703739
Cl123	Cl	0.553624	0.266520	0.123512
Cl124	Cl	1.053624	0.766520	0.623512
Cl125	Cl	1.137187	-0.489140	-0.125263
Cl126	Cl	1.637187	0.010860	0.374737
Cl127	Cl	0.403099	0.114588	-0.252614
Cl128	Cl	0.903099	0.614588	0.247386
H129	H	1.004346	-0.314332	-0.203919
H130	H	1.504346	0.185668	0.296081
H131	H	0.559062	0.127817	-0.203846
H132	H	1.059062	0.627817	0.296154
