data_functionalizedCrystal
_audit_creation_method	'MofGen! by Chris Wilmer'
_symmetry_space_group_name_H-M	'P1'
_symmetry_Int_Tables_number	1
_symmetry_cell_setting	triclinic
loop_
_symmetry_equiv_pos_as_xyz
  x,y,z
_cell_length_a	15.995300
_cell_length_b	19.188930
_cell_length_c	18.266242
_cell_angle_alpha	90.006796
_cell_angle_beta	90.007942
_cell_angle_gamma	83.308294
loop_
_atom_site_label
_atom_site_type_symbol
_atom_site_fract_x
_atom_site_fract_y
_atom_site_fract_z
O1	O	1.110686	0.089825	0.060916
O2	O	1.610686	0.589825	0.560916
O3	O	0.866864	0.100975	0.060913
O4	O	1.366864	0.600975	0.560913
O5	O	0.995811	-0.006238	0.060900
O6	O	1.495811	0.493762	0.560900
O7	O	0.981738	0.197039	0.060929
O8	O	1.481738	0.697039	0.560929
O9	O	0.995794	-0.006235	-0.060862
O10	O	1.495794	0.493765	0.439138
O11	O	0.866847	0.100979	-0.060849
O12	O	1.366847	0.600979	0.439151
O13	O	1.110669	0.089829	-0.060846
O14	O	1.610669	0.589829	0.439154
Zn15	Zn	0.988755	0.095404	-0.080180
Zn16	Zn	1.488755	0.595404	0.419820
Zn17	Zn	0.988777	0.095400	0.080247
Zn18	Zn	1.488777	0.595400	0.580247
O19	O	0.981722	0.197043	-0.060833
O20	O	1.481722	0.697043	0.439167
C21	C	0.835662	0.100522	0.000031
C22	C	1.335662	0.600522	0.500031
C23	C	0.742714	0.099159	0.000029
C24	C	1.242714	0.599159	0.500029
C25	C	0.572540	0.096641	0.000035
C26	C	1.072540	0.596641	0.500035
C27	C	0.524795	0.172980	0.000044
C28	C	1.024795	0.672980	0.500044
C29	C	0.428112	0.171587	0.000322
C30	C	0.928112	0.671587	0.500322
C31	C	0.404992	0.094163	0.000039
C32	C	0.904992	0.594163	0.500039
C33	C	0.446273	0.056287	0.069429
C34	C	0.946273	0.556287	0.569429
C35	C	0.542900	0.058219	0.069485
C36	C	1.042900	0.558219	0.569485
C37	C	0.543164	0.057092	-0.068986
C38	C	1.043164	0.557092	0.431014
C39	C	0.446220	0.057099	-0.069896
C40	C	0.946220	0.557099	0.430104
C41	C	0.310302	0.092759	0.000044
C42	C	0.810302	0.592759	0.500044
C43	C	0.667231	0.098044	0.000035
C44	C	1.167231	0.598044	0.500035
C45	C	0.995347	-0.032249	0.000017
C46	C	1.495347	0.467751	0.500017
C47	C	0.993979	-0.109757	0.000011
C48	C	1.493979	0.390243	0.500011
C49	C	1.069641	-0.154499	0.000008
C50	C	1.569641	0.345501	0.500008
C51	C	1.068356	-0.227326	0.000020
C52	C	1.568356	0.272674	0.500020
C53	C	0.991404	-0.255407	0.000020
C54	C	1.491404	0.244593	0.500020
C55	C	0.915732	-0.210655	0.000026
C56	C	1.415732	0.289345	0.500026
C57	C	0.917020	-0.137829	0.000022
C58	C	1.417020	0.362171	0.500022
N59	N	0.932578	-0.363552	-0.041419
N60	N	1.432578	0.136448	0.458581
N61	N	0.931361	-0.432733	-0.041417
N62	N	1.431361	0.067267	0.458583
C63	C	0.987521	-0.474825	0.000034
C64	C	1.487521	0.025175	0.500034
N65	N	1.044958	-0.445123	0.041473
N66	N	1.544958	0.054877	0.541473
N67	N	1.046178	-0.375935	0.041468
N68	N	1.546178	0.124065	0.541468
C69	C	0.990000	-0.334373	0.000025
C70	C	1.490000	0.165627	0.500025
C71	C	1.061794	-0.598535	0.000046
C72	C	1.561794	-0.098535	0.500046
C73	C	1.060506	-0.671363	0.000062
C74	C	1.560506	-0.171363	0.500062
C75	C	0.907880	-0.654690	0.000061
C76	C	1.407880	-0.154690	0.500061
C77	C	0.909171	-0.581864	0.000052
C78	C	1.409171	-0.081864	0.500052
C79	C	0.986130	-0.553791	0.000041
C80	C	1.486130	-0.053791	0.500041
C81	C	1.141871	0.090282	0.000037
C82	C	1.641871	0.590282	0.500037
C83	C	1.234819	0.091645	0.000044
C84	C	1.734819	0.591645	0.500044
C85	C	0.982186	0.223053	0.000051
C86	C	1.482186	0.723053	0.500051
C87	C	0.983554	0.300561	0.000063
C88	C	1.483554	0.800561	0.500063
N89	N	0.988747	0.095407	-0.189667
N90	N	1.488747	0.595407	0.310333
C91	C	1.039418	0.137749	-0.771936
C92	C	1.539418	0.637749	-0.271936
C93	C	1.039409	0.137756	-0.695291
C94	C	1.539409	0.637756	-0.195291
C95	C	0.988785	0.095393	-0.656979
C96	C	1.488785	0.595393	-0.156979
C97	C	0.938149	0.053033	-0.695319
C98	C	1.438149	0.553033	-0.195319
C99	C	0.938153	0.053033	-0.771962
C100	C	1.438153	0.553033	-0.271962
N101	N	0.986757	0.034228	-0.536650
N102	N	1.486757	0.534228	-0.036650
N103	N	0.986758	0.034230	-0.463842
N104	N	1.486758	0.534230	0.036158
C105	C	0.988769	0.095393	-0.426057
C106	C	1.488769	0.595393	0.073943
N107	N	0.990795	0.156554	-0.463831
N108	N	1.490795	0.656554	0.036169
N109	N	0.990798	0.156551	-0.536645
N110	N	1.490798	0.656551	-0.036645
C111	C	0.988775	0.095389	-0.573872
C112	C	1.488775	0.595389	-0.073872
C113	C	1.039387	0.137761	-0.304620
C114	C	1.539387	0.637761	0.195380
C115	C	1.039373	0.137770	-0.227973
C116	C	1.539373	0.637770	0.272027
C117	C	0.938117	0.053041	-0.228002
C118	C	1.438117	0.553041	0.271998
C119	C	0.938127	0.053039	-0.304647
C120	C	1.438127	0.553039	0.195353
C121	C	0.988767	0.095398	-0.342951
C122	C	1.488767	0.595398	0.157049
N123	N	0.988793	0.095392	0.189734
N124	N	1.488793	0.595392	0.689734
H125	H	0.417800	0.082251	0.121270
H126	H	0.917800	0.582251	0.621270
F127	F	1.093243	0.182867	-0.187180
F128	F	1.593243	0.682867	0.312820
H129	H	0.853078	-0.233523	0.000027
H130	H	1.353078	0.266477	0.500027
H131	H	1.129971	-0.263762	0.000021
H132	H	1.629971	0.236238	0.500021
F133	F	0.836486	-0.090209	0.000025
F134	F	1.336486	0.409791	0.500025
F135	F	1.093304	0.182831	-0.654489
F136	F	1.593304	0.682831	-0.154489
H137	H	0.896929	0.018543	-0.664120
H138	H	1.396929	0.518543	-0.164120
F139	F	0.884268	0.007949	-0.812757
F140	F	1.384268	0.507949	-0.312757
H141	H	0.563565	0.082227	-0.121597
H142	H	1.063565	0.582227	0.378403
H143	H	0.432382	-0.000602	0.071806
H144	H	0.932382	0.499398	0.571806
F145	F	0.585354	-0.015049	0.073346
F146	F	1.085354	0.484951	0.573346
F147	F	1.093279	0.182845	-0.345389
F148	F	1.593279	0.682845	0.154611
H149	H	0.896893	0.018552	-0.196809
H150	H	1.396893	0.518552	0.303191
H151	H	0.896906	0.018544	-0.335856
H152	H	1.396906	0.518544	0.164144
H153	H	0.418772	0.084759	-0.121232
H154	H	0.918772	0.584759	0.378768
F155	F	1.143700	-0.568656	0.000030
F156	F	1.643700	-0.068656	0.500030
F157	F	1.141040	-0.718983	0.000064
F158	F	1.641040	-0.218983	0.500064
F159	F	0.549219	0.213231	-0.064732
F160	F	1.049219	0.713231	0.435268
F161	F	0.390754	0.210492	-0.064676
F162	F	0.890754	0.710492	0.435324
H163	H	0.847559	-0.545433	0.000050
H164	H	1.347559	-0.045433	0.500050
H165	H	1.132307	-0.131647	0.000002
H166	H	1.632307	0.368353	0.500002
F167	F	0.550285	0.212481	0.064996
F168	F	1.050285	0.712481	0.564996
H169	H	0.845225	-0.677553	0.000064
H170	H	1.345225	-0.177553	0.500064
H171	H	0.400162	0.201217	0.050361
H172	H	0.900162	0.701217	0.550361
H173	H	0.561126	0.085513	0.121559
H174	H	1.061126	0.585513	0.621559
F175	F	0.426437	-0.016681	-0.075657
F176	F	0.926437	0.483319	0.424343
H177	H	1.080651	0.172242	-0.803119
H178	H	1.580651	0.672242	-0.303119
H179	H	0.575151	0.000809	-0.069661
H180	H	1.075151	0.500809	0.430339
