data_functionalizedCrystal
_audit_creation_method	'MofGen! by Chris Wilmer'
_symmetry_space_group_name_H-M	'P1'
_symmetry_Int_Tables_number	1
_symmetry_cell_setting	triclinic
loop_
_symmetry_equiv_pos_as_xyz
  x,y,z
_cell_length_a	19.805407
_cell_length_b	12.759399
_cell_length_c	12.759393
_cell_angle_alpha	90.030906
_cell_angle_beta	89.976310
_cell_angle_gamma	89.984884
loop_
_atom_site_label
_atom_site_type_symbol
_atom_site_fract_x
_atom_site_fract_y
_atom_site_fract_z
Zn1	Zn	1.034816	0.418215	-0.594094
Zn2	Zn	1.034745	0.593931	-0.418413
Zn3	Zn	0.921623	0.418267	-0.418421
Zn4	Zn	0.921617	0.593853	-0.594042
O5	O	0.978200	0.506066	-0.506243
O6	O	1.129523	0.441536	-0.570808
O7	O	1.019712	0.570683	-0.271393
O8	O	0.936670	0.271239	-0.441750
O9	O	1.129471	0.570633	-0.441736
O10	O	1.019833	0.271201	-0.570816
O11	O	0.936602	0.441623	-0.271399
O12	O	0.826905	0.441547	-0.441699
O13	O	0.936660	0.570500	-0.741070
O14	O	0.826901	0.570550	-0.570727
O15	O	1.019827	0.441460	-0.741108
O16	O	1.019706	0.740942	-0.441685
O17	O	0.936591	0.740884	-0.570719
C18	C	0.802344	0.506046	-0.506209
C19	C	0.727112	0.506063	-0.506219
C20	C	0.978159	0.779034	-0.506219
C21	C	0.978203	0.895810	-0.506244
C22	C	0.978251	0.505966	-0.780276
C23	C	0.978273	0.505923	-0.897053
C24	C	0.691784	0.573336	-0.573295
C25	C	0.621095	0.573338	-0.573310
C26	C	0.585737	0.506071	-0.506243
C27	C	0.621070	0.438791	-0.439163
C28	C	0.691758	0.438785	-0.439155
C29	C	0.335997	0.438814	-0.439198
C30	C	0.265305	0.438828	-0.439210
C31	C	0.265335	0.573367	-0.573353
C32	C	0.336022	0.573361	-0.573345
C33	C	0.371349	0.506077	-0.506270
C34	C	0.447998	0.506075	-0.506256
C35	C	0.509090	0.506078	-0.506250
C36	C	1.154743	0.506087	-0.506277
C37	C	1.229975	0.506096	-0.506292
C38	C	0.978260	0.232033	-0.506290
C39	C	0.978286	0.115257	-0.506310
C40	C	1.021530	0.950667	-0.439132
C41	C	1.021574	1.060391	-0.439167
C42	C	0.934957	1.060392	-0.573428
C43	C	0.934917	0.950670	-0.573398
C44	C	1.021581	0.438721	-0.951936
C45	C	1.021592	0.438675	-1.061661
C46	C	0.934985	0.573043	-1.061608
C47	C	0.934971	0.573082	-0.951886
C48	C	0.978189	0.506091	-0.233275
C49	C	0.978298	0.505838	-0.116499
H50	H	0.720567	0.628116	-0.627906
C51	C	1.069206	0.364839	-0.891619
C52	C	1.063708	0.245397	-0.906724
C53	C	1.111332	0.171511	-0.846409
C54	C	1.164454	0.217066	-0.770989
C55	C	1.169954	0.336514	-0.755881
C56	C	1.122330	0.410401	-0.816195
H57	H	1.024382	0.211669	-0.962557
H58	H	1.107261	0.083087	-0.857594
H59	H	1.199709	0.162371	-0.726341
H60	H	1.209280	0.370243	-0.700047
H61	H	1.126402	0.498824	-0.805010
H62	H	1.056777	0.906003	-0.384453
H63	H	0.236563	0.628149	-0.627973
H64	H	0.899699	0.627805	-0.907198
H65	H	1.056857	0.383951	-1.106342
H66	H	0.899635	0.906002	-0.628053
H67	H	0.236518	0.384045	-0.384595
H68	H	1.056856	1.105051	-0.384520
H69	H	0.592334	0.628119	-0.627929
H70	H	0.899732	0.627724	-1.106266
H71	H	0.899714	1.105072	-0.628101
H72	H	0.364807	0.628140	-0.627954
H73	H	0.364752	0.384036	-0.384574
H74	H	0.592276	0.384017	-0.384561
H75	H	0.720521	0.383999	-0.384540
