data_functionalizedCrystal
_audit_creation_method	'MofGen! by Chris Wilmer'
_symmetry_space_group_name_H-M	'P1'
_symmetry_Int_Tables_number	1
_symmetry_cell_setting	triclinic
loop_
_symmetry_equiv_pos_as_xyz
  x,y,z
_cell_length_a	10.654550
_cell_length_b	13.930277
_cell_length_c	10.654550
_cell_angle_alpha	89.995178
_cell_angle_beta	84.484931
_cell_angle_gamma	90.003431
loop_
_atom_site_label
_atom_site_type_symbol
_atom_site_fract_x
_atom_site_fract_y
_atom_site_fract_z
O1	O	1.667847	0.079759	0.176381
O2	O	1.302368	0.079777	0.193187
O3	O	1.493511	0.079761	0.002045
O4	O	1.476705	0.079774	0.367524
O5	O	1.493483	-0.079901	0.002074
O6	O	1.302340	-0.079885	0.193217
O7	O	1.667819	-0.079903	0.176411
Zn8	Zn	1.485075	-0.105244	0.184818
Zn9	Zn	1.485112	0.105118	0.184780
O10	O	1.476677	-0.079888	0.367553
C11	C	1.255556	-0.000052	0.191968
C12	C	1.116113	-0.000046	0.188276
N13	N	1.485059	-0.248810	0.184844
C14	C	1.036628	-0.000044	0.300818
C15	C	0.905607	-0.000061	0.297341
C16	C	0.933570	-0.000076	0.068772
C17	C	1.064588	-0.000066	0.072250
C18	C	1.561959	-0.701070	0.261637
C19	C	1.408303	-0.701058	0.107871
C20	C	1.408284	-0.600562	0.107891
C21	C	1.485105	-0.550316	0.184784
C22	C	1.561946	-0.600565	0.261657
C23	C	1.331455	-0.550305	0.031011
C24	C	1.331434	-0.449803	0.031027
C25	C	1.408249	-0.399555	0.107927
C26	C	1.485092	-0.449811	0.184804
C27	C	1.561913	-0.399564	0.261697
C28	C	1.638750	-0.449818	0.338581
C29	C	1.638761	-0.550317	0.338557
C30	C	1.408238	-0.299056	0.107951
C31	C	1.561899	-0.299059	0.261717
C32	C	1.714631	-0.000072	0.177630
C33	C	1.854074	-0.000072	0.181322
C34	C	1.492263	-0.000069	-0.044738
C35	C	1.488571	-0.000067	-0.184181
N36	N	1.485138	0.248684	0.184744
C37	C	1.601112	-0.000072	-0.263667
C38	C	1.597636	-0.000061	-0.394688
C39	C	1.369066	-0.000043	-0.366725
C40	C	1.372544	-0.000048	-0.235706
C41	C	1.477925	-0.000055	0.414336
C42	C	1.481616	-0.000051	0.553779
H43	H	0.840894	-0.000062	0.388984
H44	H	1.280893	-0.000041	-0.170985
H45	H	1.695588	-0.000087	-0.221720
C46	C	1.263142	-0.295745	-0.037187
C47	C	1.246948	-0.394568	-0.053451
H48	H	1.210980	-0.261646	-0.089338
H49	H	1.240567	-0.279310	0.048530
H50	H	1.348861	-0.279258	-0.059744
H51	H	1.161231	-0.411056	-0.030885
H52	H	1.269515	-0.411010	-0.139187
H53	H	1.274601	-0.000028	-0.408693
C54	C	0.995823	-0.000043	0.526397
C55	C	1.093265	-0.000034	0.428352
H56	H	1.030788	-0.000045	0.605132
H57	H	0.945304	0.055628	0.520279
H58	H	0.945303	-0.055728	0.520284
H59	H	1.143780	0.055655	0.434460
H60	H	1.143805	-0.055711	0.434474
C61	C	0.745143	-0.000089	-0.038050
C62	C	0.876928	-0.000087	-0.058760
H63	H	0.710180	-0.000087	-0.116787
H64	H	0.717934	-0.055762	0.008337
H65	H	0.717941	0.055594	0.008328
H66	H	0.904131	-0.055773	-0.105131
H67	H	0.904149	0.055593	-0.105168
C68	C	1.726301	-0.082134	-0.558255
C69	C	1.721342	-0.000067	-0.482064
H70	H	1.802672	-0.082131	-0.612203
H71	H	1.722901	-0.137806	-0.506563
H72	H	1.656699	-0.082113	-0.607688
H73	H	1.790939	-0.000091	-0.432624
H74	H	1.724754	0.055619	-0.533762
C75	C	1.079080	-0.000072	-0.154041
C76	C	1.151970	-0.000064	-0.051466
H77	H	1.133028	-0.000066	-0.230411
H78	H	1.027401	-0.055749	-0.150635
H79	H	1.027392	0.055607	-0.150649
H80	H	1.203652	-0.055746	-0.054853
H81	H	1.203671	0.055620	-0.054873
H82	H	1.345767	-0.741974	0.045260
H83	H	1.701303	-0.408895	0.401182
C84	C	1.613030	-0.268153	0.472579
C85	C	1.646347	-0.243835	0.346244
H86	H	1.665171	-0.234064	0.524760
H87	H	1.527315	-0.251686	0.495105
H88	H	1.624032	-0.335201	0.483553
H89	H	1.635336	-0.176787	0.335268
H90	H	1.732083	-0.260295	0.323710
C91	C	1.707020	-0.704379	0.406785
C92	C	1.723224	-0.605558	0.423052
H93	H	1.759172	-0.738482	0.458941
H94	H	1.621308	-0.720859	0.429322
H95	H	1.729612	-0.720816	0.321059
H96	H	1.700623	-0.589120	0.508777
H97	H	1.808956	-0.589071	0.400523
C98	C	1.263155	-0.704354	-0.037206
C99	C	1.247012	-0.605529	-0.053508
H100	H	1.211012	-0.738446	-0.089382
H101	H	1.348865	-0.720852	-0.059698
H102	H	1.240512	-0.720787	0.048517
H103	H	1.269664	-0.589095	-0.139230
H104	H	1.161283	-0.589024	-0.031024
H105	H	1.624514	-0.741991	0.324238
H106	H	1.345682	-0.258144	0.045350
