data_functionalizedCrystal
_audit_creation_method	'MofGen! by Chris Wilmer'
_symmetry_space_group_name_H-M	'P1'
_symmetry_Int_Tables_number	1
_symmetry_cell_setting	triclinic
loop_
_symmetry_equiv_pos_as_xyz
  x,y,z
_cell_length_a	18.050591
_cell_length_b	18.050589
_cell_length_c	10.686551
_cell_angle_alpha	85.590054
_cell_angle_beta	85.596624
_cell_angle_gamma	90.016540
loop_
_atom_site_label
_atom_site_type_symbol
_atom_site_fract_x
_atom_site_fract_y
_atom_site_fract_z
Zn1	Zn	1.167629	-0.263461	-0.713689
Zn2	Zn	1.667629	0.236539	-0.213689
Zn3	Zn	1.158007	-0.397202	-0.502667
Zn4	Zn	1.658007	0.102798	-0.002667
Zn5	Zn	1.033899	-0.273022	-0.502673
Zn6	Zn	1.533899	0.226978	-0.002673
Zn7	Zn	1.043408	-0.387610	-0.713592
Zn8	Zn	1.543408	0.112390	-0.213592
O9	O	1.100736	-0.330324	-0.608155
O10	O	1.600736	0.169676	-0.108155
O11	O	1.270279	-0.281216	-0.685735
O12	O	1.770279	0.218784	-0.185735
O13	O	1.133537	-0.388745	-0.326083
O14	O	1.633537	0.111255	0.173917
O15	O	1.051686	-0.167827	-0.530708
O16	O	1.551686	0.332173	-0.030708
O17	O	1.263209	-0.379475	-0.530697
O18	O	1.763209	0.120525	-0.030697
O19	O	1.149936	-0.160803	-0.685741
O20	O	1.649936	0.339197	-0.185741
O21	O	1.042356	-0.297510	-0.326088
O22	O	1.542356	0.202490	0.173912
O23	O	0.931234	-0.288208	-0.530614
O24	O	1.431234	0.211792	-0.030614
O25	O	1.067893	-0.363126	-0.890190
O26	O	1.567893	0.136874	-0.390190
O27	O	0.938221	-0.372396	-0.685576
O28	O	1.438221	0.127604	-0.185576
O29	O	1.159157	-0.271914	-0.890261
O30	O	1.659157	0.228086	-0.390261
O31	O	1.142758	-0.499856	-0.530603
O32	O	1.642758	0.000144	-0.030603
O33	O	1.058563	-0.492809	-0.685570
O34	O	1.558563	0.007191	-0.185570
C35	C	1.100670	-0.523278	-0.608103
C36	C	1.600670	-0.023278	-0.108103
C37	C	1.100711	-0.605823	-0.608123
C38	C	1.600711	-0.105823	-0.108123
C39	C	0.907780	-0.330299	-0.608086
C40	C	1.407780	0.169701	-0.108086
C41	C	0.825235	-0.330305	-0.608086
C42	C	1.325235	0.169695	-0.108086
C43	C	1.146632	-0.858448	-0.523992
C44	C	1.646632	-0.358448	-0.023992
C45	C	1.077471	-0.810515	-0.492986
C46	C	1.577471	-0.310515	0.007014
C47	C	1.100809	-0.902939	-0.608220
C48	C	1.600809	-0.402939	-0.108220
C49	C	1.169914	-0.803795	-0.639118
C50	C	1.669914	-0.303795	-0.139118
C51	C	1.100764	-0.756956	-0.608169
C52	C	1.600764	-0.256956	-0.108169
C53	C	1.031610	-0.856096	-0.577155
C54	C	1.531610	-0.356096	-0.077155
C55	C	1.124101	-0.849378	-0.723340
C56	C	1.624101	-0.349378	-0.223340
C57	C	1.054896	-0.801466	-0.692378
C58	C	1.554896	-0.301466	-0.192378
C59	C	1.100835	-0.987036	-0.608246
C60	C	1.600835	-0.487036	-0.108246
C61	C	1.100730	-0.672861	-0.608143
C62	C	1.600730	-0.172861	-0.108143
C63	C	0.621972	-0.284458	-0.524012
C64	C	1.121972	0.215542	-0.024012
C65	C	0.571156	-0.353600	-0.492955
C66	C	1.071156	0.146400	0.007045
C67	C	0.674107	-0.330325	-0.608143
C68	C	1.174107	0.169675	-0.108143
C69	C	0.577841	-0.261206	-0.639196
C70	C	1.077841	0.238794	-0.139196
C71	C	0.528124	-0.330339	-0.608195
C72	C	1.028124	0.169661	-0.108195
C73	C	0.624375	-0.399506	-0.577026
C74	C	1.124375	0.100494	-0.077026
C75	C	0.631067	-0.307064	-0.723320
C76	C	1.131067	0.192936	-0.223320
C77	C	0.580276	-0.376251	-0.692308
C78	C	1.080276	0.123749	-0.192308
C79	C	0.758204	-0.330317	-0.608109
C80	C	1.258204	0.169683	-0.108109
C81	C	0.444029	-0.330355	-0.608229
C82	C	0.944029	0.169645	-0.108229
C83	C	1.294445	-0.330349	-0.608226
C84	C	1.794445	0.169651	-0.108226
C85	C	1.376992	-0.330359	-0.608256
C86	C	1.876992	0.169641	-0.108256
C87	C	1.115659	-0.315383	-0.937292
C88	C	1.615659	0.184617	-0.437292
C89	C	1.122019	-0.309017	-1.077550
C90	C	1.622019	0.190983	-0.577550
C91	C	1.100824	-0.136614	-0.608236
C92	C	1.600824	0.363386	-0.108236
C93	C	1.100861	-0.054067	-0.608270
C94	C	1.600861	0.445933	-0.108270
C95	C	1.085913	-0.345152	-0.280299
C96	C	1.585913	0.154848	0.219701
C97	C	1.079697	-0.351310	-0.140042
C98	C	1.579697	0.148690	0.359958
H99	H	1.185347	-0.883346	-0.452730
H100	H	1.685347	-0.383346	0.047270
Br101	Br	1.190533	-0.240550	-1.167219
Br102	Br	1.690533	0.259450	-0.667219
H103	H	1.057747	-0.793269	-0.395609
H104	H	1.557747	-0.293269	0.104391
Br105	Br	0.934135	-0.894154	-0.533372
Br106	Br	1.434135	-0.394154	-0.033372
Br107	Br	0.990201	-0.760197	-0.811069
Br108	Br	1.490201	-0.260197	-0.311069
Br109	Br	1.011199	-0.419786	-1.050377
Br110	Br	1.511199	0.080214	-0.550377
H111	H	0.640401	-0.245718	-0.452788
H112	H	1.140401	0.254282	0.047212
H113	H	1.143844	-0.866640	-0.820690
H114	H	1.643844	-0.366640	-0.320690
H115	H	0.545013	-0.373285	-0.395574
H116	H	1.045013	0.126715	0.104426
Br117	Br	1.267349	-0.765581	-0.682708
Br118	Br	1.767349	-0.265581	-0.182708
H119	H	0.644769	-0.457987	-0.550676
H120	H	1.144769	0.042013	-0.050676
Br121	Br	0.549780	-0.440987	-0.810933
Br122	Br	1.049780	0.059013	-0.310933
Br123	Br	0.674666	-0.274225	-0.885587
Br124	Br	1.174666	0.225775	-0.385587
Br125	Br	0.543682	-0.163775	-0.682931
Br126	Br	1.043682	0.336225	-0.182931
