data_functionalizedCrystal
_audit_creation_method	'MofGen! by Chris Wilmer'
_symmetry_space_group_name_H-M	'P1'
_symmetry_Int_Tables_number	1
_symmetry_cell_setting	triclinic
loop_
_symmetry_equiv_pos_as_xyz
  x,y,z
_cell_length_a	14.908571
_cell_length_b	13.897448
_cell_length_c	14.908308
_cell_angle_alpha	93.267188
_cell_angle_beta	90.175053
_cell_angle_gamma	86.713891
loop_
_atom_site_label
_atom_site_type_symbol
_atom_site_fract_x
_atom_site_fract_y
_atom_site_fract_z
Zn1	Zn	1.345318	-0.503381	-0.587582
Zn2	Zn	1.353905	-0.655952	-0.437223
Zn3	Zn	1.203632	-0.484854	-0.428580
Zn4	Zn	1.194933	-0.654806	-0.578874
O5	O	1.274447	-0.574748	-0.508065
O6	O	1.472283	-0.531853	-0.574898
O7	O	1.341206	-0.625981	-0.310251
O8	O	1.222474	-0.352335	-0.449699
O9	O	1.478592	-0.643947	-0.464429
O10	O	1.326570	-0.365946	-0.566518
O11	O	1.230801	-0.500276	-0.303902
O12	O	1.076652	-0.499165	-0.441256
O13	O	1.207647	-0.641993	-0.705854
O14	O	1.070260	-0.624028	-0.551676
O15	O	1.318134	-0.530742	-0.712252
O16	O	1.332770	-0.790777	-0.455986
O17	O	1.215974	-0.789935	-0.560056
C18	C	1.040831	-0.559463	-0.494584
C19	C	0.940888	-0.552948	-0.488838
C20	C	1.274383	-0.825357	-0.508035
C21	C	1.274436	-0.932575	-0.508057
C22	C	0.746485	-0.670908	-0.592867
C23	C	0.652579	-0.664790	-0.587471
C24	C	0.659168	-0.534590	-0.472656
C25	C	0.753074	-0.540708	-0.478051
C26	C	0.796729	-0.608870	-0.538158
C27	C	0.890637	-0.614992	-0.543549
C28	C	0.897224	-0.484788	-0.428738
C29	C	0.803318	-0.478670	-0.423343
C30	C	1.274527	-1.128880	-0.508119
C31	C	1.274474	-1.019642	-0.508087
C32	C	1.508975	-0.590094	-0.521599
C33	C	1.608918	-0.596634	-0.527367
C34	C	1.260963	-0.588307	-0.742590
C35	C	1.255216	-0.594084	-0.842531
C36	C	1.274535	-0.323164	-0.508116
C37	C	1.274572	-0.215954	-0.508138
C38	C	1.359466	-0.489073	-1.036993
C39	C	1.354070	-0.494498	-1.130897
C40	C	1.239023	-0.610355	-1.124242
C41	C	1.244420	-0.604930	-1.030339
C42	C	1.304644	-0.544287	-0.986718
C43	C	1.310044	-0.538868	-0.892813
C44	C	1.194994	-0.654719	-0.886160
C45	C	1.189597	-0.660144	-0.980064
C46	C	1.287931	-0.561177	-0.274455
C47	C	1.293851	-0.555139	-0.174525
H48	H	0.926180	-0.670495	-0.592489
H49	H	0.782030	-0.726414	-0.641803
H50	H	1.150356	-0.699682	-0.845216
C51	C	1.375451	-0.472934	-0.845614
C52	C	1.422287	-0.425720	-0.909746
C53	C	1.482537	-0.364961	-0.866303
H54	H	1.416805	-0.510170	-0.811237
H55	H	1.343189	-0.426494	-0.807026
H56	H	1.454547	-0.472154	-0.948318
H57	H	1.380956	-0.388466	-0.944127
H58	H	1.450275	-0.318521	-0.827715
H59	H	1.523886	-0.402204	-0.831927
H60	H	1.514317	-0.332912	-0.909809
H61	H	1.408508	-0.439701	-1.001477
C62	C	1.124275	-0.726136	-1.027317
C63	C	1.145130	-0.821528	-1.005573
C64	C	1.084968	-0.882348	-1.049075
H65	H	1.128854	-0.721588	-1.090454
H66	H	1.064734	-0.707242	-1.008425
H67	H	1.204656	-0.840417	-1.024471
H68	H	1.140545	-0.826107	-0.942444
H69	H	1.025428	-0.863453	-1.030182
H70	H	1.089552	-0.877791	-1.112209
H71	H	1.099105	-0.947076	-1.034321
H72	H	0.767761	-0.423172	-0.374408
C73	C	0.598188	-0.732263	-0.646914
C74	C	0.656524	-0.793277	-0.700690
C75	C	0.606452	-0.855455	-0.755456
H76	H	0.559307	-0.695420	-0.684123
H77	H	0.563540	-0.769913	-0.610370
H78	H	0.691157	-0.755631	-0.737230
H79	H	0.695406	-0.830142	-0.663505
H80	H	0.571804	-0.893104	-0.718912
H81	H	0.567572	-0.818603	-0.792659
H82	H	0.646025	-0.896865	-0.791943
H83	H	1.189991	-0.659727	-1.159775
C84	C	0.611595	-0.460650	-0.407464
C85	C	0.518603	-0.468571	-0.414456
C86	C	0.474749	-0.400466	-0.354422
H87	H	0.626146	-0.397597	-0.421579
H88	H	0.630368	-0.472144	-0.347874
H89	H	0.499837	-0.457070	-0.474032
H90	H	0.504025	-0.531609	-0.400332
H91	H	0.493522	-0.411961	-0.294832
H92	H	0.489307	-0.337418	-0.368542
H93	H	0.411650	-0.405838	-0.359152
C94	C	0.951932	-0.417481	-0.369441
C95	C	1.043515	-0.437412	-0.387041
C96	C	1.093938	-0.375426	-0.332440
H97	H	0.940107	-0.426949	-0.308091
H98	H	0.935846	-0.352438	-0.381828
H99	H	1.059595	-0.502439	-0.374647
H100	H	1.055368	-0.427937	-0.448380
H101	H	1.077853	-0.310383	-0.344827
H102	H	1.082106	-0.384899	-0.271093
H103	H	1.156082	-0.388934	-0.344380
C104	C	1.413701	-0.434513	-1.185326
C105	C	1.467610	-0.380265	-1.127023
C106	C	1.522563	-0.325002	-1.177131
H107	H	1.377313	-0.392276	-1.219991
H108	H	1.450813	-0.476069	-1.224194
H109	H	1.430502	-0.338713	-1.088170
H110	H	1.504016	-0.422478	-1.092357
H111	H	1.559675	-0.366558	-1.215999
H112	H	1.486168	-0.282770	-1.211794
H113	H	1.559153	-0.288195	-1.137580
