data_functionalizedCrystal
_audit_creation_method	'MofGen! by Chris Wilmer'
_symmetry_space_group_name_H-M	'P1'
_symmetry_Int_Tables_number	1
_symmetry_cell_setting	triclinic
loop_
_symmetry_equiv_pos_as_xyz
  x,y,z
_cell_length_a	13.897448
_cell_length_b	12.645331
_cell_length_c	13.897441
_cell_angle_alpha	89.986527
_cell_angle_beta	90.030599
_cell_angle_gamma	89.984154
loop_
_atom_site_label
_atom_site_type_symbol
_atom_site_fract_x
_atom_site_fract_y
_atom_site_fract_z
Zn1	Zn	-0.384032	-1.620725	0.545194
Zn2	Zn	-0.050698	-1.287392	0.878528
Zn3	Zn	0.282635	-0.954058	1.211861
Zn4	Zn	-0.545353	-1.620608	0.383896
Zn5	Zn	-0.212020	-1.287275	0.717229
Zn6	Zn	0.121313	-0.953942	1.050562
Zn7	Zn	-0.384069	-1.443441	0.383933
Zn8	Zn	-0.050736	-1.110108	0.717266
Zn9	Zn	0.282598	-0.776775	1.050600
Zn10	Zn	-0.545281	-1.443421	0.545169
Zn11	Zn	-0.211948	-1.110088	0.878502
Zn12	Zn	0.121385	-0.776755	1.211835
O13	O	-0.464684	-1.532049	0.464548
O14	O	-0.131350	-1.198716	0.797881
O15	O	0.201983	-0.865382	1.131215
O16	O	-0.405446	-1.769057	0.523793
O17	O	-0.072113	-1.435723	0.857126
O18	O	0.261221	-1.102390	1.190459
O19	O	-0.524004	-1.597066	0.248919
O20	O	-0.190671	-1.263733	0.582252
O21	O	0.142662	-0.930400	0.915586
O22	O	-0.249082	-1.467016	0.405351
O23	O	0.084251	-1.133682	0.738684
O24	O	0.417584	-0.800349	1.072018
O25	O	-0.523968	-1.768971	0.405287
O26	O	-0.190635	-1.435638	0.738621
O27	O	0.142698	-1.102304	1.071954
O28	O	-0.249055	-1.597265	0.523829
O29	O	0.084278	-1.263932	0.857162
O30	O	0.417612	-0.930598	1.190496
O31	O	-0.405509	-1.466903	0.248946
O32	O	-0.072176	-1.133569	0.582280
O33	O	0.261157	-0.800236	0.915613
O34	O	-0.405439	-1.295091	0.405326
O35	O	-0.072106	-0.961758	0.738660
O36	O	0.261227	-0.628425	1.071993
O37	O	-0.523845	-1.466981	0.680154
O38	O	-0.190512	-1.133648	1.013487
O39	O	0.142821	-0.800315	1.346820
O40	O	-0.523881	-1.295077	0.523785
O41	O	-0.190548	-0.961743	0.857119
O42	O	0.142785	-0.628410	1.190452
O43	O	-0.405376	-1.597246	0.680173
O44	O	-0.072043	-1.263912	1.013506
O45	O	0.261291	-0.930579	1.346839
O46	O	-0.680326	-1.597047	0.405263
O47	O	-0.346992	-1.263714	0.738596
O48	O	-0.013659	-0.930380	1.071929
O49	O	-0.680272	-1.466868	0.523749
O50	O	-0.346939	-1.133535	0.857082
O51	O	-0.013606	-0.800202	1.190416
C52	C	-0.464657	-1.256619	0.464558
C53	C	-0.131324	-0.923286	0.797891
C54	C	0.202009	-0.589953	1.131224
C55	C	-0.464669	-1.138789	0.464585
C56	C	-0.131336	-0.805456	0.797918
C57	C	0.201998	-0.472123	1.131251
C58	C	-0.539587	-0.971251	0.538723
C59	C	-0.206253	-0.637918	0.872057
C60	C	0.127080	-0.304585	1.205390
C61	C	-0.539347	-1.093811	0.539030
C62	C	-0.206014	-0.760478	0.872363
C63	C	0.127320	-0.427145	1.205697
C64	C	-0.363072	-1.094311	0.492363
C65	C	-0.029739	-0.760978	0.825697
C66	C	0.303595	-0.427644	1.159030
C67	C	-0.363527	-0.971713	0.492889
C68	C	-0.030194	-0.638379	0.826222
C69	C	0.303140	-0.305046	1.159555
C70	C	-0.490524	-0.971545	0.362443
C71	C	-0.157191	-0.638211	0.695776
C72	C	0.176143	-0.304878	1.029109
C73	C	-0.492748	-1.094151	0.362990
C74	C	-0.159414	-0.760817	0.696324
C75	C	0.173919	-0.427484	1.029657
C76	C	-0.715298	-1.531972	0.464520
C77	C	-0.381965	-1.198638	0.797853
C78	C	-0.048632	-0.865305	1.131187
C79	C	-0.822512	-1.532036	0.464540
C80	C	-0.489179	-1.198702	0.797874
C81	C	-0.155845	-0.865369	1.131207
C82	C	-1.018807	-1.532147	0.464601
C83	C	-0.685474	-1.198813	0.797934
C84	C	-0.352140	-0.865480	1.131267
C85	C	-0.909575	-1.532082	0.464570
C86	C	-0.576241	-1.198749	0.797903
C87	C	-0.242908	-0.865415	1.131237
C88	C	-0.213091	-1.532156	0.464597
C89	C	0.120242	-1.198822	0.797930
C90	C	0.453576	-0.865489	1.131264
C91	C	-0.105877	-1.532201	0.464618
C92	C	0.227456	-1.198868	0.797951
C93	C	0.560790	-0.865534	1.131285
C94	C	-0.464599	-1.532124	0.716141
C95	C	-0.131265	-1.198791	1.049474
C96	C	0.202068	-0.865458	1.382808
C97	C	-0.464562	-1.532156	0.823355
C98	C	-0.131229	-1.198823	1.156688
C99	C	0.202104	-0.865490	1.490022
C100	C	-0.464707	-0.808554	0.464545
C101	C	-0.131374	-0.475221	0.797879
C102	C	0.201960	-0.141888	1.131212
C103	C	-0.464706	-0.926384	0.464561
C104	C	-0.131372	-0.593051	0.797895
C105	C	0.201961	-0.259718	1.131228
C106	C	-0.464699	-1.532035	0.213934
C107	C	-0.131366	-1.198702	0.547267
C108	C	0.201968	-0.865368	0.880600
C109	C	-0.464464	-1.532208	0.106720
C110	C	-0.131130	-1.198875	0.440053
C111	C	0.202203	-0.865542	0.773387
C112	C	-0.464497	-1.532185	1.019650
C113	C	-0.131164	-1.198852	1.352984
C114	C	0.202170	-0.865518	1.686317
C115	C	-0.464536	-1.532166	0.910418
C116	C	-0.131203	-1.198832	1.243751
C117	C	0.202131	-0.865499	1.577084
H118	H	-0.563344	-0.940623	0.337197
H119	H	-0.230011	-0.607290	0.670530
H120	H	0.103323	-0.273957	1.003864
C121	C	-0.593735	-1.133450	0.334675
C122	C	-0.260401	-0.800116	0.668009
C123	C	0.072932	-0.466783	1.001342
H124	H	-0.618688	-1.176883	0.384552
H125	H	-0.285355	-0.843549	0.717885
H126	H	0.047978	-0.510216	1.051219
H127	H	-0.635096	-1.074540	0.325184
H128	H	-0.301763	-0.741207	0.658517
H129	H	0.031571	-0.407874	0.991851
H130	H	-0.589712	-1.173204	0.276822
H131	H	-0.256378	-0.839871	0.610155
H132	H	0.076955	-0.506537	0.943488
C133	C	-0.424413	-1.135499	0.284334
C134	C	-0.091080	-0.802165	0.617667
C135	C	0.242254	-0.468832	0.951000
H136	H	-0.377651	-1.180722	0.312551
H137	H	-0.044317	-0.847389	0.645884
H138	H	0.289016	-0.514055	0.979218
H139	H	-0.460289	-1.173775	0.237725
H140	H	-0.126956	-0.840441	0.571058
H141	H	0.206378	-0.507108	0.904391
H142	H	-0.393120	-1.077500	0.254212
H143	H	-0.059786	-0.744166	0.587545
H144	H	0.273547	-0.410833	0.920878
H145	H	-0.435981	-0.942528	0.307185
H146	H	-0.102647	-0.609195	0.640518
H147	H	0.230686	-0.275862	0.973852
H148	H	-0.614687	-1.123884	0.521620
H149	H	-0.281353	-0.790551	0.854953
H150	H	0.051980	-0.457217	1.188287
H151	H	-0.341629	-0.943137	0.567542
H152	H	-0.008296	-0.609804	0.900875
H153	H	0.325038	-0.276470	1.234209
C154	C	-0.285593	-0.931611	0.423118
C155	C	0.047740	-0.598277	0.756451
C156	C	0.381074	-0.264944	1.089785
H157	H	-0.253790	-0.990249	0.394584
H158	H	0.079543	-0.656916	0.727918
H159	H	0.412877	-0.323582	1.061251
H160	H	-0.314693	-0.889853	0.374285
H161	H	0.018641	-0.556519	0.707618
H162	H	0.351974	-0.223186	1.040952
H163	H	-0.240199	-0.890005	0.457457
H164	H	0.093134	-0.556671	0.790790
H165	H	0.426468	-0.223338	1.124123
C166	C	-0.285649	-1.133671	0.421681
C167	C	0.047684	-0.800337	0.755014
C168	C	0.381017	-0.467004	1.088347
H169	H	-0.314667	-1.177689	0.374491
H170	H	0.018666	-0.844356	0.707824
H171	H	0.352000	-0.511022	1.041158
H172	H	-0.256200	-1.074804	0.391106
H173	H	0.077133	-0.741471	0.724439
H174	H	0.410466	-0.408137	1.057772
H175	H	-0.238323	-1.172824	0.455842
H176	H	0.095011	-0.839491	0.789176
H177	H	0.428344	-0.506157	1.122509
C178	C	-0.641701	-0.931405	0.515478
C179	C	-0.308368	-0.598071	0.848811
C180	C	0.024966	-0.264738	1.182145
H181	H	-0.639586	-0.887042	0.460340
H182	H	-0.306252	-0.553709	0.793674
H183	H	0.027081	-0.220375	1.127007
H184	H	-0.682558	-0.990055	0.503075
H185	H	-0.349225	-0.656722	0.836408
H186	H	-0.015892	-0.323389	1.169742
H187	H	-0.665952	-0.892507	0.568678
H188	H	-0.332618	-0.559174	0.902011
H189	H	0.000715	-0.225840	1.235345
H190	H	-0.522261	-1.123159	0.614694
H191	H	-0.188928	-0.789826	0.948028
H192	H	0.144406	-0.456493	1.281361
C193	C	-0.516800	-0.929672	0.640350
C194	C	-0.183466	-0.596339	0.973684
C195	C	0.149867	-0.263006	1.307017
H196	H	-0.461847	-0.885091	0.637781
H197	H	-0.128514	-0.551758	0.971114
H198	H	0.204819	-0.218425	1.304448
H199	H	-0.570235	-0.890664	0.663937
H200	H	-0.236901	-0.557331	0.997270
H201	H	0.096432	-0.223998	1.330603
H202	H	-0.504237	-0.987618	0.682028
H203	H	-0.170904	-0.654284	1.015362
H204	H	0.162429	-0.320951	1.348695
H205	H	-0.340776	-1.125035	0.566206
H206	H	-0.007443	-0.791702	0.899539
H207	H	0.325891	-0.458368	1.232873
