data_functionalizedCrystal
_audit_creation_method	'MofGen! by Chris Wilmer'
_symmetry_space_group_name_H-M	'P1'
_symmetry_Int_Tables_number	1
_symmetry_cell_setting	triclinic
loop_
_symmetry_equiv_pos_as_xyz
  x,y,z
_cell_length_a	16.625545
_cell_length_b	21.395364
_cell_length_c	21.395356
_cell_angle_alpha	90.024640
_cell_angle_beta	89.974643
_cell_angle_gamma	89.976941
loop_
_atom_site_label
_atom_site_type_symbol
_atom_site_fract_x
_atom_site_fract_y
_atom_site_fract_z
Zn1	Zn	-0.321076	-0.957876	-0.354289
Zn2	Zn	-0.455912	-0.957789	-0.249516
Zn3	Zn	-0.321092	-0.853092	-0.249524
Zn4	Zn	-0.455864	-0.853069	-0.354254
O5	O	-0.388486	-0.905457	-0.301896
O6	O	-0.338976	-1.045542	-0.340402
O7	O	-0.438055	-0.943874	-0.161839
O8	O	-0.208257	-0.867038	-0.263439
O9	O	-0.438040	-1.045479	-0.263426
O10	O	-0.208246	-0.944022	-0.340410
O11	O	-0.339003	-0.866954	-0.161845
O12	O	-0.338956	-0.765411	-0.263405
O13	O	-0.437957	-0.866998	-0.441937
O14	O	-0.437973	-0.765394	-0.340350
O15	O	-0.338929	-0.943999	-0.441962
O16	O	-0.568738	-0.943852	-0.263392
O17	O	-0.568703	-0.866915	-0.340342
C18	C	-0.388461	-0.742669	-0.301875
C19	C	-0.388470	-0.673028	-0.301881
C20	C	-0.440125	-0.171239	-0.341911
C21	C	-0.440126	-0.236674	-0.341905
C22	C	-0.388492	-0.269389	-0.301906
C23	C	-0.336867	-0.236663	-0.261898
C24	C	-0.336873	-0.171229	-0.261900
C25	C	-0.315830	-0.373073	-0.297054
C26	C	-0.315823	-0.438506	-0.297056
C27	C	-0.388474	-0.471210	-0.301895
C28	C	-0.461135	-0.438473	-0.306745
C29	C	-0.461141	-0.373039	-0.306748
C30	C	-0.388480	-0.340342	-0.301899
C31	C	-0.440102	-0.574881	-0.341892
C32	C	-0.440104	-0.640317	-0.341882
C33	C	-0.336838	-0.640305	-0.261877
C34	C	-0.336842	-0.574870	-0.261884
C35	C	-0.388473	-0.542161	-0.301895
C36	C	-0.597977	-0.905388	-0.301876
C37	C	-0.687598	-0.905417	-0.301889
C38	C	-0.760380	-0.905441	-0.301901
C39	C	-0.851689	-0.905477	-0.301915
C40	C	-0.924465	-0.905510	-0.301923
C41	C	-1.015780	-0.905546	-0.301936
C42	C	-0.178177	-0.905542	-0.301929
C43	C	-0.088556	-0.905578	-0.301944
C44	C	-0.388436	-0.905506	-0.465319
C45	C	-0.388415	-0.905527	-0.534960
C46	C	-0.388507	-0.068880	-0.301913
C47	C	-0.388503	-0.138521	-0.301910
C48	C	-0.336832	-0.865485	-0.567667
C49	C	-0.336818	-0.865483	-0.633102
C50	C	-0.388376	-0.905534	-0.665829
C51	C	-0.439969	-0.945578	-0.633115
C52	C	-0.439988	-0.945575	-0.567680
C53	C	-0.394719	-0.961986	-0.769516
C54	C	-0.394694	-0.961991	-0.834949
C55	C	-0.388322	-0.905544	-0.867650
C56	C	-0.381958	-0.849091	-0.834909
C57	C	-0.381977	-0.849088	-0.769475
C58	C	-0.388362	-0.905542	-0.736781
C59	C	-0.336721	-0.865497	-0.971309
C60	C	-0.336711	-0.865493	-1.036745
C61	C	-0.439858	-0.945594	-1.036756
C62	C	-0.439872	-0.945592	-0.971321
C63	C	-0.388299	-0.905544	-0.938601
C64	C	-0.388478	-0.905444	-0.139108
C65	C	-0.388272	-0.905544	-0.069467
H66	H	-0.482144	-0.548248	-0.374470
N67	N	-0.495808	-0.271972	-0.385050
H68	H	-0.483354	-0.260611	-0.429834
H69	H	-0.487941	-0.318376	-0.378923
N70	N	-0.401598	-1.022867	-0.734243
H71	H	-0.453781	-1.044166	-0.745629
H72	H	-0.354938	-1.050882	-0.745657
H73	H	-0.376797	-0.803122	-0.742820
N74	N	-0.281182	-0.822293	-0.668389
H75	H	-0.248515	-0.796922	-0.637732
H76	H	-0.243868	-0.847819	-0.695553
N77	N	-0.281134	-0.675583	-0.218744
H78	H	-0.248426	-0.644924	-0.193407
H79	H	-0.313897	-0.702713	-0.189701
N80	N	-0.495586	-0.988771	-0.668408
H81	H	-0.487747	-0.982698	-0.714824
H82	H	-0.483053	-1.033525	-0.656990
H83	H	-0.376764	-0.803127	-0.861532
N84	N	-0.281162	-0.539576	-0.218742
H85	H	-0.248451	-0.570228	-0.193401
H86	H	-0.243892	-0.512448	-0.244297
N87	N	-0.495495	-0.988786	-0.936035
H88	H	-0.532863	-0.963306	-0.908870
H89	H	-0.528104	-1.014153	-0.966730
N90	N	-0.281188	-0.135938	-0.218756
H91	H	-0.289027	-0.089522	-0.224828
H92	H	-0.293670	-0.147351	-0.173992
N93	N	-0.281103	-0.822303	-0.936012
H94	H	-0.248427	-0.796931	-0.966663
H95	H	-0.313927	-0.793294	-0.908844
H96	H	-0.399872	-1.007958	-0.861602
N97	N	-0.281080	-0.822299	-1.072025
H98	H	-0.248413	-0.796930	-1.041365
H99	H	-0.243766	-0.847820	-1.099193
H100	H	-0.481992	-0.978184	-0.541051
H101	H	-0.482170	-0.144612	-0.374489
H102	H	-0.256665	-0.346451	-0.293103
N103	N	-0.539504	-0.337728	-0.311973
H104	H	-0.585531	-0.368370	-0.315037
H105	H	-0.546924	-0.310562	-0.273786
N106	N	-0.281171	-0.271940	-0.218753
H107	H	-0.313887	-0.299068	-0.189674
H108	H	-0.243852	-0.299071	-0.244308
H109	H	-0.520295	-0.465099	-0.310691
N110	N	-0.495792	-0.675610	-0.385022
H111	H	-0.528497	-0.644957	-0.410367
H112	H	-0.463016	-0.702784	-0.414057
N113	N	-0.237459	-0.473814	-0.291822
H114	H	-0.229950	-0.500980	-0.330001
H115	H	-0.191484	-0.443129	-0.288728
N116	N	-0.281201	-0.822300	-0.532376
H117	H	-0.248518	-0.796935	-0.563029
H118	H	-0.314013	-0.793284	-0.505206
N119	N	-0.495477	-0.988788	-1.072044
H120	H	-0.487640	-0.982714	-1.118460
H121	H	-0.482939	-1.033541	-1.060628
