data_functionalizedCrystal
_audit_creation_method	'MofGen! by Chris Wilmer'
_symmetry_space_group_name_H-M	'P1'
_symmetry_Int_Tables_number	1
_symmetry_cell_setting	triclinic
loop_
_symmetry_equiv_pos_as_xyz
  x,y,z
_cell_length_a	6.817900
_cell_length_b	11.102288
_cell_length_c	16.255661
_cell_angle_alpha	93.854370
_cell_angle_beta	103.488922
_cell_angle_gamma	108.605689
loop_
_atom_site_label
_atom_site_type_symbol
_atom_site_fract_x
_atom_site_fract_y
_atom_site_fract_z
V1	V	-4.052939	-0.176866	-0.263871
O2	O	-4.013087	0.007443	-0.258848
O3	O	-4.030117	-0.349679	-0.262067
O4	O	-4.004166	-0.174609	-0.378954
O5	O	-4.039217	-0.168840	-0.141151
V6	V	-4.533301	-0.154766	-0.249193
O7	O	-4.321131	-0.225344	-0.296069
O8	O	-4.715306	-0.106287	-0.216995
O9	O	-4.332916	0.018048	-0.250997
O10	O	-4.690550	-0.339074	-0.254216
O11	O	-4.664420	-0.162792	-0.371913
O12	O	-4.358867	-0.157023	-0.134110
C13	C	-3.881352	-0.391793	-0.257904
C14	C	-3.943976	-0.533073	-0.257196
C15	C	-3.848248	-0.168472	-0.407005
C16	C	-3.889824	-0.167770	-0.501086
C17	C	-4.156468	-0.605936	-0.261085
C18	C	-4.215302	-0.738685	-0.260426
C19	C	-3.849130	-0.725694	-0.251984
C20	C	-3.790303	-0.592949	-0.252650
C21	C	-3.799137	-0.159385	-0.723905
C22	C	-3.971599	-0.267595	-0.793381
C23	C	-3.966013	-0.166454	-0.673335
C24	C	-3.867658	-0.057005	-0.771496
C25	C	-4.039592	-0.165177	-0.839718
C26	C	-4.137972	-0.274760	-0.741581
C27	C	-4.033954	-0.064074	-0.719680
C28	C	-4.206557	-0.172315	-0.789137
C29	C	-3.923622	-0.167190	-0.577485
C30	C	-4.082002	-0.164450	-0.935567
C31	C	-4.145024	0.060155	-0.255158
C32	C	-4.061638	0.201433	-0.255872
C33	C	-4.178128	-0.163164	-0.106055
C34	C	-4.115790	-0.163859	-0.011973
H35	H	-4.281602	-0.557189	-0.264786
C36	C	-3.556534	-0.512794	-0.248369
N37	N	-3.380467	-0.452421	-0.245145
H38	H	-3.753780	0.034998	-0.785106
H39	H	-4.059789	0.021975	-0.687572
H40	H	-3.724022	-0.774461	-0.248281
H41	H	-4.388329	-0.798006	-0.263595
C42	C	-3.936586	-0.383829	-0.836737
N43	N	-3.910198	-0.471371	-0.869391
C44	C	-4.291811	-0.399224	-0.723391
N45	N	-4.407672	-0.492971	-0.709688
C46	C	-4.439849	-0.179762	-0.827467
N47	N	-4.615566	-0.185387	-0.856350
C48	C	-3.566045	-0.152194	-0.685420
N49	N	-3.390488	-0.146786	-0.656431
