data_functionalizedCrystal
_audit_creation_method	'MofGen! by Chris Wilmer'
_symmetry_space_group_name_H-M	'P1'
_symmetry_Int_Tables_number	1
_symmetry_cell_setting	triclinic
loop_
_symmetry_equiv_pos_as_xyz
  x,y,z
_cell_length_a	14.971486
_cell_length_b	15.944551
_cell_length_c	13.448316
_cell_angle_alpha	89.992444
_cell_angle_beta	89.998199
_cell_angle_gamma	83.556434
loop_
_atom_site_label
_atom_site_type_symbol
_atom_site_fract_x
_atom_site_fract_y
_atom_site_fract_z
O1	O	1.186829	0.109463	-0.082580
O2	O	0.926415	0.122572	-0.082607
O3	O	1.063733	-0.006250	-0.082584
O4	O	1.049511	0.238286	-0.082603
O5	O	1.063716	-0.006258	0.082800
O6	O	0.926398	0.122564	0.082777
O7	O	1.186812	0.109456	0.082804
Cu8	Cu	1.056603	0.116009	0.097891
Cu9	Cu	1.056624	0.116018	-0.097694
O10	O	1.049494	0.238278	0.082781
C11	C	0.893082	0.121982	0.000081
C12	C	0.793787	0.120225	0.000071
C13	C	1.063134	-0.037549	0.000108
C14	C	1.061364	-0.130797	0.000109
C15	C	0.736480	0.195904	0.000067
C16	C	0.643182	0.194249	0.000082
C17	C	0.607194	0.116913	0.000094
C18	C	0.664508	0.041227	0.000102
C19	C	0.757804	0.042884	0.000094
C20	C	0.470049	0.037780	0.000116
C21	C	0.376747	0.036123	0.000122
C22	C	0.355428	0.189145	0.000104
C23	C	0.448724	0.190801	0.000096
C24	C	0.506032	0.115116	0.000101
C25	C	0.972017	-0.345738	0.000086
C26	C	1.013498	-0.406720	0.081634
C27	C	1.058162	-0.301526	0.000101
C28	C	1.013536	-0.406696	-0.081421
C29	C	1.055062	-0.466441	0.000089
C30	C	1.099667	-0.361279	0.081717
C31	C	1.099692	-0.361248	-0.081412
C32	C	1.141236	-0.422212	0.000156
C33	C	1.059945	-0.206522	0.000109
C34	C	1.053286	-0.561444	0.000088
C35	C	1.220145	0.110046	0.000113
C36	C	1.319440	0.111802	0.000117
C37	C	1.050093	0.269576	0.000087
C38	C	1.051863	0.362824	0.000080
N39	N	1.056595	0.116002	0.235456
N40	N	1.056639	0.116019	-0.235258
C41	C	1.117419	0.058983	0.287506
C42	C	1.117425	0.058982	0.391610
C43	C	1.056610	0.116005	0.443660
C44	C	0.995780	0.173027	0.391602
C45	C	0.995771	0.173023	0.287501
C46	C	0.995805	0.173033	0.608582
C47	C	0.995815	0.173038	0.712691
C48	C	1.117459	0.058992	0.712691
C49	C	1.117449	0.058988	0.608590
C50	C	1.056620	0.116011	0.556539
H51	H	0.596526	0.255875	0.000077
H52	H	1.166973	0.012560	0.566210
H53	H	0.347448	-0.026851	0.000133
H54	H	0.804463	-0.018742	0.000097
H55	H	0.900512	-0.312499	0.000160
N56	N	0.293590	0.270759	0.000168
H57	H	0.305181	0.304467	0.061489
H58	H	0.305141	0.304473	-0.061168
H59	H	0.977096	-0.426804	-0.150369
N60	N	0.531863	-0.043851	0.000128
H61	H	0.494909	-0.093095	0.000134
H62	H	0.571034	-0.046492	-0.061184
N63	N	0.930196	0.234539	0.552447
H64	H	0.964372	0.271780	0.509241
H65	H	0.890605	0.202318	0.509326
H66	H	0.478022	0.253775	0.000076
H67	H	0.635199	-0.021741	0.000126
N68	N	1.236027	-0.466061	0.000221
H69	H	1.268837	-0.448795	-0.060769
H70	H	1.268360	-0.449546	0.061883
N71	N	0.930191	0.234529	0.447747
H72	H	0.940489	0.294161	0.429613
H73	H	0.866738	0.224683	0.429625
H74	H	0.946241	0.219452	0.245122
H75	H	1.136104	-0.341080	-0.150351
H76	H	0.977055	-0.426866	0.150570
N77	N	0.775290	0.279320	0.000061
H78	H	0.843089	0.268888	0.000055
H79	H	0.754322	0.312444	-0.061249
H80	H	1.136065	-0.341257	0.150735
N81	N	0.930211	0.234529	0.768831
H82	H	0.939451	0.225878	0.842677
H83	H	0.940527	0.294137	0.750624
N84	N	1.183017	-0.002516	0.231369
H85	H	1.221548	-0.038638	0.280144
H86	H	1.148774	-0.039706	0.188189
H87	H	1.166951	0.012552	0.433989
N88	N	1.183071	-0.002511	0.768824
H89	H	1.173848	0.006139	0.842670
H90	H	1.172743	-0.062118	0.750639
