data_functionalizedCrystal
_audit_creation_method	'MofGen! by Chris Wilmer'
_symmetry_space_group_name_H-M	'P1'
_symmetry_Int_Tables_number	1
_symmetry_cell_setting	triclinic
loop_
_symmetry_equiv_pos_as_xyz
  x,y,z
_cell_length_a	29.839134
_cell_length_b	17.077402
_cell_length_c	17.077396
_cell_angle_alpha	89.969358
_cell_angle_beta	89.973116
_cell_angle_gamma	90.020089
loop_
_atom_site_label
_atom_site_type_symbol
_atom_site_fract_x
_atom_site_fract_y
_atom_site_fract_z
Zn1	Zn	0.686792	-0.312603	-0.444045
Zn2	Zn	1.020125	0.020730	-0.110712
Zn3	Zn	1.353459	0.354063	0.222621
Zn4	Zn	0.686739	-0.443882	-0.312778
Zn5	Zn	1.020072	-0.110548	0.020555
Zn6	Zn	1.353406	0.222785	0.353889
Zn7	Zn	0.611668	-0.312622	-0.312771
Zn8	Zn	0.945002	0.020711	0.020563
Zn9	Zn	1.278335	0.354044	0.353896
Zn10	Zn	0.611644	-0.443819	-0.443979
Zn11	Zn	0.944977	-0.110486	-0.110646
Zn12	Zn	1.278310	0.222847	0.222687
O13	O	0.649211	-0.378232	-0.378393
O14	O	0.982544	-0.044898	-0.045060
O15	O	1.315877	0.288435	0.288273
O16	O	0.749652	-0.330036	-0.426663
O17	O	1.082985	0.003297	-0.093330
O18	O	1.416319	0.336631	0.240003
O19	O	0.676769	-0.426504	-0.202930
O20	O	1.010102	-0.093171	0.130403
O21	O	1.343435	0.240163	0.463737
O22	O	0.621666	-0.202773	-0.330209
O23	O	0.954999	0.130561	0.003124
O24	O	1.288333	0.463894	0.336457
O25	O	0.749613	-0.426486	-0.330222
O26	O	1.082946	-0.093152	0.003112
O27	O	1.416280	0.240181	0.336445
O28	O	0.676859	-0.202759	-0.426656
O29	O	1.010192	0.130575	-0.093323
O30	O	1.343526	0.463908	0.240010
O31	O	0.621615	-0.330068	-0.202925
O32	O	0.954948	0.003265	0.130409
O33	O	1.288281	0.336599	0.463742
O34	O	0.548798	-0.330008	-0.330145
O35	O	0.882131	0.003326	0.003188
O36	O	1.215465	0.336659	0.336522
O37	O	0.621624	-0.426379	-0.553835
O38	O	0.954958	-0.093046	-0.220502
O39	O	1.288291	0.240288	0.112832
O40	O	0.548780	-0.426397	-0.426543
O41	O	0.882113	-0.093064	-0.093210
O42	O	1.215447	0.240269	0.240123
O43	O	0.676835	-0.329975	-0.553884
O44	O	1.010169	0.003358	-0.220550
O45	O	1.343502	0.336691	0.112783
O46	O	0.676745	-0.553720	-0.330158
O47	O	1.010078	-0.220387	0.003176
O48	O	1.343412	0.112946	0.336509
O49	O	0.621573	-0.553674	-0.426550
O50	O	0.954906	-0.220341	-0.093217
O51	O	1.288239	0.112992	0.240116
C52	C	0.649163	-0.582180	-0.378365
C53	C	0.982496	-0.248846	-0.045031
C54	C	1.315829	0.084487	0.288302
C55	C	0.649183	-0.669429	-0.378379
C56	C	0.982516	-0.336096	-0.045045
C57	C	1.315850	-0.002763	0.288288
C58	C	0.532488	-0.378198	-0.378337
C59	C	0.865821	-0.044865	-0.045003
C60	C	1.199155	0.288468	0.288330
C61	C	0.482554	-0.378203	-0.378331
C62	C	0.815887	-0.044870	-0.044998
C63	C	1.149220	0.288464	0.288336
C64	C	0.677999	-1.045173	-0.428705
C65	C	1.011332	-0.711839	-0.095372
C66	C	1.344666	-0.378506	0.237962
C67	C	0.677979	-0.963192	-0.428686
C68	C	1.011312	-0.629859	-0.095353
C69	C	1.344645	-0.296526	0.237980
C70	C	0.649254	-0.922278	-0.378425
C71	C	0.982587	-0.588945	-0.045092
C72	C	1.315921	-0.255611	0.288241
C73	C	0.620551	-0.963349	-0.328174
C74	C	0.953884	-0.630015	0.005160
C75	C	1.287218	-0.296682	0.338493
C76	C	0.620574	-1.045328	-0.328189
C77	C	0.953907	-0.711994	0.005144
C78	C	1.287240	-0.378661	0.338478
C79	C	0.620505	-0.792479	-0.328147
C80	C	0.953838	-0.459145	0.005186
C81	C	1.287171	-0.125812	0.338520
C82	C	0.620481	-0.710494	-0.328133
C83	C	0.953815	-0.377161	0.005201
C84	C	1.287148	-0.043827	0.338534
C85	C	0.677910	-0.710343	-0.428644
C86	C	1.011243	-0.377010	-0.095311
C87	C	1.344576	-0.043677	0.238022
C88	C	0.677933	-0.792322	-0.428660
C89	C	1.011266	-0.458989	-0.095326
C90	C	1.344599	-0.125656	0.238007
C91	C	0.649229	-0.833387	-0.378409
C92	C	0.982562	-0.500054	-0.045076
C93	C	1.315895	-0.166720	0.288258
C94	C	0.172910	-0.428496	-0.428526
C95	C	0.506244	-0.095163	-0.095193
C96	C	0.839577	0.238171	0.238140
C97	C	-0.014763	-0.428518	-0.428561
C98	C	0.318571	-0.095185	-0.095228
C99	C	0.651904	0.238148	0.238105
O100	O	-0.039027	-0.471242	-0.471206
O101	O	0.294306	-0.137909	-0.137872
O102	O	0.627639	0.195424	0.195461
N103	N	-0.038231	-0.378260	-0.378452
N104	N	0.295102	-0.044927	-0.045119
N105	N	0.628435	0.288406	0.288214
C106	C	-0.014779	-0.327990	-0.328335
C107	C	0.318554	0.005343	0.004998
C108	C	0.651888	0.338677	0.338332
O109	O	-0.039047	-0.285237	-0.285721
O110	O	0.294287	0.048096	0.047612
O111	O	0.627620	0.381429	0.380946
C112	C	0.172893	-0.327964	-0.328305
C113	C	0.506227	0.005369	0.005029
C114	C	0.839560	0.338702	0.338362
C115	C	0.196360	-0.378231	-0.378411
C116	C	0.529693	-0.044898	-0.045078
C117	C	0.863026	0.288436	0.288256
C118	C	0.196377	-0.478758	-0.478629
C119	C	0.529710	-0.145425	-0.145296
C120	C	0.863043	0.187909	0.188037
C121	C	0.243292	-0.478755	-0.478617
C122	C	0.576626	-0.145422	-0.145284
C123	C	0.909959	0.187912	0.188050
C124	C	0.266741	-0.428490	-0.428502
C125	C	0.600075	-0.095157	-0.095169
C126	C	0.933408	0.238177	0.238165
C127	C	0.243275	-0.378228	-0.378399
C128	C	0.576608	-0.044895	-0.045066
C129	C	0.909942	0.288439	0.288268
C130	C	0.196345	-0.277690	-0.278192
C131	C	0.529678	0.055643	0.055142
C132	C	0.863012	0.388976	0.388475
C133	C	0.243266	-0.277687	-0.278190
C134	C	0.576599	0.055646	0.055143
C135	C	0.909933	0.388980	0.388477
C136	C	0.266732	-0.327954	-0.328296
C137	C	0.600065	0.005379	0.005037
C138	C	0.933399	0.338713	0.338370
C139	C	0.313640	-0.327960	-0.328271
C140	C	0.646973	0.005373	0.005062
C141	C	0.980306	0.338707	0.338395
N142	N	0.337108	-0.378218	-0.378380
N143	N	0.670442	-0.044885	-0.045047
N144	N	1.003775	0.288449	0.288287
C145	C	0.313659	-0.428483	-0.428495
C146	C	0.646992	-0.095150	-0.095162
C147	C	0.980326	0.238184	0.238171
C148	C	-0.113310	-0.328008	-0.328353
C149	C	0.220024	0.005325	0.004980
C150	C	0.553357	0.338659	0.338313
C151	C	-0.160227	-0.328015	-0.328360
C152	C	0.173106	0.005318	0.004974
C153	C	0.506439	0.338652	0.338307
C154	C	-0.160208	-0.428543	-0.428587
C155	C	0.173125	-0.095209	-0.095254
C156	C	0.506459	0.238124	0.238079
C157	C	-0.113289	-0.428539	-0.428576
C158	C	0.220044	-0.095205	-0.095243
C159	C	0.553377	0.238128	0.238090
C160	C	-0.089841	-0.378266	-0.378462
C161	C	0.243492	-0.044932	-0.045129
C162	C	0.576826	0.288401	0.288204
C163	C	0.412185	-0.428473	-0.428465
C164	C	0.745518	-0.095140	-0.095132
C165	C	1.078852	0.238193	0.238201
C166	C	0.459105	-0.428468	-0.428446
C167	C	0.792438	-0.095135	-0.095113
C168	C	1.125771	0.238199	0.238220
C169	C	0.459081	-0.327938	-0.328222
C170	C	0.792414	0.005395	0.005111
C171	C	1.125748	0.338729	0.338445
C172	C	0.412165	-0.327946	-0.328238
C173	C	0.745499	0.005388	0.005095
C174	C	1.078832	0.338721	0.338429
C175	C	0.388719	-0.378216	-0.378366
C176	C	0.722052	-0.044883	-0.045033
C177	C	1.055385	0.288451	0.288301
O178	O	0.337933	-0.285252	-0.285656
O179	O	0.671267	0.048081	0.047678
O180	O	1.004600	0.381414	0.381011
O181	O	0.337935	-0.471217	-0.471115
O182	O	0.671268	-0.137883	-0.137782
O183	O	1.004602	0.195450	0.195551
C184	C	0.125995	-0.428499	-0.428539
C185	C	0.459328	-0.095166	-0.095205
C186	C	0.792662	0.238168	0.238128
C187	C	0.102529	-0.378237	-0.378436
C188	C	0.435862	-0.044904	-0.045102
C189	C	0.769195	0.288430	0.288231
C190	C	0.125978	-0.327972	-0.328320
C191	C	0.459311	0.005361	0.005013
C192	C	0.792644	0.338695	0.338346
C193	C	0.055611	-0.378244	-0.378442
C194	C	0.388944	-0.044911	-0.045109
C195	C	0.722277	0.288422	0.288225
C196	C	0.032162	-0.428509	-0.428557
C197	C	0.365495	-0.095176	-0.095224
C198	C	0.698828	0.238157	0.238109
C199	C	0.055630	-0.478767	-0.478666
C200	C	0.388964	-0.145434	-0.145333
C201	C	0.722297	0.187900	0.188000
C202	C	0.102546	-0.478764	-0.478654
C203	C	0.435879	-0.145431	-0.145321
C204	C	0.769212	0.187903	0.188013
C205	C	0.102509	-0.277714	-0.278212
C206	C	0.435842	0.055619	0.055122
C207	C	0.769176	0.388952	0.388455
C208	C	0.055594	-0.277722	-0.278227
C209	C	0.388927	0.055611	0.055106
C210	C	0.722260	0.388945	0.388439
C211	C	0.032144	-0.327987	-0.328343
C212	C	0.365478	0.005346	0.004991
C213	C	0.698811	0.338680	0.338324
C214	C	0.766389	-0.378266	-0.378451
C215	C	1.099722	-0.044932	-0.045117
C216	C	1.433056	0.288401	0.288216
C217	C	0.816323	-0.378280	-0.378475
C218	C	1.149657	-0.044947	-0.045142
C219	C	1.482990	0.288387	0.288192
C220	C	0.649233	-0.378168	-0.583138
C221	C	0.982566	-0.044835	-0.249804
C222	C	1.315900	0.288499	0.083529
C223	C	0.649242	-0.378141	-0.670388
C224	C	0.982576	-0.044808	-0.337054
C225	C	1.315909	0.288526	-0.003721
C226	C	0.649271	-0.173487	-0.378439
C227	C	0.982605	0.159846	-0.045106
C228	C	1.315938	0.493179	0.288227
C229	C	0.649297	-0.086238	-0.378459
C230	C	0.982630	0.247096	-0.045126
C231	C	1.315964	0.580429	0.288208
C232	C	0.678002	-0.428264	-1.046207
C233	C	1.011335	-0.094930	-0.712874
C234	C	1.344669	0.238403	-0.379541
C235	C	0.677991	-0.428287	-0.964227
C236	C	1.011324	-0.094953	-0.630894
C237	C	1.344657	0.238380	-0.297560
C238	C	0.649271	-0.378086	-0.923237
C239	C	0.982605	-0.044752	-0.589903
C240	C	1.315938	0.288581	-0.256570
C241	C	0.620558	-0.327864	-0.964231
C242	C	0.953892	0.005469	-0.630898
C243	C	1.287225	0.338803	-0.297565
C244	C	0.620568	-0.327846	-1.046210
C245	C	0.953901	0.005488	-0.712877
C246	C	1.287234	0.338821	-0.379544
C247	C	0.620541	-0.327904	-0.793361
C248	C	0.953875	0.005429	-0.460028
C249	C	1.287208	0.338762	-0.126694
C250	C	0.620533	-0.327922	-0.711376
C251	C	0.953866	0.005412	-0.378043
C252	C	1.287199	0.338745	-0.044710
C253	C	0.677964	-0.428345	-0.711378
C254	C	1.011298	-0.095012	-0.378044
C255	C	1.344631	0.238321	-0.044711
C256	C	0.677974	-0.428327	-0.793357
C257	C	1.011307	-0.094994	-0.460023
C258	C	1.344640	0.238340	-0.126690
C259	C	0.649261	-0.378104	-0.834346
C260	C	0.982595	-0.044771	-0.501012
C261	C	1.315928	0.288562	-0.167679
C262	C	0.649214	-0.378238	-0.174446
C263	C	0.982548	-0.044905	0.158888
C264	C	1.315881	0.288428	0.492221
C265	C	0.649292	-0.378044	-0.087196
C266	C	0.982625	-0.044711	0.246137
C267	C	1.315959	0.288622	0.579470
H268	H	0.701350	-0.929758	-0.469600
H269	H	1.034684	-0.596424	-0.136266
H270	H	1.368017	-0.263091	0.197067
O271	O	0.484375	-0.273724	-0.274169
O272	O	0.817709	0.059610	0.059164
O273	O	1.151042	0.392943	0.392498
H274	H	0.505766	-0.233828	-0.309376
H275	H	0.839099	0.099505	0.023957
H276	H	1.172433	0.432838	0.357290
O277	O	0.708883	-0.666063	-0.482827
O278	O	1.042216	-0.332730	-0.149494
O279	O	1.375550	0.000603	0.183840
H280	H	0.701166	-0.681754	-0.544428
H281	H	1.034500	-0.348421	-0.211095
H282	H	1.367833	-0.015087	0.122239
H283	H	0.701386	-1.078479	-0.469641
H284	H	1.034719	-0.745146	-0.136308
H285	H	1.368052	-0.411813	0.197025
H286	H	0.597161	-0.287008	-0.826732
H287	H	0.930494	0.046326	-0.493398
H288	H	1.263827	0.379659	-0.160065
O289	O	0.589505	-0.666360	-0.273918
O290	O	0.922838	-0.333027	0.059416
O291	O	1.256171	0.000307	0.392749
H292	H	0.569554	-0.708686	-0.238968
H293	H	0.902887	-0.375352	0.094365
H294	H	1.236221	-0.042019	0.427698
H295	H	-0.179308	-0.469470	-0.469393
H296	H	0.154025	-0.136137	-0.136060
H297	H	0.487359	0.197196	0.197273
O298	O	0.589572	-0.919219	-0.273960
O299	O	0.922905	-0.585886	0.059374
O300	O	1.256238	-0.252553	0.392707
H301	H	0.569621	-0.961549	-0.239016
H302	H	0.902954	-0.628216	0.094317
H303	H	1.236287	-0.294883	0.427650
H304	H	0.701364	-0.469190	-0.930857
H305	H	1.034697	-0.135856	-0.597524
H306	H	1.368030	0.197477	-0.264191
O307	O	0.030285	-0.223500	-0.224183
O308	O	0.363618	0.109833	0.109151
O309	O	0.696951	0.443166	0.442484
H310	H	0.054478	-0.188544	-0.189342
H311	H	0.387811	0.144789	0.143991
H312	H	0.721144	0.478122	0.477325
H313	H	0.121597	-0.236781	-0.237401
H314	H	0.454930	0.096552	0.095933
H315	H	0.788263	0.429885	0.429266
O316	O	0.589585	-0.273712	-0.920023
O317	O	0.922918	0.059622	-0.586690
O318	O	1.256252	0.392955	-0.253356
H319	H	0.566715	-0.308840	-0.882643
H320	H	0.900048	0.024493	-0.549309
H321	H	1.233382	0.357826	-0.215976
H322	H	0.701362	-0.469201	-0.826729
H323	H	1.034695	-0.135868	-0.493395
H324	H	1.368028	0.197465	-0.160062
H325	H	-0.094222	-0.287069	-0.287541
H326	H	0.239111	0.046265	0.045793
H327	H	0.572444	0.379598	0.379126
H328	H	0.597190	-0.286951	-1.079582
H329	H	0.930523	0.046382	-0.746249
H330	H	1.263856	0.379716	-0.412916
O331	O	0.127854	-0.532972	-0.532705
O332	O	0.461187	-0.199639	-0.199372
O333	O	0.794520	0.133694	0.133961
H334	H	0.103660	-0.567914	-0.567557
H335	H	0.436993	-0.234581	-0.234223
H336	H	0.770326	0.098752	0.099110
O337	O	0.268558	-0.223464	-0.224137
O338	O	0.601891	0.109870	0.109197
O339	O	0.935224	0.443203	0.442530
H340	H	0.289916	-0.258545	-0.184135
H341	H	0.623249	0.074789	0.149198
H342	H	0.956582	0.408122	0.482532
O343	O	0.708931	-0.482523	-0.667176
O344	O	1.042264	-0.149189	-0.333842
O345	O	1.375598	0.184144	-0.000509
H346	H	0.704096	-0.474112	-0.603284
H347	H	1.037430	-0.140779	-0.269951
H348	H	1.370763	0.192555	0.063382
H349	H	0.701322	-0.825632	-0.469589
H350	H	1.034655	-0.492299	-0.136255
H351	H	1.367988	-0.158966	0.197078
O352	O	0.589544	-0.836775	-0.273953
O353	O	0.922878	-0.503442	0.059380
O354	O	1.256211	-0.170108	0.392713
H355	H	0.569562	-0.794554	-0.239008
H356	H	0.902895	-0.461220	0.094326
H357	H	1.236229	-0.127887	0.427659
H358	H	0.597202	-1.078761	-0.287273
H359	H	0.930535	-0.745428	0.046060
H360	H	1.263868	-0.412095	0.379393
H361	H	0.478209	-0.469404	-0.469250
H362	H	0.811542	-0.136071	-0.135916
H363	H	1.144875	0.197263	0.197417
O364	O	0.589551	-0.273790	-0.667160
O365	O	0.922885	0.059543	-0.333827
O366	O	1.256218	0.392877	-0.000494
H367	H	0.569581	-0.238875	-0.709433
H368	H	0.902914	0.094459	-0.376100
H369	H	1.236247	0.427792	-0.042766
H370	H	0.701391	-0.469140	-1.079576
H371	H	1.034724	-0.135806	-0.746242
H372	H	1.368057	0.197527	-0.412909
O373	O	0.386917	-0.482751	-0.482497
O374	O	0.720250	-0.149417	-0.149163
O375	O	1.053584	0.183916	0.184170
H376	H	0.395948	-0.469410	-0.544135
H377	H	0.729281	-0.136077	-0.210802
H378	H	1.062614	0.197257	0.122531
O379	O	0.268598	-0.532960	-0.532675
O380	O	0.601931	-0.199627	-0.199342
O381	O	0.935264	0.133706	0.133992
H382	H	0.259574	-0.594553	-0.519114
H383	H	0.592907	-0.261219	-0.185781
H384	H	0.926240	0.072114	0.147552
O385	O	0.171088	-0.533067	-0.532596
O386	O	0.504422	-0.199734	-0.199262
O387	O	0.837755	0.133599	0.134071
H388	H	0.195296	-0.568046	-0.567392
H389	H	0.528629	-0.234713	-0.234059
H390	H	0.861962	0.098620	0.099274
H391	H	-0.094186	-0.469469	-0.469379
H392	H	0.239147	-0.136136	-0.136045
H393	H	0.572481	0.197197	0.197288
H394	H	0.177247	-0.236760	-0.237387
H395	H	0.510580	0.096573	0.095946
H396	H	0.843913	0.429907	0.429279
H397	H	-0.179330	-0.287091	-0.287550
H398	H	0.154004	0.046243	0.045783
H399	H	0.487337	0.379576	0.379116
O400	O	0.386862	-0.273744	-0.274169
O401	O	0.720195	0.059589	0.059165
O402	O	1.053529	0.392923	0.392498
H403	H	0.365473	-0.308838	-0.234170
H404	H	0.698806	0.024495	0.099163
H405	H	1.032140	0.357829	0.432496
H406	H	0.036530	-0.519697	-0.519470
H407	H	0.369863	-0.186364	-0.186136
H408	H	0.703197	0.146970	0.147197
