data_functionalizedCrystal
_audit_creation_method	'MofGen! by Chris Wilmer'
_symmetry_space_group_name_H-M	'P1'
_symmetry_Int_Tables_number	1
_symmetry_cell_setting	triclinic
loop_
_symmetry_equiv_pos_as_xyz
  x,y,z
_cell_length_a	21.395362
_cell_length_b	21.395362
_cell_length_c	21.395356
_cell_angle_alpha	89.970281
_cell_angle_beta	89.957023
_cell_angle_gamma	90.045668
loop_
_atom_site_label
_atom_site_type_symbol
_atom_site_fract_x
_atom_site_fract_y
_atom_site_fract_z
Zn1	Zn	0.957858	-0.249189	-0.354577
Zn2	Zn	0.957763	-0.353965	-0.249796
Zn3	Zn	0.853074	-0.249235	-0.249778
Zn4	Zn	0.853043	-0.353962	-0.354500
O5	O	0.905435	-0.301588	-0.302163
O6	O	1.045523	-0.263070	-0.340717
O7	O	0.943850	-0.340094	-0.162115
O8	O	0.867026	-0.161551	-0.263704
O9	O	1.045454	-0.340049	-0.263734
O10	O	0.944010	-0.161517	-0.340700
O11	O	0.866935	-0.263148	-0.162102
O12	O	0.765392	-0.263145	-0.263630
O13	O	0.866974	-0.340042	-0.442188
O14	O	0.765370	-0.340087	-0.340569
O15	O	0.943980	-0.263066	-0.442245
O16	O	0.943820	-0.441643	-0.263660
O17	O	0.866882	-0.441640	-0.340586
C18	C	0.742647	-0.301621	-0.302090
C19	C	0.673006	-0.301650	-0.302074
C20	C	0.640297	-0.341767	-0.342076
C21	C	0.574862	-0.341752	-0.342104
C22	C	0.542137	-0.301626	-0.302118
C23	C	0.574854	-0.261501	-0.262113
C24	C	0.640288	-0.261513	-0.262091
C25	C	0.438414	-0.296587	-0.245713
C26	C	0.372981	-0.296580	-0.245735
C27	C	0.340317	-0.301585	-0.302188
C28	C	0.373094	-0.306611	-0.358621
C29	C	0.438528	-0.306623	-0.358599
C30	C	0.471185	-0.301608	-0.302138
C31	C	0.236656	-0.341687	-0.342223
C32	C	0.171219	-0.341668	-0.342252
C33	C	0.171212	-0.261420	-0.262256
C34	C	0.236648	-0.261437	-0.262233
C35	C	0.269365	-0.301574	-0.302216
C36	C	0.905355	-0.464375	-0.302130
C37	C	0.905378	-0.534017	-0.302138
C38	C	0.945440	-0.566655	-0.342258
C39	C	0.945462	-0.632091	-0.342273
C40	C	0.905428	-0.664885	-0.302157
C41	C	0.865358	-0.632238	-0.262034
C42	C	0.865333	-0.566804	-0.262025
C43	C	0.900552	-0.768596	-0.245717
C44	C	0.900582	-0.834028	-0.245725
C45	C	0.905503	-0.866706	-0.302187
C46	C	0.910407	-0.833942	-0.358643
C47	C	0.910382	-0.768507	-0.358633
C48	C	0.905451	-0.735837	-0.302163
C49	C	0.945591	-0.970297	-0.342327
C50	C	0.945609	-1.035733	-0.342344
C51	C	0.865508	-1.035880	-0.262100
C52	C	0.865487	-0.970444	-0.262089
C53	C	0.905532	-0.937657	-0.302202
C54	C	1.068858	-0.301555	-0.302236
C55	C	1.138499	-0.301541	-0.302267
C56	C	0.905484	-0.301549	-0.465586
C57	C	0.905505	-0.301532	-0.535227
C58	C	0.905532	-0.138164	-0.302209
C59	C	0.905574	-0.068523	-0.302228
C60	C	0.865466	-0.261462	-0.567924
C61	C	0.865464	-0.261451	-0.633359
C62	C	0.905512	-0.301502	-0.666096
C63	C	0.945553	-0.341580	-0.633391
C64	C	0.945550	-0.341595	-0.567957
C65	C	0.961964	-0.306413	-0.769801
C66	C	0.961968	-0.306393	-0.835234
C67	C	0.905522	-0.301460	-0.867917
C68	C	0.849070	-0.296533	-0.835158
C69	C	0.849066	-0.296548	-0.769724
C70	C	0.905520	-0.301491	-0.737048
C71	C	0.865478	-0.261376	-0.971566
C72	C	0.865475	-0.261368	-1.037002
C73	C	0.945570	-0.341494	-1.037033
C74	C	0.945567	-0.341505	-0.971598
C75	C	0.905522	-0.301442	-0.938868
C76	C	0.905422	-0.301581	-0.139375
C77	C	0.905522	-0.301421	-0.069734
H78	H	0.465212	-0.310714	-0.404549
H79	H	0.144589	-0.374335	-0.374831
H80	H	0.144569	-0.228746	-0.229702
C81	C	0.272629	-0.217316	-0.218222
H82	H	0.243770	-0.193419	-0.194408
H83	H	0.298210	-0.190052	-0.242228
H84	H	0.298099	-0.241259	-0.190868
C85	C	1.024062	-0.311811	-0.871262
H86	H	1.057678	-0.314763	-0.842428
H87	H	1.029597	-0.275897	-0.896801
H88	H	1.023224	-0.348128	-0.896777
H89	H	0.832908	-1.062580	-0.229440
C90	C	0.989481	-0.530589	-0.386384
H91	H	0.983733	-0.486944	-0.380631
H92	H	0.980296	-0.541298	-0.428471
H93	H	1.031590	-0.541269	-0.377264
C94	C	0.915769	-0.732466	-0.420726
H95	H	0.915053	-0.688817	-0.412631
H96	H	0.881677	-0.743211	-0.447041
H97	H	0.953911	-0.743129	-0.440811
C98	C	0.989680	-1.071639	-0.386476
H99	H	0.983956	-1.115306	-0.380743
H100	H	1.031777	-1.060873	-0.377353
H101	H	0.980486	-1.060897	-0.428564
H102	H	0.346299	-0.292491	-0.199783
H103	H	0.346500	-0.310686	-0.404591
H104	H	0.263296	-0.374366	-0.374783
C105	C	0.538860	-0.217364	-0.218131
H106	H	0.495205	-0.223106	-0.223869
H107	H	0.549634	-0.175281	-0.227374
H108	H	0.549530	-0.226483	-0.176010
H109	H	0.832761	-0.658944	-0.229373
C110	C	0.895180	-0.870066	-0.183631
H111	H	0.895905	-0.913715	-0.191722
H112	H	0.857039	-0.859399	-0.163555
H113	H	0.929272	-0.859321	-0.157310
H114	H	0.832861	-0.228818	-0.659986
C115	C	0.676272	-0.217386	-0.218086
H116	H	0.719928	-0.223139	-0.223802
H117	H	0.665492	-0.226495	-0.175975
H118	H	0.665602	-0.175296	-0.227343
C119	C	0.989620	-0.385554	-1.073032
H120	H	1.013465	-0.409423	-1.044184
H121	H	1.016935	-0.361579	-1.098587
H122	H	0.965631	-0.412855	-1.098530
H123	H	0.465003	-0.292509	-0.199739
H124	H	0.914415	-0.860546	-0.404619
C125	C	0.989539	-0.668001	-0.386400
H126	H	1.013387	-0.639102	-0.410284
H127	H	0.965574	-0.693541	-0.413675
H128	H	1.016858	-0.693506	-0.362458
C129	C	0.786974	-0.291139	-0.733692
H130	H	0.753354	-0.288204	-0.762523
H131	H	0.787805	-0.254829	-0.708174
H132	H	0.781450	-0.327061	-0.708155
C133	C	0.821430	-0.217288	-1.072969
H134	H	0.797587	-0.193428	-1.044102
H135	H	0.794114	-0.241252	-1.098468
H136	H	0.845422	-0.189980	-1.098520
H137	H	0.803106	-0.292511	-0.861767
C138	C	0.989632	-0.934225	-0.386453
H139	H	0.983885	-0.890579	-0.380695
H140	H	0.980445	-0.944929	-0.428541
H141	H	1.031740	-0.944907	-0.377334
H142	H	0.832867	-0.943868	-0.229417
C143	C	0.821427	-0.217316	-0.935557
H144	H	0.827166	-0.223057	-0.891904
H145	H	0.779324	-0.226491	-0.946246
H146	H	0.830626	-0.175212	-0.946302
C147	C	0.989613	-0.385577	-0.935627
H148	H	0.983872	-0.379853	-0.891968
H149	H	1.031717	-0.376399	-0.946382
H150	H	0.980413	-0.427676	-0.946332
C151	C	0.895139	-0.732657	-0.183605
H152	H	0.892231	-0.761540	-0.149984
H153	H	0.858810	-0.707173	-0.184367
H154	H	0.931044	-0.707093	-0.178140
C155	C	0.821266	-0.530900	-0.217887
H156	H	0.797427	-0.559800	-0.193994
H157	H	0.793946	-0.505387	-0.241814
H158	H	0.845244	-0.505368	-0.190611
C159	C	1.024059	-0.311836	-0.733856
H160	H	1.057680	-0.314757	-0.762736
H161	H	1.023227	-0.348159	-0.708317
H162	H	1.029582	-0.275926	-0.708347
C163	C	0.821416	-0.217398	-0.531925
H164	H	0.797566	-0.193535	-0.560773
H165	H	0.845399	-0.190101	-0.506423
H166	H	0.794095	-0.241379	-0.506374
H167	H	0.978161	-0.374191	-0.660049
C168	C	0.989598	-0.385670	-0.531989
H169	H	1.013452	-0.409521	-0.560855
H170	H	0.965615	-0.412978	-0.506435
H171	H	1.016914	-0.361697	-0.506493
H172	H	0.548225	-0.374419	-0.374681
C173	C	0.676283	-0.385909	-0.386062
H174	H	0.647427	-0.409795	-0.409894
H175	H	0.701759	-0.413181	-0.362039
H176	H	0.701859	-0.361976	-0.413400
