data_functionalizedCrystal
_audit_creation_method	'MofGen! by Chris Wilmer'
_symmetry_space_group_name_H-M	'P1'
_symmetry_Int_Tables_number	1
_symmetry_cell_setting	triclinic
loop_
_symmetry_equiv_pos_as_xyz
  x,y,z
_cell_length_a	14.628931
_cell_length_b	14.395555
_cell_length_c	14.628931
_cell_angle_alpha	60.000499
_cell_angle_beta	90.000000
_cell_angle_gamma	59.997319
loop_
_atom_site_label
_atom_site_type_symbol
_atom_site_fract_x
_atom_site_fract_y
_atom_site_fract_z
Zr1	Zr	0.880564	1.016830	-0.119970
O2	O	0.734592	1.210634	-0.265932
O3	O	0.925319	0.823026	-0.075223
O4	O	0.925309	1.016830	-0.265930
O5	O	0.734602	1.016831	0.075206
O6	O	1.075741	1.016829	-0.265930
O7	O	0.734603	1.016831	-0.075225
O8	O	1.075759	0.670151	0.075211
O9	O	0.734584	1.363509	-0.265934
O10	O	1.056664	0.902740	-0.056140
O11	O	0.944398	0.902741	0.056125
O12	O	0.944385	1.130919	-0.168408
O13	O	0.832119	1.130920	-0.056143
Zr14	Zr	1.120485	1.016830	0.119952
Zr15	Zr	1.120485	1.016829	-0.119969
Zr16	Zr	0.880563	1.016831	0.119951
Zr17	Zr	0.880550	1.260649	-0.119972
Zr18	Zr	1.120498	0.773011	0.119954
O19	O	1.075730	1.210634	0.075205
O20	O	1.075730	1.210633	-0.265932
O21	O	0.734592	1.210635	0.075205
O22	O	1.266456	0.823026	0.265915
O23	O	1.266457	0.823025	-0.075222
O24	O	0.925318	0.823027	0.265914
O25	O	1.266446	1.016829	-0.075224
O26	O	1.075740	1.016831	0.265912
O27	O	0.925308	1.016831	0.265912
O28	O	1.266446	1.016830	0.075207
O29	O	0.925290	1.363509	-0.265934
O30	O	1.075759	0.670151	0.265916
O31	O	1.266465	0.670151	0.265916
O32	O	1.266465	0.670150	0.075211
O33	O	0.734584	1.363510	-0.075229
O34	O	0.925289	1.363509	-0.075228
O35	O	1.056663	0.902741	0.168391
O36	O	1.168929	0.902740	0.056125
O37	O	1.056651	1.130919	-0.056143
O38	O	0.944385	1.130920	0.056123
C39	C	0.700419	1.016831	-0.000009
C40	C	0.598566	1.016831	-0.000010
C41	C	1.000541	0.711850	-0.000006
C42	C	1.000547	0.608342	-0.000005
C43	C	0.608854	0.903639	0.055683
C44	C	0.503585	0.903637	0.055684
C45	C	1.061749	0.547763	-0.061227
C46	C	1.106110	0.409655	0.044331
C47	C	0.956191	0.562016	-0.105552
C48	C	1.044970	0.471534	0.105616
C49	C	0.894993	0.623969	-0.044343
C50	C	0.939328	0.485869	0.061278
C51	C	1.300630	1.016829	-0.000009
C52	C	1.402483	1.016829	-0.000008
C53	C	1.000525	1.016829	-0.300114
C54	C	1.000525	1.016829	-0.401967
C55	C	1.000508	1.321811	-0.000012
C56	C	1.000502	1.425318	-0.000013
C57	C	0.944827	1.130021	-0.503068
C58	C	0.944826	1.130023	-0.608340
C59	C	1.000524	1.016831	0.300096
C60	C	1.000524	1.016831	0.401949
C61	C	1.300647	0.711849	-0.000005
C62	C	1.402505	0.608341	-0.000004
C63	C	1.000541	0.711850	0.300099
C64	C	1.000546	0.608343	0.401953
C65	C	1.300646	0.711850	0.300099
C66	C	1.402505	0.608342	0.401953
C67	C	0.700402	1.321811	-0.300117
C68	C	0.598544	1.425318	-0.401971
C69	C	0.700402	1.321811	-0.000013
C70	C	0.598543	1.425319	-0.000014
C71	C	1.000508	1.321810	-0.300117
C72	C	1.000503	1.425317	-0.401971
C73	C	1.392226	0.562194	-0.055695
C74	C	1.497501	0.455213	-0.055695
C75	C	1.056240	0.562196	0.503054
C76	C	1.056247	0.455216	0.608326
C77	C	1.503608	0.562195	0.391672
C78	C	1.608886	0.455214	0.496942
H79	H	0.695596	0.806733	0.103367
H80	H	0.512218	0.806729	0.103357
O81	O	1.505920	0.560972	0.057045
C82	C	1.518286	0.504617	0.171464
H83	H	1.432169	0.548585	0.181115
H84	H	1.568726	0.525836	0.207373
H85	H	1.563962	0.393864	0.218426
H86	H	1.048212	0.919923	-0.393345
O87	O	0.943480	0.561216	0.391590
C88	C	0.829068	0.664953	0.332566
H89	H	0.808301	0.747675	0.340467
H90	H	0.776104	0.627817	0.369015
H91	H	0.810281	0.703250	0.240490
O92	O	0.943833	0.456382	0.494519
C93	C	1.019124	0.432591	0.435711
H94	H	1.096271	0.420389	0.472361
H95	H	0.976669	0.519022	0.343627
H96	H	1.045312	0.339129	0.443591
O97	O	1.288669	0.609642	-0.112482
C98	C	1.206611	0.705911	-0.099856
H99	H	1.244010	0.689850	-0.020696
H100	H	1.132777	0.698088	-0.093111
H101	H	1.176692	0.807638	-0.175550
H102	H	1.512229	0.601890	0.304936
H103	H	0.887564	0.458843	0.113120
O104	O	1.123409	0.580293	-0.123037
C105	C	1.054723	0.714589	-0.212576
H106	H	0.963529	0.749477	-0.231536
H107	H	1.079946	0.729069	-0.289878
H108	H	1.065154	0.773817	-0.188720
H109	H	0.918698	0.599215	-0.194808
H110	H	1.103930	0.415530	0.695057
H111	H	1.393887	0.568654	0.488690
O112	O	1.712436	0.407787	0.486837
C113	C	1.794497	0.311525	0.594193
H114	H	1.757094	0.327575	0.657551
H115	H	1.868320	0.319369	0.593238
H116	H	1.824434	0.209793	0.618599
H117	H	1.488875	0.415524	-0.103370
H118	H	0.897149	1.226927	-0.511690
H119	H	0.897135	1.226931	-0.695071
H120	H	1.103911	0.601894	0.511674
H121	H	1.511872	0.448745	0.606674
O122	O	0.392220	1.132418	-0.056717
C123	C	0.444151	1.139428	0.018563
H124	H	0.448488	1.071886	0.106830
H125	H	0.393493	1.244773	-0.006835
H126	H	0.532463	1.107298	0.016568
O127	O	0.788547	0.733370	-0.089299
C128	C	0.742094	0.782025	-0.200624
H129	H	0.812288	0.746361	-0.234897
H130	H	0.686824	0.893999	-0.254141
H131	H	0.689609	0.745060	-0.202854
H132	H	1.195358	0.318024	0.081835
H133	H	1.048205	0.919918	-0.511324
O134	O	0.495147	1.132529	-0.057060
C135	C	0.482781	1.205015	-0.171479
H136	H	0.568898	1.171277	-0.181130
H137	H	0.432333	1.313988	-0.207391
H138	H	0.437113	1.188396	-0.218439
O139	O	1.089659	0.426935	0.212189
C140	C	1.025496	0.394479	0.276714
H141	H	0.937423	0.450751	0.219138
H142	H	1.020756	0.422020	0.338183
H143	H	1.066423	0.284426	0.324999
O144	O	1.609109	0.456217	0.056981
C145	C	1.723557	0.392561	0.108738
H146	H	1.774693	0.293952	0.120402
H147	H	1.736797	0.375877	0.193840
H148	H	1.751725	0.456377	0.053824
