data_functionalizedCrystal
_audit_creation_method	'MofGen! by Chris Wilmer'
_symmetry_space_group_name_H-M	'P1'
_symmetry_Int_Tables_number	1
_symmetry_cell_setting	triclinic
loop_
_symmetry_equiv_pos_as_xyz
  x,y,z
_cell_length_a	14.971475
_cell_length_b	14.971486
_cell_length_c	14.048226
_cell_angle_alpha	90.006640
_cell_angle_beta	90.005580
_cell_angle_gamma	83.611904
loop_
_atom_site_label
_atom_site_type_symbol
_atom_site_fract_x
_atom_site_fract_y
_atom_site_fract_z
O1	O	-1.186953	-0.116518	-0.079142
O2	O	-0.686953	0.383482	0.420858
O3	O	-0.926552	-0.130487	-0.079148
O4	O	-0.426552	0.369513	0.420852
O5	O	-1.063732	0.006698	-0.079138
O6	O	-0.563732	0.506698	0.420862
O7	O	-1.049773	-0.253703	-0.079152
O8	O	-0.549773	0.246297	0.420848
O9	O	-1.063715	0.006706	0.079184
O10	O	-0.563715	0.506706	0.579184
O11	O	-0.926535	-0.130479	0.079173
O12	O	-0.426535	0.369521	0.579173
O13	O	-1.186937	-0.116510	0.079180
O14	O	-0.686937	0.383490	0.579180
Zn15	Zn	-1.056733	-0.123493	0.104313
Zn16	Zn	-0.556733	0.376507	0.604313
Zn17	Zn	-1.056755	-0.123504	-0.104282
Zn18	Zn	-0.556755	0.376496	0.395718
O19	O	-1.049756	-0.253695	0.079170
O20	O	-0.549756	0.246305	0.579170
C21	C	-0.893218	-0.129860	0.000012
C22	C	-0.393218	0.370140	0.500012
C23	C	-0.793921	-0.127993	0.000010
C24	C	-0.293921	0.372007	0.500010
C25	C	-0.747267	-0.127110	0.086312
C26	C	-0.247267	0.372890	0.586312
C27	C	-0.653968	-0.125341	0.086312
C28	C	-0.153968	0.374659	0.586312
C29	C	-0.607324	-0.124463	0.000010
C30	C	-0.107324	0.375537	0.500010
C31	C	-0.653985	-0.125344	-0.086298
C32	C	-0.153985	0.374656	0.413702
C33	C	-0.747283	-0.127106	-0.086298
C34	C	-0.247283	0.372894	0.413702
C35	C	-0.459522	-0.121674	-0.086293
C36	C	0.040478	0.378326	0.413707
C37	C	-0.366218	-0.119913	-0.086294
C38	C	0.133782	0.380087	0.413706
C39	C	-0.366208	-0.119909	0.086317
C40	C	0.133792	0.380091	0.586317
C41	C	-0.459506	-0.121671	0.086317
C42	C	0.040494	0.378329	0.586317
C43	C	-0.506160	-0.122554	0.000009
C44	C	-0.006160	0.377446	0.500009
C45	C	-1.063099	0.040026	0.000023
C46	C	-0.563099	0.540026	0.500023
C47	C	-1.061228	0.139323	0.000022
C48	C	-0.561228	0.639323	0.500022
C49	C	-0.220269	-0.117144	0.000016
C50	C	0.279731	0.382856	0.500016
C51	C	-0.319564	-0.119030	0.000008
C52	C	0.180436	0.380970	0.500008
C53	C	-1.050389	-0.287024	0.000007
C54	C	-0.550389	0.212976	0.500007
C55	C	-1.052260	-0.386321	0.000002
C56	C	-0.552260	0.113679	0.500002
N57	N	-1.056725	-0.123485	0.246674
N58	N	-0.556725	0.376515	0.746674
C59	C	-1.141818	0.196552	0.000024
C60	C	-0.641818	0.696552	0.500024
C61	C	-1.140055	0.289851	0.000015
C62	C	-0.640055	0.789851	0.500015
C63	C	-1.057701	0.325920	0.000009
C64	C	-0.557701	0.825920	0.500009
C65	C	-0.977106	0.268685	0.000004
C66	C	-0.477106	0.768685	0.500004
C67	C	-0.978870	0.175387	0.000007
C68	C	-0.478870	0.675387	0.500007
C69	C	-0.973434	0.463147	0.000000
C70	C	-0.473434	0.963147	0.500000
C71	C	-0.971670	0.556451	-0.000001
C72	C	-0.471670	1.056451	0.499999
C73	C	-1.134620	0.577611	0.000008
C74	C	-0.634620	1.077611	0.500008
C75	C	-1.136384	0.484314	0.000011
C76	C	-0.636384	0.984314	0.500011
C77	C	-1.055788	0.427084	0.000007
C78	C	-0.555788	0.927084	0.500007
N79	N	-1.056770	-0.123505	-0.246642
N80	N	-0.556770	0.376495	0.253358
C81	C	-1.117487	-0.062765	0.296497
C82	C	-0.617487	0.437235	0.796497
C83	C	-1.117493	-0.062765	0.396154
C84	C	-0.617493	0.437235	0.896154
C85	C	-1.056741	-0.123489	0.445988
C86	C	-0.556741	0.376511	0.945988
C87	C	-0.995972	-0.184213	0.396158
C88	C	-0.495972	0.315787	0.896158
C89	C	-0.995962	-0.184208	0.296502
C90	C	-0.495962	0.315792	0.796502
C91	C	-0.995997	-0.184219	0.603872
C92	C	-0.495997	0.315781	1.103872
C93	C	-0.996008	-0.184225	0.703535
C94	C	-0.496008	0.315775	1.203535
C95	C	-1.117529	-0.062776	0.703524
C96	C	-0.617529	0.437224	1.203524
C97	C	-1.117519	-0.062771	0.603869
C98	C	-0.617519	0.437229	1.103869
C99	C	-1.056751	-0.123496	0.554046
C100	C	-0.556751	0.376504	1.054046
H101	H	-0.615989	-0.124607	0.156588
H102	H	-0.115989	0.375393	0.656588
H103	H	-0.904610	0.585815	0.000010
H104	H	-0.404610	1.085815	0.500010
Cl105	Cl	-1.193923	0.013561	0.766162
Cl106	Cl	-0.693923	0.513561	1.266162
Cl107	Cl	-0.307581	-0.118807	-0.194790
Cl108	Cl	0.192419	0.381193	0.305210
Cl109	Cl	-0.872112	0.391203	-0.000005
Cl110	Cl	-0.372112	0.891203	0.499995
Cl111	Cl	-1.239916	0.438971	0.000013
Cl112	Cl	-0.739916	0.938971	0.500013
Cl113	Cl	-0.307558	-0.118800	0.194819
Cl114	Cl	0.192442	0.381200	0.694819
H115	H	-0.616001	-0.124623	-0.156567
H116	H	-0.116001	0.375377	0.343433
Cl117	Cl	-1.235941	0.649556	0.000008
Cl118	Cl	-0.735941	1.149556	0.500008
H119	H	-0.910052	0.298059	-0.000007
H120	H	-0.410052	0.798059	0.499993
H121	H	-0.946510	-0.233665	0.563310
H122	H	-0.446510	0.266335	1.063310
Cl123	Cl	-0.919568	-0.260543	0.233869
Cl124	Cl	-0.419568	0.239457	0.733869
H125	H	-0.946536	-0.233673	0.744104
H126	H	-0.446536	0.266327	1.244104
H127	H	-1.166993	-0.013329	0.563294
H128	H	-0.666993	0.486671	1.063294
H129	H	-0.785267	-0.127827	-0.156574
H130	H	-0.285267	0.372173	0.343426
Cl131	Cl	-1.241373	0.361792	0.000021
Cl132	Cl	-0.741373	0.861792	0.500021
Cl133	Cl	-0.877552	0.103442	-0.000000
Cl134	Cl	-0.377552	0.603442	0.500000
H135	H	-1.166963	-0.013320	0.255929
H136	H	-0.666963	0.486680	0.755929
H137	H	-0.497505	-0.122393	-0.156575
H138	H	0.002495	0.377607	0.343425
H139	H	-1.166970	-0.013321	0.436719
H140	H	-0.666970	0.486679	0.936719
H141	H	-0.946501	-0.233653	0.436738
H142	H	-0.446501	0.266347	0.936738
H143	H	-1.208880	0.167192	0.000035
H144	H	-0.708880	0.667192	0.500035
H145	H	-0.497480	-0.122392	0.156592
H146	H	0.002520	0.377608	0.656592
Cl147	Cl	-0.805895	-0.128219	0.194812
Cl148	Cl	-0.305895	0.371781	0.694812
