data_functionalizedCrystal
_audit_creation_method	'MofGen! by Chris Wilmer'
_symmetry_space_group_name_H-M	'P1'
_symmetry_Int_Tables_number	1
_symmetry_cell_setting	triclinic
loop_
_symmetry_equiv_pos_as_xyz
  x,y,z
_cell_length_a	17.639181
_cell_length_b	18.101395
_cell_length_c	17.640968
_cell_angle_alpha	78.770922
_cell_angle_beta	87.836484
_cell_angle_gamma	78.838129
loop_
_atom_site_label
_atom_site_type_symbol
_atom_site_fract_x
_atom_site_fract_y
_atom_site_fract_z
Zn1	Zn	1.247436	-0.494092	-0.194265
Zn2	Zn	1.221650	-0.637111	-0.067306
Zn3	Zn	1.094802	-0.484414	-0.093013
Zn4	Zn	1.120420	-0.588994	-0.219954
O5	O	1.171077	-0.551153	-0.143634
O6	O	1.350258	-0.537251	-0.155914
O7	O	1.183311	-0.632943	0.035542
O8	O	1.115119	-0.382076	-0.106452
O9	O	1.331314	-0.642327	-0.062638
O10	O	1.227259	-0.389187	-0.180841
O11	O	1.090116	-0.520756	0.016655
O12	O	0.991958	-0.474099	-0.131361
O13	O	1.158782	-0.560318	-0.322804
O14	O	1.010779	-0.550933	-0.224624
O15	O	1.252099	-0.490594	-0.303931
O16	O	1.208152	-0.734349	-0.087547
O17	O	1.133779	-0.698998	-0.199697
C18	C	0.973821	-0.506245	-0.183570
C19	C	0.889438	-0.487048	-0.200673
C20	C	0.562545	-0.697150	-0.013716
C21	C	0.483255	-0.679101	-0.029793
C22	C	0.503010	-0.569817	-0.127066
C23	C	0.582303	-0.587854	-0.110995
C24	C	0.612064	-0.651523	-0.054319
C25	C	0.631822	-0.542227	-0.151598
C26	C	0.711108	-0.560266	-0.135530
C27	C	0.740875	-0.623932	-0.078859
C28	C	0.691350	-0.669562	-0.038252
C29	C	0.602060	-0.478562	-0.208277
C30	C	0.651578	-0.432935	-0.248880
C31	C	0.730865	-0.450970	-0.232809
C32	C	0.760633	-0.514637	-0.176138
C33	C	0.780391	-0.405341	-0.273416
C34	C	0.859677	-0.423380	-0.257348
C35	C	0.839919	-0.532676	-0.160070
C36	C	1.170971	-0.743543	-0.143633
C37	C	1.171000	-0.825861	-0.143643
C38	C	1.171175	-1.124984	-0.143650
C39	C	1.124547	-1.071456	-0.214330
C40	C	1.124232	-0.985803	-0.214202
C41	C	1.171088	-0.976585	-0.143648
C42	C	1.133244	-1.014904	-0.068005
C43	C	1.132938	-1.100410	-0.068434
C44	C	1.255634	-1.108508	-0.147883
C45	C	1.255517	-1.022485	-0.149733
C46	C	1.171040	-0.892718	-0.143641
C47	C	1.171221	-1.208851	-0.143652
C48	C	1.369104	-0.596236	-0.103543
C49	C	1.453491	-0.615448	-0.086459
C50	C	1.211174	-0.521168	-0.341689
C51	C	1.228262	-0.508390	-0.426088
C52	C	1.171208	-0.358013	-0.143649
C53	C	1.171263	-0.275708	-0.143655
C54	C	1.041560	-0.647887	-0.752792
C55	C	1.057632	-0.635874	-0.832095
C56	C	1.154795	-0.563277	-0.812433
C57	C	1.138729	-0.575280	-0.733128
C58	C	1.082111	-0.617586	-0.703314
C59	C	1.179280	-0.544980	-0.683650
C60	C	1.163218	-0.556985	-0.604351
C61	C	1.106604	-0.599292	-0.574530
C62	C	1.066049	-0.629592	-0.624015
C63	C	1.235902	-0.502678	-0.713464
C64	C	1.276453	-0.472378	-0.663986
C65	C	1.260387	-0.484379	-0.584686
C66	C	1.203773	-0.526685	-0.554866
C67	C	1.300942	-0.454078	-0.535201
C68	C	1.284879	-0.466084	-0.455902
C69	C	1.187710	-0.538691	-0.475567
C70	C	1.131180	-0.580977	0.053659
C71	C	1.114240	-0.593580	0.138087
H72	H	0.586777	-0.748991	0.032439
F73	F	1.157628	-0.950574	-0.288179
H74	H	1.093530	-0.609069	-0.509959
F75	F	1.361204	-0.409064	-0.566941
F76	F	1.174248	-1.148578	0.001606
F77	F	1.052646	-0.973169	-0.060278
F78	F	1.042832	-0.944077	-0.212218
F79	F	1.014465	-0.668126	-0.884753
H80	H	0.478768	-0.517980	-0.173214
H81	H	1.322553	-0.437935	-0.688271
F82	F	0.871597	-0.600441	-0.099751
H83	H	1.286983	-1.125880	-0.201246
H84	H	1.019926	-0.664020	-0.599743
H85	H	0.899996	-0.386224	-0.290410
H86	H	0.627336	-0.381098	-0.295027
H87	H	1.070717	-1.109716	-0.062960
F88	F	1.215052	-0.518256	-0.844172
H89	H	1.248979	-0.492907	-0.778035
H90	H	1.317899	-0.441409	-0.415616
H91	H	1.283762	-0.996936	-0.205322
H92	H	1.165424	-1.010737	-0.014618
F93	F	0.825260	-0.643134	-0.061761
H94	H	1.293394	-1.017526	-0.100712
H95	H	0.995438	-0.682315	-0.728520
F96	F	0.723028	-0.737326	0.022067
H97	H	0.537500	-0.463879	-0.221360
F98	F	0.430558	-0.727679	0.013415
H99	H	0.756148	-0.353507	-0.319566
H100	H	1.150004	-1.086058	-0.271146
F101	F	1.301306	-1.156424	-0.080347
H102	H	1.141588	-0.573119	-0.451295
F103	F	1.043670	-1.084729	-0.212482
