data_functionalizedCrystal
_audit_creation_method	'MofGen! by Chris Wilmer'
_symmetry_space_group_name_H-M	'P1'
_symmetry_Int_Tables_number	1
_symmetry_cell_setting	triclinic
loop_
_symmetry_equiv_pos_as_xyz
  x,y,z
_cell_length_a	10.685980
_cell_length_b	10.685194
_cell_length_c	19.076919
_cell_angle_alpha	87.724484
_cell_angle_beta	87.728183
_cell_angle_gamma	98.380820
loop_
_atom_site_label
_atom_site_type_symbol
_atom_site_fract_x
_atom_site_fract_y
_atom_site_fract_z
Zn1	Zn	1.865929	-0.392666	-0.461050
Zn2	Zn	2.365929	0.107334	0.038950
Zn3	Zn	1.859448	-0.595078	-0.334425
Zn4	Zn	2.359448	-0.095078	0.165575
Zn5	Zn	1.663546	-0.399088	-0.334430
Zn6	Zn	2.163546	0.100912	0.165570
Zn7	Zn	1.638919	-0.619629	-0.441589
Zn8	Zn	2.138919	-0.119629	0.058411
O9	O	1.756961	-0.501615	-0.392873
O10	O	2.256961	-0.001615	0.107127
O11	O	2.042059	-0.406554	-0.452395
O12	O	2.542059	0.093446	0.047605
O13	O	1.841056	-0.561493	-0.236586
O14	O	2.341056	-0.061493	0.263414
O15	O	1.703411	-0.221228	-0.359372
O16	O	2.203411	0.278772	0.140628
O17	O	2.037297	-0.555266	-0.359365
O18	O	2.537297	-0.055266	0.140635
O19	O	1.852101	-0.216510	-0.452400
O20	O	2.352101	0.283490	0.047600
O21	O	1.697127	-0.417500	-0.236589
O22	O	2.197127	0.082500	0.263411
O23	O	1.483290	-0.441305	-0.340502
O24	O	1.983290	0.058695	0.159498
O25	O	1.661438	-0.597109	-0.542010
O26	O	2.161438	-0.097109	-0.042010
O27	O	1.465197	-0.603336	-0.419232
O28	O	1.965197	-0.103336	0.080768
O29	O	1.828221	-0.430360	-0.556308
O30	O	2.328221	0.069640	-0.056308
O31	O	1.817176	-0.775343	-0.340495
O32	O	2.317176	-0.275343	0.159505
O33	O	1.655155	-0.793380	-0.419228
O34	O	2.155155	-0.293380	0.080772
C35	C	1.428352	-0.525683	-0.377756
C36	C	1.928352	-0.025683	0.122244
C37	C	1.287768	-0.536011	-0.371304
C38	C	1.787768	-0.036011	0.128696
C39	C	1.732823	-0.830256	-0.377766
C40	C	2.232823	-0.330256	0.122234
C41	C	1.722611	-0.970844	-0.371331
C42	C	2.222611	-0.470844	0.128669
C43	C	2.086853	-0.477455	-0.408050
C44	C	2.586853	0.022545	0.091950
C45	C	2.227433	-0.467159	-0.414518
C46	C	2.727433	0.032841	0.085482
C47	C	1.742806	-0.515756	-0.575237
C48	C	2.242806	-0.015756	-0.075237
C49	C	1.736774	-0.521782	-0.652950
C50	C	2.236774	-0.021782	-0.152950
C51	C	1.781226	-0.171690	-0.408057
C52	C	2.281226	0.328310	0.091943
C53	C	1.791566	-0.031095	-0.414528
C54	C	2.291566	0.468905	0.085472
C55	C	1.820770	-0.437800	-0.696904
C56	C	2.320770	0.062200	-0.196904
C57	C	1.815087	-0.443458	-0.769923
C58	C	2.315087	0.056542	-0.269923
C59	C	1.725413	-0.533106	-0.798986
C60	C	2.225413	-0.033106	-0.298986
C61	C	1.641408	-0.617092	-0.755026
C62	C	2.141408	-0.117092	-0.255026
C63	C	1.647086	-0.611427	-0.682008
C64	C	2.147086	-0.111427	-0.182008
C65	C	1.699115	-0.559353	-1.016565
C66	C	2.199115	-0.059353	-0.516565
C67	C	1.693446	-0.565015	-1.089588
C68	C	2.193446	-0.065015	-0.589588
C69	C	1.867125	-0.391379	-1.104480
C70	C	2.367125	0.108621	-0.604480
C71	C	1.872800	-0.385726	-1.031461
C72	C	2.372800	0.114274	-0.531461
C73	C	1.788791	-0.469708	-0.987507
C74	C	2.288791	0.030292	-0.487507
N75	N	1.719605	-0.538895	-0.873622
N76	N	2.219605	-0.038895	-0.373622
N77	N	1.794594	-0.463913	-0.912872
N78	N	2.294594	0.036087	-0.412872
C79	C	1.771140	-0.487433	-0.211227
C80	C	2.271140	0.012567	0.288773
C81	C	1.777443	-0.481032	-0.133542
C82	C	2.277443	0.018968	0.366458
H83	H	1.283330	-0.400303	-0.456450
H84	H	1.783330	0.099697	0.043550
Cl85	Cl	1.201468	-0.639223	-0.306551
Cl86	Cl	1.701468	-0.139223	0.193449
H87	H	1.630726	-0.627754	-0.980786
H88	H	2.130726	-0.127754	-0.480786
H89	H	1.945826	-0.312729	-1.007803
H90	H	2.445826	0.187271	-0.507803
Cl91	Cl	1.894782	-0.944685	-0.479233
Cl92	Cl	2.394782	-0.444685	0.020767
H93	H	1.655745	-1.026821	-0.329426
H94	H	2.155745	-0.526821	0.170574
H95	H	1.620419	-0.638020	-1.113248
H96	H	2.120419	-0.138020	-0.613248
H97	H	1.568389	-0.690081	-0.778694
H98	H	2.068389	-0.190081	-0.278694
H99	H	1.893796	-0.364803	-0.673247
H100	H	2.393796	0.135197	-0.173247
H101	H	1.883489	-0.375074	-0.805708
H102	H	2.383489	0.124926	-0.305708
H103	H	1.935520	-0.323004	-1.140274
H104	H	2.435520	0.176996	-0.640274
H105	H	1.578675	-0.679802	-0.646221
H106	H	2.078675	-0.179802	-0.146221
