data_functionalizedCrystal
_audit_creation_method	'MofGen! by Chris Wilmer'
_symmetry_space_group_name_H-M	'P1'
_symmetry_Int_Tables_number	1
_symmetry_cell_setting	triclinic
loop_
_symmetry_equiv_pos_as_xyz
  x,y,z
_cell_length_a	19.188905
_cell_length_b	19.188930
_cell_length_c	17.666332
_cell_angle_alpha	90.011603
_cell_angle_beta	90.016479
_cell_angle_gamma	83.139668
loop_
_atom_site_label
_atom_site_type_symbol
_atom_site_fract_x
_atom_site_fract_y
_atom_site_fract_z
O1	O	0.926161	0.087086	0.063081
O2	O	0.722847	0.098838	0.063057
O3	O	0.830371	-0.008694	0.063055
O4	O	0.818637	0.194618	0.063083
O5	O	0.830352	-0.008700	-0.062842
O6	O	0.722828	0.098832	-0.062840
O7	O	0.926142	0.087080	-0.062815
Cu8	Cu	0.824483	0.092956	-0.074323
Cu9	Cu	0.824506	0.092962	0.074565
O10	O	0.818618	0.194612	-0.062814
C11	C	0.696826	0.098458	0.000105
C12	C	0.619321	0.097324	0.000095
C13	C	0.829982	-0.034708	0.000104
C14	C	0.828841	-0.112213	0.000098
C15	C	0.582939	0.096782	0.068723
C16	C	0.510116	0.095709	0.068732
C17	C	0.473678	0.095164	0.000110
C18	C	0.510068	0.095709	-0.068528
C19	C	0.582889	0.096789	-0.068535
N20	N	0.364650	0.053733	-0.050966
N21	N	0.295473	0.052705	-0.050954
C22	C	0.254272	0.091911	0.000127
N23	N	0.284861	0.132174	0.051208
N24	N	0.354045	0.133199	0.051199
C25	C	0.394716	0.093993	0.000110
C26	C	0.138926	0.090207	0.068770
C27	C	0.066101	0.089138	0.068777
C28	C	0.066055	0.089131	-0.068485
C29	C	0.138879	0.090207	-0.068490
C30	C	0.175310	0.090742	0.000140
C31	C	0.891933	-0.157142	0.000102
C32	C	0.890861	-0.229966	0.000114
C33	C	0.826694	-0.257857	0.000107
C34	C	0.763594	-0.212917	0.000107
C35	C	0.764668	-0.140095	0.000102
N36	N	0.777640	-0.365859	-0.042744
N37	N	0.776624	-0.435038	-0.042742
C38	C	0.823456	-0.477265	0.000122
N39	N	0.871352	-0.447702	0.042973
N40	N	0.872369	-0.378517	0.042967
C41	C	0.825523	-0.336819	0.000112
C42	C	0.885390	-0.601159	0.000140
C43	C	0.884315	-0.673984	0.000156
C44	C	0.757047	-0.656933	0.000142
C45	C	0.758123	-0.584110	0.000133
C46	C	0.822296	-0.556228	0.000128
C47	C	0.952163	0.087460	0.000138
C48	C	1.029668	0.088594	0.000153
C49	C	0.819007	0.220626	0.000139
C50	C	0.820148	0.298131	0.000150
N51	N	0.824473	0.092950	-0.179042
C52	C	0.872100	0.045358	-0.218653
C53	C	0.872104	0.045355	-0.297901
C54	C	0.824488	0.092956	-0.337535
C55	C	0.776852	0.140552	-0.297915
C56	C	0.776844	0.140549	-0.218668
N57	N	0.815411	0.154764	-0.461945
N58	N	0.815422	0.154764	-0.537226
C59	C	0.824506	0.092966	-0.576299
N60	N	0.833592	0.031164	-0.537247
N61	N	0.833584	0.031165	-0.461960
C62	C	0.824490	0.092964	-0.423464
C63	C	0.872140	0.045366	-0.701838
C64	C	0.872139	0.045361	-0.781087
C65	C	0.776890	0.140564	-0.781100
C66	C	0.776888	0.140562	-0.701852
C67	C	0.824516	0.092964	-0.662226
N68	N	0.824522	0.092962	0.179284
H69	H	0.480488	0.095270	0.124620
H70	H	0.910889	0.006598	-0.330157
H71	H	0.937644	-0.578456	0.000139
N72	N	0.472840	0.095159	-0.138618
N73	N	0.407822	0.094195	-0.138603
H74	H	0.381528	0.093810	-0.188106
H75	H	0.612511	0.097231	-0.124422
H76	H	0.036479	0.088702	0.124664
H77	H	0.713289	-0.103513	0.000099
H78	H	0.706747	-0.547527	0.000125
H79	H	0.910880	0.006599	-0.186392
N80	N	0.920697	-0.003311	-0.661315
N81	N	0.919838	-0.067831	-0.670184
H82	H	0.954099	-0.102228	-0.641547
N83	N	0.028845	0.088595	-0.138585
N84	N	-0.018385	0.137203	-0.153885
H85	H	-0.044668	0.136830	-0.203396
H86	H	0.168589	0.090650	0.124653
N87	N	0.176036	0.090755	-0.138600
N88	N	0.143497	0.090269	-0.199867
H89	H	0.169738	0.090656	-0.249386
N90	N	0.948772	-0.719871	0.000171
N91	N	1.006061	-0.694963	0.000170
H92	H	1.051585	-0.727371	0.000181
N93	N	0.698050	-0.241405	0.000079
N94	N	0.655559	-0.227576	-0.052998
H95	H	0.609266	-0.247695	-0.053017
N96	N	0.728213	0.189166	-0.338407
N97	N	0.728226	0.189162	-0.409162
H98	H	0.693871	0.223495	-0.437761
H99	H	0.704801	-0.679641	0.000140
N100	N	0.728186	0.189168	-0.178215
N101	N	0.685669	0.231663	-0.213607
H102	H	0.651303	0.266002	-0.185036
N103	N	0.957488	-0.128673	0.000099
N104	N	1.013816	-0.168804	0.000105
H105	H	1.060116	-0.148697	0.000105
H106	H	0.942239	-0.266555	0.000120
H107	H	0.910921	0.006602	-0.813339
N108	N	0.728248	0.189177	-0.821587
N109	N	0.728257	0.189170	-0.892342
H110	H	0.693900	0.223501	-0.920940
N111	N	0.728242	0.189194	-0.661400
N112	N	0.729001	0.253727	-0.670238
H113	H	0.694641	0.288076	-0.641670
N114	N	0.620141	0.097329	0.138831
N115	N	0.587642	0.096846	0.200103
H116	H	0.613917	0.097233	0.249618
