data_functionalizedCrystal
_audit_creation_method	'MofGen! by Chris Wilmer'
_symmetry_space_group_name_H-M	'P1'
_symmetry_Int_Tables_number	1
_symmetry_cell_setting	triclinic
loop_
_symmetry_equiv_pos_as_xyz
  x,y,z
_cell_length_a	15.455301
_cell_length_b	16.992697
_cell_length_c	16.992695
_cell_angle_alpha	90.668337
_cell_angle_beta	92.826871
_cell_angle_gamma	92.820424
loop_
_atom_site_label
_atom_site_type_symbol
_atom_site_fract_x
_atom_site_fract_y
_atom_site_fract_z
O1	O	-0.072006	-1.054113	-0.170181
O2	O	-0.072035	-0.825715	-0.168351
O3	O	-0.072014	-0.938998	-0.055065
O4	O	-0.072027	-0.940830	-0.283466
O5	O	0.072248	-0.932450	-0.048525
O6	O	0.072227	-0.819167	-0.161810
O7	O	0.072256	-1.047566	-0.163641
Cu8	Cu	0.085414	-0.932768	-0.162128
Cu9	Cu	-0.085193	-0.940512	-0.169863
O10	O	0.072235	-0.934282	-0.276926
C11	C	0.000092	-0.793081	-0.162725
C12	C	0.000081	-0.705597	-0.155696
N13	N	0.205409	-0.927328	-0.156688
N14	N	-0.205189	-0.945958	-0.175297
C15	C	0.000077	-0.659606	-0.223514
C16	C	0.000088	-0.577405	-0.216905
C17	C	0.000097	-0.541196	-0.142477
C18	C	0.000104	-0.587193	-0.074654
C19	C	0.000099	-0.669392	-0.081264
C20	C	0.000118	-0.295881	-0.115081
C21	C	0.000120	-0.213675	-0.108476
C22	C	0.000106	-0.203893	-0.250728
C23	C	0.000096	-0.286095	-0.257332
C24	C	0.000107	-0.332084	-0.189508
N25	N	0.000105	-0.457173	-0.135719
N26	N	0.000105	-0.416105	-0.196266
C27	C	0.250803	-0.976004	-0.205395
C28	C	0.341611	-0.971899	-0.201277
C29	C	0.387023	-0.919114	-0.148454
C30	C	0.341623	-0.870436	-0.099742
C31	C	0.250817	-0.874545	-0.103857
C32	C	0.658605	-0.901389	-0.130700
C33	C	0.749418	-0.897282	-0.126590
C34	C	0.749399	-0.998747	-0.228125
C35	C	0.658591	-1.002848	-0.232238
C36	C	0.613199	-0.954173	-0.183523
N37	N	0.479844	-0.914916	-0.144245
N38	N	0.520380	-0.958376	-0.187729
C39	C	0.000117	-0.933368	-0.022435
C40	C	0.000116	-0.926340	0.065049
C41	C	0.000123	-0.080200	-0.169266
C42	C	0.000116	-0.167685	-0.176294
C43	C	0.000102	-0.939912	-0.309556
C44	C	0.000098	-0.946941	-0.397041
C45	C	0.000125	-0.994157	0.111041
C46	C	0.000116	-0.987549	0.193241
C47	C	0.000104	-0.913122	0.229449
C48	C	0.000091	-0.845299	0.183451
C49	C	0.000094	-0.851909	0.101252
C50	C	0.000088	-0.885728	0.474762
C51	C	0.000088	-0.879123	0.556968
C52	C	0.000111	-1.021374	0.566752
C53	C	0.000119	-1.027976	0.484551
C54	C	0.000102	-0.960154	0.438560
N55	N	0.000097	-0.906365	0.313471
N56	N	0.000103	-0.966912	0.354540
H57	H	0.000069	-0.689081	-0.284122
H58	H	0.000123	-1.076590	0.604206
C59	C	0.391580	-0.812370	-0.041638
N60	N	0.429207	-0.768631	0.002124
C61	C	0.000099	-0.526818	-0.291510
N62	N	0.000114	-0.488715	-0.347706
H63	H	0.000086	-0.796684	0.063807
C64	C	0.000124	-0.346459	-0.040472
N65	N	0.000128	-0.384557	0.015727
C66	C	0.000100	-0.325917	-0.339208
N67	N	0.000105	-0.355911	-0.400878
H68	H	0.000123	-0.557705	-0.014052
C69	C	0.000139	-1.076033	0.071220
N70	N	0.000145	-1.137705	0.041229
H71	H	0.621658	-0.861755	-0.091032
H72	H	0.000099	-0.166440	-0.305946
H73	H	0.000092	-0.818512	0.586446
C74	C	0.391540	-1.025418	-0.254889
N75	N	0.429146	-1.065721	-0.295282
H76	H	0.000126	-1.042773	0.230684
C77	C	0.200858	-1.034072	-0.263504
N78	N	0.163241	-1.077814	-0.307271
H79	H	0.000126	-0.184197	-0.047865
C80	C	0.608644	-1.060920	-0.290342
N81	N	0.571024	-1.104661	-0.334107
H82	H	0.213858	-0.834908	-0.064194
H83	H	0.786390	-0.854294	-0.083576
C84	C	0.799338	-1.052292	-0.281702
N85	N	0.836952	-1.092627	-0.322056
H86	H	0.000102	-0.706837	-0.026039
C87	C	0.000134	-1.109852	0.444729
N88	N	0.000148	-1.171521	0.414735
C89	C	0.000065	-0.811120	0.424183
N90	N	0.000045	-0.754923	0.386084
H91	H	0.000076	-0.784699	0.212938
