data_functionalizedCrystal
_audit_creation_method	'MofGen! by Chris Wilmer'
_symmetry_space_group_name_H-M	'P1'
_symmetry_Int_Tables_number	1
_symmetry_cell_setting	triclinic
loop_
_symmetry_equiv_pos_as_xyz
  x,y,z
_cell_length_a	17.699083
_cell_length_b	14.044220
_cell_length_c	16.176319
_cell_angle_alpha	89.992517
_cell_angle_beta	89.998611
_cell_angle_gamma	88.235946
loop_
_atom_site_label
_atom_site_type_symbol
_atom_site_fract_x
_atom_site_fract_y
_atom_site_fract_z
O1	O	1.012346	0.119850	-0.068632
O2	O	0.793044	0.135443	-0.068659
O3	O	0.899403	-0.010330	-0.068638
O4	O	0.905987	0.265624	-0.068653
O5	O	0.899387	-0.010340	0.068855
O6	O	0.793027	0.135434	0.068834
O7	O	1.012330	0.119841	0.068861
Cu8	Cu	0.902677	0.127637	0.081402
Cu9	Cu	0.902696	0.127648	-0.081200
O10	O	0.905970	0.265614	0.068840
C11	C	0.764800	0.134880	0.000084
C12	C	0.680666	0.133204	0.000074
C13	C	0.637948	0.218769	0.000069
C14	C	0.558895	0.217189	0.000080
C15	C	0.522563	0.130041	0.000089
C16	C	0.565287	0.044469	0.000096
C17	C	0.644338	0.046050	0.000092
C18	C	0.246484	0.038089	0.000117
C19	C	0.167427	0.036514	0.000120
C20	C	0.161041	0.209227	0.000106
C21	C	0.240092	0.210809	0.000101
C22	C	0.282809	0.125237	0.000112
C23	C	0.368527	0.126952	0.000102
C24	C	0.436847	0.128325	0.000094
C25	C	0.896513	-0.045643	0.000109
C26	C	0.887917	-0.150849	0.000109
C27	C	0.872202	-0.343474	0.000095
C28	C	0.933168	-0.401248	0.000100
C29	C	0.924424	-0.508431	0.000092
C30	C	0.880945	-0.236281	0.000102
C31	C	1.040574	0.120404	0.000116
C32	C	1.124707	0.122081	0.000121
C33	C	0.908860	0.300927	0.000091
C34	C	0.917456	0.406133	0.000086
N35	N	0.902668	0.127628	0.195767
N36	N	0.902710	0.127648	-0.195565
C37	C	0.949782	0.063106	0.239041
C38	C	0.949786	0.063105	0.325588
C39	C	0.902679	0.127632	0.368860
C40	C	0.855561	0.192157	0.325580
C41	C	0.855554	0.192153	0.239034
C42	C	0.855588	0.192175	0.674608
C43	C	0.855600	0.192176	0.761160
C44	C	0.949820	0.063127	0.761161
C45	C	0.949813	0.063123	0.674616
C46	C	0.902692	0.127644	0.631344
C47	C	0.902687	0.127643	0.537500
C48	C	0.902687	0.127638	0.462702
H49	H	0.679119	-0.023626	0.000095
O50	O	0.673324	0.303366	0.000167
C51	C	0.718848	0.309457	0.071382
H52	H	0.733467	0.234714	0.095128
H53	H	0.686808	0.351463	0.121244
C54	C	0.774155	0.452135	0.020575
C55	C	0.792115	0.360333	0.049736
H56	H	0.819348	0.483521	0.007225
H57	H	0.743483	0.448034	-0.027403
H58	H	0.747454	0.487127	0.062132
H59	H	0.818808	0.325339	0.008175
H60	H	0.822794	0.364430	0.097706
H61	H	0.991930	-0.370212	0.000052
O62	O	0.995656	0.000401	0.803069
C63	C	1.037216	-0.056566	0.746316
H64	H	1.040691	-0.017706	0.684621
H65	H	1.007891	-0.126930	0.737119
C66	C	1.113268	-0.123963	0.855862
C67	C	1.117540	-0.076232	0.780089
H68	H	1.162814	-0.136099	0.876695
H69	H	1.085266	-0.085587	0.894099
H70	H	1.088827	-0.182595	0.848188
H71	H	1.141972	-0.017597	0.787766
H72	H	1.145548	-0.114599	0.741854
O73	O	0.529876	-0.040104	0.000070
C74	C	0.450943	-0.023155	0.000092
H75	H	0.437399	0.050848	-0.025944
H76	H	0.428662	-0.027700	0.066056
C77	C	0.429749	-0.189357	-0.021843
C78	C	0.413114	-0.098468	-0.053827
H79	H	0.406413	-0.235816	-0.055099
H80	H	0.482927	-0.200778	-0.021854
H81	H	0.411181	-0.193131	0.033126
H82	H	0.431690	-0.094692	-0.108791
H83	H	0.359937	-0.087049	-0.053826
O84	O	0.802087	-0.380446	-0.000058
C85	C	0.762542	-0.349371	-0.071257
H86	H	0.804625	-0.328799	-0.121026
H87	H	0.724636	-0.284930	-0.055156
C88	C	0.662016	-0.455531	-0.042423
C89	C	0.713704	-0.430272	-0.103553
H90	H	0.631887	-0.505432	-0.062343
H91	H	0.688656	-0.476465	0.005547
H92	H	0.630435	-0.401823	-0.029011
H93	H	0.745290	-0.483976	-0.116956
H94	H	0.687067	-0.409349	-0.151525
H95	H	0.817238	0.244723	0.796390
O96	O	0.995564	0.000333	0.197138
C97	C	1.037161	-0.056601	0.253896
H98	H	1.006067	-0.057618	0.315592
H99	H	1.095454	-0.025915	0.263089
C100	C	1.084047	-0.157619	0.144359
C101	C	1.045854	-0.158875	0.220133
H102	H	1.089413	-0.220706	0.123532
H103	H	1.056025	-0.119260	0.106119
H104	H	1.132621	-0.132044	0.152030
H105	H	0.997278	-0.184439	0.212459
H106	H	1.073868	-0.197241	0.258371
O107	O	0.995446	0.000337	0.367656
C108	C	0.950989	-0.058064	0.417746
H109	H	0.891198	-0.059578	0.391677
H110	H	0.949031	-0.028401	0.483336
C111	C	1.059274	-0.158024	0.451093
C112	C	0.985840	-0.159890	0.419071
H113	H	1.080772	-0.220834	0.451915
H114	H	1.089227	-0.118677	0.417350
H115	H	1.057633	-0.133300	0.505749
H116	H	0.987483	-0.184601	0.364414
H117	H	0.955888	-0.199244	0.452806
O118	O	0.809798	0.254944	0.632709
C119	C	0.768214	0.311882	0.689463
H120	H	0.799322	0.312904	0.751149
H121	H	0.709923	0.281196	0.698684
C122	C	0.721302	0.412891	0.579912
C123	C	0.759513	0.414153	0.655674
H124	H	0.715931	0.475976	0.559069
H125	H	0.749316	0.374529	0.541675
H126	H	0.672731	0.387315	0.587606
H127	H	0.808086	0.439717	0.647977
H128	H	0.731507	0.452522	0.693910
H129	H	0.817202	0.244692	0.360817
H130	H	0.524117	0.286865	0.000075
H131	H	0.817188	0.244692	0.203802
H132	H	0.269670	0.281773	0.000089
H133	H	0.126251	0.278904	0.000101
H134	H	0.137848	-0.034456	0.000128
H135	H	0.281255	-0.031590	0.000127
H136	H	0.988174	0.010583	0.639387
