data_functionalizedCrystal
_audit_creation_method	'MofGen! by Chris Wilmer'
_symmetry_space_group_name_H-M	'P1'
_symmetry_Int_Tables_number	1
_symmetry_cell_setting	triclinic
loop_
_symmetry_equiv_pos_as_xyz
  x,y,z
_cell_length_a	10.654550
_cell_length_b	10.654551
_cell_length_c	9.130313
_cell_angle_alpha	89.997246
_cell_angle_beta	89.999724
_cell_angle_gamma	84.485180
loop_
_atom_site_label
_atom_site_type_symbol
_atom_site_fract_x
_atom_site_fract_y
_atom_site_fract_z
O1	O	1.667840	0.176399	-0.121684
O2	O	1.302362	0.193205	-0.121710
O3	O	1.493503	0.002063	-0.121693
O4	O	1.476699	0.367541	-0.121701
O5	O	1.493490	0.002057	0.121906
O6	O	1.302349	0.193199	0.121889
O7	O	1.667827	0.176393	0.121915
Cu8	Cu	1.485087	0.184796	0.144144
Cu9	Cu	1.485102	0.184802	-0.143939
O10	O	1.476686	0.367535	0.121898
C11	C	1.255557	0.191968	0.000086
C12	C	1.116114	0.188276	0.000076
C13	C	1.492262	-0.044738	0.000104
C14	C	1.488570	-0.184181	0.000097
C15	C	1.036629	0.300818	0.000078
C16	C	0.905608	0.297341	0.000103
C17	C	0.933570	0.068772	0.000119
C18	C	1.064589	0.072249	0.000104
C19	C	1.486844	-0.249682	-0.132690
C20	C	1.483364	-0.380702	-0.132692
C21	C	1.483341	-0.380710	0.132893
C22	C	1.486812	-0.249691	0.132893
C23	C	1.405181	-0.550771	-0.292232
C24	C	1.403477	-0.616279	-0.425026
C25	C	1.478077	-0.582736	-0.542260
C26	C	1.554411	-0.483691	-0.526704
C27	C	1.556126	-0.418191	-0.393908
C28	C	1.481497	-0.451728	-0.276680
C29	C	1.565005	-0.079622	0.292423
C30	C	1.566730	-0.014121	0.425221
C31	C	1.492138	-0.047662	0.542467
C32	C	1.415823	-0.146714	0.526927
C33	C	1.414098	-0.212215	0.394128
C34	C	1.488688	-0.178664	0.276882
C35	C	1.714632	0.177630	0.000116
C36	C	1.854075	0.181322	0.000116
C37	C	1.477926	0.414336	0.000098
C38	C	1.481619	0.553779	0.000095
N39	N	1.485085	0.184790	0.346767
N40	N	1.485114	0.184798	-0.346562
C41	C	1.569751	0.100188	0.423426
C42	C	1.569763	0.100189	0.576763
C43	C	1.400439	0.269404	0.576768
C44	C	1.400421	0.269396	0.423434
H45	H	1.078576	0.395294	0.000066
Cl46	Cl	1.652079	-0.293685	-0.374345
Cl47	Cl	1.294014	0.375766	0.673156
Cl48	Cl	0.805688	0.438829	0.000107
Cl49	Cl	0.868785	-0.077082	0.000145
H50	H	1.625737	-0.052292	0.196951
H51	H	1.344418	-0.578081	-0.196785
Cl52	Cl	1.164521	-0.069243	0.000113
Cl53	Cl	1.489046	-0.167330	-0.299633
H54	H	1.615165	-0.456398	-0.622167
H55	H	1.476687	-0.636081	-0.650384
H56	H	1.481912	-0.434065	0.241011
H57	H	1.638687	0.031295	0.361008
Cl58	Cl	1.676202	-0.006175	0.673131
H59	H	1.351950	-0.292866	0.381480
H60	H	1.355056	-0.174001	0.622384
Cl61	Cl	1.307513	-0.740785	-0.444581
Cl62	Cl	1.293970	0.375755	0.327052
Cl63	Cl	1.662686	0.110392	0.444765
Cl64	Cl	1.494323	0.034673	0.709423
