data_functionalizedCrystal
_audit_creation_method	'MofGen! by Chris Wilmer'
_symmetry_space_group_name_H-M	'P1'
_symmetry_Int_Tables_number	1
_symmetry_cell_setting	triclinic
loop_
_symmetry_equiv_pos_as_xyz
  x,y,z
_cell_length_a	17.640112
_cell_length_b	25.639240
_cell_length_c	17.639477
_cell_angle_alpha	78.745603
_cell_angle_beta	114.276174
_cell_angle_gamma	101.259448
loop_
_atom_site_label
_atom_site_type_symbol
_atom_site_fract_x
_atom_site_fract_y
_atom_site_fract_z
Zn1	Zn	1.165540	-0.023810	-0.211669
Zn2	Zn	1.665540	0.476190	0.288331
Zn3	Zn	1.193275	-0.125967	-0.073862
Zn4	Zn	1.693275	0.374033	0.426138
Zn5	Zn	1.055590	-0.053258	-0.101687
Zn6	Zn	1.555590	0.446742	0.398313
Zn7	Zn	1.027698	-0.125957	-0.239423
Zn8	Zn	1.527698	0.374043	0.260577
O9	O	1.110526	-0.082248	-0.156660
O10	O	1.610526	0.417752	0.343340
O11	O	1.284529	-0.025042	-0.170128
O12	O	1.784529	0.474958	0.329872
O13	O	1.198291	-0.128650	0.037762
O14	O	1.698291	0.371350	0.537762
O15	O	1.070241	0.023827	-0.116305
O16	O	1.570241	0.523827	0.383695
O17	O	1.304905	-0.100096	-0.068882
O18	O	1.804905	0.399904	0.431118
O19	O	1.151021	0.045461	-0.197109
O20	O	1.651021	0.545461	0.302891
O21	O	1.097134	-0.075231	0.017320
O22	O	1.597134	0.424769	0.517320
O23	O	0.936581	-0.075221	-0.143218
O24	O	1.436581	0.424779	0.356782
O25	O	1.022703	-0.100079	-0.351057
O26	O	1.522703	0.399921	0.148943
O27	O	0.916089	-0.128633	-0.244412
O28	O	1.416089	0.371367	0.255588
O29	O	1.123975	-0.025032	-0.330666
O30	O	1.623975	0.474968	0.169334
O31	O	1.171245	-0.199144	-0.095795
O32	O	1.671245	0.300856	0.404205
O33	O	1.049596	-0.199136	-0.217432
O34	O	1.549596	0.300864	0.282568
C35	C	0.896436	-0.105122	-0.199846
C36	C	1.396436	0.394878	0.300154
C37	C	0.804844	-0.114917	-0.218341
C38	C	1.304844	0.385083	0.281659
C39	C	1.110422	-0.218110	-0.156619
C40	C	1.610422	0.281890	0.343381
C41	C	1.110448	-0.276221	-0.156614
C42	C	1.610448	0.223779	0.343386
C43	C	0.556757	-0.007820	-0.016164
C44	C	1.056757	0.492180	0.483836
C45	C	0.470690	-0.017034	-0.033553
C46	C	0.970690	0.482966	0.466447
C47	C	0.449442	-0.072763	-0.138745
C48	C	0.949442	0.427237	0.361255
C49	C	0.535509	-0.063552	-0.121367
C50	C	1.035509	0.436448	0.378633
C51	C	0.589160	-0.031080	-0.060075
C52	C	1.089160	0.468920	0.439925
C53	C	0.567912	-0.086812	-0.165278
C54	C	1.067912	0.413188	0.334722
C55	C	0.653972	-0.077603	-0.147898
C56	C	1.153972	0.422397	0.352102
C57	C	0.707629	-0.045134	-0.086607
C58	C	1.207629	0.454866	0.413393
C59	C	0.675220	-0.021871	-0.042695
C60	C	1.175220	0.478129	0.457305
C61	C	0.514260	-0.119286	-0.226566
C62	C	1.014260	0.380714	0.273434
C63	C	0.546663	-0.142547	-0.270477
C64	C	1.046663	0.357453	0.229523
C65	C	0.632724	-0.133335	-0.253102
C66	C	1.132724	0.366665	0.246898
C67	C	0.686381	-0.100866	-0.191810
C68	C	1.186381	0.399134	0.308190
C69	C	0.665133	-0.156598	-0.297014
C70	C	1.165133	0.343402	0.202986
C71	C	0.751192	-0.147389	-0.279634
C72	C	1.251192	0.352611	0.220366
C73	C	0.772441	-0.091657	-0.174430
C74	C	1.272441	0.408343	0.325570
C75	C	1.152595	-0.625251	-0.198824
C76	C	1.652595	-0.125251	0.301176
C77	C	1.152616	-0.679851	-0.198836
C78	C	1.652616	-0.179851	0.301164
O79	O	1.188326	-0.698474	-0.234686
O80	O	1.688326	-0.198474	0.265314
N81	N	1.110624	-0.718466	-0.156717
N82	N	1.610624	-0.218466	0.343283
C83	C	1.068602	-0.702480	-0.114590
C84	C	1.568602	-0.202480	0.385410
O85	O	1.032885	-0.740339	-0.078766
O86	O	1.532885	-0.240339	0.421234
C87	C	1.068576	-0.647881	-0.114584
C88	C	1.568576	-0.147881	0.385416
C89	C	1.110578	-0.609267	-0.156699
C90	C	1.610578	-0.109267	0.343301
C91	C	1.194593	-0.586638	-0.240936
C92	C	1.694593	-0.086638	0.259064
C93	C	1.194573	-0.532042	-0.240923
C94	C	1.694573	-0.032042	0.259077
C95	C	1.152555	-0.516059	-0.198798
C96	C	1.652555	-0.016059	0.301202
C97	C	1.110558	-0.554671	-0.156685
C98	C	1.610558	-0.054671	0.343315
C99	C	1.026549	-0.631895	-0.072462
C100	C	1.526549	-0.131895	0.427538
C101	C	1.026527	-0.577291	-0.072460
C102	C	1.526527	-0.077291	0.427540
C103	C	1.068528	-0.538678	-0.114575
C104	C	1.568528	-0.038678	0.385425
C105	C	1.068521	-0.484092	-0.114546
C106	C	1.568521	0.015908	0.385454
N107	N	1.110513	-0.445476	-0.156666
N108	N	1.610513	0.054524	0.343334
C109	C	1.152530	-0.461460	-0.198791
C110	C	1.652530	0.038540	0.301209
C111	C	1.068657	-0.817141	-0.114608
C112	C	1.568657	-0.317141	0.385392
C113	C	1.068687	-0.871739	-0.114609
C114	C	1.568687	-0.371739	0.385391
C115	C	1.152700	-0.849106	-0.198856
C116	C	1.652700	-0.349106	0.301144
C117	C	1.152675	-0.794507	-0.198850
C118	C	1.652675	-0.294507	0.301150
C119	C	1.110649	-0.778525	-0.156727
C120	C	1.610649	-0.278525	0.343273
C121	C	1.152486	-0.346805	-0.198759
C122	C	1.652486	0.153195	0.301241
C123	C	1.152465	-0.292205	-0.198739
C124	C	1.652465	0.207795	0.301261
C125	C	1.068449	-0.314842	-0.114496
C126	C	1.568449	0.185158	0.385504
C127	C	1.068473	-0.369437	-0.114512
C128	C	1.568473	0.130563	0.385488
C129	C	1.110493	-0.385416	-0.156650
C130	C	1.610493	0.114584	0.343350
O131	O	1.032827	-0.465429	-0.078717
O132	O	1.532827	0.034571	0.421283
O133	O	1.188231	-0.423596	-0.234618
O134	O	1.688231	0.076404	0.265382
C135	C	1.325452	-0.059285	-0.113306
C136	C	1.825452	0.440715	0.386694
C137	C	1.417040	-0.049500	-0.094831
C138	C	1.917040	0.450500	0.405169
C139	C	1.067134	-0.059270	-0.371597
C140	C	1.567134	0.440730	0.128403
C141	C	1.048643	-0.049478	-0.463191
C142	C	1.548643	0.450522	0.036809
C143	C	1.110648	0.054149	-0.156715
C144	C	1.610648	0.554149	0.343285
C145	C	1.110701	0.112273	-0.156738
C146	C	1.610701	0.612273	0.343262
C147	C	1.251175	-0.156336	-0.711187
C148	C	1.751175	0.343664	-0.211187
C149	C	1.233790	-0.147130	-0.797255
C150	C	1.733790	0.352870	-0.297255
C151	C	1.128462	-0.091508	-0.818540
C152	C	1.628462	0.408492	-0.318540
C153	C	1.145836	-0.100712	-0.732472
C154	C	1.645836	0.399288	-0.232472
C155	C	1.207194	-0.133125	-0.678802
C156	C	1.707194	0.366875	-0.178802
C157	C	1.101855	-0.077501	-0.700088
C158	C	1.601855	0.422499	-0.200088
C159	C	1.119231	-0.086701	-0.614027
C160	C	1.619231	0.413299	-0.114027
C161	C	1.180588	-0.119112	-0.560351
C162	C	1.680588	0.380888	-0.060351
C163	C	1.224570	-0.142326	-0.592742
C164	C	1.724570	0.357674	-0.092742
C165	C	1.040501	-0.045084	-0.753758
C166	C	1.540501	0.454916	-0.253758
C167	C	0.996520	-0.021874	-0.721373
C168	C	1.496520	0.478126	-0.221373
C169	C	1.013891	-0.031077	-0.635312
C170	C	1.513891	0.468923	-0.135312
C171	C	1.075248	-0.063488	-0.581637
C172	C	1.575248	0.436512	-0.081637
C173	C	0.969909	-0.007863	-0.602922
C174	C	1.469909	0.492137	-0.102922
C175	C	0.987285	-0.017064	-0.516861
C176	C	1.487285	0.482936	-0.016861
C177	C	1.092624	-0.072688	-0.495576
C178	C	1.592624	0.427312	0.004424
C179	C	1.153796	-0.105094	0.057451
C180	C	1.653796	0.394906	0.557451
C181	C	1.172447	-0.114722	0.149076
C182	C	1.672447	0.385278	0.649076
H183	H	0.816125	-0.065207	-0.124532
H184	H	1.316125	0.434793	0.375468
H185	H	0.992347	-0.663326	-0.038167
H186	H	1.492347	-0.163326	0.461833
C187	C	1.292055	-0.177987	-0.533701
C188	C	1.792055	0.322013	-0.033701
H189	H	1.315762	-0.190495	-0.565312
H190	H	1.815762	0.309505	-0.065312
H191	H	1.267284	-0.207725	-0.506480
H192	H	1.767284	0.292275	-0.006480
H193	H	1.334759	-0.157735	-0.492894
H194	H	1.834759	0.342265	0.007106
H195	H	0.951474	0.001839	-0.490493
H196	H	1.451474	0.501839	0.009507
C197	C	1.240771	-0.489574	-0.287254
C198	C	1.740771	0.010426	0.212746
H199	H	1.265789	-0.506921	-0.312345
H200	H	1.765789	-0.006921	0.187655
H201	H	1.283052	-0.467792	-0.248513
H202	H	1.783052	0.032208	0.251487
H203	H	1.201967	-0.467817	-0.329501
H204	H	1.701967	0.032183	0.170499
H205	H	1.026360	-0.037592	-0.823833
H206	H	1.526360	0.462408	-0.323833
H207	H	0.992301	-0.564283	-0.038160
H208	H	1.492301	-0.064283	0.461840
C209	C	0.902423	0.027791	-0.661963
C210	C	1.402423	0.527791	-0.161963
H211	H	0.898373	0.029945	-0.717856
H212	H	1.398373	0.529945	-0.217856
H213	H	0.917359	0.062706	-0.645438
H214	H	1.417359	0.562706	-0.145438
H215	H	0.849895	0.012711	-0.659029
H216	H	1.349895	0.512711	-0.159029
H217	H	1.034279	-0.400879	-0.080211
H218	H	1.534279	0.099121	0.419789
H219	H	0.777704	-0.037638	-0.072455
H220	H	1.277704	0.462362	0.427545
H221	H	0.444311	0.001914	0.002203
H222	H	0.944311	0.501914	0.502203
C223	C	1.022229	-0.297252	-0.068166
C224	C	1.522229	0.202748	0.431834
H225	H	1.028228	-0.259205	-0.074202
H226	H	1.528228	0.240795	0.425798
H227	H	1.045503	-0.310835	-0.010366
H228	H	1.545503	0.189165	0.489634
H229	H	0.964428	-0.310858	-0.091365
H230	H	1.464428	0.189142	0.408635
C231	C	1.198660	-0.249733	-0.245076
C232	C	1.698660	0.250267	0.254924
H233	H	1.223677	-0.267075	-0.270174
H234	H	1.723677	0.232925	0.229826
H235	H	1.240941	-0.227949	-0.206338
H236	H	1.740941	0.272051	0.293662
H237	H	1.159850	-0.227977	-0.287320
H238	H	1.659850	0.272023	0.212680
H239	H	1.142596	-0.099077	-0.451872
H240	H	1.642596	0.400923	0.048128
C241	C	1.240822	-0.604211	-0.287273
C242	C	1.740822	-0.104211	0.212727
H243	H	1.265831	-0.573389	-0.312343
H244	H	1.765831	-0.073389	0.187657
H245	H	1.202050	-0.625053	-0.329524
H246	H	1.702050	-0.125053	0.170476
H247	H	1.283126	-0.625023	-0.248527
H248	H	1.783126	-0.125023	0.251473
H249	H	1.301147	-0.182725	-0.667484
H250	H	1.801147	0.317275	-0.167484
C251	C	0.390422	-0.108477	-0.206165
C252	C	0.890422	0.391523	0.293835
H253	H	0.334526	-0.110628	-0.210232
H254	H	0.834526	0.389372	0.289768
H255	H	0.406959	-0.143388	-0.191163
H256	H	0.906959	0.356612	0.308837
H257	H	0.393361	-0.093439	-0.258706
H258	H	0.893361	0.406561	0.241294
H259	H	1.186696	-0.359807	-0.233079
H260	H	1.686696	0.140193	0.266921
H261	H	0.444186	-0.126783	-0.240715
H262	H	0.944186	0.373217	0.259285
H263	H	0.718904	0.004580	0.007204
H264	H	1.218904	0.504580	0.507204
H265	H	0.600441	0.018631	0.033735
H266	H	1.100441	0.518631	0.533735
C267	C	1.198859	-0.752037	-0.245193
C268	C	1.698859	-0.252037	0.254807
H269	H	1.223877	-0.769382	-0.270287
H270	H	1.723877	-0.269382	0.229713
H271	H	1.241137	-0.730248	-0.206462
H272	H	1.741137	-0.230248	0.293538
H273	H	1.160042	-0.730287	-0.287441
H274	H	1.660042	-0.230287	0.212559
C275	C	0.606112	-0.192316	-0.364428
C276	C	1.106112	0.307684	0.135572
H277	H	0.550217	-0.194467	-0.368491
H278	H	1.050217	0.305533	0.131509
H279	H	0.622652	-0.227226	-0.349420
H280	H	1.122652	0.272774	0.150580
H281	H	0.609045	-0.177281	-0.416972
H282	H	1.109045	0.322719	0.083028
C283	C	0.487643	-0.178260	-0.337897
C284	C	0.987643	0.321740	0.162103
H285	H	0.431747	-0.180411	-0.341964
H286	H	0.931747	0.319589	0.158036
H287	H	0.504180	-0.213172	-0.322895
H288	H	1.004180	0.286828	0.177105
H289	H	0.490582	-0.163222	-0.390438
H290	H	0.990582	0.336778	0.109562
H291	H	1.034495	-0.903174	-0.080304
H292	H	1.534495	-0.403174	0.419696
C293	C	1.022438	-0.799566	-0.068257
C294	C	1.522438	-0.299566	0.431743
H295	H	0.997443	-0.830386	-0.043170
H296	H	1.497443	-0.330386	0.456830
H297	H	0.980139	-0.778750	-0.106987
H298	H	1.480139	-0.278750	0.393013
H299	H	1.061229	-0.778727	-0.026004
H300	H	1.561229	-0.278727	0.473996
H301	H	0.777575	-0.166329	-0.315391
H302	H	1.277575	0.333671	0.184609
C303	C	1.282179	-0.172660	-0.832875
C304	C	1.782179	0.327340	-0.332875
H305	H	1.321207	-0.193283	-0.788583
H306	H	1.821207	0.306717	-0.288583
H307	H	1.311318	-0.145228	-0.859211
H308	H	1.811318	0.354772	-0.359211
H309	H	1.243862	-0.195228	-0.872797
H310	H	1.743862	0.304772	-0.372797
H311	H	1.194736	-0.126601	-0.490275
H312	H	1.694736	0.373399	0.009725
C313	C	1.198913	-0.866695	-0.245200
C314	C	1.698913	-0.366695	0.254800
H315	H	1.192902	-0.904743	-0.239175
H316	H	1.692902	-0.404743	0.260825
H317	H	1.256711	-0.853089	-0.222018
H318	H	1.756711	-0.353089	0.277982
H319	H	1.175621	-0.853112	-0.303002
H320	H	1.675621	-0.353112	0.196998
H321	H	1.078506	-0.065115	-0.862249
H322	H	1.578506	0.434885	-0.362249
H323	H	0.946564	0.004519	-0.765083
H324	H	1.446564	0.504519	-0.265083
