data_functionalizedCrystal
_audit_creation_method	'MofGen! by Chris Wilmer'
_symmetry_space_group_name_H-M	'P1'
_symmetry_Int_Tables_number	1
_symmetry_cell_setting	triclinic
loop_
_symmetry_equiv_pos_as_xyz
  x,y,z
_cell_length_a	8.140239
_cell_length_b	9.065218
_cell_length_c	9.065218
_cell_angle_alpha	85.015885
_cell_angle_beta	89.997198
_cell_angle_gamma	89.998314
loop_
_atom_site_label
_atom_site_type_symbol
_atom_site_fract_x
_atom_site_fract_y
_atom_site_fract_z
O1	O	-0.136610	0.216355	1.960398
O2	O	0.196723	0.549688	2.293731
O3	O	0.530056	0.883021	2.627065
O4	O	-0.136612	0.234101	1.531113
O5	O	0.196721	0.567434	1.864446
O6	O	0.530055	0.900768	2.197780
O7	O	-0.136608	0.010585	1.754629
O8	O	0.196726	0.343919	2.087962
O9	O	0.530059	0.677252	2.421295
O10	O	-0.136615	0.439870	1.736882
O11	O	0.196719	0.773204	2.070216
O12	O	0.530052	1.106537	2.403549
O13	O	0.136619	0.010583	1.754616
O14	O	0.469953	0.343916	2.087950
O15	O	0.803286	0.677249	2.421283
O16	O	0.136615	0.234098	1.531101
O17	O	0.469948	0.567432	1.864434
O18	O	0.803282	0.900765	2.197767
O19	O	0.136617	0.216352	1.960385
O20	O	0.469950	0.549685	2.293719
O21	O	0.803283	0.883019	2.627052
Zn22	Zn	0.179997	0.225225	1.745741
Zn23	Zn	0.513330	0.558558	2.079074
Zn24	Zn	0.846663	0.891891	2.412408
Zn25	Zn	-0.179992	0.225228	1.745758
Zn26	Zn	0.153341	0.558562	2.079091
Zn27	Zn	0.486675	0.891895	2.412424
O28	O	0.136613	0.439868	1.736870
O29	O	0.469946	0.773201	2.070203
O30	O	0.803279	1.106534	2.403536
C31	C	0.000001	0.232394	1.476120
C32	C	0.333335	0.565727	1.809454
C33	C	0.666668	0.899061	2.142787
C34	C	0.000000	0.227294	1.312277
C35	C	0.333334	0.560628	1.645611
C36	C	0.666667	0.893961	1.978944
N37	N	0.425679	0.225221	1.745741
N38	N	0.759012	0.558555	2.079074
N39	N	1.092346	0.891888	2.412407
C40	C	0.000003	-0.044403	1.752917
C41	C	0.333336	0.288931	2.086250
C42	C	0.666670	0.622264	2.419584
C43	C	-0.000005	-0.208245	1.747817
C44	C	0.333329	0.125088	2.081151
C45	C	0.666662	0.458421	2.414484
N46	N	-0.425674	0.225220	1.745770
N47	N	-0.092341	0.558553	2.079103
N48	N	0.240992	0.891887	2.412436
C49	C	-0.000002	0.494855	1.738582
C50	C	0.333331	0.828189	2.071915
C51	C	0.666665	1.161522	2.405248
C52	C	-0.000005	0.658698	1.743681
C53	C	0.333328	0.992032	2.077015
C54	C	0.666662	1.325365	2.410348
C55	C	-0.000000	0.218059	2.015378
C56	C	0.333333	0.551392	2.348712
C57	C	0.666667	0.884725	2.682045
C58	C	-0.000010	0.223158	2.179221
C59	C	0.333323	0.556492	2.512555
C60	C	0.666657	0.889825	2.845888
