data_functionalizedCrystal
_audit_creation_method	'MofGen! by Chris Wilmer'
_symmetry_space_group_name_H-M	'P1'
_symmetry_Int_Tables_number	1
_symmetry_cell_setting	triclinic
loop_
_symmetry_equiv_pos_as_xyz
  x,y,z
_cell_length_a	23.532407
_cell_length_b	23.532407
_cell_length_c	15.072220
_cell_angle_alpha	89.994175
_cell_angle_beta	89.992868
_cell_angle_gamma	82.848678
loop_
_atom_site_label
_atom_site_type_symbol
_atom_site_fract_x
_atom_site_fract_y
_atom_site_fract_z
O1	O	0.755267	0.069131	-0.073681
O2	O	0.589403	0.079134	-0.073708
O3	O	0.677336	-0.008799	-0.073677
O4	O	0.667333	0.157064	-0.073711
O5	O	0.677315	-0.008794	0.073888
O6	O	0.589382	0.079139	0.073857
O7	O	0.755245	0.069136	0.073884
Zn8	Zn	0.672310	0.074138	0.097300
Zn9	Zn	0.672338	0.074132	-0.097123
O10	O	0.667312	0.157069	0.073854
C11	C	0.568176	0.078882	0.000071
C12	C	0.504959	0.078116	0.000062
C13	C	0.105856	0.125350	0.000092
C14	C	0.046456	0.124638	0.000098
O15	O	0.009711	0.168424	0.000121
N16	N	0.023830	0.072362	0.000107
C17	C	0.060607	0.020794	0.000120
O18	O	0.035908	-0.023737	0.000129
C19	C	0.120006	0.021506	0.000120
C20	C	0.142629	0.073785	0.000102
C21	C	0.128479	0.177625	0.000075
C22	C	0.187876	0.178336	0.000067
C23	C	0.224649	0.126772	0.000078
C24	C	0.202025	0.074497	0.000095
C25	C	0.156783	-0.030062	0.000139
C26	C	0.216185	-0.029345	0.000141
C27	C	0.238808	0.022934	0.000123
C28	C	0.298194	0.023643	0.000098
N29	N	0.320820	0.075920	0.000088
C30	C	0.284048	0.127484	0.000078
C31	C	-0.064135	0.019302	0.000120
C32	C	-0.123533	0.018589	0.000112
C33	C	-0.137680	0.122434	0.000092
C34	C	-0.078281	0.123146	0.000093
C35	C	-0.041509	0.071578	0.000110
C36	C	0.408784	0.128974	0.000062
C37	C	0.468186	0.129680	0.000051
C38	C	0.482329	0.025836	0.000077
C39	C	0.422932	0.025129	0.000083
C40	C	0.386160	0.076702	0.000079
O41	O	0.334974	-0.020119	0.000078
O42	O	0.308755	0.172007	0.000081
C43	C	0.677071	-0.030013	0.000108
C44	C	0.676305	-0.093230	0.000114
C45	C	0.723539	-0.492333	0.000073
C46	C	0.722827	-0.551733	0.000066
O47	O	0.766613	-0.588478	0.000041
N48	N	0.670551	-0.574359	0.000059
C49	C	0.618983	-0.537582	0.000048
O50	O	0.574452	-0.562281	0.000040
C51	C	0.619695	-0.478182	0.000049
C52	C	0.671974	-0.455560	0.000066
C53	C	0.775814	-0.469710	0.000089
C54	C	0.776525	-0.410313	0.000098
C55	C	0.724961	-0.373540	0.000090
C56	C	0.672685	-0.396164	0.000074
C57	C	0.568127	-0.441406	0.000032
C58	C	0.568844	-0.382004	0.000032
C59	C	0.621123	-0.359381	0.000049
C60	C	0.621832	-0.299995	0.000075
N61	N	0.674109	-0.277368	0.000083
C62	C	0.725673	-0.314141	0.000091
C63	C	0.617491	-0.662324	0.000046
C64	C	0.616778	-0.721722	0.000052
C65	C	0.720623	-0.735869	0.000068
C66	C	0.721335	-0.676470	0.000069
C67	C	0.669767	-0.639698	0.000054
C68	C	0.727163	-0.189405	0.000109
C69	C	0.727869	-0.130003	0.000122
C70	C	0.624025	-0.115860	0.000101
C71	C	0.623318	-0.175257	0.000093
C72	C	0.674891	-0.212029	0.000094
O73	O	0.578070	-0.263215	0.000097
O74	O	0.770196	-0.289433	0.000087
C75	C	0.776472	0.069388	0.000103
C76	C	0.839689	0.070154	0.000107
C77	C	0.667577	0.178283	0.000067
C78	C	0.668343	0.241500	0.000054
N79	N	0.672294	0.074142	0.229989
N80	N	0.672358	0.074123	-0.229812
C81	C	0.672337	0.074130	0.589190
C82	C	0.625130	0.121025	0.551567
C83	C	0.625236	0.121195	0.448741
C84	C	0.672315	0.074136	0.410986
C85	C	0.731666	0.086779	0.448284
C86	C	0.731401	0.087112	0.551142
C87	C	0.660725	0.014450	0.551300
C88	C	0.659359	0.014856	0.448437
C89	C	0.672307	0.074138	0.310273
C90	C	0.672350	0.074128	0.689904
H91	H	-0.167632	0.164421	0.000088
N92	N	0.369139	0.184604	0.000054
H93	H	0.344180	0.186628	-0.054646
H94	H	0.344213	0.186602	0.054795
N95	N	-0.147930	-0.037797	0.000116
H96	H	-0.115616	-0.070352	0.000121
H97	H	-0.172268	-0.040356	0.054823
H98	H	0.138375	-0.072634	0.000155
H99	H	0.763906	-0.658056	0.000082
N100	N	0.398527	-0.031256	0.000086
H101	H	0.430838	-0.063814	0.000086
H102	H	0.374191	-0.033813	0.054796
H103	H	-0.034198	-0.022693	0.000126
H104	H	0.525555	-0.459814	0.000013
H105	H	0.512280	-0.016146	0.000081
N106	N	0.601525	0.002156	0.416141
H107	H	0.606248	-0.034539	0.380667
H108	H	0.575800	-0.002127	0.468732
H109	H	0.526850	-0.352066	0.000019
N110	N	0.212272	0.234724	0.000043
H111	H	0.179956	0.267277	0.000038
H112	H	0.236605	0.237289	0.054745
H113	H	0.580748	-0.193677	0.000104
H114	H	0.695155	-0.020444	0.575631
N115	N	0.784259	-0.105603	0.000145
H116	H	0.816815	-0.137915	0.000146
H117	H	0.786826	-0.081260	-0.054555
N118	N	0.255847	-0.084966	0.000166
H119	H	0.232498	-0.118189	0.000178
H120	H	0.280804	-0.086940	-0.054539
H121	H	0.762610	-0.765821	0.000071
H122	H	0.582043	-0.085909	0.000098
H123	H	0.574207	-0.740136	0.000053
N124	N	0.566786	0.111285	0.415330
H125	H	0.540719	0.106768	0.467420
H126	H	0.550231	0.145073	0.378199
H127	H	0.580859	0.113670	0.576323
H128	H	0.819097	-0.391900	0.000108
N129	N	0.782787	-0.229060	0.000111
H130	H	0.816007	-0.205707	0.000124
H131	H	0.784747	-0.254017	0.054814
N132	N	0.831434	-0.509367	0.000098
H133	H	0.864653	-0.486012	0.000109
H134	H	0.833394	-0.534320	0.054806
N135	N	0.561868	-0.622664	0.000038
H136	H	0.528647	-0.646015	0.000034
H137	H	0.559891	-0.597714	0.054743
N138	N	0.088822	0.233245	0.000114
H139	H	0.112176	0.266464	0.000120
H140	H	0.063860	0.235234	-0.054577
H141	H	0.632406	0.165070	0.577398
N142	N	0.634859	0.179908	0.416116
H143	H	0.639068	0.205775	0.468553
H144	H	0.670826	0.176785	0.378947
H145	H	-0.059867	0.165717	0.000083
N146	N	0.745024	0.144748	0.582908
H147	H	0.751143	0.169700	0.530095
H148	H	0.712097	0.163653	0.619705
H149	H	0.767609	0.054284	0.576029
H150	H	0.767620	0.053517	0.423827
H151	H	0.742205	0.129794	0.422508
H152	H	0.618404	0.002210	0.577287
H153	H	0.691535	-0.021650	0.422741
H154	H	0.486602	0.172255	0.000036
