data_functionalizedCrystal
_audit_creation_method	'MofGen! by Chris Wilmer'
_symmetry_space_group_name_H-M	'P1'
_symmetry_Int_Tables_number	1
_symmetry_cell_setting	triclinic
loop_
_symmetry_equiv_pos_as_xyz
  x,y,z
_cell_length_a	23.532355
_cell_length_b	23.532407
_cell_length_c	11.295692
_cell_angle_alpha	85.388725
_cell_angle_beta	85.384762
_cell_angle_gamma	82.838088
loop_
_atom_site_label
_atom_site_type_symbol
_atom_site_fract_x
_atom_site_fract_y
_atom_site_fract_z
O1	O	0.751885	0.065594	0.098872
O2	O	0.586016	0.075627	0.098911
O3	O	0.673953	-0.012321	0.098868
O4	O	0.663948	0.153542	0.098914
O5	O	0.680743	-0.005514	-0.099175
O6	O	0.592806	0.082435	-0.099132
O7	O	0.758675	0.072402	-0.099172
Cu8	Cu	0.676361	0.078040	-0.117235
Cu9	Cu	0.668330	0.069989	0.116974
O10	O	0.670738	0.160350	-0.099129
C11	C	0.568194	0.078780	-0.000106
C12	C	0.504975	0.078025	-0.000092
C13	C	0.677093	-0.030133	-0.000156
C14	C	0.676328	-0.093350	-0.000165
C15	C	0.116665	0.077000	-0.108096
C16	C	0.057265	0.076282	-0.108101
O17	O	0.029695	0.079048	-0.199910
N18	N	0.023855	0.072216	-0.000148
C19	C	0.049849	0.068860	0.107817
O20	O	0.015977	0.065335	0.199639
C21	C	0.109247	0.069574	0.107820
C22	C	0.142654	0.073646	-0.000140
C23	C	0.150071	0.081072	-0.216047
C24	C	0.209466	0.081790	-0.216042
C25	C	0.235455	0.078436	-0.108086
C26	C	0.202048	0.074365	-0.000134
C27	C	0.135240	0.066214	0.215784
C28	C	0.194643	0.066927	0.215778
C29	C	0.228049	0.071000	0.107818
C30	C	0.287432	0.071729	0.107827
N31	N	0.320842	0.075796	-0.000126
C32	C	0.294853	0.079150	-0.108082
C33	C	-0.074892	0.067362	0.107801
C34	C	-0.134291	0.066653	0.107799
C35	C	-0.126870	0.074074	-0.108119
C36	C	-0.067471	0.074787	-0.108116
C37	C	-0.041483	0.071429	-0.000152
C38	C	0.419587	0.080658	-0.108063
C39	C	0.478986	0.081379	-0.108048
C40	C	0.471561	0.073954	0.107869
C41	C	0.412166	0.073237	0.107855
C42	C	0.386181	0.076587	-0.000120
O43	O	0.315043	0.068964	0.199590
O44	O	0.328733	0.082667	-0.199889
C45	C	0.723561	-0.492464	-0.000111
C46	C	0.722849	-0.551864	-0.000102
O47	O	0.766635	-0.588618	-0.000068
N48	N	0.670571	-0.574481	-0.000090
C49	C	0.619001	-0.537694	-0.000076
O50	O	0.574469	-0.562386	-0.000064
C51	C	0.619713	-0.478295	-0.000077
C52	C	0.671995	-0.455682	-0.000100
C53	C	0.775838	-0.469849	-0.000134
C54	C	0.776550	-0.410453	-0.000145
C55	C	0.724984	-0.373671	-0.000134
C56	C	0.672706	-0.396285	-0.000112
C57	C	0.568143	-0.441510	-0.000054
C58	C	0.568860	-0.382108	-0.000053
C59	C	0.621142	-0.359494	-0.000077
C60	C	0.621852	-0.300107	-0.000112
N61	N	0.674130	-0.277490	-0.000124
C62	C	0.725696	-0.314272	-0.000135
C63	C	0.617509	-0.662437	-0.000072
C64	C	0.616797	-0.721834	-0.000080
C65	C	0.720645	-0.736000	-0.000104
C66	C	0.721357	-0.676601	-0.000105
C67	C	0.669787	-0.639820	-0.000084
C68	C	0.727187	-0.189535	-0.000160
C69	C	0.727894	-0.130132	-0.000176
C70	C	0.624046	-0.115972	-0.000146
C71	C	0.623338	-0.175369	-0.000136
C72	C	0.674913	-0.212149	-0.000139
O73	O	0.578089	-0.263318	-0.000141
O74	O	0.770220	-0.289572	-0.000131
C75	C	0.776497	0.069249	-0.000152
C76	C	0.839716	0.070003	-0.000158
C77	C	0.667598	0.178162	-0.000102
C78	C	0.668363	0.241378	-0.000085
N79	N	0.682013	0.083702	-0.281965
C80	C	0.722789	0.124485	-0.468941
C81	C	0.718499	0.120204	-0.344282
C82	C	0.649812	0.051481	-0.344316
C83	C	0.654101	0.055763	-0.468975
C84	C	0.690592	0.092265	-0.531283
C85	C	0.694884	0.096543	-0.655945
C86	C	0.626194	0.027824	-0.655976
C87	C	0.621904	0.023543	-0.531317
N88	N	0.662683	0.064322	0.281705
H89	H	0.506183	0.084697	-0.195966
O90	O	0.827328	-0.388455	-0.000362
C91	C	0.834368	-0.350990	-0.102914
H92	H	0.807149	-0.362405	-0.174605
H93	H	0.881482	-0.355407	-0.137342
H94	H	0.820168	-0.304864	-0.079722
H95	H	-0.053738	0.064632	0.195724
O96	O	0.770684	-0.771820	-0.000047
C97	C	0.758839	-0.829093	-0.000064
H98	H	0.712830	-0.832395	0.037432
H99	H	0.789751	-0.858167	0.057438
H100	H	0.764359	-0.843030	-0.095072
O101	O	0.825988	-0.505492	-0.000201
C102	C	0.872274	-0.472783	-0.000189
H103	H	0.858833	-0.427079	-0.037672
H104	H	0.910356	-0.492918	-0.057705
H105	H	0.885060	-0.471903	0.094816
H106	H	0.108050	0.062897	0.303697
O107	O	-0.166789	0.062629	0.212595
C108	C	-0.194621	0.012654	0.219063
H109	H	-0.198059	-0.000679	0.125329
H110	H	-0.239472	0.021674	0.264764
H111	H	-0.168839	-0.023443	0.272326
H112	H	0.398437	0.083392	-0.195987
H113	H	0.215799	0.064193	0.303698
H114	H	0.770470	-0.111724	-0.000199
O115	O	0.565959	-0.743704	-0.000018
C116	C	0.520604	-0.698494	-0.000043
H117	H	0.535053	-0.659516	0.037439
H118	H	0.482109	-0.712667	0.057467
H119	H	0.507973	-0.686740	-0.095052
H120	H	0.384964	0.069930	0.195765
H121	H	0.763930	-0.658194	-0.000123
O122	O	0.614337	0.016099	-0.283637
C123	C	0.572790	0.048554	-0.211550
H124	H	0.589623	0.090084	-0.192883
H125	H	0.563574	0.022685	-0.123885
H126	H	0.531579	0.059136	-0.259587
H127	H	0.236661	0.085103	-0.303955
H128	H	0.592193	-0.006175	-0.480569
H129	H	0.582062	-0.086013	-0.000141
H130	H	0.128918	0.083801	-0.303964
O131	O	0.730251	0.132038	-0.716605
C132	C	0.697782	0.173567	-0.788694
H133	H	0.656272	0.156705	-0.807389
H134	H	0.723657	0.182802	-0.876345
H135	H	0.687164	0.214773	-0.740645
H136	H	0.492731	0.071227	0.195765
H137	H	0.744717	0.146442	-0.293528
H138	H	0.599976	0.001588	-0.706748
O139	O	0.517333	-0.463446	0.000188
C140	C	0.482408	-0.448118	0.102757
H141	H	0.510536	-0.438400	0.174426
H142	H	0.457199	-0.485141	0.137206
H143	H	0.451248	-0.408420	0.079579
H144	H	0.752504	0.154203	-0.519674
H145	H	-0.148040	0.076803	-0.196024
O146	O	-0.035032	0.078637	-0.213018
C147	C	-0.040575	0.031398	-0.278717
H148	H	-0.054367	-0.005448	-0.215556
H149	H	0.002427	0.016990	-0.327698
H150	H	-0.074267	0.044452	-0.346022
O151	O	0.777340	-0.225175	-0.000220
C152	C	0.823627	-0.192468	-0.000213
H153	H	0.810189	-0.146765	-0.037706
H154	H	0.861709	-0.212607	-0.057722
H155	H	0.836412	-0.191584	0.094792
H156	H	0.575513	-0.632491	-0.000066
O157	O	0.518771	-0.346362	0.000174
C158	C	0.512566	-0.315085	0.102723
H159	H	0.539362	-0.339462	0.174405
H160	H	0.465471	-0.309329	0.137168
H161	H	0.527847	-0.271175	0.079521
H162	H	0.580767	-0.193780	-0.000150
