data_functionalizedCrystal
_audit_creation_method	'MofGen! by Chris Wilmer'
_symmetry_space_group_name_H-M	'P1'
_symmetry_Int_Tables_number	1
_symmetry_cell_setting	triclinic
loop_
_symmetry_equiv_pos_as_xyz
  x,y,z
_cell_length_a	42.784839
_cell_length_b	42.784841
_cell_length_c	42.784893
_cell_angle_alpha	90.002418
_cell_angle_beta	59.997780
_cell_angle_gamma	119.999863
loop_
_atom_site_label
_atom_site_type_symbol
_atom_site_fract_x
_atom_site_fract_y
_atom_site_fract_z
O1	O	0.275695	-0.214412	-0.009300
O2	O	0.211692	-0.168961	0.009253
O3	O	0.275692	-0.168961	-0.054750
O4	O	0.211694	-0.214412	0.054702
O5	O	0.223708	-0.220945	-0.054749
O6	O	0.159708	-0.220945	0.009253
O7	O	0.223710	-0.266397	-0.009300
Zn8	Zn	0.183455	-0.251924	-0.000023
Zn9	Zn	0.251947	-0.183433	-0.000024
O10	O	0.159710	-0.266396	0.054703
C11	C	0.051021	-0.022778	0.028112
C12	C	0.013142	-0.041761	0.028375
C13	C	0.051018	-0.079378	0.028116
C14	C	0.013139	-0.098275	0.028379
C15	C	-0.005578	-0.079377	0.028112
C16	C	0.069652	-0.041762	0.028379
C17	C	0.152948	0.113708	0.017863
C18	C	0.173786	0.152360	0.014965
C19	C	0.155902	0.171750	0.013509
C20	C	0.178499	0.213661	0.010359
C21	C	0.117177	0.152485	0.014953
C22	C	0.096339	0.113835	0.017857
C23	C	0.114226	0.094447	0.019312
C24	C	-0.131813	-0.113936	0.017859
C25	C	-0.167567	-0.131750	0.014961
C26	C	-0.185502	-0.169024	0.013506
C27	C	-0.224264	-0.188340	0.010358
C28	C	-0.167685	-0.188485	0.014954
C29	C	-0.131938	-0.170675	0.017859
C30	C	-0.114002	-0.133396	0.019309
C31	C	0.152939	-0.113943	0.017877
C32	C	0.173778	-0.131757	0.014977
C33	C	0.155892	-0.169032	0.013523
C34	C	0.178486	-0.188349	0.010377
C35	C	0.117170	-0.188491	0.014967
C36	C	0.096334	-0.170675	0.017865
C37	C	0.114220	-0.133401	0.019323
C38	C	0.091629	0.052537	0.022456
C39	C	0.073617	0.019131	0.024964
C40	C	0.073613	-0.098693	0.024971
C41	C	0.091623	-0.114089	0.022466
C42	C	-0.044339	-0.098690	0.024964
C43	C	-0.075237	-0.114084	0.022456
O44	O	-0.327856	-0.266388	-0.009322
O45	O	-0.236954	-0.220935	0.009228
O46	O	-0.236950	-0.220939	-0.054773
O47	O	-0.327860	-0.266385	0.054680
O48	O	-0.236948	-0.168954	-0.054776
O49	O	-0.236952	-0.168950	0.009225
O50	O	-0.327854	-0.214403	-0.009325
Zn51	Zn	-0.282403	-0.183423	-0.000050
Zn52	Zn	-0.282405	-0.251916	-0.000046
O53	O	-0.327858	-0.214400	0.054676
C54	C	0.384390	-0.079141	-0.361606
C55	C	0.422270	-0.041526	-0.380503
C56	C	0.384390	-0.079141	-0.305008
C57	C	0.422270	-0.041526	-0.323990
C58	C	0.440988	-0.022543	-0.361606
C59	C	0.365758	-0.098038	-0.323991
C60	C	0.282465	-0.170819	-0.396168
C61	C	0.261627	-0.188759	-0.413983
C62	C	0.279513	-0.169420	-0.451257
C63	C	0.256917	-0.188867	-0.470572
C64	C	0.318239	-0.132140	-0.470717
C65	C	0.339076	-0.114205	-0.452905
C66	C	0.321187	-0.133546	-0.415628
C67	C	0.567227	0.113942	-0.453282
C68	C	0.602981	0.152594	-0.471222
C69	C	0.620916	0.171985	-0.451883
C70	C	0.659678	0.213894	-0.471328
C71	C	0.603097	0.152719	-0.414603
C72	C	0.567349	0.114068	-0.396667
C73	C	0.549414	0.094682	-0.416011
C74	C	0.282465	-0.170819	-0.168522
C75	C	0.261624	-0.188757	-0.129868
C76	C	0.279510	-0.169418	-0.110479
C77	C	0.256914	-0.188865	-0.068568
C78	C	0.318233	-0.132140	-0.129742
C79	C	0.339070	-0.114203	-0.168394
C80	C	0.321184	-0.133548	-0.187782
C81	C	0.343783	-0.114094	-0.396315
C82	C	0.361794	-0.098590	-0.380920
C83	C	0.361794	-0.098590	-0.263099
C84	C	0.343783	-0.114094	-0.229693
C85	C	0.479750	0.019366	-0.381054
C86	C	0.510649	0.052771	-0.396557
C87	C	0.440758	-0.356212	-0.028193
C88	C	0.422041	-0.393827	-0.028459
C89	C	0.384158	-0.356213	-0.028190
C90	C	0.365526	-0.393828	-0.028456
C91	C	0.384160	-0.412810	-0.028193
C92	C	0.422038	-0.337315	-0.028456
C93	C	0.567000	-0.264532	-0.017949
C94	C	0.602755	-0.246591	-0.015053
C95	C	0.620692	-0.265931	-0.013601
C96	C	0.659455	-0.246483	-0.010453
C97	C	0.602873	-0.303210	-0.015048
C98	C	0.567125	-0.321146	-0.017949
C99	C	0.549188	-0.301805	-0.019399
C100	C	0.339356	-0.549295	-0.017951
C101	C	0.318645	-0.587947	-0.015055
C102	C	0.279915	-0.607338	-0.013597
C103	C	0.257452	-0.649247	-0.010452
C104	C	0.261899	-0.588073	-0.015042
C105	C	0.282613	-0.549422	-0.017945
C106	C	0.321343	-0.530035	-0.019397
C107	C	0.339344	-0.264537	-0.017936
C108	C	0.318628	-0.246599	-0.015032
C109	C	0.279898	-0.265939	-0.013577
C110	C	0.257433	-0.246493	-0.010426
C111	C	0.261884	-0.303217	-0.015022
C112	C	0.282601	-0.321153	-0.017924
C113	C	0.321334	-0.301808	-0.019385
C114	C	0.510421	-0.321258	-0.022542
C115	C	0.479522	-0.336762	-0.025048
C116	C	0.361696	-0.336765	-0.025041
C117	C	0.343793	-0.321261	-0.022532
C118	C	0.361701	-0.454719	-0.025047
C119	C	0.343799	-0.488125	-0.022541
O120	O	0.223728	0.336934	-0.009323
O121	O	0.159726	0.227482	0.009227
O122	O	0.223729	0.291478	-0.054775
O123	O	0.159725	0.272938	0.054678
O124	O	0.275711	0.291477	-0.054771
O125	O	0.211707	0.227481	0.009230
O126	O	0.275710	0.336932	-0.009320
Zn127	Zn	0.251962	0.282206	-0.000045
Zn128	Zn	0.183474	0.282208	-0.000049
O129	O	0.211707	0.272936	0.054681
O130	O	0.763271	0.337164	-0.496871
O131	O	0.672367	0.227713	-0.451422
O132	O	0.672365	0.291711	-0.451418
O133	O	0.763273	0.273165	-0.496876
O134	O	0.672366	0.291712	-0.503402
O135	O	0.672368	0.227714	-0.503407
O136	O	0.763272	0.337165	-0.548856
Zn137	Zn	0.717820	0.282440	-0.534385
Zn138	Zn	0.717819	0.282438	-0.465893
O139	O	0.763275	0.273167	-0.548860
O140	O	0.211690	-0.214417	-0.548617
O141	O	0.275691	-0.168962	-0.503167
O142	O	0.211689	-0.168964	-0.503163
O143	O	0.275692	-0.214415	-0.548621
O144	O	0.159706	-0.220947	-0.451179
O145	O	0.223708	-0.220945	-0.451183
O146	O	0.159707	-0.266400	-0.496633
Zn147	Zn	0.183454	-0.251926	-0.465654
Zn148	Zn	0.251944	-0.183436	-0.534146
O149	O	0.223709	-0.266398	-0.496637
C150	C	-0.005343	-0.412572	0.361558
C151	C	0.013375	-0.393590	0.380456
C152	C	0.051255	-0.355974	0.304961
C153	C	0.069887	-0.337077	0.323944
C154	C	0.051254	-0.355974	0.361560
C155	C	0.013375	-0.393589	0.323943
C156	C	-0.131582	-0.549057	0.396116
C157	C	-0.167336	-0.587709	0.413930
C158	C	-0.185271	-0.607098	0.451205
C159	C	-0.224034	-0.649009	0.470519
C160	C	-0.167452	-0.587833	0.470666
C161	C	-0.131705	-0.549184	0.452854
C162	C	-0.113770	-0.529796	0.415578
C163	C	0.096061	-0.321414	0.453239
C164	C	0.116773	-0.303600	0.471179
C165	C	0.155502	-0.266327	0.451842
C166	C	0.177965	-0.247011	0.471288
C167	C	0.173517	-0.246866	0.414562
C168	C	0.152802	-0.264677	0.396625
C169	C	0.114073	-0.301955	0.415968
C170	C	0.096064	-0.321412	0.168474
C171	C	0.116779	-0.303599	0.129820
C172	C	0.155508	-0.266324	0.110432
C173	C	0.177972	-0.247009	0.068521
C174	C	0.173522	-0.246865	0.129696
C175	C	0.152807	-0.264680	0.168348
C176	C	0.114075	-0.301953	0.187735
C177	C	-0.075004	-0.487887	0.396265
C178	C	-0.044106	-0.454481	0.380871
C179	C	0.073715	-0.336660	0.263052
C180	C	0.091618	-0.321265	0.229646
C181	C	0.073714	-0.336661	0.381009
C182	C	0.091616	-0.321267	0.396513
C183	C	0.051046	-0.022794	-0.361634
C184	C	0.069679	-0.041778	-0.380530
C185	C	-0.005555	-0.079390	-0.305034
C186	C	0.013163	-0.098288	-0.324016
C187	C	0.051045	-0.079393	-0.361631
C188	C	0.013164	-0.041775	-0.324018
C189	C	0.095858	0.113693	-0.396200
C190	C	0.116571	0.152344	-0.414015
C191	C	0.155302	0.171732	-0.451290
C192	C	0.177767	0.213642	-0.470607
C193	C	0.173317	0.152465	-0.470750
C194	C	0.152600	0.113815	-0.452936
C195	C	0.113869	0.094429	-0.415659
C196	C	0.152973	-0.113959	-0.453306
C197	C	0.173810	-0.131775	-0.471245
C198	C	0.155926	-0.169048	-0.451906
C199	C	0.178519	-0.188366	-0.471350
C200	C	0.117198	-0.188507	-0.414626
C201	C	0.096358	-0.170694	-0.396690
C202	C	0.114251	-0.133416	-0.416035
C203	C	-0.131801	-0.113944	-0.168548
C204	C	-0.167554	-0.131755	-0.129895
C205	C	-0.185491	-0.169029	-0.110504
C206	C	-0.224255	-0.188343	-0.068593
C207	C	-0.167671	-0.188490	-0.129767
C208	C	-0.131918	-0.170677	-0.168418
C209	C	-0.113988	-0.133404	-0.187808
C210	C	0.091411	0.052521	-0.396344
C211	C	0.073508	0.019115	-0.380949
C212	C	-0.044320	-0.098701	-0.263125
C213	C	-0.075220	-0.114094	-0.229719
C214	C	0.073641	-0.098707	-0.381079
C215	C	0.091652	-0.114103	-0.396582
C216	C	-0.615853	-0.356193	0.361535
C217	C	-0.634487	-0.393808	0.380433
C218	C	-0.559253	-0.356195	0.304938
C219	C	-0.577972	-0.393810	0.323921
C220	C	-0.615854	-0.412792	0.361537
C221	C	-0.577972	-0.337297	0.323920
C222	C	-0.660661	-0.264512	0.396093
C223	C	-0.681373	-0.246571	0.413906
C224	C	-0.720104	-0.265909	0.451181
C225	C	-0.742568	-0.246461	0.470495
C226	C	-0.738120	-0.303189	0.470643
C227	C	-0.717405	-0.321125	0.452831
C228	C	-0.678674	-0.301785	0.415554
C229	C	-0.717784	-0.549275	0.453218
C230	C	-0.738622	-0.587926	0.471159
C231	C	-0.720740	-0.607319	0.451822
C232	C	-0.743333	-0.649227	0.471268
C233	C	-0.682012	-0.588055	0.414542
C234	C	-0.661170	-0.549403	0.396604
C235	C	-0.679063	-0.530016	0.415946
C236	C	-0.433006	-0.264522	0.168449
C237	C	-0.397253	-0.246585	0.129796
C238	C	-0.379317	-0.265926	0.110407
C239	C	-0.340553	-0.246480	0.068496
C240	C	-0.397138	-0.303204	0.129672
C241	C	-0.432891	-0.321139	0.168324
C242	C	-0.450820	-0.301793	0.187711
C243	C	-0.656216	-0.321238	0.396242
C244	C	-0.638314	-0.336743	0.380848
C245	C	-0.520488	-0.336748	0.263028
C246	C	-0.489588	-0.321245	0.229622
C247	C	-0.638451	-0.454700	0.380987
C248	C	-0.656463	-0.488106	0.396492
C249	C	0.440756	0.310302	-0.361620
C250	C	0.422038	0.310564	-0.380518
C251	C	0.384160	0.310312	-0.305026
C252	C	0.365528	0.310574	-0.324010
C253	C	0.384159	0.310303	-0.361624
C254	C	0.422038	0.310573	-0.324006
C255	C	0.566989	0.300046	-0.396172
C256	C	0.602741	0.297145	-0.413984
C257	C	0.620675	0.295684	-0.451257
C258	C	0.659436	0.292531	-0.470569
C259	C	0.602857	0.297127	-0.470719
C260	C	0.567111	0.300033	-0.452909
C261	C	0.549177	0.301493	-0.415634
C262	C	0.339351	0.300042	-0.453303
C263	C	0.318640	0.297142	-0.471244
C264	C	0.279912	0.295690	-0.451908
C265	C	0.257449	0.292541	-0.471354
C266	C	0.261899	0.297143	-0.414629
C267	C	0.282613	0.300049	-0.396692
C268	C	0.321341	0.301496	-0.416033
C269	C	0.339354	0.300088	-0.168540
C270	C	0.318640	0.297192	-0.129888
C271	C	0.279912	0.295742	-0.110501
C272	C	0.257450	0.292601	-0.068591
C273	C	0.261898	0.297184	-0.129766
C274	C	0.282612	0.300078	-0.168417
C275	C	0.321344	0.301533	-0.187802
C276	C	0.510413	0.304640	-0.396323
C277	C	0.479516	0.307151	-0.380931
C278	C	0.361701	0.307173	-0.263117
C279	C	0.343799	0.304671	-0.229712
C280	C	0.361700	0.307154	-0.381073
C281	C	0.343798	0.304644	-0.396578
O282	O	0.275503	0.336913	-0.548651
O283	O	0.211494	0.227461	-0.503201
O284	O	0.275490	0.291455	-0.503192
O285	O	0.211507	0.272919	-0.548659
O286	O	0.223502	0.291457	-0.451211
O287	O	0.159506	0.227463	-0.451219
O288	O	0.223515	0.336915	-0.496669
Zn289	Zn	0.183256	0.282189	-0.465691
Zn290	Zn	0.251753	0.282187	-0.534179
O291	O	0.159519	0.272921	-0.496677
C292	C	0.051032	0.254111	0.361530
C293	C	0.013154	0.253851	0.380425
C294	C	0.051031	0.254102	0.304932
C295	C	0.013153	0.253842	0.323913
C296	C	-0.005564	0.254113	0.361527
C297	C	0.069663	0.253840	0.323916
C298	C	0.152954	0.264360	0.396096
C299	C	0.173791	0.267260	0.413911
C300	C	0.155906	0.268721	0.451185
C301	C	0.178502	0.271871	0.470501
C302	C	0.117182	0.267279	0.470643
C303	C	0.096345	0.264374	0.452830
C304	C	0.114233	0.262915	0.415555
C305	C	-0.131796	0.264379	0.453195
C306	C	-0.167548	0.267281	0.471133
C307	C	-0.185483	0.268734	0.451793
C308	C	-0.224243	0.271886	0.471236
C309	C	-0.167664	0.267282	0.414515
C310	C	-0.131919	0.264374	0.396581
C311	C	-0.113984	0.262925	0.415925
C312	C	0.152952	0.264325	0.168451
C313	C	0.173792	0.267221	0.129798
C314	C	0.155907	0.268673	0.110407
C315	C	0.178502	0.271814	0.068498
C316	C	0.117186	0.267232	0.129669
C317	C	0.096350	0.264339	0.168320
C318	C	0.114234	0.262881	0.187709
C319	C	0.091638	0.259769	0.396240
C320	C	0.073627	0.257260	0.380845
C321	C	0.073626	0.257242	0.263024
C322	C	0.091636	0.259743	0.229619
C323	C	-0.044324	0.257264	0.380973
C324	C	-0.075221	0.259775	0.396474
H325	H	0.167516	0.097925	0.019049
O326	O	-0.114461	-0.077753	0.019340
C327	C	-0.147342	-0.076935	0.051517
H328	H	-0.174101	-0.106877	0.073703
H329	H	-0.162593	-0.066856	0.042400
C330	C	-0.093647	-0.012432	0.041760
C331	C	-0.126510	-0.049207	0.069011
H332	H	-0.080797	0.004673	0.052550
H333	H	-0.071494	-0.012982	0.020081
H334	H	-0.106360	-0.004039	0.034165
H335	H	-0.113795	-0.057602	0.076601
H336	H	-0.148660	-0.048658	0.090691
H337	H	0.230091	-0.219108	-0.114185
O338	O	-0.184838	-0.606701	0.506846
C339	C	-0.181354	-0.637779	0.506759
H340	H	-0.153649	-0.632184	0.476844
H341	H	-0.213898	-0.665086	0.515372
C342	C	-0.205036	-0.649269	0.572183
C343	C	-0.171007	-0.642396	0.535442
H344	H	-0.198656	-0.652119	0.589877
H345	H	-0.207386	-0.628333	0.572243
H346	H	-0.232154	-0.672024	0.579355
H347	H	-0.143892	-0.619639	0.528268
H348	H	-0.168653	-0.663329	0.535382
O349	O	0.099745	0.171284	0.013608
C350	C	0.056630	0.153161	0.047198
H351	H	0.052924	0.136412	0.070985
H352	H	0.031589	0.132733	0.041443
C353	C	0.052915	0.204157	0.030313
C354	C	0.048366	0.183587	0.059530
H355	H	0.047816	0.222924	0.037920
H356	H	0.081962	0.216366	0.007683
H357	H	0.032048	0.187130	0.025521
H358	H	0.069237	0.200614	0.064319
H359	H	0.019322	0.171381	0.082162
O360	O	-0.623045	-0.245784	0.359881
C361	C	-0.608618	-0.269605	0.348334
H362	H	-0.637776	-0.300802	0.365860
H363	H	-0.582130	-0.262159	0.353134
C364	C	-0.553439	-0.225229	0.284037
C365	C	-0.589253	-0.263545	0.305560
H366	H	-0.541492	-0.221490	0.257652
H367	H	-0.563157	-0.209179	0.291816
H368	H	-0.531370	-0.219028	0.288041
H369	H	-0.611323	-0.269744	0.301559
H370	H	-0.579538	-0.279596	0.297779
O371	O	0.440664	0.311011	-0.305784
C372	C	0.409759	0.278224	-0.272784
H373	H	0.383946	0.254880	-0.276244
H374	H	0.392819	0.285779	-0.246714
C375	C	0.465455	0.292408	-0.263032
C376	C	0.433753	0.263736	-0.267282
H377	H	0.480256	0.283472	-0.259636
H378	H	0.486277	0.314498	-0.285263
H379	H	0.451334	0.298702	-0.241307
H380	H	0.447876	0.257446	-0.289009
H381	H	0.412935	0.241644	-0.245054
O382	O	-0.184938	-0.112909	-0.111157
C383	C	-0.229786	-0.133599	-0.097524
H384	H	-0.243251	-0.164927	-0.094583
H385	H	-0.232907	-0.121202	-0.118554
C386	C	-0.239834	-0.092153	-0.061812
C387	C	-0.256373	-0.130630	-0.058196
H388	H	-0.256234	-0.090320	-0.037554
H389	H	-0.209619	-0.078212	-0.070998
H390	H	-0.242436	-0.081826	-0.079338
H391	H	-0.253766	-0.140955	-0.040675
H392	H	-0.286589	-0.144573	-0.049007
O393	O	0.265041	-0.189670	-0.359965
C394	C	0.226390	-0.226414	-0.346607
H395	H	0.227439	-0.235320	-0.372040
H396	H	0.196202	-0.225830	-0.328582
C397	C	0.222245	-0.244371	-0.290769
C398	C	0.223534	-0.255311	-0.322008
H399	H	0.220481	-0.262197	-0.275594
H400	H	0.248283	-0.219616	-0.299768
H401	H	0.197088	-0.243885	-0.275753
H402	H	0.248694	-0.255793	-0.337026
H403	H	0.197500	-0.280068	-0.313011
O404	O	0.440727	-0.300462	-0.028908
C405	C	0.440902	-0.298370	0.003897
H406	H	0.439106	-0.323769	0.015189
H407	H	0.411147	-0.299054	0.026891
C408	C	0.485922	-0.229657	-0.020452
C409	C	0.483719	-0.260850	-0.006585
H410	H	0.512332	-0.206512	-0.026917
H411	H	0.485803	-0.231066	-0.042554
H412	H	0.461123	-0.230232	-0.001288
H413	H	0.508515	-0.260277	-0.025751
H414	H	0.483843	-0.259440	0.015512
O415	O	0.549878	0.095162	-0.472135
C416	C	0.573267	0.120453	-0.508880
H417	H	0.607603	0.144840	-0.517783
H418	H	0.554655	0.132612	-0.508298
C419	C	0.535400	0.068758	-0.526844
C420	C	0.577574	0.098710	-0.537780
H421	H	0.538055	0.055346	-0.544671
H422	H	0.519641	0.051719	-0.502088
H423	H	0.519895	0.078895	-0.526359
H424	H	0.593076	0.088572	-0.538260
H425	H	0.593335	0.115747	-0.562537
H426	H	0.205059	-0.216514	0.113907
H427	H	0.333308	0.295959	-0.501595
O428	O	0.224254	-0.322067	-0.013597
C429	C	0.212806	-0.358811	-0.015506
H430	H	0.228286	-0.367715	-0.005553
H431	H	0.225555	-0.358225	-0.046278
C432	C	0.143153	-0.376773	-0.001692
C433	C	0.162164	-0.387711	0.010536
H434	H	0.111915	-0.394600	0.014370
H435	H	0.150866	-0.352018	-0.000407
H436	H	0.153782	-0.376285	-0.027335
H437	H	0.151539	-0.388194	0.036177
H438	H	0.154447	-0.412467	0.009256
O439	O	-0.184853	0.268751	0.507320
C440	C	-0.181336	0.303325	0.507285
H441	H	-0.178681	0.314719	0.481359
H442	H	-0.150599	0.325236	0.505873
C443	C	-0.225864	0.282107	0.576016
C444	C	-0.222606	0.296099	0.544176
H445	H	-0.251320	0.277651	0.598773
H446	H	-0.228232	0.258814	0.576040
H447	H	-0.200247	0.300368	0.574835
H448	H	-0.248220	0.277836	0.545355
H449	H	-0.220243	0.319388	0.544153
O450	O	0.058685	-0.189558	0.019324
C451	C	0.024136	-0.193042	0.053892
H452	H	0.038655	-0.169774	0.065294
H453	H	0.003632	-0.222369	0.075803
C454	C	-0.023353	-0.217245	0.032650
C455	C	-0.005519	-0.188664	0.046652
H456	H	-0.041647	-0.214546	0.028185
H457	H	-0.000077	-0.214899	0.009361
H458	H	-0.040436	-0.241681	0.050911
H459	H	0.011568	-0.164229	0.028389
H460	H	-0.028793	-0.191006	0.069938
O461	O	0.211374	0.268572	0.111062
C462	C	0.204312	0.237353	0.097433
H463	H	0.175926	0.226830	0.094492
H464	H	0.195680	0.213205	0.118465
C465	C	0.281470	0.263013	0.061721
C466	C	0.246607	0.250090	0.058106
H467	H	0.307559	0.270869	0.037463
H468	H	0.286227	0.284045	0.070904
H469	H	0.274270	0.242887	0.079249
H470	H	0.253805	0.270217	0.040582
H471	H	0.241852	0.229061	0.048919
O472	O	0.329344	-0.134885	-0.305757
C473	C	0.294473	-0.136962	-0.272759
H474	H	0.300406	-0.107689	-0.276233
H475	H	0.292910	-0.146075	-0.246692
C476	C	0.243191	-0.202421	-0.262967
C477	C	0.250476	-0.166467	-0.267235
H478	H	0.216051	-0.220622	-0.259558
H479	H	0.266684	-0.201022	-0.285197
H480	H	0.241890	-0.210010	-0.241245
H481	H	0.251782	-0.158877	-0.288960
H482	H	0.226982	-0.167866	-0.245008
O483	O	0.620282	0.171361	-0.507409
C484	C	0.616765	0.202417	-0.507378
H485	H	0.614117	0.211165	-0.481457
H486	H	0.586024	0.193588	-0.505962
C487	C	0.661280	0.225708	-0.576109
C488	C	0.658032	0.236454	-0.544275
H489	H	0.686734	0.246703	-0.598869
H490	H	0.663648	0.204784	-0.576131
H491	H	0.635660	0.218350	-0.574924
H492	H	0.683649	0.243807	-0.545458
H493	H	0.655669	0.257380	-0.544255
H494	H	0.230368	0.295965	-0.398887
H495	H	0.267945	0.301232	-0.366341
O496	O	0.211091	-0.210633	0.395785
C497	C	0.202490	-0.185644	0.386262
H498	H	0.165656	-0.198691	0.406345
H499	H	0.212858	-0.181030	0.355467
C500	C	0.274083	-0.130933	0.365666
C501	C	0.228844	-0.146956	0.390334
H502	H	0.290341	-0.107067	0.368175
H503	H	0.279879	-0.147768	0.372080
H504	H	0.282717	-0.127091	0.340005
H505	H	0.220210	-0.150802	0.415994
H506	H	0.223047	-0.130120	0.383924
H507	H	0.167470	-0.248829	0.366274
O508	O	-0.114536	0.263012	0.360354
C509	C	-0.069687	0.294225	0.336195
H510	H	-0.056222	0.304753	0.354057
H511	H	-0.066563	0.318373	0.320670
C512	C	-0.059641	0.268548	0.284709
C513	C	-0.043102	0.281477	0.306647
H514	H	-0.043242	0.260686	0.266481
H515	H	-0.089857	0.247520	0.300984
H516	H	-0.057037	0.288674	0.271775
H517	H	-0.045711	0.261350	0.319584
H518	H	-0.012886	0.302502	0.290373
H519	H	0.333296	-0.216247	-0.013853
O520	O	0.058776	0.263044	0.471720
C521	C	0.067452	0.296642	0.481245
H522	H	0.104280	0.320419	0.461096
H523	H	0.057194	0.290897	0.512007
C524	C	-0.004198	0.279781	0.502062
C525	C	0.041035	0.308985	0.477313
H526	H	-0.020494	0.287394	0.499638
H527	H	-0.010044	0.257144	0.495646
H528	H	-0.012740	0.274997	0.527694
H529	H	0.049578	0.313766	0.451681
H530	H	0.046882	0.331623	0.483724
O531	O	0.265179	-0.357343	-0.019387
C532	C	0.296263	-0.357320	-0.053958
H533	H	0.330932	-0.331398	-0.065359
H534	H	0.288845	-0.355912	-0.075867
C535	C	0.250823	-0.426050	-0.032721
C536	C	0.293405	-0.394214	-0.046723
H537	H	0.249059	-0.448809	-0.028260
H538	H	0.229880	-0.426066	-0.009431
H539	H	0.244646	-0.424872	-0.050981
H540	H	0.299579	-0.395391	-0.028461
H541	H	0.314349	-0.394200	-0.070010
H542	H	-0.769653	-0.318930	0.500992
O543	O	0.106026	-0.023633	0.028871
C544	C	0.118517	-0.048476	0.029062
H545	H	0.105126	-0.071219	0.016712
H546	H	0.104419	-0.062890	0.059699
C547	C	0.185744	0.002514	0.019738
C548	C	0.169299	-0.025418	0.004566
H549	H	0.217068	0.016737	0.004630
H550	H	0.177327	0.019251	0.019611
H551	H	0.173991	-0.009502	0.045268
H552	H	0.181047	-0.013402	-0.020962
H553	H	0.177719	-0.042153	0.004689
O554	O	-0.559204	-0.300411	0.305712
C555	C	-0.515460	-0.277147	0.295122
H556	H	-0.502745	-0.295493	0.293100
H557	H	-0.514714	-0.262998	0.317552
C558	C	-0.501481	-0.223532	0.258469
C559	C	-0.485861	-0.246065	0.255983
H560	H	-0.483223	-0.204358	0.234327
H561	H	-0.530952	-0.239205	0.265604
H562	H	-0.500858	-0.211745	0.277162
H563	H	-0.486490	-0.257855	0.237293
H564	H	-0.456389	-0.230393	0.248843
H565	H	0.552391	0.301235	-0.365822
O566	O	-0.450263	-0.357353	0.187091
C567	C	-0.485658	-0.369032	0.225365
H568	H	-0.499428	-0.351572	0.227511
H569	H	-0.473407	-0.364263	0.244402
C570	C	-0.505354	-0.433259	0.235924
C571	C	-0.522270	-0.411817	0.238559
H572	H	-0.527938	-0.459651	0.244064
H573	H	-0.481507	-0.425390	0.210139
H574	H	-0.495146	-0.429281	0.251788
H575	H	-0.532473	-0.415791	0.222692
H576	H	-0.546119	-0.419687	0.264343
O577	O	0.058769	0.095157	0.019190
C578	C	0.067444	0.113358	-0.014407
H579	H	0.104272	0.130037	-0.038186
H580	H	0.057186	0.133861	-0.008659
C581	C	-0.004206	0.062526	0.002456
C582	C	0.041027	0.083009	-0.026751
H583	H	-0.020503	0.043806	-0.005157
H584	H	-0.010052	0.050265	0.025092
H585	H	-0.012748	0.079616	0.007243
H586	H	0.049569	0.065920	-0.031534
H587	H	0.046873	0.095267	-0.049387
H588	H	0.333309	0.296016	-0.114204
H589	H	-0.182070	-0.115902	0.013781
H590	H	-0.181841	-0.603391	0.398082
H591	H	-0.002500	-0.026531	-0.308780
H592	H	0.617241	0.295963	-0.398133
H593	H	-0.002512	0.253428	0.411332
H594	H	0.204850	0.168253	-0.501099
H595	H	0.370892	0.301275	-0.184323
O596	O	0.224237	0.295710	-0.110933
C597	C	0.191239	0.263533	-0.111632
H598	H	0.198990	0.241343	-0.116198
H599	H	0.190277	0.272646	-0.136000
C600	C	0.136501	0.273304	-0.067699
C601	C	0.146020	0.246049	-0.073305
H602	H	0.108607	0.262519	-0.044058
H603	H	0.158732	0.294983	-0.067230
H604	H	0.135702	0.280896	-0.088008
H605	H	0.146824	0.238461	-0.052998
H606	H	0.123787	0.224368	-0.073770
O607	O	0.058398	-0.357598	0.472018
C608	C	0.023922	-0.357499	0.475432
H609	H	0.038524	-0.331514	0.452188
H610	H	0.003352	-0.356152	0.504774
C611	C	-0.023611	-0.426230	0.499473
C612	C	-0.005676	-0.394316	0.470922
H613	H	-0.041870	-0.448940	0.496693
H614	H	-0.000384	-0.426297	0.497174
H615	H	-0.040749	-0.425102	0.523922
H616	H	0.011466	-0.395442	0.446474
H617	H	-0.028901	-0.394250	0.473217
O618	O	0.099718	-0.224721	0.013610
C619	C	0.056611	-0.249711	0.047208
H620	H	0.042597	-0.232738	0.060277
H621	H	0.057695	-0.264267	0.068607
C622	C	0.044202	-0.301117	0.021295
C623	C	0.026988	-0.280271	0.037345
H624	H	0.025929	-0.319969	0.015212
H625	H	0.073245	-0.284281	-0.001340
H626	H	0.045104	-0.313244	0.039130
H627	H	0.026091	-0.268141	0.019508
H628	H	-0.002056	-0.297105	0.059977
O629	O	0.620352	0.295757	-0.506942
C630	C	0.665209	0.326968	-0.531035
H631	H	0.678574	0.337504	-0.513105
H632	H	0.668391	0.351112	-0.546636
C633	C	0.675440	0.301273	-0.582520
C634	C	0.691856	0.314212	-0.560499
H635	H	0.691878	0.293406	-0.600696
H636	H	0.645219	0.280246	-0.566289
H637	H	0.678093	0.321395	-0.595517
H638	H	0.689199	0.294088	-0.547498
H639	H	0.722078	0.335235	-0.576728
H640	H	0.167543	-0.083608	-0.469060
H641	H	0.267941	0.301250	-0.184099
O642	O	-0.185072	-0.224668	0.013475
C643	C	-0.181587	-0.224586	-0.021087
H644	H	-0.153881	-0.194673	-0.043198
H645	H	-0.214131	-0.233197	-0.015851
C646	C	-0.205274	-0.290010	-0.008891
C647	C	-0.171243	-0.253271	-0.036048
H648	H	-0.198895	-0.307706	-0.018119
H649	H	-0.207624	-0.290067	0.014395
H650	H	-0.232391	-0.297181	-0.004530
H651	H	-0.144128	-0.246099	-0.040405
H652	H	-0.168888	-0.253214	-0.059336
H653	H	0.332799	-0.116397	-0.501067
H654	H	0.100149	0.253421	0.308676
O655	O	-0.185050	0.268759	0.395718
C656	C	-0.181564	0.303323	0.392314
H657	H	-0.153858	0.325433	0.394521
H658	H	-0.214107	0.298089	0.416245
C659	C	-0.205249	0.291123	0.350575
C660	C	-0.171217	0.318280	0.353283
H661	H	-0.198869	0.300349	0.326500
H662	H	-0.207600	0.267836	0.352869
H663	H	-0.232365	0.286764	0.370519
H664	H	-0.144103	0.322634	0.333341
H665	H	-0.168862	0.341568	0.350984
O666	O	0.223974	-0.224947	-0.395096
C667	C	0.189429	-0.224919	-0.391608
H668	H	0.203953	-0.198999	-0.414880
H669	H	0.168932	-0.223504	-0.362282
C670	C	0.141925	-0.293649	-0.367396
C671	C	0.159763	-0.261815	-0.395980
H672	H	0.123624	-0.316409	-0.370091
H673	H	0.165198	-0.293668	-0.369744
H674	H	0.124847	-0.292465	-0.342960
H675	H	0.176845	-0.262997	-0.420415
H676	H	0.136493	-0.261797	-0.393636
O677	O	0.440782	-0.411955	-0.028963
C678	C	0.478307	-0.387118	-0.029151
H679	H	0.475301	-0.364385	-0.016783
H680	H	0.509261	-0.372691	-0.059789
C681	C	0.485235	-0.438106	-0.019866
C682	C	0.481541	-0.410186	-0.004673
H683	H	0.487232	-0.452335	-0.004769
H684	H	0.459955	-0.454839	-0.019741
H685	H	0.511030	-0.426080	-0.045397
H686	H	0.455744	-0.422213	0.020856
H687	H	0.506817	-0.393456	-0.004793
O688	O	0.329214	0.311156	-0.305841
C689	C	0.339094	0.344298	-0.295231
H690	H	0.376313	0.367037	-0.314337
H691	H	0.327383	0.336938	-0.264094
C692	C	0.269713	0.331799	-0.276430
C693	C	0.315427	0.359729	-0.299898
H694	H	0.255113	0.341316	-0.279307
H695	H	0.263056	0.309469	-0.283577
H696	H	0.259961	0.325668	-0.250485
H697	H	0.325179	0.365856	-0.325843
H698	H	0.322085	0.382060	-0.292756
O699	O	0.265051	-0.530747	-0.019276
C700	C	0.221925	-0.548953	0.014321
H701	H	0.218297	-0.565630	0.038099
H702	H	0.196913	-0.569459	0.008572
C703	C	0.217959	-0.498128	-0.002538
C704	C	0.213504	-0.518608	0.026667
H705	H	0.212763	-0.479411	0.005077
H706	H	0.247013	-0.485863	-0.025174
H707	H	0.197116	-0.515220	-0.007326
H708	H	0.234351	-0.501517	0.031451
H709	H	0.184453	-0.530870	0.049304
O710	O	0.106238	-0.300201	0.305715
C711	C	0.118757	-0.287522	0.268369
H712	H	0.089006	-0.305525	0.267195
H713	H	0.146138	-0.290592	0.247311
C714	C	0.172174	-0.223097	0.259047
C715	C	0.135632	-0.245206	0.257606
H716	H	0.182585	-0.196993	0.252407
H717	H	0.163741	-0.231639	0.284208
H718	H	0.194987	-0.225659	0.241499
H719	H	0.112818	-0.242647	0.275158
H720	H	0.144062	-0.236662	0.232448
O721	O	0.376677	-0.077987	-0.471854
C722	C	0.388002	-0.064766	-0.508576
H723	H	0.357249	-0.081432	-0.508542
H724	H	0.413759	-0.069164	-0.530391
C725	C	0.444895	-0.001399	-0.519310
C726	C	0.407122	-0.021866	-0.519267
H727	H	0.456691	0.025064	-0.525906
H728	H	0.437266	-0.010306	-0.494570
H729	H	0.466354	-0.005068	-0.537489
H730	H	0.385662	-0.018200	-0.501085
H731	H	0.414748	-0.012957	-0.544004
O732	O	-0.114671	-0.189625	0.019245
C733	C	-0.138173	-0.226348	0.017349
H734	H	-0.154804	-0.226314	0.003261
H735	H	-0.164386	-0.248160	0.047505
C736	C	-0.085542	-0.237085	0.010878
C737	C	-0.105965	-0.237043	-0.006428
H738	H	-0.065676	-0.243683	-0.003787
H739	H	-0.069709	-0.212345	0.012156
H740	H	-0.107391	-0.255261	0.036007
H741	H	-0.084117	-0.218863	-0.031554
H742	H	-0.121793	-0.261780	-0.007711
O743	O	-0.005583	-0.135179	-0.305844
C744	C	-0.049338	-0.158447	-0.295227
H745	H	-0.052979	-0.143975	-0.314331
H746	H	-0.073110	-0.162791	-0.264090
C747	C	-0.055629	-0.215319	-0.276423
C748	C	-0.060101	-0.197546	-0.299888
H749	H	-0.062270	-0.239438	-0.279296
H750	H	-0.026151	-0.199644	-0.283574
H751	H	-0.075440	-0.218935	-0.250477
H752	H	-0.040287	-0.193925	-0.325833
H753	H	-0.089576	-0.213222	-0.292741
O754	O	0.170397	0.262935	0.187223
C755	C	0.209037	0.264822	0.161937
H756	H	0.223197	0.278908	0.131180
H757	H	0.200688	0.234665	0.165920
C758	C	0.226003	0.271290	0.208259
C759	C	0.243397	0.288595	0.170483
H760	H	0.247198	0.285953	0.213531
H761	H	0.199970	0.270018	0.225295
H762	H	0.219046	0.246160	0.211573
H763	H	0.250348	0.313723	0.167170
H764	H	0.269432	0.289872	0.153446
H765	H	0.370881	-0.248784	-0.019122
O766	O	0.099812	-0.224697	-0.395781
C767	C	0.098307	-0.225511	-0.362092
H768	H	0.098160	-0.200482	-0.353087
H769	H	0.128523	-0.223142	-0.367645
C770	C	0.056229	-0.294156	-0.341012
C771	C	0.056044	-0.263415	-0.329951
H772	H	0.030160	-0.317537	-0.321187
H773	H	0.057244	-0.293607	-0.363710
H774	H	0.081411	-0.292176	-0.345640
H775	H	0.030866	-0.265393	-0.325328
H776	H	0.055024	-0.263965	-0.307252
H777	H	0.437930	-0.026285	-0.308746
H778	H	0.064523	-0.351759	0.184259
H779	H	-0.002510	0.253416	0.308669
H780	H	0.167522	0.263171	0.365746
O781	O	0.211377	-0.112808	0.013597
C782	C	0.222699	-0.076087	0.015496
H783	H	0.191945	-0.076121	0.029581
H784	H	0.248459	-0.054272	-0.014657
C785	C	0.279586	-0.065354	0.021979
C786	C	0.241813	-0.065397	0.039281
H787	H	0.291379	-0.058759	0.036649
H788	H	0.271960	-0.090093	0.020699
H789	H	0.301048	-0.047175	-0.003148
H790	H	0.220351	-0.083579	0.064406
H791	H	0.249437	-0.040660	0.040566
H792	H	0.267897	-0.186572	-0.184305
H793	H	0.205320	0.268435	0.398066
H794	H	-0.117201	-0.533500	0.468702
O795	O	0.099231	-0.322566	0.507382
C796	C	0.060603	-0.359282	0.520608
H797	H	0.061756	-0.368080	0.495103
H798	H	0.030406	-0.358707	0.538609
C799	C	0.056228	-0.377476	0.576515
C800	C	0.057645	-0.388283	0.545190
H801	H	0.054401	-0.395365	0.591680
H802	H	0.082251	-0.352739	0.567605
H803	H	0.031063	-0.376996	0.591512
H804	H	0.082812	-0.388757	0.530191
H805	H	0.031626	-0.413020	0.554097
H806	H	-0.002298	-0.408829	0.411365
H807	H	0.552400	-0.248780	-0.019131
O808	O	0.058728	0.262924	0.186978
C809	C	0.047416	0.264835	0.161574
H810	H	0.062961	0.254875	0.137228
H811	H	0.060198	0.295608	0.149370
C812	C	-0.022301	0.251040	0.213102
C813	C	-0.003211	0.238804	0.183201
H814	H	-0.053530	0.234985	0.226442
H815	H	-0.014680	0.249754	0.230216
H816	H	-0.011645	0.276685	0.202927
H817	H	-0.013863	0.213162	0.193376
H818	H	-0.010836	0.240085	0.166088
O819	O	0.620485	0.171589	-0.395809
C820	C	0.617000	0.202666	-0.392411
H821	H	0.589293	0.197069	-0.394619
H822	H	0.649543	0.229972	-0.416345
C823	C	0.640689	0.214165	-0.350675
C824	C	0.606656	0.207289	-0.353383
H825	H	0.634310	0.217018	-0.326602
H826	H	0.643038	0.193229	-0.352965
H827	H	0.667805	0.236920	-0.370622
H828	H	0.579542	0.184532	-0.333439
H829	H	0.604302	0.228222	-0.351089
O830	O	0.376987	-0.530515	-0.019380
C831	C	0.388441	-0.555806	-0.017476
H832	H	0.372962	-0.580192	-0.027430
H833	H	0.375696	-0.567968	0.013294
C834	C	0.458094	-0.504114	-0.031293
C835	C	0.439084	-0.534062	-0.043521
H836	H	0.489332	-0.490701	-0.047357
H837	H	0.450376	-0.487074	-0.032574
H838	H	0.447468	-0.514253	-0.005651
H839	H	0.449705	-0.523923	-0.069161
H840	H	0.446804	-0.551100	-0.042245
O841	O	0.211437	0.171127	0.013504
C842	C	0.245985	0.202185	-0.021067
H843	H	0.231465	0.210932	-0.032468
H844	H	0.266486	0.193357	-0.042976
C845	C	0.293478	0.225476	0.000170
C846	C	0.275644	0.236222	-0.013831
H847	H	0.311775	0.246471	0.004633
H848	H	0.270203	0.204551	0.023461
H849	H	0.310559	0.218119	-0.018089
H850	H	0.258559	0.243574	0.004430
H851	H	0.298917	0.257149	-0.037119
H852	H	0.167477	-0.248833	0.184031
O853	O	0.550082	0.095417	-0.360450
C854	C	0.573583	0.120814	-0.347228
H855	H	0.590214	0.151533	-0.363893
H856	H	0.599796	0.116872	-0.351628
C857	C	0.520950	0.074656	-0.283860
C858	C	0.541374	0.112385	-0.304327
H859	H	0.501084	0.069456	-0.257397
H860	H	0.505118	0.057545	-0.292768
H861	H	0.542798	0.071375	-0.287532
H862	H	0.519527	0.115664	-0.300659
H863	H	0.557202	0.129496	-0.295417
O864	O	0.376688	-0.077996	-0.187051
C865	C	0.387999	-0.064767	-0.161648
H866	H	0.372459	-0.090269	-0.137303
H867	H	0.375208	-0.046781	-0.149441
C868	C	0.457709	-0.008842	-0.213174
C869	C	0.438626	-0.040165	-0.183275
H870	H	0.488938	0.006335	-0.226514
H871	H	0.450088	-0.017754	-0.230289
H872	H	0.447045	0.006142	-0.202997
H873	H	0.449285	-0.055151	-0.193452
H874	H	0.446249	-0.031255	-0.166162
H875	H	-0.447603	-0.248768	0.184232
O876	O	0.099221	-0.322491	0.111143
C877	C	0.056096	-0.332019	0.129346
H878	H	0.052465	-0.311870	0.146025
H879	H	0.031083	-0.362779	0.149850
C880	C	0.052139	-0.352841	0.078515
C881	C	0.047682	-0.328091	0.098998
H882	H	0.046948	-0.350420	0.059796
H883	H	0.081193	-0.346423	0.066252
H884	H	0.031295	-0.378472	0.095606
H885	H	0.068530	-0.302460	0.081908
H886	H	0.018632	-0.334504	0.111258
O887	O	-0.734973	-0.357342	0.471782
C888	C	-0.773593	-0.370562	0.508504
H889	H	-0.787645	-0.353895	0.508469
H890	H	-0.765253	-0.366163	0.530318
C891	C	-0.790803	-0.433930	0.519240
C892	C	-0.808064	-0.413462	0.519196
H893	H	-0.812067	-0.460393	0.525837
H894	H	-0.764783	-0.425023	0.494500
H895	H	-0.783854	-0.430259	0.537419
H896	H	-0.815008	-0.417129	0.501015
H897	H	-0.834086	-0.422370	0.543934
H898	H	0.332793	-0.116391	-0.113952
H899	H	0.437935	-0.026287	-0.411409
H900	H	0.617258	-0.216240	-0.013873
O901	O	-0.379650	-0.321954	0.110845
C902	C	-0.334791	-0.301179	0.097194
H903	H	-0.328705	-0.282068	0.114966
H904	H	-0.313172	-0.282717	0.065946
C905	C	-0.330687	-0.352715	0.078660
C906	C	-0.323214	-0.329245	0.100489
H907	H	-0.323545	-0.370027	0.080691
H908	H	-0.360910	-0.366711	0.087856
H909	H	-0.312671	-0.337326	0.052622
H910	H	-0.341234	-0.344634	0.126528
H911	H	-0.292994	-0.315252	0.091298
H912	H	0.102623	0.268466	0.500992
O913	O	-0.670810	-0.411975	0.417324
C914	C	-0.660951	-0.422588	0.440604
H915	H	-0.623734	-0.403486	0.426137
H916	H	-0.672662	-0.453726	0.444955
C917	C	-0.730345	-0.441385	0.497464
C918	C	-0.684635	-0.417921	0.479698
H919	H	-0.744955	-0.438508	0.521580
H920	H	-0.736988	-0.434236	0.481780
H921	H	-0.740098	-0.467330	0.501086
H922	H	-0.674881	-0.391976	0.476071
H923	H	-0.677990	-0.425065	0.495382
H924	H	0.335043	-0.409068	-0.028878
H925	H	0.100165	-0.026535	-0.411435
O926	O	-0.379983	-0.210367	0.111145
C927	C	-0.403482	-0.197144	0.136543
H928	H	-0.420116	-0.213811	0.167262
H929	H	-0.429693	-0.201540	0.132601
C930	C	-0.350845	-0.133776	0.090386
C931	C	-0.371272	-0.154245	0.128116
H932	H	-0.330977	-0.107314	0.085187
H933	H	-0.335013	-0.142685	0.073274
H934	H	-0.372692	-0.137444	0.087106
H935	H	-0.349426	-0.150581	0.131395
H936	H	-0.387099	-0.145335	0.145229
H937	H	0.617482	-0.318952	-0.013867
H938	H	-0.002525	-0.129181	0.028805
O939	O	0.336166	-0.606659	-0.013715
C940	C	0.346672	-0.620310	-0.044919
H941	H	0.351357	-0.602608	-0.068779
H942	H	0.318646	-0.651589	-0.035284
C943	C	0.383924	-0.638626	-0.030484
C944	C	0.389682	-0.616881	-0.059791
H945	H	0.410454	-0.636513	-0.039657
H946	H	0.376845	-0.629430	-0.009460
H947	H	0.360568	-0.664689	-0.022458
H948	H	0.413034	-0.590818	-0.067813
H949	H	0.396766	-0.626073	-0.080816
H950	H	-0.002524	-0.026519	0.028802
O951	O	-0.114230	-0.530278	0.359913
C952	C	-0.137616	-0.555569	0.346555
H953	H	-0.171955	-0.579955	0.371988
H954	H	-0.119006	-0.567731	0.328528
C955	C	-0.099738	-0.503877	0.290720
C956	C	-0.141916	-0.533826	0.321957
H957	H	-0.102389	-0.490465	0.275545
H958	H	-0.083981	-0.486837	0.299719
H959	H	-0.084235	-0.514016	0.275702
H960	H	-0.157416	-0.523686	0.336977
H961	H	-0.157675	-0.550863	0.312960
O962	O	-0.185091	-0.224718	-0.110988
C963	C	-0.200572	-0.249711	-0.129103
H964	H	-0.182658	-0.232741	-0.160088
H965	H	-0.237614	-0.264271	-0.113458
C966	C	-0.213646	-0.301111	-0.090109
C967	C	-0.191641	-0.280268	-0.128167
H968	H	-0.208139	-0.319961	-0.089531
H969	H	-0.203218	-0.284273	-0.077904
H970	H	-0.244513	-0.313240	-0.077077
H971	H	-0.160775	-0.268135	-0.141198
H972	H	-0.202064	-0.297105	-0.140375
O973	O	0.224310	-0.606934	-0.013678
C974	C	0.231435	-0.620575	-0.044894
H975	H	0.259901	-0.623405	-0.055428
H976	H	0.239982	-0.599611	-0.069038
C977	C	0.154259	-0.656497	-0.019207
C978	C	0.189219	-0.659976	-0.032144
H979	H	0.128218	-0.680801	-0.011344
H980	H	0.149458	-0.647306	0.001822
H981	H	0.161387	-0.639026	-0.039330
H982	H	0.182093	-0.677444	-0.012020
H983	H	0.194017	-0.669171	-0.053170
H984	H	-0.117212	-0.083598	-0.184336
O985	O	0.549844	0.301414	-0.471860
C986	C	0.573343	0.299512	-0.508581
H987	H	0.589973	0.285424	-0.508544
H988	H	0.599558	0.329665	-0.530397
C989	C	0.520713	0.293038	-0.519318
C990	C	0.541134	0.275731	-0.519272
H991	H	0.500846	0.278370	-0.525914
H992	H	0.504881	0.294321	-0.494580
H993	H	0.542562	0.318164	-0.537499
H994	H	0.519286	0.250608	-0.501088
H995	H	0.556962	0.274444	-0.544008
O996	O	-0.005295	-0.411710	0.305729
C997	C	-0.017969	-0.391236	0.295131
H998	H	0.002389	-0.360175	0.293115
H999	H	-0.054551	-0.404643	0.317553
C1000	C	-0.034902	-0.430870	0.258465
C1001	C	-0.009895	-0.392719	0.255986
H1002	H	-0.029924	-0.431786	0.234320
H1003	H	-0.026365	-0.444665	0.265606
H1004	H	-0.065384	-0.442038	0.277152
H1005	H	0.020587	-0.381553	0.237303
H1006	H	-0.018427	-0.378922	0.248841
O1007	O	0.058227	0.094915	-0.359996
C1008	C	0.046775	0.120209	-0.346639
H1009	H	0.062254	0.144592	-0.372073
H1010	H	0.059522	0.132373	-0.328615
C1011	C	-0.022877	0.068520	-0.290799
C1012	C	-0.003868	0.098466	-0.322038
H1013	H	-0.054115	0.055108	-0.275622
H1014	H	-0.015161	0.051479	-0.299797
H1015	H	-0.012249	0.078661	-0.275784
H1016	H	-0.014491	0.088324	-0.337055
H1017	H	-0.011586	0.115505	-0.313041
O1018	O	-0.114381	0.263020	0.472008
C1019	C	-0.098895	0.296619	0.481515
H1020	H	-0.116806	0.309692	0.482455
H1021	H	-0.061852	0.318013	0.459031
C1022	C	-0.085823	0.270702	0.519844
C1023	C	-0.107825	0.286757	0.521003
H1024	H	-0.091329	0.264620	0.544201
H1025	H	-0.096255	0.248066	0.513438
H1026	H	-0.054956	0.288533	0.501106
H1027	H	-0.138691	0.268925	0.539737
H1028	H	-0.097398	0.309390	0.527413
H1029	H	0.102624	0.268416	0.113879
O1030	O	0.099149	0.171113	-0.395132
C1031	C	0.130234	0.202172	-0.391646
H1032	H	0.164903	0.210918	-0.414915
H1033	H	0.122816	0.193347	-0.362318
C1034	C	0.084795	0.225466	-0.367441
C1035	C	0.127377	0.236209	-0.396023
H1036	H	0.083032	0.246461	-0.370140
H1037	H	0.063852	0.204540	-0.369789
H1038	H	0.078618	0.218111	-0.343005
H1039	H	0.133550	0.243559	-0.420459
H1040	H	0.148321	0.257137	-0.393680
O1041	O	0.170088	0.095073	-0.471778
C1042	C	0.180611	0.081443	-0.451084
H1043	H	0.159808	0.078508	-0.419758
H1044	H	0.217160	0.102470	-0.463484
C1045	C	0.196385	0.045721	-0.492522
C1046	C	0.170832	0.042113	-0.454046
H1047	H	0.190354	0.021461	-0.494350
H1048	H	0.189297	0.054905	-0.506465
H1049	H	0.226840	0.063245	-0.502851
H1050	H	0.140377	0.024593	-0.443719
H1051	H	0.177914	0.032925	-0.440101
H1052	H	0.205343	-0.115928	-0.501596
O1053	O	-0.114546	-0.189541	-0.187129
C1054	C	-0.069693	-0.168844	-0.200777
H1055	H	-0.063537	-0.149667	-0.183075
H1056	H	-0.048046	-0.150456	-0.232057
C1057	C	-0.065814	-0.220535	-0.219087
C1058	C	-0.058254	-0.196983	-0.197342
H1059	H	-0.058757	-0.237892	-0.216970
H1060	H	-0.096032	-0.234478	-0.209893
H1061	H	-0.047774	-0.205207	-0.245152
H1062	H	-0.076298	-0.212310	-0.171278
H1063	H	-0.028038	-0.183043	-0.206532
H1064	H	0.064825	-0.186540	-0.366338
H1065	H	0.167506	-0.083593	0.019063
H1066	H	0.552621	-0.351498	-0.019128
O1067	O	-0.559292	-0.412020	0.305804
C1068	C	-0.546623	-0.422609	0.326290
H1069	H	-0.566994	-0.424627	0.357351
H1070	H	-0.510046	-0.400180	0.312891
C1071	C	-0.529658	-0.459267	0.286659
C1072	C	-0.554681	-0.461749	0.324809
H1073	H	-0.534626	-0.483409	0.285745
H1074	H	-0.538192	-0.452132	0.272857
H1075	H	-0.499179	-0.440575	0.275498
H1076	H	-0.585159	-0.480436	0.335969
H1077	H	-0.546152	-0.468887	0.338614
O1078	O	-0.663829	-0.210368	0.394941
C1079	C	-0.625198	-0.197142	0.358225
H1080	H	-0.626351	-0.222646	0.349426
H1081	H	-0.595003	-0.179146	0.358804
C1082	C	-0.620815	-0.141230	0.340032
C1083	C	-0.622233	-0.172555	0.329223
H1084	H	-0.618984	-0.126062	0.322142
H1085	H	-0.646840	-0.150139	0.364768
H1086	H	-0.595653	-0.126238	0.340514
H1087	H	-0.647398	-0.187550	0.328745
H1088	H	-0.596212	-0.163648	0.304485
H1089	H	-0.732353	-0.533492	0.468971
H1090	H	-0.770155	-0.603608	0.501511
H1091	H	-0.667447	-0.603843	0.398798
H1092	H	-0.629638	-0.533721	0.366252
H1093	H	0.437707	0.310988	-0.411425
H1094	H	0.370885	0.301223	-0.469054
