data_functionalizedCrystal
_audit_creation_method	'MofGen! by Chris Wilmer'
_symmetry_space_group_name_H-M	'P1'
_symmetry_Int_Tables_number	1
_symmetry_cell_setting	triclinic
loop_
_symmetry_equiv_pos_as_xyz
  x,y,z
_cell_length_a	15.297475
_cell_length_b	19.121063
_cell_length_c	15.296720
_cell_angle_alpha	101.616247
_cell_angle_beta	91.617114
_cell_angle_gamma	83.156694
loop_
_atom_site_label
_atom_site_type_symbol
_atom_site_fract_x
_atom_site_fract_y
_atom_site_fract_z
Zn1	Zn	1.219315	-0.545242	-0.750522
Zn2	Zn	1.238271	-0.646121	-0.608463
Zn3	Zn	1.100653	-0.505885	-0.577035
Zn4	Zn	1.066927	-0.639234	-0.729290
O5	O	1.156291	-0.584120	-0.666328
O6	O	1.343197	-0.577977	-0.753716
O7	O	1.242063	-0.613929	-0.481124
O8	O	1.122575	-0.413080	-0.595782
O9	O	1.357124	-0.652092	-0.649346
O10	O	1.209755	-0.441996	-0.723241
O11	O	1.140956	-0.510898	-0.458034
O12	O	0.974811	-0.504221	-0.575194
O13	O	1.065095	-0.640355	-0.855277
O14	O	0.950033	-0.602192	-0.687055
O15	O	1.177053	-0.571299	-0.870876
O16	O	1.209361	-0.743232	-0.628758
O17	O	1.083475	-0.738173	-0.717529
C18	C	0.930952	-0.548189	-0.625411
C19	C	0.834547	-0.532837	-0.607928
C20	C	1.144835	-0.766125	-0.674274
C21	C	1.140009	-0.844004	-0.677717
C22	C	0.511335	-0.693852	-0.791283
C23	C	0.601913	-0.708281	-0.807706
C24	C	0.660075	-0.664421	-0.757763
C25	C	0.627652	-0.606129	-0.691393
C26	C	0.537065	-0.591702	-0.674963
C27	C	0.685806	-0.562271	-0.641444
C28	C	0.653382	-0.503980	-0.575074
C29	C	0.562804	-0.489555	-0.558647
C30	C	0.504642	-0.533415	-0.608590
C31	C	0.776392	-0.576699	-0.657874
C32	C	0.802123	-0.474549	-0.541555
C33	C	0.711545	-0.460120	-0.525131
C34	C	1.203317	-0.883214	-0.633171
C35	C	1.198782	-0.956391	-0.636415
C36	C	1.130934	-0.990354	-0.684201
C37	C	1.067622	-0.951139	-0.728752
C38	C	1.072161	-0.877965	-0.725513
C39	C	1.113949	-1.211161	-0.696297
C40	C	1.109413	-1.284340	-0.699531
C41	C	1.240575	-1.289587	-0.607195
C42	C	1.245105	-1.216411	-0.603955
C43	C	1.181796	-1.177203	-0.648510
C44	C	1.126295	-1.065151	-0.687516
C45	C	1.186440	-1.102408	-0.645200
C46	C	1.382510	-0.620193	-0.707405
C47	C	1.478911	-0.635564	-0.724910
C48	C	1.115197	-0.609449	-0.895906
C49	C	1.097685	-0.620243	-0.993739
C50	C	1.167812	-0.401410	-0.658374
C51	C	1.172722	-0.323550	-0.654985
C52	C	1.281492	-0.506860	-1.302001
C53	C	1.297950	-0.496721	-1.210084
C54	C	1.247885	-0.527600	-1.155993
C55	C	1.181359	-0.568621	-1.193829
C56	C	1.164903	-0.578765	-1.285757
C57	C	1.131297	-0.599506	-1.139748
C58	C	1.064771	-0.640526	-1.177584
C59	C	1.048318	-0.650669	-1.269503
C60	C	1.098383	-0.619789	-1.323594
C61	C	1.147753	-0.589361	-1.047821
C62	C	1.031165	-0.661267	-1.031576
C63	C	1.014706	-0.671406	-1.123494
C64	C	1.197279	-0.558848	-0.437649
C65	C	1.214971	-0.547884	-0.339838
H66	H	0.802783	-0.624160	-0.711914
H67	H	0.990399	-0.686413	-0.987536
C68	C	0.447354	-0.742051	-0.846270
H69	H	0.479632	-0.778823	-0.888167
H70	H	0.406866	-0.713870	-0.877081
H71	H	0.416097	-0.763200	-0.807501
C72	C	0.941535	-0.716530	-1.165117
H73	H	0.914068	-0.733466	-1.119742
H74	H	0.966367	-0.756298	-1.208330
H75	H	0.899016	-0.687657	-1.192945
H76	H	1.012381	-0.978799	-0.767665
C77	C	1.310215	-1.332715	-0.558193
H78	H	1.351269	-1.302006	-0.529265
H79	H	1.340176	-1.370961	-0.600011
H80	H	1.282161	-1.351774	-0.515055
H81	H	0.994154	-0.684077	-1.300308
C82	C	1.277945	-0.845856	-0.580600
H83	H	1.271578	-0.796658	-0.585040
H84	H	1.333155	-0.868516	-0.604632
H85	H	1.275130	-0.849337	-0.519684
C86	C	1.265982	-0.516440	-1.054884
H87	H	1.312766	-0.487582	-1.040096
H88	H	1.281846	-0.561738	-1.038771
H89	H	1.214496	-0.493097	-1.023405
C90	C	1.051662	-1.102510	-0.740076
H91	H	1.014605	-1.068681	-0.766148
H92	H	1.018163	-1.121359	-0.700783
H93	H	1.076180	-1.140535	-0.785739
H94	H	1.352118	-0.463323	-1.179285
C95	C	0.405006	-0.517554	-0.590512
H96	H	0.375015	-0.552028	-0.629758
H97	H	0.384603	-0.470793	-0.600128
H98	H	0.393931	-0.520073	-0.530491
C99	C	1.319743	-1.179057	-0.551397
H100	H	1.356804	-1.212892	-0.525338
H101	H	1.295237	-1.141029	-0.505739
H102	H	1.353247	-1.160216	-0.590699
H103	H	0.849480	-0.438836	-0.500886
H104	H	1.322252	-0.481727	-1.346050
H105	H	1.250334	-0.988313	-0.600140
H106	H	0.733828	-0.676173	-0.771140
C107	C	1.080280	-0.630942	-1.424705
H108	H	1.119627	-0.606676	-1.451496
H109	H	1.021353	-0.612199	-1.434808
H110	H	1.088712	-0.680835	-1.450193
C111	C	0.675876	-0.396005	-0.452125
H112	H	0.723483	-0.371943	-0.424735
H113	H	0.645724	-0.412886	-0.408478
H114	H	0.636425	-0.363619	-0.478130
C115	C	1.034782	-1.321700	-0.752106
H116	H	0.997733	-1.287872	-0.778186
H117	H	1.001276	-1.340545	-0.712818
H118	H	1.059305	-1.359729	-0.797764
C119	C	0.637573	-0.772392	-0.880712
H120	H	0.589962	-0.796443	-0.908109
H121	H	0.677027	-0.804778	-0.854720
H122	H	0.667720	-0.755503	-0.924362
C123	C	0.527134	-0.425432	-0.485652
H124	H	0.464858	-0.423123	-0.483019
H125	H	0.542617	-0.382182	-0.499281
H126	H	0.551913	-0.431438	-0.429617
H127	H	1.062399	-1.179243	-0.732574
H128	H	1.241685	-1.074754	-0.606296
C129	C	1.002524	-0.834830	-0.774511
H130	H	1.014949	-0.786389	-0.765746
H131	H	0.945826	-0.836150	-0.751540
H132	H	1.003848	-0.855338	-0.836491
H133	H	1.201919	-0.555961	-1.017024
