data_functionalizedCrystal
_audit_creation_method	'MofGen! by Chris Wilmer'
_symmetry_space_group_name_H-M	'P1'
_symmetry_Int_Tables_number	1
_symmetry_cell_setting	triclinic
loop_
_symmetry_equiv_pos_as_xyz
  x,y,z
_cell_length_a	10.654550
_cell_length_b	13.930277
_cell_length_c	10.654550
_cell_angle_alpha	90.004374
_cell_angle_beta	84.484931
_cell_angle_gamma	90.003973
loop_
_atom_site_label
_atom_site_type_symbol
_atom_site_fract_x
_atom_site_fract_y
_atom_site_fract_z
O1	O	1.667846	0.079759	0.176398
O2	O	1.302368	0.079777	0.193204
O3	O	1.493510	0.079761	0.002062
O4	O	1.476704	0.079774	0.367540
O5	O	1.493483	-0.079901	0.002058
O6	O	1.302341	-0.079885	0.193200
O7	O	1.667819	-0.079903	0.176394
Zn8	Zn	1.485076	-0.105244	0.184796
Zn9	Zn	1.485111	0.105118	0.184802
O10	O	1.476677	-0.079888	0.367536
C11	C	1.255556	-0.000052	0.191968
C12	C	1.116113	-0.000046	0.188276
N13	N	1.485061	-0.248810	0.184792
C14	C	1.036628	-0.000044	0.300818
C15	C	0.905607	-0.000061	0.297341
C16	C	0.933570	-0.000076	0.068772
C17	C	1.064588	-0.000066	0.072250
C18	C	1.400470	-0.701072	0.269406
C19	C	1.569787	-0.701055	0.100188
C20	C	1.569772	-0.600560	0.100184
C21	C	1.485106	-0.550316	0.184794
C22	C	1.400455	-0.600567	0.269407
C23	C	1.654430	-0.550300	0.015581
C24	C	1.654420	-0.449798	0.015574
C25	C	1.569747	-0.399553	0.100179
C26	C	1.485091	-0.449811	0.184795
C27	C	1.400425	-0.399567	0.269404
C28	C	1.315762	-0.449823	0.354015
C29	C	1.315782	-0.550322	0.354012
C30	C	1.569727	-0.299054	0.100182
C31	C	1.400410	-0.299062	0.269405
C32	C	1.714631	-0.000072	0.177630
C33	C	1.854074	-0.000072	0.181322
C34	C	1.492263	-0.000069	-0.044738
C35	C	1.488571	-0.000067	-0.184181
N36	N	1.485136	0.248684	0.184797
C37	C	1.601112	-0.000072	-0.263667
C38	C	1.597636	-0.000061	-0.394688
C39	C	1.369066	-0.000043	-0.366725
C40	C	1.372544	-0.000048	-0.235706
C41	C	1.477925	-0.000055	0.414336
C42	C	1.481616	-0.000051	0.553779
H43	H	1.078574	-0.000035	0.395294
O44	O	1.736542	-0.400842	-0.066566
C45	C	1.907355	-0.286981	-0.092157
C46	C	1.814603	-0.342449	0.001088
H47	H	1.970474	-0.239742	-0.037495
H48	H	1.967979	-0.339997	-0.152785
H49	H	1.852208	-0.240090	-0.155237
H50	H	1.869650	-0.389341	0.064249
H51	H	1.753978	-0.289381	0.061628
H52	H	0.891602	-0.000099	-0.025693
O53	O	1.141630	-0.000024	-0.037198
C54	C	1.155550	-0.000099	-0.264275
C55	C	1.068158	-0.000120	-0.140430
H56	H	1.096184	-0.000197	-0.347770
H57	H	1.217565	0.066738	-0.268448
H58	H	1.217615	-0.066899	-0.268284
H59	H	1.006015	0.066634	-0.136338
H60	H	1.006229	-0.067001	-0.136309
H61	H	0.840894	-0.000062	0.388984
O62	O	1.651962	-0.749758	0.017826
C63	C	1.723574	-0.780573	-0.199881
C64	C	1.630464	-0.725333	-0.106735
H65	H	1.706208	-0.760862	-0.300609
H66	H	1.824334	-0.760788	-0.182704
H67	H	1.709052	-0.861029	-0.185275
H68	H	1.644871	-0.644865	-0.121285
H69	H	1.529738	-0.745199	-0.123934
H70	H	1.331459	-0.258159	0.338300
H71	H	1.695588	-0.000087	-0.221720
H72	H	1.274601	-0.000028	-0.408693
H73	H	1.689279	-0.000063	-0.459401
O74	O	1.233568	-0.400863	0.436084
C75	C	1.158587	-0.246034	0.511127
C76	C	1.251713	-0.301365	0.418101
H77	H	1.173243	-0.165580	0.496638
H78	H	1.057829	-0.265725	0.493825
H79	H	1.175807	-0.265844	0.611862
H80	H	1.234609	-0.281585	0.317331
H81	H	1.352440	-0.281669	0.435512
H82	H	1.331535	-0.741994	0.338292
H83	H	1.246854	-0.591246	0.422900
O84	O	1.736598	-0.599008	-0.066783
C85	C	1.808201	-0.629824	-0.284492
C86	C	1.715104	-0.574575	-0.191343
H87	H	1.790838	-0.610106	-0.385219
H88	H	1.908966	-0.610052	-0.267316
H89	H	1.793661	-0.710278	-0.269891
H90	H	1.729529	-0.494108	-0.205889
H91	H	1.614373	-0.594426	-0.208542
H92	H	1.638664	-0.258140	0.031299
H93	H	1.280893	-0.000041	-0.170985
