data_functionalizedCrystal
_audit_creation_method	'MofGen! by Chris Wilmer'
_symmetry_space_group_name_H-M	'P1'
_symmetry_Int_Tables_number	1
_symmetry_cell_setting	triclinic
loop_
_symmetry_equiv_pos_as_xyz
  x,y,z
_cell_length_a	12.827893
_cell_length_b	15.297327
_cell_length_c	12.827885
_cell_angle_alpha	99.642715
_cell_angle_beta	89.980728
_cell_angle_gamma	99.706564
loop_
_atom_site_label
_atom_site_type_symbol
_atom_site_fract_x
_atom_site_fract_y
_atom_site_fract_z
Zn1	Zn	1.525601	-0.359117	-0.662774
Zn2	Zn	1.495216	-0.510002	-0.518254
Zn3	Zn	1.350834	-0.359161	-0.488057
Zn4	Zn	1.320562	-0.509935	-0.692941
O5	O	1.423053	-0.434554	-0.590506
O6	O	1.667805	-0.379142	-0.643616
O7	O	1.476016	-0.490040	-0.368022
O8	O	1.399403	-0.232910	-0.485971
O9	O	1.645481	-0.489997	-0.537438
O10	O	1.527804	-0.232878	-0.614335
O11	O	1.369939	-0.379217	-0.345836
O12	O	1.200584	-0.379152	-0.515222
O13	O	1.347808	-0.489883	-0.835166
O14	O	1.178343	-0.489925	-0.665749
O15	O	1.498450	-0.379077	-0.813003
O16	O	1.446662	-0.636239	-0.566689
O17	O	1.318345	-0.636189	-0.695031
C18	C	1.151547	-0.434537	-0.590483
C19	C	1.035391	-0.434551	-0.590502
C20	C	1.375950	-0.668948	-0.637433
C21	C	1.355894	-0.769223	-0.657544
C22	C	0.972611	-0.489451	-0.664907
C23	C	0.852558	-0.489467	-0.664929
C24	C	1.566825	-1.051858	-0.447130
C25	C	1.585667	-0.957645	-0.428230
C26	C	1.528226	-0.910535	-0.485557
C27	C	1.451938	-0.957647	-0.561787
C28	C	1.433088	-1.051869	-0.580683
C29	C	1.394489	-0.910546	-0.619110
C30	C	1.318201	-0.957658	-0.695340
C31	C	1.299355	-1.051871	-0.714233
C32	C	1.356796	-1.098981	-0.656906
C33	C	1.413339	-0.816324	-0.600214
C34	C	1.279602	-0.816335	-0.733767
C35	C	1.260760	-0.910548	-0.752667
C36	C	1.695620	-0.434572	-0.590531
C37	C	1.811771	-0.434580	-0.590541
C38	C	1.423142	-0.434468	-0.863059
C39	C	1.423180	-0.434431	-0.979205
C40	C	1.470370	-0.199245	-0.543419
C41	C	1.490533	-0.098970	-0.523353
C42	C	1.497731	-0.379590	-1.020021
C43	C	1.497772	-0.379551	-1.140063
C44	C	1.423038	-0.434575	-0.319001
C45	C	1.423254	-0.434358	-0.202805
H46	H	1.007743	-0.536437	-0.728595
C47	C	1.584003	-0.316118	-1.187528
C48	C	1.701330	-0.323481	-1.174103
C49	C	1.787564	-0.260046	-1.221570
C50	C	1.756471	-0.189249	-1.282461
C51	C	1.639138	-0.181883	-1.295888
C52	C	1.552904	-0.245318	-1.248421
H53	H	1.724352	-0.375892	-1.129026
H54	H	1.874422	-0.265499	-1.211630
H55	H	1.820307	-0.142290	-1.317598
H56	H	1.616116	-0.129472	-1.340965
H57	H	1.466046	-0.239865	-1.258362
H58	H	1.613579	-1.090224	-0.400457
C59	C	1.337020	-0.497793	-1.155347
C60	C	1.324913	-0.600359	-1.190778
C61	C	1.238679	-0.663793	-1.143312
C62	C	1.164551	-0.624662	-1.060414
C63	C	1.176655	-0.522091	-1.024978
C64	C	1.262890	-0.458656	-1.072444
H65	H	1.379789	-0.629331	-1.252149
H66	H	1.229719	-0.739723	-1.169544
H67	H	1.100715	-0.671620	-1.025276
H68	H	1.121779	-0.493119	-0.963608
H69	H	1.271849	-0.382726	-1.046212
H70	H	0.798610	-0.536471	-0.728627
C71	C	0.987944	-0.371067	-0.504462
C72	C	1.001340	-0.378293	-0.387081
C73	C	0.953896	-0.314807	-0.301037
C74	C	0.893056	-0.244093	-0.332375
C75	C	0.879658	-0.236864	-0.449762
C76	C	0.927101	-0.300350	-0.535806
H77	H	1.046379	-0.430642	-0.363877
H78	H	0.963815	-0.320159	-0.214140
H79	H	0.857936	-0.197097	-0.268681
H80	H	0.834618	-0.184515	-0.472966
H81	H	0.917182	-0.294998	-0.622703
H82	H	1.359378	-0.481347	-1.033131
C83	C	1.176841	-0.962379	-0.836514
C84	C	1.081849	-1.027240	-0.804167
C85	C	0.997932	-1.079072	-0.888013
C86	C	1.009007	-1.066041	-1.004207
C87	C	1.104002	-1.001177	-1.036559
C88	C	1.187919	-0.949345	-0.952712
H89	H	1.073648	-1.036889	-0.718149
H90	H	0.927611	-1.127089	-0.864064
H91	H	0.946887	-1.104410	-1.066275
H92	H	1.112204	-0.991528	-1.122577
H93	H	1.258241	-0.901328	-0.976662
C94	C	1.497257	-0.764507	-0.516371
C95	C	1.486185	-0.777548	-0.400181
C96	C	1.570111	-0.725731	-0.316335
C97	C	1.665108	-0.660874	-0.348679
C98	C	1.676184	-0.647830	-0.464874
C99	C	1.592258	-0.699646	-0.548721
H100	H	1.415859	-0.825562	-0.376234
H101	H	1.561911	-0.735387	-0.230319
H102	H	1.727234	-0.622516	-0.286611
H103	H	1.746510	-0.599816	-0.488822
H104	H	1.600458	-0.689990	-0.634736
H105	H	0.865711	-0.387579	-0.526834
C106	C	1.669584	-0.905824	-0.344389
C107	C	1.732774	-0.957637	-0.281334
C108	C	1.816699	-0.905815	-0.197490
C109	C	1.837433	-0.802180	-0.176700
C110	C	1.774242	-0.750361	-0.239757
C111	C	1.690317	-0.802183	-0.323601
H112	H	1.717427	-1.034359	-0.296722
H113	H	1.863477	-0.944175	-0.150812
H114	H	1.899559	-0.763818	-0.114634
H115	H	1.789589	-0.673639	-0.224368
H116	H	1.643539	-0.763823	-0.370279
H117	H	1.543571	-0.833822	-0.470163
C118	C	1.583922	-0.316196	-0.947181
C119	C	1.701259	-0.323549	-0.963568
C120	C	1.787454	-0.260152	-0.890732
C121	C	1.756311	-0.189403	-0.801509
C122	C	1.638968	-0.182047	-0.785119
C123	C	1.552774	-0.245444	-0.857955
H124	H	1.724318	-0.375924	-1.029619
H125	H	1.874319	-0.265598	-0.902865
H126	H	1.820118	-0.142473	-0.747592
H127	H	1.615910	-0.129672	-0.719067
H128	H	1.465909	-0.239998	-0.845821
H129	H	1.232826	-0.777979	-0.780445
H130	H	1.341461	-1.175698	-0.672293
H131	H	1.237224	-1.090228	-0.776293
