data_functionalizedCrystal
_audit_creation_method	'MofGen! by Chris Wilmer'
_symmetry_space_group_name_H-M	'P1'
_symmetry_Int_Tables_number	1
_symmetry_cell_setting	triclinic
loop_
_symmetry_equiv_pos_as_xyz
  x,y,z
_cell_length_a	14.908571
_cell_length_b	12.759394
_cell_length_c	14.908308
_cell_angle_alpha	93.268403
_cell_angle_beta	90.175053
_cell_angle_gamma	86.711101
loop_
_atom_site_label
_atom_site_type_symbol
_atom_site_fract_x
_atom_site_fract_y
_atom_site_fract_z
Zn1	Zn	1.345341	-0.548282	-0.587592
Zn2	Zn	1.845341	-0.048282	-0.087592
Zn3	Zn	1.353935	-0.714462	-0.437236
Zn4	Zn	1.853935	-0.214462	0.062764
Zn5	Zn	1.203654	-0.528102	-0.428590
Zn6	Zn	1.703654	-0.028102	0.071410
Zn7	Zn	1.194963	-0.713213	-0.578887
Zn8	Zn	1.694963	-0.213213	-0.078887
O9	O	1.274473	-0.626015	-0.508076
O10	O	1.774473	-0.126015	-0.008076
O11	O	1.472308	-0.579294	-0.574908
O12	O	1.972308	-0.079294	-0.074908
O13	O	1.341234	-0.681818	-0.310264
O14	O	1.841234	-0.181818	0.189736
O15	O	1.222490	-0.383762	-0.449706
O16	O	1.722490	0.116238	0.050294
O17	O	1.478622	-0.701385	-0.464442
O18	O	1.978622	-0.201385	0.035558
O19	O	1.326587	-0.398588	-0.566525
O20	O	1.826587	0.101412	-0.066525
O21	O	1.230824	-0.544900	-0.303912
O22	O	1.730824	-0.044900	0.196088
O23	O	1.076675	-0.543690	-0.441266
O24	O	1.576675	-0.043690	0.058734
O25	O	1.207676	-0.699258	-0.705867
O26	O	1.707676	-0.199258	-0.205867
O27	O	1.070289	-0.679690	-0.551688
O28	O	1.570289	-0.179690	-0.051688
O29	O	1.318159	-0.578083	-0.712262
O30	O	1.818159	-0.078083	-0.212262
O31	O	1.332806	-0.861313	-0.456001
O32	O	1.832806	-0.361313	0.043999
O33	O	1.216010	-0.860396	-0.560072
O34	O	1.716010	-0.360396	-0.060072
C35	C	1.040856	-0.609365	-0.494595
C36	C	1.540856	-0.109365	0.005405
C37	C	0.940913	-0.602270	-0.488849
C38	C	1.440913	-0.102270	0.011151
C39	C	0.746516	-0.730752	-0.592880
C40	C	1.246516	-0.230752	-0.092880
C41	C	0.652610	-0.724088	-0.587484
C42	C	1.152610	-0.224088	-0.087484
C43	C	0.659192	-0.582274	-0.472666
C44	C	1.159192	-0.082274	0.027334
C45	C	0.753098	-0.588938	-0.478062
C46	C	1.253098	-0.088938	0.021938
C47	C	0.796757	-0.663180	-0.538170
C48	C	1.296757	-0.163180	-0.038170
C49	C	0.890665	-0.669848	-0.543561
C50	C	1.390665	-0.169848	-0.043561
C51	C	0.897246	-0.528030	-0.428748
C52	C	1.397246	-0.028030	0.071252
C53	C	0.803340	-0.521366	-0.423352
C54	C	1.303340	-0.021366	0.076648
C55	C	1.274420	-0.898977	-0.508051
C56	C	1.774420	-0.398977	-0.008051
C57	C	1.274478	-1.015759	-0.508075
C58	C	1.774478	-0.515759	-0.008075
C59	C	1.396180	-1.016672	-0.399798
C60	C	1.896180	-0.516672	0.100202
C61	C	1.457053	-1.071992	-0.345671
C62	C	1.957053	-0.571992	0.154329
C63	C	1.457105	-1.181719	-0.345698
C64	C	1.957105	-0.681719	0.154302
C65	C	1.396278	-1.236129	-0.399860
C66	C	1.896278	-0.736129	0.100140
C67	C	1.335404	-1.180809	-0.453987
C68	C	1.835404	-0.680809	0.046013
C69	C	1.335358	-1.071079	-0.453952
C70	C	1.835358	-0.571079	0.046048
C71	C	1.213709	-1.179897	-0.562269
C72	C	1.713709	-0.679897	-0.062269
C73	C	1.213651	-1.070169	-0.562238
C74	C	1.713651	-0.570169	-0.062238
C75	C	1.152882	-1.234306	-0.616431
C76	C	1.652882	-0.734306	-0.116431
C77	C	1.092002	-1.178986	-0.670555
C78	C	1.592002	-0.678986	-0.170555
C79	C	1.091953	-1.069252	-0.670524
C80	C	1.591953	-0.569252	-0.170524
C81	C	1.152778	-1.014849	-0.616365
C82	C	1.652778	-0.514849	-0.116365
C83	C	1.509002	-0.642730	-0.521611
C84	C	2.009002	-0.142730	-0.021611
C85	C	1.608945	-0.649853	-0.527378
C86	C	2.108945	-0.149853	-0.027378
C87	C	1.260989	-0.640782	-0.742602
C88	C	1.760989	-0.140782	-0.242602
C89	C	1.255243	-0.647075	-0.842543
C90	C	1.755243	-0.147075	-0.342543
C91	C	1.274549	-0.351989	-0.508122
C92	C	1.774549	0.148011	-0.008122
C93	C	1.274582	-0.235216	-0.508142
C94	C	1.774582	0.264784	-0.008142
C95	C	1.359488	-0.532697	-1.037003
C96	C	1.859488	-0.032697	-0.537003
C97	C	1.354092	-0.538606	-1.130907
C98	C	1.854092	-0.038606	-0.630907
C99	C	1.239051	-0.664798	-1.124254
C100	C	1.739051	-0.164798	-0.624254
C101	C	1.244447	-0.658888	-1.030351
C102	C	1.744447	-0.158888	-0.530351
C103	C	1.304669	-0.592837	-0.986729
C104	C	1.804669	-0.092837	-0.486729
C105	C	1.310069	-0.586934	-0.892824
C106	C	1.810069	-0.086934	-0.392824
C107	C	1.195024	-0.713118	-0.886173
C108	C	1.695024	-0.213118	-0.386173
C109	C	1.189627	-0.719028	-0.980077
C110	C	1.689627	-0.219028	-0.480077
C111	C	1.287956	-0.611232	-0.274466
C112	C	1.787956	-0.111232	0.225534
C113	C	1.293877	-0.604656	-0.174536
C114	C	1.793877	-0.104656	0.325464
H115	H	0.938162	-0.473010	-0.384197
H116	H	1.438162	0.026990	0.115803
F117	F	1.152657	-1.351047	-0.616144
F118	F	1.652657	-0.851047	-0.116144
F119	F	1.521896	-1.240596	-0.288095
F120	F	2.021896	-0.740596	0.211905
F121	F	0.756865	-0.442352	-0.359388
F122	F	1.256865	0.057648	0.140612
H123	H	1.152738	-0.925503	-0.616329
H124	H	1.652738	-0.425503	-0.116329
H125	H	1.408528	-0.478921	-1.001486
H126	H	1.908528	0.021079	-0.501486
H127	H	1.359106	-0.533153	-0.857308
H128	H	1.859106	-0.033153	-0.357308
H129	H	0.782063	-0.791208	-0.641817
H130	H	1.282063	-0.291208	-0.141817
F131	F	1.136684	-0.777137	-0.832661
F132	F	1.636684	-0.277137	-0.332661
H133	H	1.398730	-0.489631	-1.171837
H134	H	1.898730	0.010369	-0.671837
F135	F	1.396316	-0.899918	-0.399973
F136	F	1.896316	-0.399918	0.100027
F137	F	0.612712	-0.503254	-0.408712
F138	F	1.112712	-0.003254	0.091288
H139	H	1.042486	-1.223296	-0.714653
H140	H	1.542486	-0.723296	-0.214653
F141	F	1.027166	-1.010386	-0.728140
F142	F	1.527166	-0.510386	-0.228140
F143	F	0.937128	-0.748865	-0.607530
F144	F	1.437128	-0.248865	-0.107530
F145	F	1.174958	-0.735081	-1.170695
F146	F	1.674958	-0.235081	-0.670695
H147	H	1.140595	-0.772803	-1.015607
H148	H	1.640595	-0.272803	-0.515607
H149	H	0.611707	-0.779110	-0.632037
H150	H	1.111707	-0.279110	-0.132037
H151	H	1.506580	-1.027682	-0.301574
H152	H	2.006580	-0.527682	0.198426
H153	H	1.396332	-1.325475	-0.399886
H154	H	1.896332	-0.825475	0.100114
