data_functionalizedCrystal
_audit_creation_method	'MofGen! by Chris Wilmer'
_symmetry_space_group_name_H-M	'P1'
_symmetry_Int_Tables_number	1
_symmetry_cell_setting	triclinic
loop_
_symmetry_equiv_pos_as_xyz
  x,y,z
_cell_length_a	10.967926
_cell_length_b	12.811415
_cell_length_c	9.482900
_cell_angle_alpha	94.039455
_cell_angle_beta	92.549900
_cell_angle_gamma	85.527577
loop_
_atom_site_label
_atom_site_type_symbol
_atom_site_fract_x
_atom_site_fract_y
_atom_site_fract_z
O1	O	1.614832	0.182203	0.259655
O2	O	1.265676	0.184467	0.171879
O3	O	1.445995	0.033466	0.236970
O4	O	1.434513	0.333204	0.194564
O5	O	1.409371	0.064267	0.465525
O6	O	1.229052	0.215268	0.400434
O7	O	1.578208	0.213004	0.488210
Cu8	Cu	1.400286	0.216948	0.465191
Cu9	Cu	1.443598	0.180523	0.194898
O10	O	1.397889	0.364005	0.423119
C11	C	1.202614	0.197375	0.275273
C12	C	1.069271	0.189937	0.242846
C13	C	0.990851	0.202577	0.346787
C14	C	0.853034	0.194890	0.313275
C15	C	1.425917	0.010379	0.355878
C16	C	1.420641	-0.104302	0.369671
C17	C	1.450636	-0.353373	0.146385
C18	C	1.445679	-0.461127	0.159339
C19	C	1.405763	-0.427566	0.408527
C20	C	1.410719	-0.319812	0.395574
C21	C	1.433158	-0.282720	0.264499
C22	C	1.438123	-0.174964	0.251549
C23	C	1.398198	-0.141405	0.500735
C24	C	1.393242	-0.249159	0.513688
C25	C	1.641271	0.200095	0.384813
C26	C	1.774615	0.207532	0.417231
C27	C	1.417967	0.387092	0.304208
C28	C	1.423245	0.501772	0.290406
N29	N	1.369832	0.242568	0.655302
N30	N	1.474062	0.154895	0.004790
C31	C	1.434607	0.188074	0.750917
C32	C	1.409277	0.209398	0.909176
H33	H	0.818150	0.178374	0.199470
H34	H	0.809498	0.224042	0.531037
O35	O	1.027449	0.170290	0.107152
C36	C	0.851971	0.144609	-0.049953
C37	C	0.899162	0.166889	0.103781
H38	H	0.748250	0.141830	-0.052725
H39	H	0.877141	0.209449	-0.117253
H40	H	0.895612	0.065972	-0.093685
H41	H	0.855546	0.245494	0.147642
H42	H	0.874009	0.101987	0.170984
O43	O	1.472233	-0.317366	0.018988
C44	C	1.404275	-0.305638	-0.224933
C45	C	1.379653	-0.346455	-0.080730
H46	H	1.329455	-0.329160	-0.305601
H47	H	1.404751	-0.216480	-0.213994
H48	H	1.496913	-0.341122	-0.261979
H49	H	1.287015	-0.311049	-0.043601
H50	H	1.379256	-0.435616	-0.091750
H51	H	1.383971	-0.083867	0.596913
O52	O	1.459876	-0.139101	0.124112
C53	C	1.499006	-0.183772	-0.121665
C54	C	1.474357	-0.224521	0.022571
H55	H	1.510747	-0.252814	-0.203793
H56	H	1.418582	-0.128159	-0.155822
H57	H	1.586031	-0.140168	-0.112128
H58	H	1.387372	-0.268173	0.013148
H59	H	1.554849	-0.280081	0.056677
O60	O	1.032298	0.222416	0.482586
C61	C	1.025478	0.342100	0.690308
C62	C	0.978426	0.319754	0.536535
H63	H	0.981963	0.420807	0.733962
H64	H	1.000169	0.277330	0.757643
H65	H	1.129219	0.344733	0.693124
H66	H	0.874685	0.317140	0.533585
H67	H	1.003829	0.384529	0.469267
H68	H	1.459907	-0.518650	0.063157
O69	O	1.383753	-0.463555	0.535810
C70	C	1.244502	-0.460355	0.725845
C71	C	1.269256	-0.419527	0.581690
H72	H	1.151945	-0.424758	0.762997
H73	H	1.243873	-0.549502	0.714844
H74	H	1.319420	-0.436976	0.806468
H75	H	1.194367	-0.442830	0.500991
H76	H	1.269931	-0.330386	0.592805
O77	O	1.523012	0.113457	0.708832
C78	C	1.595399	-0.069191	0.704146
C79	C	1.495175	0.015194	0.751876
H80	H	1.572942	-0.148652	0.738954
H81	H	1.600030	-0.073179	0.584006
H82	H	1.687480	-0.048190	0.754232
H83	H	1.403041	-0.005746	0.701892
H84	H	1.490652	0.019165	0.872025
O85	O	1.320580	0.283778	0.951183
C86	C	1.106437	0.342160	0.936673
C87	C	1.206758	0.257842	0.889014
H88	H	1.014394	0.321232	0.886407
H89	H	1.101675	0.346083	1.056798
H90	H	1.129000	0.421637	0.902021
H91	H	1.184268	0.178321	0.923567
H92	H	1.211499	0.254011	0.768892
H93	H	1.548270	0.092446	0.969494
H94	H	1.295619	0.305005	0.690604
H95	H	1.374968	-0.279375	0.620404
