data_functionalizedCrystal
_audit_creation_method	'MofGen! by Chris Wilmer'
_symmetry_space_group_name_H-M	'P1'
_symmetry_Int_Tables_number	1
_symmetry_cell_setting	triclinic
loop_
_symmetry_equiv_pos_as_xyz
  x,y,z
_cell_length_a	23.532407
_cell_length_b	22.610064
_cell_length_c	14.044220
_cell_angle_alpha	90.003525
_cell_angle_beta	91.981222
_cell_angle_gamma	90.002839
loop_
_atom_site_label
_atom_site_type_symbol
_atom_site_fract_x
_atom_site_fract_y
_atom_site_fract_z
O1	O	0.761496	0.049112	-0.114997
O2	O	0.596535	0.049129	-0.131637
O3	O	0.676540	0.049115	0.014644
O4	O	0.681492	0.049126	-0.261278
O5	O	0.676525	-0.049254	0.014623
O6	O	0.596521	-0.049240	-0.131659
O7	O	0.761482	-0.049257	-0.115018
Zn8	Zn	0.678999	-0.064867	-0.123342
Zn9	Zn	0.679018	0.064739	-0.123314
O10	O	0.681477	-0.049243	-0.261300
C11	C	0.575289	-0.000053	-0.131224
C12	C	0.512003	-0.000046	-0.129950
C13	C	0.117159	-0.000070	-0.208526
C14	C	0.057694	-0.000074	-0.207342
O15	O	0.024898	-0.000092	-0.280182
N16	N	0.030354	-0.000076	-0.120378
C17	C	0.062482	-0.000081	-0.034591
O18	O	0.033767	-0.000084	0.039488
C19	C	0.121946	-0.000082	-0.035776
C20	C	0.149282	-0.000073	-0.122746
C21	C	0.144495	-0.000062	-0.295489
C22	C	0.203956	-0.000057	-0.296672
C23	C	0.236079	-0.000061	-0.210892
C24	C	0.208742	-0.000068	-0.123929
C25	C	0.154072	-0.000091	0.050010
C26	C	0.213539	-0.000092	0.048818
C27	C	0.240876	-0.000083	-0.038152
C28	C	0.300326	-0.000067	-0.039332
N29	N	0.327666	-0.000064	-0.126297
C30	C	0.295542	-0.000061	-0.212077
C31	C	-0.062395	-0.000081	-0.032110
C32	C	-0.121857	-0.000076	-0.030925
C33	C	-0.126641	-0.000070	-0.203676
C34	C	-0.067178	-0.000070	-0.204861
C35	C	-0.035055	-0.000079	-0.119075
C36	C	0.420413	-0.000051	-0.214555
C37	C	0.479879	-0.000043	-0.215730
C38	C	0.484658	-0.000053	-0.042979
C39	C	0.425198	-0.000057	-0.041803
C40	C	0.393076	-0.000058	-0.127599
O41	O	0.333159	-0.000051	0.033470
O42	O	0.324265	-0.000066	-0.286143
N43	N	0.678990	-0.153319	-0.123360
C44	C	0.714446	-0.561967	-0.058550
C45	C	0.714449	-0.623887	-0.058543
O46	O	0.744571	-0.655911	-0.003453
N47	N	0.679017	-0.654856	-0.123294
C48	C	0.643575	-0.623903	-0.188050
O49	O	0.613437	-0.655930	-0.243124
C50	C	0.643570	-0.561984	-0.188051
C51	C	0.679009	-0.531018	-0.123302
C52	C	0.749882	-0.531001	0.006194
C53	C	0.749880	-0.469085	0.006186
C54	C	0.714442	-0.438136	-0.058567
C55	C	0.679007	-0.469102	-0.123311
C56	C	0.608126	-0.531031	-0.252802
C57	C	0.608124	-0.469108	-0.252797
C58	C	0.643563	-0.438142	-0.188048
C59	C	0.643568	-0.376237	-0.188072
N60	N	0.679000	-0.345268	-0.123321
C61	C	0.714437	-0.376217	-0.058568
C62	C	0.643588	-0.753936	-0.188040
C63	C	0.643595	-0.815854	-0.188044
C64	C	0.714469	-0.815834	-0.058536
C65	C	0.714463	-0.753915	-0.058537
C66	C	0.679020	-0.722967	-0.123289
C67	C	0.714431	-0.246190	-0.058591
C68	C	0.714428	-0.184269	-0.058608
C69	C	0.643553	-0.184294	-0.188112
C70	C	0.643558	-0.246210	-0.188099
C71	C	0.678999	-0.277156	-0.123331
O72	O	0.613459	-0.344174	-0.243131
O73	O	0.744565	-0.344182	-0.003495
C74	C	0.782728	-0.000074	-0.115431
C75	C	0.846014	-0.000076	-0.116705
C76	C	0.674365	-0.000070	0.049928
C77	C	0.667899	-0.000070	0.155093
N78	N	0.679031	0.153191	-0.123287
C79	C	0.683652	-0.000057	-0.296583
C80	C	0.690118	-0.000053	-0.401748
C81	C	0.656078	-0.000060	0.347643
C82	C	0.701937	-0.000063	0.405708
C83	C	0.695359	-0.000057	0.512849
C84	C	0.662654	-0.000065	0.240491
H85	H	-0.036244	-0.000082	0.037752
H86	H	0.743290	-0.271379	-0.005850
N87	N	0.231863	-0.000062	-0.385521
N88	N	0.223607	-0.041527	-0.443222
H89	H	0.243312	-0.041533	-0.505978
H90	H	0.502134	-0.000036	-0.286555
N91	N	0.517469	-0.000068	0.044647
N92	N	0.493060	-0.000081	0.122294
H93	H	0.516233	-0.000097	0.184183
N94	N	0.600635	-0.000050	0.386232
N95	N	0.595304	-0.000046	0.474477
H96	H	0.556148	-0.000040	0.501742
N97	N	-0.039257	-0.000080	-0.293698
N98	N	-0.006618	-0.041549	-0.313644
H99	H	0.013099	-0.041558	-0.376389
H100	H	0.614706	-0.271423	-0.240832
N101	N	0.750627	-0.152647	0.007550
N102	N	0.782257	-0.180293	0.065369
H103	H	0.807819	-0.157963	0.112098
H104	H	0.743323	-0.841044	-0.005809
N105	N	0.607391	-0.847481	-0.254177
N106	N	0.570528	-0.882029	-0.224412
H107	H	0.544955	-0.904364	-0.271116
H108	H	0.778735	-0.443876	0.058912
N109	N	-0.159452	-0.000079	-0.291310
N110	N	-0.135043	-0.000079	-0.368957
H111	H	-0.158216	-0.000086	-0.430845
H112	H	0.746138	-0.000028	0.374953
N113	N	0.246360	-0.000104	0.136439
N114	N	0.280076	-0.041569	0.155038
H115	H	0.303256	-0.041577	0.216920
H116	H	0.394267	-0.000053	-0.284418
N117	N	0.786084	-0.562599	0.072354
N118	N	0.817716	-0.534931	0.130153
H119	H	0.843289	-0.557243	0.176879
N120	N	0.111696	-0.000063	-0.383128
N121	N	0.136123	-0.000058	-0.460759
H122	H	0.112963	-0.000055	-0.522661
N123	N	0.750628	-0.722279	0.007645
N124	N	0.745367	-0.729199	0.095202
H125	H	0.770898	-0.706853	0.141958
N126	N	-0.149768	-0.000072	0.057922
N127	N	-0.121072	-0.000071	0.134500
H128	H	-0.140781	-0.000070	0.197251
H129	H	0.131825	-0.000098	0.120830
H130	H	0.579268	-0.556236	-0.305525
N131	N	0.397279	-0.000056	0.047040
N132	N	0.425971	-0.000055	0.123623
H133	H	0.406258	-0.000059	0.186371
N134	N	0.607380	-0.722335	-0.254197
N135	N	0.575749	-0.749999	-0.312001
H136	H	0.550175	-0.727684	-0.358724
H137	H	0.614702	-0.159085	-0.240836
N138	N	0.571912	-0.437506	-0.318945
N139	N	0.540276	-0.465167	-0.376745
H140	H	0.514702	-0.442849	-0.423463
