data_functionalizedCrystal
_audit_creation_method	'MofGen! by Chris Wilmer'
_symmetry_space_group_name_H-M	'P1'
_symmetry_Int_Tables_number	1
_symmetry_cell_setting	triclinic
loop_
_symmetry_equiv_pos_as_xyz
  x,y,z
_cell_length_a	14.044202
_cell_length_b	12.837942
_cell_length_c	11.295483
_cell_angle_alpha	85.469583
_cell_angle_beta	94.477316
_cell_angle_gamma	94.010821
loop_
_atom_site_label
_atom_site_type_symbol
_atom_site_fract_x
_atom_site_fract_y
_atom_site_fract_z
O1	O	-1.286274	-0.245628	-0.098962
O2	O	-1.009483	-0.236523	-0.098978
O3	O	-1.141740	-0.089605	-0.098963
O4	O	-1.154016	-0.392545	-0.098977
O5	O	-1.130122	-0.102487	0.099086
O6	O	-0.997865	-0.249405	0.099071
O7	O	-1.274655	-0.258510	0.099087
Cu8	Cu	-1.135199	-0.255134	0.117163
Cu9	Cu	-1.148939	-0.239899	-0.117054
O10	O	-1.142398	-0.405428	0.099072
C11	C	-0.968000	-0.238981	0.000045
C12	C	-0.861701	-0.227103	0.000039
C13	C	-0.617062	-0.289623	0.000047
C14	C	-0.667084	-0.205405	0.000049
C15	C	-0.775379	-0.217480	0.000044
C16	C	-0.508757	-0.277549	0.000053
C17	C	-0.316139	-0.256049	0.000061
C18	C	-0.422438	-0.267920	0.000058
C19	C	-1.131785	-0.057042	0.000061
C20	C	-1.119417	0.059179	0.000058
C21	C	-1.152354	-0.437991	0.000046
C22	C	-1.164722	-0.554211	0.000041
N23	N	-1.125542	-0.265849	0.281898
C24	C	-1.268098	0.286385	0.000042
C25	C	-1.256482	0.395586	0.000039
C26	C	-1.084571	0.386783	0.000042
C27	C	-1.096187	0.277583	0.000044
C28	C	-1.187953	0.227388	0.000046
C29	C	-1.199568	0.118184	0.000057
C30	C	-1.027658	0.109385	0.000051
C31	C	-1.016042	0.218585	0.000049
N32	N	-1.158603	-0.229176	-0.281789
C33	C	-1.228116	-0.151982	0.531199
C34	C	-1.220825	-0.160088	0.655862
C35	C	-1.103666	-0.290160	0.655889
C36	C	-1.110956	-0.282055	0.531226
C37	C	-1.173184	-0.212964	0.468885
C38	C	-1.180479	-0.204865	0.344220
C39	C	-1.063316	-0.334931	0.344250
C40	C	-1.056025	-0.343037	0.468912
H41	H	-1.274288	0.077317	0.000063
H42	H	-1.052994	-0.346405	0.706663
H43	H	-1.231151	-0.148611	0.293464
Br44	Br	-0.971572	-0.436793	0.553524
H45	H	-1.018590	-0.384590	0.293500
Br46	Br	-1.392631	0.218255	0.000081
H47	H	-1.321745	0.443618	0.000032
Br48	Br	-0.960044	0.454927	-0.000004
H49	H	-0.628581	-0.124228	-0.000031
H50	H	-0.655567	-0.370788	0.000040
Br51	Br	-0.891510	0.286718	0.000031
H52	H	-0.962398	0.061337	0.000064
Br53	Br	-1.312579	-0.058235	0.446591
H54	H	-1.265554	-0.110429	0.706594
