data_functionalizedCrystal
_audit_creation_method	'MofGen! by Chris Wilmer'
_symmetry_space_group_name_H-M	'P1'
_symmetry_Int_Tables_number	1
_symmetry_cell_setting	triclinic
loop_
_symmetry_equiv_pos_as_xyz
  x,y,z
_cell_length_a	19.288840
_cell_length_b	15.944493
_cell_length_c	17.766277
_cell_angle_alpha	89.999511
_cell_angle_beta	89.983415
_cell_angle_gamma	83.300531
loop_
_atom_site_label
_atom_site_type_symbol
_atom_site_fract_x
_atom_site_fract_y
_atom_site_fract_z
O1	O	0.921622	0.104686	-0.062710
O2	O	0.719394	0.118844	-0.062683
O3	O	0.826051	-0.010535	-0.062704
O4	O	0.814964	0.234065	-0.062690
O5	O	0.826032	-0.010542	0.062485
O6	O	0.719375	0.118837	0.062506
O7	O	0.921603	0.104680	0.062478
Cu8	Cu	0.820487	0.111758	0.073923
Cu9	Cu	0.820509	0.111766	-0.074127
O10	O	0.814946	0.234059	0.062499
C11	C	0.693506	0.118389	-0.000085
C12	C	0.616398	0.117032	-0.000075
C13	C	0.580204	0.116383	-0.068318
C14	C	0.507754	0.115099	-0.068327
C15	C	0.471503	0.114446	-0.000090
C16	C	0.507706	0.115099	0.068161
C17	C	0.580154	0.116392	0.068168
C18	C	0.362041	0.063195	0.052175
C19	C	0.289595	0.061897	0.052165
C20	C	0.248050	0.110462	-0.000110
C21	C	0.278960	0.160315	-0.052388
C22	C	0.351407	0.161608	-0.052380
C23	C	0.392945	0.113045	-0.000091
C24	C	0.133296	0.108423	-0.068367
C25	C	0.060844	0.107143	-0.068373
C26	C	0.060799	0.107135	0.068117
C27	C	0.133248	0.108423	0.068121
C28	C	0.169493	0.109062	-0.000123
C29	C	0.825589	-0.041831	-0.000113
C30	C	0.824230	-0.135075	-0.000122
C31	C	0.887011	-0.371083	-0.000116
C32	C	0.853165	-0.421514	-0.061836
C33	C	0.821713	-0.305786	-0.000112
C34	C	0.853131	-0.421496	0.061590
C35	C	0.819286	-0.470686	-0.000100
C36	C	0.787884	-0.354988	-0.061883
C37	C	0.787860	-0.354967	0.061599
C38	C	0.753966	-0.405365	-0.000136
C39	C	0.823113	-0.210791	-0.000120
C40	C	0.817881	-0.565677	-0.000097
C41	C	0.947490	0.105135	-0.000121
C42	C	1.024598	0.106492	-0.000136
C43	C	0.815408	0.265355	-0.000094
C44	C	0.816767	0.358598	-0.000089
N45	N	0.820477	0.111752	0.178053
N46	N	0.820525	0.111765	-0.178258
C47	C	0.867720	0.054491	0.217431
C48	C	0.867724	0.054487	0.296232
C49	C	0.820491	0.111759	0.335653
C50	C	0.773239	0.169024	0.296266
C51	C	0.773232	0.169021	0.217466
C52	C	0.811381	0.188295	0.460497
C53	C	0.811393	0.188299	0.539295
C54	C	0.820510	0.111769	0.578700
C55	C	0.829629	0.035230	0.539296
C56	C	0.829622	0.035227	0.460495
C57	C	0.820494	0.111768	0.421099
C58	C	0.867760	0.054499	0.703523
C59	C	0.867759	0.054494	0.782327
C60	C	0.773278	0.169038	0.782359
C61	C	0.773275	0.169036	0.703557
C62	C	0.820520	0.111767	0.664144
H63	H	0.478278	0.114572	-0.123900
H64	H	0.245134	0.199865	-0.094953
N65	N	0.802075	0.266483	0.420262
N66	N	0.793949	0.334812	0.455450
H67	H	0.787381	0.390031	0.427035
H68	H	0.760300	-0.325900	0.113788
H69	H	0.734818	0.215666	0.814455
H70	H	0.162807	0.108952	-0.123935
N71	N	0.258037	0.010963	0.105561
N72	N	0.295136	-0.032389	0.152237
H73	H	0.272850	-0.068364	0.189949
N74	N	0.838932	-0.042944	0.579547
N75	N	0.838925	-0.042934	0.649903
H76	H	0.845492	-0.098143	0.678335
N77	N	0.753323	-0.318689	-0.127410
N78	N	0.748827	-0.240741	-0.138003
H79	H	0.724421	-0.215102	-0.184282
H80	H	0.906196	0.007857	0.328300
N81	N	0.683350	-0.424482	-0.000173
N82	N	0.643497	-0.399918	-0.053212
H83	H	0.593625	-0.413419	-0.053242
H84	H	0.734760	0.215650	0.185404
H85	H	0.880713	-0.450539	0.113766
N86	N	0.957573	-0.351765	-0.000192
N87	N	1.006855	-0.410095	-0.000792
H88	H	1.056689	-0.396452	-0.000848
N89	N	0.802083	0.266468	0.579557
N90	N	0.848478	0.285186	0.623509
H91	H	0.841902	0.340393	0.651945
N92	N	0.916041	-0.003941	0.177184
N93	N	0.958258	-0.055017	0.212359
H94	H	0.992407	-0.096259	0.183934
N95	N	0.724983	0.227514	0.336531
N96	N	0.681881	0.200996	0.380521
H97	H	0.647795	0.242303	0.408958
N98	N	0.887773	-0.457951	-0.127305
N99	N	0.950727	-0.450263	-0.138314
H100	H	0.975173	-0.475993	-0.184550
H101	H	0.837046	-0.027093	0.428416
N102	N	0.915934	-0.004107	0.663270
N103	N	0.958052	-0.055306	0.698443
H104	H	0.992043	-0.096737	0.670016
N105	N	0.617214	0.117037	-0.138031
N106	N	0.584883	0.116459	-0.198958
H107	H	0.611022	0.116922	-0.248195
N108	N	0.170229	0.109055	0.137829
N109	N	0.217067	0.050573	0.153052
H110	H	0.243186	0.051020	0.202286
H111	H	0.376571	0.202202	-0.094945
N112	N	0.725013	0.227533	0.663341
N113	N	0.682840	0.278662	0.698544
H114	H	0.648750	0.319978	0.670142
N115	N	0.023882	0.106475	-0.138093
N116	N	0.038410	0.047418	-0.183784
H117	H	0.012307	0.046945	-0.233026
H118	H	0.906228	0.007861	0.814389
H119	H	0.031284	0.106609	0.123676
H120	H	0.395863	0.023644	0.094748
N121	N	0.617131	0.117031	0.137880
N122	N	0.663967	0.058548	0.153107
H123	H	0.690084	0.058997	0.202343
H124	H	0.478186	0.114570	0.123720
