data_functionalizedCrystal
_audit_creation_method	'MofGen! by Chris Wilmer'
_symmetry_space_group_name_H-M	'P1'
_symmetry_Int_Tables_number	1
_symmetry_cell_setting	triclinic
loop_
_symmetry_equiv_pos_as_xyz
  x,y,z
_cell_length_a	15.625691
_cell_length_b	15.712078
_cell_length_c	14.185569
_cell_angle_alpha	107.170411
_cell_angle_beta	85.701358
_cell_angle_gamma	78.967311
loop_
_atom_site_label
_atom_site_type_symbol
_atom_site_fract_x
_atom_site_fract_y
_atom_site_fract_z
O1	O	-0.479341	1.168794	0.090681
O2	O	-0.414625	0.911540	0.067195
O3	O	-0.325382	1.036505	0.034717
O4	O	-0.568583	1.043829	0.123158
O5	O	-0.299023	1.073421	0.191959
O6	O	-0.388266	0.948456	0.224437
O7	O	-0.452982	1.205710	0.247923
Cu8	Cu	-0.418217	1.080454	0.250537
Cu9	Cu	-0.449389	1.036796	0.064580
O10	O	-0.542224	1.080745	0.280400
C11	C	-0.390873	0.896880	0.141977
C12	C	-0.359362	0.798197	0.130536
C13	C	-0.626890	0.454276	0.227755
C14	C	-0.597267	0.361540	0.216957
C15	C	-0.448814	0.369287	0.162969
C16	C	-0.478426	0.462024	0.173758
C17	C	-0.567464	0.504511	0.206152
C18	C	-0.419000	0.512259	0.152155
C19	C	-0.448609	0.604989	0.162947
C20	C	-0.537643	0.647484	0.195343
C21	C	-0.597072	0.597241	0.216944
C22	C	-0.329961	0.469772	0.119768
C23	C	-0.270535	0.520007	0.098165
C24	C	-0.300145	0.612737	0.108951
C25	C	-0.389179	0.655232	0.141346
C26	C	-0.240715	0.662980	0.087349
C27	C	-0.270323	0.755710	0.098142
C28	C	-0.418787	0.747962	0.152139
C29	C	-0.587249	1.065616	0.213360
C30	C	-0.682142	1.075547	0.247866
C31	C	-1.066114	1.007588	-0.067131
C32	C	-1.155272	1.016918	-0.034671
C33	C	-1.126504	1.057159	0.136736
C34	C	-1.037340	1.047828	0.104290
C35	C	-1.007153	1.023044	0.002355
C36	C	-0.978380	1.063284	0.173776
C37	C	-0.889225	1.053958	0.141333
C38	C	-0.859031	1.029177	0.039403
C39	C	-0.917998	1.013718	-0.030088
C40	C	-1.008570	1.088075	0.275711
C41	C	-0.949609	1.103530	0.345197
C42	C	-0.860452	1.094198	0.312754
C43	C	-0.830258	1.069417	0.210824
C44	C	-0.801484	1.109657	0.382245
C45	C	-0.712330	1.100332	0.349801
C46	C	-0.741103	1.060092	0.178380
C47	C	-0.280357	1.051633	0.101756
C48	C	-0.185465	1.041701	0.067243
C49	C	-0.476733	1.220370	0.173138
C50	C	-0.508246	1.319051	0.184573
N51	N	-0.396293	1.111167	0.381330
N52	N	-0.471308	1.006090	-0.066214
C53	C	-0.535683	0.915852	0.799707
C54	C	-0.519084	0.939123	0.898687
C55	C	-0.440110	1.049808	0.869908
C56	C	-0.456699	1.026543	0.770921
C57	C	-0.504487	0.959565	0.735829
C58	C	-0.425502	1.070256	0.707044
C59	C	-0.442094	1.046996	0.608068
C60	C	-0.489882	0.980023	0.572969
C61	C	-0.521078	0.936305	0.636853
C62	C	-0.377720	1.137238	0.742140
C63	C	-0.346523	1.180951	0.678263
C64	C	-0.363110	1.157687	0.579282
C65	C	-0.410898	1.090714	0.544183
C66	C	-0.331913	1.201405	0.515398
C67	C	-0.348505	1.178144	0.416422
C68	C	-0.427490	1.067454	0.445207
H69	H	-0.168218	0.628375	0.060986
H70	H	-0.503394	0.961088	0.492376
H71	H	-0.305855	0.394267	0.110993
H72	H	-0.221933	0.796612	0.080548
H73	H	-0.669576	0.631837	0.243324
Cl74	Cl	-0.574860	0.764071	0.208954
Cl75	Cl	-0.356869	1.166481	0.866572
H76	H	-0.699393	0.488872	0.254134
Cl77	Cl	-0.671982	0.298392	0.244128
Cl78	Cl	-0.380037	1.134009	0.914032
H79	H	-0.376317	0.334684	0.136605
H80	H	-1.081167	1.095670	0.302124
Cl81	Cl	-0.309289	1.233103	0.336118
Cl82	Cl	-0.839448	1.140827	0.510387
H83	H	-0.198038	0.485404	0.071800
Cl84	Cl	-0.703144	1.028918	0.050230
Cl85	Cl	-0.558312	0.884162	0.978987
Cl86	Cl	-0.271851	1.285612	0.559528
Cl87	Cl	-0.286451	1.265152	0.722387
H88	H	-0.491291	0.782558	0.178518
H89	H	-1.203277	1.004330	-0.091263
H90	H	-0.786435	1.021588	0.012989
H91	H	-0.893416	0.993521	-0.113094
H92	H	-0.559984	0.881758	0.608278
Cl93	Cl	-0.595750	0.831639	0.755584
H94	H	-1.041531	0.987391	-0.150137
H95	H	-1.151096	1.077342	0.219732
H96	H	-0.974201	1.123713	0.428193
H97	H	-0.664321	1.112915	0.406384
H98	H	-0.466396	1.012907	0.416632
