data_functionalizedCrystal
_audit_creation_method	'MofGen! by Chris Wilmer'
_symmetry_space_group_name_H-M	'P1'
_symmetry_Int_Tables_number	1
_symmetry_cell_setting	triclinic
loop_
_symmetry_equiv_pos_as_xyz
  x,y,z
_cell_length_a	17.638686
_cell_length_b	17.637651
_cell_length_c	21.395355
_cell_angle_alpha	101.232233
_cell_angle_beta	101.215298
_cell_angle_gamma	87.823829
loop_
_atom_site_label
_atom_site_type_symbol
_atom_site_fract_x
_atom_site_fract_y
_atom_site_fract_z
Zn1	Zn	1.099862	-0.537652	0.443956
Zn2	Zn	1.599862	-0.037652	0.943956
Zn3	Zn	1.074105	-0.664623	0.314694
Zn4	Zn	1.574105	-0.164623	0.814694
Zn5	Zn	0.972862	-0.511924	0.323005
Zn6	Zn	1.472862	-0.011924	0.823005
Zn7	Zn	0.947190	-0.638893	0.403261
Zn8	Zn	1.447190	-0.138893	0.903261
O9	O	1.023505	-0.588273	0.371229
O10	O	1.523505	-0.088273	0.871229
O11	O	1.202709	-0.576030	0.440362
O12	O	1.702709	-0.076030	0.940362
O13	O	1.060639	-0.644369	0.228113
O14	O	1.560639	-0.144369	0.728113
O15	O	1.011232	-0.409063	0.359559
O16	O	1.511232	0.090937	0.859559
O17	O	1.183786	-0.669316	0.345394
O18	O	1.683786	-0.169316	0.845394
O19	O	1.104539	-0.427964	0.448421
O20	O	1.604539	0.072036	0.948421
O21	O	0.986257	-0.532182	0.234219
O22	O	1.486257	-0.032182	0.734219
O23	O	0.863193	-0.507232	0.320098
O24	O	1.363193	-0.007232	0.820098
O25	O	0.967478	-0.625461	0.496343
O26	O	1.467478	-0.125461	0.996343
O27	O	0.844331	-0.600514	0.379061
O28	O	1.344331	-0.100514	0.879061
O29	O	1.079645	-0.551080	0.526242
O30	O	1.579645	-0.051080	1.026242
O31	O	1.035746	-0.767485	0.305933
O32	O	1.535746	-0.267485	0.805933
O33	O	0.942502	-0.748581	0.371003
O34	O	1.442502	-0.248581	0.871003
C35	C	0.826209	-0.548290	0.346066
C36	C	1.326209	-0.048290	0.846066
C37	C	0.741801	-0.531203	0.335312
C38	C	1.241801	-0.031203	0.835312
C39	C	0.415123	-0.718245	0.453048
C40	C	0.915123	-0.218245	0.953048
C41	C	0.335810	-0.702183	0.442929
C42	C	0.835810	-0.202183	0.942929
C43	C	0.355447	-0.604897	0.381684
C44	C	0.855447	-0.104897	0.881684
C45	C	0.434763	-0.620953	0.391795
C46	C	0.934763	-0.120953	0.891795
C47	C	0.464594	-0.677628	0.427478
C48	C	0.964594	-0.177628	0.927478
C49	C	0.484234	-0.580336	0.366225
C50	C	0.984234	-0.080336	0.866225
C51	C	0.563543	-0.596389	0.376339
C52	C	1.063543	-0.096389	0.876339
C53	C	0.593381	-0.653059	0.412022
C54	C	1.093381	-0.153059	0.912022
C55	C	0.543903	-0.693681	0.437592
C56	C	1.043903	-0.193681	0.937592
C57	C	0.454402	-0.523658	0.330546
C58	C	0.954402	-0.023658	0.830546
C59	C	0.503873	-0.483041	0.304976
C60	C	1.003873	0.016959	0.804976
C61	C	0.583183	-0.499097	0.315086
C62	C	1.083183	0.000903	0.815086
C63	C	0.613021	-0.555767	0.350769
C64	C	1.113021	-0.055767	0.850769
C65	C	0.632661	-0.458475	0.289516
C66	C	1.132661	0.041525	0.789516
C67	C	0.711970	-0.474528	0.299629
C68	C	1.211970	0.025472	0.799629
C69	C	0.692330	-0.571820	0.360882
C70	C	1.192330	-0.071820	0.860882
C71	C	0.983564	-0.785593	0.333166
C72	C	1.483564	-0.285593	0.833166
C73	C	0.966547	-0.870021	0.316913
C74	C	1.466547	-0.370021	0.816913
C75	C	1.153278	-1.196566	0.494966
C76	C	1.653278	-0.696566	0.994966
C77	C	1.137263	-1.275894	0.479679
C78	C	1.637263	-0.775894	0.979679
C79	C	1.040168	-1.256332	0.387078
C80	C	1.540168	-0.756332	0.887078
C81	C	1.056177	-1.177001	0.402355
C82	C	1.556177	-0.677001	0.902355
C83	C	1.112732	-1.147125	0.456300
C84	C	1.612732	-0.647125	0.956300
C85	C	1.015631	-1.127560	0.363689
C86	C	1.515631	-0.627560	0.863689
C87	C	1.031637	-1.048235	0.378967
C88	C	1.531637	-0.548235	0.878967
C89	C	1.088187	-1.018352	0.432911
C90	C	1.588187	-0.518352	0.932911
C91	C	1.128737	-1.067800	0.471578
C92	C	1.628737	-0.567800	0.971578
C93	C	0.959073	-1.157437	0.309747
C94	C	1.459073	-0.657437	0.809747
C95	C	0.918527	-1.107996	0.271081
C96	C	1.418527	-0.607996	0.771081
C97	C	0.934536	-1.028670	0.286356
C98	C	1.434536	-0.528670	0.786356
C99	C	0.991087	-0.998787	0.340300
C100	C	1.491087	-0.498787	0.840300
C101	C	0.893986	-0.979222	0.247689
C102	C	1.393986	-0.479222	0.747689
C103	C	0.909992	-0.899897	0.262967
C104	C	1.409992	-0.399897	0.762967
C105	C	1.007092	-0.919462	0.355578
C106	C	1.507092	-0.419462	0.855578
C107	C	1.221571	-0.628413	0.396491
C108	C	1.721571	-0.128413	0.896491
C109	C	1.305975	-0.645519	0.407256
C110	C	1.805975	-0.145519	0.907256
C111	C	1.023571	-0.588270	0.534663
C112	C	1.523571	-0.088270	1.034663
C113	C	1.023599	-0.588269	0.604309
C114	C	1.523599	-0.088269	1.104309
C115	C	1.063622	-0.390187	0.409457
C116	C	1.563622	0.109813	0.909457
C117	C	1.080718	-0.305775	0.425747
C118	C	1.580718	0.194225	0.925747
C119	C	1.023494	-0.588230	0.208447
C120	C	1.523494	-0.088230	0.708447
C121	C	1.023656	-0.588047	0.138861
C122	C	1.523656	-0.088047	0.638861
C123	C	1.082003	-0.549537	0.652592
C124	C	1.582003	-0.049537	1.152592
C125	C	1.082009	-0.549504	0.718034
C126	C	1.582009	-0.049504	1.218034
C127	C	1.023615	-0.588219	0.735188
C128	C	1.523615	-0.088219	1.235188
C129	C	0.965201	-0.626953	0.686896
C130	C	1.465201	-0.126953	1.186896
C131	C	0.965193	-0.626978	0.621457
C132	C	1.465193	-0.126978	1.121457
C133	C	1.003778	-0.655387	0.824908
C134	C	1.503778	-0.155387	1.324908
C135	C	1.003791	-0.655364	0.890347
C136	C	1.503791	-0.155364	1.390347
C137	C	1.023636	-0.588140	0.937025
C138	C	1.523636	-0.088140	1.437025
C139	C	1.043485	-0.520939	0.918260
C140	C	1.543485	-0.020939	1.418260
C141	C	1.043477	-0.520965	0.852820
C142	C	1.543477	-0.020965	1.352820
C143	C	1.023618	-0.588195	0.806145
C144	C	1.523618	-0.088195	1.306145
C145	C	1.082050	-0.549368	1.056268
C146	C	1.582050	-0.049368	1.556268
C147	C	1.082050	-0.549332	1.121711
C148	C	1.582050	-0.049332	1.621711
C149	C	0.965246	-0.626789	1.090571
C150	C	1.465246	-0.126789	1.590571
C151	C	0.965243	-0.626817	1.025131
C152	C	1.465243	-0.126817	1.525131
C153	C	1.023648	-0.588108	1.007984
C154	C	1.523648	-0.088108	1.507984
H155	H	0.389824	-0.510586	0.322317
H156	H	0.889824	-0.010586	0.822317
H157	H	1.129609	-0.517787	1.161024
H158	H	1.629609	-0.017787	1.661024
C159	C	0.576727	-0.756020	0.476844
C160	C	1.076727	-0.256020	0.976844
H161	H	0.631045	-0.759762	0.479202
H162	H	1.131045	-0.259762	0.979202
H163	H	0.565981	-0.742354	0.519430
H164	H	1.065981	-0.242354	1.019430
H165	H	0.553411	-0.804407	0.456106
H166	H	1.053411	-0.304407	0.956106
C167	C	0.725153	-0.634159	0.400134
C168	C	1.225153	-0.134159	0.900134
H169	H	0.779472	-0.637901	0.402492
H170	H	1.279472	-0.137901	0.902492
H171	H	0.714408	-0.620493	0.442721
H172	H	1.214408	-0.120493	0.942721
H173	H	0.701838	-0.682546	0.379396
H174	H	1.201838	-0.182546	0.879396
H175	H	0.847934	-1.003559	0.203771
H176	H	1.347934	-0.503559	0.703771
H177	H	0.946036	-1.222028	0.297315
H178	H	1.446036	-0.722028	0.797315
H179	H	0.987633	-0.710083	0.905620
H180	H	1.487633	-0.210083	1.405620
C181	C	0.856325	-1.140866	0.211743
C182	C	1.356325	-0.640866	0.711743
H183	H	0.852602	-1.195190	0.208178
H184	H	1.352602	-0.695190	0.708178
H185	H	0.807913	-1.117557	0.216861
H186	H	1.307913	-0.617557	0.716861
H187	H	0.870096	-1.130137	0.173576
H188	H	1.370096	-0.630137	0.673576
H189	H	0.876974	-0.859641	0.231482
H190	H	1.376974	-0.359641	0.731482
H191	H	1.129561	-0.518016	0.638636
H192	H	1.629561	-0.018016	1.138636
C193	C	0.981947	-0.729336	0.773564
C194	C	1.481947	-0.229336	1.273564
H195	H	0.984777	-0.719726	0.731902
H196	H	1.484777	-0.219726	1.231902
H197	H	1.016787	-0.769649	0.783408
H198	H	1.516787	-0.269649	1.283408
H199	H	0.930796	-0.744245	0.773700
H200	H	1.430796	-0.244245	1.273700
H201	H	0.917630	-0.658517	0.582143
H202	H	1.417630	-0.158517	1.082143
C203	C	1.146260	-0.506903	0.771152
C204	C	1.646260	-0.006903	1.271152
H205	H	1.181045	-0.483859	0.751567
H206	H	1.681045	0.016141	1.251567
H207	H	1.123924	-0.467916	0.799353
H208	H	1.623924	0.032084	1.299353
H209	H	1.173461	-0.542664	0.795301
H210	H	1.673461	-0.042664	1.295301
H211	H	1.101218	-0.953760	0.445349
H212	H	1.601218	-0.453760	0.945349
C213	C	1.190932	-1.034927	0.530928
C214	C	1.690932	-0.534927	1.030928
H215	H	1.212783	-1.075732	0.551775
H216	H	1.712783	-0.575732	1.051775
H217	H	1.230284	-1.010667	0.517182
H218	H	1.730284	-0.510667	1.017182
H219	H	1.168084	-0.998108	0.560452
H220	H	1.668084	-0.498108	1.060452
H221	H	0.439412	-0.764399	0.482101
H222	H	0.939412	-0.264399	0.982101
H223	H	0.994119	-1.280669	0.343157
H224	H	1.494119	-0.780669	0.843157
C225	C	1.065299	-0.447051	0.832174
C226	C	1.565299	0.052949	1.332174
H227	H	1.062455	-0.456699	0.786516
H228	H	1.562455	0.043301	1.286516
H229	H	1.030461	-0.406730	0.843778
H230	H	1.530461	0.093270	1.343778
H231	H	1.116452	-0.432131	0.853485
H232	H	1.616452	0.067869	1.353485
H233	H	0.917656	-0.658472	0.700868
H234	H	1.417656	-0.158472	1.200868
H235	H	0.295532	-0.735260	0.463757
H236	H	0.795532	-0.235260	0.963757
C237	C	1.065801	-0.447134	0.969651
C238	C	1.565801	0.052866	1.469651
H239	H	1.063103	-0.456782	1.011328
H240	H	1.563103	0.043218	1.511328
H241	H	1.117000	-0.432580	0.969315
H242	H	1.617000	0.067420	1.469315
H243	H	1.031198	-0.406552	0.960038
H244	H	1.531198	0.093448	1.460038
C245	C	1.146282	-0.506775	1.037404
C246	C	1.646282	-0.006775	1.537404
H247	H	1.181059	-0.483690	1.075535
H248	H	1.681059	0.016310	1.575535
H249	H	1.173487	-0.542536	1.010503
H250	H	1.673487	-0.042536	1.510503
H251	H	1.123921	-0.467807	1.014543
H252	H	1.623921	0.032193	1.514543
C253	C	0.322627	-0.542563	0.342431
C254	C	0.822627	-0.042563	0.842431
H255	H	0.268307	-0.538823	0.340065
H256	H	0.768307	-0.038823	0.840065
H257	H	0.345948	-0.494181	0.363160
H258	H	0.845948	0.005819	0.863160
H259	H	0.333370	-0.556243	0.299841
H260	H	0.833370	-0.056243	0.799841
C261	C	0.901018	-0.669381	1.109434
C262	C	1.401018	-0.169381	1.609434
H263	H	0.909390	-0.663824	1.155322
H264	H	1.409390	-0.163824	1.655322
H265	H	0.852243	-0.647937	1.094332
H266	H	1.352243	-0.147937	1.594332
H267	H	0.901807	-0.722667	1.090292
H268	H	1.401807	-0.222667	1.590292
C269	C	0.901002	-0.669430	0.972018
C270	C	1.401002	-0.169430	1.472018
H271	H	0.866228	-0.692488	0.991605
H272	H	1.366228	-0.192488	1.491605
H273	H	0.873797	-0.633684	0.947862
H274	H	1.373797	-0.133684	1.447862
H275	H	0.923350	-0.708421	0.943823
H276	H	1.423350	-0.208421	1.443823
H277	H	0.479574	-0.436894	0.275925
H278	H	0.979574	0.063106	0.775925
C279	C	0.599840	-0.396136	0.250269
C280	C	1.099840	0.103864	0.750269
H281	H	0.545521	-0.392395	0.247907
H282	H	1.045521	0.107605	0.747907
H283	H	0.623163	-0.347756	0.271002
H284	H	1.123163	0.152244	0.771002
H285	H	0.610579	-0.409809	0.207677
H286	H	1.110579	0.090191	0.707677
C287	C	0.766394	-0.429854	0.271504
C288	C	1.266394	0.070146	0.771504
H289	H	0.817901	-0.447528	0.282644
H290	H	1.317901	0.052472	0.782644
H291	H	0.751146	-0.438259	0.225602
H292	H	1.251146	0.061741	0.725602
H293	H	0.763721	-0.376209	0.288928
H294	H	1.263721	0.123791	0.788928
C295	C	1.069306	-0.886590	0.414913
C296	C	1.569306	-0.386590	0.914913
H297	H	1.073032	-0.832267	0.418470
H298	H	1.573032	-0.332267	0.918470
H299	H	1.055554	-0.897319	0.453084
H300	H	1.555554	-0.397319	0.953084
H301	H	1.117720	-0.909897	0.409782
H302	H	1.617720	-0.409897	0.909782
H303	H	1.199336	-1.172241	0.538890
H304	H	1.699336	-0.672241	1.038890
C305	C	1.181874	-1.330280	0.522211
C306	C	1.681874	-0.830280	1.022211
H307	H	1.217851	-1.301123	0.556522
H308	H	1.717851	-0.801123	1.056522
H309	H	1.146567	-1.355346	0.539823
H310	H	1.646567	-0.855346	1.039823
H311	H	1.208738	-1.367917	0.496525
H312	H	1.708738	-0.867917	0.996525
H313	H	0.657960	-0.666124	0.420260
H314	H	1.157960	-0.166124	0.920260
