data_functionalizedCrystal
_audit_creation_method	'MofGen! by Chris Wilmer'
_symmetry_space_group_name_H-M	'P1'
_symmetry_Int_Tables_number	1
_symmetry_cell_setting	triclinic
loop_
_symmetry_equiv_pos_as_xyz
  x,y,z
_cell_length_a	8.634740
_cell_length_b	8.559649
_cell_length_c	8.140239
_cell_angle_alpha	90.001146
_cell_angle_beta	90.001257
_cell_angle_gamma	85.174486
loop_
_atom_site_label
_atom_site_type_symbol
_atom_site_fract_x
_atom_site_fract_y
_atom_site_fract_z
O1	O	1.985465	0.511626	0.136603
O2	O	2.318798	0.844960	0.469936
O3	O	2.652132	1.178293	0.803269
O4	O	1.541594	0.468724	0.136606
O5	O	1.874927	0.802057	0.469939
O6	O	2.208260	1.135391	0.803272
O7	O	1.802635	0.263594	0.136602
O8	O	2.135968	0.596927	0.469935
O9	O	2.469301	0.930260	0.803269
O10	O	1.724424	0.716757	0.136606
O11	O	2.057757	1.050090	0.469939
O12	O	2.391091	1.383423	0.803273
O13	O	1.802628	0.263591	-0.136625
O14	O	2.135961	0.596924	0.196708
O15	O	2.469294	0.930258	0.530042
O16	O	1.541587	0.468721	-0.136622
O17	O	1.874920	0.802055	0.196712
O18	O	2.208253	1.135388	0.530045
O19	O	1.985458	0.511624	-0.136624
O20	O	2.318791	0.844957	0.196709
O21	O	2.652124	1.178290	0.530042
Zn22	Zn	1.763521	0.490172	-0.180004
Zn23	Zn	2.096854	0.823505	0.153330
Zn24	Zn	2.430188	1.156839	0.486663
Zn25	Zn	1.763531	0.490176	0.179985
Zn26	Zn	2.096864	0.823509	0.513318
Zn27	Zn	2.430197	1.156842	0.846651
O28	O	1.724417	0.716754	-0.136621
O29	O	2.057750	1.050087	0.196712
O30	O	2.391083	1.383421	0.530046
C31	C	1.485291	0.459004	-0.000008
C32	C	1.818624	0.792337	0.333326
C33	C	2.151958	1.125670	0.666659
C34	C	1.317539	0.430026	-0.000006
C35	C	1.650873	0.763359	0.333327
C36	C	1.984206	1.096692	0.666661
C37	C	1.808558	0.204975	-0.000008
C38	C	2.141892	0.538308	0.333325
C39	C	2.475225	0.871642	0.666658
C40	C	1.826201	0.030311	0.000001
C41	C	2.159534	0.363644	0.333334
C42	C	2.492867	0.696978	0.666667
C43	C	2.041761	0.521344	-0.000008
C44	C	2.375094	0.854677	0.333326
C45	C	2.708427	1.188011	0.666659
C46	C	2.209512	0.550322	0.000002
C47	C	2.542845	0.883656	0.333335
C48	C	2.876179	1.216989	0.666668
C49	C	1.718493	0.775373	-0.000007
C50	C	2.051827	1.108706	0.333326
C51	C	2.385160	1.442039	0.666660
C52	C	1.700851	0.950037	-0.000005
C53	C	2.034184	1.283370	0.333328
C54	C	2.367517	1.616703	0.666662
N55	N	1.763526	0.490170	-0.425686
N56	N	2.096859	0.823504	-0.092353
N57	N	2.430192	1.156837	0.240980
N58	N	1.763539	0.490167	0.425667
N59	N	2.096873	0.823500	0.759001
N60	N	2.430206	1.156834	1.092334
H61	H	1.245360	0.675483	-0.000012
H62	H	1.578694	1.008816	0.333321
H63	H	1.912027	1.342149	0.666654
H64	H	1.947023	-0.034594	-0.000013
H65	H	2.280357	0.298740	0.333320
H66	H	2.613690	0.632073	0.666653
H67	H	1.580036	0.014934	-0.000010
H68	H	1.913369	0.348267	0.333324
H69	H	2.246703	0.681600	0.666657
Br70	Br	1.257795	0.221398	-0.000018
Br71	Br	1.591129	0.554732	0.333315
Br72	Br	1.924462	0.888065	0.666648
