data_functionalizedCrystal
_audit_creation_method	'MofGen! by Chris Wilmer'
_symmetry_space_group_name_H-M	'P1'
_symmetry_Int_Tables_number	1
_symmetry_cell_setting	triclinic
loop_
_symmetry_equiv_pos_as_xyz
  x,y,z
_cell_length_a	19.077105
_cell_length_b	18.101395
_cell_length_c	19.076919
_cell_angle_alpha	92.272317
_cell_angle_beta	90.076224
_cell_angle_gamma	87.727498
loop_
_atom_site_label
_atom_site_type_symbol
_atom_site_fract_x
_atom_site_fract_y
_atom_site_fract_z
Zn1	Zn	1.058231	-0.358271	-0.440421
Zn2	Zn	1.062857	-0.477344	-0.322915
Zn3	Zn	0.945450	-0.348351	-0.318214
Zn4	Zn	0.940679	-0.476897	-0.435668
O5	O	1.001804	-0.415216	-0.379305
O6	O	1.157176	-0.378405	-0.428790
O7	O	1.051216	-0.456268	-0.223960
O8	O	0.960470	-0.246037	-0.334447
O9	O	1.160575	-0.465887	-0.342459
O10	O	1.043330	-0.253326	-0.424232
O11	O	0.964957	-0.361497	-0.220507
O12	O	0.846486	-0.361064	-0.329838
O13	O	0.952340	-0.465126	-0.534630
O14	O	0.842981	-0.455506	-0.416131
O15	O	1.038704	-0.377972	-0.538122
O16	O	1.046590	-0.580914	-0.337850
O17	O	0.956826	-0.580586	-0.420689
C18	C	0.819237	-0.407161	-0.371959
C19	C	0.741133	-0.403733	-0.368833
C20	C	0.702636	-0.451363	-0.412222
C21	C	0.629249	-0.448133	-0.409288
C22	C	0.594361	-0.397276	-0.362962
C23	C	0.632863	-0.349642	-0.319571
C24	C	0.706248	-0.352869	-0.322509
C25	C	0.375075	-0.382341	-0.349369
C26	C	0.301684	-0.379119	-0.346433
C27	C	0.298076	-0.477610	-0.436152
C28	C	0.371463	-0.480836	-0.439082
C29	C	0.409959	-0.433198	-0.395694
N30	N	0.519348	-0.393975	-0.359960
N31	N	0.484970	-0.436497	-0.398700
C32	C	1.001711	-0.607621	-0.379280
C33	C	1.001735	-0.689937	-0.379296
C34	C	1.001887	-0.989036	-0.379340
C35	C	0.945531	-0.957547	-0.431600
C36	C	0.945280	-0.871910	-0.431419
C37	C	1.001811	-0.840650	-0.379319
C38	C	0.984741	-0.867911	-0.304458
C39	C	0.984379	-0.953554	-0.304770
C40	C	1.075459	-0.961424	-0.401293
C41	C	1.074956	-0.875820	-0.402900
C42	C	1.001770	-0.756788	-0.379302
C43	C	1.001927	-1.072898	-0.379351
C44	C	1.185084	-0.423303	-0.386679
C45	C	1.263188	-0.426749	-0.389822
C46	C	0.994474	-0.422606	-0.562585
C47	C	0.991350	-0.425755	-0.640688
C48	C	1.001916	-0.222060	-0.379345
C49	C	1.001964	-0.139749	-0.379363
C50	C	1.034846	-0.381860	-0.679200
C51	C	1.031902	-0.384816	-0.752586
C52	C	0.985466	-0.431671	-0.787458
C53	C	0.941966	-0.475568	-0.748941
C54	C	0.944906	-0.472608	-0.675556
C55	C	0.971847	-0.445387	-1.006740
C56	C	0.968911	-0.448346	-1.080130
C57	C	1.058847	-0.357593	-1.083770
C58	C	1.061786	-0.354640	-1.010384
C59	C	1.018283	-0.398533	-0.971872
N60	N	0.982458	-0.434696	-0.862471
N61	N	1.021289	-0.395505	-0.896861
C62	C	1.009146	-0.407803	-0.196739
C63	C	1.012406	-0.404451	-0.118642
H64	H	0.955615	-0.853628	-0.486834
O65	O	0.902683	-0.515176	-0.638036
C66	C	0.867383	-0.550867	-0.523368
C67	C	0.915232	-0.502608	-0.565772
H68	H	0.877523	-0.540735	-0.464936
H69	H	0.810140	-0.535939	-0.535464
H70	H	0.879100	-0.611700	-0.538321
H71	H	0.903579	-0.441761	-0.550844
H72	H	0.972461	-0.517599	-0.553673
O73	O	1.074050	-0.342088	-0.790019
C74	C	1.080236	-0.245877	-0.873288
C75	C	1.032423	-0.294215	-0.830928
H76	H	1.046600	-0.207170	-0.906385
H77	H	1.113914	-0.211830	-0.835783
H78	H	1.115600	-0.282888	-0.909094
H79	H	0.997017	-0.257259	-0.795119
H80	H	0.998793	-0.328267	-0.868472
O81	O	1.106910	-0.309058	-0.976620
C82	C	1.195833	-0.219388	-0.987979
C83	C	1.144748	-0.270961	-1.026304
H84	H	1.226449	-0.188584	-1.028131
H85	H	1.165005	-0.177809	-0.952350
H86	H	1.233902	-0.253634	-0.955075
H87	H	1.106668	-0.236775	-1.059245
H88	H	1.175622	-0.312542	-1.061890
O89	O	0.599053	-0.300275	-0.274476
C90	C	0.581334	-0.258352	-0.154107
C91	C	0.619680	-0.314292	-0.205102
H92	H	0.597985	-0.269675	-0.098007
H93	H	0.595309	-0.199780	-0.167069
H94	H	0.522273	-0.264219	-0.159497
H95	H	0.678750	-0.308493	-0.199741
H96	H	0.605648	-0.372842	-0.192127
O97	O	0.736413	-0.500787	-0.457286
C98	C	0.725080	-0.598160	-0.545939
C99	C	0.686743	-0.542212	-0.494944
H100	H	0.684940	-0.631677	-0.576389
H101	H	0.757967	-0.567251	-0.584160
H102	H	0.760726	-0.637006	-0.514980
H103	H	0.651061	-0.503351	-0.525846
H104	H	0.653900	-0.573169	-0.456723
O105	O	0.921445	-0.838707	-0.282285
C106	C	0.858536	-0.762922	-0.194706
C107	C	0.930267	-0.795930	-0.219741
H108	H	0.865643	-0.728342	-0.144129
H109	H	0.834949	-0.726414	-0.236741
H110	H	0.821900	-0.809625	-0.184693
H111	H	0.966956	-0.749276	-0.229747
H112	H	0.953797	-0.832457	-0.177693
H113	H	1.091602	-0.985932	-0.455108
H114	H	1.094263	-0.321856	-1.115133
O115	O	1.079934	-0.336406	-0.645219
C116	C	1.124286	-0.291580	-0.533781
C117	C	1.073207	-0.343108	-0.572174
H118	H	1.118854	-0.296970	-0.474718
H119	H	1.180380	-0.307662	-0.550438
H120	H	1.111404	-0.231917	-0.547771
H121	H	1.086025	-0.402787	-0.558203
H122	H	1.017128	-0.326964	-0.555514
O123	O	0.591823	-0.494301	-0.451508
C124	C	0.505169	-0.504619	-0.543024
C125	C	0.547517	-0.452246	-0.495260
H126	H	0.469327	-0.470638	-0.578399
H127	H	0.542681	-0.541511	-0.576683
H128	H	0.472112	-0.540488	-0.509308
H129	H	0.580578	-0.416330	-0.528922
H130	H	0.509967	-0.415405	-0.461598
H131	H	1.117410	-0.981841	-0.363267
H132	H	0.891266	-0.976217	-0.416994
O133	O	0.260573	-0.523802	-0.478273
C134	C	0.145921	-0.562511	-0.513487
C135	C	0.188305	-0.510145	-0.465752
H136	H	0.087485	-0.551499	-0.503369
H137	H	0.158049	-0.552515	-0.570759
H138	H	0.160860	-0.622332	-0.501635
H139	H	0.173391	-0.450305	-0.477540
H140	H	0.176173	-0.520206	-0.408493
O141	O	0.880102	-0.844127	-0.413866
C142	C	0.757171	-0.838788	-0.443265
C143	C	0.830946	-0.870315	-0.463220
H144	H	0.717410	-0.859935	-0.483165
H145	H	0.742794	-0.857255	-0.388861
H146	H	0.756701	-0.775781	-0.443020
H147	H	0.831471	-0.933323	-0.463506
H148	H	0.845293	-0.851790	-0.517612
H149	H	1.087883	-0.858335	-0.458008
H150	H	1.118927	-0.854786	-0.367848
O151	O	0.920279	-0.973711	-0.283017
C152	C	0.804790	-0.932790	-0.243330
C153	C	0.877349	-0.909865	-0.267967
H154	H	0.770066	-0.881183	-0.231140
H155	H	0.779487	-0.968060	-0.286472
H156	H	0.811119	-0.966107	-0.194086
H157	H	0.871081	-0.876521	-0.317197
H158	H	0.902627	-0.874632	-0.224782
O159	O	0.743727	-0.306709	-0.280328
C160	C	0.830332	-0.296410	-0.188764
C161	C	0.787946	-0.348773	-0.236501
H162	H	0.866083	-0.330397	-0.153308
H163	H	0.863469	-0.260568	-0.222431
H164	H	0.792780	-0.259491	-0.155178
H165	H	0.825448	-0.385738	-0.270096
H166	H	0.754800	-0.384563	-0.202794
O167	O	0.923737	-0.493878	-1.113894
C168	C	0.834870	-0.583611	-1.102545
C169	C	0.885979	-0.532067	-1.064217
H170	H	0.804340	-0.614512	-1.062399
H171	H	0.796730	-0.549407	-1.135412
H172	H	0.865745	-0.625113	-1.138210
H173	H	0.855162	-0.490556	-1.028517
H174	H	0.924119	-0.566319	-1.031395
O175	O	0.957742	-0.985261	-0.497950
C176	C	0.982984	-0.958217	-0.617767
C177	C	0.969179	-0.926726	-0.542654
H178	H	0.992219	-0.910906	-0.653934
H179	H	1.031299	-0.997365	-0.618008
H180	H	0.935597	-0.989699	-0.636977
H181	H	1.016523	-0.895209	-0.523398
H182	H	0.920838	-0.887617	-0.542456
O183	O	0.405390	-0.530307	-0.483989
C184	C	0.487872	-0.634285	-0.496599
C185	C	0.449482	-0.578315	-0.445664
H186	H	0.523541	-0.673104	-0.465635
H187	H	0.447787	-0.667829	-0.527101
H188	H	0.520748	-0.603316	-0.534782
H189	H	0.416608	-0.609225	-0.407439
H190	H	0.489604	-0.544772	-0.415213
O191	O	0.929689	-0.488066	-0.969270
C192	C	0.923474	-0.584332	-0.886060
C193	C	0.971304	-0.536030	-0.928440
H194	H	0.957101	-0.623133	-0.853050
H195	H	0.888135	-0.547368	-0.850187
H196	H	0.889772	-0.618290	-0.923613
H197	H	1.005050	-0.502065	-0.890939
H198	H	1.006596	-0.573035	-0.964322
H199	H	0.904154	-0.513715	-0.777340
H200	H	0.273280	-0.337698	-0.308713
O201	O	0.412357	-0.336037	-0.307153
C202	C	0.408184	-0.237971	-0.217892
C203	C	0.365873	-0.290384	-0.265650
H204	H	0.370619	-0.201036	-0.184335
H205	H	0.443977	-0.271890	-0.182417
H206	H	0.441286	-0.202148	-0.251610
H207	H	0.332730	-0.326218	-0.231987
H208	H	0.330124	-0.256421	-0.301129
H209	H	1.024629	-0.847532	-0.264328
O210	O	1.031415	-0.978100	-0.256487
C211	C	1.116971	-0.945120	-0.168846
C212	C	1.063722	-0.917225	-0.223494
H213	H	1.143117	-0.895918	-0.142167
H214	H	1.088694	-0.977109	-0.127852
H215	H	1.158562	-0.982995	-0.196103
H216	H	1.022118	-0.879322	-0.196298
H217	H	1.092049	-0.885278	-0.264484
