data_functionalizedCrystal
_audit_creation_method	'MofGen! by Chris Wilmer'
_symmetry_space_group_name_H-M	'P1'
_symmetry_Int_Tables_number	1
_symmetry_cell_setting	triclinic
loop_
_symmetry_equiv_pos_as_xyz
  x,y,z
_cell_length_a	10.654550
_cell_length_b	16.109301
_cell_length_c	9.130313
_cell_angle_alpha	89.994060
_cell_angle_beta	89.999724
_cell_angle_gamma	83.973206
loop_
_atom_site_label
_atom_site_type_symbol
_atom_site_fract_x
_atom_site_fract_y
_atom_site_fract_z
O1	O	1.666255	0.116774	-0.121695
O2	O	1.300626	0.127899	-0.121723
O3	O	1.493485	0.001365	-0.121693
O4	O	1.473396	0.243308	-0.121725
O5	O	1.493472	0.001362	0.121906
O6	O	1.300613	0.127896	0.121876
O7	O	1.666242	0.116770	0.121904
Cu8	Cu	1.483426	0.122333	0.144132
Cu9	Cu	1.483442	0.122337	-0.143951
O10	O	1.473383	0.243304	0.121874
C11	C	1.253832	0.127081	0.000073
C12	C	1.114422	0.124637	0.000063
C13	C	1.033926	0.199138	0.000058
C14	C	0.902936	0.196836	0.000084
C15	C	0.932952	0.045526	0.000114
C16	C	1.063939	0.047828	0.000099
C17	C	1.492664	-0.029616	0.000107
C18	C	1.490225	-0.121926	0.000109
C19	C	1.598991	-0.343552	0.000094
C20	C	1.596689	-0.430286	0.000081
C21	C	1.367868	-0.411772	0.000070
C22	C	1.370172	-0.325039	0.000072
C23	C	1.485737	-0.290932	0.000091
C24	C	1.481131	-0.464398	0.000077
C25	C	1.478634	-0.558439	0.000064
C26	C	1.488234	-0.196885	0.000101
C27	C	1.713036	0.117589	0.000104
C28	C	1.852446	0.120033	0.000105
C29	C	1.474203	0.274286	0.000071
C30	C	1.476643	0.366596	0.000059
N31	N	1.483424	0.122329	0.346755
N32	N	1.483453	0.122334	-0.346574
C33	C	1.568851	0.066324	0.423420
C34	C	1.568863	0.066324	0.576757
C35	C	1.398018	0.178342	0.576750
C36	C	1.398001	0.178337	0.423416
H37	H	0.837401	0.257503	0.000082
C38	C	1.240752	-0.449293	0.000066
C39	C	1.116173	-0.391410	0.000061
C40	C	0.989053	-0.428928	0.000063
C41	C	0.986512	-0.524330	0.000071
C42	C	1.111096	-0.582219	0.000077
C43	C	1.238215	-0.544700	0.000075
H44	H	1.118050	-0.320782	0.000055
H45	H	0.896828	-0.386074	0.000059
H46	H	0.892410	-0.552103	0.000073
H47	H	1.109219	-0.652846	0.000083
H48	H	1.330440	-0.587554	0.000079
H49	H	1.129483	-0.012843	0.000108
H50	H	0.891833	-0.017009	0.000152
C51	C	1.662837	0.004719	0.661090
C52	C	1.756815	-0.056872	0.576762
C53	C	1.850791	-0.118480	0.661096
C54	C	1.850790	-0.118496	0.829757
C55	C	1.756808	-0.056903	0.914094
C56	C	1.662832	0.004705	0.829761
H57	H	1.756819	-0.056862	0.451900
H58	H	1.920363	-0.164076	0.598662
H59	H	1.920357	-0.164102	0.892186
H60	H	1.756804	-0.056913	1.038956
H61	H	1.593260	0.050301	0.892194
H62	H	1.693091	-0.315784	0.000106
C63	C	1.304027	0.239948	0.339071
C64	C	1.210117	0.301592	0.423386
C65	C	1.116145	0.363196	0.339039
C66	C	1.116082	0.363156	0.170378
C67	C	1.209995	0.301510	0.086054
C68	C	1.303968	0.239906	0.170400
H69	H	1.210161	0.301623	0.548248
H70	H	1.046625	0.408831	0.401463
H71	H	1.046518	0.408760	0.107940
H72	H	1.209952	0.301479	-0.038808
H73	H	1.373488	0.194271	0.107977
C74	C	1.245583	-0.267151	0.000073
C75	C	1.150881	-0.271431	-0.126423
C76	C	1.026298	-0.213543	-0.126428
C77	C	0.996418	-0.151375	0.000063
C78	C	1.091123	-0.147093	0.126568
C79	C	1.215705	-0.204981	0.126573
H80	H	1.172998	-0.317453	-0.220068
H81	H	0.956192	-0.216713	-0.220077
H82	H	0.904195	-0.108523	0.000059
H83	H	1.069005	-0.101071	0.220213
H84	H	1.285811	-0.201811	0.220222
C85	C	1.662805	0.004710	0.339092
C86	C	1.613759	-0.059180	0.233704
C87	C	1.707712	-0.120798	0.149381
C88	C	1.850712	-0.118526	0.170446
C89	C	1.899765	-0.054634	0.275838
C90	C	1.805811	0.006984	0.360161
H91	H	1.507895	-0.060864	0.218107
H92	H	1.671399	-0.168096	0.071363
H93	H	1.920262	-0.164139	0.108025
H94	H	2.005628	-0.052949	0.291436
H95	H	1.842125	0.054282	0.438180
H96	H	1.075024	0.261680	0.000040
H97	H	1.688912	-0.473126	0.000080
H98	H	1.328470	0.223944	0.639183
