data_functionalizedCrystal
_audit_creation_method	'MofGen! by Chris Wilmer'
_symmetry_space_group_name_H-M	'P1'
_symmetry_Int_Tables_number	1
_symmetry_cell_setting	triclinic
loop_
_symmetry_equiv_pos_as_xyz
  x,y,z
_cell_length_a	12.759401
_cell_length_b	12.759399
_cell_length_c	12.759393
_cell_angle_alpha	90.029334
_cell_angle_beta	90.019676
_cell_angle_gamma	90.016172
loop_
_atom_site_label
_atom_site_type_symbol
_atom_site_fract_x
_atom_site_fract_y
_atom_site_fract_z
Zn1	Zn	1.606259	-0.418204	0.593993
Zn2	Zn	1.606147	-0.593919	0.418317
Zn3	Zn	1.430557	-0.418256	0.418332
Zn4	Zn	1.430546	-0.593842	0.593958
O5	O	1.518377	-0.506055	0.506150
O6	O	1.753265	-0.441523	0.570698
O7	O	1.582812	-0.570671	0.271298
O8	O	1.453916	-0.271228	0.441655
O9	O	1.753182	-0.570620	0.441629
O10	O	1.583003	-0.271189	0.570713
O11	O	1.453808	-0.441612	0.271309
O12	O	1.283535	-0.441538	0.441621
O13	O	1.453897	-0.570489	0.740984
O14	O	1.283527	-0.570540	0.570653
O15	O	1.582992	-0.441448	0.741010
O16	O	1.582801	-0.740930	0.441595
O17	O	1.453788	-0.740874	0.570638
C18	C	1.245410	-0.506037	0.506135
C19	C	1.128633	-0.506055	0.506154
C20	C	1.073815	-0.438955	0.573463
C21	C	0.964091	-0.438966	0.573470
C22	C	0.964013	-0.573185	0.438855
C23	C	1.073735	-0.573168	0.438844
C24	C	1.518310	-0.779023	0.506134
C25	C	1.518377	-0.895799	0.506162
C26	C	1.451190	-0.950670	0.573306
C27	C	1.451256	-1.060394	0.573326
C28	C	1.585705	-1.060367	0.439055
C29	C	1.585633	-0.950645	0.439031
C30	C	1.327429	-1.210433	0.610791
C31	C	1.260251	-1.265307	0.677952
C32	C	1.244045	-1.229636	0.780444
C33	C	1.295033	-1.139092	0.815798
C34	C	1.362218	-1.084223	0.748643
C35	C	1.378404	-1.119893	0.646136
C36	C	1.709461	-0.800604	0.401576
C37	C	1.776653	-0.745733	0.334425
C38	C	1.792869	-0.781402	0.231931
C39	C	1.741901	-0.871950	0.196582
C40	C	1.674709	-0.926820	0.263732
C41	C	1.658490	-0.891144	0.366225
C42	C	1.792410	-0.506074	0.506166
C43	C	1.909187	-0.506082	0.506172
C44	C	1.518456	-0.505954	0.780184
C45	C	1.518489	-0.505911	0.896960
C46	C	1.518474	-0.232022	0.506190
C47	C	1.518515	-0.115245	0.506206
C48	C	1.518359	-0.506080	0.233183
C49	C	1.518529	-0.505827	0.116407
C50	C	1.585714	-0.438709	0.951837
C51	C	1.585732	-0.438664	1.061562
C52	C	1.451297	-0.573032	1.061522
C53	C	1.451275	-0.573072	0.951800
H54	H	0.919462	-0.384325	0.628279
H55	H	1.218737	-1.339028	0.649157
H56	H	1.118370	-0.627810	0.384026
F57	F	1.132238	-0.367524	0.645098
H58	H	1.396525	-0.627795	0.907117
H59	H	0.919302	-0.627827	0.384055
F60	F	1.620467	-1.023194	0.226109
H61	H	1.403732	-1.010505	0.777427
F62	F	1.379608	-0.892303	0.644750
F63	F	1.277794	-1.101144	0.924892
H64	H	1.189347	-1.274323	0.835127
F65	F	1.657247	-0.367229	0.893477
F66	F	1.344648	-1.248387	0.501696
F67	F	1.657289	-0.367144	1.119961
H68	H	1.640463	-1.105035	0.384401
H69	H	1.755110	-0.900996	0.113124
H70	H	1.396576	-0.627714	1.106185
H71	H	1.847586	-0.736717	0.177259
F72	F	1.830905	-0.649368	0.372054
H73	H	1.696245	-0.771541	0.485029
