data_functionalizedCrystal
_audit_creation_method	'MofGen! by Chris Wilmer'
_symmetry_space_group_name_H-M	'P1'
_symmetry_Int_Tables_number	1
_symmetry_cell_setting	triclinic
loop_
_symmetry_equiv_pos_as_xyz
  x,y,z
_cell_length_a	14.519709
_cell_length_b	16.053802
_cell_length_c	16.992695
_cell_angle_alpha	87.258926
_cell_angle_beta	92.825816
_cell_angle_gamma	87.419624
loop_
_atom_site_label
_atom_site_type_symbol
_atom_site_fract_x
_atom_site_fract_y
_atom_site_fract_z
O1	O	1.234886	-0.069320	-0.099504
O2	O	1.734886	0.430680	0.400496
O3	O	0.967279	-0.069346	-0.111608
O4	O	1.467279	0.430654	0.388392
O5	O	1.100010	-0.069327	0.008588
O6	O	1.600010	0.430673	0.508588
O7	O	1.102156	-0.069340	-0.219700
O8	O	1.602156	0.430660	0.280300
O9	O	1.092702	0.069531	0.001999
O10	O	1.592702	0.569531	0.501999
O11	O	0.959971	0.069512	-0.118197
O12	O	1.459971	0.569512	0.381803
O13	O	1.227578	0.069537	-0.106092
O14	O	1.727578	0.569537	0.393908
Zn15	Zn	1.092615	0.091571	-0.113191
Zn16	Zn	1.592615	0.591571	0.386809
Zn17	Zn	1.102243	-0.091380	-0.104510
Zn18	Zn	1.602243	0.408620	0.395490
O19	O	1.094848	0.069518	-0.226288
O20	O	1.594848	0.569518	0.273712
C21	C	0.929225	0.000080	-0.114338
C22	C	1.429225	0.500080	0.385662
C23	C	0.826723	0.000070	-0.112647
C24	C	1.326723	0.500070	0.387353
C25	C	1.093596	0.000102	0.034510
C26	C	1.593596	0.500102	0.534510
C27	C	1.085360	0.000101	0.121566
C28	C	1.585360	0.500101	0.621566
N29	N	1.086050	0.216431	-0.119115
N30	N	1.586050	0.716431	0.380885
C31	C	0.451379	0.000108	-0.106425
C32	C	0.951379	0.500108	0.393575
C33	C	0.555811	0.000097	-0.108153
C34	C	1.055811	0.500097	0.391847
C35	C	0.639048	0.000088	-0.109536
C36	C	1.139048	0.500088	0.390464
C37	C	0.743487	0.000079	-0.111264
C38	C	1.243487	0.500079	0.388736
C39	C	1.265632	0.000110	-0.103362
C40	C	1.765632	0.500110	0.396638
C41	C	1.368135	0.000114	-0.105053
C42	C	1.868135	0.500114	0.394947
N43	N	1.108814	-0.216239	-0.098580
N44	N	1.608814	0.283761	0.401420
C45	C	1.142550	0.260133	-0.067989
C46	C	1.642550	0.760133	0.432011
C47	C	1.137968	0.347539	-0.072141
C48	C	1.637968	0.847539	0.427859
C49	C	1.076889	0.391241	-0.127422
C50	C	1.576889	0.891241	0.372578
C51	C	1.020382	0.347533	-0.178549
C52	C	1.520382	0.847533	0.321451
C53	C	1.024961	0.260128	-0.174393
C54	C	1.524961	0.760128	0.325607
C55	C	1.056886	0.652648	-0.145552
C56	C	1.556886	1.152648	0.354448
C57	C	1.052314	0.740059	-0.149705
C58	C	1.552314	1.240059	0.350295
C59	C	1.169899	0.740058	-0.043295
C60	C	1.669899	1.240058	0.456705
C61	C	1.174476	0.652652	-0.039147
C62	C	1.674476	1.152652	0.460853
C63	C	1.117966	0.608952	-0.090272
C64	C	1.617966	1.108952	0.409728
N65	N	1.072205	0.480584	-0.131668
N66	N	1.572205	0.980584	0.368332
N67	N	1.122646	0.519610	-0.086022
N68	N	1.622646	1.019610	0.413978
C69	C	1.101262	0.000088	-0.252210
C70	C	1.601262	0.500088	0.247790
C71	C	1.109498	0.000083	-0.339266
C72	C	1.609498	0.500083	0.160734
C73	C	1.164820	0.000109	0.171694
C74	C	1.664820	0.500109	0.671694
C75	C	1.157077	0.000101	0.253492
C76	C	1.657077	0.500101	0.753492
C77	C	1.069873	0.000089	0.285160
C78	C	1.569873	0.500089	0.785160
C79	C	0.990408	0.000079	0.235025
C80	C	1.490408	0.500079	0.735025
C81	C	0.998152	0.000081	0.153229
C82	C	1.498152	0.500081	0.653229
C83	C	1.037777	0.000075	0.528803
C84	C	1.537777	0.500075	1.028803
C85	C	1.030038	0.000075	0.610605
C86	C	1.530038	0.500075	1.110605
C87	C	1.196708	0.000095	0.629067
C88	C	1.696708	0.500095	1.129067
C89	C	1.204444	0.000103	0.547269
C90	C	1.704444	0.500103	1.047269
C91	C	1.124979	0.000088	0.497141
C92	C	1.624979	0.500088	0.997141
N93	N	1.061956	0.000083	0.368770
N94	N	1.561956	0.500083	0.868770
N95	N	1.132897	0.000088	0.413533
N96	N	1.632897	0.500088	0.913533
H97	H	1.192291	0.224556	-0.022977
H98	H	1.692291	0.724556	0.477023
N99	N	1.198942	0.394663	-0.017016
N100	N	1.698942	0.894663	0.482984
H101	H	1.185048	0.379465	0.039391
H102	H	1.685048	0.879465	0.539391
H103	H	1.265827	0.379404	-0.025547
H104	H	1.765827	0.879404	0.474453
H105	H	0.973070	0.000063	0.487998
H106	H	1.473070	0.500063	0.987998
N107	N	1.242781	0.000117	0.307557
N108	N	1.742781	0.500117	0.807557
H109	H	1.240567	0.051590	0.339468
H110	H	1.740567	0.551590	0.839468
H111	H	1.245951	-0.051394	0.344294
H112	H	1.745951	0.448606	0.844294
H113	H	0.970645	0.383120	-0.223558
H114	H	1.470645	0.883120	0.276442
H115	H	1.261404	0.000106	0.669890
H116	H	1.761404	0.500106	1.169890
H117	H	1.235830	0.000123	0.145918
H118	H	1.735830	0.500123	0.645918
H119	H	1.224211	0.617072	0.005867
H120	H	1.724211	1.117072	0.505867
H121	H	1.010876	0.617074	-0.187181
H122	H	1.510876	1.117074	0.312819
N123	N	0.935977	0.000061	0.644760
N124	N	1.435977	0.500061	1.144760
H125	H	0.903606	-0.051421	0.628934
H126	H	1.403606	0.448579	1.128934
H127	H	0.943209	0.000098	0.704176
H128	H	1.443209	0.500098	1.204176
H129	H	1.215905	0.775647	-0.001671
H130	H	1.715905	1.275647	0.498329
N131	N	0.896351	0.000061	0.269176
N132	N	1.396351	0.500061	0.769176
H133	H	0.903500	0.000064	0.328600
H134	H	1.403500	0.500064	0.828600
H135	H	0.858605	0.051533	0.248405
H136	H	1.358605	0.551533	0.748405
H137	H	1.002574	0.775637	-0.194725
H138	H	1.502574	1.275637	0.305275
H139	H	0.978951	0.224547	-0.216024
H140	H	1.478951	0.724547	0.283976
N141	N	1.298499	0.000120	0.513114
N142	N	1.798499	0.500120	1.013114
H143	H	1.347663	0.000124	0.557284
H144	H	1.847663	0.500124	1.057284
H145	H	1.308054	-0.051353	0.482016
H146	H	1.808054	0.448647	0.982016
H147	H	0.933447	0.000074	0.112414
H148	H	1.433447	0.500074	0.612414
