data_functionalizedCrystal
_audit_creation_method	'MofGen! by Chris Wilmer'
_symmetry_space_group_name_H-M	'P1'
_symmetry_Int_Tables_number	1
_symmetry_cell_setting	triclinic
loop_
_symmetry_equiv_pos_as_xyz
  x,y,z
_cell_length_a	17.699104
_cell_length_b	16.992695
_cell_length_c	16.776229
_cell_angle_alpha	89.993259
_cell_angle_beta	89.991971
_cell_angle_gamma	86.979870
loop_
_atom_site_label
_atom_site_type_symbol
_atom_site_fract_x
_atom_site_fract_y
_atom_site_fract_z
O1	O	1.010246	0.099224	-0.066305
O2	O	1.510246	0.599224	0.433695
O3	O	0.790672	0.112106	-0.066304
O4	O	1.290672	0.612106	0.433696
O5	O	0.899579	-0.008476	-0.066298
O6	O	1.399579	0.491524	0.433702
O7	O	0.901339	0.219806	-0.066311
O8	O	1.401339	0.719806	0.433689
O9	O	0.899563	-0.008484	0.066278
O10	O	1.399563	0.491516	0.566278
O11	O	0.790656	0.112098	0.066273
O12	O	1.290656	0.612098	0.566273
O13	O	1.010230	0.099216	0.066271
O14	O	1.510230	0.599216	0.566271
Zn15	Zn	0.900441	0.105656	0.087321
Zn16	Zn	1.400441	0.605656	0.587321
Zn17	Zn	0.900462	0.105666	-0.087354
Zn18	Zn	1.400462	0.605666	0.412646
O19	O	0.901323	0.219798	0.066266
O20	O	1.401323	0.719798	0.566266
C21	C	0.762438	0.111638	-0.000015
C22	C	1.262438	0.611638	0.499985
C23	C	0.678334	0.110245	-0.000014
C24	C	1.178334	0.610245	0.499986
C25	C	0.157381	0.173167	-0.000026
C26	C	0.657381	0.673167	0.499974
C27	C	0.236406	0.174472	-0.000028
C28	C	0.736406	0.674472	0.499972
C29	C	0.280616	0.103685	-0.000024
C30	C	0.780616	0.603685	0.499976
C31	C	0.245798	0.031590	-0.000026
C32	C	0.745798	0.531590	0.499974
C33	C	0.166774	0.030287	-0.000029
C34	C	0.666774	0.530287	0.499971
C35	C	0.564491	0.036845	-0.000013
C36	C	1.064491	0.536845	0.499987
C37	C	0.643520	0.038154	-0.000008
C38	C	1.143520	0.538154	0.499992
C39	C	0.634123	0.181030	-0.000013
C40	C	1.134123	0.681030	0.499987
C41	C	0.555099	0.179727	-0.000016
C42	C	1.055099	0.679727	0.499984
C43	C	0.520288	0.107632	-0.000022
C44	C	1.020288	0.607632	0.499978
C45	C	0.434600	0.106219	-0.000021
C46	C	0.934600	0.606219	0.499979
C47	C	0.366303	0.105098	-0.000020
C48	C	0.866303	0.605098	0.499980
C49	C	0.897306	-0.037688	-0.000010
C50	C	1.397306	0.462312	0.499990
C51	C	0.890549	-0.124720	-0.000010
C52	C	1.390549	0.375280	0.499990
C53	C	0.955746	-0.175080	-0.000010
C54	C	1.455746	0.324920	0.499990
C55	C	0.949393	-0.256855	-0.000017
C56	C	1.449393	0.243145	0.499983
C57	C	0.877841	-0.288269	-0.000019
C58	C	1.377841	0.211731	0.499981
C59	C	0.812639	-0.237902	-0.000022
C60	C	1.312639	0.262098	0.499978
C61	C	0.818993	-0.156129	-0.000020
C62	C	1.318993	0.343871	0.499980
C63	C	0.851505	-0.531818	-0.000030
C64	C	1.351505	-0.031818	0.499970
C65	C	0.845156	-0.613598	-0.000030
C66	C	1.345156	-0.113598	0.499970
C67	C	0.981910	-0.632545	-0.000026
C68	C	1.481910	-0.132545	0.499974
C69	C	0.988258	-0.550769	-0.000020
C70	C	1.488258	-0.050769	0.499980
C71	C	0.923056	-0.500410	-0.000027
C72	C	1.423056	-0.000410	0.499973
N73	N	0.871345	-0.371855	-0.000025
N74	N	1.371345	0.128145	0.499975
N75	N	0.929553	-0.416825	-0.000027
N76	N	1.429553	0.083175	0.499973
C77	C	1.038464	0.099684	-0.000019
C78	C	1.538464	0.599684	0.499981
C79	C	1.122568	0.101078	-0.000025
C80	C	1.622568	0.601078	0.499975
C81	C	0.903596	0.249011	-0.000024
C82	C	1.403596	0.749011	0.499976
C83	C	0.910353	0.336042	-0.000029
C84	C	1.410353	0.836042	0.499971
N85	N	0.900432	0.105649	0.206533
N86	N	1.400432	0.605649	0.706533
N87	N	0.900476	0.105667	-0.206565
N88	N	1.400476	0.605667	0.293435
C89	C	0.948673	0.052277	0.248252
C90	C	1.448673	0.552277	0.748252
C91	C	0.948677	0.052277	0.331704
C92	C	1.448677	0.552277	0.831704
C93	C	0.900444	0.105652	0.373436
C94	C	1.400444	0.605652	0.873436
C95	C	0.852197	0.159027	0.331710
C96	C	1.352197	0.659027	0.831710
C97	C	0.852190	0.159023	0.248260
C98	C	1.352190	0.659023	0.748260
C99	C	0.852226	0.159042	0.668257
C100	C	1.352226	0.659042	1.168257
C101	C	0.852238	0.159043	0.751714
C102	C	1.352238	0.659043	1.251714
C103	C	0.948713	0.052296	0.751702
C104	C	1.448713	0.552296	1.251702
C105	C	0.948705	0.052292	0.668252
C106	C	1.448705	0.552292	1.168252
C107	C	0.900457	0.105663	0.626534
C108	C	1.400457	0.605663	1.126534
C109	C	0.900452	0.105662	0.536045
C110	C	1.400452	0.605662	1.036045
C111	C	0.900452	0.105657	0.463922
C112	C	1.400452	0.605657	0.963922
H113	H	0.662476	0.239733	-0.000011
H114	H	1.162476	0.739733	0.499989
Cl115	Cl	1.045702	-0.135597	0.000001
Cl116	Cl	1.545702	0.364403	0.500001
H117	H	0.786887	-0.639171	-0.000018
H118	H	1.286887	-0.139171	0.499982
Cl119	Cl	0.520738	-0.053788	-0.000039
Cl120	Cl	1.020738	0.446212	0.499961
Cl121	Cl	0.791538	0.226120	0.195813
Cl122	Cl	1.291538	0.726120	0.695813
H123	H	0.987997	0.008835	0.785678
H124	H	1.487997	0.508835	1.285678
Cl125	Cl	0.722688	-0.277394	-0.000035
Cl126	Cl	1.222688	0.222606	0.499965
H127	H	0.281800	-0.026045	-0.000027
H128	H	0.781800	0.473955	0.499973
H129	H	0.121390	0.230810	-0.000023
H130	H	0.621390	0.730810	0.499977
Cl131	Cl	1.031360	-0.320161	-0.000015
Cl132	Cl	1.531360	0.179839	0.499985
H133	H	0.765903	-0.115126	-0.000021
H134	H	1.265903	0.384874	0.499979
H135	H	0.679515	-0.019492	-0.000006
H136	H	1.179515	0.480508	0.499994
Cl137	Cl	1.063873	-0.695857	-0.000020
Cl138	Cl	1.563873	-0.195857	0.499980
Cl139	Cl	0.123009	-0.060344	-0.000028
Cl140	Cl	0.623009	0.439656	0.499972
Cl141	Cl	0.791575	0.226138	0.615817
Cl142	Cl	1.291575	0.726138	1.115817
H143	H	0.812921	0.202483	0.365693
H144	H	1.312921	0.702483	0.865693
H145	H	1.046523	-0.525198	-0.000018
H146	H	1.546523	-0.025198	0.499982
Cl147	Cl	0.280168	0.265103	-0.000034
Cl148	Cl	0.780168	0.765103	0.499966
H149	H	0.519107	0.237368	-0.000015
H150	H	1.019107	0.737368	0.499985
Cl151	Cl	0.791596	0.226148	0.804175
Cl152	Cl	1.291596	0.726148	1.304175
H153	H	0.798413	-0.490825	-0.000036
H154	H	1.298413	0.009175	0.499964
H155	H	0.987953	0.008816	0.214280
H156	H	1.487953	0.508816	0.714280
H157	H	0.987958	0.008817	0.365672
H158	H	1.487958	0.508817	0.865672
H159	H	0.987984	0.008831	0.634277
H160	H	1.487984	0.508831	1.134277
