data_functionalizedCrystal
_audit_creation_method	'MofGen! by Chris Wilmer'
_symmetry_space_group_name_H-M	'P1'
_symmetry_Int_Tables_number	1
_symmetry_cell_setting	triclinic
loop_
_symmetry_equiv_pos_as_xyz
  x,y,z
_cell_length_a	17.077404
_cell_length_b	17.077402
_cell_length_c	17.077396
_cell_angle_alpha	89.975636
_cell_angle_beta	89.978543
_cell_angle_gamma	90.025492
loop_
_atom_site_label
_atom_site_type_symbol
_atom_site_fract_x
_atom_site_fract_y
_atom_site_fract_z
Zn1	Zn	-1.200036	0.312527	0.443906
Zn2	Zn	-0.866702	0.645860	0.777239
Zn3	Zn	-0.533369	0.979194	1.110573
Zn4	Zn	-1.199935	0.443802	0.312650
Zn5	Zn	-0.866601	0.777135	0.645983
Zn6	Zn	-0.533268	1.110468	0.979316
Zn7	Zn	-1.068767	0.312552	0.312650
Zn8	Zn	-0.735434	0.645885	0.645983
Zn9	Zn	-0.402101	0.979219	0.979316
Zn10	Zn	-1.068727	0.443753	0.443869
Zn11	Zn	-0.735394	0.777086	0.777202
Zn12	Zn	-0.402061	1.110419	1.110535
O13	O	-1.134366	0.378158	0.378268
O14	O	-0.801033	0.711492	0.711602
O15	O	-0.467700	1.044825	1.044935
O16	O	-1.309869	0.329951	0.426510
O17	O	-0.976536	0.663284	0.759844
O18	O	-0.643202	0.996618	1.093177
O19	O	-1.182510	0.426422	0.202803
O20	O	-0.849176	0.759756	0.536136
O21	O	-0.515843	1.093089	0.869469
O22	O	-1.086239	0.202702	0.330077
O23	O	-0.752906	0.536035	0.663410
O24	O	-0.419573	0.869368	0.996743
O25	O	-1.309795	0.426398	0.330077
O26	O	-0.976462	0.759731	0.663410
O27	O	-0.643128	1.093065	0.996743
O28	O	-1.182682	0.202683	0.426510
O29	O	-0.849348	0.536017	0.759844
O30	O	-0.516015	0.869350	1.093177
O31	O	-1.086141	0.329993	0.202803
O32	O	-0.752808	0.663327	0.536136
O33	O	-0.419475	0.996660	0.869469
O34	O	-0.958915	0.329946	0.330040
O35	O	-0.625582	0.663279	0.663374
O36	O	-0.292248	0.996612	0.996707
O37	O	-1.086171	0.426314	0.553721
O38	O	-0.752838	0.759648	0.887054
O39	O	-0.419504	1.092981	1.220387
O40	O	-0.958886	0.426338	0.426446
O41	O	-0.625552	0.759672	0.759780
O42	O	-0.292219	1.093005	1.093113
O43	O	-1.182643	0.329903	0.553748
O44	O	-0.849309	0.663237	0.887081
O45	O	-0.515976	0.996570	1.220415
O46	O	-1.182471	0.553642	0.330040
O47	O	-0.849137	0.886975	0.663374
O48	O	-0.515804	1.220309	0.996707
O49	O	-1.086073	0.553606	0.426446
O50	O	-0.752740	0.886939	0.759780
O51	O	-0.419407	1.220273	1.093113
C52	C	-0.930418	0.378140	0.378240
C53	C	-0.597085	0.711473	0.711573
C54	C	-0.263752	1.044807	1.044907
C55	C	-0.843169	0.378151	0.378246
C56	C	-0.509835	0.711485	0.711580
C57	C	-0.176502	1.044818	1.044913
C58	C	-0.802184	0.428418	0.428363
C59	C	-0.468850	0.761751	0.761696
C60	C	-0.135517	1.095084	1.095030
C61	C	-0.720203	0.428418	0.428373
C62	C	-0.386870	0.761751	0.761706
C63	C	-0.053536	1.095084	1.095039
C64	C	-0.679209	0.378155	0.378261
C65	C	-0.345876	0.711488	0.711595
C66	C	-0.012542	1.044821	1.044928
C67	C	-0.720200	0.327883	0.328142
C68	C	-0.386866	0.661216	0.661476
C69	C	-0.053533	0.994549	0.994809
C70	C	-0.802179	0.327879	0.328137
C71	C	-0.468845	0.661213	0.661470
C72	C	-0.135512	0.994546	0.994804
C73	C	-0.549330	0.327895	0.328155
C74	C	-0.215996	0.661228	0.661489
C75	C	0.117337	0.994561	0.994822
C76	C	-0.467345	0.327899	0.328159
C77	C	-0.134012	0.661232	0.661493
C78	C	0.199322	0.994566	0.994826
C79	C	-0.467354	0.428433	0.428391
C80	C	-0.134021	0.761767	0.761724
C81	C	0.199313	1.095100	1.095058
C82	C	-0.549333	0.428430	0.428386
C83	C	-0.216000	0.761763	0.761719
C84	C	0.117334	1.095097	1.095052
C85	C	-0.590318	0.378159	0.378266
C86	C	-0.256985	0.711492	0.711599
C87	C	0.076349	1.044825	1.044932
C88	C	-1.134278	0.582106	0.378256
C89	C	-0.800945	0.915440	0.711590
C90	C	-0.467611	1.248773	1.044923
C91	C	-1.134312	0.669356	0.378278
C92	C	-0.800979	1.002689	0.711611
C93	C	-0.467645	1.336023	1.044944
C94	C	-0.339110	0.378172	0.378289
C95	C	-0.005777	0.711506	0.711622
C96	C	0.327556	1.044839	1.044956
C97	C	-0.426360	0.378166	0.378276
C98	C	-0.093027	0.711499	0.711609
C99	C	0.240306	1.044832	1.044943
C100	C	-1.134414	0.378100	0.583013
C101	C	-0.801080	0.711434	0.916346
C102	C	-0.467747	1.044767	1.249679
C103	C	-1.134434	0.378076	0.670263
C104	C	-0.801101	0.711409	1.003596
C105	C	-0.467767	1.044742	1.336929
C106	C	-1.184699	1.045163	0.328182
C107	C	-0.851366	1.378496	0.661515
C108	C	-0.518032	1.711830	0.994849
C109	C	-1.184662	0.963183	0.328165
C110	C	-0.851328	1.296516	0.661499
C111	C	-0.517995	1.629849	0.994832
C112	C	-1.134417	0.922205	0.378313
C113	C	-0.801083	1.255538	0.711647
C114	C	-0.467750	1.588871	1.044980
C115	C	-1.084200	0.963212	0.428475
C116	C	-0.750867	1.296545	0.761809
C117	C	-0.417534	1.629878	1.095142
C118	C	-1.084235	1.045191	0.428487
C119	C	-0.750901	1.378524	0.761821
C120	C	-0.417568	1.711857	1.095154
C121	C	-1.084134	0.792342	0.428448
C122	C	-0.750801	1.125675	0.761781
C123	C	-0.417468	1.459008	1.095115
C124	C	-1.084101	0.710357	0.428437
C125	C	-0.750768	1.043690	0.761771
C126	C	-0.417435	1.377024	1.095104
C127	C	-1.184562	0.710334	0.328126
C128	C	-0.851228	1.043667	0.661460
C129	C	-0.517895	1.377000	0.994793
C130	C	-1.184596	0.792313	0.328138
C131	C	-0.851262	1.125646	0.661472
C132	C	-0.517929	1.458979	0.994805
C133	C	-1.134380	0.833314	0.378302
C134	C	-0.801047	1.166647	0.711635
C135	C	-0.467713	1.499980	1.044968
C136	C	-1.134467	1.173414	0.378306
C137	C	-0.801134	1.506747	0.711639
C138	C	-0.467801	1.840081	1.044972
C139	C	-1.134488	1.086164	0.378342
C140	C	-0.801155	1.419497	0.711675
C141	C	-0.467822	1.752831	1.045008
C142	C	-1.134364	0.378159	0.174321
C143	C	-0.801031	0.711493	0.507654
C144	C	-0.467697	1.044826	0.840987
C145	C	-1.134496	0.377963	0.087071
C146	C	-0.801163	0.711296	0.420405
C147	C	-0.467829	1.044629	0.753738
C148	C	-1.184669	0.327870	0.711268
C149	C	-0.851335	0.661204	1.044602
C150	C	-0.518002	0.994537	1.377935
C151	C	-1.184678	0.327844	0.793249
C152	C	-0.851345	0.661178	1.126582
C153	C	-0.518011	0.994511	1.459916
C154	C	-1.134456	0.378028	0.834222
C155	C	-0.801123	0.711361	1.167556
C156	C	-0.467790	1.044695	1.500889
C157	C	-1.084216	0.428236	0.793211
C158	C	-0.750883	0.761569	1.126544
C159	C	-0.417549	1.094902	1.459877
C160	C	-1.084203	0.428257	0.711232
C161	C	-0.750870	0.761591	1.044565
C162	C	-0.417537	1.094924	1.377898
C163	C	-1.084248	0.428188	0.964081
C164	C	-0.750914	0.761522	1.297414
C165	C	-0.417581	1.094855	1.630747
C166	C	-1.084261	0.428168	1.046065
C167	C	-0.750928	0.761501	1.379399
C168	C	-0.417595	1.094835	1.712732
C169	C	-1.184722	0.327776	1.046098
C170	C	-0.851389	0.661109	1.379431
C171	C	-0.518056	0.994442	1.712765
C172	C	-1.184710	0.327797	0.964119
C173	C	-0.851376	0.661130	1.297452
C174	C	-0.518043	0.994464	1.630786
C175	C	-1.134470	0.378006	0.923113
C176	C	-0.801137	0.711339	1.256447
C177	C	-0.467804	1.044673	1.589780
H178	H	-0.686837	0.469351	0.469182
H179	H	-0.353504	0.802684	0.802515
H180	H	-0.020170	1.136017	1.135849
H181	H	-1.225567	0.287007	0.677914
H182	H	-0.892234	0.620341	1.011247
H183	H	-0.558901	0.953674	1.344581
O184	O	-1.030002	0.919022	0.482564
O185	O	-0.696668	1.252356	0.815897
O186	O	-0.363335	1.585689	1.149231
H187	H	-1.065097	0.881626	0.522535
H188	H	-0.731763	1.214960	0.855869
H189	H	-0.398430	1.548293	1.189202
H190	H	-0.433970	0.286961	0.287363
H191	H	-0.100637	0.620294	0.620697
H192	H	0.232697	0.953628	0.954030
H193	H	-0.433980	0.469364	0.469203
H194	H	-0.100647	0.802697	0.802536
H195	H	0.232686	1.136030	1.135870
H196	H	-1.225546	0.929800	0.287321
H197	H	-0.892213	1.263133	0.620654
H198	H	-0.558880	1.596466	0.953988
O199	O	-1.030055	0.482335	0.919852
O200	O	-0.696721	0.815669	1.253185
O201	O	-0.363388	1.149002	1.586518
H202	H	-1.043487	0.543942	0.935572
H203	H	-0.710154	0.877275	1.268905
H204	H	-0.376821	1.210609	1.602239
O205	O	-1.029975	0.836574	0.482548
O206	O	-0.696642	1.169907	0.815881
O207	O	-0.363309	1.503240	1.149215
H208	H	-1.043404	0.820801	0.544167
H209	H	-0.710070	1.154134	0.877500
H210	H	-0.376737	1.487468	1.210833
H211	H	-1.225513	0.825674	0.287307
H212	H	-0.892180	1.159008	0.620641
H213	H	-0.558846	1.492341	0.953974
H214	H	-0.582697	0.286952	0.287349
H215	H	-0.249364	0.620285	0.620682
H216	H	0.083969	0.953618	0.954016
O217	O	-1.238864	0.273699	0.837480
O218	O	-0.905530	0.607033	1.170813
O219	O	-0.572197	0.940366	1.504146
H220	H	-1.273792	0.238816	0.795216
H221	H	-0.940459	0.572149	1.128549
H222	H	-0.607125	0.905483	1.461883
O223	O	-0.593553	0.482637	0.482435
O224	O	-0.260220	0.815971	0.815769
O225	O	0.073113	1.149304	1.149102
H226	H	-0.551283	0.517589	0.517295
H227	H	-0.217950	0.850922	0.850628
H228	H	0.115384	1.184255	1.183961
O229	O	-1.238721	0.666118	0.274015
O230	O	-0.905387	0.999452	0.607348
O231	O	-0.572054	1.332785	0.940681
H232	H	-1.230251	0.602229	0.282421
H233	H	-0.896917	0.935562	0.615755
H234	H	-0.563584	1.268896	0.949088
H235	H	-1.043322	0.469093	0.826578
H236	H	-0.709988	0.802427	1.159911
H237	H	-0.376655	1.135760	1.493244
H238	H	-0.835548	0.286943	0.287331
H239	H	-0.502214	0.620276	0.620664
H240	H	-0.168881	0.953610	0.953998
O241	O	-0.675977	0.273690	0.274080
O242	O	-0.342644	0.607023	0.607413
O243	O	-0.009311	0.940356	0.940746
H244	H	-0.638643	0.233804	0.309271
H245	H	-0.305309	0.567137	0.642605
H246	H	0.028024	0.900470	0.975938
O247	O	-1.238908	0.273621	1.090325
O248	O	-0.905574	0.606954	1.423658
O249	O	-0.572241	0.940287	1.756992
H250	H	-1.273836	0.238737	1.048061
H251	H	-0.940502	0.572070	1.381394
H252	H	-0.607169	0.905403	1.714728
H253	H	-1.225619	1.078521	0.287350
H254	H	-0.892285	1.411855	0.620683
H255	H	-0.558952	1.745188	0.954017
O256	O	-1.030083	1.089420	0.482591
O257	O	-0.696749	1.422753	0.815924
O258	O	-0.363416	1.756086	1.149257
H259	H	-0.995143	1.047154	0.517466
H260	H	-0.661810	1.380488	0.850799
H261	H	-0.328477	1.713821	1.184132
H262	H	-1.043289	0.469132	0.677846
H263	H	-0.709956	0.802465	1.011179
H264	H	-0.376623	1.135798	1.344512
O265	O	-1.029903	0.666156	0.482517
O266	O	-0.696569	0.999490	0.815850
O267	O	-0.363236	1.332823	1.149183
H268	H	-1.043325	0.681847	0.544141
H269	H	-0.709992	1.015180	0.877475
H270	H	-0.376659	1.348513	1.210808
O271	O	-1.238882	0.273678	0.919923
O272	O	-0.905549	0.607011	1.253256
O273	O	-0.572215	0.940345	1.586589
H274	H	-1.225456	0.212062	0.935654
H275	H	-0.892123	0.545395	1.268988
H276	H	-0.558789	0.878729	1.602321
O277	O	-0.846398	0.482627	0.482415
O278	O	-0.513065	0.815960	0.815749
O279	O	-0.179731	1.149294	1.149082
H280	H	-0.804122	0.517574	0.517272
H281	H	-0.470789	0.850907	0.850606
H282	H	-0.137456	1.184240	1.183939
O283	O	-1.030088	0.482285	1.090263
O284	O	-0.696755	0.815619	1.423597
O285	O	-0.363421	1.148952	1.756930
H286	H	-0.995142	0.517193	1.047979
H287	H	-0.661808	0.850526	1.381312
H288	H	-0.328475	1.183859	1.714645
