data_functionalizedCrystal
_audit_creation_method	'MofGen! by Chris Wilmer'
_symmetry_space_group_name_H-M	'P1'
_symmetry_Int_Tables_number	1
_symmetry_cell_setting	triclinic
loop_
_symmetry_equiv_pos_as_xyz
  x,y,z
_cell_length_a	17.038272
_cell_length_b	17.666332
_cell_length_c	17.038272
_cell_angle_alpha	89.993620
_cell_angle_beta	88.888444
_cell_angle_gamma	90.003567
loop_
_atom_site_label
_atom_site_type_symbol
_atom_site_fract_x
_atom_site_fract_y
_atom_site_fract_z
O1	O	1.048760	0.062854	-0.170538
O2	O	0.820948	0.062877	-0.167831
O3	O	0.933500	0.062860	-0.055279
O4	O	0.936208	0.062871	-0.283090
O5	O	0.933479	-0.063037	-0.055271
O6	O	0.820927	-0.063020	-0.167823
O7	O	1.048738	-0.063042	-0.170531
Cu8	Cu	0.934831	-0.074527	-0.169176
Cu9	Cu	0.934856	0.074361	-0.169185
O10	O	0.936187	-0.063025	-0.283082
C11	C	0.791645	-0.000069	-0.165364
C12	C	0.704361	-0.000061	-0.158016
N13	N	0.934818	-0.179246	-0.169169
C14	C	0.658752	-0.000058	-0.225479
C15	C	0.576740	-0.000069	-0.218570
C16	C	0.540339	-0.000077	-0.144197
C17	C	0.585954	-0.000082	-0.076728
C18	C	0.667965	-0.000077	-0.083638
C19	C	0.292951	-0.000098	-0.119787
C20	C	0.210935	-0.000101	-0.112882
C21	C	0.201726	-0.000089	-0.254725
C22	C	0.283739	-0.000080	-0.261628
C23	C	0.329347	-0.000089	-0.194159
C24	C	0.456510	-0.000086	-0.137133
C25	C	0.413174	-0.000085	-0.201224
C26	C	0.984675	-0.218863	-0.119359
C27	C	0.984680	-0.298111	-0.119355
C28	C	0.934835	-0.337738	-0.169176
C29	C	0.884969	-0.298111	-0.218990
C30	C	0.884960	-0.218865	-0.218987
N31	N	0.929461	-0.462153	-0.238001
N32	N	0.929474	-0.537433	-0.238002
C33	C	0.934857	-0.576502	-0.169189
N34	N	0.940242	-0.537447	-0.100373
N35	N	0.940234	-0.462160	-0.100373
C36	C	0.934839	-0.423667	-0.169185
C37	C	0.984721	-0.702049	-0.119370
C38	C	0.984720	-0.781298	-0.119365
C39	C	0.885013	-0.781297	-0.219008
C40	C	0.885010	-0.702049	-0.219005
C41	C	0.934868	-0.662430	-0.169188
C42	C	1.078042	-0.000095	-0.172997
C43	C	1.165326	-0.000099	-0.180346
C44	C	0.931027	-0.000088	-0.025982
C45	C	0.923679	-0.000088	0.061301
N46	N	0.934874	0.179080	-0.169186
C47	C	0.938660	-0.000076	-0.312379
C48	C	0.946008	-0.000072	-0.399663
C49	C	0.991142	-0.000095	0.106911
C50	C	0.984233	-0.000087	0.188923
C51	C	0.909860	-0.000077	0.225324
C52	C	0.842391	-0.000068	0.179708
C53	C	0.849301	-0.000070	0.097698
C54	C	0.885449	-0.000065	0.472712
C55	C	0.878545	-0.000064	0.554728
C56	C	1.020387	-0.000082	0.563937
C57	C	1.027291	-0.000089	0.481924
C58	C	0.959822	-0.000076	0.436316
C59	C	0.902796	-0.000072	0.309153
C60	C	0.966886	-0.000076	0.352488
H61	H	0.539608	-0.000065	-0.273507
C62	C	1.029075	-0.580568	-0.075216
C63	C	1.039577	-0.658492	-0.064667
H64	H	1.062963	-0.553681	-0.041465
H65	H	0.976122	-0.567562	-0.063113
H66	H	1.041033	-0.567612	-0.128223
H67	H	1.027614	-0.671449	-0.011660
H68	H	1.092542	-0.671503	-0.076765
C69	C	1.081196	-0.064827	0.020044
C70	C	1.072898	-0.000106	0.066905
H71	H	1.131672	-0.064833	-0.004648
H72	H	1.042013	-0.064820	-0.018857
H73	H	1.075543	-0.108724	0.051860
H74	H	1.078545	0.043791	0.035087
H75	H	1.112091	-0.000107	0.105810
H76	H	0.688384	-0.000051	-0.286042
H77	H	0.426863	-0.000114	-0.076578
C78	C	0.788510	0.064666	0.641619
C79	C	0.796790	-0.000051	0.594748
H80	H	0.738044	0.064669	0.666330
H81	H	0.794156	0.108561	0.609813
H82	H	0.827711	0.064649	0.680512
H83	H	0.757593	-0.000031	0.555851
H84	H	0.791137	-0.043957	0.626556
H85	H	0.842241	-0.000065	0.338800
H86	H	1.025317	-0.813555	-0.078799
H87	H	1.025271	-0.186608	-0.078792
H88	H	0.844426	-0.813561	-0.259570
C89	C	1.083240	-0.290160	-0.020868
C90	C	1.039484	-0.341671	-0.064597
H91	H	1.117074	-0.317052	0.012935
H92	H	1.048672	-0.259262	0.009576
H93	H	1.113659	-0.259241	-0.055460
H94	H	1.009060	-0.372586	-0.030005
H95	H	1.074056	-0.372582	-0.095043
H96	H	0.844383	-0.330380	-0.259554
H97	H	0.313370	-0.000064	-0.322190
H98	H	0.442816	-0.000083	-0.261778
H99	H	0.844360	-0.186608	-0.259549
C100	C	0.708403	-0.000058	0.096828
C101	C	0.775143	-0.000064	0.047561
H102	H	0.662621	-0.000056	0.065874
H103	H	0.708667	0.043842	0.129000
H104	H	0.708654	-0.043964	0.129013
H105	H	0.774895	0.043846	0.015380
H106	H	0.774878	-0.043968	0.015375
C107	C	0.797772	-0.000078	-0.031250
C108	C	0.718103	-0.000079	-0.009481
H109	H	0.828723	-0.000087	0.014534
H110	H	0.809317	0.043826	-0.061516
H111	H	0.809309	-0.043981	-0.061522
H112	H	0.706565	0.043826	0.020787
H113	H	0.706554	-0.043988	0.020798
H114	H	0.844415	-0.669791	-0.259569
H115	H	1.039170	-0.000095	0.226054
H116	H	1.087853	-0.000097	0.452293
H117	H	1.075316	-0.000092	0.601079
C118	C	0.293804	-0.000105	0.021110
C119	C	0.343077	-0.000102	-0.045625
H120	H	0.324754	-0.000103	0.066895
H121	H	0.261625	-0.044006	0.020855
H122	H	0.261626	0.043800	0.020845
H123	H	0.375251	-0.044011	-0.045363
H124	H	0.375269	0.043803	-0.045369
C125	C	0.104152	0.064626	-0.329244
C126	C	0.151590	-0.000088	-0.328882
H127	H	0.073197	0.064621	-0.375026
H128	H	0.136336	0.108523	-0.328999
H129	H	0.070740	0.064614	-0.283958
H130	H	0.185006	-0.000073	-0.374165
H131	H	0.119403	-0.043996	-0.329135
C132	C	0.744553	-0.000064	0.471859
C133	C	0.811288	-0.000064	0.422586
H134	H	0.698767	-0.000071	0.440909
H135	H	0.744813	0.043838	0.504028
H136	H	0.744813	-0.043969	0.504047
H137	H	0.811031	0.043843	0.390402
H138	H	0.811027	-0.043971	0.390404
C139	C	0.768818	-0.000065	0.301334
C140	C	0.760638	-0.000060	0.219719
H141	H	0.718345	-0.000067	0.326031
H142	H	0.796826	0.043833	0.316658
H143	H	0.796820	-0.043973	0.316663
H144	H	0.732641	0.043852	0.204389
H145	H	0.732618	-0.043962	0.204388
H146	H	0.181300	-0.000107	-0.052315
C147	C	1.106400	-0.000089	0.369827
C148	C	1.048637	-0.000083	0.312480
H149	H	1.156869	-0.000090	0.345120
H150	H	1.100751	-0.043990	0.401625
H151	H	1.100762	0.043817	0.401620
H152	H	1.054272	-0.043992	0.280690
H153	H	1.054289	0.043822	0.280668
C154	C	0.464329	-0.000088	-0.003155
C155	C	0.545944	-0.000090	0.005025
H156	H	0.439631	-0.000087	0.047318
H157	H	0.448999	-0.043987	-0.031154
H158	H	0.449006	0.043819	-0.031166
H159	H	0.561268	-0.044000	0.033031
H160	H	0.561280	0.043814	0.033036
