data_functionalizedCrystal
_audit_creation_method	'MofGen! by Chris Wilmer'
_symmetry_space_group_name_H-M	'P1'
_symmetry_Int_Tables_number	1
_symmetry_cell_setting	triclinic
loop_
_symmetry_equiv_pos_as_xyz
  x,y,z
_cell_length_a	14.519731
_cell_length_b	12.996460
_cell_length_c	16.109301
_cell_angle_alpha	90.007568
_cell_angle_beta	96.424833
_cell_angle_gamma	89.993310
loop_
_atom_site_label
_atom_site_type_symbol
_atom_site_fract_x
_atom_site_fract_y
_atom_site_fract_z
O1	O	-1.223624	0.085597	0.109071
O2	O	-0.955123	0.085593	0.121887
O3	O	-1.096750	0.085585	-0.005538
O4	O	-1.081998	0.085605	0.236497
O5	O	-1.096735	-0.085549	-0.005545
O6	O	-0.955108	-0.085540	0.121880
O7	O	-1.223610	-0.085537	0.109064
Cu8	Cu	-1.089357	-0.101165	0.115472
Cu9	Cu	-1.089375	0.101221	0.115480
O10	O	-1.081983	-0.085528	0.236490
C11	C	-0.920757	0.000026	0.121283
C12	C	-0.818381	0.000024	0.119484
N13	N	-1.089352	-0.243512	0.115465
C14	C	-0.735240	0.000027	0.118022
C15	C	-0.630935	0.000025	0.116195
C16	C	-0.547799	0.000023	0.114745
C17	C	-0.443487	0.000023	0.112918
C18	C	-1.089374	-0.663326	0.115481
C19	C	-1.089365	-0.546521	0.115479
C20	C	-1.089363	-0.453423	0.115474
C21	C	-1.089354	-0.336610	0.115471
C22	C	-0.257975	0.000028	0.109668
C23	C	-0.360352	0.000021	0.111468
C24	C	-1.096145	0.000017	-0.036518
C25	C	-1.094353	0.000016	-0.128816
N26	N	-1.089388	0.243568	0.115480
C27	C	-1.174226	0.000033	-0.350945
C28	C	-1.172535	0.000041	-0.437668
C29	C	-1.004500	0.000035	-0.418097
C30	C	-1.006192	0.000034	-0.331375
C31	C	-1.091057	0.000028	-0.297802
C32	C	-1.087675	0.000037	-0.471247
C33	C	-1.085842	0.000047	-0.565276
C34	C	-1.092891	0.000021	-0.203766
C35	C	-1.082588	0.000041	0.267469
C36	C	-1.084379	0.000050	0.359768
H37	H	-1.240260	0.000048	-0.480935
H38	H	-1.243329	0.000030	-0.323613
H39	H	-0.938461	0.000033	-0.288103
C40	C	-0.912458	-0.000022	-0.454711
C41	C	-0.928775	-0.000050	-0.542033
C42	C	-0.844006	-0.000120	-0.575788
H43	H	-0.878144	0.059638	-0.436565
H44	H	-0.878204	-0.059726	-0.436529
H45	H	-0.963013	0.059648	-0.560207
H46	H	-0.963074	-0.059705	-0.560202
H47	H	-0.809753	-0.059825	-0.557607
H48	H	-0.809699	0.059540	-0.557636
H49	H	-0.855065	-0.000149	-0.635039
