data_functionalizedCrystal
_audit_creation_method	'MofGen! by Chris Wilmer'
_symmetry_space_group_name_H-M	'P1'
_symmetry_Int_Tables_number	1
_symmetry_cell_setting	triclinic
loop_
_symmetry_equiv_pos_as_xyz
  x,y,z
_cell_length_a	14.853567
_cell_length_b	15.995350
_cell_length_c	13.330367
_cell_angle_alpha	89.997588
_cell_angle_beta	89.995418
_cell_angle_gamma	83.563653
loop_
_atom_site_label
_atom_site_type_symbol
_atom_site_fract_x
_atom_site_fract_y
_atom_site_fract_z
O1	O	1.196221	0.109317	-0.083349
O2	O	1.696221	0.609317	0.416651
O3	O	0.933744	0.122339	-0.083366
O4	O	1.433744	0.622339	0.416634
O5	O	1.072158	-0.006051	-0.083356
O6	O	1.572158	0.493949	0.416644
O7	O	1.057808	0.237707	-0.083359
O8	O	1.557808	0.737707	0.416641
O9	O	1.072138	-0.006054	0.083491
O10	O	1.572138	0.493946	0.583491
O11	O	0.933724	0.122336	0.083481
O12	O	1.433724	0.622336	0.583481
O13	O	1.196201	0.109314	0.083498
O14	O	1.696201	0.609314	0.583498
Cu15	Cu	1.064961	0.115825	0.098724
Cu16	Cu	1.564961	0.615825	0.598724
Cu17	Cu	1.064985	0.115828	-0.098592
Cu18	Cu	1.564985	0.615828	0.401408
O19	O	1.057788	0.237704	0.083488
O20	O	1.557788	0.737704	0.583488
C21	C	0.900146	0.121748	0.000056
C22	C	1.400146	0.621748	0.500056
C23	C	0.800065	0.119980	0.000049
C24	C	1.300065	0.619980	0.500049
C25	C	0.387644	0.036238	0.000072
C26	C	0.887644	0.536238	0.500072
C27	C	0.366158	0.188769	0.000070
C28	C	0.866158	0.688769	0.500070
C29	C	0.460189	0.190432	0.000067
C30	C	0.960189	0.690432	0.500067
C31	C	0.517953	0.114996	0.000065
C32	C	1.017953	0.614996	0.500065
C33	C	0.481685	0.037899	0.000066
C34	C	0.981685	0.537899	0.500066
C35	C	0.496464	0.267528	0.000055
C36	C	0.996464	0.767528	0.500055
C37	C	0.590501	0.269194	0.000051
C38	C	1.090501	0.769194	0.500051
C39	C	0.648266	0.193758	0.000056
C40	C	1.148266	0.693758	0.500056
C41	C	0.611993	0.116657	0.000059
C42	C	1.111993	0.616657	0.500059
C43	C	0.669757	0.041221	0.000057
C44	C	1.169757	0.541221	0.500057
C45	C	0.633485	-0.035880	0.000067
C46	C	1.133485	0.464120	0.500067
C47	C	0.539450	-0.037538	0.000072
C48	C	1.039450	0.462462	0.500072
C49	C	0.742302	0.195415	0.000051
C50	C	1.242302	0.695415	0.500051
C51	C	0.763797	0.042882	0.000051
C52	C	1.263797	0.542882	0.500051
C53	C	1.071555	-0.037248	0.000065
C54	C	1.571555	0.462752	0.500065
C55	C	1.069776	-0.130201	0.000060
C56	C	1.569776	0.369799	0.500060
C57	C	1.063389	-0.467956	0.000063
C58	C	1.563389	0.032044	0.500063
C59	C	0.964813	-0.420636	-0.000318
C60	C	1.464813	0.079364	0.499682
C61	C	0.966592	-0.323944	0.000058
C62	C	1.466592	0.176056	0.500058
C63	C	1.066557	-0.300391	0.000061
C64	C	1.566557	0.199609	0.500061
C65	C	1.115167	-0.341414	0.095340
C66	C	1.615167	0.158586	0.595340
C67	C	1.112690	-0.438053	0.095419
C68	C	1.612690	0.061947	0.595419
C69	C	1.114749	-0.438405	-0.094317
C70	C	1.614749	0.061595	0.405683
C71	C	1.114726	-0.341460	-0.095576
C72	C	1.614726	0.158540	0.404424
C73	C	1.068353	-0.205692	0.000063
C74	C	1.568353	0.294308	0.500063
C75	C	1.061596	-0.562655	0.000067
C76	C	1.561596	-0.062655	0.500067
C77	C	1.229799	0.109906	0.000074
C78	C	1.729799	0.609906	0.500074
C79	C	1.329881	0.111674	0.000074
C80	C	1.829881	0.611674	0.500074
C81	C	1.058391	0.268901	0.000064
C82	C	1.558391	0.768901	0.500064
C83	C	1.060170	0.361854	0.000064
C84	C	1.560170	0.861854	0.500064
N85	N	1.064951	0.115822	0.237506
N86	N	1.564951	0.615822	0.737506
N87	N	1.065002	0.115825	-0.237374
N88	N	1.565002	0.615825	0.262626
C89	C	1.003693	0.172657	0.710124
C90	C	1.503693	0.672657	1.210124
C91	C	1.126301	0.058993	0.710101
C92	C	1.626301	0.558993	1.210101
C93	C	1.126291	0.058990	0.605082
C94	C	1.626291	0.558990	1.105082
C95	C	1.064982	0.115823	0.552580
C96	C	1.564982	0.615823	1.052580
C97	C	1.003682	0.172658	0.605096
C98	C	1.503682	0.672658	1.105096
C99	C	1.187595	0.002162	0.552559
C100	C	1.687595	0.502162	1.052559
C101	C	1.187588	0.002158	0.447534
C102	C	1.687588	0.502158	0.947534
C103	C	1.126274	0.058987	0.395030
C104	C	1.626274	0.558987	0.895030
C105	C	1.064971	0.115824	0.447552
C106	C	1.564971	0.615824	0.947552
C107	C	1.003662	0.172656	0.395050
C108	C	1.503662	0.672656	0.895050
C109	C	0.942354	0.229490	0.447570
C110	C	1.442354	0.729490	0.947570
C111	C	0.942368	0.229487	0.552592
C112	C	1.442368	0.729487	1.052592
C113	C	1.126260	0.058989	0.290008
C114	C	1.626260	0.558989	0.790008
C115	C	1.003652	0.172657	0.290022
C116	C	1.503652	0.672657	0.790022
H117	H	0.509909	-0.100310	0.000103
H118	H	1.009909	0.399690	0.500103
H119	H	0.680529	-0.097299	0.000058
H120	H	1.180529	0.402701	0.500058
N121	N	0.822811	-0.034168	0.000038
N122	N	1.322811	0.465832	0.500038
N123	N	0.906769	-0.032678	0.000025
N124	N	1.406769	0.467322	0.500025
H125	H	0.948449	-0.087094	0.000015
H126	H	1.448449	0.412906	0.500015
H127	H	0.953774	0.218928	0.752889
H128	H	1.453774	0.718928	1.252889
N129	N	1.068184	-0.461055	0.184758
N130	N	1.568184	0.038945	0.684758
N131	N	0.988145	-0.431425	0.201661
N132	N	1.488145	0.068575	0.701661
H133	H	0.956709	-0.447665	0.264758
H134	H	1.456709	0.052335	0.764758
H135	H	0.358108	-0.026536	0.000084
H136	H	0.858108	0.473464	0.500084
N137	N	1.205923	-0.478144	-0.095150
N138	N	1.705923	0.021856	0.404850
N139	N	1.258452	-0.462995	-0.164421
N140	N	1.758452	0.037005	0.335579
H141	H	1.322841	-0.491065	-0.165005
H142	H	1.822841	0.008935	0.334995
N143	N	0.779368	0.274155	0.000051
N144	N	1.279368	0.774155	0.500051
N145	N	0.863328	0.275628	0.000052
N146	N	1.363328	0.775628	0.500052
H147	H	0.889507	0.331241	0.000054
H148	H	1.389507	0.831241	0.500054
H149	H	1.237507	-0.044120	0.404778
H150	H	1.737507	0.455880	0.904778
N151	N	0.918652	-0.288349	-0.085624
N152	N	1.418652	0.211651	0.414376
N153	N	0.883642	-0.334914	-0.146118
N154	N	1.383642	0.165086	0.353882
H155	H	0.849777	-0.309779	-0.206632
H156	H	1.349777	0.190221	0.293368
N157	N	1.072776	-0.305870	0.184281
N158	N	1.572776	0.194130	0.684281
N159	N	0.990867	-0.311998	0.200358
N160	N	1.490867	0.188002	0.700358
H161	H	0.960922	-0.286896	0.263171
H162	H	1.460922	0.213104	0.763171
H163	H	0.319121	0.250185	0.000063
H164	H	0.819121	0.750185	0.500063
N165	N	1.188911	0.000938	0.763735
N166	N	1.688911	0.500938	1.263735
N167	N	1.187679	-0.076459	0.752027
N168	N	1.687679	0.423541	1.252027
H169	H	1.231898	-0.117463	0.789913
H170	H	1.731898	0.382537	1.289913
N171	N	0.915406	-0.443937	-0.086042
N172	N	1.415406	0.056063	0.413958
N173	N	0.952263	-0.495694	-0.147857
N174	N	1.452263	0.004306	0.352143
H175	H	0.917370	-0.512153	-0.208405
H176	H	1.417370	-0.012153	0.291595
H177	H	0.953723	0.218935	0.247280
H178	H	1.453723	0.718935	0.747280
N179	N	1.250247	-0.055848	0.606202
N180	N	1.750247	0.444152	1.106202
N181	N	1.250262	-0.055821	0.699971
N182	N	1.750262	0.444179	1.199971
H183	H	1.294523	-0.096783	0.737862
H184	H	1.794523	0.403217	1.237862
N185	N	1.074347	-0.464228	-0.184916
N186	N	1.574347	0.035772	0.315084
N187	N	1.070601	-0.540639	-0.201730
N188	N	1.570601	-0.040639	0.298270
H189	H	1.042061	-0.558878	-0.265712
H190	H	1.542061	-0.058878	0.234288
H191	H	0.928108	-0.296125	0.068470
H192	H	1.428108	0.203875	0.568470
H193	H	0.925580	-0.440277	0.067623
H194	H	1.425580	0.059723	0.567623
N195	N	0.437450	0.344570	0.000025
N196	N	0.937450	0.844570	0.500025
N197	N	0.353493	0.343073	0.000021
N198	N	0.853493	0.843073	0.500021
H199	H	0.311808	0.397487	-0.000006
H200	H	0.811808	0.897487	0.499994
N201	N	0.627532	0.347954	0.000037
N202	N	1.127532	0.847954	0.500037
N203	N	0.575947	0.415300	0.000035
N204	N	1.075947	0.915300	0.500035
H205	H	0.602100	0.470926	0.000027
H206	H	1.102100	0.970926	0.500027
H207	H	1.176180	0.012720	0.247250
H208	H	1.676180	0.512720	0.747250
H209	H	1.185062	-0.470217	0.099744
H210	H	1.685062	0.029783	0.599744
H211	H	0.892454	0.275760	0.595361
H212	H	1.392454	0.775760	1.095361
H213	H	1.188608	-0.327203	0.098885
H214	H	1.688608	0.172797	0.598885
N215	N	1.070192	-0.307262	-0.183996
N216	N	1.570192	0.192738	0.316004
N217	N	1.003226	-0.252843	-0.176682
N218	N	1.503226	0.247157	0.323318
H219	H	0.971771	-0.228686	-0.239127
H220	H	1.471771	0.271314	0.260873
H221	H	0.892440	0.275767	0.404811
H222	H	1.392440	0.775767	0.904811
N223	N	1.206171	-0.322063	-0.102795
N224	N	1.706171	0.177937	0.397205
N225	N	1.237471	-0.277461	-0.037275
N226	N	1.737471	0.222539	0.462725
H227	H	1.302056	-0.263757	-0.042369
H228	H	1.802056	0.236243	0.457631
