data_functionalizedCrystal
_audit_creation_method	'MofGen! by Chris Wilmer'
_symmetry_space_group_name_H-M	'P1'
_symmetry_Int_Tables_number	1
_symmetry_cell_setting	triclinic
loop_
_symmetry_equiv_pos_as_xyz
  x,y,z
_cell_length_a	10.489716
_cell_length_b	10.489741
_cell_length_c	9.616153
_cell_angle_alpha	89.998052
_cell_angle_beta	89.993488
_cell_angle_gamma	84.534155
loop_
_atom_site_label
_atom_site_type_symbol
_atom_site_fract_x
_atom_site_fract_y
_atom_site_fract_z
O1	O	1.694077	0.179814	-0.115634
O2	O	1.322877	0.196739	-0.115639
O3	O	1.516923	0.002678	-0.115628
O4	O	1.500030	0.373875	-0.115645
O5	O	1.516897	0.002682	0.115664
O6	O	1.322850	0.196743	0.115653
O7	O	1.694050	0.179818	0.115658
Zn8	Zn	1.508446	0.188281	0.152378
Zn9	Zn	1.508481	0.188276	-0.152359
O10	O	1.500004	0.373879	0.115647
C11	C	1.275332	0.195470	0.000006
C12	C	1.133701	0.191665	0.000004
C13	C	1.036027	0.310669	-0.000004
C14	C	0.958667	0.247787	0.114044
C15	C	0.958700	0.247755	-0.113992
C16	C	1.058207	0.128832	0.114146
C17	C	1.058245	0.128817	-0.113991
C18	C	0.980935	0.065848	0.000085
C19	C	1.515634	-0.044852	0.000017
C20	C	1.511817	-0.186481	0.000014
C21	C	1.388351	-0.254610	0.000003
C22	C	1.446662	-0.346736	0.114042
C23	C	1.446718	-0.346714	-0.113993
C24	C	1.570179	-0.276741	0.114148
C25	C	1.570217	-0.276710	-0.113990
C26	C	1.628618	-0.368808	0.000078
C27	C	1.741596	0.181087	0.000010
C28	C	1.883227	0.184892	0.000002
C29	C	1.501293	0.421409	-0.000001
C30	C	1.505110	0.563038	-0.000008
N31	N	1.508431	0.188284	0.360352
N32	N	1.508506	0.188263	-0.360333
C33	C	1.404312	0.291746	0.580716
C34	C	1.404541	0.292133	0.419549
C35	C	1.641801	0.218567	0.418802
C36	C	1.641234	0.219300	0.580020
C37	C	1.480508	0.054200	0.580269
C38	C	1.477447	0.055069	0.419043
H39	H	0.915228	0.298014	-0.210396
Br40	Br	1.657165	-0.225368	0.275019
Br41	Br	1.682043	0.382319	0.642671
H42	H	1.721230	0.145254	0.380454
H43	H	0.956505	-0.037744	0.000155
H44	H	1.730222	-0.418241	0.000142
H45	H	1.394409	-0.377741	0.210453
Br46	Br	1.434478	0.457929	0.355226
Br47	Br	1.683528	0.379745	0.351478
Br48	Br	1.077159	0.483196	0.000162
H49	H	1.394472	-0.377675	-0.210414
Br50	Br	1.657239	-0.224974	-0.274690
H51	H	1.305445	0.273911	0.380033
H52	H	1.422077	0.390645	0.621211
H53	H	0.915174	0.298025	0.210456
H54	H	1.304906	0.273803	0.619527
Br55	Br	1.219157	-0.171842	0.000178
Br56	Br	1.774314	0.098419	0.645020
Br57	Br	1.321810	0.006186	0.648117
Br58	Br	1.130784	0.045159	-0.274694
Br59	Br	1.313915	0.016805	0.355379
H60	H	1.548306	-0.025638	0.378752
H61	H	1.556477	-0.022823	0.618390
H62	H	1.101512	0.078626	0.210660
