data_functionalizedCrystal
_audit_creation_method	'MofGen! by Chris Wilmer'
_symmetry_space_group_name_H-M	'P1'
_symmetry_Int_Tables_number	1
_symmetry_cell_setting	triclinic
loop_
_symmetry_equiv_pos_as_xyz
  x,y,z
_cell_length_a	17.699077
_cell_length_b	10.654551
_cell_length_c	16.176319
_cell_angle_alpha	89.994994
_cell_angle_beta	89.993140
_cell_angle_gamma	83.883002
loop_
_atom_site_label
_atom_site_type_symbol
_atom_site_fract_x
_atom_site_fract_y
_atom_site_fract_z
O1	O	1.005091	0.158773	-0.068732
O2	O	0.784844	0.179442	-0.068736
O3	O	0.900031	-0.013720	-0.068732
O4	O	0.889904	0.351936	-0.068736
O5	O	0.900015	-0.013733	0.068761
O6	O	0.784828	0.179430	0.068757
O7	O	1.005075	0.158761	0.068761
Cu8	Cu	0.894950	0.169094	0.081313
Cu9	Cu	0.894969	0.169109	-0.081288
O10	O	0.889888	0.351923	0.068757
C11	C	0.756634	0.178697	0.000010
C12	C	0.672602	0.176479	0.000009
C13	C	0.633119	0.175427	0.074957
C14	C	0.554163	0.173323	0.074958
C15	C	0.514691	0.172279	0.000010
C16	C	0.554179	0.173328	-0.074945
C17	C	0.633134	0.175423	-0.074945
C18	C	0.235762	0.164877	-0.074946
C19	C	0.156801	0.162785	-0.074940
C20	C	0.156791	0.162777	0.074956
C21	C	0.235746	0.164872	0.074956
C22	C	0.275228	0.165913	0.000003
C23	C	0.360841	0.168192	0.000003
C24	C	0.429078	0.170009	0.000009
C25	C	0.899279	-0.060511	0.000013
C26	C	0.897054	-0.199915	0.000009
C27	C	0.896018	-0.265394	-0.074939
C28	C	0.893921	-0.396378	-0.074940
C29	C	0.893899	-0.396393	0.074963
C30	C	0.895990	-0.265411	0.074962
C31	C	0.846811	-0.565616	-0.164986
C32	C	0.845789	-0.631102	-0.239938
C33	C	0.890749	-0.598344	-0.306110
C34	C	0.936749	-0.500106	-0.297333
C35	C	0.937778	-0.434628	-0.222379
C36	C	0.892801	-0.467380	-0.156210
C37	C	0.943107	-0.096172	0.165003
C38	C	0.944141	-0.030693	0.239957
C39	C	0.899186	-0.063449	0.306136
C40	C	0.853197	-0.161694	0.297367
C41	C	0.852162	-0.227173	0.222413
C42	C	0.897116	-0.194407	0.156233
C43	C	1.033285	0.159506	0.000013
C44	C	1.117318	0.161724	0.000009
C45	C	0.890640	0.398714	0.000010
C46	C	0.892865	0.538119	0.000008
N47	N	0.894942	0.169083	0.195678
N48	N	0.894983	0.169110	-0.195654
C49	C	0.945963	0.083586	0.238944
C50	C	0.945967	0.083584	0.325491
C51	C	0.894953	0.169088	0.368771
C52	C	0.843927	0.254589	0.325499
C53	C	0.843920	0.254584	0.238954
C54	C	0.843953	0.254613	0.674527
C55	C	0.843965	0.254614	0.761079
C56	C	0.946000	0.083614	0.761065
C57	C	0.945993	0.083608	0.674520
C58	C	0.894964	0.169105	0.631255
C59	C	0.894960	0.169103	0.537411
C60	C	0.894961	0.169096	0.462614
H61	H	0.896882	-0.212072	-0.135971
Cl62	Cl	1.001966	0.092805	0.250985
H63	H	0.987535	0.013988	0.639284
Cl64	Cl	1.010148	-0.023875	0.815459
H65	H	0.979708	-0.069481	0.111114
Cl66	Cl	0.892562	-0.478739	0.169184
Cl67	Cl	1.010107	-0.023901	0.379884
H68	H	0.973365	-0.473453	-0.351216
H69	H	0.802421	0.324244	0.796316
Cl70	Cl	0.504529	0.172023	0.169183
H71	H	0.975232	-0.354646	-0.215232
H72	H	0.124665	0.161935	-0.135976
H73	H	0.802387	0.324203	0.360742
Cl74	Cl	0.779808	0.362096	0.620144
Cl75	Cl	0.889471	-0.680686	-0.400330
H76	H	0.810191	-0.592286	-0.111112
Cl77	Cl	0.779774	0.362067	0.184563
H78	H	0.267899	0.165721	-0.135978
H79	H	0.267880	0.165728	0.135987
Cl80	Cl	0.682733	0.176746	0.169184
Cl81	Cl	0.787959	-0.754593	-0.250972
Cl82	Cl	0.107152	0.161461	0.169186
H83	H	0.522035	0.172469	-0.135969
H84	H	0.665280	0.176282	-0.135976
H85	H	0.814711	-0.307166	0.215275
Cl86	Cl	0.796684	-0.202886	0.380567
Cl87	Cl	0.900497	0.018859	0.400370
Cl88	Cl	1.010102	-0.023905	0.184545
