data_functionalizedCrystal
_audit_creation_method	'MofGen! by Chris Wilmer'
_symmetry_space_group_name_H-M	'P1'
_symmetry_Int_Tables_number	1
_symmetry_cell_setting	triclinic
loop_
_symmetry_equiv_pos_as_xyz
  x,y,z
_cell_length_a	17.000383
_cell_length_b	17.038272
_cell_length_c	9.565339
_cell_angle_alpha	89.999972
_cell_angle_beta	89.993568
_cell_angle_gamma	83.355929
loop_
_atom_site_label
_atom_site_type_symbol
_atom_site_fract_x
_atom_site_fract_y
_atom_site_fract_z
O1	O	1.057999	0.028047	-0.116356
O2	O	1.557999	0.528047	0.383644
O3	O	0.828179	0.056289	-0.116339
O4	O	1.328179	0.556289	0.383661
O5	O	0.941723	-0.071554	-0.116336
O6	O	1.441723	0.428446	0.383664
O7	O	0.944455	0.155890	-0.116359
O8	O	1.444455	0.655890	0.383641
O9	O	0.941714	-0.071546	0.116184
O10	O	1.441714	0.428454	0.616184
O11	O	0.828170	0.056298	0.116181
O12	O	1.328170	0.556298	0.616181
O13	O	1.057990	0.028055	0.116164
O14	O	1.557990	0.528055	0.616164
Zn15	Zn	0.943078	0.042178	0.153090
Zn16	Zn	1.443078	0.542178	0.653090
Zn17	Zn	0.943090	0.042167	-0.153265
Zn18	Zn	1.443090	0.542167	0.346735
O19	O	0.944446	0.155898	0.116161
O20	O	1.444446	0.655898	0.616161
C21	C	0.798624	0.057810	-0.000076
C22	C	1.298624	0.557810	0.499924
C23	C	0.710571	0.062321	-0.000069
C24	C	1.210571	0.562321	0.499931
C25	C	0.212326	0.091445	-0.000124
C26	C	0.712326	0.591445	0.499876
C27	C	0.295061	0.087201	-0.000123
C28	C	0.795061	0.587201	0.499877
C29	C	0.341068	0.013535	-0.000105
C30	C	0.841068	0.513535	0.499895
C31	C	0.304335	-0.055892	-0.000103
C32	C	0.804335	0.444108	0.499897
C33	C	0.221601	-0.051647	-0.000114
C34	C	0.721601	0.448353	0.499886
C35	C	0.591103	-0.002861	-0.000079
C36	C	1.091103	0.497139	0.499921
C37	C	0.673843	-0.007101	-0.000063
C38	C	1.173843	0.492899	0.499937
C39	C	0.664564	0.135993	-0.000086
C40	C	1.164564	0.635993	0.499914
C41	C	0.581828	0.140231	-0.000089
C42	C	1.081828	0.640231	0.499911
C43	C	0.545103	0.070804	-0.000094
C44	C	1.045103	0.570804	0.499906
C45	C	0.425637	0.009195	-0.000099
C46	C	0.925637	0.509195	0.499901
C47	C	0.460535	0.075145	-0.000110
C48	C	0.960535	0.575145	0.499890
C49	C	0.939234	-0.100508	-0.000076
C50	C	1.439234	0.399492	0.499924
C51	C	0.931821	-0.186793	-0.000076
C52	C	1.431821	0.313207	0.499924
C53	C	0.999879	-0.241568	-0.000080
C54	C	1.499879	0.258432	0.499920
C55	C	0.992910	-0.322641	-0.000093
C56	C	1.492910	0.177359	0.499907
C57	C	0.917881	-0.348938	-0.000092
C58	C	1.417881	0.151062	0.499908
C59	C	0.849817	-0.294156	-0.000092
C60	C	1.349817	0.205844	0.499908
C61	C	0.856788	-0.213085	-0.000089
C62	C	1.356788	0.286915	0.499911
C63	C	0.893255	-0.593009	-0.000109
C64	C	1.393255	-0.093009	0.499891
C65	C	0.886289	-0.674088	-0.000107
C66	C	1.386289	-0.174088	0.499893
C67	C	1.029382	-0.702567	-0.000111
C68	C	1.529382	-0.202567	0.499889
C69	C	1.036346	-0.621493	-0.000099
C70	C	1.536346	-0.121493	0.499901
C71	C	0.968283	-0.566718	-0.000107
C72	C	1.468283	-0.066718	0.499893
C73	C	0.910755	-0.431807	-0.000100
C74	C	1.410755	0.068193	0.499900
C75	C	0.975410	-0.483850	-0.000109
C76	C	1.475410	0.016150	0.499891
C77	C	1.087545	0.026534	-0.000102
C78	C	1.587545	0.526534	0.499898
C79	C	1.175598	0.022024	-0.000118
C80	C	1.675598	0.522024	0.499882
C81	C	0.946935	0.184852	-0.000102
C82	C	1.446935	0.684852	0.499898
C83	C	0.954348	0.271137	-0.000111
C84	C	1.454348	0.771137	0.499889
N85	N	0.943076	0.042184	0.362169
N86	N	1.443076	0.542184	0.862169
N87	N	0.943099	0.042154	-0.362345
N88	N	1.443099	0.542154	0.137655
C89	C	0.890547	0.101290	0.453371
C90	C	1.390547	0.601290	0.953371
C91	C	0.963162	0.111470	0.546543
C92	C	1.463162	0.611470	1.046543
C93	C	0.870493	0.032008	0.546553
C94	C	1.370493	0.532008	1.046553
C95	C	1.015729	0.052396	0.453289
C96	C	1.515729	0.552396	0.953289
C97	C	0.923011	-0.027093	0.453291
C98	C	1.423011	0.472907	0.953291
C99	C	0.995675	-0.016947	0.546421
C100	C	1.495675	0.483053	1.046421
H101	H	0.423073	0.135124	-0.000131
H102	H	0.923073	0.635124	0.499869
H103	H	0.846172	0.151314	0.412516
H104	H	1.346172	0.651314	0.912516
H105	H	0.561212	-0.059393	-0.000079
H106	H	1.061212	0.440607	0.499921
H107	H	0.341800	-0.115872	-0.000097
H108	H	0.841800	0.384128	0.499903
H109	H	1.077138	0.061061	0.412495
H110	H	1.577138	0.561061	0.912495
H111	H	0.849666	-0.453227	-0.000096
H112	H	1.349666	0.046773	0.499904
N113	N	0.789178	0.020619	0.600833
N114	N	1.289178	0.520619	1.100833
H115	H	0.749538	0.065312	0.566988
H116	H	1.249538	0.565312	1.066988
H117	H	0.773671	-0.031282	0.565448
H118	H	1.273671	0.468718	1.065448
N119	N	1.054590	-0.083178	0.600227
N120	N	1.554590	0.416822	1.100227
H121	H	1.039920	-0.135401	0.564803
H122	H	1.539920	0.364599	1.064803
H123	H	1.109356	-0.075325	0.566106
H124	H	1.609356	0.424675	1.066106
N125	N	0.532168	0.219663	-0.000080
N126	N	1.032168	0.719663	0.499920
H127	H	0.497637	0.224576	0.086125
H128	H	0.997637	0.724576	0.586125
H129	H	0.568005	0.262983	-0.000125
H130	H	1.068005	0.762983	0.499875
H131	H	0.694475	0.192516	-0.000083
H132	H	1.194475	0.692516	0.499917
H133	H	0.174873	0.151432	-0.000128
H134	H	0.674873	0.651432	0.499872
N135	N	0.985670	0.189050	0.600803
N136	N	1.485670	0.689050	1.100803
H137	H	0.945952	0.233677	0.566965
H138	H	1.445952	0.733677	1.066965
H139	H	0.986028	0.188199	0.706376
H140	H	1.486028	0.688199	1.206376
N141	N	0.900490	-0.104654	0.398990
N142	N	1.400490	0.395346	0.898990
H143	H	0.845615	-0.112279	0.432856
H144	H	1.345615	0.387721	0.932856
H145	H	0.901207	-0.104202	0.293416
H146	H	1.401207	0.395798	0.793416
H147	H	0.324961	0.143731	-0.000141
H148	H	0.824961	0.643731	0.499859
H149	H	0.191699	-0.108177	-0.000112
H150	H	0.691699	0.391823	0.499888
N151	N	0.723468	-0.086558	-0.000042
N152	N	1.223468	0.413442	0.499958
H153	H	0.687649	-0.129896	-0.000050
H154	H	1.187649	0.370104	0.499950
H155	H	0.758009	-0.091436	-0.086232
H156	H	1.258009	0.408564	0.413768
H157	H	1.060976	-0.220165	-0.000072
H158	H	1.560976	0.279835	0.499928
N159	N	0.475256	-0.070260	-0.000064
N160	N	0.975256	0.429740	0.499936
H161	H	0.509800	-0.075217	-0.086253
H162	H	1.009800	0.424783	0.413747
H163	H	0.509730	-0.075146	0.086195
H164	H	1.009730	0.424854	0.586195
H165	H	1.084795	-0.747173	-0.000107
H166	H	1.584795	-0.247173	0.499893
N167	N	1.066315	-0.381721	-0.000089
N168	N	1.566315	0.118279	0.499911
H169	H	1.114902	-0.352760	-0.000076
H170	H	1.614902	0.147240	0.499924
H171	H	1.066529	-0.415977	0.086110
H172	H	1.566529	0.084023	0.586110
N173	N	1.117270	-0.593131	-0.000092
N174	N	1.617270	-0.093131	0.499908
H175	H	1.159329	-0.640134	-0.000096
H176	H	1.659329	-0.140134	0.499904
H177	H	1.123285	-0.560112	-0.086287
H178	H	1.623285	-0.060112	0.413713
H179	H	0.825189	-0.695494	-0.000084
H180	H	1.325189	-0.195494	0.499916
N181	N	0.819847	-0.533938	-0.000112
N182	N	1.319847	-0.033938	0.499888
H183	H	0.771261	-0.562901	-0.000104
H184	H	1.271261	-0.062901	0.499896
H185	H	0.819617	-0.499680	0.086087
H186	H	1.319617	0.000320	0.586087
H187	H	0.788727	-0.315573	-0.000100
H188	H	1.288727	0.184427	0.499900
H189	H	0.801367	-0.168486	-0.000087
H190	H	1.301367	0.331514	0.499913
H191	H	1.036498	-0.462436	-0.000140
H192	H	1.536498	0.037564	0.499860
