data_functionalizedCrystal
_audit_creation_method	'MofGen! by Chris Wilmer'
_symmetry_space_group_name_H-M	'P1'
_symmetry_Int_Tables_number	1
_symmetry_cell_setting	triclinic
loop_
_symmetry_equiv_pos_as_xyz
  x,y,z
_cell_length_a	15.072220
_cell_length_b	14.044220
_cell_length_c	14.044220
_cell_angle_alpha	86.811122
_cell_angle_beta	90.001345
_cell_angle_gamma	89.992119
loop_
_atom_site_label
_atom_site_type_symbol
_atom_site_fract_x
_atom_site_fract_y
_atom_site_fract_z
O1	O	0.073692	-1.277179	0.230162
O2	O	0.073714	-1.000508	0.221856
O3	O	0.073694	-1.134691	0.087674
O4	O	0.073711	-1.142996	0.364345
O5	O	-0.073871	-1.134655	0.087679
O6	O	-0.073851	-1.000472	0.221862
O7	O	-0.073873	-1.277144	0.230167
Zn8	Zn	-0.097291	-1.138802	0.226015
Zn9	Zn	0.097132	-1.138849	0.226009
O10	O	-0.073854	-1.142961	0.364350
C11	C	-0.000066	-0.964868	0.218223
C12	C	-0.000058	-0.858725	0.207379
N13	N	-0.229980	-1.138777	0.226020
C14	C	-0.000088	-1.131037	0.052054
C15	C	-0.000088	-1.120193	-0.054088
C16	C	-0.589182	-1.138847	0.226005
C17	C	-0.551564	-1.066763	0.297518
C18	C	-0.448739	-1.066967	0.297819
C19	C	-0.410978	-1.138811	0.226012
C20	C	-0.448275	-1.240266	0.256192
C21	C	-0.551133	-1.239872	0.256710
C22	C	-0.551286	-1.110345	0.124155
C23	C	-0.448423	-1.108116	0.124630
C24	C	-0.310264	-1.138798	0.226015
C25	C	-0.689895	-1.138867	0.226004
N26	N	0.229821	-1.138881	0.225997
C27	C	-0.000092	-1.312783	0.233800
C28	C	-0.000094	-1.418926	0.244645
C29	C	-0.000076	-0.664388	0.187553
C30	C	-0.000075	-0.613258	0.264467
C31	C	-0.000086	-0.505122	0.253435
C32	C	-0.000066	-0.772534	0.198583
C33	C	-0.000074	-1.100366	-0.248426
C34	C	-0.000078	-1.177281	-0.299556
C35	C	-0.000070	-1.166249	-0.407692
C36	C	-0.000082	-1.111397	-0.140280
C37	C	-0.000069	-1.146614	0.399969
C38	C	-0.000063	-1.157459	0.506112
H39	H	-0.423523	-0.991826	0.278595
C40	C	-0.415228	-1.314939	0.188177
N41	N	-0.390335	-1.371181	0.136946
C42	C	-0.000080	-0.613811	0.087408
N43	N	-0.000079	-0.575706	0.011979
H44	H	-0.576016	-1.295635	0.207128
H45	H	-0.000067	-0.650697	0.338600
H46	H	-0.000066	-1.026239	-0.285863
C47	C	-0.585029	-0.964952	0.271827
N48	N	-0.610247	-0.888267	0.252479
C49	C	-0.586465	-1.092246	0.398804
N50	N	-0.612753	-1.111444	0.475092
H51	H	-0.424121	-1.086044	0.373224
C52	C	-0.413471	-1.272929	0.355817
N53	N	-0.387262	-1.297523	0.430858
C54	C	-0.583530	-1.272046	0.357409
N55	N	-0.607926	-1.296273	0.433261
H56	H	-0.577272	-1.037515	0.097225
C57	C	-0.415497	-1.007231	0.093954
N58	N	-0.390693	-0.931244	0.070852
H59	H	-0.422722	-1.156561	0.068268
H60	H	-0.575612	-1.162815	0.070838
H61	H	-0.000024	-1.251414	-0.262117
