data_functionalizedCrystal
_audit_creation_method	'MofGen! by Chris Wilmer'
_symmetry_space_group_name_H-M	'P1'
_symmetry_Int_Tables_number	1
_symmetry_cell_setting	triclinic
loop_
_symmetry_equiv_pos_as_xyz
  x,y,z
_cell_length_a	14.519731
_cell_length_b	14.519709
_cell_length_c	13.596369
_cell_angle_alpha	90.006934
_cell_angle_beta	89.994584
_cell_angle_gamma	96.315501
loop_
_atom_site_label
_atom_site_type_symbol
_atom_site_fract_x
_atom_site_fract_y
_atom_site_fract_z
O1	O	1.223856	-0.120986	-0.081796
O2	O	1.723856	0.379014	0.418204
O3	O	0.955382	-0.135202	-0.081797
O4	O	1.455382	0.364798	0.418203
O5	O	1.096737	0.006144	-0.081788
O6	O	1.596737	0.506144	0.418212
O7	O	1.082501	-0.262332	-0.081805
O8	O	1.582501	0.237668	0.418195
O9	O	1.096723	0.006151	0.081795
O10	O	1.596723	0.506151	0.581795
O11	O	0.955368	-0.135195	0.081785
O12	O	1.455368	0.364805	0.581785
O13	O	1.223842	-0.120979	0.081787
O14	O	1.723842	0.379021	0.581787
Zn15	Zn	1.089603	-0.128086	0.107759
Zn16	Zn	1.589603	0.371914	0.607759
Zn17	Zn	1.089621	-0.128096	-0.107769
Zn18	Zn	1.589621	0.371904	0.392231
O19	O	1.082487	-0.262325	0.081777
O20	O	1.582487	0.237675	0.581777
C21	C	0.921016	-0.134532	-0.000006
C22	C	1.421016	0.365468	0.499994
C23	C	0.818635	-0.132536	-0.000007
C24	C	1.318635	0.367464	0.499993
C25	C	0.735491	-0.130915	-0.000010
C26	C	1.235491	0.369085	0.499990
C27	C	0.631182	-0.128888	-0.000011
C28	C	1.131182	0.371112	0.499989
C29	C	0.548043	-0.127280	-0.000010
C30	C	1.048043	0.372720	0.499990
C31	C	0.443728	-0.125253	-0.000012
C32	C	0.943728	0.374747	0.499988
C33	C	1.096067	0.040507	0.000004
C34	C	1.596067	0.540507	0.500004
C35	C	1.094079	0.142889	0.000005
C36	C	1.594079	0.642889	0.500005
C37	C	1.258209	-0.121649	-0.000006
C38	C	1.758209	0.378351	0.499994
C39	C	1.360589	-0.123645	-0.000012
C40	C	1.860589	0.376355	0.499988
C41	C	1.083157	-0.296688	-0.000016
C42	C	1.583157	0.203312	0.499984
C43	C	1.085146	-0.399070	-0.000023
C44	C	1.585146	0.100930	0.499977
N45	N	1.089597	-0.128078	0.254851
N46	N	1.589597	0.371922	0.754851
C47	C	1.086759	0.517785	-0.000021
C48	C	1.586759	1.017785	0.499979
C49	C	1.088792	0.413477	-0.000014
C50	C	1.588792	0.913477	0.499986
C51	C	1.090419	0.330340	-0.000007
C52	C	1.590419	0.830340	0.499993
C53	C	1.092452	0.226025	-0.000002
C54	C	1.592452	0.726025	0.499998
N55	N	1.089635	-0.128096	-0.254861
N56	N	1.589635	0.371904	0.245139
C57	C	1.089620	-0.128096	0.656141
C58	C	1.589620	0.371904	1.156141
C59	C	1.089611	-0.128095	0.544490
C60	C	1.589611	0.371905	1.044490
C61	C	1.089609	-0.128088	0.455500
C62	C	1.589609	0.371912	0.955500
C63	C	1.089599	-0.128085	0.343841
C64	C	1.589599	0.371915	0.843841
