data_functionalizedCrystal
_audit_creation_method	'MofGen! by Chris Wilmer'
_symmetry_space_group_name_H-M	'P1'
_symmetry_Int_Tables_number	1
_symmetry_cell_setting	triclinic
loop_
_symmetry_equiv_pos_as_xyz
  x,y,z
_cell_length_a	16.974885
_cell_length_b	15.944493
_cell_length_c	15.455313
_cell_angle_alpha	92.670512
_cell_angle_beta	90.969048
_cell_angle_gamma	83.433512
loop_
_atom_site_label
_atom_site_type_symbol
_atom_site_fract_x
_atom_site_fract_y
_atom_site_fract_z
O1	O	1.049049	0.107103	0.001452
O2	O	0.819617	0.119926	-0.014639
O3	O	0.940623	-0.008749	-0.006159
O4	O	0.928044	0.235778	-0.007027
O5	O	0.933703	-0.001422	0.137618
O6	O	0.812697	0.127254	0.129139
O7	O	1.042130	0.114431	0.145230
Cu8	Cu	0.926782	0.121511	0.150312
Cu9	Cu	0.934965	0.112845	-0.019721
O10	O	0.921124	0.243106	0.136750
C11	C	0.786798	0.122967	0.055191
C12	C	0.699317	0.121101	0.049055
C13	C	0.207306	0.110138	0.006044
C14	C	0.289503	0.111892	0.011821
C15	C	0.326821	0.116769	0.093083
C16	C	0.281938	0.119885	0.168573
C17	C	0.199744	0.118125	0.162796
C18	C	0.572241	0.122456	0.118767
C19	C	0.654441	0.124218	0.124539
C20	C	0.662000	0.116224	-0.032214
C21	C	0.579803	0.114469	-0.037984
C22	C	0.534928	0.117580	0.037506
N23	N	0.410838	0.118565	0.098990
N24	N	0.450913	0.115779	0.031598
C25	C	0.936649	-0.036382	0.065690
C26	C	0.935108	-0.129634	0.065570
C27	C	1.006334	-0.365228	0.070582
C28	C	0.971336	-0.419498	-0.003001
C29	C	0.932252	-0.300362	0.065381
C30	C	0.964496	-0.412250	0.138751
C31	C	0.929498	-0.465277	0.065202
C32	C	0.897276	-0.353407	-0.008259
C33	C	0.890445	-0.346152	0.133557
C34	C	0.855393	-0.400390	0.059953
C35	C	0.933840	-0.205358	0.065483
C36	C	0.927904	-0.560278	0.065093
C37	C	1.074949	0.111390	0.075398
C38	C	1.162429	0.113255	0.081528
C39	C	0.925098	0.270738	0.064899
C40	C	0.926639	0.363991	0.065013
N41	N	0.921032	0.127606	0.269905
N42	N	0.940721	0.106744	-0.139313
C43	C	0.972457	0.072961	0.318902
C44	C	0.968116	0.077577	0.409406
C45	C	0.912353	0.136845	0.450911
C46	C	0.860922	0.191493	0.401906
C47	C	0.865260	0.186871	0.311404
C48	C	0.893628	0.156770	0.721180
C49	C	0.889296	0.161390	0.811689
C50	C	0.996489	0.047473	0.819183
C51	C	1.000826	0.042860	0.728678
C52	C	0.949392	0.097505	0.679682
N53	N	0.907916	0.141567	0.543420
N54	N	0.953826	0.092778	0.587174
H55	H	0.549425	0.110496	-0.104157
H56	H	0.851750	0.201266	0.681294
H57	H	0.326039	0.109348	-0.049647
H58	H	1.009990	0.033080	0.449300
H59	H	1.017869	0.024703	0.285116
C60	C	0.860834	-0.231132	-0.091387
C61	C	0.858983	-0.318738	-0.092225
H62	H	0.837203	-0.209732	-0.143228
H63	H	0.832280	-0.205362	-0.042954
H64	H	0.914279	-0.218891	-0.087426
H65	H	0.805537	-0.330979	-0.096180
H66	H	0.887536	-0.344517	-0.140672
H67	H	0.992914	-0.438054	0.200874
C68	C	0.783749	0.273511	0.795195
C69	C	0.827985	0.226529	0.857312
H70	H	0.745897	0.313717	0.823362
H71	H	0.818227	0.302034	0.762189
H72	H	0.757113	0.236643	0.757914
H73	H	0.854626	0.263396	0.894589
H74	H	0.793502	0.198005	0.890332
H75	H	0.176928	0.106172	-0.060129
H76	H	0.535715	0.124977	0.180237
H77	H	1.046232	-0.005400	0.694888
C78	C	1.041446	-0.096382	0.850284
C79	C	1.053013	-0.012600	0.873042
H80	H	1.076344	-0.133472	0.883532
H81	H	0.988150	-0.104893	0.861443
H82	H	1.052013	-0.107604	0.790443
H83	H	1.042440	-0.001376	0.932881
H84	H	1.106321	-0.004085	0.861889
H85	H	0.815514	0.239746	0.435704
H86	H	0.823383	0.231368	0.271510
C87	C	0.266205	0.127600	0.322935
C88	C	0.322955	0.125241	0.257900
H89	H	0.291529	0.130902	0.378082
H90	H	0.228287	0.175683	0.317003
H91	H	0.240322	0.077805	0.317834
H92	H	0.348835	0.175039	0.262997
H93	H	0.360888	0.077153	0.263835
C94	C	0.684882	0.182097	-0.164660
C95	C	0.711331	0.112801	-0.115187
H96	H	0.715342	0.179983	-0.215883
H97	H	0.630598	0.180343	-0.179729
H98	H	0.690783	0.232961	-0.131922
H99	H	0.705424	0.061936	-0.147923
H100	H	0.765629	0.114547	-0.100120
H101	H	0.684821	0.128196	0.190716
C102	C	0.734163	-0.391593	-0.023134
C103	C	0.769187	-0.421482	0.053858
H104	H	0.680946	-0.404621	-0.026900
H105	H	0.734720	-0.332114	-0.023568
H106	H	0.763064	-0.417785	-0.071151
H107	H	0.740290	-0.395284	0.101875
H108	H	0.768625	-0.480972	0.054299
C109	C	0.111800	0.048639	0.247856
C110	C	0.150413	0.121551	0.245771
H111	H	0.081351	0.050751	0.299087
H112	H	0.077815	0.045489	0.198639
H113	H	0.150051	0.000228	0.247272
H114	H	0.112161	0.169962	0.246349
H115	H	0.184400	0.124710	0.295001
H116	H	1.070150	-0.349454	0.074986
C117	C	1.096447	-0.445245	-0.075276
C118	C	1.017461	-0.462609	-0.080942
H119	H	1.124926	-0.471864	-0.123389
H120	H	1.098181	-0.385924	-0.075478
H121	H	1.119805	-0.466188	-0.023124
H122	H	0.994101	-0.441661	-0.133092
H123	H	1.015724	-0.521943	-0.080749
C124	C	0.879710	-0.332754	0.288402
C125	C	0.844355	-0.303020	0.211506
H126	H	0.851262	-0.306120	0.336528
H127	H	0.878781	-0.392161	0.289210
H128	H	0.933061	-0.320130	0.291623
H129	H	0.791005	-0.315649	0.208281
H130	H	0.845275	-0.243599	0.210697
