data_functionalizedCrystal
_audit_creation_method	'MofGen! by Chris Wilmer'
_symmetry_space_group_name_H-M	'P1'
_symmetry_Int_Tables_number	1
_symmetry_cell_setting	triclinic
loop_
_symmetry_equiv_pos_as_xyz
  x,y,z
_cell_length_a	12.759401
_cell_length_b	12.827892
_cell_length_c	12.759393
_cell_angle_alpha	89.968832
_cell_angle_beta	89.982961
_cell_angle_gamma	90.015553
loop_
_atom_site_label
_atom_site_type_symbol
_atom_site_fract_x
_atom_site_fract_y
_atom_site_fract_z
Zn1	Zn	1.606235	-0.415964	-0.593987
Zn2	Zn	1.606132	-0.590745	-0.418309
Zn3	Zn	1.430542	-0.416019	-0.418326
Zn4	Zn	1.430524	-0.590664	-0.593950
O5	O	1.518358	-0.503348	-0.506143
O6	O	1.753243	-0.439160	-0.570691
O7	O	1.582804	-0.567625	-0.271290
O8	O	1.453899	-0.269776	-0.441650
O9	O	1.753167	-0.567571	-0.441621
O10	O	1.582980	-0.269735	-0.570707
O11	O	1.453798	-0.439255	-0.271303
O12	O	1.283518	-0.439176	-0.441615
O13	O	1.453868	-0.567432	-0.740976
O14	O	1.283505	-0.567486	-0.570645
O15	O	1.582962	-0.439081	-0.741003
O16	O	1.582786	-0.736971	-0.441586
O17	O	1.453768	-0.736911	-0.570629
C18	C	1.245391	-0.503329	-0.506129
C19	C	1.128614	-0.503346	-0.506147
C20	C	1.518292	-0.774858	-0.506124
C21	C	1.518360	-0.891011	-0.506152
C22	C	1.073773	-0.570264	-0.573222
C23	C	0.964049	-0.570277	-0.573234
C24	C	0.964017	-0.436451	-0.439086
C25	C	1.073739	-0.436433	-0.439081
C26	C	1.073790	-0.647531	-0.650668
C27	C	0.964066	-0.647544	-0.650680
C28	C	1.582279	-0.942791	-0.442368
C29	C	1.582350	-1.062841	-0.442395
C30	C	1.792391	-0.503368	-0.506158
C31	C	1.909168	-0.503377	-0.506164
C32	C	1.518425	-0.503241	-0.780176
C33	C	1.518453	-0.503196	-0.896953
C34	C	1.518453	-0.230778	-0.506184
C35	C	1.518493	-0.114625	-0.506202
C36	C	1.451299	-0.569974	-1.061528
C37	C	1.451259	-0.570004	-0.951804
C38	C	1.585684	-0.436345	-0.951832
C39	C	1.585718	-0.436310	-1.061554
C40	C	1.373693	-0.647144	-1.061511
C41	C	1.373653	-0.647175	-0.951786
C42	C	1.518352	-0.503379	-0.233176
C43	C	1.518527	-0.503130	-0.116399
H44	H	1.118387	-0.381935	-0.384469
H45	H	0.919325	-0.381972	-0.384484
C46	C	1.270686	-0.608347	-0.906347
C47	C	1.289384	-0.520029	-0.844687
C48	C	1.194560	-0.484223	-0.802819
H49	H	1.240172	-0.661467	-0.864358
H50	H	1.224196	-0.590827	-0.961771
H51	H	1.335856	-0.537553	-0.789271
H52	H	1.319883	-0.466888	-0.886652
H53	H	1.148070	-0.466703	-0.858242
H54	H	1.164053	-0.537350	-0.760835
H55	H	1.207231	-0.424291	-0.760986
H56	H	1.395466	-0.728107	-0.921988
H57	H	1.103597	-0.625947	-0.732075
C58	C	1.655115	-0.883536	-0.369351
C59	C	1.632350	-0.910127	-0.265365
C60	C	1.699435	-0.855575	-0.198071
H61	H	1.645442	-0.810726	-0.378873
H62	H	1.725743	-0.901320	-0.384709
H63	H	1.561739	-0.892336	-0.250012
H64	H	1.642029	-0.982928	-0.255810
H65	H	1.770063	-0.873359	-0.213429
H66	H	1.689757	-0.782768	-0.207602
H67	H	1.684005	-0.873617	-0.127510
H68	H	1.637070	-1.107370	-0.387784
C69	C	1.118953	-0.750082	-0.611648
C70	C	1.037028	-0.818034	-0.585794
C71	C	1.078593	-0.912516	-0.549854
H72	H	1.160822	-0.737727	-0.551375
H73	H	1.160842	-0.780444	-0.665096
H74	H	0.995157	-0.787678	-0.532350
H75	H	0.995152	-0.830419	-0.646051
H76	H	1.120481	-0.942879	-0.603302
H77	H	1.120462	-0.900151	-0.489584
H78	H	1.023013	-0.958637	-0.532317
H79	H	1.463763	-1.070103	-0.560809
C80	C	1.445631	-0.950530	-0.579058
C81	C	1.505175	-1.013108	-0.646389
C82	C	1.438211	-1.067958	-0.713557
H83	H	1.405495	-0.902597	-0.619172
H84	H	1.399959	-0.993241	-0.538828
H85	H	1.550829	-0.970400	-0.686615
H86	H	1.545308	-1.061060	-0.606304
H87	H	1.392538	-1.110669	-0.673328
H88	H	1.398078	-1.020017	-0.753664
H89	H	1.478600	-1.110431	-0.759243
C90	C	1.658817	-0.363689	-1.120941
C91	C	1.717669	-0.305202	-1.049422
C92	C	1.785030	-0.238300	-1.104090
H93	H	1.618769	-0.318052	-1.163758
H94	H	1.704655	-0.403626	-1.163711
H95	H	1.671837	-0.265269	-1.006670
H96	H	1.757739	-0.350812	-1.006603
H97	H	1.830868	-0.278236	-1.146861
H98	H	1.744973	-0.192670	-1.146906
H99	H	1.824976	-0.198615	-1.055574
C100	C	1.658592	-0.363914	-0.892094
C101	C	1.644189	-0.378263	-0.784259
C102	C	1.711344	-0.311567	-0.729199
H103	H	1.643309	-0.293653	-0.909970
H104	H	1.729208	-0.379214	-0.910006
H105	H	1.573589	-0.362956	-0.766354
H106	H	1.659479	-0.448510	-0.766351
H107	H	1.781960	-0.326867	-0.747111
H108	H	1.696055	-0.241310	-0.747083
H109	H	1.701587	-0.321300	-0.656027
H110	H	0.930067	-0.618655	-0.728031
C111	C	1.265130	-0.618364	-1.101084
C112	C	1.192153	-0.691267	-1.064329
C113	C	1.092136	-0.664781	-1.100750
H114	H	1.264998	-0.618358	-1.175530
H115	H	1.246911	-0.550949	-1.076257
H116	H	1.210367	-0.758664	-1.089162
H117	H	1.192252	-0.691284	-0.989887
H118	H	1.073917	-0.597367	-1.075923
H119	H	1.092015	-0.664775	-1.175195
H120	H	1.042608	-0.714236	-1.075809
C121	C	1.412510	-0.749737	-1.106675
C122	C	1.438201	-0.817735	-1.024750
C123	C	1.473952	-0.912256	-1.066316
H124	H	1.472820	-0.737453	-1.148566
H125	H	1.359009	-0.780025	-1.148541
H126	H	1.491697	-0.787453	-0.982901
H127	H	1.377907	-0.830050	-0.982852
H128	H	1.420451	-0.942544	-1.108183
H129	H	1.534259	-0.899961	-1.108207
H130	H	1.491378	-0.958408	-1.010737
H131	H	0.934270	-0.728459	-0.628749
