data_functionalizedCrystal
_audit_creation_method	'MofGen! by Chris Wilmer'
_symmetry_space_group_name_H-M	'P1'
_symmetry_Int_Tables_number	1
_symmetry_cell_setting	triclinic
loop_
_symmetry_equiv_pos_as_xyz
  x,y,z
_cell_length_a	18.426585
_cell_length_b	14.560438
_cell_length_c	14.560438
_cell_angle_alpha	60.005799
_cell_angle_beta	89.999322
_cell_angle_gamma	60.000820
loop_
_atom_site_label
_atom_site_type_symbol
_atom_site_fract_x
_atom_site_fract_y
_atom_site_fract_z
Zr1	Zr	0.699142	1.005231	-0.120401
O2	O	0.583272	1.196812	-0.267018
O3	O	0.734659	0.813647	-0.075475
O4	O	0.734665	1.005235	-0.267051
O5	O	0.583266	1.005221	0.075699
O6	O	0.854090	1.005242	-0.267055
O7	O	0.583266	1.005224	-0.075442
O8	O	0.854080	0.662526	0.075640
O9	O	0.583277	1.347938	-0.266996
O10	O	0.838937	0.892454	-0.056293
O11	O	0.749811	0.892447	0.056504
O12	O	0.749818	1.118018	-0.169052
O13	O	0.660692	1.118011	-0.056255
Zr14	Zr	0.889613	1.005237	0.120645
Zr15	Zr	0.889613	1.005241	-0.120407
Zr16	Zr	0.699143	1.005227	0.120651
Zr17	Zr	0.699150	1.246259	-0.120366
Zr18	Zr	0.889605	0.764209	0.120610
O19	O	0.854097	1.196821	0.075718
O20	O	0.854097	1.196827	-0.267027
O21	O	0.583272	1.196806	0.075727
O22	O	1.005483	0.813656	0.267262
O23	O	1.005483	0.813662	-0.075483
O24	O	0.734659	0.813641	0.267270
O25	O	1.005489	1.005247	-0.075455
O26	O	0.854091	1.005233	0.267295
O27	O	0.734665	1.005226	0.267298
O28	O	1.005489	1.005244	0.075685
O29	O	0.734675	1.347946	-0.267001
O30	O	0.854080	0.662522	0.267244
O31	O	1.005479	0.662531	0.267240
O32	O	1.005479	0.662534	0.075635
O33	O	0.583277	1.347934	-0.075392
O34	O	0.734676	1.347942	-0.075396
O35	O	0.838937	0.892450	0.169296
O36	O	0.928063	0.892457	0.056498
O37	O	0.838944	1.118021	-0.056260
O38	O	0.749818	1.118014	0.056537
C39	C	0.794368	0.703745	0.000078
C40	C	0.794365	0.601423	0.000063
C41	C	0.728577	0.636547	-0.083157
C42	C	0.728592	0.540358	-0.083101
C43	C	0.860185	0.373921	0.083405
C44	C	0.860173	0.470109	0.083343
C45	C	0.652601	0.732638	-0.179285
C46	C	0.652615	0.636449	-0.179229
C47	C	0.556128	1.005221	0.000129
C48	C	0.475268	1.005217	0.000132
C49	C	0.179154	1.005256	0.000112
C50	C	0.261540	1.005251	0.000115
C51	C	0.327208	1.005237	0.000121
C52	C	0.409600	1.005231	0.000126
C53	C	1.032627	1.005247	0.000114
C54	C	1.113487	1.005251	0.000112
C55	C	0.794377	1.005239	-0.301398
C56	C	0.794377	1.005241	-0.403731
C57	C	0.794387	1.306723	0.000166
C58	C	0.794390	1.409045	0.000181
C59	C	0.747855	1.122981	-0.510666
C60	C	0.747857	1.122974	-0.606815
C61	C	0.840907	0.887478	-0.489079
C62	C	0.840909	0.887486	-0.392933
C63	C	0.694130	1.258943	-0.578640
C64	C	0.694132	1.258936	-0.674789
C65	C	0.794378	1.005229	0.301641
C66	C	0.794378	1.005227	0.403974
C67	C	1.032618	0.703758	0.000070
C68	C	1.113474	0.601440	0.000052
C69	C	0.794368	0.703740	0.301597
C70	C	0.794365	0.601416	0.403915
C71	C	1.032618	0.703753	0.301589
C72	C	1.113475	0.601433	0.403905
C73	C	0.556137	1.306715	-0.301346
C74	C	0.475281	1.409035	-0.403661
C75	C	0.556138	1.306710	0.000174
C76	C	0.475281	1.409028	0.000191
C77	C	0.794387	1.306728	-0.301353
C78	C	0.794390	1.409052	-0.403671
C79	C	1.104922	0.553389	-0.058842
C80	C	1.180888	0.457263	-0.058881
C81	C	1.265405	0.409184	-0.000019
C82	C	1.273956	0.457245	0.058878
C83	C	1.197990	0.553375	0.058910
C84	C	1.197977	0.553386	0.393074
C85	C	1.273957	0.457259	0.489201
C86	C	1.265434	0.409174	0.596158
C87	C	1.180923	0.457230	0.606986
C88	C	1.104944	0.553362	0.510860
C89	C	0.390779	1.457094	-0.392830
C90	C	0.314798	1.553251	-0.488957
C91	C	0.323322	1.601341	-0.595914
C92	C	0.407833	1.553278	-0.606743
C93	C	0.483811	1.457129	-0.510617
C94	C	0.483833	1.457090	0.059076
C95	C	0.407867	1.553242	0.059088
C96	C	0.323350	1.601324	0.000222
C97	C	0.314800	1.553259	-0.058670
C98	C	0.390765	1.457115	-0.058688
C99	C	0.840888	0.553340	0.510860
C100	C	0.840878	0.457201	0.606995
C101	C	0.747821	0.457217	0.489225
C102	C	0.747827	0.553361	0.393093
C103	C	0.894617	0.553326	0.578855
C104	C	0.894607	0.457187	0.674990
H105	H	0.665889	0.636417	-0.255687
N106	N	0.228458	1.602398	-0.118794
N107	N	0.160647	1.688236	-0.118755
H108	H	0.099666	1.722941	-0.161214
N109	N	0.888445	0.767214	-0.283704
N110	N	0.970473	0.688380	-0.255036
H111	H	1.004047	0.603431	-0.177892
H112	H	0.913751	0.441499	0.151099
H113	H	0.965741	0.367174	0.727173
H114	H	0.383789	1.417986	-0.106636
H115	H	0.592177	0.792307	-0.162487
N116	N	0.382075	1.407966	-0.283576
N117	N	0.414077	1.289938	-0.216802
H118	H	0.407925	1.255248	-0.139642
H119	H	0.963400	0.517199	0.570119
H120	H	1.036111	0.592534	-0.106789
N121	N	1.360284	0.408140	0.119006
N122	N	1.382974	0.483236	0.094069
H123	H	1.443946	0.448549	0.136539
H124	H	0.552644	1.417948	0.107019
N125	N	0.738754	1.311735	-0.738406
N126	N	0.818847	1.259950	-0.694265
H127	H	0.850420	1.297188	-0.739093
H128	H	0.659141	0.795614	-0.261417
H129	H	0.414846	1.592360	0.107049
N130	N	0.731642	1.324399	-0.578621
N131	N	0.799602	1.265388	-0.499766
H132	H	0.826098	1.311608	-0.499745
H133	H	0.245993	1.592367	-0.480118
H134	H	0.261502	1.679610	0.000246
N135	N	0.571220	0.650019	-0.168805
N136	N	0.513865	0.738454	-0.161498
H137	H	0.456381	0.748039	-0.154137
H138	H	0.913763	0.266997	0.151210
N139	N	0.700246	0.602524	0.283859
N140	N	0.658672	0.559640	0.274218
H141	H	0.625049	0.594381	0.197069
H142	H	0.864739	0.643328	0.578887
N143	N	1.172126	0.408197	-0.119051
N144	N	1.096656	0.451132	-0.171587
H145	H	1.090465	0.416482	-0.214082
H146	H	0.709930	0.418080	0.480428
N147	N	0.245697	1.699557	-0.694087
N148	N	0.170256	1.742446	-0.684388
H149	H	0.115430	1.811810	-0.753719
N150	N	1.343007	0.310971	-0.000027
N151	N	1.418467	0.268038	0.052537
H152	H	1.473272	0.198671	0.052533
H153	H	0.414762	1.592445	-0.693838
H154	H	0.878791	0.791607	-0.480302
H155	H	1.204966	0.592486	0.106875
N156	N	0.570120	1.408057	-0.521710
N157	N	0.577707	1.451012	-0.617218
H158	H	0.638662	1.416361	-0.625062
H159	H	1.204933	0.592522	0.305993
N160	N	0.850125	0.502522	0.738860
N161	N	0.816825	0.616865	0.706303
H162	H	0.785401	0.648887	0.751405
H163	H	1.036142	0.592470	0.519695
N164	N	0.604892	1.324414	-0.740249
N165	N	0.542017	1.370542	-0.707516
H166	H	0.478993	1.416783	-0.753745
N167	N	1.172240	0.408087	0.716252
N168	N	1.240092	0.322246	0.802059
H169	H	1.233964	0.287527	0.879232
H170	H	1.342763	0.418141	0.480364
H171	H	1.327308	0.330897	0.674420
N172	N	0.607857	1.311845	-0.567640
N173	N	0.595433	1.243751	-0.482866
H174	H	0.534503	1.281109	-0.475090
