data_functionalizedCrystal
_audit_creation_method	'MofGen! by Chris Wilmer'
_symmetry_space_group_name_H-M	'P1'
_symmetry_Int_Tables_number	1
_symmetry_cell_setting	triclinic
loop_
_symmetry_equiv_pos_as_xyz
  x,y,z
_cell_length_a	12.759401
_cell_length_b	21.295417
_cell_length_c	12.759393
_cell_angle_alpha	89.962185
_cell_angle_beta	89.981727
_cell_angle_gamma	90.029551
loop_
_atom_site_label
_atom_site_type_symbol
_atom_site_fract_x
_atom_site_fract_y
_atom_site_fract_z
Zn1	Zn	1.606137	-0.250597	-0.593928
Zn2	Zn	1.605984	-0.355878	-0.418225
Zn3	Zn	1.430440	-0.250625	-0.418267
Zn4	Zn	1.430379	-0.355830	-0.593866
O5	O	1.518235	-0.303232	-0.506071
O6	O	1.753138	-0.264571	-0.570629
O7	O	1.582659	-0.341948	-0.271209
O8	O	1.453836	-0.162532	-0.441612
O9	O	1.753025	-0.341920	-0.441540
O10	O	1.582920	-0.162511	-0.570670
O11	O	1.453687	-0.264619	-0.271240
O12	O	1.283411	-0.264572	-0.441552
O13	O	1.453732	-0.341839	-0.740895
O14	O	1.283366	-0.341866	-0.570564
O15	O	1.582861	-0.264524	-0.740941
O16	O	1.582600	-0.443961	-0.441480
O17	O	1.453584	-0.443926	-0.570523
C18	C	1.245268	-0.303218	-0.506057
C19	C	1.128491	-0.303226	-0.506075
C20	C	1.073680	-0.263026	-0.573396
C21	C	0.963956	-0.263038	-0.573402
C22	C	0.963863	-0.343456	-0.438765
C23	C	1.073585	-0.343440	-0.438754
C24	C	1.128586	-0.222812	-0.640717
C25	C	1.073776	-0.182610	-0.708044
C26	C	0.964052	-0.182622	-0.708050
C27	C	0.909138	-0.222837	-0.640730
C28	C	1.518097	-0.466784	-0.506013
C29	C	1.518134	-0.536752	-0.506023
C30	C	1.585373	-0.569616	-0.438900
C31	C	1.585422	-0.635359	-0.438923
C32	C	1.518214	-0.668235	-0.506060
C33	C	1.450971	-0.635363	-0.573196
C34	C	1.450931	-0.569621	-0.573178
N35	N	1.426307	-0.771499	-0.514064
N36	N	1.426348	-0.833950	-0.514075
C37	C	1.518332	-0.866309	-0.506120
N38	N	1.610275	-0.833858	-0.498132
N39	N	1.610233	-0.771400	-0.498116
C40	C	1.518250	-0.739520	-0.506087
C41	C	1.585629	-0.970459	-0.439018
C42	C	1.585680	-1.036203	-0.439049
C43	C	1.451220	-1.036205	-0.573317
C44	C	1.451178	-0.970463	-0.573291
C45	C	1.518381	-0.937594	-0.506136
C46	C	1.792268	-0.303248	-0.506087
C47	C	1.909045	-0.303254	-0.506093
C48	C	1.518307	-0.303173	-0.780105
C49	C	1.518338	-0.303147	-0.896881
C50	C	1.518402	-0.139042	-0.506153
C51	C	1.518473	-0.069074	-0.506187
C52	C	1.585532	-0.343367	-1.061456
C53	C	1.585500	-0.343395	-0.951732
C54	C	1.451195	-0.262873	-0.951761
C55	C	1.451222	-0.262848	-1.061483
C56	C	1.652706	-0.383613	-1.116301
C57	C	1.719847	-0.423888	-1.061429
C58	C	1.719816	-0.423917	-0.951705
C59	C	1.652643	-0.383670	-0.896853
C60	C	1.518223	-0.303246	-0.233104
C61	C	1.518396	-0.303094	-0.116328
H62	H	1.640096	-0.542856	-0.384221
Br63	Br	0.889338	-0.398031	-0.347410
H64	H	1.640179	-0.662122	-0.384263
H65	H	0.819794	-0.222830	-0.640719
H66	H	1.774533	-0.456659	-1.106098
Br67	Br	1.676827	-0.925847	-0.347879
H68	H	1.640440	-1.062960	-0.384391
Br69	Br	0.889668	-0.128056	-0.799409
H70	H	1.396503	-1.062972	-0.627985
Br71	Br	1.359919	-0.925858	-0.664391
Br72	Br	1.277497	-0.222798	-0.640719
H73	H	1.118213	-0.376175	-0.383936
Br74	Br	1.359673	-0.525017	-0.664284
H75	H	1.652741	-0.383593	-1.205644
Br76	Br	1.359768	-0.679978	-0.664319
H77	H	1.396507	-0.230105	-0.907091
H78	H	1.774480	-0.456714	-0.907032
H79	H	1.396558	-0.230053	-1.106160
H80	H	1.652610	-0.383703	-0.807508
Br81	Br	1.148298	-0.128028	-0.799390
