data_functionalizedCrystal
_audit_creation_method	'MofGen! by Chris Wilmer'
_symmetry_space_group_name_H-M	'P1'
_symmetry_Int_Tables_number	1
_symmetry_cell_setting	triclinic
loop_
_symmetry_equiv_pos_as_xyz
  x,y,z
_cell_length_a	14.519709
_cell_length_b	16.109301
_cell_length_c	14.586319
_cell_angle_alpha	89.994786
_cell_angle_beta	90.002108
_cell_angle_gamma	83.570813
loop_
_atom_site_label
_atom_site_type_symbol
_atom_site_fract_x
_atom_site_fract_y
_atom_site_fract_z
O1	O	1.223634	0.108984	-0.076124
O2	O	0.955130	0.121819	-0.076152
O3	O	1.096758	-0.005617	-0.076128
O4	O	1.082006	0.236420	-0.076148
O5	O	1.096748	-0.005618	0.076353
O6	O	0.955120	0.121817	0.076328
O7	O	1.223624	0.108983	0.076357
Cu8	Cu	1.089371	0.115400	0.090265
Cu9	Cu	1.089383	0.115402	-0.090061
O10	O	1.081996	0.236418	0.076333
C11	C	1.096156	-0.036593	0.000113
C12	C	1.094364	-0.128892	0.000114
C13	C	0.920766	0.121220	0.000085
C14	C	0.818389	0.119427	0.000074
C15	C	1.174238	-0.351026	0.000108
C16	C	1.172547	-0.437749	0.000100
C17	C	1.004510	-0.418166	0.000086
C18	C	1.006202	-0.331444	0.000087
C19	C	1.091068	-0.297877	0.000103
C20	C	1.087686	-0.471322	0.000094
C21	C	1.085852	-0.565351	0.000085
C22	C	1.092902	-0.203842	0.000109
C23	C	0.443507	0.112829	0.000116
C24	C	0.547811	0.114661	0.000104
C25	C	0.630945	0.116128	0.000094
C26	C	0.735256	0.117961	0.000084
C27	C	1.257988	0.109582	0.000118
C28	C	1.360365	0.111374	0.000122
C29	C	1.082599	0.267395	0.000090
C30	C	1.084390	0.359693	0.000083
N31	N	1.089370	0.115397	0.217097
N32	N	1.089392	0.115397	-0.216893
C33	C	1.152104	0.058988	0.452114
C34	C	1.152106	0.058986	0.548096
C35	C	1.026651	0.171809	0.548083
C36	C	1.026645	0.171807	0.452104
C37	C	1.089376	0.115397	0.404122
C38	C	1.089385	0.115398	0.596083
C39	C	1.089388	0.115396	0.700150
C40	C	1.089373	0.115398	0.300048
H41	H	1.243341	-0.323699	0.000119
H42	H	1.240272	-0.481020	0.000102
C43	C	0.905130	-0.504333	-0.078302
C44	C	0.911230	-0.455070	0.000079
H45	H	0.847544	-0.527118	-0.078300
H46	H	0.909277	-0.470904	-0.131466
H47	H	0.954427	-0.548396	-0.078289
H48	H	0.861936	-0.411003	0.000062
H49	H	0.907074	-0.488500	0.053257
H50	H	0.975560	0.217742	0.413026
C51	C	0.910621	-0.222554	-0.078309
C52	C	0.914773	-0.273017	0.000079
H53	H	0.854177	-0.186488	-0.078319
H54	H	0.961399	-0.190155	-0.078298
H55	H	0.913457	-0.256799	-0.131475
H56	H	0.911944	-0.238772	0.053244
H57	H	0.863982	-0.305419	0.000075
H58	H	0.975578	0.217738	0.587160
C59	C	1.276102	-0.052539	0.461770
C60	C	1.221048	-0.003024	0.399372
H61	H	1.318660	-0.090828	0.429209
H62	H	1.309265	-0.017866	0.499197
H63	H	1.237714	-0.082516	0.499214
H64	H	1.259435	0.026957	0.361932
H65	H	1.187882	-0.037702	0.361929
H66	H	1.203183	0.013052	0.587168
