data_functionalizedCrystal
_audit_creation_method	'MofGen! by Chris Wilmer'
_symmetry_space_group_name_H-M	'P1'
_symmetry_Int_Tables_number	1
_symmetry_cell_setting	triclinic
loop_
_symmetry_equiv_pos_as_xyz
  x,y,z
_cell_length_a	13.635800
_cell_length_b	7.190339
_cell_length_c	11.102300
_cell_angle_alpha	87.944301
_cell_angle_beta	108.605850
_cell_angle_gamma	119.388276
loop_
_atom_site_label
_atom_site_type_symbol
_atom_site_fract_x
_atom_site_fract_y
_atom_site_fract_z
V1	V	2.086214	0.295094	0.395358
O2	O	2.033818	-0.014181	0.388756
O3	O	2.104528	0.585123	0.391765
O4	O	2.074136	0.290555	0.568193
O5	O	2.064421	0.282426	0.211107
V6	V	2.320948	0.258101	0.373428
O7	O	2.232258	0.376241	0.443463
O8	O	2.400003	0.176954	0.325323
O9	O	2.191030	-0.031927	0.377021
O10	O	2.432042	0.567377	0.380030
O11	O	2.401439	0.270769	0.557679
O12	O	2.221423	0.262641	0.200593
V13	V	2.586214	0.295094	0.395358
O14	O	2.533818	-0.014181	0.388756
O15	O	2.604528	0.585123	0.391765
O16	O	2.574136	0.290555	0.568193
O17	O	2.564421	0.282426	0.211107
V18	V	2.820948	0.258101	0.373428
O19	O	2.732258	0.376241	0.443463
O20	O	2.900003	0.176954	0.325323
O21	O	2.691030	-0.031927	0.377021
O22	O	2.932042	0.567377	0.380030
O23	O	2.901439	0.270769	0.557679
O24	O	2.721423	0.262641	0.200593
C25	C	2.036988	0.655828	0.385305
C26	C	2.093734	0.897387	0.383488
C27	C	2.536988	0.655828	0.385305
C28	C	2.593734	0.897387	0.383488
C29	C	1.998210	0.280072	0.610348
C30	C	2.029258	0.278280	0.751636
C31	C	2.129021	0.273130	0.158431
C32	C	2.087590	0.274912	0.017142
C33	C	2.498210	0.280072	0.610348
C34	C	2.529258	0.278280	0.751636
C35	C	2.629021	0.273130	0.158431
C36	C	2.587590	0.274912	0.017142
C37	C	2.136949	0.288090	0.824455
C38	C	2.166114	0.286398	0.957209
C39	C	1.979888	0.265095	0.944313
C40	C	1.950721	0.266771	0.811560
C41	C	2.636949	0.288090	0.824455
C42	C	2.666114	0.286398	0.957209
C43	C	2.479888	0.265095	0.944313
C44	C	2.450721	0.266771	0.811560
H45	H	2.200899	0.297457	0.775669
Cl46	Cl	2.301502	0.298733	1.048747
H47	H	1.863018	0.258766	0.752267
Cl48	Cl	1.881172	0.250656	1.019659
H49	H	2.700899	0.297457	0.775669
Cl50	Cl	2.801502	0.298733	1.048747
Cl51	Cl	2.381172	0.250656	1.019659
Cl52	Cl	2.315325	0.254432	0.720009
