data_functionalizedCrystal
_audit_creation_method	'MofGen! by Chris Wilmer'
_symmetry_space_group_name_H-M	'P1'
_symmetry_Int_Tables_number	1
_symmetry_cell_setting	triclinic
loop_
_symmetry_equiv_pos_as_xyz
  x,y,z
_cell_length_a	16.956985
_cell_length_b	22.610064
_cell_length_c	16.974813
_cell_angle_alpha	86.349505
_cell_angle_beta	79.731757
_cell_angle_gamma	89.990637
loop_
_atom_site_label
_atom_site_type_symbol
_atom_site_fract_x
_atom_site_fract_y
_atom_site_fract_z
O1	O	-1.058010	0.050772	-0.032749
O2	O	-0.724676	0.384105	0.300584
O3	O	-0.391343	0.717439	0.633917
O4	O	-0.825822	0.052097	-0.060512
O5	O	-0.492488	0.385431	0.272821
O6	O	-0.159155	0.718764	0.606154
O7	O	-0.948388	0.045903	0.068894
O8	O	-0.615054	0.379236	0.402228
O9	O	-0.281721	0.712569	0.735561
O10	O	-0.935443	0.056967	-0.162156
O11	O	-0.602110	0.390300	0.171177
O12	O	-0.268777	0.723634	0.504510
O13	O	-0.948366	-0.052466	0.068875
O14	O	-0.615033	0.280868	0.402209
O15	O	-0.281699	0.614201	0.735542
O16	O	-0.825800	-0.046271	-0.060531
O17	O	-0.492467	0.287062	0.272802
O18	O	-0.159133	0.620396	0.606135
O19	O	-1.057988	-0.047596	-0.032769
O20	O	-0.724655	0.285737	0.300565
O21	O	-0.391321	0.619071	0.633898
Zn22	Zn	-0.941890	-0.062552	-0.046653
Zn23	Zn	-0.608557	0.270782	0.286680
Zn24	Zn	-0.275224	0.604115	0.620014
Zn25	Zn	-0.941919	0.067053	-0.046628
Zn26	Zn	-0.608586	0.400386	0.286705
Zn27	Zn	-0.275252	0.733720	0.620039
O28	O	-0.935422	-0.041401	-0.162175
O29	O	-0.602088	0.291932	0.171158
O30	O	-0.268755	0.625265	0.504491
C31	C	-0.796101	0.002981	-0.061944
C32	C	-0.462768	0.336314	0.271390
C33	C	-0.129434	0.669648	0.604723
C34	C	-0.707576	0.003182	-0.066170
C35	C	-0.374242	0.336515	0.267163
C36	C	-0.040909	0.669848	0.600496
C37	C	-0.675568	-0.000204	0.004497
C38	C	-0.342235	0.333129	0.337831
C39	C	-0.008902	0.666463	0.671164
C40	C	-0.592389	-0.000011	0.000521
C41	C	-0.259056	0.333323	0.333855
C42	C	0.074278	0.666656	0.667188
C43	C	-0.541218	0.003564	-0.074124
C44	C	-0.207885	0.336897	0.259210
C45	C	0.125449	0.670231	0.592543
C46	C	-0.573230	0.006952	-0.144797
C47	C	-0.239897	0.340285	0.188537
C48	C	0.093436	0.673619	0.521870
C49	C	-0.656409	0.006763	-0.140820
C50	C	-0.323075	0.340096	0.192514
C51	C	0.010258	0.673430	0.525847
C52	C	-0.291424	0.004507	-0.093809
C53	C	0.041909	0.337840	0.239525
C54	C	0.375243	0.671173	0.572858
C55	C	-0.208241	0.004694	-0.097780
C56	C	0.125093	0.338027	0.235553
C57	C	0.458426	0.671360	0.568886
C58	C	-0.227405	-0.002268	0.047538
C59	C	0.105928	0.331066	0.380871
C60	C	0.439262	0.664399	0.714205
C61	C	-0.310584	-0.002460	0.051508
C62	C	0.022750	0.330873	0.384842
C63	C	0.356083	0.664207	0.718175
C64	C	-0.342589	0.000931	-0.019165
C65	C	-0.009256	0.334264	0.314169
C66	C	0.324078	0.667598	0.647502
N67	N	-0.456195	0.003760	-0.078190
N68	N	-0.122862	0.337093	0.255144
N69	N	0.210472	0.670427	0.588477
N70	N	-0.427611	0.000739	-0.015098
N71	N	-0.094277	0.334073	0.318236
N72	N	0.239056	0.667406	0.651569
N73	N	-0.941877	-0.151003	-0.046669
N74	N	-0.608543	0.182330	0.286664
N75	N	-0.275210	0.515663	0.619997
C76	C	-0.996194	-0.562389	0.010665
C77	C	-0.662860	-0.229056	0.343999
C78	C	-0.329527	0.104277	0.677332
C79	C	-0.996198	-0.624310	0.010671
C80	C	-0.662864	-0.290976	0.344005
C81	C	-0.329531	0.042357	0.677338
O82	O	-1.042346	-0.658661	0.059405
O83	O	-0.709013	-0.325328	0.392739
O84	O	-0.375679	0.008005	0.726072
N85	N	-0.941918	-0.652543	-0.046612
N86	N	-0.608585	-0.319210	0.286722
N87	N	-0.275252	0.014123	0.620055
C88	C	-0.887626	-0.618853	-0.103899
C89	C	-0.554293	-0.285520	0.229434
C90	C	-0.220959	0.047813	0.562768
O91	O	-0.841457	-0.648554	-0.152622
O92	O	-0.508124	-0.315221	0.180712
O93	O	-0.174790	0.018112	0.514045
C94	C	-0.887619	-0.556935	-0.103901
C95	C	-0.554285	-0.223601	0.229432
C96	C	-0.220952	0.109732	0.562766
C97	C	-0.941907	-0.528704	-0.046619
C98	C	-0.608574	-0.195371	0.286714
C99	C	-0.275240	0.137963	0.620047
C100	C	-1.050477	-0.534159	0.067943
C101	C	-0.717144	-0.200825	0.401276
C102	C	-0.383810	0.132508	0.734610
C103	C	-1.050474	-0.472243	0.067936
C104	C	-0.717140	-0.138909	0.401269
C105	C	-0.383807	0.194424	0.734602
C106	C	-0.996187	-0.438557	0.010651
C107	C	-0.662854	-0.105224	0.343984
C108	C	-0.329520	0.228109	0.677318
C109	C	-0.941904	-0.466788	-0.046626
C110	C	-0.608570	-0.133455	0.286707
C111	C	-0.275237	0.199879	0.620040
C112	C	-0.833323	-0.523246	-0.161184
C113	C	-0.499990	-0.189913	0.172149
C114	C	-0.166656	0.143420	0.505482
C115	C	-0.833320	-0.461323	-0.161181
C116	C	-0.499987	-0.127990	0.172153
C117	C	-0.166653	0.205343	0.505486
C118	C	-0.887608	-0.433093	-0.103899
C119	C	-0.554275	-0.099760	0.229434
C120	C	-0.220942	0.233574	0.562768
C121	C	-0.887614	-0.371187	-0.103918
C122	C	-0.554280	-0.037854	0.229415
C123	C	-0.220947	0.295480	0.562748
N124	N	-0.941893	-0.342953	-0.046635
N125	N	-0.608560	-0.009620	0.286698
N126	N	-0.275227	0.323713	0.620031
C127	C	-0.996180	-0.376639	0.010649
C128	C	-0.662847	-0.043305	0.343983
C129	C	-0.329513	0.290028	0.677316
C130	C	-0.887644	-0.748888	-0.103890
C131	C	-0.554311	-0.415554	0.229443
C132	C	-0.220978	-0.082221	0.562777
C133	C	-0.887655	-0.810805	-0.103893
C134	C	-0.554321	-0.477472	0.229441
C135	C	-0.220988	-0.144138	0.562774
C136	C	-0.996226	-0.816257	0.010679
C137	C	-0.662892	-0.482924	0.344012
C138	C	-0.329559	-0.149590	0.677346
C139	C	-0.996219	-0.754338	0.010677
C140	C	-0.662885	-0.421005	0.344011
C141	C	-0.329552	-0.087671	0.677344
C142	C	-0.941924	-0.720654	-0.046607
C143	C	-0.608590	-0.387321	0.286726
C144	C	-0.275257	-0.053987	0.620059
C145	C	-0.996169	-0.246610	0.010630
C146	C	-0.662836	0.086723	0.343963
C147	C	-0.329503	0.420056	0.677296
C148	C	-0.996163	-0.184688	0.010615
C149	C	-0.662830	0.148645	0.343949
C150	C	-0.329497	0.481978	0.677282
C151	C	-0.887590	-0.179242	-0.103953
C152	C	-0.554257	0.154091	0.229380
C153	C	-0.220923	0.487424	0.562713
C154	C	-0.887598	-0.241158	-0.103942
C155	C	-0.554265	0.092175	0.229391
C156	C	-0.220932	0.425508	0.562725
C157	C	-0.941891	-0.274841	-0.046644
C158	C	-0.608558	0.058492	0.286689
C159	C	-0.275224	0.391825	0.620023
O160	O	-0.841487	-0.336797	-0.152625
O161	O	-0.508154	-0.003464	0.180708
O162	O	-0.174820	0.329869	0.514041
O163	O	-1.042334	-0.346930	0.059370
O164	O	-0.709001	-0.013597	0.392703
O165	O	-0.375667	0.319736	0.726037
C166	C	-0.087708	0.001518	-0.031338
C167	C	0.245625	0.334851	0.301995
C168	C	0.578958	0.668184	0.635329
C169	C	-0.176233	0.001308	-0.027113
C170	C	0.157100	0.334641	0.306221
C171	C	0.490433	0.667975	0.639554
C172	C	-0.947884	-0.004689	0.098311
C173	C	-0.614551	0.328644	0.431644
C174	C	-0.281217	0.661977	0.764977
C175	C	-0.946407	-0.008885	0.185990
C176	C	-0.613073	0.324449	0.519324
C177	C	-0.279740	0.657782	0.852657
N178	N	-0.941939	0.155504	-0.046605
N179	N	-0.608606	0.488838	0.286728
N180	N	-0.275272	0.822171	0.620062
C181	C	-0.935925	0.009192	-0.191592
C182	C	-0.602592	0.342525	0.141742
C183	C	-0.269259	0.675859	0.475075
C184	C	-0.937403	0.013391	-0.279271
C185	C	-0.604069	0.346724	0.054062
C186	C	-0.270736	0.680058	0.387396
C187	C	-0.945726	0.042765	0.227188
C188	C	-0.612393	0.376098	0.560522
C189	C	-0.279059	0.709431	0.893855
C190	C	-0.944333	0.038821	0.309571
C191	C	-0.610999	0.372155	0.642905
C192	C	-0.277666	0.705488	0.976238
C193	C	-0.943626	-0.016772	0.350756
C194	C	-0.610292	0.316561	0.684089
C195	C	-0.276959	0.649894	1.017423
C196	C	-0.944304	-0.068425	0.309552
C197	C	-0.610970	0.264908	0.642885
C198	C	-0.277637	0.598241	0.976218
C199	C	-0.945691	-0.064481	0.227169
C200	C	-0.612358	0.268852	0.560502
C201	C	-0.279025	0.602185	0.893836
C202	C	-0.939469	-0.034318	0.597142
C203	C	-0.606135	0.299015	0.930475
C204	C	-0.272802	0.632349	1.263809
C205	C	-0.938083	-0.038258	0.679531
C206	C	-0.604750	0.295075	1.012864
C207	C	-0.271417	0.628408	1.346197
C208	C	-0.938111	0.068989	0.679544
C209	C	-0.604778	0.402322	1.012878
C210	C	-0.271444	0.735655	1.346211
C211	C	-0.939503	0.072928	0.597161
C212	C	-0.606170	0.406261	0.930494
C213	C	-0.272837	0.739595	1.263828
C214	C	-0.940177	0.021275	0.555963
C215	C	-0.606844	0.354608	0.889297
C216	C	-0.273511	0.687942	1.222630
N217	N	-0.942204	-0.020804	0.434965
N218	N	-0.608870	0.312529	0.768299
N219	N	-0.275537	0.645862	1.101632
N220	N	-0.941593	0.025308	0.471754
N221	N	-0.608260	0.358641	0.805088
N222	N	-0.274927	0.691974	1.138421
H223	H	-0.531560	0.009867	-0.205574
H224	H	-0.198227	0.343200	0.127759
H225	H	0.135106	0.676533	0.461093
Br226	Br	-0.183965	-0.006867	0.143446
Br227	Br	0.149368	0.326466	0.476779
Br228	Br	0.482702	0.659799	0.810113
Br229	Br	-0.548954	-0.004585	0.096432
Br230	Br	-0.215620	0.328748	0.429765
Br231	Br	0.117713	0.662082	0.763099
H232	H	-0.317472	0.007272	-0.151356
H233	H	0.015861	0.340605	0.181978
H234	H	0.349195	0.673938	0.515311
Br235	Br	-0.937132	-0.113712	0.735426
Br236	Br	-0.603799	0.219622	1.068759
Br237	Br	-0.270465	0.552955	1.402093
Br238	Br	-0.745007	-0.005062	0.105806
Br239	Br	-0.411674	0.328272	0.439140
Br240	Br	-0.078341	0.661605	0.772473
H241	H	-0.352243	-0.005374	0.112292
H242	H	-0.018909	0.327960	0.445625
H243	H	0.314424	0.661293	0.778959
Br244	Br	-1.069898	-0.716032	0.088419
Br245	Br	-0.736565	-0.382699	0.421753
Br246	Br	-0.403231	-0.049365	0.755086
H247	H	-1.040428	-0.843695	0.057324
H248	H	-0.707095	-0.510361	0.390658
H249	H	-0.373761	-0.177028	0.723991
Br250	Br	-0.813920	-0.133517	-0.181696
Br251	Br	-0.480586	0.199817	0.151637
Br252	Br	-0.147253	0.533150	0.484970
H253	H	-0.937561	0.111042	0.713096
H254	H	-0.604227	0.444375	1.046430
H255	H	-0.270894	0.777708	1.379763
Br256	Br	-0.940367	-0.104419	0.541238
Br257	Br	-0.607033	0.228914	0.874571
Br258	Br	-0.273700	0.562248	1.207904
Br259	Br	-0.813988	-0.849110	-0.181647
Br260	Br	-0.480655	-0.515777	0.151687
Br261	Br	-0.147322	-0.182444	0.485020
H262	H	-0.843433	-0.721464	-0.150544
H263	H	-0.510100	-0.388131	0.182789
H264	H	-0.176766	-0.054798	0.516122
H265	H	-0.843399	-0.264144	-0.150593
H266	H	-0.510066	0.069190	0.182740
H267	H	-0.176733	0.402523	0.516074
H268	H	-0.946306	0.088035	0.193662
H269	H	-0.612973	0.421368	0.526996
H270	H	-0.279640	0.754702	0.860329
H271	H	-0.943723	-0.113691	0.343090
H272	H	-0.610390	0.219643	0.676423
H273	H	-0.277056	0.552976	1.009757
Br274	Br	-0.759642	-0.561546	-0.238927
Br275	Br	-0.426309	-0.228213	0.094407
Br276	Br	-0.092976	0.105120	0.427740
H277	H	-0.166578	0.007602	-0.158568
H278	H	0.166755	0.340936	0.174765
H279	H	0.500089	0.674269	0.508098
H280	H	-1.094684	-0.561580	0.114594
H281	H	-0.761350	-0.228247	0.447928
H282	H	-0.428017	0.105087	0.781261
Br283	Br	-1.069853	-0.292313	0.088392
Br284	Br	-0.736520	0.041021	0.421726
Br285	Br	-0.403186	0.374354	0.755059
H286	H	-0.946234	-0.106540	0.193624
H287	H	-0.612901	0.226794	0.526958
H288	H	-0.279568	0.560127	0.860291
Br289	Br	-0.699848	0.011363	-0.236730
Br290	Br	-0.366514	0.344697	0.096604
Br291	Br	-0.033181	0.678030	0.429937
Br292	Br	-1.069848	-0.146379	0.088356
Br293	Br	-0.736515	0.186955	0.421690
Br294	Br	-0.403182	0.520288	0.755023
H295	H	-1.094678	-0.449261	0.114581
H296	H	-0.761344	-0.115928	0.447915
H297	H	-0.428011	0.217405	0.781248
Br298	Br	-0.759626	-0.415613	-0.238926
Br299	Br	-0.426293	-0.082280	0.094407
Br300	Br	-0.092959	0.251053	0.427741
H301	H	-0.943782	0.080880	0.343112
H302	H	-0.610449	0.414213	0.676445
H303	H	-0.277115	0.747546	1.009778
H304	H	-0.940080	0.118198	0.563634
H305	H	-0.606747	0.451531	0.896968
H306	H	-0.273414	0.784865	1.230301
