data_functionalizedCrystal
_audit_creation_method	'MofGen! by Chris Wilmer'
_symmetry_space_group_name_H-M	'P1'
_symmetry_Int_Tables_number	1
_symmetry_cell_setting	triclinic
loop_
_symmetry_equiv_pos_as_xyz
  x,y,z
_cell_length_a	19.121241
_cell_length_b	25.639240
_cell_length_c	19.120904
_cell_angle_alpha	92.403182
_cell_angle_beta	89.875472
_cell_angle_gamma	92.466620
loop_
_atom_site_label
_atom_site_type_symbol
_atom_site_fract_x
_atom_site_fract_y
_atom_site_fract_z
Zn1	Zn	1.054836	-0.188775	-0.442151
Zn2	Zn	1.059742	-0.272330	-0.324895
Zn3	Zn	0.942603	-0.188465	-0.319921
Zn4	Zn	0.937549	-0.279737	-0.437080
O5	O	0.998683	-0.232327	-0.381011
O6	O	1.153595	-0.196889	-0.430800
O7	O	1.048371	-0.257975	-0.226131
O8	O	0.957553	-0.115340	-0.336175
O9	O	1.157199	-0.258276	-0.344653
O10	O	1.040010	-0.115568	-0.425977
O11	O	0.962309	-0.196360	-0.222477
O12	O	0.843824	-0.203542	-0.331258
O13	O	0.948940	-0.270901	-0.535856
O14	O	0.840112	-0.270600	-0.417334
O15	O	1.035110	-0.204071	-0.539582
O16	O	1.043471	-0.346479	-0.339736
O17	O	0.953696	-0.351921	-0.422158
C18	C	0.816530	-0.237842	-0.373206
C19	C	0.738603	-0.240214	-0.369884
C20	C	0.700114	-0.209423	-0.413244
C21	C	0.626894	-0.211649	-0.410116
C22	C	0.592164	-0.244670	-0.363632
C23	C	0.630659	-0.275462	-0.320267
C24	C	0.703877	-0.273233	-0.323392
C25	C	0.371185	-0.252995	-0.351946
C26	C	0.297961	-0.255223	-0.348826
C27	C	0.294202	-0.191409	-0.438675
C28	C	0.367422	-0.189185	-0.441799
C29	C	0.405910	-0.219975	-0.398432
C30	C	0.517322	-0.246947	-0.360435
C31	C	0.480752	-0.217694	-0.401625
C32	C	0.998586	-0.368171	-0.380952
C33	C	0.998608	-0.426284	-0.380953
C34	C	1.041637	-0.786729	-0.427853
C35	C	1.041657	-0.841333	-0.427868
O36	O	1.078127	-0.869641	-0.467683
N37	N	0.998777	-0.868565	-0.381083
C38	C	0.955869	-0.841191	-0.334285
O39	O	0.919397	-0.869368	-0.294493
C40	C	0.955845	-0.786588	-0.334274
C41	C	0.998734	-0.759358	-0.381057
C42	C	1.084521	-0.759499	-0.474633
C43	C	1.084502	-0.704898	-0.474617
C44	C	1.041598	-0.677528	-0.427821
C45	C	0.998714	-0.704758	-0.381041
C46	C	0.912934	-0.759215	-0.287479
C47	C	0.912914	-0.704608	-0.287473
C48	C	0.955802	-0.677378	-0.334256
C49	C	0.955792	-0.622787	-0.334228
N50	N	0.998672	-0.595554	-0.381013
C51	C	1.041575	-0.622925	-0.427810
C52	C	0.955920	-0.955861	-0.334313
C53	C	0.955946	-1.010462	-0.334320
C54	C	1.041734	-1.010601	-0.427905
C55	C	1.041711	-0.955998	-0.427893
C56	C	0.998800	-0.928628	-0.381098
C57	C	1.041532	-0.508260	-0.427772
C58	C	1.041511	-0.453655	-0.427749
C59	C	0.955721	-0.453521	-0.334168
C60	C	0.955744	-0.508122	-0.334187
C61	C	0.998652	-0.535490	-0.380995
O62	O	0.919339	-0.594444	-0.294436
O63	O	1.078034	-0.594741	-0.467602
C64	C	1.181547	-0.226791	-0.388847
C65	C	1.259472	-0.224432	-0.392186
C66	C	0.990914	-0.238347	-0.563867
C67	C	0.987603	-0.240912	-0.641790
C68	C	0.998798	-0.095953	-0.381087
C69	C	0.998847	-0.037838	-0.381119
C70	C	1.030910	-0.207324	-0.680338
C71	C	1.027791	-0.209733	-0.753554
C72	C	0.981368	-0.245732	-0.788220
C73	C	0.938057	-0.279322	-0.749666
C74	C	0.941173	-0.276910	-0.676451
C75	C	0.969712	-0.254752	-1.009184
C76	C	0.966601	-0.257162	-1.082404
C77	C	1.056334	-0.187573	-1.086287
C78	C	1.059449	-0.185167	-1.013071
C79	C	1.016135	-0.218754	-0.974523
C80	C	0.978181	-0.248196	-0.863059
C81	C	1.019320	-0.216287	-0.899686
C82	C	1.006461	-0.226291	-0.198869
C83	C	1.009908	-0.223575	-0.120953
H84	H	0.595560	-0.186576	-0.445426
O85	O	1.104560	-0.150149	-0.979508
C86	C	1.193264	-0.081401	-0.991090
C87	C	1.142193	-0.121023	-1.029188
H88	H	1.223714	-0.057850	-1.031239
H89	H	1.162591	-0.053872	-0.955467
H90	H	1.231330	-0.103177	-0.958352
H91	H	1.104115	-0.099291	-1.061963
H92	H	1.172911	-0.148551	-1.064769
H93	H	0.905901	-0.304256	-0.645065
H94	H	0.920979	-0.933579	-0.296201
H95	H	0.262858	-0.166341	-0.473982
O96	O	0.914193	-0.534592	-0.288666
C97	C	0.908873	-0.593478	-0.193651
C98	C	0.956018	-0.563526	-0.245148
H99	H	0.942667	-0.616888	-0.158463
H100	H	0.878225	-0.564553	-0.160150
H101	H	0.870811	-0.621198	-0.224255
H102	H	0.994119	-0.535806	-0.214600
H103	H	0.986616	-0.592481	-0.278650
H104	H	0.920792	-0.431227	-0.296065
H105	H	0.877969	-0.682327	-0.249367
O106	O	0.892999	-0.314360	-0.783263
C107	C	0.857966	-0.405067	-0.804186
C108	C	0.909027	-0.365440	-0.766084
H109	H	0.870915	-0.446375	-0.790323
H110	H	0.802043	-0.397166	-0.787357
H111	H	0.863167	-0.400996	-0.863132
H112	H	0.903888	-0.369489	-0.707132
H113	H	0.964929	-0.373353	-0.782970
H114	H	1.057114	-0.186974	-0.871458
H115	H	0.940386	-0.277510	-0.891292
H116	H	0.728386	-0.182535	-0.451099
H117	H	0.395694	-0.162298	-0.479654
H118	H	0.269686	-0.282115	-0.310973
H119	H	0.402513	-0.278067	-0.316634
H120	H	0.735214	-0.298306	-0.288083
O121	O	0.596888	-0.307599	-0.275210
C122	C	0.514557	-0.380360	-0.262065
C123	C	0.552766	-0.344008	-0.313169
H124	H	0.478865	-0.409799	-0.292734
H125	H	0.554613	-0.402024	-0.231621
H126	H	0.481870	-0.356140	-0.223997
H127	H	0.585453	-0.368189	-0.351280
H128	H	0.512675	-0.322342	-0.343563
O129	O	0.514514	-0.185696	-0.446856
C130	C	0.593222	-0.179380	-0.545019
C131	C	0.555007	-0.215676	-0.493849
H132	H	0.625982	-0.203603	-0.583017
H133	H	0.553169	-0.157765	-0.575533
H134	H	0.628845	-0.149893	-0.514351
H135	H	0.519385	-0.245193	-0.524463
H136	H	0.595098	-0.237254	-0.463335
H137	H	0.489036	-0.273833	-0.322587
O138	O	1.083192	-0.427287	-0.473266
C139	C	1.168312	-0.433195	-0.566063
C140	C	1.121135	-0.463119	-0.514565
H141	H	1.199012	-0.462152	-0.599456
H142	H	1.134561	-0.409834	-0.601355
H143	H	1.206327	-0.405437	-0.535461
H144	H	1.083113	-0.490904	-0.545110
H145	H	1.154929	-0.486446	-0.479272
H146	H	1.076466	-0.530537	-0.465892
O147	O	1.098331	-0.154967	-1.123838
C148	C	1.133329	-0.127857	-1.238351
C149	C	1.085718	-0.164809	-1.195911
H150	H	1.123158	-0.135808	-1.296631
H151	H	1.121660	-0.085587	-1.223502
H152	H	1.190460	-0.134845	-1.226335
H153	H	1.028571	-0.157868	-1.207906
H154	H	1.097447	-0.207066	-1.210766
O155	O	1.126080	-0.678482	-0.520165
C156	C	1.154966	-0.664644	-0.640898
C157	C	1.107819	-0.694582	-0.589388
H158	H	1.140228	-0.677658	-0.696876
H159	H	1.147585	-0.620910	-0.632922
H160	H	1.212028	-0.673227	-0.631023
H161	H	1.050739	-0.686043	-0.599232
H162	H	1.115260	-0.738307	-0.597376
O163	O	1.126099	-0.786110	-0.520164
C164	C	1.131488	-0.850560	-0.615218
C165	C	1.084309	-0.820456	-0.563708
H166	H	1.097721	-0.878343	-0.650426
H167	H	1.162115	-0.821735	-0.648696
H168	H	1.169568	-0.873914	-0.584625
H169	H	1.046189	-0.797101	-0.594244
H170	H	1.053732	-0.849307	-0.530229
O171	O	1.083511	-1.037166	-0.473297
C172	C	1.201287	-1.051279	-0.512573
C173	C	1.154061	-1.021165	-0.461120
H174	H	1.258335	-1.038346	-0.502755
H175	H	1.193991	-1.094986	-0.504542
H176	H	1.186486	-1.042773	-0.568554
H177	H	1.168833	-1.029628	-0.405118
H178	H	1.161363	-0.977468	-0.469212
O179	O	1.083268	-0.929495	-0.473372
C180	C	1.088572	-0.870670	-0.568456
C181	C	1.041429	-0.900642	-0.516977
H182	H	1.054763	-0.847343	-0.603734
H183	H	1.126601	-0.842887	-0.537909
H184	H	1.119256	-0.899625	-0.601869
H185	H	1.010699	-0.871725	-0.483551
H186	H	1.003444	-0.928432	-0.547567
H187	H	0.928796	-0.286479	-1.110626
H188	H	1.068715	-0.178011	-0.652119
O189	O	0.914226	-1.036830	-0.288844
C190	C	0.829166	-1.030913	-0.195993
C191	C	0.876373	-1.000990	-0.247466
H192	H	0.798561	-1.001948	-0.162515
H193	H	0.791075	-1.058643	-0.226545
H194	H	0.862956	-1.054304	-0.160778
H195	H	0.842639	-0.977569	-0.282693
H196	H	0.914468	-0.973291	-0.216870
O197	O	0.871203	-0.785578	-0.242011
C198	C	0.786130	-0.779653	-0.149173
C199	C	0.833348	-0.749734	-0.200641
H200	H	0.755522	-0.750685	-0.115702
H201	H	0.748041	-0.807382	-0.179729
H202	H	0.819912	-0.803044	-0.113951
H203	H	0.799621	-0.726313	-0.235876
H204	H	0.871440	-0.722036	-0.170042
O205	O	1.069933	-0.177086	-0.790895
C206	C	1.159241	-0.107791	-0.787019
C207	C	1.111565	-0.144744	-0.744647
H208	H	1.192902	-0.081626	-0.749645
H209	H	1.194465	-0.131790	-0.822840
H210	H	1.125609	-0.082576	-0.819948
H211	H	1.145142	-0.169967	-0.711677
H212	H	1.076337	-0.120715	-0.708870
O213	O	0.927603	-0.287425	-0.971852
C214	C	0.838216	-0.356663	-0.975731
C215	C	0.885886	-0.319704	-1.018099
H216	H	0.804466	-0.382762	-1.013104
H217	H	0.871786	-0.381941	-0.942826
H218	H	0.803071	-0.332618	-0.939887
H219	H	0.921041	-0.343708	-1.053981
H220	H	0.852275	-0.294424	-1.050959
