data_functionalizedCrystal
_audit_creation_method	'MofGen! by Chris Wilmer'
_symmetry_space_group_name_H-M	'P1'
_symmetry_Int_Tables_number	1
_symmetry_cell_setting	triclinic
loop_
_symmetry_equiv_pos_as_xyz
  x,y,z
_cell_length_a	11.026660
_cell_length_b	14.519731
_cell_length_c	9.482900
_cell_angle_alpha	99.351580
_cell_angle_beta	78.636107
_cell_angle_gamma	96.136844
loop_
_atom_site_label
_atom_site_type_symbol
_atom_site_fract_x
_atom_site_fract_y
_atom_site_fract_z
O1	O	1.629923	0.375006	-0.120919
O2	O	1.276519	0.331018	-0.120918
O3	O	1.462575	0.220317	-0.120906
O4	O	1.443866	0.485706	-0.120932
O5	O	1.424783	0.242919	0.120884
O6	O	1.238727	0.353619	0.120872
O7	O	1.592131	0.397607	0.120871
Cu8	Cu	1.411978	0.377677	0.142949
Cu9	Cu	1.456671	0.350948	-0.142996
O10	O	1.406074	0.508307	0.120858
C11	C	1.212393	0.334203	-0.000023
C12	C	1.077625	0.310012	-0.000022
C13	C	0.864682	0.351814	-0.000030
C14	C	1.003971	0.376819	-0.000030
C15	C	1.442802	0.197114	-0.000010
C16	C	1.440175	0.094301	-0.000009
C17	C	1.438040	0.010805	-0.000013
C18	C	1.435374	-0.093944	-0.000024
C19	C	1.433258	-0.177433	-0.000033
C20	C	1.430592	-0.282189	-0.000042
C21	C	1.656256	0.394421	-0.000028
C22	C	1.791026	0.418612	-0.000038
C23	C	1.425848	0.531510	-0.000040
C24	C	1.428477	0.634323	-0.000051
N25	N	1.380552	0.396477	0.344067
N26	N	1.488107	0.332142	-0.344114
C27	C	1.447394	0.356487	0.416270
C28	C	1.421255	0.372138	0.583686
H29	H	0.824617	0.276117	-0.000002
H30	H	1.564684	0.286311	0.593767
H31	H	0.831086	0.494312	-0.000037
H32	H	1.037587	0.234298	-0.000111
H33	H	1.044025	0.452525	-0.000028
H34	H	1.523966	0.310659	0.354147
H35	H	1.344669	0.417960	0.645805
F36	F	1.280453	0.456368	0.425263
