data_functionalizedCrystal
_audit_creation_method	'MofGen! by Chris Wilmer'
_symmetry_space_group_name_H-M	'P1'
_symmetry_Int_Tables_number	1
_symmetry_cell_setting	triclinic
loop_
_symmetry_equiv_pos_as_xyz
  x,y,z
_cell_length_a	18.050589
_cell_length_b	18.050591
_cell_length_c	14.908308
_cell_angle_alpha	86.726628
_cell_angle_beta	86.730698
_cell_angle_gamma	90.024669
loop_
_atom_site_label
_atom_site_type_symbol
_atom_site_fract_x
_atom_site_fract_y
_atom_site_fract_z
Zn1	Zn	-0.319953	1.111075	0.510227
Zn2	Zn	0.013380	1.444408	0.843560
Zn3	Zn	0.346713	1.777742	1.176894
Zn4	Zn	-0.436989	1.118145	0.359380
Zn5	Zn	-0.103656	1.451479	0.692714
Zn6	Zn	0.229678	1.784812	1.026047
Zn7	Zn	-0.312809	0.994054	0.359373
Zn8	Zn	0.020524	1.327388	0.692707
Zn9	Zn	0.353857	1.660721	1.026040
Zn10	Zn	-0.444096	0.986845	0.510175
Zn11	Zn	-0.110762	1.320178	0.843509
Zn12	Zn	0.222571	1.653511	1.176842
O13	O	-0.378462	1.052530	0.434789
O14	O	-0.045128	1.385863	0.768122
O15	O	0.288205	1.719197	1.101456
O16	O	-0.335494	1.215936	0.490242
O17	O	-0.002161	1.549270	0.823575
O18	O	0.331173	1.882603	1.156908
O19	O	-0.414552	1.107661	0.233138
O20	O	-0.081219	1.440994	0.566472
O21	O	0.252114	1.774328	0.899805
O22	O	-0.209833	1.009636	0.379403
O23	O	0.123500	1.342969	0.712736
O24	O	0.456833	1.676302	1.046070
O25	O	-0.421479	1.221131	0.379415
O26	O	-0.088146	1.554464	0.712748
O27	O	0.245187	1.887798	1.046082
O28	O	-0.215082	1.095610	0.490235
O29	O	0.118251	1.428944	0.823568
O30	O	0.451585	1.762277	1.156901
O31	O	-0.323318	1.016492	0.233133
O32	O	0.010015	1.349825	0.566466
O33	O	0.343349	1.683158	0.899800
O34	O	-0.330209	0.889175	0.379353
O35	O	0.003124	1.222508	0.712686
O36	O	0.336458	1.555841	1.046020
O37	O	-0.433592	0.997348	0.636423
O38	O	-0.100259	1.330681	0.969757
O39	O	0.233075	1.664014	1.303090
O40	O	-0.426665	0.883878	0.490147
O41	O	-0.093331	1.217211	0.823480
O42	O	0.240002	1.550544	1.156813
O43	O	-0.342385	1.088619	0.636461
O44	O	-0.009052	1.421953	0.969795
O45	O	0.324282	1.755286	1.303128
O46	O	-0.541855	1.100670	0.379365
O47	O	-0.208522	1.434003	0.712698
O48	O	0.124811	1.767337	1.046032
O49	O	-0.547077	1.004204	0.490153
O50	O	-0.213743	1.337537	0.823487
O51	O	0.119590	1.670870	1.156820
C52	C	-0.378434	0.859580	0.434744
C53	C	-0.045100	1.192913	0.768077
C54	C	0.288233	1.526247	1.101411
C55	C	-0.378440	0.777034	0.434746
C56	C	-0.045107	1.110367	0.768079
C57	C	0.288226	1.443701	1.101413
C58	C	-0.325943	0.531061	0.374639
C59	C	0.007390	0.864394	0.707972
C60	C	0.340723	1.197727	1.041306
C61	C	-0.311763	0.576585	0.456967
C62	C	0.021570	0.909918	0.790301
C63	C	0.354904	1.243252	1.123634
C64	C	-0.378482	0.479910	0.434820
C65	C	-0.045148	0.813243	0.768153
C66	C	0.288185	1.146577	1.101487
C67	C	-0.392607	0.581469	0.352460
C68	C	-0.059273	0.914802	0.685793
C69	C	0.274060	1.248136	1.019126
C70	C	-0.378459	0.625897	0.434779
C71	C	-0.045126	0.959230	0.768113
C72	C	0.288207	1.292564	1.101446
C73	C	-0.364269	0.524345	0.517192
C74	C	-0.030936	0.857678	0.850526
C75	C	0.302398	1.191012	1.183859
C76	C	-0.445141	0.529227	0.412629
C77	C	-0.111808	0.862561	0.745962
C78	C	0.221525	1.195894	1.079296
C79	C	-0.430990	0.574727	0.495014
C80	C	-0.097656	0.908060	0.828348
C81	C	0.235677	1.241393	1.161681
C82	C	-0.378493	0.395811	0.434842
C83	C	-0.045159	0.729144	0.768175
C84	C	0.288174	1.062477	1.101509
C85	C	-0.378449	0.709994	0.434766
C86	C	-0.045116	1.043328	0.768100
C87	C	0.288218	1.376661	1.101433
C88	C	-0.571413	1.052441	0.434774
C89	C	-0.238080	1.385774	0.768107
C90	C	0.095253	1.719108	1.101441
C91	C	-0.653960	1.052469	0.434798
C92	C	-0.320627	1.385803	0.768131
C93	C	0.012706	1.719136	1.101465
C94	C	-0.856276	1.000061	0.495024
C95	C	-0.522943	1.333394	0.828357
C96	C	-0.189610	1.666727	1.161690
C97	C	-0.901808	0.985870	0.412702
C98	C	-0.568475	1.319204	0.746036
C99	C	-0.235142	1.652537	1.079369
C100	C	-0.805091	1.052542	0.434810
C101	C	-0.471758	1.385875	0.768143
C102	C	-0.138424	1.719208	1.101476
C103	C	-0.906641	1.066768	0.517140
C104	C	-0.573308	1.400102	0.850474
C105	C	-0.239974	1.733435	1.183807
C106	C	-0.951077	1.052610	0.434828
C107	C	-0.617744	1.385943	0.768162
C108	C	-0.284410	1.719277	1.101495
C109	C	-0.849534	1.038318	0.352445
C110	C	-0.516201	1.371651	0.685778
C111	C	-0.182867	1.704984	1.019111
C112	C	-0.854365	1.119245	0.456938
C113	C	-0.521032	1.452578	0.790272
C114	C	-0.187698	1.785911	1.123605
C115	C	-0.899872	1.105083	0.374560
C116	C	-0.566539	1.438416	0.707894
C117	C	-0.233205	1.771749	1.041227
C118	C	-0.720992	1.052501	0.434800
C119	C	-0.387659	1.385834	0.768133
C120	C	-0.054326	1.719167	1.101467
C121	C	-1.035174	1.052652	0.434828
C122	C	-0.701840	1.385985	0.768162
C123	C	-0.368507	1.719318	1.101495
C124	C	-0.184758	1.052638	0.434824
C125	C	0.148575	1.385972	0.768157
C126	C	0.481909	1.719305	1.101491
C127	C	-0.102213	1.052685	0.434839
C128	C	0.231121	1.386018	0.768172
C129	C	0.564454	1.719351	1.101505
C130	C	-0.389578	1.041391	0.670091
C131	C	-0.056245	1.374724	1.003424
C132	C	0.277088	1.708057	1.336757
C133	C	-0.394315	1.036644	0.770362
C134	C	-0.060982	1.369977	1.103695
C135	C	0.272351	1.703310	1.437029
C136	C	-0.378491	1.246233	0.434835
C137	C	-0.045157	1.579567	0.768168
C138	C	0.288176	1.912900	1.101502
C139	C	-0.378503	1.328778	0.434854
C140	C	-0.045170	1.662111	0.768188
C141	C	0.288163	1.995445	1.101521
C142	C	-0.367335	1.063669	0.200403
C143	C	-0.034002	1.397002	0.533736
C144	C	0.299332	1.730335	0.867070
C145	C	-0.362389	1.068559	0.100132
C146	C	-0.029055	1.401893	0.433465
C147	C	0.304278	1.735226	0.766799
C148	C	-0.308226	1.122763	0.958824
C149	C	0.025107	1.456096	1.292157
C150	C	0.358441	1.789429	1.625491
C151	C	-0.312674	1.118305	1.053038
C152	C	0.020659	1.451638	1.386371
C153	C	0.353992	1.784971	1.719705
C154	C	-0.407656	1.023267	1.053006
C155	C	-0.074323	1.356600	1.386339
C156	C	0.259010	1.689934	1.719672
C157	C	-0.403208	1.027725	0.958792
C158	C	-0.069875	1.361058	1.292125
C159	C	0.263459	1.694391	1.625458
C160	C	-0.353492	1.077475	0.911704
C161	C	-0.020159	1.410808	1.245037
C162	C	0.313175	1.744142	1.578371
C163	C	-0.349048	1.081936	0.817488
C164	C	-0.015714	1.415269	1.150822
C165	C	0.317619	1.748603	1.484155
C166	C	-0.444026	0.986895	0.817458
C167	C	-0.110692	1.320228	1.150791
C168	C	0.222641	1.653562	1.484125
C169	C	-0.448474	0.982437	0.911672
C170	C	-0.115141	1.315771	1.245005
C171	C	0.218193	1.649104	1.578338
H172	H	-0.352246	0.499471	0.586846
H173	H	-0.018913	0.832804	0.920179
H174	H	0.314420	1.166138	1.253513
O175	O	-0.939696	1.082679	0.609356
O176	O	-0.606362	1.416012	0.942689
O177	O	-0.273029	1.749346	1.276023
H178	H	-0.922310	1.039004	0.659194
H179	H	-0.588977	1.372337	0.992528
H180	H	-0.255643	1.705670	1.325861
H181	H	-0.475413	0.593853	0.545949
H182	H	-0.142080	0.927187	0.879282
H183	H	0.191253	1.260520	1.212615
H184	H	-0.448133	0.982763	1.091361
H185	H	-0.114799	1.316096	1.424694
H186	H	0.218534	1.649429	1.758027
H187	H	-0.404563	0.606434	0.282826
H188	H	-0.071230	0.939767	0.616159
H189	H	0.262104	1.273101	0.949493
O190	O	-0.502092	0.928777	0.962459
O191	O	-0.168759	1.262110	1.295793
O192	O	0.164575	1.595443	1.629126
H193	H	-0.497583	0.933285	1.035889
H194	H	-0.164250	1.266619	1.369222
H195	H	0.169084	1.599952	1.702556
H196	H	-0.837036	0.955621	0.545872
H197	H	-0.503703	1.288954	0.879206
H198	H	-0.170369	1.622288	1.212539
H199	H	-0.308567	1.122446	0.779151
H200	H	0.024766	1.455780	1.112484
H201	H	0.358099	1.789113	1.445818
H202	H	-0.275812	1.155181	1.091399
H203	H	0.057521	1.488514	1.424733
H204	H	0.390855	1.821847	1.758066
O205	O	-0.519798	0.501594	0.387754
O206	O	-0.186465	0.834927	0.721087
O207	O	0.146868	1.168261	1.054420
H208	H	-0.531405	0.524549	0.319342
H209	H	-0.198072	0.857882	0.652675
H210	H	0.135261	1.191215	0.986008
O211	O	-0.929459	0.911194	0.387903
O212	O	-0.596126	1.244527	0.721236
O213	O	-0.262792	1.577860	1.054570
H214	H	-0.912090	0.867694	0.437972
H215	H	-0.578757	1.201027	0.771305
H216	H	-0.245424	1.534361	1.104639
O217	O	-0.816606	1.022322	0.260199
O218	O	-0.483272	1.355655	0.593532
O219	O	-0.149939	1.688989	0.926866
H220	H	-0.755152	1.022389	0.260925
H221	H	-0.421819	1.355722	0.594259
H222	H	-0.088485	1.689055	0.927592
O223	O	-0.492848	0.938025	0.766655
O224	O	-0.159515	1.271359	1.099988
O225	O	0.173818	1.604692	1.433322
H226	H	-0.528617	0.973260	0.723725
H227	H	-0.195283	1.306593	1.057058
H228	H	0.138050	1.639926	1.390391
O229	O	-0.267072	0.505525	0.307332
O230	O	0.066261	0.838858	0.640665
O231	O	0.399594	1.172192	0.973998
H232	H	-0.211783	0.524452	0.325956
H233	H	0.121550	0.857786	0.659289
H234	H	0.454884	1.191119	0.992622
O235	O	-0.237085	0.604197	0.481816
O236	O	0.096248	0.937530	0.815150
O237	O	0.429581	1.270864	1.148483
H238	H	-0.193575	0.586803	0.431781
H239	H	0.139758	0.920136	0.765114
H240	H	0.473091	1.253469	1.098448
O241	O	-0.925176	1.163917	0.307052
O242	O	-0.591843	1.497250	0.640386
O243	O	-0.258509	1.830583	0.973719
H244	H	-0.902090	1.151957	0.238815
H245	H	-0.568756	1.485290	0.572148
H246	H	-0.235423	1.818624	0.905481
H247	H	-0.267749	1.163275	0.920485
H248	H	0.065585	1.496608	1.253818
H249	H	0.398918	1.829942	1.587151
O250	O	-0.826854	1.193993	0.481653
O251	O	-0.493520	1.527326	0.814986
O252	O	-0.160187	1.860660	1.148320
H253	H	-0.849863	1.205681	0.550012
H254	H	-0.516530	1.539014	0.883346
H255	H	-0.183197	1.872347	1.216679
