data_functionalizedCrystal
_audit_creation_method	'MofGen! by Chris Wilmer'
_symmetry_space_group_name_H-M	'P1'
_symmetry_Int_Tables_number	1
_symmetry_cell_setting	triclinic
loop_
_symmetry_equiv_pos_as_xyz
  x,y,z
_cell_length_a	10.967926
_cell_length_b	11.026660
_cell_length_c	8.140239
_cell_angle_alpha	89.999385
_cell_angle_beta	102.126518
_cell_angle_gamma	96.379949
loop_
_atom_site_label
_atom_site_type_symbol
_atom_site_fract_x
_atom_site_fract_y
_atom_site_fract_z
O1	O	1.693961	0.170509	0.342966
O2	O	1.334338	0.186833	0.241152
O3	O	1.484346	0.001771	0.283623
O4	O	1.543953	0.355571	0.300496
O5	O	1.484335	0.001769	0.556847
O6	O	1.334326	0.186831	0.514376
O7	O	1.693950	0.170507	0.616190
Zn8	Zn	1.514137	0.178669	0.608663
Zn9	Zn	1.514151	0.178672	0.248679
O10	O	1.543942	0.355569	0.573719
C11	C	1.473344	-0.043532	0.417119
C12	C	1.440563	-0.178518	0.407828
C13	C	1.287577	0.185644	0.364527
C14	C	1.148258	0.182091	0.325084
C15	C	1.497209	-0.391086	0.423871
C16	C	1.531092	-0.251572	0.433460
C17	C	1.086139	0.180506	0.449037
C18	C	0.942146	0.176834	0.408273
C19	C	1.740711	0.171696	0.492812
C20	C	1.880030	0.175249	0.532244
C21	C	1.554944	0.400872	0.440220
C22	C	1.587725	0.535858	0.449500
N23	N	1.514136	0.178666	0.854346
N24	N	1.514160	0.178665	0.002999
H25	H	1.394629	-0.431828	0.394822
O26	O	0.950786	0.177075	0.712800
H27	H	0.933176	0.259161	0.779256
O28	O	1.666984	-0.197630	0.471933
H29	H	1.672273	-0.096515	0.473439
O30	O	1.304670	-0.232457	0.369368
H31	H	1.299377	-0.333572	0.367887
O32	O	0.871418	0.175023	0.227706
H33	H	0.819236	0.256224	0.205885
O34	O	1.077516	0.180293	0.144531
H35	H	0.975519	0.177701	0.140847
H36	H	1.690305	-0.423401	0.478481
O37	O	1.156882	0.182317	0.629590
H38	H	1.258880	0.184929	0.633274
