data_functionalizedCrystal
_audit_creation_method	'MofGen! by Chris Wilmer'
_symmetry_space_group_name_H-M	'P1'
_symmetry_Int_Tables_number	1
_symmetry_cell_setting	triclinic
loop_
_symmetry_equiv_pos_as_xyz
  x,y,z
_cell_length_a	12.645331
_cell_length_b	12.594516
_cell_length_c	12.645323
_cell_angle_alpha	89.976054
_cell_angle_beta	89.977324
_cell_angle_gamma	90.015032
loop_
_atom_site_label
_atom_site_type_symbol
_atom_site_fract_x
_atom_site_fract_y
_atom_site_fract_z
Zn1	Zn	1.620743	-0.423763	-0.599453
Zn2	Zn	2.120743	0.076237	-0.099453
Zn3	Zn	1.620630	-0.601766	-0.422196
Zn4	Zn	2.120630	-0.101766	0.077804
Zn5	Zn	1.443458	-0.423799	-0.422197
Zn6	Zn	1.943458	0.076201	0.077803
Zn7	Zn	1.443445	-0.601696	-0.599411
Zn8	Zn	1.943445	-0.101696	-0.099411
O9	O	1.532069	-0.512756	-0.510814
O10	O	2.032069	-0.012756	-0.010814
O11	O	1.769076	-0.447389	-0.575956
O12	O	2.269076	0.052611	-0.075956
O13	O	1.597086	-0.578202	-0.273849
O14	O	2.097086	-0.078202	0.226151
O15	O	1.467028	-0.274848	-0.445729
O16	O	1.967028	0.225152	0.054271
O17	O	1.768992	-0.578167	-0.445726
O18	O	2.268992	-0.078167	0.054274
O19	O	1.597279	-0.274822	-0.575958
O20	O	2.097279	0.225178	-0.075958
O21	O	1.466918	-0.447451	-0.273850
O22	O	1.966918	0.052549	0.226150
O23	O	1.295109	-0.447383	-0.445688
O24	O	1.795109	0.052617	0.054312
O25	O	1.467006	-0.578049	-0.747764
O26	O	1.967006	-0.078049	-0.247764
O27	O	1.295099	-0.578084	-0.575887
O28	O	1.795099	-0.078084	-0.075887
O29	O	1.597266	-0.447322	-0.747795
O30	O	2.097266	0.052678	-0.247795
O31	O	1.597073	-0.750702	-0.445686
O32	O	2.097073	-0.250702	0.054314
O33	O	1.466896	-0.750651	-0.575885
O34	O	1.966896	-0.250651	-0.075885
C35	C	1.256639	-0.512731	-0.510784
C36	C	1.756639	-0.012731	-0.010784
C37	C	1.138809	-0.512745	-0.510796
C38	C	1.638809	-0.012745	-0.010796
C39	C	0.971216	-0.430143	-0.429340
C40	C	1.471216	0.069857	0.070660
C41	C	1.093776	-0.430357	-0.428981
C42	C	1.593776	0.069643	0.071019
C43	C	1.094292	-0.624870	-0.480283
C44	C	1.594292	-0.124870	0.019717
C45	C	0.971694	-0.624419	-0.479727
C46	C	1.471694	-0.124419	0.020273
C47	C	0.971659	-0.484290	-0.623079
C48	C	1.471659	0.015710	-0.123079
C49	C	1.094265	-0.481785	-0.622456
C50	C	1.594265	0.018215	-0.122456
C51	C	1.532000	-0.789297	-0.510804
C52	C	2.032000	-0.289297	-0.010804
C53	C	1.532067	-0.907602	-0.510835
C54	C	2.032067	-0.407602	-0.010835
C55	C	1.461256	-0.976866	-0.581601
C56	C	1.961256	-0.476866	-0.081601
C57	C	1.435425	-1.047727	-0.484868
C58	C	1.935425	-0.547727	0.015132
C59	C	1.557995	-1.047540	-0.607584
C60	C	2.057995	-0.547540	-0.107584
C61	C	1.506184	-0.976905	-0.414051
C62	C	2.006184	-0.476905	0.085949
C63	C	1.628799	-0.976712	-0.536833
C64	C	2.128799	-0.476712	-0.036833
C65	C	1.603004	-1.047541	-0.440033
C66	C	2.103004	-0.547541	0.059967
C67	C	1.808574	-0.512782	-0.510846
C68	C	2.308574	-0.012782	-0.010846
C69	C	1.926404	-0.512793	-0.510859
C70	C	2.426404	-0.012793	-0.010859
C71	C	1.532147	-0.512674	-0.787320
C72	C	2.032147	-0.012674	-0.287320
C73	C	1.532180	-0.512639	-0.905150
C74	C	2.032180	-0.012639	-0.405150
C75	C	1.532168	-0.235135	-0.510848
C76	C	2.032168	0.264865	-0.010848
C77	C	1.532210	-0.116830	-0.510862
C78	C	2.032210	0.383170	-0.010862
C79	C	1.449981	-0.594491	-1.072695
C80	C	1.949981	-0.094491	-0.572695
C81	C	1.450196	-0.594897	-0.950135
C82	C	1.950196	-0.094897	-0.450135
C83	C	1.643881	-0.543081	-0.949670
C84	C	2.143881	-0.043081	-0.449670
C85	C	1.643430	-0.543595	-1.072269
C86	C	2.143430	-0.043595	-0.572269
C87	C	1.503736	-0.399885	-1.072346
C88	C	2.003736	0.100115	-0.572346
C89	C	1.501244	-0.400561	-0.949740
C90	C	2.001244	0.099439	-0.449740
C91	C	1.532052	-0.512761	-0.235385
C92	C	2.032052	-0.012761	0.264615
C93	C	1.532224	-0.512496	-0.117555
C94	C	2.032224	-0.012496	0.382445
H95	H	0.940369	-0.448774	-0.346669
H96	H	1.440369	0.051226	0.153331
Br97	Br	1.145382	-0.665855	-0.345014
Br98	Br	1.645382	-0.165855	0.154986
H99	H	1.706786	-0.486466	-1.101946
H100	H	2.206786	0.013534	-0.601946
H101	H	0.941749	-0.346749	-0.448260
H102	H	1.441749	0.153251	0.051740
Br103	Br	1.594449	-1.099263	-0.743934
Br104	Br	2.094449	-0.599263	-0.243934
Br105	Br	1.145357	-0.574804	-0.729109
Br106	Br	1.645357	-0.074804	-0.229109
H107	H	1.353687	-1.078944	-0.462901
H108	H	1.853687	-0.578944	0.037099
H109	H	0.942682	-0.544489	-0.683818
H110	H	1.442682	-0.044489	-0.183818
H111	H	1.367366	-0.575846	-0.920033
H112	H	1.867366	-0.075846	-0.420033
Br113	Br	1.593801	-0.293351	-0.898718
Br114	Br	2.093801	0.206649	-0.398718
Br115	Br	1.142585	-0.461748	-0.290373
Br116	Br	1.642585	0.038252	0.209627
Br117	Br	0.923944	-0.664705	-0.342991
Br118	Br	1.423944	-0.164705	0.157009
H119	H	0.942051	-0.688084	-0.536513
H120	H	1.442051	-0.188084	-0.036513
Br121	Br	1.142892	-0.730254	-0.576147
Br122	Br	1.642892	-0.230254	-0.076147
Br123	Br	1.748759	-0.446691	-0.901117
Br124	Br	2.248759	0.053309	-0.401117
Br125	Br	1.469576	-0.925413	-0.277656
Br126	Br	1.969576	-0.425413	0.222344
H127	H	1.419042	-0.377603	-0.920640
H128	H	1.919042	0.122397	-0.420640
Br129	Br	0.920164	-0.350393	-0.669332
Br130	Br	1.420164	0.149607	-0.169332
H131	H	1.668442	-0.624540	-0.918983
H132	H	2.168442	-0.124540	-0.418983
Br133	Br	1.683677	-0.680801	-1.119964
Br134	Br	2.183677	-0.180801	-0.619964
Br135	Br	1.481604	-0.734028	-0.901268
Br136	Br	1.981604	-0.234028	-0.401268
Br137	Br	1.361278	-0.925139	-0.681204
Br138	Br	1.861278	-0.425139	-0.181204
Br139	Br	1.702919	-1.098938	-0.340200
Br140	Br	2.202919	-0.598938	0.159800
H141	H	1.710519	-0.945498	-0.558846
H142	H	2.210519	-0.445498	-0.058846
Br143	Br	1.142787	-0.344271	-0.660822
Br144	Br	1.642787	0.155729	-0.160822
Br145	Br	1.311507	-0.563041	-1.121804
Br146	Br	1.811507	-0.063041	-0.621804
Br147	Br	1.480947	-0.732752	-1.124151
Br148	Br	1.980947	-0.232752	-0.624151
Br149	Br	1.370339	-0.353634	-1.123850
Br150	Br	1.870339	0.146366	-0.623850
H151	H	1.563638	-0.338796	-1.101359
H152	H	2.063638	0.161204	-0.601359
H153	H	1.123874	-0.347212	-0.448106
H154	H	1.623874	0.152788	0.051894
