data_functionalizedCrystal
_audit_creation_method	'MofGen! by Chris Wilmer'
_symmetry_space_group_name_H-M	'P1'
_symmetry_Int_Tables_number	1
_symmetry_cell_setting	triclinic
loop_
_symmetry_equiv_pos_as_xyz
  x,y,z
_cell_length_a	8.559649
_cell_length_b	15.944551
_cell_length_c	7.088929
_cell_angle_alpha	83.774879
_cell_angle_beta	95.325015
_cell_angle_gamma	76.638701
loop_
_atom_site_label
_atom_site_type_symbol
_atom_site_fract_x
_atom_site_fract_y
_atom_site_fract_z
O1	O	2.103727	-0.018804	-0.158956
O2	O	1.638526	0.024575	-0.158968
O3	O	1.883832	-0.120210	-0.158944
O4	O	1.858421	0.125981	-0.158979
O5	O	1.916614	-0.139599	0.159034
O6	O	1.671309	0.005187	0.159010
O7	O	2.136509	-0.038193	0.159023
Cu8	Cu	1.906902	-0.018273	0.188050
Cu9	Cu	1.868133	0.004656	-0.187996
O10	O	1.891203	0.106593	0.158999
C11	C	1.595388	0.018169	0.000020
C12	C	1.418008	0.027954	0.000015
C13	C	1.899168	-0.161130	0.000045
C14	C	1.896006	-0.254172	0.000046
C15	C	1.736394	-0.458727	0.000015
C16	C	1.826675	-0.534087	0.156800
C17	C	1.890284	-0.424528	0.000031
C18	C	1.794391	-0.514957	-0.156702
C19	C	1.884745	-0.589082	0.000009
C20	C	1.980621	-0.498671	0.156945
C21	C	1.948300	-0.479525	-0.156697
C22	C	2.038697	-0.554877	0.000126
C23	C	1.893471	-0.329732	0.000046
C24	C	1.881571	-0.683878	0.000008
C25	C	2.179647	-0.031786	0.000031
C26	C	2.357025	-0.041571	0.000022
C27	C	1.875866	0.147513	0.000005
C28	C	1.879027	0.240556	-0.000008
N29	N	1.934182	-0.034401	0.452541
N30	N	1.840866	0.020776	-0.452487
H31	H	1.440515	-0.108579	0.000023
O32	O	1.318188	0.107836	0.000081
C33	C	1.157358	0.100159	0.000022
H34	H	1.157318	0.030902	0.060232
H35	H	1.093439	0.115723	-0.152533
C36	C	1.068125	0.249365	0.050751
C37	C	1.068076	0.164305	0.124717
H38	H	1.013048	0.288936	0.127660
H39	H	1.176478	0.254539	0.050783
H40	H	1.014862	0.262323	-0.076377
H41	H	1.121356	0.151345	0.251833
H42	H	0.959730	0.159130	0.124709
H43	H	1.608676	-0.417185	0.000169
O44	O	2.191341	-0.604160	0.000330
C45	C	2.301020	-0.550412	0.001934
H46	H	2.246087	-0.488443	0.062877
H47	H	2.327189	-0.532908	-0.150206
C48	C	2.527155	-0.675166	0.052024
C49	C	2.459690	-0.599058	0.126892
H50	H	2.625033	-0.705173	0.129097
H51	H	2.453263	-0.711377	0.050937
H52	H	2.548948	-0.660568	-0.074757
H53	H	2.437880	-0.613657	0.253661
H54	H	2.533583	-0.562850	0.128003
O55	O	1.765162	-0.562781	0.314723
C56	C	1.626114	-0.591464	0.258442
H57	H	1.630634	-0.609442	0.107379
H58	H	1.513485	-0.537252	0.261447
C59	C	1.614711	-0.649663	0.582504
C60	C	1.620270	-0.671750	0.396972
H61	H	1.611099	-0.699185	0.667959
H62	H	1.708386	-0.630336	0.620425
H63	H	1.520853	-0.604485	0.584981
H64	H	1.714136	-0.716920	0.394493
H65	H	1.526609	-0.691087	0.359055
H66	H	2.030912	-0.091580	0.534206
O67	O	2.074413	-0.489331	0.315196
C68	C	2.076235	-0.401049	0.313313
H69	H	1.964085	-0.358567	0.220393
H70	H	2.189291	-0.389299	0.252704
C71	C	2.214743	-0.430048	0.632773
C72	C	2.076992	-0.377871	0.518660
H73	H	2.215218	-0.415750	0.759441
H74	H	2.213522	-0.489526	0.634041
H75	H	2.308943	-0.420251	0.582244
H76	H	1.982796	-0.387676	0.569177
H77	H	2.078197	-0.318394	0.517406
H78	H	1.744154	0.077957	0.465858
H79	H	1.999667	-0.455510	-0.289250
H80	H	1.715616	-0.522750	-0.289260
