data_functionalizedCrystal
_audit_creation_method	'MofGen! by Chris Wilmer'
_symmetry_space_group_name_H-M	'P1'
_symmetry_Int_Tables_number	1
_symmetry_cell_setting	triclinic
loop_
_symmetry_equiv_pos_as_xyz
  x,y,z
_cell_length_a	17.038272
_cell_length_b	15.500227
_cell_length_c	14.519709
_cell_angle_alpha	87.167568
_cell_angle_beta	87.395851
_cell_angle_gamma	93.043705
loop_
_atom_site_label
_atom_site_type_symbol
_atom_site_fract_x
_atom_site_fract_y
_atom_site_fract_z
O1	O	1.041317	0.071839	0.196296
O2	O	1.541317	0.571839	0.696296
O3	O	0.813683	0.071864	0.193115
O4	O	1.313683	0.571864	0.693115
O5	O	0.933535	0.071843	0.060929
O6	O	1.433535	0.571843	0.560929
O7	O	0.921465	0.071860	0.328482
O8	O	1.421465	0.571860	0.828482
O9	O	0.926262	-0.072044	0.068917
O10	O	1.426262	0.427956	0.568917
O11	O	0.806410	-0.072023	0.201102
O12	O	1.306410	0.427977	0.701102
O13	O	1.034044	-0.072049	0.204284
O14	O	1.534044	0.427951	0.704284
Cu15	Cu	0.919563	-0.085174	0.203422
Cu16	Cu	1.419563	0.414826	0.703422
Cu17	Cu	0.928164	0.084990	0.193976
Cu18	Cu	1.428164	0.584990	0.693976
O19	O	0.914192	-0.072027	0.336469
O20	O	1.414192	0.427973	0.836469
C21	C	0.780914	-0.000076	0.194216
C22	C	1.280914	0.499924	0.694216
C23	C	0.694107	-0.000067	0.185585
C24	C	1.194107	0.499933	0.685585
N25	N	0.913519	-0.204858	0.210066
N26	N	1.413519	0.295142	0.710066
C27	C	0.644122	-0.000063	0.264818
C28	C	1.144122	0.499937	0.764818
C29	C	0.562557	-0.000075	0.256704
C30	C	1.062557	0.499925	0.756704
C31	C	0.530980	-0.000086	0.169357
C32	C	1.030980	0.499914	0.669357
C33	C	0.580972	-0.000093	0.090119
C34	C	1.080972	0.499907	0.590119
C35	C	0.662535	-0.000086	0.098234
C36	C	1.162535	0.499914	0.598234
C37	C	0.285175	-0.000111	0.140689
C38	C	0.785175	0.499889	0.640689
C39	C	0.203606	-0.000114	0.132580
C40	C	0.703606	0.499886	0.632580
C41	C	0.185197	-0.000098	0.299167
C42	C	0.685197	0.499902	0.799167
C43	C	0.266762	-0.000087	0.307274
C44	C	0.766762	0.499913	0.807274
C45	C	0.316746	-0.000098	0.228036
C46	C	0.816746	0.499902	0.728036
C47	C	0.447609	-0.000096	0.161062
C48	C	0.947609	0.499904	0.661062
C49	C	0.400116	-0.000095	0.236332
C50	C	0.900116	0.499905	0.736332
C51	C	0.964322	-0.250143	0.154078
C52	C	1.464322	0.249857	0.654078
C53	C	0.959759	-0.340715	0.159112
C54	C	1.459759	0.159285	0.659112
C55	C	0.904395	-0.386000	0.220139
C56	C	1.404395	0.114000	0.720139
C57	C	0.853586	-0.340708	0.276129
C58	C	1.353586	0.159292	0.776129
C59	C	0.858147	-0.250138	0.271090
C60	C	1.358147	0.249862	0.771090
C61	C	0.887966	-0.659464	0.238277
C62	C	1.387966	-0.159464	0.738277
C63	C	0.883411	-0.750041	0.243314
C64	C	1.383411	-0.250041	0.743314
C65	C	0.989583	-0.750042	0.126294
C66	C	1.489583	-0.250042	0.626294
C67	C	0.994142	-0.659470	0.121265
C68	C	1.494142	-0.159470	0.621265
C69	C	0.943330	-0.614186	0.177251
C70	C	1.443330	-0.114186	0.677251
C71	C	0.899730	-0.478579	0.225288
C72	C	1.399730	0.021421	0.725288
C73	C	0.947992	-0.521608	0.172097
C74	C	1.447992	-0.021608	0.672097
C75	C	1.066814	-0.000106	0.203183
C76	C	1.566814	0.499894	0.703183
C77	C	1.153620	-0.000110	0.211813
C78	C	1.653620	0.499890	0.711813
C79	C	0.929336	-0.000101	0.030520
C80	C	1.429336	0.499899	0.530520
C81	C	0.927650	-0.000101	-0.071990
C82	C	1.427650	0.499899	0.428010
N83	N	0.934214	0.204673	0.187325
N84	N	1.434214	0.704673	0.687325
C85	C	0.921445	-0.000078	-0.447362
C86	C	1.421445	0.499922	0.052638
C87	C	0.923168	-0.000085	-0.342922
C88	C	1.423168	0.499915	0.157078
C89	C	0.924548	-0.000090	-0.259679
C90	C	1.424548	0.499910	0.240321
C91	C	0.926271	-0.000095	-0.155232
C92	C	1.426271	0.499905	0.344768
C93	C	0.918391	-0.000082	0.366878
C94	C	1.418391	0.499918	0.866878
C95	C	0.920077	-0.000076	0.469388
C96	C	1.420077	0.499924	0.969388
H97	H	0.669825	-0.000053	0.335945
H98	H	1.169825	0.499947	0.835945
C99	C	0.507576	-0.000067	0.343860
C100	C	1.007576	0.499933	0.843860
H101	H	0.538065	-0.000049	0.397042
H102	H	1.038065	0.499951	0.897042
H103	H	0.472848	-0.050247	0.346949
H104	H	0.972848	0.449753	0.846949
H105	H	0.477905	0.050113	0.341367
H106	H	0.977905	0.550113	0.841367
H107	H	0.846595	-0.622601	0.283865
H108	H	1.346595	-0.122601	0.783865
H109	H	0.808504	-0.377584	0.325816
H110	H	1.308504	0.122416	0.825816
H111	H	0.421889	-0.000129	0.089944
H112	H	0.921889	0.499871	0.589944
C113	C	0.802266	-0.200324	0.332681
C114	C	1.302266	0.299676	0.832681
H115	H	0.768645	-0.240264	0.369755
H116	H	1.268645	0.259736	0.869755
H117	H	0.771452	-0.165002	0.294962
H118	H	1.271452	0.334998	0.794962
H119	H	0.832230	-0.164983	0.371339
H120	H	1.332230	0.335017	0.871339
C121	C	0.168869	-0.000133	0.036497
C122	C	0.668869	0.499867	0.536497
H123	H	0.113135	-0.000125	0.043016
H124	H	0.613135	0.499875	0.543016
H125	H	0.183485	-0.050314	0.006393
H126	H	0.683485	0.449686	0.506393
H127	H	0.188548	0.050046	0.000813
H128	H	0.688548	0.550046	0.500813
C129	C	0.301490	-0.000088	0.403356
C130	C	0.801490	0.499912	0.903356
H131	H	0.260037	-0.000096	0.449384
H132	H	0.760037	0.499904	0.949384
H133	H	0.335456	0.050089	0.407203
H134	H	0.835456	0.550089	0.907203
H135	H	0.330392	-0.050271	0.412763
H136	H	0.830392	0.449729	0.912763
C137	C	0.717522	-0.000090	0.011081
C138	C	1.217522	0.499910	0.511081
H139	H	0.770619	-0.000094	0.028423
H140	H	1.270619	0.499906	0.528423
H141	H	0.710470	0.050081	-0.027262
H142	H	1.210470	0.550081	0.472738
H143	H	0.705407	-0.050278	-0.021680
H144	H	1.205407	0.449722	0.478320
C145	C	0.546240	-0.000103	-0.005961
C146	C	1.046240	0.499897	0.494039
H147	H	0.490505	-0.000096	0.000552
H148	H	0.990505	0.499904	0.500552
H149	H	0.560859	-0.050280	-0.036070
H150	H	1.060859	0.449720	0.463930
H151	H	0.565921	0.050080	-0.041637
H152	H	1.065921	0.550080	0.458363
C153	C	1.008889	-0.471802	0.104970
C154	C	1.508889	0.028198	0.604970
H155	H	1.038494	-0.511741	0.072340
H156	H	1.538494	-0.011741	0.572340
H157	H	1.043256	-0.436457	0.138763
H158	H	1.543256	0.063543	0.638763
H159	H	0.982483	-0.436484	0.062380
H160	H	1.482483	0.063516	0.562380
H161	H	1.001126	-0.377587	0.113522
H162	H	1.501126	0.122413	0.613522
C163	C	1.055037	-0.609663	0.054129
C164	C	1.555037	-0.109663	0.554129
H165	H	1.084636	-0.649606	0.021498
H166	H	1.584636	-0.149606	0.521498
H167	H	1.089409	-0.574319	0.087916
H168	H	1.589409	-0.074319	0.587916
H169	H	1.028630	-0.574344	0.011541
H170	H	1.528630	-0.074344	0.511541
H171	H	0.425829	-0.000091	0.307450
H172	H	0.925829	0.499909	0.807450
H173	H	0.144491	-0.000091	0.363678
H174	H	0.644491	0.499909	0.863678
H175	H	1.009409	-0.213278	0.104388
H176	H	1.509409	0.286722	0.604388
C177	C	0.340147	-0.000117	0.053530
C178	C	0.840147	0.499883	0.553530
H179	H	0.309658	-0.000115	0.000350
H180	H	0.809658	0.499885	0.500350
H181	H	0.369818	-0.050293	0.056016
H182	H	0.869818	0.449707	0.556016
H183	H	0.374877	0.050067	0.050444
H184	H	0.874877	0.550067	0.550444
C185	C	0.822467	-0.799853	0.310394
C186	C	1.322467	-0.299853	0.810394
H187	H	0.792841	-0.759913	0.342996
H188	H	1.292841	-0.259913	0.842996
H189	H	0.848825	-0.835196	0.352999
H190	H	1.348825	-0.335196	0.852999
H191	H	0.788114	-0.835172	0.276548
H192	H	1.288114	-0.335172	0.776548
H193	H	1.030950	-0.786920	0.080711
H194	H	1.530950	-0.286920	0.580711
C195	C	0.838807	-0.528392	0.292384
C196	C	1.338807	-0.028392	0.792384
H197	H	0.809189	-0.488453	0.324997
H198	H	1.309189	0.011547	0.824997
H199	H	0.865178	-0.563734	0.334977
H200	H	1.365178	-0.063734	0.834977
H201	H	0.804445	-0.563712	0.258550
H202	H	1.304445	-0.063712	0.758550
