data_functionalizedCrystal
_audit_creation_method	'MofGen! by Chris Wilmer'
_symmetry_space_group_name_H-M	'P1'
_symmetry_Int_Tables_number	1
_symmetry_cell_setting	triclinic
loop_
_symmetry_equiv_pos_as_xyz
  x,y,z
_cell_length_a	17.699083
_cell_length_b	17.666332
_cell_length_c	17.699083
_cell_angle_alpha	90.007371
_cell_angle_beta	96.716985
_cell_angle_gamma	89.997106
loop_
_atom_site_label
_atom_site_type_symbol
_atom_site_fract_x
_atom_site_fract_y
_atom_site_fract_z
O1	O	-1.004081	0.062836	0.095712
O2	O	-0.783703	0.062863	0.108165
O3	O	-0.900118	0.062842	-0.008250
O4	O	-0.887666	0.062857	0.212128
O5	O	-0.900098	-0.063055	-0.008257
O6	O	-0.783682	-0.063034	0.108159
O7	O	-1.004061	-0.063061	0.095706
Cu8	Cu	-0.893870	-0.074543	0.101932
Cu9	Cu	-0.893894	0.074345	0.101939
O10	O	-0.887645	-0.063040	0.212122
C11	C	-0.755495	-0.000082	0.107716
C12	C	-0.671477	-0.000072	0.106377
C13	C	-0.622856	-0.000068	0.174710
C14	C	-0.543913	-0.000077	0.173448
C15	C	-0.513592	-0.000085	0.103852
C16	C	-0.562219	-0.000092	0.035513
C17	C	-0.641161	-0.000089	0.036776
C18	C	-0.243856	-0.000109	0.030418
C19	C	-0.164908	-0.000111	0.029160
C20	C	-0.146608	-0.000097	0.167090
C21	C	-0.225550	-0.000093	0.168353
C22	C	-0.274170	-0.000104	0.100015
C23	C	-0.359769	-0.000096	0.101384
C24	C	-0.427995	-0.000089	0.102481
N25	N	-0.893858	-0.179262	0.101926
C26	C	-0.945424	-0.218881	0.050403
C27	C	-0.945428	-0.298129	0.050399
C28	C	-0.893874	-0.337754	0.101932
C29	C	-0.842299	-0.298126	0.153460
C30	C	-0.842291	-0.218880	0.153457
N31	N	-0.884117	-0.462168	0.168921
N32	N	-0.884129	-0.537448	0.168921
C33	C	-0.893894	-0.576518	0.101943
N34	N	-0.903662	-0.537464	0.034962
N35	N	-0.903653	-0.462177	0.034962
C36	C	-0.893877	-0.423683	0.101941
C37	C	-0.945467	-0.702066	0.050411
C38	C	-0.945466	-0.781316	0.050406
C39	C	-0.842341	-0.781311	0.153473
C40	C	-0.842338	-0.702064	0.153471
C41	C	-0.893905	-0.662446	0.101941
C42	C	-0.032268	-0.000112	0.096156
C43	C	-0.116286	-0.000111	0.097494
C44	C	-0.899662	-0.000106	-0.036451
C45	C	-0.898323	-0.000107	-0.120469
N46	N	-0.893911	0.179064	0.101939
C47	C	-0.966656	-0.000116	-0.169090
C48	C	-0.965394	-0.000109	-0.248033
C49	C	-0.895798	-0.000098	-0.278354
C50	C	-0.827459	-0.000087	-0.229727
C51	C	-0.828722	-0.000088	-0.150785
C52	C	-0.822364	-0.000080	-0.548090
C53	C	-0.821106	-0.000081	-0.627038
C54	C	-0.959036	-0.000101	-0.645338
C55	C	-0.960299	-0.000102	-0.566396
C56	C	-0.891961	-0.000087	-0.517776
C57	C	-0.893330	-0.000093	-0.432177
C58	C	-0.894427	-0.000098	-0.363951
C59	C	-0.888102	-0.000090	0.240322
C60	C	-0.889440	-0.000085	0.324340
H61	H	-0.250232	-0.000083	0.225025
O62	O	-0.748656	-0.000066	-0.495659
H63	H	-0.761221	-0.000059	-0.435671
H64	H	-0.107012	-0.000092	0.222734
O65	O	-0.752391	-0.000083	-0.262423
H66	H	-0.762991	-0.000095	-0.325485
H67	H	-0.773078	-0.000080	-0.111198
H68	H	-0.987411	-0.186627	0.008442
O69	O	-1.001053	-0.340869	-0.005174
H70	H	-0.992391	-0.402630	0.003485
O71	O	-1.039096	-0.000132	-0.300477
H72	H	-1.087702	-0.000153	-0.266131
H73	H	-0.800322	-0.330393	0.195417
O74	O	-1.032746	-0.000117	-0.697780
H75	H	-1.066076	0.051185	-0.687006
H76	H	-0.987455	-0.813574	0.008445
O77	O	-1.041723	-0.000129	-0.136389
H78	H	-1.045601	0.051180	-0.100850
H79	H	-0.800352	-0.669804	0.195430
H80	H	-0.647537	-0.000060	0.231384
O81	O	-0.786735	-0.824037	0.209060
H82	H	-0.795406	-0.885799	0.200410
H83	H	-0.140225	-0.000119	-0.027517
H84	H	-0.987454	-0.669809	0.008449
O85	O	-0.296293	-0.000121	-0.043286
H86	H	-0.261944	-0.000121	-0.091890
H87	H	-0.800299	-0.186621	0.195414
H88	H	-0.537526	-0.000110	-0.021154
H89	H	-0.680748	-0.000092	-0.018868
H90	H	-1.016971	-0.000115	-0.541714
O91	O	-0.746038	-0.000063	-0.659745
H92	H	-0.698730	-0.000045	-0.612675
H93	H	-0.504328	-0.000072	0.229092
