data_functionalizedCrystal
_audit_creation_method	'MofGen! by Chris Wilmer'
_symmetry_space_group_name_H-M	'P1'
_symmetry_Int_Tables_number	1
_symmetry_cell_setting	triclinic
loop_
_symmetry_equiv_pos_as_xyz
  x,y,z
_cell_length_a	19.288864
_cell_length_b	15.995350
_cell_length_c	18.366186
_cell_angle_alpha	89.995992
_cell_angle_beta	89.977106
_cell_angle_gamma	83.314311
loop_
_atom_site_label
_atom_site_type_symbol
_atom_site_fract_x
_atom_site_fract_y
_atom_site_fract_z
O1	O	0.921624	0.104451	-0.060780
O2	O	1.421624	0.604451	0.439220
O3	O	0.719400	0.118542	-0.060729
O4	O	1.219400	0.618542	0.439271
O5	O	0.826040	-0.010412	-0.060755
O6	O	1.326040	0.489588	0.439245
O7	O	0.814984	0.233405	-0.060754
O8	O	1.314984	0.733405	0.439246
O9	O	0.826022	-0.010418	0.060344
O10	O	1.326022	0.489582	0.560344
O11	O	0.719382	0.118535	0.060370
O12	O	1.219382	0.618535	0.560370
O13	O	0.921606	0.104445	0.060320
O14	O	1.421606	0.604445	0.560320
Zn15	Zn	0.820491	0.111489	0.079572
Zn16	Zn	1.320491	0.611489	0.579572
Zn17	Zn	0.820515	0.111498	-0.079982
Zn18	Zn	1.320515	0.611498	0.420018
O19	O	0.814966	0.233399	0.060346
O20	O	1.314966	0.733399	0.560346
C21	C	0.693513	0.118085	-0.000173
C22	C	1.193513	0.618085	0.499827
C23	C	0.616406	0.116724	-0.000154
C24	C	1.116406	0.616724	0.499846
C25	C	0.571906	0.192388	-0.000165
C26	C	1.071906	0.692388	0.499835
C27	C	0.499456	0.191110	-0.000173
C28	C	0.999456	0.691110	0.499827
C29	C	0.471508	0.114163	-0.000185
C30	C	0.971508	0.614163	0.499815
C31	C	0.516018	0.038489	-0.000170
C32	C	1.016018	0.538489	0.499830
C33	C	0.588467	0.039769	-0.000155
C34	C	1.088467	0.539769	0.499845
C35	C	0.363096	0.053676	-0.042636
C36	C	0.863096	0.553676	0.457364
C37	C	0.290648	0.052398	-0.042656
C38	C	0.790648	0.552398	0.457344
C39	C	0.248053	0.110209	-0.000229
C40	C	0.748053	0.610209	0.499771
C41	C	0.277912	0.169312	0.042208
C42	C	0.777912	0.669312	0.542208
C43	C	0.350361	0.170593	0.042224
C44	C	0.850361	0.670593	0.542224
C45	C	0.392951	0.112765	-0.000201
C46	C	0.892951	0.612765	0.499799
C47	C	0.124993	0.184492	-0.000248
C48	C	0.624993	0.684492	0.499752
C49	C	0.052542	0.183210	-0.000251
C50	C	0.552542	0.683210	0.499749
C51	C	0.069106	0.030587	-0.000255
C52	C	0.569106	0.530587	0.499745
C53	C	0.141556	0.031871	-0.000244
C54	C	0.641556	0.531871	0.499756
C55	C	0.169495	0.108826	-0.000244
C56	C	0.669495	0.608826	0.499756
C57	C	0.825574	-0.041608	-0.000207
C58	C	1.325574	0.458392	0.499793
C59	C	0.824203	-0.134553	-0.000211
C60	C	1.324203	0.365447	0.499789
C61	C	0.819282	-0.472282	-0.000207
C62	C	1.319282	0.027718	0.499793
C63	C	0.743335	-0.424562	-0.000460
C64	C	1.243335	0.075438	0.499540
C65	C	0.744706	-0.327877	-0.000187
C66	C	1.244706	0.172123	0.499813
C67	C	0.821723	-0.304731	-0.000209
C68	C	1.321723	0.195269	0.499791
C69	C	0.859173	-0.345953	0.068934
C70	C	1.359173	0.154047	0.568934
C71	C	0.857265	-0.442582	0.068992
C72	C	1.357265	0.057418	0.568992
C73	C	0.858854	-0.442939	-0.068721
C74	C	1.358854	0.057061	0.431279
C75	C	0.858836	-0.345993	-0.069635
C76	C	1.358836	0.154007	0.430365
C77	C	0.823107	-0.210039	-0.000208
C78	C	1.323107	0.289961	0.499792
C79	C	0.817901	-0.566975	-0.000203
C80	C	1.317901	-0.066975	0.499797
C81	C	0.947492	0.104902	-0.000238
C82	C	1.447492	0.604902	0.499762
C83	C	1.024600	0.106263	-0.000262
C84	C	1.524600	0.606263	0.499738
C85	C	0.815432	0.264595	-0.000204
C86	C	1.315432	0.764595	0.499796
C87	C	0.816802	0.357540	-0.000206
C88	C	1.316802	0.857540	0.499794
N89	N	0.820480	0.111483	0.188463
N90	N	1.320480	0.611483	0.688463
N91	N	0.820531	0.111497	-0.188873
N92	N	1.320531	0.611497	0.311127
C93	C	0.867715	0.054410	0.226552
C94	C	1.367715	0.554410	0.726552
C95	C	0.867720	0.054407	0.302780
C96	C	1.367720	0.554407	0.802780
C97	C	0.820495	0.111490	0.340916
C98	C	1.320495	0.611490	0.840916
C99	C	0.773250	0.168567	0.302818
C100	C	1.273250	0.668567	0.802818
C101	C	0.773243	0.168564	0.226591
C102	C	1.273243	0.668564	0.726591
C103	C	0.811395	0.187781	0.461678
C104	C	1.311395	0.687781	0.961678
C105	C	0.811407	0.187785	0.537903
C106	C	1.311407	0.687785	1.037903
C107	C	0.820515	0.111500	0.576023
C108	C	1.320515	0.611500	1.076023
C109	C	0.829624	0.035208	0.537909
C110	C	1.329624	0.535208	1.037909
C111	C	0.829617	0.035204	0.461683
C112	C	1.329617	0.535204	0.961683
C113	C	0.820498	0.111500	0.423571
C114	C	1.320498	0.611500	0.923571
C115	C	0.867758	0.054419	0.696767
C116	C	1.367758	0.554419	1.196767
C117	C	0.867757	0.054414	0.772996
C118	C	1.367757	0.554414	1.272996
C119	C	0.773292	0.168582	0.773033
C120	C	1.273292	0.668582	1.273033
C121	C	0.773289	0.168579	0.696805
C122	C	1.273289	0.668579	1.196805
C123	C	0.820525	0.111499	0.658677
C124	C	1.320525	0.611499	1.158677
H125	H	0.493259	-0.024162	-0.000189
H126	H	0.993259	0.475838	0.499811
H127	H	0.147742	0.247153	-0.000237
H128	H	0.647742	0.747153	0.499763
C129	C	0.383209	0.235592	0.088905
C130	C	0.883209	0.735592	0.588905
H131	H	0.432456	0.228076	0.082832
H132	H	0.932456	0.728076	0.582832
H133	H	0.372108	0.228022	0.138688
H134	H	0.872108	0.728022	0.638688
H135	H	0.365336	0.290784	0.073983
H136	H	0.865336	0.790784	0.573983
C137	C	0.637422	-0.043462	-0.000148
C138	C	1.137422	0.456538	0.499852
H139	H	0.684571	-0.031678	-0.000135
H140	H	1.184571	0.468322	0.499865
H141	H	0.628973	-0.075026	-0.042379
H142	H	1.128973	0.424974	0.457621
H143	H	0.628930	-0.075026	0.042086
H144	H	1.128930	0.424974	0.542086
C145	C	0.038376	-0.054056	-0.000265
C146	C	0.538376	0.445944	0.499735
H147	H	0.075259	-0.098937	-0.000253
H148	H	0.575259	0.401063	0.499747
H149	H	0.010479	-0.057728	-0.042498
H150	H	0.510479	0.442272	0.457502
H151	H	0.010437	-0.057727	0.041967
H152	H	0.510437	0.442273	0.541967
C153	C	0.003591	0.266445	-0.000264
C154	C	0.503591	0.766445	0.499736
H155	H	0.030610	0.312457	-0.000268
H156	H	0.530610	0.812457	0.499732
H157	H	-0.025039	0.269122	0.041961
H158	H	0.474961	0.769122	0.541961
H159	H	-0.024991	0.269114	-0.042504
H160	H	0.475009	0.769114	0.457496
H161	H	0.734828	0.215057	0.665791
H162	H	1.234828	0.715057	1.165791
H163	H	0.463217	0.252727	-0.000180
H164	H	0.963217	0.752727	0.499820
C165	C	0.409948	-0.009920	-0.089306
C166	C	0.909948	0.490080	0.410694
H167	H	0.457372	-0.000699	-0.083214
H168	H	0.957372	0.499301	0.416786
H169	H	0.397305	-0.002770	-0.139094
H170	H	0.897305	0.497230	0.360906
H171	H	0.404077	-0.065530	-0.074388
H172	H	0.904077	0.434470	0.425612
C173	C	0.704653	-0.290076	0.066902
C174	C	1.204653	0.209924	0.566902
H175	H	0.705348	-0.230787	0.067294
H176	H	1.205348	0.269213	0.567294
H177	H	0.726184	-0.313641	0.109913
H178	H	1.226184	0.186359	0.609913
H179	H	0.657707	-0.302470	0.064880
H180	H	1.157707	0.197530	0.564880
C181	C	0.934712	-0.325534	-0.075299
C182	C	1.434712	0.174466	0.424701
H183	H	0.944796	-0.291413	-0.035215
H184	H	1.444796	0.208587	0.464785
H185	H	0.940602	-0.296209	-0.119437
H186	H	1.440602	0.203791	0.380563
H187	H	0.965553	-0.376367	-0.074720
H188	H	1.465553	0.123633	0.425280
H189	H	0.803994	0.249907	0.568929
H190	H	1.303994	0.749907	1.068929
H191	H	0.177789	-0.029743	-0.000239
H192	H	0.677789	0.470257	0.499761
C193	C	0.231067	0.232912	0.088876
C194	C	0.731067	0.732912	0.588876
H195	H	0.183643	0.223682	0.082796
H196	H	0.683643	0.723682	0.582796
H197	H	0.236938	0.288517	0.073959
H198	H	0.736938	0.788517	0.573959
H199	H	0.243711	0.225761	0.138668
H200	H	0.743711	0.725761	0.638668
C201	C	0.919682	-0.008374	0.344687
C202	C	1.419682	0.491626	0.844687
H203	H	0.947815	-0.042366	0.311061
H204	H	1.447815	0.457634	0.811061
H205	H	0.894705	-0.043152	0.374442
H206	H	1.394705	0.456848	0.874442
H207	H	0.948595	0.021670	0.374402
H208	H	1.448595	0.521670	0.874402
C209	C	0.602636	0.277035	-0.000152
C210	C	1.102636	0.777035	0.499848
H211	H	0.565752	0.321915	-0.000152
H212	H	1.065752	0.821915	0.499848
H213	H	0.630581	0.280715	-0.042372
H214	H	1.130581	0.780715	0.457628
H215	H	0.630525	0.280702	0.042093
H216	H	1.130525	0.780702	0.542093
H217	H	0.829941	-0.460783	0.120694
H218	H	1.329941	0.039217	0.620694
H219	H	0.266342	0.004277	-0.077214
H220	H	0.766342	0.504277	0.422786
H221	H	0.713107	-0.444044	0.048862
H222	H	1.213107	0.055956	0.548862
C223	C	0.702330	-0.449445	-0.067434
C224	C	1.202330	0.050555	0.432566
H225	H	0.731156	-0.489164	-0.095842
H226	H	1.231156	0.010836	0.404158
H227	H	0.688366	-0.400815	-0.095908
H228	H	1.188366	0.099185	0.404092
H229	H	0.662172	-0.473730	-0.051866
H230	H	1.162172	0.026270	0.448134
H231	H	0.837032	-0.026916	0.430654
H232	H	1.337032	0.473084	0.930654
H233	H	0.831456	-0.318639	-0.120785
H234	H	1.331456	0.181361	0.379215
C235	C	0.704928	-0.289321	-0.067135
C236	C	1.204928	0.210679	0.432865
H237	H	0.687781	-0.332743	-0.094743
H238	H	1.187781	0.167257	0.405257
H239	H	0.735537	-0.261144	-0.096404
H240	H	1.235537	0.238856	0.403596
H241	H	0.666910	-0.250300	-0.051556
H242	H	1.166910	0.249700	0.448444
C243	C	0.932585	-0.486435	0.073223
C244	C	1.432585	0.013565	0.573223
H245	H	0.964213	-0.445170	0.074905
H246	H	1.464213	0.054830	0.574905
H247	H	0.942173	-0.520987	0.031523
H248	H	1.442173	-0.020987	0.531523
H249	H	0.937838	-0.520190	0.115869
H250	H	1.437838	-0.020190	0.615869
H251	H	0.915755	-0.332041	0.071489
H252	H	1.415755	0.167959	0.571489
H253	H	0.734798	0.215044	0.333872
H254	H	1.234798	0.715044	0.833872
H255	H	0.833147	-0.317476	0.120403
H256	H	1.333147	0.182524	0.620403
C257	C	0.801381	0.271700	0.419753
C258	C	1.301381	0.771700	0.919753
H259	H	0.795969	0.317136	0.453367
H260	H	1.295969	0.817136	0.953367
H261	H	0.760937	0.273523	0.390035
H262	H	1.260937	0.773523	0.890035
H263	H	0.841072	0.276217	0.389999
H264	H	1.341072	0.776217	0.889999
H265	H	0.734777	0.215040	0.195579
H266	H	1.234777	0.715040	0.695579
C267	C	0.919715	-0.008371	0.814898
C268	C	1.419715	0.491629	1.314898
H269	H	0.912949	-0.000203	0.865757
H270	H	1.412949	0.499797	1.365757
H271	H	0.966068	0.000582	0.802384
H272	H	1.466068	0.500582	1.302384
H273	H	0.912171	-0.064233	0.802412
H274	H	1.412171	0.435767	1.302412
H275	H	0.837040	-0.026911	0.568945
H276	H	1.337040	0.473089	1.068945
C277	C	0.825320	-0.470548	-0.139519
C278	C	1.325320	0.029452	0.360481
H279	H	0.786867	-0.500231	-0.127953
H280	H	1.286867	-0.000231	0.372047
H281	H	0.858835	-0.506147	-0.166531
H282	H	1.358835	-0.006147	0.333469
H283	H	0.809551	-0.422288	-0.167744
H284	H	1.309551	0.077712	0.332256
H285	H	0.914850	-0.474911	-0.069202
H286	H	1.414850	0.025089	0.430798
H287	H	0.906177	0.007930	0.195510
H288	H	1.406177	0.507930	0.695510
H289	H	0.906219	0.007938	0.665722
H290	H	1.406219	0.507938	1.165722
H291	H	0.734838	0.215057	0.804083
H292	H	1.234838	0.715057	1.304083
