data_functionalizedCrystal
_audit_creation_method	'MofGen! by Chris Wilmer'
_symmetry_space_group_name_H-M	'P1'
_symmetry_Int_Tables_number	1
_symmetry_cell_setting	triclinic
loop_
_symmetry_equiv_pos_as_xyz
  x,y,z
_cell_length_a	20.875519
_cell_length_b	14.628931
_cell_length_c	20.875625
_cell_angle_alpha	92.971375
_cell_angle_beta	119.833210
_cell_angle_gamma	121.682216
loop_
_atom_site_label
_atom_site_type_symbol
_atom_site_fract_x
_atom_site_fract_y
_atom_site_fract_z
Zr1	Zr	-0.740658	0.816723	-0.122783
O2	O	-0.881826	0.652193	-0.232565
O3	O	-0.599491	0.874782	-0.084027
O4	O	-0.740660	0.853890	-0.225206
O5	O	-0.740656	0.680895	0.014175
O6	O	-0.740660	1.004322	-0.225206
O7	O	-0.740658	0.673085	-0.091385
O8	O	-0.488135	1.041695	0.027338
O9	O	-0.993181	0.643523	-0.238369
O10	O	-0.657554	1.002601	-0.073662
O11	O	-0.657553	0.896164	0.005116
O12	O	-0.823761	0.871566	-0.161105
O13	O	-0.823760	0.765129	-0.082326
Zr14	Zr	-0.740654	1.069101	0.045574
Zr15	Zr	-0.740658	1.056645	-0.122783
Zr16	Zr	-0.740655	0.829179	0.045573
Zr17	Zr	-0.918255	0.802895	-0.132040
Zr18	Zr	-0.563057	1.082929	0.054831
O19	O	-0.881821	1.011042	0.006817
O20	O	-0.881826	0.993331	-0.232564
O21	O	-0.881822	0.669904	0.006817
O22	O	-0.599486	1.233631	0.155355
O23	O	-0.599491	1.215920	-0.084027
O24	O	-0.599487	0.892493	0.155355
O25	O	-0.740657	1.204929	-0.091385
O26	O	-0.740652	1.031934	0.147997
O27	O	-0.740653	0.881502	0.147997
O28	O	-0.740655	1.212739	0.014176
O29	O	-0.993180	0.834229	-0.238369
O30	O	-0.488132	1.051595	0.161159
O31	O	-0.488132	1.242301	0.161159
O32	O	-0.488134	1.232400	0.027338
O33	O	-0.993178	0.653424	-0.104548
O34	O	-0.993178	0.844130	-0.104548
O35	O	-0.657551	1.014258	0.083895
O36	O	-0.657553	1.120695	0.005116
O37	O	-0.823759	0.989660	-0.082326
O38	O	-0.823758	0.883223	-0.003547
C39	C	-0.518509	0.960209	-0.027026
C40	C	-0.443115	0.966079	-0.023096
C41	C	-0.469063	0.876877	-0.082615
C42	C	-0.398235	0.882394	-0.078951
C43	C	-0.301459	0.977108	-0.015763
C44	C	-0.275511	1.066318	0.043759
C45	C	-0.346339	1.060805	0.040091
C46	C	-0.083051	1.003459	0.001783
C47	C	-0.012223	1.008964	0.005448
C48	C	-0.134952	0.825040	-0.117263
C49	C	-0.205775	0.819532	-0.120922
C50	C	-0.179821	0.908745	-0.061403
N51	N	-0.229060	0.982746	-0.012015
N52	N	-0.252220	0.903110	-0.065155
C53	C	-0.740657	0.642806	-0.038605
C54	C	-0.740657	0.540953	-0.038605
C55	C	0.037203	0.925620	-0.050173
C56	C	-0.038172	0.919762	-0.054071
C57	C	-0.658207	0.560546	0.004772
C58	C	-0.658206	0.455277	0.004773
C59	C	-0.740660	0.927331	-0.249194
C60	C	-0.740662	0.922043	-0.320666
C61	C	-0.740656	1.243018	-0.038604
C62	C	-0.740655	1.344871	-0.038604
C63	C	-0.740663	1.002433	-0.354243
C64	C	-0.740656	0.997468	-0.421394
C65	C	-0.740654	0.912108	-0.454970
C66	C	-0.740650	0.831714	-0.421386
C67	C	-0.740650	0.836685	-0.354233
C68	C	-0.740647	0.888359	-0.655807
C69	C	-0.740649	0.883391	-0.722967
C70	C	-0.740654	1.049147	-0.722969
C71	C	-0.740660	1.054106	-0.655817
C72	C	-0.740650	0.973717	-0.622237
N73	N	-0.740650	0.907028	-0.523611
N74	N	-0.740648	0.978802	-0.553594
C75	C	-0.740652	0.958493	0.171984
C76	C	-0.740651	0.963781	0.243456
C77	C	-0.518509	1.260314	-0.027025
C78	C	-0.443114	1.368038	-0.023095
C79	C	-0.518505	0.975789	0.183563
C80	C	-0.443109	0.986947	0.258965
C81	C	-0.518505	1.275895	0.183563
C82	C	-0.443108	1.388906	0.258965
C83	C	-0.962808	0.609929	-0.260773
C84	C	-1.038204	0.496918	-0.336175
C85	C	-0.962804	0.625510	-0.050184
C86	C	-1.038199	0.517786	-0.054114
C87	C	-0.962807	0.910035	-0.260773
C88	C	-1.038203	0.898877	-0.336175
C89	C	-0.407708	1.356981	-0.062379
C90	C	-0.336877	1.458188	-0.058702
C91	C	-0.301447	1.570450	-0.015737
C92	C	-0.336859	1.581504	0.023547
C93	C	-0.407694	1.480298	0.019865
C94	C	-0.407702	1.053832	0.335503
C95	C	-0.336869	1.064312	0.406357
C96	C	-0.301440	1.007913	0.400671
C97	C	-0.336855	0.941020	0.324125
C98	C	-0.407691	0.930534	0.253272
C99	C	-0.407702	1.497547	0.253253
C100	C	-0.336869	1.603741	0.324094
C101	C	-0.301439	1.601292	0.400647
C102	C	-0.336852	1.492640	0.406357
C103	C	-0.407689	1.386448	0.335517
C104	C	-1.073619	0.388277	-0.330463
C105	C	-1.144474	0.282081	-0.401306
C106	C	-1.179908	0.284529	-0.477859
C107	C	-1.144490	0.393182	-0.483568
C108	C	-1.073641	0.499375	-0.412727
C109	C	-1.073611	0.528842	-0.014839
C110	C	-1.144463	0.427632	-0.018534
C111	C	-1.179895	0.315369	-0.061502
C112	C	-1.144479	0.304316	-0.100783
C113	C	-1.073634	0.405524	-0.097091
C114	C	-1.073609	0.955290	-0.330462
C115	C	-1.144442	0.944829	-0.401303
C116	C	-1.179873	0.877947	-0.477856
C117	C	-1.144460	0.821532	-0.483566
C118	C	-1.073623	0.832001	-0.412726
H119	H	0.066580	1.086094	0.056907
H120	H	-1.044773	1.009752	-0.268136
O121	O	-1.182647	0.749421	-0.566129
H122	H	-1.214920	0.656329	-0.574657
H123	H	-0.243759	1.687769	0.458324
O124	O	-0.298606	0.880234	0.318012
H125	H	-0.312179	0.816536	0.345944
H126	H	-0.308053	1.449165	-0.090692
O127	O	-1.256334	0.169981	-0.554261
H128	H	-1.229147	0.121564	-0.552798
H129	H	-0.811247	0.328262	-0.075746
O130	O	-1.035422	0.649913	0.031495
H131	H	-1.003163	0.666837	0.096378
O132	O	-1.182714	0.395812	-0.566140
H133	H	-1.123253	0.446398	-0.569878
H134	H	-0.436511	0.876074	0.190954
H135	H	-0.196710	1.143440	0.095204
H136	H	-1.173268	0.990769	-0.396638
O137	O	-0.225038	1.679607	-0.011762
H138	H	-0.206369	1.653048	-0.046291
O139	O	-1.182697	0.183228	-0.147119
H140	H	-1.214984	0.166284	-0.212009
H141	H	-0.811244	0.446245	-0.075740
O142	O	-0.445907	1.114667	0.341645
H143	H	-0.478193	1.080683	0.372560
H144	H	-1.044803	0.396506	-0.129072
H145	H	-1.044807	0.587832	-0.417387
H146	H	-0.740660	1.114597	-0.750315
H147	H	-0.308002	1.672922	0.058528
O148	O	-1.182647	0.164909	-0.395126
H149	H	-1.260789	0.110296	-0.427803
H150	H	-1.044804	0.786055	-0.417388
O151	O	-0.445866	1.492231	0.062251
H152	H	-0.409314	1.587301	0.092752
H153	H	-0.308043	1.118786	0.468677
O154	O	-0.225022	1.019249	0.477094
H155	H	-0.206347	1.075252	0.531269
H156	H	-1.173286	0.436656	0.013456
H157	H	-0.740642	0.822901	-0.628472
H158	H	-1.237582	0.232969	-0.064501
O159	O	-0.445920	1.500201	0.170689
H160	H	-0.409401	1.593595	0.178632
H161	H	-0.307994	1.490664	0.468696
H162	H	-0.587618	0.471877	0.041904
O163	O	-0.573442	0.774727	-0.150772
H164	H	-0.579583	0.713635	-0.191549
H165	H	-0.740670	1.071938	-0.326913
O166	O	-1.256289	0.866644	-0.554259
H167	H	-1.229100	0.956034	-0.552789
O168	O	-0.426219	0.786182	-0.143144
H169	H	-0.505412	0.719388	-0.187691
H170	H	-0.284572	0.742420	-0.172387
H171	H	-0.308043	1.692200	0.319431
H172	H	-0.740661	1.123613	-0.628481
O173	O	-0.445855	1.269272	0.341682
H174	H	-0.409301	1.285424	0.406818
O175	O	-1.035413	0.385621	-0.247900
H176	H	-1.071961	0.292226	-0.255844
H177	H	-0.061907	1.076103	0.050248
O178	O	-0.162946	0.728835	-0.181468
H179	H	-0.097440	0.748583	-0.168312
H180	H	-0.587621	0.655254	0.041911
O181	O	-0.318363	1.157012	0.104282
H182	H	-0.275342	1.160623	0.165157
O183	O	-0.740681	1.084161	-0.457617
H184	H	-0.675823	1.176006	-0.410600
O185	O	-0.740639	0.791329	-0.759184
H186	H	-0.675757	0.803703	-0.712168
O187	O	-0.740659	0.739635	-0.457601
H188	H	-0.675796	0.784537	-0.454078
O189	O	-0.740655	0.749976	-0.318015
H190	H	-0.740664	0.689775	-0.352649
H191	H	-0.436555	1.265579	-0.097375
