data_functionalizedCrystal
_audit_creation_method	'MofGen! by Chris Wilmer'
_symmetry_space_group_name_H-M	'P1'
_symmetry_Int_Tables_number	1
_symmetry_cell_setting	triclinic
loop_
_symmetry_equiv_pos_as_xyz
  x,y,z
_cell_length_a	17.077402
_cell_length_b	17.077404
_cell_length_c	17.077404
_cell_angle_alpha	90.005946
_cell_angle_beta	90.012872
_cell_angle_gamma	90.025453
loop_
_atom_site_label
_atom_site_type_symbol
_atom_site_fract_x
_atom_site_fract_y
_atom_site_fract_z
Zn1	Zn	-0.312629	1.199937	0.443839
Zn2	Zn	-0.443867	1.199870	0.312572
Zn3	Zn	-0.312619	1.068700	0.312587
Zn4	Zn	-0.443857	1.068631	0.443796
O5	O	-0.378243	1.134284	0.378199
O6	O	-0.330046	1.309775	0.426438
O7	O	-0.426456	1.182470	0.202727
O8	O	-0.202774	1.086165	0.330023
O9	O	-0.426466	1.309725	0.329997
O10	O	-0.202781	1.182585	0.426453
O11	O	-0.330029	1.086100	0.202738
O12	O	-0.330020	0.958844	0.329981
O13	O	-0.426449	1.086049	0.553648
O14	O	-0.426440	0.958793	0.426379
O15	O	-0.330036	1.182518	0.553681
O16	O	-0.553712	1.182404	0.329955
O17	O	-0.553705	1.085984	0.426364
C18	C	-0.378229	0.930336	0.378177
C19	C	-0.378241	0.843087	0.378186
C20	C	-0.582191	1.134200	0.378170
C21	C	-0.669441	1.134236	0.378184
C22	C	-0.428523	0.802091	0.428300
C23	C	-0.428525	0.720110	0.428313
C24	C	-0.378248	0.679127	0.378207
C25	C	-0.327961	0.720129	0.328091
C26	C	-0.327956	0.802108	0.328083
C27	C	-0.327977	0.549259	0.328110
C28	C	-0.327983	0.467274	0.328116
C29	C	-0.428545	0.467261	0.428340
C30	C	-0.428540	0.549240	0.428332
C31	C	-0.378254	0.590236	0.378214
C32	C	-1.045195	1.184576	0.428502
C33	C	-0.963214	1.184541	0.428483
C34	C	-0.922289	1.134360	0.378231
C35	C	-0.963349	1.084217	0.327988
C36	C	-1.045328	1.084257	0.328003
C37	C	-0.792479	1.084136	0.327961
C38	C	-0.710494	1.084095	0.327947
C39	C	-0.710366	1.184420	0.428441
C40	C	-0.792344	1.184460	0.428456
C41	C	-0.833398	1.134316	0.378214
C42	C	-0.173499	1.134390	0.378245
C43	C	-0.086249	1.134435	0.378264
C44	C	-0.378243	1.134283	0.582943
C45	C	-0.378243	1.134283	0.670193
C46	C	-0.378258	1.339029	0.378221
C47	C	-0.378264	1.426278	0.378230
C48	C	-0.328040	1.084110	0.711188
C49	C	-0.328046	1.084107	0.793169
C50	C	-0.378252	1.134281	0.834152
C51	C	-0.428461	1.184456	0.793151
C52	C	-0.428458	1.184454	0.711172
C53	C	-0.428463	1.184456	0.964021
C54	C	-0.428465	1.184458	1.046006
C55	C	-0.328051	1.084108	1.046018
C56	C	-0.328048	1.084107	0.964039
C57	C	-0.378256	1.134283	0.923043
C58	C	-0.378261	1.134281	1.174251
C59	C	-0.378262	1.134286	1.087001
H60	H	-0.469467	0.835454	0.469100
H61	H	-0.929789	1.225370	0.469389
Br62	Br	-1.100728	1.252677	0.496710
Br63	Br	-0.907809	1.016119	0.259782
H64	H	-0.469333	1.225316	0.677795
Br65	Br	-0.259756	0.411654	0.260109
H66	H	-0.469341	1.225321	0.930645
Br67	Br	-0.496765	0.664476	0.496330
H68	H	-0.469488	0.433879	0.469150
Br69	Br	-0.496781	0.604861	0.496326
Br70	Br	-0.847886	1.252550	0.496669
Br71	Br	-0.654651	1.252477	0.496623
Br72	Br	-0.848195	1.016088	0.259770
H73	H	-1.078753	1.043427	0.287094
Br74	Br	-0.259902	1.016021	0.908418
H75	H	-0.677177	1.043234	0.287025
H76	H	-0.287021	0.582635	0.287306
H77	H	-0.287151	1.043257	0.677825
Br78	Br	-0.259953	1.015970	0.848802
H79	H	-0.287022	0.686754	0.287297
H80	H	-0.287169	1.043254	1.079400
H81	H	-0.469344	1.225304	0.826526
Br82	Br	-0.259710	0.857746	0.260072
Br83	Br	-0.496596	1.252559	1.101626
