data_functionalizedCrystal
_audit_creation_method	'MofGen! by Chris Wilmer'
_symmetry_space_group_name_H-M	'P1'
_symmetry_Int_Tables_number	1
_symmetry_cell_setting	triclinic
loop_
_symmetry_equiv_pos_as_xyz
  x,y,z
_cell_length_a	12.759401
_cell_length_b	15.297327
_cell_length_c	12.759393
_cell_angle_alpha	99.641342
_cell_angle_beta	89.982620
_cell_angle_gamma	99.706546
loop_
_atom_site_label
_atom_site_type_symbol
_atom_site_fract_x
_atom_site_fract_y
_atom_site_fract_z
Zn1	Zn	1.533786	-0.359100	-0.666296
Zn2	Zn	1.503239	-0.509988	-0.521002
Zn3	Zn	1.358082	-0.359148	-0.490645
Zn4	Zn	1.327646	-0.509918	-0.696629
O5	O	1.430688	-0.434539	-0.593643
O6	O	1.676753	-0.379125	-0.647032
O7	O	1.483937	-0.490028	-0.369964
O8	O	1.406912	-0.232897	-0.488547
O9	O	1.654310	-0.489982	-0.540285
O10	O	1.536001	-0.232862	-0.617597
O11	O	1.377291	-0.379207	-0.347661
O12	O	1.207026	-0.379139	-0.517960
O13	O	1.355037	-0.489863	-0.839617
O14	O	1.184664	-0.489909	-0.669295
O15	O	1.506488	-0.379057	-0.817331
O16	O	1.454424	-0.636224	-0.569698
O17	O	1.325417	-0.636172	-0.698730
C18	C	1.157724	-0.434522	-0.593625
C19	C	1.040945	-0.434537	-0.593647
C20	C	0.974448	-0.492307	-0.672355
C21	C	0.864722	-0.492319	-0.672369
C22	C	0.887999	-0.376787	-0.514957
C23	C	0.997724	-0.376771	-0.514949
C24	C	1.017669	-0.550072	-0.751053
C25	C	0.951171	-0.607848	-0.829767
C26	C	0.841444	-0.607860	-0.829781
C27	C	0.798216	-0.550095	-0.751081
C28	C	1.383331	-0.668932	-0.640823
C29	C	1.363168	-0.769206	-0.661041
C30	C	1.575233	-1.051845	-0.449495
C31	C	1.594176	-0.957632	-0.430493
C32	C	1.536426	-0.910521	-0.488128
C33	C	1.459728	-0.957632	-0.564769
C34	C	1.440776	-1.051854	-0.583767
C35	C	1.401970	-0.910530	-0.622401
C36	C	1.325272	-0.957641	-0.699041
C37	C	1.306324	-1.051854	-0.718036
C38	C	1.364075	-1.098965	-0.660401
C39	C	1.420922	-0.816308	-0.603403
C40	C	1.286466	-0.816317	-0.737675
C41	C	1.267522	-0.910530	-0.756677
C42	C	1.704718	-0.434556	-0.593661
C43	C	1.821493	-0.434563	-0.593669
C44	C	1.430775	-0.434447	-0.867658
C45	C	1.430812	-0.434408	-0.984427
C46	C	1.478259	-0.199230	-0.546302
C47	C	1.498531	-0.098956	-0.526128
C48	C	1.375312	-0.376692	-1.027680
C49	C	1.375349	-0.376665	-1.137398
C50	C	1.486395	-0.492072	-1.160602
C51	C	1.486351	-0.492103	-1.050886
C52	C	1.319773	-0.318997	-0.961220
C53	C	1.264270	-0.261276	-1.004472
C54	C	1.264307	-0.261250	-1.114191
C55	C	1.319848	-0.318944	-1.180658
C56	C	1.430675	-0.434565	-0.320681
C57	C	1.430893	-0.434350	-0.203862
H58	H	0.787305	-0.654897	-0.893879
O59	O	1.319586	-0.318938	-0.854624
C60	C	1.258691	-0.255624	-0.805234
H61	H	1.199886	-0.242965	-0.865917
H62	H	1.313649	-0.189853	-0.772541
C63	C	1.269594	-0.307959	-0.638938
C64	C	1.197362	-0.292416	-0.713469
H65	H	1.231766	-0.330651	-0.582330
H66	H	1.310624	-0.350613	-0.672211
H67	H	1.315387	-0.253146	-0.611707
H68	H	1.151580	-0.347231	-0.740708
H69	H	1.156323	-0.249773	-0.680198
H70	H	1.348657	-1.175681	-0.675870
O71	O	0.691604	-0.550219	-0.751249
C72	C	0.642185	-0.613561	-0.837628
H73	H	0.694749	-0.666303	-0.862823
H74	H	0.630008	-0.577861	-0.907129
C75	C	0.469081	-0.594956	-0.773122
C76	C	0.533638	-0.659738	-0.804061
H77	H	0.402123	-0.623438	-0.752419
H78	H	0.502375	-0.552279	-0.714928
H79	H	0.458946	-0.565211	-0.831045
H80	H	0.543783	-0.689475	-0.746134
H81	H	0.500343	-0.702422	-0.862244
H82	H	0.852793	-0.329759	-0.450883
H83	H	1.051869	-0.329723	-0.450864
O84	O	1.495353	-0.770650	-0.528837
C85	C	1.467783	-0.793743	-0.428762
H86	H	1.413629	-0.862179	-0.440352
H87	H	1.424442	-0.740777	-0.382650
C88	C	1.635882	-0.714018	-0.351845
C89	C	1.569376	-0.798076	-0.366080
H90	H	1.698548	-0.716687	-0.313176
H91	H	1.654455	-0.698456	-0.419266
H92	H	1.599752	-0.669888	-0.313421
H93	H	1.605501	-0.842201	-0.404514
H94	H	1.550811	-0.813645	-0.298663
O95	O	1.231699	-1.097661	-0.792338
C96	C	1.152909	-1.152266	-0.743479
H97	H	1.152156	-1.123930	-0.655014
H98	H	1.171042	-1.223649	-0.754276
C99	C	1.044289	-1.188564	-0.903676
C100	C	1.043358	-1.153758	-0.795024
H101	H	0.976713	-1.189489	-0.935474
H102	H	1.097373	-1.151779	-0.936595
H103	H	1.059405	-1.248047	-0.912659
H104	H	1.028256	-1.094272	-0.786043
H105	H	0.990269	-1.190533	-0.762104
H106	H	1.205073	-0.948901	-0.819078
H107	H	1.239438	-0.777960	-0.784605
H108	H	1.551854	-0.833809	-0.472651
O109	O	1.540182	-0.548292	-1.009000
C110	C	1.499028	-0.638198	-1.053872
H111	H	1.458306	-0.640042	-1.133916
H112	H	1.438835	-0.668589	-0.998239
C113	C	1.640411	-0.690595	-0.971604
C114	C	1.590403	-0.692861	-1.069919
H115	H	1.696773	-0.724316	-0.981498
H116	H	1.668135	-0.630025	-0.941369
H117	H	1.590239	-0.715920	-0.925253
H118	H	1.640570	-0.667526	-1.116263
H119	H	1.562689	-0.753429	-1.100162
H120	H	1.319870	-0.318919	-1.269998
H121	H	1.656622	-0.919278	-0.368092
H122	H	1.622238	-1.090211	-0.402570
O123	O	1.210374	-0.205101	-1.156029
C124	C	1.161325	-0.154206	-1.073843
H125	H	1.204961	-0.151109	-0.995006
H126	H	1.074848	-0.187236	-1.068815
C127	C	1.112021	-0.061981	-1.194182
C128	C	1.165622	-0.058170	-1.097355
H129	H	1.114667	-0.002743	-1.208686
H130	H	1.145063	-0.096272	-1.249553
H131	H	1.039963	-0.089510	-1.189980
H132	H	1.237682	-0.030652	-1.101562
H133	H	1.132592	-0.023873	-1.041984
H134	H	1.107012	-0.550071	-0.751050
H135	H	1.219044	-0.214309	-0.950349
H136	H	1.531616	-0.539042	-1.214727
H137	H	0.986376	-0.654872	-0.893847
