data_functionalizedCrystal
_audit_creation_method	'MofGen! by Chris Wilmer'
_symmetry_space_group_name_H-M	'P1'
_symmetry_Int_Tables_number	1
_symmetry_cell_setting	triclinic
loop_
_symmetry_equiv_pos_as_xyz
  x,y,z
_cell_length_a	10.868271
_cell_length_b	11.792241
_cell_length_c	11.792254
_cell_angle_alpha	84.196007
_cell_angle_beta	89.995741
_cell_angle_gamma	89.994719
loop_
_atom_site_label
_atom_site_type_symbol
_atom_site_fract_x
_atom_site_fract_y
_atom_site_fract_z
O1	O	-0.102322	0.155637	1.506900
O2	O	-0.102324	0.171655	1.176561
O3	O	-0.102314	-0.001524	1.349747
O4	O	-0.102332	0.328816	1.333714
O5	O	0.102330	-0.001531	1.349732
O6	O	0.102320	0.171648	1.176546
O7	O	0.102323	0.155630	1.506885
Zn8	Zn	0.134813	0.163638	1.341714
Zn9	Zn	-0.134815	0.163647	1.341733
O10	O	0.102313	0.328809	1.333699
C11	C	-0.000002	0.170642	1.134263
C12	C	-0.000003	0.167622	1.008250
N13	N	0.318827	0.163631	1.341709
N14	N	-0.318829	0.163645	1.341746
C15	C	0.000008	-0.043819	1.348732
C16	C	0.000006	-0.169832	1.345718
C17	C	0.569833	0.163645	1.341727
C18	C	0.430156	0.163640	1.341713
C19	C	-0.000014	-0.400545	1.340175
C20	C	-0.000003	-0.272160	1.343255
C21	C	-0.000012	0.371104	1.334714
C22	C	-0.000019	0.497118	1.337728
C23	C	-0.000008	0.165168	0.905913
C24	C	-0.000009	0.162100	0.777527
C25	C	-0.000002	0.156643	1.549183
C26	C	-0.000009	0.159663	1.675196
