data_functionalizedCrystal
_audit_creation_method	'MofGen! by Chris Wilmer'
_symmetry_space_group_name_H-M	'P1'
_symmetry_Int_Tables_number	1
_symmetry_cell_setting	triclinic
loop_
_symmetry_equiv_pos_as_xyz
  x,y,z
_cell_length_a	10.967926
_cell_length_b	10.065875
_cell_length_c	11.026607
_cell_angle_alpha	79.268236
_cell_angle_beta	83.619246
_cell_angle_gamma	93.120479
loop_
_atom_site_label
_atom_site_type_symbol
_atom_site_fract_x
_atom_site_fract_y
_atom_site_fract_z
O1	O	1.659143	0.276732	-0.213709
O2	O	2.159143	0.776732	0.286291
O3	O	1.309856	0.194579	-0.217209
O4	O	1.809856	0.694579	0.282791
O5	O	1.455551	0.228852	-0.037496
O6	O	1.955551	0.728852	0.462504
O7	O	1.513449	0.242459	-0.393422
O8	O	2.013449	0.742459	0.106578
O9	O	1.427800	0.449312	-0.071909
O10	O	1.927800	0.949312	0.428091
O11	O	1.282106	0.415040	-0.251622
O12	O	1.782106	0.915040	0.248378
O13	O	1.631392	0.497193	-0.248122
O14	O	2.131392	0.997193	0.251878
Zn15	Zn	1.452343	0.491119	-0.255336
Zn16	Zn	1.952343	0.991119	0.244664
Zn17	Zn	1.488906	0.200653	-0.209995
Zn18	Zn	1.988906	0.700653	0.290005
O19	O	1.485698	0.462920	-0.427835
O20	O	1.985698	0.962920	0.072165
C21	C	1.250570	0.294129	-0.231560
C22	C	1.750570	0.794129	0.268440
C23	C	1.115255	0.262303	-0.223039
C24	C	1.615255	0.762303	0.276961
C25	C	1.040552	0.362319	-0.237067
C26	C	1.540552	0.862319	0.262933
C27	C	0.900697	0.329427	-0.228260
C28	C	1.400697	0.829427	0.271740
C29	C	1.430994	0.336568	-0.009008
C30	C	1.930994	0.836568	0.490992
C31	C	1.399155	0.329075	0.127149
C32	C	1.899155	0.829075	0.627149
C33	C	1.690679	0.397640	-0.233770
C34	C	2.190679	0.897640	0.266230
C35	C	1.825995	0.429458	-0.242290
C36	C	2.325995	0.929458	0.257710
N37	N	1.427398	0.689357	-0.286279
N38	N	1.927398	1.189357	0.213721
N39	N	1.513858	0.002417	-0.179043
N40	N	2.013858	0.502417	0.320957
C41	C	1.480217	0.769561	-0.220753
C42	C	1.980217	1.269561	0.279247
C43	C	1.461031	0.922215	-0.244578
C44	C	1.961031	1.422215	0.255422
C45	C	1.510255	0.355201	-0.456323
C46	C	2.010255	0.855201	0.043677
C47	C	1.542096	0.362686	-0.592478
C48	C	2.042096	0.862686	-0.092478
C49	C	1.487072	0.349751	0.196974
C50	C	1.987072	0.849751	0.696974
C51	C	1.454166	0.342006	0.337699
C52	C	1.954166	0.842006	0.837699
H53	H	0.861120	0.219442	-0.209726
H54	H	1.361120	0.719442	0.290274
N55	N	1.092966	0.508002	-0.261608
N56	N	1.592966	1.008002	0.238392
H57	H	1.185444	0.510848	-0.264421
H58	H	1.685444	1.010848	0.235579
H59	H	1.070785	0.556844	-0.343890
H60	H	1.570785	1.056844	0.156110
N61	N	0.878400	0.575149	-0.266825
N62	N	1.378400	1.075149	0.233175
H63	H	0.970878	0.577999	-0.269636
H64	H	1.470878	1.077999	0.230364
H65	H	0.856220	0.623997	-0.349105
H66	H	1.356220	1.123997	0.150895
N67	N	1.267178	0.298050	0.185951
N68	N	1.767178	0.798050	0.685951
H69	H	1.213027	0.285319	0.120019
H70	H	1.713027	0.785319	0.620019
H71	H	1.260431	0.212316	0.251379
H72	H	1.760431	0.712316	0.751379
H73	H	1.573281	0.958074	-0.105296
H74	H	2.073281	1.458074	0.394704
N75	N	1.062846	0.116617	-0.198498
N76	N	1.562846	0.616617	0.301502
H77	H	1.084939	0.067690	-0.116206
H78	H	1.584939	0.567690	0.383794
H79	H	0.970380	0.113884	-0.195750
H80	H	1.470380	0.613884	0.304250
H81	H	1.354530	0.318563	0.382098
H82	H	1.854530	0.818563	0.882098
N83	N	1.558943	0.710831	-0.123086
N84	N	2.058943	1.210831	0.376914
H85	H	1.591557	0.785328	-0.082632
H86	H	2.091557	1.285328	0.417368
H87	H	1.507797	0.639526	-0.057977
H88	H	2.007797	1.139526	0.442023
H89	H	1.367968	0.733703	-0.360011
H90	H	1.867968	1.233703	0.139989
N91	N	1.382300	0.980932	-0.342251
N92	N	1.882300	1.480932	0.157749
H93	H	1.379750	1.081659	-0.345423
H94	H	1.879750	1.581659	0.154577
H95	H	1.418394	0.964515	-0.426024
H96	H	1.918394	1.464515	0.073976
H97	H	1.586701	0.373192	0.152570
H98	H	2.086701	0.873192	0.652570
N99	N	1.674080	0.393718	0.348732
N100	N	2.174080	0.893718	0.848732
H101	H	1.678883	0.394849	0.256537
H102	H	2.178883	0.894849	0.756537
H103	H	1.705529	0.485261	0.362471
H104	H	2.205529	0.985261	0.862471
