data_functionalizedCrystal
_audit_creation_method	'MofGen! by Chris Wilmer'
_symmetry_space_group_name_H-M	'P1'
_symmetry_Int_Tables_number	1
_symmetry_cell_setting	triclinic
loop_
_symmetry_equiv_pos_as_xyz
  x,y,z
_cell_length_a	12.759395
_cell_length_b	12.645330
_cell_length_c	12.759387
_cell_angle_alpha	90.031550
_cell_angle_beta	90.020509
_cell_angle_gamma	90.014183
loop_
_atom_site_label
_atom_site_type_symbol
_atom_site_fract_x
_atom_site_fract_y
_atom_site_fract_z
Zn1	Zn	1.606284	-0.421940	0.594000
Zn2	Zn	1.606181	-0.599242	0.418318
Zn3	Zn	1.430582	-0.421998	0.418336
Zn4	Zn	1.430581	-0.599167	0.593957
O5	O	1.518407	-0.510587	0.506153
O6	O	1.753291	-0.445467	0.570705
O7	O	1.582844	-0.575786	0.271299
O8	O	1.453933	-0.273643	0.441664
O9	O	1.753215	-0.575730	0.441632
O10	O	1.583020	-0.273600	0.570723
O11	O	1.453833	-0.445565	0.271313
O12	O	1.283561	-0.445492	0.441623
O13	O	1.453930	-0.575601	0.740984
O14	O	1.283560	-0.575657	0.570650
O15	O	1.583019	-0.445394	0.741015
O16	O	1.582843	-0.747579	0.441591
O17	O	1.453831	-0.747524	0.570632
C18	C	1.245439	-0.510574	0.506135
C19	C	1.128662	-0.510594	0.506152
C20	C	1.128700	-0.646354	0.640291
C21	C	1.073858	-0.714242	0.707363
C22	C	0.964136	-0.714255	0.707376
C23	C	0.909254	-0.646370	0.640312
C24	C	0.964096	-0.578482	0.573239
C25	C	1.073820	-0.578478	0.573231
C26	C	0.964059	-0.442718	0.439107
C27	C	1.073780	-0.442709	0.439087
C28	C	0.909177	-0.374833	0.372042
C29	C	0.964019	-0.306948	0.304963
C30	C	1.073747	-0.306939	0.304952
C31	C	1.128622	-0.374820	0.372015
C32	C	1.518354	-0.786016	0.506128
C33	C	1.518428	-0.903846	0.506152
C34	C	1.599459	-1.071401	0.424808
C35	C	1.599723	-0.948841	0.425007
C36	C	1.548458	-0.948219	0.616897
C37	C	1.549101	-1.070817	0.616465
C38	C	1.407334	-1.071179	0.477844
C39	C	1.407867	-0.948575	0.475360
C40	C	1.792440	-0.510600	0.506171
C41	C	1.909217	-0.510606	0.506179
C42	C	1.518486	-0.510483	0.780186
C43	C	1.518520	-0.510438	0.896963
C44	C	1.518488	-0.234081	0.506201
C45	C	1.518523	-0.116251	0.506221
C46	C	1.518388	-0.510614	0.233185
C47	C	1.518558	-0.510359	0.116409
C48	C	1.652949	-0.374862	0.897016
C49	C	1.720178	-0.307058	0.951903
C50	C	1.720203	-0.307019	1.061624
C51	C	1.652990	-0.374790	1.116461
C52	C	1.585761	-0.442594	1.061574
C53	C	1.585745	-0.442627	0.951850
C54	C	1.451329	-0.578163	1.061522
C55	C	1.451307	-0.578209	0.951800
C56	C	1.384116	-0.645934	1.116359
C57	C	1.316890	-0.713745	1.061472
C58	C	1.316868	-0.713781	0.951744
C59	C	1.384078	-0.646013	0.896913
H60	H	1.217964	-0.374822	0.372009
O61	O	1.575519	-1.111397	0.315876
H62	H	1.505596	-1.163558	0.318571
O63	O	1.708806	-0.909866	0.449868
H64	H	1.761572	-0.978585	0.461808
H65	H	1.492733	-1.100481	0.679214
O66	O	0.904830	-0.233757	0.232612
H67	H	0.819321	-0.245179	0.243882
O68	O	1.132899	-0.233726	0.232598
H69	H	1.076299	-0.186538	0.185963
O70	O	0.904946	-0.787473	0.779694
H71	H	0.854928	-0.841321	0.732543
O72	O	1.655180	-0.907963	0.648987
H73	H	1.675643	-0.940071	0.727307
H74	H	1.262166	-0.768912	1.106129
O75	O	1.653005	-0.374745	1.234804
H76	H	1.711045	-0.316212	1.263758
O77	O	0.790834	-0.374895	0.372037
H78	H	0.761913	-0.353604	0.451319
H79	H	1.580934	-0.918845	0.342891
H80	H	1.218041	-0.646358	0.640279
O81	O	1.371167	-1.112248	0.372731
H82	H	1.292615	-1.079328	0.354525
O83	O	1.656753	-1.108597	0.648299
H84	H	1.715702	-1.078253	0.591867
O85	O	1.707969	-1.112077	0.449391
H86	H	1.704507	-1.164097	0.519344
H87	H	1.384137	-0.645893	1.205700
H88	H	1.491302	-0.919070	0.679181
O89	O	1.652922	-0.374910	0.778673
H90	H	1.710947	-0.316393	0.749762
O91	O	1.792689	-0.233875	1.120842
H92	H	1.846125	-0.281304	1.170846
H93	H	1.385224	-0.919585	0.393861
H94	H	1.344309	-0.917958	0.530310
H95	H	1.118555	-0.769511	0.761968
H96	H	0.819913	-0.646378	0.640337
O97	O	1.244336	-0.786893	0.892543
H98	H	1.197605	-0.834003	0.949112
O99	O	1.384049	-0.646065	0.778570
H100	H	1.362835	-0.566117	0.749650
H101	H	1.774899	-0.251879	0.907242
H102	H	1.347030	-1.100184	0.537140
