data_functionalizedCrystal
_audit_creation_method	'MofGen! by Chris Wilmer'
_symmetry_space_group_name_H-M	'P1'
_symmetry_Int_Tables_number	1
_symmetry_cell_setting	triclinic
loop_
_symmetry_equiv_pos_as_xyz
  x,y,z
_cell_length_a	10.723024
_cell_length_b	27.732048
_cell_length_c	26.809956
_cell_angle_alpha	89.988964
_cell_angle_beta	89.975999
_cell_angle_gamma	83.555262
loop_
_atom_site_label
_atom_site_type_symbol
_atom_site_fract_x
_atom_site_fract_y
_atom_site_fract_z
O1	O	1.654419	0.067790	-0.041482
O2	O	1.290998	0.074278	-0.041485
O3	O	1.483996	0.000707	-0.041474
O4	O	1.461422	0.141361	-0.041493
O5	O	1.483907	0.000706	0.041485
O6	O	1.290910	0.074277	0.041475
O7	O	1.654331	0.067788	0.041477
Zn8	Zn	1.472606	0.071033	0.054647
Zn9	Zn	1.472723	0.071034	-0.054655
O10	O	1.461333	0.141359	0.041466
C11	C	1.244474	0.073806	-0.000005
C12	C	1.105978	0.072393	-0.000006
C13	C	0.916037	0.028507	-0.000001
C14	C	1.059180	0.029967	-0.000000
C15	C	1.483478	-0.017303	0.000007
C16	C	1.482051	-0.070967	0.000011
C17	C	1.587117	-0.409130	-0.000014
C18	C	1.581823	-0.610822	-0.000021
O19	O	1.677898	-0.641481	-0.000042
N20	N	1.467383	-0.630656	-0.000021
C21	C	1.354259	-0.600064	-0.000023
O22	O	1.256800	-0.621562	-0.000028
C23	C	1.359554	-0.398373	-0.000019
C24	C	1.474001	-0.378541	-0.000014
C25	C	1.701554	-0.389298	-0.000009
C26	C	1.702877	-0.338877	-0.000005
C27	C	1.589761	-0.308289	-0.000005
C28	C	1.475324	-0.328121	-0.000010
C29	C	1.246432	-0.367781	-0.000025
C30	C	1.247766	-0.317356	-0.000025
C31	C	1.362213	-0.297524	-0.000020
C32	C	1.363531	-0.247113	-0.000005
N33	N	1.477970	-0.227278	-0.000005
C34	C	1.591085	-0.257867	-0.000005
C35	C	1.351487	-0.705956	-0.000024
C36	C	1.350163	-0.756378	-0.000024
C37	C	1.577727	-0.767133	-0.000023
C38	C	1.579050	-0.716709	-0.000019
C39	C	1.465926	-0.686121	-0.000023
C40	C	1.593854	-0.151980	0.000005
C41	C	1.595166	-0.101555	0.000011
C42	C	1.367603	-0.090805	0.000008
C43	C	1.366290	-0.141226	0.000004
C44	C	1.479425	-0.171813	0.000001
O45	O	1.267507	-0.216425	0.000010
O46	O	1.688531	-0.236359	-0.000010
C47	C	1.585794	-0.459550	-0.000018
C48	C	1.471357	-0.479382	-0.000023
C49	C	1.358241	-0.448793	-0.000023
C50	C	1.470033	-0.529804	-0.000023
C51	C	1.583148	-0.560392	-0.000023
C52	C	1.697587	-0.540558	-0.000022
C53	C	1.698910	-0.490138	-0.000018
C54	C	1.243802	-0.468628	-0.000024
C55	C	1.242489	-0.519048	-0.000027
C56	C	1.355604	-0.549637	-0.000027
C57	C	1.700855	0.068261	-0.000004
C58	C	1.839351	0.069674	-0.000007
C59	C	1.461851	0.159370	-0.000016
C60	C	1.463278	0.213034	-0.000023
N61	N	1.472535	0.071031	0.129243
C62	C	1.387167	0.103597	0.526122
C63	C	1.387106	0.103596	0.317244
O64	O	1.314372	0.131278	0.290239
N65	N	1.472576	0.071031	0.291122
C66	C	1.558062	0.038461	0.317222
O67	O	1.630750	0.010758	0.290211
C68	C	1.558117	0.038459	0.526099
C69	C	1.472649	0.071030	0.552218
C70	C	1.301706	0.136165	0.552242
C71	C	1.301726	0.136166	0.604458
C72	C	1.387208	0.103600	0.630554
C73	C	1.472670	0.071032	0.604435
C74	C	1.643596	0.005888	0.552198
C75	C	1.643600	0.005889	0.604421
C76	C	1.558132	0.038460	0.630540
C77	C	1.558173	0.038467	0.682748
N78	N	1.472702	0.071033	0.708870
C79	C	1.387220	0.103599	0.682773
C80	C	1.558029	0.038464	0.207559
C81	C	1.558018	0.038465	0.155340
C82	C	1.387059	0.103600	0.155366
C83	C	1.387078	0.103601	0.207585
C84	C	1.472559	0.071030	0.233681
C85	C	1.387271	0.103601	0.792431
C86	C	1.387303	0.103601	0.844652
C87	C	1.558256	0.038464	0.844622
C88	C	1.558229	0.038466	0.792406
C89	C	1.472726	0.071036	0.766312
O90	O	1.630859	0.010797	0.709785
O91	O	1.314525	0.131290	0.709794
C92	C	1.387146	0.103595	0.473906
C93	C	1.472608	0.071027	0.447786
C94	C	1.558090	0.038461	0.473883
C95	C	1.472596	0.071028	0.395567
C96	C	1.387114	0.103594	0.369470
C97	C	1.301644	0.136160	0.395593
C98	C	1.301664	0.136161	0.447809
C99	C	1.643560	0.005895	0.447760
C100	C	1.643533	0.005897	0.395544
C101	C	1.558051	0.038463	0.369447
N102	N	1.472785	0.071034	0.870749
H103	H	1.688366	-0.085411	0.000017
H104	H	1.317458	0.130117	0.134109
Br105	Br	1.674267	-0.005730	0.880047
H106	H	0.879670	0.105998	-0.000008
H107	H	1.713190	-0.020635	0.530939
H108	H	1.789690	-0.565472	-0.000020
Br109	Br	1.759613	-0.038319	0.639833
H110	H	1.125071	-0.005275	0.000002
H111	H	1.796071	-0.322736	-0.000002
Br112	Br	1.185677	0.180367	0.516834
H113	H	1.685980	-0.176879	0.000000
Br114	Br	1.855090	-0.430802	-0.000009
Br115	Br	1.734375	-0.689800	-0.000011
Br116	Br	1.197946	-0.664450	-0.000031
Br117	Br	0.996170	0.131137	-0.000020
H118	H	1.275507	-0.065891	0.000009
Br119	Br	1.094232	-0.275846	-0.000033
H120	H	1.669830	-0.792046	-0.000022
Br121	Br	1.210968	-0.168141	0.000008
H122	H	1.317483	0.130123	0.228849
H123	H	1.256969	-0.772520	-0.000019
Br124	Br	1.674033	-0.005732	0.119898
H125	H	1.232045	0.162678	0.374336
H126	H	1.232069	0.162684	0.469072
H127	H	1.792104	-0.473996	-0.000014
Br128	Br	1.674241	-0.005733	0.756959
H129	H	1.153237	-0.383919	-0.000032
H130	H	1.627642	0.011940	0.228802
Br131	Br	1.759543	-0.038308	0.360101
Br132	Br	1.087153	-0.545955	-0.000031
H133	H	1.713169	-0.020625	0.469004
H134	H	0.875718	-0.007817	0.000012
Br135	Br	1.090271	-0.427122	-0.000027
H136	H	1.317645	0.130121	0.771191
Br137	Br	1.271309	0.147809	0.880098
H138	H	1.232128	0.162687	0.625721
