data_functionalizedCrystal
_audit_creation_method	'MofGen! by Chris Wilmer'
_symmetry_space_group_name_H-M	'P1'
_symmetry_Int_Tables_number	1
_symmetry_cell_setting	triclinic
loop_
_symmetry_equiv_pos_as_xyz
  x,y,z
_cell_length_a	16.959455
_cell_length_b	12.827892
_cell_length_c	12.827885
_cell_angle_alpha	89.970214
_cell_angle_beta	89.979491
_cell_angle_gamma	90.014820
loop_
_atom_site_label
_atom_site_type_symbol
_atom_site_fract_x
_atom_site_fract_y
_atom_site_fract_z
Zn1	Zn	1.208455	-0.415998	-0.590883
Zn2	Zn	1.208375	-0.590776	-0.416143
Zn3	Zn	1.076270	-0.416048	-0.416153
Zn4	Zn	1.076259	-0.590696	-0.590840
O5	O	1.142340	-0.503380	-0.503505
O6	O	1.319055	-0.439196	-0.567718
O7	O	1.190822	-0.567652	-0.269909
O8	O	1.093843	-0.269805	-0.439354
O9	O	1.318996	-0.567604	-0.439337
O10	O	1.190958	-0.269769	-0.567727
O11	O	1.093765	-0.439279	-0.269916
O12	O	0.965658	-0.439202	-0.439311
O13	O	1.093824	-0.567468	-0.737082
O14	O	0.965649	-0.567516	-0.567653
O15	O	1.190948	-0.439119	-0.737114
O16	O	1.190811	-0.737001	-0.439295
O17	O	1.093746	-0.736943	-0.567644
C18	C	1.142290	-0.774889	-0.503486
C19	C	1.142341	-0.891043	-0.503513
C20	C	0.936973	-0.503357	-0.503479
C21	C	0.849117	-0.503372	-0.503493
C22	C	1.094353	-1.062877	-0.567004
C23	C	1.094299	-0.942827	-0.566978
C24	C	0.807810	-0.570133	-0.436556
C25	C	0.807870	-0.436619	-0.570438
C26	C	0.725324	-0.436628	-0.570450
C27	C	0.684017	-0.503389	-0.503514
C28	C	0.725257	-0.570141	-0.436564
C29	C	0.684078	-0.369869	-0.637391
C30	C	0.601527	-0.369873	-0.637406
C31	C	0.560219	-0.436640	-0.570473
C32	C	0.601464	-0.503397	-0.503522
C33	C	0.560157	-0.570158	-0.436585
C34	C	0.601400	-0.636920	-0.369638
C35	C	0.683949	-0.636908	-0.369632
C36	C	0.477671	-0.436652	-0.570479
C37	C	0.477604	-0.570166	-0.436593
C38	C	1.348508	-0.503403	-0.503531
C39	C	1.436364	-0.503413	-0.503543
C40	C	1.142393	-0.503279	-0.776075
C41	C	1.142416	-0.503236	-0.892228
C42	C	1.142411	-0.230809	-0.503546
C43	C	1.142441	-0.114656	-0.503564
C44	C	1.190481	-0.439712	-0.944029
C45	C	1.190506	-0.439667	-1.064079
C46	C	1.142331	-0.503404	-0.231995
C47	C	1.142462	-0.503152	-0.115842
H48	H	1.053226	-1.107424	-0.621341
H49	H	1.053126	-0.898299	-0.621288
H50	H	0.717536	-0.691260	-0.315125
Cl51	Cl	0.859656	-0.654062	-0.352402
H52	H	1.101279	-0.557581	-0.936757
Cl53	Cl	1.205950	-1.045888	-0.419679
Cl54	Cl	1.205906	-0.959779	-0.419644
H55	H	0.841506	-0.382261	-0.624930
H56	H	0.717716	-0.315511	-0.691884
H57	H	0.443978	-0.624536	-0.382089
H58	H	0.567758	-0.691273	-0.315134
H59	H	1.231611	-0.385357	-0.899500
Cl60	Cl	1.254047	-0.355701	-1.132851
H61	H	0.567954	-0.315513	-0.691919
H62	H	0.444094	-0.382288	-0.624979
Cl63	Cl	1.078927	-0.587132	-1.047078
