data_functionalizedCrystal
_audit_creation_method	'MofGen! by Chris Wilmer'
_symmetry_space_group_name_H-M	'P1'
_symmetry_Int_Tables_number	1
_symmetry_cell_setting	triclinic
loop_
_symmetry_equiv_pos_as_xyz
  x,y,z
_cell_length_a	13.032831
_cell_length_b	16.959454
_cell_length_c	13.033109
_cell_angle_alpha	82.843949
_cell_angle_beta	103.334486
_cell_angle_gamma	82.825094
loop_
_atom_site_label
_atom_site_type_symbol
_atom_site_fract_x
_atom_site_fract_y
_atom_site_fract_z
Zn1	Zn	1.700086	-0.555675	0.806431
Zn2	Zn	1.677413	-0.668626	0.628819
Zn3	Zn	1.499912	-0.517229	0.606323
Zn4	Zn	1.522428	-0.668557	0.783863
O5	O	1.599960	-0.602522	0.706359
O6	O	1.845714	-0.586777	0.801730
O7	O	1.634955	-0.632483	0.477202
O8	O	1.526532	-0.411728	0.632898
O9	O	1.829056	-0.669762	0.671239
O10	O	1.673599	-0.439973	0.779917
O11	O	1.504547	-0.521252	0.460675
O12	O	1.354264	-0.521184	0.611014
O13	O	1.564906	-0.669643	0.935489
O14	O	1.370806	-0.632364	0.741452
O15	O	1.695431	-0.586710	0.952070
O16	O	1.656787	-0.779219	0.649356
O17	O	1.542920	-0.779168	0.763266
C18	C	1.323995	-0.572595	0.671344
C19	C	1.205940	-0.559814	0.656389
C20	C	1.599869	-0.807877	0.706330
C21	C	1.599931	-0.895742	0.706365
C22	C	1.161507	-0.609192	0.714164
C23	C	1.039490	-0.595984	0.698709
C24	C	1.540767	-1.267233	0.765677
C25	C	1.659462	-1.267251	0.647186
C26	C	1.659424	-1.184700	0.647172
C27	C	1.600055	-1.143412	0.706410
C28	C	1.540724	-1.184674	0.765662
C29	C	1.718745	-1.143429	0.587912
C30	C	1.718708	-1.060873	0.587894
C31	C	1.659344	-1.019585	0.647139
C32	C	1.600012	-1.060853	0.706395
C33	C	1.540643	-1.019564	0.765632
C34	C	1.481316	-1.060832	0.824895
C35	C	1.481361	-1.143386	0.824907
C36	C	1.659300	-0.937031	0.647127
C37	C	1.540600	-0.937005	0.765617
C38	C	1.877002	-0.632566	0.741511
C39	C	1.995061	-0.645369	0.756491
C40	C	1.635209	-0.632457	0.983396
C41	C	1.650231	-0.645214	1.101452
C42	C	1.600083	-0.396371	0.706415
C43	C	1.600136	-0.308522	0.706439
C44	C	1.564908	-0.572652	0.430408
C45	C	1.550093	-0.559696	0.312378
C46	C	1.592404	-0.595866	1.145908
C47	C	1.607928	-0.609050	1.267926
H48	H	1.213799	-0.661243	0.775072
H49	H	1.489086	-0.507685	1.260109
H50	H	0.987203	-0.543925	0.637805
H51	H	1.767016	-1.027278	0.539641
H52	H	1.047348	-0.697422	0.817406
C53	C	1.732642	-0.715477	1.172059
C54	C	1.696217	-0.780721	1.242485
C55	C	1.778630	-0.850986	1.313089
C56	C	1.897468	-0.856006	1.313265
C57	C	1.933899	-0.790760	1.242836
C58	C	1.851486	-0.720495	1.172233
H59	H	1.608241	-0.777007	1.242357
H60	H	1.751662	-0.899286	1.365225
H61	H	1.958476	-0.908021	1.365530
H62	H	2.021875	-0.794474	1.242964
H63	H	1.878455	-0.672195	1.120096
C64	C	1.724553	-0.891635	0.581949
C65	C	1.667951	-0.820921	0.492687
C66	C	1.733210	-0.775526	0.427508
C67	C	1.855072	-0.800844	0.451592
C68	C	1.911680	-0.871562	0.540858
C69	C	1.846421	-0.916957	0.606037
H70	H	1.577736	-0.802175	0.474855
H71	H	1.691304	-0.723176	0.361427
H72	H	1.903380	-0.767240	0.403342
H73	H	2.001895	-0.890307	0.558690
H74	H	1.888327	-0.969307	0.672118
H75	H	1.492468	-1.300838	0.813931
H76	H	1.153649	-0.507759	0.595490
H77	H	1.767071	-1.177050	0.539675
H78	H	1.531399	-0.543861	1.093635
H79	H	1.668931	-0.661062	1.320195
C80	C	1.475292	-0.891591	0.830782
C81	C	1.353443	-0.888978	0.806701
C82	C	1.288135	-0.843564	0.871865
C83	C	1.344676	-0.800764	0.961109
C84	C	1.466531	-0.803375	0.985194
C85	C	1.531840	-0.848789	0.920030
H86	H	1.311582	-0.920663	0.740633
H87	H	1.197929	-0.841631	0.854036
H88	H	1.296331	-0.767146	1.009348
H89	H	1.508392	-0.771690	1.051262
H90	H	1.622046	-0.850722	0.937860
C91	C	1.416009	-1.015409	0.890052
C92	C	1.294159	-1.012788	0.865970
C93	C	1.228852	-0.967361	0.931123
C94	C	1.285396	-0.924553	1.020358
C95	C	1.407253	-0.927172	1.044445
C96	C	1.472560	-0.972600	0.979291
H97	H	1.252295	-1.044478	0.799909
H98	H	1.138645	-0.965422	0.913293
H99	H	1.237053	-0.890925	1.068589
H100	H	1.449117	-0.895482	1.110506
H101	H	1.562767	-0.974538	0.997122
C102	C	1.416103	-1.188783	0.890085
C103	C	1.326917	-1.231573	0.833421
C104	C	1.261660	-1.276975	0.898596
C105	C	1.285590	-1.279586	1.020436
C106	C	1.374781	-1.236794	1.077106
C107	C	1.440038	-1.191392	1.011931
H108	H	1.309198	-1.229642	0.743222
H109	H	1.195635	-1.308652	0.856644
H110	H	1.237283	-1.313194	1.068682
H111	H	1.392499	-1.238725	1.167305
H112	H	1.506063	-1.159715	1.053883
H113	H	1.707791	-1.300871	0.598951
