data_functionalizedCrystal
_audit_creation_method	'MofGen! by Chris Wilmer'
_symmetry_space_group_name_H-M	'P1'
_symmetry_Int_Tables_number	1
_symmetry_cell_setting	triclinic
loop_
_symmetry_equiv_pos_as_xyz
  x,y,z
_cell_length_a	14.908571
_cell_length_b	13.897448
_cell_length_c	14.908694
_cell_angle_alpha	93.268807
_cell_angle_beta	83.592472
_cell_angle_gamma	86.713891
loop_
_atom_site_label
_atom_site_type_symbol
_atom_site_fract_x
_atom_site_fract_y
_atom_site_fract_z
Zn1	Zn	1.413363	-0.507824	-0.591509
Zn2	Zn	1.913363	-0.007824	-0.091509
Zn3	Zn	1.404538	-0.659258	-0.440145
Zn4	Zn	1.904538	-0.159258	0.059855
Zn5	Zn	1.253264	-0.488095	-0.431444
Zn6	Zn	1.753264	0.011905	0.068556
Zn7	Zn	1.261970	-0.659183	-0.582743
Zn8	Zn	1.761970	-0.159183	-0.082743
O9	O	1.333284	-0.578590	-0.511460
O10	O	1.833284	-0.078590	-0.011460
O11	O	1.538860	-0.536201	-0.578740
O12	O	2.038860	-0.036201	-0.078740
O13	O	1.377134	-0.628328	-0.312325
O14	O	1.877134	-0.128328	0.187675
O15	O	1.274552	-0.355735	-0.452705
O16	O	1.774552	0.144265	0.047295
O17	O	1.532376	-0.647459	-0.467533
O18	O	2.032376	-0.147459	0.032467
O19	O	1.392176	-0.370230	-0.570304
O20	O	1.892176	0.129770	-0.070304
O21	O	1.265994	-0.502574	-0.305933
O22	O	1.765994	-0.002574	0.194067
O23	O	1.127752	-0.502502	-0.444205
O24	O	1.627752	-0.002502	0.055795
O25	O	1.289389	-0.647331	-0.710571
O26	O	1.789389	-0.147331	-0.210571
O27	O	1.134148	-0.628200	-0.555363
O28	O	1.634148	-0.128200	-0.055363
O29	O	1.400617	-0.536128	-0.717012
O30	O	1.900617	-0.036128	-0.217012
O31	O	1.385576	-0.794225	-0.459033
O32	O	1.885576	-0.294225	0.040967
O33	O	1.280831	-0.794170	-0.563799
O34	O	1.780831	-0.294170	-0.063799
C35	C	1.098106	-0.563203	-0.497889
C36	C	1.598106	-0.063203	0.002111
C37	C	0.997498	-0.556644	-0.492105
C38	C	1.497498	-0.056644	0.007895
C39	C	0.815142	-0.675391	-0.596829
C40	C	1.315142	-0.175391	-0.096829
C41	C	0.720612	-0.669232	-0.591397
C42	C	1.220612	-0.169232	-0.091397
C43	C	0.713904	-0.538164	-0.475814
C44	C	1.213904	-0.038164	0.024186
C45	C	0.808435	-0.544323	-0.481246
C46	C	1.308435	-0.044323	0.018754
C47	C	0.859051	-0.612940	-0.541755
C48	C	1.359051	-0.112940	-0.041755
C49	C	0.953583	-0.619102	-0.547181
C50	C	1.453583	-0.119102	-0.047181
C51	C	0.946874	-0.488030	-0.431604
C52	C	1.446874	0.011970	0.068396
C53	C	0.852343	-0.481871	-0.426172
C54	C	1.352343	0.018129	0.073828
C55	C	1.333216	-0.829199	-0.511430
C56	C	1.833216	-0.329199	-0.011430
C57	C	1.333272	-0.936417	-0.511452
C58	C	1.833272	-0.436417	-0.011452
C59	C	1.333370	-1.132722	-0.511515
C60	C	1.833370	-0.632722	-0.011515
C61	C	1.333313	-1.023484	-0.511483
C62	C	1.833313	-0.523484	-0.011483
C63	C	1.569380	-0.594039	-0.525085
C64	C	2.069380	-0.094039	-0.025085
C65	C	1.669989	-0.600622	-0.530891
C66	C	2.169989	-0.100622	-0.030891
C67	C	1.346959	-0.593922	-0.747553
C68	C	1.846959	-0.093922	-0.247553
C69	C	1.352786	-0.600455	-0.848161
C70	C	1.852786	-0.100455	-0.348161
C71	C	1.333377	-0.327006	-0.511512
C72	C	1.833377	0.172994	-0.011512
C73	C	1.333417	-0.219796	-0.511533
C74	C	1.833417	0.280204	-0.011533
C75	C	1.247985	-0.481787	-1.030560
C76	C	1.747985	0.018213	-0.530560
C77	C	1.253457	-0.487922	-1.125091
C78	C	1.753457	0.012078	-0.625091
C79	C	1.369197	-0.618865	-1.131755
C80	C	1.869197	-0.118865	-0.631755
C81	C	1.363725	-0.612730	-1.037224
C82	C	1.863725	-0.112730	-0.537224
C83	C	1.303118	-0.544188	-0.986630
C84	C	1.803118	-0.044188	-0.486630
C85	C	1.297651	-0.538048	-0.892098
C86	C	1.797651	-0.038048	-0.392098
C87	C	1.413386	-0.668995	-0.898763
C88	C	1.913386	-0.168995	-0.398763
C89	C	1.418858	-0.675131	-0.993294
C90	C	1.918858	-0.175131	-0.493294
C91	C	1.319714	-0.563252	-0.276289
C92	C	1.819714	-0.063252	0.223711
C93	C	1.314062	-0.556458	-0.175691
C94	C	1.814062	-0.056458	0.324309
H95	H	0.811119	-0.426003	-0.376910
H96	H	1.311119	0.073997	0.123090
H97	H	0.982634	-0.437179	-0.386756
H98	H	1.482634	0.062821	0.113244
H99	H	0.684866	-0.720085	-0.636246
H100	H	1.184866	-0.220085	-0.136246
H101	H	1.468200	-0.730939	-1.034500
H102	H	1.968200	-0.230939	-0.534500
F103	F	1.194774	-0.421510	-1.171841
F104	F	1.694774	0.078490	-0.671841
H105	H	1.248305	-0.482234	-0.850906
H106	H	1.748305	0.017766	-0.350906
F107	F	0.660021	-0.465131	-0.411435
F108	F	1.160021	0.034869	0.088565
H109	H	1.198644	-0.425969	-0.989366
H110	H	1.698644	0.074031	-0.489366
F111	F	1.433683	-0.691818	-1.185614
F112	F	1.933683	-0.191818	-0.685614
F113	F	1.472068	-0.735410	-0.852004
F114	F	1.972068	-0.235410	-0.352004
H115	H	0.994793	-0.674975	-0.596449
H116	H	1.494793	-0.174975	-0.096449
F117	F	0.869013	-0.748426	-0.661217
F118	F	1.369013	-0.248426	-0.161217
