data_functionalizedCrystal
_audit_creation_method	'MofGen! by Chris Wilmer'
_symmetry_space_group_name_H-M	'P1'
_symmetry_Int_Tables_number	1
_symmetry_cell_setting	triclinic
loop_
_symmetry_equiv_pos_as_xyz
  x,y,z
_cell_length_a	13.897449
_cell_length_b	13.897448
_cell_length_c	21.395356
_cell_angle_alpha	89.975201
_cell_angle_beta	89.974910
_cell_angle_gamma	90.018519
loop_
_atom_site_label
_atom_site_type_symbol
_atom_site_fract_x
_atom_site_fract_y
_atom_site_fract_z
Zn1	Zn	1.474719	-0.384018	-0.354299
Zn2	Zn	1.808052	-0.050685	-0.020966
Zn3	Zn	2.141385	0.282649	0.312368
Zn4	Zn	1.474608	-0.545323	-0.249527
Zn5	Zn	1.807941	-0.211990	0.083806
Zn6	Zn	2.141275	0.121343	0.417140
Zn7	Zn	1.313403	-0.384046	-0.249533
Zn8	Zn	1.646736	-0.050713	0.083800
Zn9	Zn	1.980070	0.282620	0.417134
Zn10	Zn	1.313390	-0.545275	-0.354264
Zn11	Zn	1.646723	-0.211942	-0.020931
Zn12	Zn	1.980056	0.121392	0.312402
O13	O	1.394030	-0.464666	-0.301906
O14	O	1.727363	-0.131332	0.031428
O15	O	2.060697	0.202001	0.364761
O16	O	1.609686	-0.405424	-0.340413
O17	O	1.943019	-0.072091	-0.007079
O18	O	2.276352	0.261243	0.326254
O19	O	1.453183	-0.523962	-0.161850
O20	O	1.786516	-0.190628	0.171484
O21	O	2.119850	0.142705	0.504817
O22	O	1.334854	-0.249061	-0.263448
O23	O	1.668187	0.084272	0.069886
O24	O	2.001521	0.417606	0.403219
O25	O	1.609604	-0.523934	-0.263437
O26	O	1.942938	-0.190601	0.069896
O27	O	2.276271	0.142732	0.403230
O28	O	1.453372	-0.249040	-0.340419
O29	O	1.786705	0.084293	-0.007085
O30	O	2.120039	0.417627	0.326248
O31	O	1.334747	-0.405472	-0.161854
O32	O	1.668080	-0.072139	0.171479
O33	O	2.001413	0.261194	0.504812
O34	O	1.178420	-0.405425	-0.263414
O35	O	1.511753	-0.072092	0.069919
O36	O	1.845086	0.261241	0.403253
O37	O	1.334831	-0.523852	-0.441947
O38	O	1.668164	-0.190519	-0.108614
O39	O	2.001498	0.142815	0.224720
O40	O	1.178410	-0.523879	-0.340360
O41	O	1.511743	-0.190546	-0.007026
O42	O	1.845076	0.142787	0.326307
O43	O	1.453359	-0.405377	-0.441972
O44	O	1.786692	-0.072044	-0.108639
O45	O	2.120025	0.261290	0.224694
O46	O	1.453170	-0.680299	-0.263403
O47	O	1.786503	-0.346965	0.069930
O48	O	2.119837	-0.013632	0.403263
O49	O	1.334724	-0.680263	-0.340354
O50	O	1.668057	-0.346930	-0.007020
O51	O	2.001390	-0.013596	0.326313
C52	C	1.143416	-0.464651	-0.301884
C53	C	1.476749	-0.131318	0.031449
C54	C	1.810082	0.202016	0.364783
C55	C	1.036202	-0.464668	-0.301889
C56	C	1.369535	-0.131334	0.031444
C57	C	1.702868	0.201999	0.364777
C58	C	0.949132	-0.464671	-0.301900
C59	C	1.282465	-0.131338	0.031433
C60	C	1.615799	0.201996	0.364767
C61	C	0.839899	-0.464678	-0.301919
C62	C	1.173233	-0.131344	0.031414
C63	C	1.506566	0.201989	0.364748
C64	C	1.393959	-0.715280	-0.301888
C65	C	1.727293	-0.381947	0.031446
C66	C	2.060626	-0.048613	0.364779
C67	C	1.394018	-0.822494	-0.301901
C68	C	1.727351	-0.489161	0.031432
C69	C	2.060684	-0.155827	0.364766
C70	C	1.394119	-1.018789	-0.301940
C71	C	1.727452	-0.685456	0.031393
C72	C	2.060786	-0.352122	0.364726
C73	C	1.394060	-0.909557	-0.301920
C74	C	1.727393	-0.576223	0.031413
C75	C	2.060727	-0.242890	0.364746
C76	C	1.645623	-0.464681	-0.301928
C77	C	1.978956	-0.131348	0.031405
C78	C	2.312289	0.201985	0.364739
C79	C	1.752837	-0.464688	-0.301938
C80	C	2.086170	-0.131355	0.031396
C81	C	2.419503	0.201979	0.364729
C82	C	1.394106	-0.464606	-0.465329
C83	C	1.727439	-0.131273	-0.131996
C84	C	2.060772	0.202061	0.201338
C85	C	1.394138	-0.464580	-0.534970
C86	C	1.727471	-0.131247	-0.201637
C87	C	2.060805	0.202086	0.131696
C88	C	1.394127	-0.213073	-0.301938
C89	C	1.727460	0.120261	0.031396
C90	C	2.060793	0.453594	0.364729
C91	C	1.394168	-0.105859	-0.301951
C92	C	1.727501	0.227475	0.031382
C93	C	2.060835	0.560808	0.364715
C94	C	1.332485	-0.402876	-0.567676
C95	C	1.665818	-0.069543	-0.234343
C96	C	1.999151	0.263791	0.098991
C97	C	1.332481	-0.402858	-0.633112
C98	C	1.665815	-0.069525	-0.299778
C99	C	1.999148	0.263809	0.033555
C100	C	1.394149	-0.464535	-0.665839
C101	C	1.727482	-0.131201	-0.332506
C102	C	2.060815	0.202132	0.000828
C103	C	1.455806	-0.526251	-0.633125
C104	C	1.789140	-0.192918	-0.299792
C105	C	2.122473	0.140416	0.033541
C106	C	1.455801	-0.526274	-0.567691
C107	C	1.789134	-0.192941	-0.234358
C108	C	2.122468	0.140393	0.098976
C109	C	1.481059	-0.472117	-0.769527
C110	C	1.814393	-0.138784	-0.436194
C111	C	2.147726	0.194550	-0.102860
C112	C	1.481066	-0.472087	-0.834960
C113	C	1.814400	-0.138754	-0.501627
C114	C	2.147733	0.194579	-0.168293
C115	C	1.394165	-0.464469	-0.867660
C116	C	1.727498	-0.131136	-0.534326
C117	C	2.060831	0.202197	-0.200993
C118	C	1.307253	-0.456861	-0.834918
C119	C	1.640587	-0.123528	-0.501585
C120	C	1.973920	0.209806	-0.168252
C121	C	1.307248	-0.456884	-0.769484
C122	C	1.640581	-0.123551	-0.436151
C123	C	1.973915	0.209783	-0.102818
C124	C	1.394161	-0.464517	-0.736791
C125	C	1.727494	-0.131184	-0.403458
C126	C	2.060828	0.202150	-0.070125
C127	C	1.332502	-0.402742	-0.971318
C128	C	1.665836	-0.069409	-0.637985
C129	C	1.999169	0.263924	-0.304651
C130	C	1.332498	-0.402731	-1.036755
C131	C	1.665831	-0.069398	-0.703421
C132	C	1.999164	0.263935	-0.370088
C133	C	1.455831	-0.526119	-1.036767
C134	C	1.789165	-0.192786	-0.703434
C135	C	2.122498	0.140548	-0.370100
C136	C	1.455828	-0.526135	-0.971332
C137	C	1.789161	-0.192802	-0.637998
C138	C	2.122494	0.140531	-0.304665
C139	C	1.394164	-0.464442	-0.938611
C140	C	1.727498	-0.131108	-0.605278
C141	C	2.060831	0.202225	-0.271944
C142	C	1.394010	-0.464656	-0.139118
C143	C	1.727343	-0.131322	0.194215
C144	C	2.060676	0.202011	0.527548
C145	C	1.394164	-0.464409	-0.069477
C146	C	1.727498	-0.131076	0.263856
C147	C	2.060831	0.202257	0.597189
H148	H	1.282270	-0.352644	-0.541039
H149	H	1.615603	-0.019311	-0.207706
H150	H	1.948937	0.314023	0.125628
H151	H	1.506011	-0.576520	-0.541063
H152	H	1.839344	-0.243187	-0.207729
H153	H	2.172678	0.090147	0.125604
H154	H	1.551835	-0.478278	-0.861613
H155	H	1.885168	-0.144944	-0.528279
H156	H	2.218501	0.188389	-0.194946
H157	H	1.282292	-0.352509	-0.944675
H158	H	1.615625	-0.019175	-0.611342
H159	H	1.948959	0.314158	-0.278009
F160	F	1.266875	-0.337165	-0.667926
F161	F	1.600208	-0.003832	-0.334593
F162	F	1.933542	0.329502	-0.001260
H163	H	1.506035	-0.576379	-0.944702
H164	H	1.839368	-0.243046	-0.611369
H165	H	2.172701	0.090287	-0.278036
F166	F	1.266851	-0.337076	-1.071562
F167	F	1.600185	-0.003742	-0.738229
F168	F	1.933518	0.329591	-0.404895
H169	H	1.506016	-0.576469	-0.659776
H170	H	1.839350	-0.243135	-0.326443
H171	H	2.172683	0.090198	0.006891
H172	H	1.506044	-0.576335	-1.063413
H173	H	1.839377	-0.243002	-0.730080
H174	H	2.172711	0.090331	-0.396746
H175	H	1.236482	-0.450691	-0.742829
H176	H	1.569815	-0.117358	-0.409496
H177	H	1.903149	0.215976	-0.076162
H178	H	1.236490	-0.450651	-0.861541
H179	H	1.569824	-0.117318	-0.528208
H180	H	1.903157	0.216015	-0.194875
H181	H	1.551831	-0.478312	-0.742908
H182	H	1.885164	-0.144979	-0.409575
H183	H	2.218497	0.188355	-0.076241
