data_functionalizedCrystal
_audit_creation_method	'MofGen! by Chris Wilmer'
_symmetry_space_group_name_H-M	'P1'
_symmetry_Int_Tables_number	1
_symmetry_cell_setting	triclinic
loop_
_symmetry_equiv_pos_as_xyz
  x,y,z
_cell_length_a	10.540539
_cell_length_b	10.540539
_cell_length_c	14.586319
_cell_angle_alpha	89.998027
_cell_angle_beta	90.003833
_cell_angle_gamma	84.525492
loop_
_atom_site_label
_atom_site_type_symbol
_atom_site_fract_x
_atom_site_fract_y
_atom_site_fract_z
O1	O	1.685891	0.178892	0.076192
O2	O	1.316478	0.195748	0.076203
O3	O	1.509612	0.002613	0.076196
O4	O	1.492756	0.372026	0.076199
O5	O	1.509588	0.002624	-0.076284
O6	O	1.316454	0.195759	-0.076278
O7	O	1.685867	0.178903	-0.076288
Cu8	Cu	1.501158	0.187332	-0.090206
Cu9	Cu	1.501186	0.187319	0.090121
O10	O	1.492733	0.372037	-0.076282
C11	C	1.269163	0.194489	-0.000036
C12	C	1.128215	0.190707	-0.000031
C13	C	0.944788	0.045790	-0.000388
C14	C	1.091406	0.049624	-0.000035
C15	C	1.066556	0.258596	0.087040
C16	C	0.920011	0.253781	0.087103
C17	C	0.919496	0.256664	-0.086296
C18	C	1.066478	0.257964	-0.087437
C19	C	1.508336	-0.044684	-0.000042
C20	C	1.504554	-0.185632	-0.000037
C21	C	1.359637	-0.369059	0.000309
C22	C	1.363471	-0.222441	-0.000034
C23	C	1.572436	-0.247283	-0.087113
C24	C	1.567621	-0.393828	-0.087186
C25	C	1.570518	-0.394359	0.086213
C26	C	1.571817	-0.247377	0.087364
C27	C	1.733182	0.180161	-0.000047
C28	C	1.874130	0.183943	-0.000046
C29	C	1.494008	0.419335	-0.000041
C30	C	1.497790	0.560283	-0.000040
N31	N	1.501148	0.187341	-0.217037
C32	C	1.578857	0.265059	-0.452046
C33	C	1.578870	0.265050	-0.548027
C34	C	1.423494	0.109573	-0.548033
C35	C	1.423489	0.109576	-0.452053
C36	C	1.501168	0.187326	-0.404062
C37	C	1.501187	0.187315	-0.596023
C38	C	1.501200	0.187305	-0.700090
C39	C	1.501156	0.187335	-0.299988
N40	N	1.501207	0.187300	0.216952
H41	H	0.916193	-0.009941	-0.062832
F42	F	1.661560	0.347782	-0.599090
H43	H	1.303916	-0.397664	0.062753
F44	F	1.703712	-0.456088	0.086976
H45	H	1.304123	-0.399262	-0.061782
F46	F	0.857309	0.386400	0.092270
H47	H	0.872269	0.358568	-0.086884
H48	H	1.642108	0.328367	-0.412974
H49	H	1.088909	0.362204	0.090280
F50	F	1.122231	0.196944	0.171739
F51	F	1.340821	0.026838	-0.599116
H52	H	1.309663	-0.180680	-0.062555
F53	F	1.340795	0.026840	-0.400983
H54	H	1.669086	-0.441796	-0.091140
H55	H	0.914590	-0.009715	0.061707
F56	F	1.147097	-0.020199	-0.081617
H57	H	1.133161	-0.004180	0.062488
H58	H	1.517433	-0.422023	-0.152275
F59	F	1.707859	-0.218067	-0.091352
H60	H	1.310057	-0.179842	0.062386
H61	H	1.674679	-0.223156	0.092619
H62	H	0.891811	0.203595	0.152189
H63	H	1.107430	0.208369	-0.151852
F64	F	1.098134	0.392413	-0.094308
F65	F	0.878256	0.196989	-0.172563
F66	F	1.510778	-0.191601	-0.171809
F67	F	1.507406	-0.193384	0.171574
F68	F	1.510840	-0.435593	0.172478
