data_functionalizedCrystal
_audit_creation_method	'MofGen! by Chris Wilmer'
_symmetry_space_group_name_H-M	'P1'
_symmetry_Int_Tables_number	1
_symmetry_cell_setting	triclinic
loop_
_symmetry_equiv_pos_as_xyz
  x,y,z
_cell_length_a	13.032831
_cell_length_b	18.050589
_cell_length_c	13.033454
_cell_angle_alpha	82.784202
_cell_angle_beta	89.091650
_cell_angle_gamma	82.833186
loop_
_atom_site_label
_atom_site_type_symbol
_atom_site_fract_x
_atom_site_fract_y
_atom_site_fract_z
Zn1	Zn	1.498458	-0.360556	-0.780878
Zn2	Zn	1.520149	-0.502252	-0.608889
Zn3	Zn	1.348298	-0.364514	-0.587108
Zn4	Zn	1.326418	-0.471132	-0.759022
O5	O	1.423331	-0.424614	-0.683974
O6	O	1.645255	-0.390719	-0.776325
O7	O	1.515586	-0.498661	-0.462075
O8	O	1.368296	-0.260069	-0.612844
O9	O	1.661191	-0.494822	-0.649965
O10	O	1.478618	-0.257161	-0.755206
O11	O	1.389329	-0.397466	-0.446073
O12	O	1.201476	-0.367291	-0.591651
O13	O	1.331006	-0.441784	-0.905846
O14	O	1.185401	-0.445623	-0.717956
O15	O	1.457403	-0.360544	-0.921904
O16	O	1.494371	-0.602044	-0.628773
O17	O	1.352038	-0.579181	-0.739075
C18	C	1.156122	-0.403510	-0.650069
C19	C	1.041806	-0.394497	-0.635588
C20	C	0.982926	-0.429318	-0.691532
C21	C	0.864774	-0.420003	-0.676567
C22	C	1.423209	-0.617558	-0.683942
C23	C	1.423246	-0.700104	-0.683974
C24	C	1.345916	-0.887156	-0.743941
C25	C	1.332758	-0.944174	-0.646915
C26	C	1.423346	-0.851241	-0.684000
C27	C	1.436554	-0.941307	-0.781043
C28	C	1.423439	-0.997231	-0.684033
C29	C	1.410144	-0.907173	-0.586918
C30	C	1.513976	-0.904299	-0.721116
C31	C	1.500861	-0.961304	-0.624029
C32	C	1.423289	-0.767139	-0.683982
C33	C	1.423497	-1.081332	-0.684041
C34	C	1.691583	-0.445800	-0.718013
C35	C	1.805896	-0.454829	-0.732518
C36	C	1.389344	-0.397251	-0.952236
C37	C	1.374861	-0.385591	-1.066554
C38	C	1.423479	-0.230916	-0.684033
C39	C	1.423541	-0.148374	-0.684059
C40	C	1.430874	-0.430461	-1.125437
C41	C	1.415906	-0.418411	-1.243590
C42	C	1.457245	-0.451821	-0.416764
C43	C	1.471927	-0.463288	-0.302472
H44	H	0.842951	-0.491534	-0.791503
H45	H	1.256158	-0.961866	-0.615549
H46	H	1.447689	-0.956550	-0.863099
F47	F	1.395475	-0.887363	-0.479620
F48	F	0.816341	-0.372016	-0.599482
F49	F	0.993368	-0.346513	-0.558508
F50	F	1.031364	-0.477300	-0.768614
F51	F	1.260235	-0.845135	-0.810077
F52	F	1.586512	-1.003159	-0.557709
H53	H	1.489913	-0.477795	-1.088378
F54	F	1.614067	-0.881167	-0.762168
H55	H	1.356871	-0.371068	-1.280646
H56	H	1.530971	-0.510625	-1.265419
H57	H	1.315830	-0.338251	-1.103614
