data_functionalizedCrystal
_audit_creation_method	'MofGen! by Chris Wilmer'
_symmetry_space_group_name_H-M	'P1'
_symmetry_Int_Tables_number	1
_symmetry_cell_setting	triclinic
loop_
_symmetry_equiv_pos_as_xyz
  x,y,z
_cell_length_a	10.686220
_cell_length_b	13.897448
_cell_length_c	13.897441
_cell_angle_alpha	90.029627
_cell_angle_beta	85.648699
_cell_angle_gamma	94.399460
loop_
_atom_site_label
_atom_site_type_symbol
_atom_site_fract_x
_atom_site_fract_y
_atom_site_fract_z
Zn1	Zn	1.929082	-0.270721	0.432418
Zn2	Zn	2.262415	0.062612	0.765751
Zn3	Zn	2.595749	0.395946	1.099085
Zn4	Zn	1.928951	-0.432048	0.271127
Zn5	Zn	2.262285	-0.098714	0.604460
Zn6	Zn	2.595618	0.234619	0.937794
Zn7	Zn	1.718074	-0.283151	0.283493
Zn8	Zn	2.051407	0.050183	0.616826
Zn9	Zn	2.384740	0.383516	0.950159
Zn10	Zn	1.718042	-0.444368	0.444730
Zn11	Zn	2.051375	-0.111034	0.778063
Zn12	Zn	2.384708	0.222299	1.111397
O13	O	1.823537	-0.357572	0.357942
O14	O	2.156870	-0.024238	0.691275
O15	O	2.490204	0.309095	1.024609
O16	O	2.105639	-0.281763	0.400695
O17	O	2.438972	0.051570	0.734028
O18	O	2.772305	0.384903	1.067361
O19	O	1.900936	-0.412342	0.137788
O20	O	2.234270	-0.079009	0.471121
O21	O	2.567603	0.254325	0.804455
O22	O	1.746132	-0.146516	0.303270
O23	O	2.079466	0.186817	0.636604
O24	O	2.412799	0.520151	0.969937
O25	O	2.105543	-0.400289	0.282195
O26	O	2.438876	-0.066956	0.615528
O27	O	2.772209	0.266377	0.948862
O28	O	1.901159	-0.137384	0.412685
O29	O	2.234493	0.195949	0.746018
O30	O	2.567826	0.529283	1.079352
O31	O	1.746006	-0.302948	0.146873
O32	O	2.079339	0.030385	0.480206
O33	O	2.412672	0.363719	0.813540
O34	O	1.541495	-0.314894	0.315209
O35	O	1.874829	0.018439	0.648542
O36	O	2.208162	0.351772	0.981875
O37	O	1.746078	-0.421287	0.578076
O38	O	2.079412	-0.087954	0.911409
O39	O	2.412745	0.245380	1.244743
O40	O	1.541472	-0.433340	0.433669
O41	O	1.874805	-0.100006	0.767003
O42	O	2.208139	0.233327	1.100336
O43	O	1.901128	-0.293710	0.569031
O44	O	2.234462	0.039624	0.902364
O45	O	2.567795	0.372957	1.235697
O46	O	1.900906	-0.568667	0.294133
O47	O	2.234239	-0.235334	0.627467
O48	O	2.567572	0.097999	0.960800
O49	O	1.745951	-0.577719	0.421679
O50	O	2.079285	-0.244386	0.755012
O51	O	2.412618	0.088948	1.088346
C52	C	1.495700	-0.376803	0.377117
C53	C	1.829033	-0.043470	0.710451
C54	C	2.162367	0.289863	1.043784
C55	C	1.355450	-0.385054	0.385344
C56	C	1.688783	-0.051721	0.718677
C57	C	2.022117	0.281613	1.052010
C58	C	1.823445	-0.608191	0.357919
C59	C	2.156778	-0.274858	0.691253
C60	C	2.490112	0.058475	1.024586
C61	C	1.823521	-0.715401	0.357935
C62	C	2.156854	-0.382068	0.691269
C63	C	2.490188	-0.048734	1.024602
C64	C	1.823654	-0.911688	0.357988
C65	C	2.156987	-0.578355	0.691321
C66	C	2.490320	-0.245021	1.024655
C67	C	1.823576	-0.802460	0.357962
C68	C	2.156910	-0.469127	0.691295
C69	C	2.490243	-0.135794	1.024628
C70	C	2.152654	-0.338266	0.338692
C71	C	2.485988	-0.004932	0.672025
C72	C	2.819321	0.328401	1.005359
C73	C	2.292905	-0.330039	0.330489
C74	C	2.626238	0.003295	0.663822
C75	C	2.959571	0.336628	0.997156
C76	C	1.823614	-0.357486	0.609531
C77	C	2.156948	-0.024153	0.942864
C78	C	2.490281	0.309181	1.276197
C79	C	1.823647	-0.357450	0.716743
C80	C	2.156981	-0.024116	1.050076
C81	C	2.490314	0.309217	1.383409
C82	C	1.823664	-0.105971	0.357984
C83	C	2.156997	0.227362	0.691317
C84	C	2.490331	0.560695	1.024650
C85	C	1.823718	0.001246	0.358001
C86	C	2.157051	0.334579	0.691335
C87	C	2.490385	0.667913	1.024668
C88	C	1.823533	-0.357583	0.107328
C89	C	2.156866	-0.024250	0.440661
C90	C	2.490199	0.309084	0.773995
C91	C	1.823744	-0.357333	0.000102
C92	C	2.157078	-0.024000	0.333435
C93	C	2.490411	0.309333	0.666769
C94	C	1.823673	-0.357421	0.803811
C95	C	2.157007	-0.024088	1.137144
C96	C	2.490340	0.309246	1.470478
C97	C	1.823709	-0.357375	0.913041
C98	C	2.157043	-0.024042	1.246375
C99	C	2.490376	0.309291	1.579708
H100	H	1.346652	-0.276627	0.277231
H101	H	1.679986	0.056707	0.610565
H102	H	2.013319	0.390040	0.943898
Br103	Br	1.265867	-0.474099	0.474104
Br104	Br	1.599200	-0.140766	0.807437
Br105	Br	1.932534	0.192567	1.140771
