data_functionalizedCrystal
_audit_creation_method	'MofGen! by Chris Wilmer'
_symmetry_space_group_name_H-M	'P1'
_symmetry_Int_Tables_number	1
_symmetry_cell_setting	triclinic
loop_
_symmetry_equiv_pos_as_xyz
  x,y,z
_cell_length_a	12.759400
_cell_length_b	19.077312
_cell_length_c	12.759393
_cell_angle_alpha	92.276336
_cell_angle_beta	89.970739
_cell_angle_gamma	87.719933
loop_
_atom_site_label
_atom_site_type_symbol
_atom_site_fract_x
_atom_site_fract_y
_atom_site_fract_z
Zn1	Zn	-0.482647	1.076018	-0.529508
Zn2	Zn	0.017353	1.576018	-0.029508
Zn3	Zn	-0.658358	1.075947	-0.353837
Zn4	Zn	-0.158358	1.575947	0.146163
Zn5	Zn	-0.475651	0.958319	-0.360901
Zn6	Zn	0.024349	1.458319	0.139099
Zn7	Zn	-0.651237	0.958314	-0.536527
Zn8	Zn	-0.151237	1.458314	-0.036527
O9	O	-0.566973	1.017150	-0.445193
O10	O	-0.066973	1.517150	0.054807
O11	O	-0.511864	1.174496	-0.500311
O12	O	-0.011864	1.674496	-0.000311
O13	O	-0.634174	1.060315	-0.207754
O14	O	-0.134174	1.560315	0.292246
O15	O	-0.329560	0.973963	-0.383286
O16	O	0.170440	1.473963	0.116714
O17	O	-0.640959	1.174444	-0.371246
O18	O	-0.140959	1.674444	0.128754
O19	O	-0.334700	1.060437	-0.507161
O20	O	0.165300	1.560437	-0.007161
O21	O	-0.499940	0.973894	-0.212945
O22	O	0.000060	1.473894	0.287055
O23	O	-0.493034	0.859831	-0.390092
O24	O	0.006966	1.359831	0.109908
O25	O	-0.628820	0.973956	-0.682616
O26	O	-0.128820	1.473956	-0.182616
O27	O	-0.622036	0.859828	-0.519124
O28	O	-0.122036	1.359828	-0.019124
O29	O	-0.504958	1.060433	-0.677459
O30	O	-0.004958	1.560433	-0.177459
O31	O	-0.804433	1.060311	-0.378052
O32	O	-0.304433	1.560311	0.121948
O33	O	-0.799200	0.973887	-0.512274
O34	O	-0.299200	1.473887	-0.012274
C35	C	-0.556004	0.834293	-0.456137
C36	C	-0.056004	1.334293	0.043863
C37	C	-0.551336	0.756066	-0.460844
C38	C	-0.051336	1.256066	0.039156
C39	C	-0.839938	1.017110	-0.445180
C40	C	-0.339938	1.517110	0.054820
C41	C	-0.956718	1.017157	-0.445205
C42	C	-0.456718	1.517157	0.054795
C43	C	-0.517775	0.315734	-0.494612
C44	C	-0.017775	0.815734	0.005388
C45	C	-0.522181	0.389236	-0.490184
C46	C	-0.022181	0.889236	0.009816
C47	C	-0.591485	0.425951	-0.420663
C48	C	-0.091485	0.925951	0.079337
C49	C	-0.656396	0.389160	-0.355575
C50	C	-0.156396	0.889160	0.144425
C51	C	-0.651996	0.315659	-0.360009
C52	C	-0.151996	0.815659	0.139991
C53	C	-0.611847	0.645773	-0.400189
C54	C	-0.111847	1.145773	0.099811
C55	C	-0.616240	0.719279	-0.395758
C56	C	-0.116240	1.219279	0.104242
C57	C	-0.482025	0.719351	-0.530369
C58	C	0.017975	1.219351	-0.030369
C59	C	-0.477626	0.645848	-0.534793
C60	C	0.022374	1.145848	-0.034793
C61	C	-0.542541	0.609063	-0.469708
C62	C	-0.042541	1.109063	0.030292
N63	N	-0.595987	0.501083	-0.416133
N64	N	-0.095987	1.001083	0.083867
N65	N	-0.538044	0.533933	-0.474244
N66	N	-0.038044	1.033933	0.025756
C67	C	-1.123904	1.062199	-0.509786
C68	C	-0.623904	1.562199	-0.009786
C69	C	-1.014178	1.062163	-0.509764
C70	C	-0.514178	1.562163	-0.009764
C71	C	-1.008989	0.972190	-0.380656
C72	C	-0.508989	1.472190	0.119344
C73	C	-1.118714	0.972230	-0.380673
C74	C	-0.618714	1.472230	0.119327
C75	C	-0.292943	1.017209	-0.445229
C76	C	0.207057	1.517209	0.054771
C77	C	-0.176168	1.017234	-0.445244
C78	C	0.323832	1.517234	0.054756
C79	C	-0.566875	1.017202	-0.719224
C80	C	-0.066875	1.517202	-0.219224
C81	C	-0.566834	1.017225	-0.835999
C82	C	-0.066834	1.517225	-0.335999
C83	C	-0.577986	1.200720	-0.434208
C84	C	-0.077986	1.700720	0.065792
C85	C	-0.582679	1.278948	-0.429526
C86	C	-0.082679	1.778948	0.070474
C87	C	-0.502328	1.062256	-0.888177
C88	C	-0.002328	1.562256	-0.388177
C89	C	-0.502284	1.062268	-0.997901
C90	C	-0.002284	1.562268	-0.497901
C91	C	-0.631259	0.972215	-1.003258
C92	C	-0.131259	1.472215	-0.503258
C93	C	-0.631297	0.972200	-0.893537
C94	C	-0.131297	1.472200	-0.393537
C95	C	-0.566997	1.017138	-0.172227
C96	C	-0.066997	1.517138	0.327773
C97	C	-0.566751	1.017251	-0.055444
C98	C	-0.066751	1.517251	0.444556
H99	H	-0.461334	0.285846	-0.551217
H100	H	0.038666	0.785846	-0.051217
H101	H	-0.683745	0.935559	-1.050118
H102	H	-0.183745	1.435559	-0.550118
C103	C	-1.187106	1.111704	-0.580801
C104	C	-0.687106	1.611704	-0.080801
H105	H	-1.259940	1.105286	-0.571577
H106	H	-0.759940	1.605286	-0.071577
H107	H	-1.171910	1.158990	-0.562648
H108	H	-0.671910	1.658990	-0.062648
H109	H	-1.168467	1.101370	-0.651998
H110	H	-0.668467	1.601370	-0.151998
H111	H	-0.704850	0.285708	-0.307011
H112	H	-0.204850	0.785708	0.192989
H113	H	-0.971628	1.098779	-0.562319
H114	H	-0.471628	1.598779	-0.062319
C115	C	-0.450792	0.429702	-0.561780
C116	C	0.049208	0.929702	-0.061780
H117	H	-0.463347	0.478735	-0.549196
H118	H	0.036653	0.978735	-0.049196
H119	H	-0.379460	0.417665	-0.547258
H120	H	0.120540	0.917665	-0.047258
H121	H	-0.465545	0.417678	-0.633071
H122	H	0.034455	0.917678	-0.133071
C123	C	-0.683238	0.605318	-0.328586
C124	C	-0.183238	1.105318	0.171414
H125	H	-0.725131	0.637713	-0.286540
H126	H	-0.225131	1.137713	0.213460
H127	H	-0.727354	0.576653	-0.370416
H128	H	-0.227354	1.076653	0.129584
H129	H	-0.641265	0.576635	-0.284607
H130	H	-0.141265	1.076635	0.215393
C131	C	-0.431333	1.111806	-1.055292
C132	C	0.068667	1.611806	-0.555292
H133	H	-0.392955	1.138621	-1.005307
H134	H	0.107045	1.638621	-0.505307
H135	H	-0.383922	1.084904	-1.099708
H136	H	0.116078	1.584904	-0.599708
H137	H	-0.473357	1.142469	-1.096257
H138	H	0.026643	1.642469	-0.596257
H139	H	-0.421195	0.615960	-0.591407
H140	H	0.078805	1.115960	-0.091407
H141	H	-0.683824	0.935525	-0.851053
H142	H	-0.183824	1.435525	-0.351053
H143	H	-0.962199	0.935548	-0.328085
H144	H	-0.462199	1.435548	0.171915
H145	H	-0.449835	1.098916	-0.841333
H146	H	0.050165	1.598916	-0.341333
C147	C	-0.410636	0.759816	-0.601966
C148	C	0.089364	1.259816	-0.101966
H149	H	-0.423187	0.808849	-0.589378
H150	H	0.076813	1.308849	-0.089378
H151	H	-0.339305	0.747775	-0.587446
H152	H	0.160695	1.247775	-0.087446
H153	H	-0.425393	0.747794	-0.673256
H154	H	0.074607	1.247794	-0.173256
C155	C	-0.692495	0.759664	-0.319298
C156	C	-0.192495	1.259664	0.180702
H157	H	-0.730537	0.727230	-0.281181
H158	H	-0.230537	1.227230	0.218819
H159	H	-0.653977	0.788328	-0.271857
H160	H	-0.153977	1.288328	0.228143
H161	H	-0.740032	0.788343	-0.357701
H162	H	-0.240032	1.288343	0.142299
H163	H	-1.161268	0.935613	-0.328110
H164	H	-0.661268	1.435613	0.171890
H165	H	-0.712830	0.419059	-0.298974
H166	H	-0.212830	0.919059	0.201026
