data_functionalizedCrystal
_audit_creation_method	'MofGen! by Chris Wilmer'
_symmetry_space_group_name_H-M	'P1'
_symmetry_Int_Tables_number	1
_symmetry_cell_setting	triclinic
loop_
_symmetry_equiv_pos_as_xyz
  x,y,z
_cell_length_a	12.645331
_cell_length_b	19.805405
_cell_length_c	19.805399
_cell_angle_alpha	90.029301
_cell_angle_beta	89.981181
_cell_angle_gamma	89.974611
loop_
_atom_site_label
_atom_site_type_symbol
_atom_site_fract_x
_atom_site_fract_y
_atom_site_fract_z
Zn1	Zn	1.620627	0.269497	-0.382698
Zn2	Zn	1.620493	0.382686	-0.269506
Zn3	Zn	1.443353	0.269514	-0.269524
Zn4	Zn	1.443296	0.382648	-0.382655
O5	O	1.531942	0.326086	-0.326096
O6	O	1.768956	0.284521	-0.367694
O7	O	1.596963	0.367696	-0.174792
O8	O	1.466949	0.174795	-0.284562
O9	O	1.768858	0.367680	-0.284532
O10	O	1.597191	0.174783	-0.367711
O11	O	1.466819	0.284549	-0.174805
O12	O	1.294998	0.284512	-0.284520
O13	O	1.466851	0.367615	-0.477377
O14	O	1.294956	0.367631	-0.367637
O15	O	1.597135	0.284484	-0.477409
O16	O	1.596908	0.477397	-0.284490
O17	O	1.466722	0.477369	-0.367620
C18	C	1.256513	0.326070	-0.326076
C19	C	1.138683	0.326079	-0.326084
C20	C	1.531823	0.501942	-0.326063
C21	C	1.531869	0.577174	-0.326072
C22	C	1.532002	0.326044	-0.502638
C23	C	1.532027	0.326025	-0.577871
C24	C	0.971110	0.273549	-0.274084
C25	C	1.093669	0.273685	-0.273855
C26	C	1.094147	0.397380	-0.306591
C27	C	0.971549	0.397093	-0.306236
C28	C	0.971530	0.307988	-0.397777
C29	C	1.094136	0.306395	-0.397379
C30	C	1.808447	0.326103	-0.326116
C31	C	1.926278	0.326110	-0.326124
C32	C	1.532091	0.149543	-0.326143
C33	C	1.532154	0.074311	-0.326164
C34	C	1.599723	0.612510	-0.282831
C35	C	1.599768	0.683199	-0.282846
C36	C	1.531953	0.718550	-0.326099
C37	C	1.464096	0.683209	-0.369344
C38	C	1.464057	0.612521	-0.369332
C39	C	1.464253	0.968282	-0.369394
C40	C	1.464294	1.038974	-0.369401
C41	C	1.599963	1.038959	-0.282909
C42	C	1.599924	0.968272	-0.282896
C43	C	1.532072	0.932937	-0.326144
C44	C	1.532025	0.856289	-0.326128
C45	C	1.531993	0.795197	-0.326111
C46	C	1.599867	0.282737	-0.613232
C47	C	1.599878	0.282717	-0.683921
C48	C	1.532053	0.325990	-0.719246
C49	C	1.464205	0.369280	-0.683879
C50	C	1.464190	0.369296	-0.613192
C51	C	1.464265	0.369217	-0.968953
C52	C	1.464288	0.369200	-1.039645
C53	C	1.599954	0.282638	-1.039681
C54	C	1.599938	0.282654	-0.968994
C55	C	1.532087	0.325942	-0.933634
C56	C	1.532074	0.325962	-0.856985
C57	C	1.532070	0.325974	-0.795893
C58	C	1.531944	0.326080	-0.150240
C59	C	1.532124	0.325907	-0.075008
H60	H	1.123781	0.220813	-0.286073
H61	H	1.655141	0.939492	-0.247674
O62	O	1.390951	0.721331	-0.415998
H63	H	1.307757	0.707805	-0.404340
H64	H	1.123251	0.253926	-0.412077
O65	O	1.132761	0.450645	-0.355221
H66	H	1.178429	0.489417	-0.327169
H67	H	1.124781	0.341886	-0.438228
H68	H	1.655102	0.247501	-0.584476
O69	O	1.391018	0.415984	-0.575047
H70	H	1.337102	0.385685	-0.542852
H71	H	1.408805	0.583751	-0.404543
O72	O	1.391068	0.930168	-0.416029
H73	H	1.337158	0.898007	-0.385692
O74	O	1.132441	0.289542	-0.203515
H75	H	1.180977	0.336207	-0.204733
H76	H	1.408977	0.404511	-0.712647
H77	H	1.655123	0.247469	-0.712709
O78	O	1.673092	0.235983	-0.930891
H79	H	1.720263	0.205873	-0.967357
O80	O	0.933123	0.358689	-0.449146
H81	H	0.882052	0.396614	-0.423811
H82	H	1.655198	0.247389	-1.068481
H83	H	1.409052	0.404439	-1.068405
O84	O	0.930626	0.240319	-0.421256
H85	H	0.998247	0.205594	-0.429791
O86	O	0.932031	0.203307	-0.290053
H87	H	0.880240	0.205103	-0.335254
O88	O	1.672882	0.574383	-0.236190
H89	H	1.625463	0.542224	-0.201714
O90	O	1.673153	1.077075	-0.236266
H91	H	1.720291	1.040616	-0.206183
H92	H	1.655020	0.711966	-0.247635
H93	H	1.409073	1.067755	-0.404627
H94	H	0.942905	0.412461	-0.253854
H95	H	1.409032	0.404475	-0.940171
H96	H	0.941891	0.437580	-0.342487
O97	O	0.930269	0.289252	-0.204163
H98	H	0.842589	0.286670	-0.204113
O99	O	1.134741	0.418098	-0.237950
H100	H	1.108853	0.380634	-0.199708
