data_functionalizedCrystal
_audit_creation_method	'MofGen! by Chris Wilmer'
_symmetry_space_group_name_H-M	'P1'
_symmetry_Int_Tables_number	1
_symmetry_cell_setting	triclinic
loop_
_symmetry_equiv_pos_as_xyz
  x,y,z
_cell_length_a	27.731994
_cell_length_b	27.732048
_cell_length_c	18.266242
_cell_angle_alpha	89.988683
_cell_angle_beta	89.997046
_cell_angle_gamma	82.631595
loop_
_atom_site_label
_atom_site_type_symbol
_atom_site_fract_x
_atom_site_fract_y
_atom_site_fract_z
O1	O	0.640947	0.057393	-0.060784
O2	O	0.500150	0.066166	-0.060810
O3	O	0.574922	-0.008618	-0.060782
O4	O	0.566176	0.132177	-0.060812
O5	O	0.574909	-0.008622	0.060980
O6	O	0.500138	0.066162	0.060952
O7	O	0.640935	0.057389	0.060978
Zn8	Zn	0.570534	0.061775	0.080297
Zn9	Zn	0.570551	0.061780	-0.080129
O10	O	0.566163	0.132173	0.060950
C11	C	0.482137	0.065984	0.000068
C12	C	0.428480	0.065442	0.000059
C13	C	0.095755	0.062024	0.066460
C14	C	-0.105903	0.059962	0.066469
O15	O	-0.131982	0.059673	0.122916
N16	N	-0.131111	0.059708	0.000097
C17	C	-0.105901	0.059966	-0.066282
O18	O	-0.131969	0.059698	-0.122736
C19	C	0.095757	0.062025	-0.066290
C20	C	0.120961	0.062283	0.000086
C21	C	0.120960	0.062282	0.132832
C22	C	0.171371	0.062800	0.132829
C23	C	0.196577	0.063060	0.066455
C24	C	0.171372	0.062801	0.000083
C25	C	0.120966	0.062279	-0.132669
C26	C	0.171384	0.062793	-0.132665
C27	C	0.196589	0.063052	-0.066288
C28	C	0.246990	0.063579	-0.066294
N29	N	0.272198	0.063833	0.000079
C30	C	0.246992	0.063574	0.066453
C31	C	-0.211774	0.058887	-0.066274
C32	C	-0.262189	0.058373	-0.066272
C33	C	-0.262187	0.058368	0.066480
C34	C	-0.211773	0.058885	0.066478
C35	C	-0.186566	0.059141	0.000099
C36	C	0.352859	0.064662	0.066442
C37	C	0.403274	0.065182	0.066433
C38	C	0.403268	0.065184	-0.066318
C39	C	0.352857	0.064667	-0.066310
C40	C	0.327654	0.064404	0.000076
O41	O	0.273100	0.063863	-0.122711
O42	O	0.273069	0.063831	0.122898
C43	C	0.045344	0.061506	0.066463
C44	C	0.020139	0.061247	0.000092
C45	C	0.045345	0.061507	-0.066282
C46	C	-0.030275	0.060734	0.000094
C47	C	-0.055482	0.060474	0.066468
C48	C	-0.030274	0.060728	0.132840
C49	C	0.020137	0.061246	0.132837
C50	C	0.020137	0.061253	-0.132654
C51	C	-0.030274	0.060736	-0.132646
C52	C	-0.055480	0.060476	-0.066272
C53	C	0.574732	-0.026627	0.000101
C54	C	0.574179	-0.080282	0.000107
C55	C	0.614884	-0.419105	0.000076
C56	C	0.612833	-0.620764	0.000066
O57	O	0.650055	-0.652027	0.000040
N58	N	0.568496	-0.639879	0.000058
C59	C	0.524670	-0.608576	0.000049
O60	O	0.486912	-0.629462	0.000035
C61	C	0.526721	-0.406918	0.000054
C62	C	0.571061	-0.387805	0.000069
C63	C	0.659220	-0.399992	0.000090
C64	C	0.659732	-0.349580	0.000097
C65	C	0.615908	-0.318281	0.000090
C66	C	0.571573	-0.337394	0.000076
C67	C	0.482895	-0.375615	0.000040
C68	C	0.483412	-0.325198	0.000039
C69	C	0.527751	-0.306086	0.000054
C70	C	0.528262	-0.255683	0.000075
N71	N	0.572598	-0.236567	0.000082
C72	C	0.616421	-0.267867	0.000090
C73	C	0.523596	-0.714450	0.000048
C74	C	0.523083	-0.764864	0.000048
C75	C	0.611246	-0.777049	0.000063
C76	C	0.611759	-0.726633	0.000068
C77	C	0.567932	-0.695335	0.000055
C78	C	0.617494	-0.161998	0.000104
C79	C	0.618002	-0.111581	0.000114
C80	C	0.529839	-0.099401	0.000095
C81	C	0.529331	-0.149813	0.000089
C82	C	0.573162	-0.181111	0.000091
O83	O	0.491060	-0.224391	0.000092
O84	O	0.654174	-0.246971	0.000087
C85	C	0.614372	-0.469517	0.000070
C86	C	0.570036	-0.488629	0.000056
C87	C	0.526213	-0.457330	0.000048
C88	C	0.569523	-0.539043	0.000056
C89	C	0.613346	-0.570343	0.000063
C90	C	0.657683	-0.551228	0.000070
C91	C	0.658195	-0.500816	0.000077
C92	C	0.481876	-0.476445	0.000041
C93	C	0.481367	-0.526857	0.000035
C94	C	0.525191	-0.558157	0.000043
C95	C	0.658949	0.057571	0.000098
C96	C	0.712605	0.058114	0.000102
C97	C	0.566353	0.150182	0.000066
C98	C	0.566906	0.203837	0.000055
N99	N	0.570527	0.061771	0.189784
N100	N	0.570562	0.061780	-0.189616
C101	C	0.603646	0.028673	0.228105
C102	C	0.603649	0.028671	0.304750
C103	C	0.570537	0.061775	0.343071
C104	C	0.537412	0.094876	0.304741
C105	C	0.537406	0.094874	0.228097
N106	N	0.564065	0.104595	0.463394
N107	N	0.564073	0.104595	0.536202
C108	C	0.570551	0.061782	0.573993
N109	N	0.577030	0.018967	0.536226
N110	N	0.577024	0.018967	0.463412
C111	C	0.570539	0.061781	0.426178
C112	C	0.603675	0.028679	0.695422
C113	C	0.603675	0.028676	0.772068
C114	C	0.537440	0.094885	0.772057
C115	C	0.537438	0.094884	0.695412
C116	C	0.570558	0.061781	0.657099
H117	H	0.191904	0.063001	-0.186720
H118	H	0.654110	-0.096023	0.000128
H119	H	0.630620	0.001717	0.335957
Br120	Br	0.718373	-0.474886	0.000093
Br121	Br	0.648622	-0.016251	0.824079
H122	H	0.510436	0.121827	0.196896
Br123	Br	0.492490	0.139806	0.643399
Br124	Br	0.492470	0.139801	0.356745
H125	H	0.630643	0.001723	0.664226
Br126	Br	0.437477	0.065536	0.156522
Br127	Br	0.648592	-0.016252	0.176108
H128	H	0.646929	-0.802541	0.000069
H129	H	0.647863	-0.711076	0.000080
H130	H	0.653186	-0.187475	0.000103
H131	H	0.332343	0.064452	0.120500
Br132	Br	0.719910	-0.323651	0.000096
Br133	Br	0.464111	-0.671979	0.000028
H134	H	0.494160	-0.073908	0.000091
Br135	Br	0.492497	0.139808	0.824058
Br136	Br	0.054336	0.061598	0.222925
H137	H	0.332333	0.064464	-0.120359
Br138	Br	0.086773	0.061927	-0.222758
Br139	Br	0.422395	-0.433975	0.000027
Br140	Br	0.205570	0.063149	0.222916
H141	H	0.100442	0.062070	0.186885
H142	H	-0.050792	0.060529	-0.186702
Br143	Br	-0.177571	0.059236	0.156563
H144	H	-0.282719	0.058158	0.120525
Br145	Br	0.462906	-0.790795	0.000045
H146	H	-0.282707	0.058170	-0.120322
H147	H	0.423800	0.065398	-0.120358
Br148	Br	-0.064493	0.060379	0.222919
Br149	Br	-0.177574	0.059234	-0.156368
H150	H	0.040655	0.061463	-0.186705
H151	H	0.694908	-0.425472	0.000094
Br152	Br	0.423929	-0.282724	0.000018
Br153	Br	0.469156	-0.175752	0.000086
H154	H	0.446789	-0.391167	0.000023
Br155	Br	0.717157	-0.593715	0.000086
H156	H	0.445258	-0.542413	0.000030
