data_functionalizedCrystal
_audit_creation_method	'MofGen! by Chris Wilmer'
_symmetry_space_group_name_H-M	'P1'
_symmetry_Int_Tables_number	1
_symmetry_cell_setting	triclinic
loop_
_symmetry_equiv_pos_as_xyz
  x,y,z
_cell_length_a	12.594516
_cell_length_b	12.759401
_cell_length_c	12.759393
_cell_angle_alpha	89.981287
_cell_angle_beta	89.971926
_cell_angle_gamma	90.017577
loop_
_atom_site_label
_atom_site_type_symbol
_atom_site_fract_x
_atom_site_fract_y
_atom_site_fract_z
Zn1	Zn	-0.423647	1.606233	-0.594038
Zn2	Zn	-0.601663	1.606127	-0.418366
Zn3	Zn	-0.423704	1.430539	-0.418373
Zn4	Zn	-0.601589	1.430520	-0.594003
O5	O	-0.512651	1.518355	-0.506195
O6	O	-0.447269	1.753240	-0.570746
O7	O	-0.578111	1.582799	-0.271345
O8	O	-0.274750	1.453898	-0.441693
O9	O	-0.578056	1.753162	-0.441680
O10	O	-0.274709	1.582980	-0.570754
O11	O	-0.447365	1.453795	-0.271351
O12	O	-0.447293	1.283515	-0.441659
O13	O	-0.577929	1.453865	-0.741029
O14	O	-0.577984	1.283501	-0.570694
O15	O	-0.447196	1.582961	-0.741054
O16	O	-0.750599	1.582780	-0.441646
O17	O	-0.750544	1.453762	-0.570686
C18	C	-0.512638	1.245388	-0.506174
C19	C	-0.512658	1.128611	-0.506190
C20	C	-0.580812	1.073769	-0.573272
C21	C	-0.580816	0.964045	-0.573293
C22	C	-0.444508	0.964014	-0.439140
C23	C	-0.444500	1.073736	-0.439125
C24	C	-0.619008	0.814143	-0.697155
C25	C	-0.687179	0.759298	-0.764229
C26	C	-0.791053	0.794893	-0.780181
C27	C	-0.826776	0.885331	-0.729045
C28	C	-0.758610	0.940171	-0.661964
C29	C	-0.654722	0.904578	-0.646031
C30	C	-0.406319	1.223640	-0.315262
C31	C	-0.338158	1.278482	-0.248175
C32	C	-0.234283	1.242889	-0.232212
C33	C	-0.198563	1.152447	-0.283330
C34	C	-0.266724	1.097605	-0.350417
C35	C	-0.370598	1.133206	-0.366381
C36	C	-0.789192	1.518286	-0.506185
C37	C	-0.907497	1.518353	-0.506215
C38	C	-0.976759	1.448173	-0.576351
C39	C	-1.047628	1.422576	-0.480484
C40	C	-1.047427	1.544046	-0.602099
C41	C	-0.976808	1.492705	-0.410297
C42	C	-0.976600	1.614219	-0.531977
C43	C	-1.047438	1.588658	-0.436044
C44	C	-0.235030	1.518453	-0.506228
C45	C	-0.116724	1.518494	-0.506242
C46	C	-0.512548	1.518423	-0.780228
C47	C	-0.512505	1.518452	-0.897005
C48	C	-0.512664	1.792388	-0.506216
C49	C	-0.512670	1.909165	-0.506226
C50	C	-0.580546	1.451254	-0.951855
C51	C	-0.580506	1.451292	-1.061579
C52	C	-0.444376	1.585727	-1.061593
C53	C	-0.444421	1.585694	-0.951871
C54	C	-0.705969	1.413752	-1.211519
C55	C	-0.774000	1.346538	-1.266373
C56	C	-0.790349	1.244007	-1.230758
C57	C	-0.738651	1.208669	-1.140291
C58	C	-0.670612	1.275878	-1.085443
C59	C	-0.654283	1.378423	-1.121056
C60	C	-0.318957	1.623223	-0.801930
C61	C	-0.250912	1.690427	-0.747080
C62	C	-0.234552	1.792960	-0.782692
C63	C	-0.286231	1.828294	-0.873163
C64	C	-0.354276	1.761090	-0.928013
C65	C	-0.370638	1.658558	-0.892393
C66	C	-0.512676	1.518348	-0.233227
C67	C	-0.512419	1.518522	-0.116451
H68	H	-0.237630	1.023968	-0.392047
H69	H	-0.396352	1.789866	-1.001682
F70	F	-0.162123	1.864480	-0.724315
H71	H	-0.846558	0.750230	-0.834795
H72	H	-0.208824	1.661646	-0.673419
F73	F	-0.796624	1.036414	-0.607540
F74	F	-0.936192	1.370465	-0.653764
F75	F	-0.862753	1.172474	-1.289142
F76	F	-0.649155	0.663052	-0.818653
F77	F	-1.087977	1.572375	-0.708070
F78	F	-1.088405	1.316689	-0.452007
F79	F	-0.376182	1.374730	-0.193757
F80	F	-0.653009	1.379692	-0.893466
H81	H	-0.628518	1.247105	-1.011789
H82	H	-0.751959	1.125173	-1.111308
F83	F	-0.935792	1.720078	-0.560488
H84	H	-0.816092	1.375320	-1.340032
H85	H	-0.692674	1.497245	-1.240518
H86	H	-0.945916	1.470937	-0.329198
F87	F	-1.087746	1.666313	-0.358449
F88	F	-0.268822	1.937422	-0.911067
H89	H	-0.332277	1.539733	-0.772922
H90	H	-0.113987	1.123455	-0.270316
H91	H	-0.490900	1.252635	-0.328263
F92	F	-0.371918	1.657285	-1.119995
H93	H	-0.911364	0.914298	-0.742030
F94	F	-0.653349	1.132167	-0.644651
F95	F	-0.161747	1.301252	-0.160797
H96	H	-0.534423	0.785161	-0.684184
H97	H	-0.389018	0.919322	-0.384537
