data_functionalizedCrystal
_audit_creation_method	'MofGen! by Chris Wilmer'
_symmetry_space_group_name_H-M	'P1'
_symmetry_Int_Tables_number	1
_symmetry_cell_setting	triclinic
loop_
_symmetry_equiv_pos_as_xyz
  x,y,z
_cell_length_a	17.038272
_cell_length_b	10.540539
_cell_length_c	9.616153
_cell_angle_alpha	89.995174
_cell_angle_beta	90.002312
_cell_angle_gamma	92.181476
loop_
_atom_site_label
_atom_site_type_symbol
_atom_site_fract_x
_atom_site_fract_y
_atom_site_fract_z
O1	O	0.110247	-1.696176	0.115581
O2	O	0.610247	-1.196176	0.615581
O3	O	0.120634	-1.327732	0.115599
O4	O	0.620634	-0.827732	0.615599
O5	O	0.001613	-1.509764	0.115579
O6	O	0.501613	-1.009764	0.615579
O7	O	0.229269	-1.514144	0.115601
O8	O	0.729269	-1.014144	0.615601
O9	O	0.001615	-1.509738	-0.115712
O10	O	0.501615	-1.009738	0.384288
O11	O	0.120637	-1.327705	-0.115693
O12	O	0.620637	-0.827705	0.384307
O13	O	0.110249	-1.696149	-0.115710
O14	O	0.610249	-1.196149	0.384290
Zn15	Zn	0.115443	-1.511923	-0.152424
Zn16	Zn	0.615443	-1.011923	0.347576
Zn17	Zn	0.115440	-1.511958	0.152313
Zn18	Zn	0.615440	-1.011958	0.652313
O19	O	0.229271	-1.514117	-0.115690
O20	O	0.729271	-1.014117	0.384310
C21	C	-0.027537	-1.505768	-0.000066
C22	C	0.472463	-1.005768	0.499934
C23	C	-0.114398	-1.493883	-0.000065
C24	C	0.385602	-0.993883	0.499935
C25	C	0.119857	-1.280343	-0.000045
C26	C	0.619857	-0.780343	0.499955
C27	C	0.117526	-1.139177	-0.000039
C28	C	0.617526	-0.639177	0.499961
N29	N	0.115445	-1.511909	-0.360398
N30	N	0.615445	-1.011909	0.139602
C31	C	-0.163886	-1.602994	-0.000072
C32	C	0.336114	-1.102994	0.499928
C33	C	-0.245501	-1.591820	-0.000058
C34	C	0.254499	-1.091820	0.499942
C35	C	-0.277626	-1.471534	-0.000048
C36	C	0.222374	-0.971534	0.499952
C37	C	-0.228133	-1.362416	-0.000037
C38	C	0.271867	-0.862416	0.499963
C39	C	-0.146519	-1.373591	-0.000041
C40	C	0.353481	-0.873591	0.499959
C41	C	-0.523611	-1.432055	-0.000027
C42	C	-0.023611	-0.932055	0.499973
C43	C	-0.605231	-1.420888	-0.000027
C44	C	-0.105231	-0.920888	0.499973
C45	C	-0.622593	-1.650293	-0.000046
C46	C	-0.122593	-1.150293	0.499954
C47	C	-0.540977	-1.661457	-0.000058
C48	C	-0.040977	-1.161457	0.499942
C49	C	-0.491491	-1.552339	-0.000040
C50	C	0.008509	-1.052339	0.499960
C51	C	-0.361050	-1.460110	-0.000038
C52	C	0.138950	-0.960110	0.499962
C53	C	-0.408069	-1.563764	-0.000040
C54	C	0.091931	-1.063764	0.499960
C55	C	0.258421	-1.518114	-0.000042
C56	C	0.758421	-1.018114	0.499958
C57	C	0.345282	-1.529998	-0.000034
C58	C	0.845282	-1.029998	0.499966
C59	C	0.111027	-1.743538	-0.000063
C60	C	0.611027	-1.243538	0.499937
C61	C	0.113358	-1.884704	-0.000061
C62	C	0.613358	-1.384704	0.499939
C63	C	0.028219	-0.947420	-0.000587
C64	C	0.528219	-0.447420	0.499413
C65	C	0.030581	-1.094259	-0.000051
C66	C	0.530581	-0.594259	0.499949
C67	C	0.159366	-1.081423	0.132039
C68	C	0.659366	-0.581423	0.632039
C69	C	0.156399	-0.934602	0.132135
C70	C	0.656399	-0.434602	0.632135
C71	C	0.158170	-0.934248	-0.130886
C72	C	0.658170	-0.434248	0.369114
C73	C	0.158971	-1.081305	-0.132618
C74	C	0.658971	-0.581305	0.367382
C75	C	0.178900	-1.414198	-0.580758
C76	C	0.678900	-0.914198	-0.080758
C77	C	0.179138	-1.414448	-0.419590
C78	C	0.679138	-0.914448	0.080410
C79	C	0.134015	-1.646364	-0.418852
C80	C	0.634015	-1.146364	0.081148
C81	C	0.134465	-1.645842	-0.580070
C82	C	0.634465	-1.145842	-0.080070
C83	C	0.033212	-1.476466	-0.580316
C84	C	0.533212	-0.976466	-0.080316
C85	C	0.033745	-1.473469	-0.419089
C86	C	0.533745	-0.973469	0.080911
N87	N	0.115432	-1.511982	0.360287
N88	N	0.615432	-1.011982	0.860287
H89	H	-0.137736	-1.700943	-0.000089
H90	H	0.362264	-1.200943	0.499911
F91	F	-0.012580	-1.144782	0.124103
F92	F	0.487420	-0.644782	0.624103
F93	F	-0.639419	-1.292858	-0.000023
F94	F	-0.139419	-0.792858	0.499977
H95	H	-0.387215	-1.362173	-0.000033
H96	H	0.112785	-0.862173	0.499967
F97	F	0.015345	-1.344131	-0.369158
F98	F	0.515345	-0.844131	0.130842
H99	H	-0.006128	-0.915620	-0.095308
H100	H	0.493872	-0.415620	0.404692
F101	F	-0.028534	-1.569535	-0.630146
F102	F	0.471466	-1.069535	-0.130146
H103	H	-0.015754	-1.539379	-0.378802
H104	H	0.484246	-1.039379	0.121198
H105	H	-0.483328	-1.343202	-0.000013
H106	H	0.016672	-0.843202	0.499987
H107	H	0.015538	-1.380080	-0.621051
H108	H	0.515538	-0.880080	-0.121051
H109	H	-0.514827	-1.759406	-0.000067
H110	H	-0.014827	-1.259406	0.499933
F111	F	-0.093851	-1.257461	-0.000030
F112	F	0.406149	-0.757461	0.499970
F113	F	-0.298166	-1.707951	-0.000068
F114	F	0.201834	-1.207951	0.499932
F115	F	0.240254	-0.880178	-0.132046
F116	F	0.740254	-0.380178	0.367954
F117	F	0.075243	-1.744216	-0.368740
F118	F	0.575243	-1.244216	0.131260
F119	F	0.115976	-0.893969	0.261172
F120	F	0.615976	-0.393969	0.761172
H121	H	-0.662893	-1.739130	-0.000058
H122	H	-0.162893	-1.239130	0.499942
H123	H	-0.005985	-0.914033	0.093600
H124	H	0.494015	-0.414033	0.593600
H125	H	0.222359	-1.111443	-0.140586
H126	H	0.722359	-0.611443	0.359414
F127	F	-0.262325	-1.234398	-0.000010
F128	F	0.237675	-0.734398	0.499990
H129	H	-0.381909	-1.661700	-0.000017
H130	H	0.118091	-1.161700	0.499983
H131	H	0.218928	-0.892466	0.138136
H132	H	0.718928	-0.392466	0.638136
F133	F	-0.012450	-1.145934	-0.123803
F134	F	0.487550	-0.645934	0.376197
H135	H	0.090100	-1.721346	-0.619066
H136	H	0.590100	-1.221346	-0.119066
H137	H	0.223216	-1.109732	0.136959
H138	H	0.723216	-0.609732	0.636959
F139	F	0.121375	-1.133556	0.260513
F140	F	0.621375	-0.633556	0.760513
H141	H	0.130034	-0.900066	-0.231000
H142	H	0.630034	-0.400066	0.269000
F143	F	0.118956	-1.130971	-0.260332
F144	F	0.618956	-0.630971	0.239668
H145	H	0.167964	-1.314789	-0.380072
H146	H	0.667964	-0.814789	0.119928
F147	F	0.164511	-1.283546	-0.631455
F148	F	0.664511	-0.783546	-0.131455
H149	H	0.239555	-1.437523	-0.621252
H150	H	0.739555	-0.937523	-0.121252
F151	F	0.258877	-1.445240	-0.369151
F152	F	0.758877	-0.945240	0.130849
H153	H	0.194450	-1.675792	-0.617653
H154	H	0.694450	-1.175792	-0.117653
H155	H	0.193323	-1.676794	-0.378457
H156	H	0.693323	-1.176794	0.121543
