data_functionalizedCrystal
_audit_creation_method	'MofGen! by Chris Wilmer'
_symmetry_space_group_name_H-M	'P1'
_symmetry_Int_Tables_number	1
_symmetry_cell_setting	triclinic
loop_
_symmetry_equiv_pos_as_xyz
  x,y,z
_cell_length_a	13.897449
_cell_length_b	18.101397
_cell_length_c	13.897441
_cell_angle_alpha	90.034904
_cell_angle_beta	90.023394
_cell_angle_gamma	90.021292
loop_
_atom_site_label
_atom_site_type_symbol
_atom_site_fract_x
_atom_site_fract_y
_atom_site_fract_z
Zn1	Zn	1.474684	-0.294790	0.545421
Zn2	Zn	1.474570	-0.418645	0.384110
Zn3	Zn	1.313373	-0.294824	0.384132
Zn4	Zn	1.313347	-0.418596	0.545355
O5	O	1.393994	-0.356714	0.464754
O6	O	1.609651	-0.311226	0.524041
O7	O	1.453150	-0.402255	0.249131
O8	O	1.334830	-0.191186	0.405564
O9	O	1.609567	-0.402222	0.405527
O10	O	1.453344	-0.191161	0.524062
O11	O	1.334720	-0.311284	0.249147
O12	O	1.178388	-0.311236	0.405500
O13	O	1.334785	-0.402137	0.680346
O14	O	1.178369	-0.402171	0.523950
O15	O	1.453319	-0.311178	0.680394
O16	O	1.453125	-0.522272	0.405463
O17	O	1.334675	-0.522235	0.523929
C18	C	1.143379	-0.356702	0.464721
C19	C	1.036165	-0.356715	0.464729
C20	C	1.393911	-0.549124	0.464708
C21	C	1.393964	-0.631438	0.464720
C22	C	0.949096	-0.356718	0.464745
C23	C	0.839863	-0.356723	0.464775
C24	C	1.394087	-0.930529	0.464808
C25	C	1.468405	-0.899196	0.390073
C26	C	1.468662	-0.813577	0.390266
C27	C	1.394026	-0.782147	0.464763
C28	C	1.421587	-0.813148	0.566438
C29	C	1.422162	-0.898793	0.566031
C30	C	1.292011	-0.899041	0.438749
C31	C	1.292515	-0.813391	0.436479
C32	C	1.393990	-0.698287	0.464745
C33	C	1.394126	-1.014389	0.464834
C34	C	1.645587	-0.356726	0.464789
C35	C	1.752800	-0.356731	0.464803
C36	C	1.394062	-0.356648	0.716348
C37	C	1.394091	-0.356620	0.823562
C38	C	1.394103	-0.163552	0.464822
C39	C	1.394149	-0.081238	0.464851
C40	C	1.393981	-0.356725	0.214140
C41	C	1.394139	-0.356545	0.106927
C42	C	1.394117	-0.356570	1.019857
C43	C	1.394100	-0.356600	0.910624
H44	H	1.451370	-0.919844	0.314457
C45	C	1.604869	-0.968360	0.334384
C46	C	1.569928	-0.928166	0.413069
H47	H	1.667543	-0.986248	0.348584
H48	H	1.607535	-0.937241	0.279444
H49	H	1.563232	-1.008857	0.321771
H50	H	1.611562	-0.887665	0.425677
H51	H	1.567268	-0.959286	0.468025
H52	H	1.544275	-0.793032	0.407508
C53	C	1.582149	-0.864649	0.613862
C54	C	1.522889	-0.925686	0.595817
H55	H	1.644337	-0.881251	0.632243
H56	H	1.555266	-0.835851	0.664278
H57	H	1.587047	-0.835458	0.557293
H58	H	1.517985	-0.954874	0.652388
H59	H	1.549778	-0.954496	0.545397
C60	C	1.445577	-0.707924	0.288475
C61	C	1.445385	-0.785279	0.288495
H62	H	1.431202	-0.690458	0.225643
H63	H	1.507217	-0.690499	0.307419
H64	H	1.398426	-0.690355	0.332341
H65	H	1.492541	-0.802848	0.244634
H66	H	1.383736	-0.802712	0.269539
C67	C	1.381752	-0.900698	0.733968
C68	C	1.352277	-0.926781	0.643772
H69	H	1.338617	-0.917980	0.781964
H70	H	1.381867	-0.848227	0.733681
H71	H	1.444759	-0.918211	0.747435
H72	H	1.289273	-0.909264	0.630302
H73	H	1.352152	-0.979263	0.644058
C74	C	1.281279	-0.740396	0.600685
C75	C	1.350759	-0.785658	0.643639
H76	H	1.237557	-0.723422	0.648348
H77	H	1.247253	-0.767786	0.553306
H78	H	1.311909	-0.699278	0.571285
H79	H	1.320130	-0.826779	0.673033
H80	H	1.384789	-0.758267	0.691035
H81	H	1.495365	-0.791638	0.588885
C82	C	1.175191	-0.865671	0.558353
C83	C	1.217249	-0.926391	0.512222
H84	H	1.129046	-0.882558	0.603716
H85	H	1.144435	-0.835213	0.511991
H86	H	1.223570	-0.838067	0.590650
H87	H	1.168871	-0.953991	0.479918
H88	H	1.248005	-0.956861	0.558590
C89	C	1.250774	-0.846833	0.274548
C90	C	1.264521	-0.786077	0.335439
H91	H	1.233521	-0.829973	0.212160
H92	H	1.200830	-0.877143	0.299394
H93	H	1.308657	-0.874579	0.270784
H94	H	1.206636	-0.758333	0.339209
H95	H	1.314469	-0.755755	0.310587
H96	H	1.266939	-0.920706	0.365893
H97	H	1.234164	-0.792004	0.486926
