data_functionalizedCrystal
_audit_creation_method	'MofGen! by Chris Wilmer'
_symmetry_space_group_name_H-M	'P1'
_symmetry_Int_Tables_number	1
_symmetry_cell_setting	triclinic
loop_
_symmetry_equiv_pos_as_xyz
  x,y,z
_cell_length_a	16.120530
_cell_length_b	12.645330
_cell_length_c	16.120297
_cell_angle_alpha	92.876762
_cell_angle_beta	90.128140
_cell_angle_gamma	87.113442
loop_
_atom_site_label
_atom_site_type_symbol
_atom_site_fract_x
_atom_site_fract_y
_atom_site_fract_z
Zn1	Zn	1.247482	-0.537081	-0.534595
Zn2	Zn	1.747482	-0.037081	-0.034595
Zn3	Zn	1.254445	-0.705843	-0.395547
Zn4	Zn	1.754445	-0.205843	0.104453
Zn5	Zn	1.115471	-0.519167	-0.388512
Zn6	Zn	1.615471	-0.019167	0.111488
Zn7	Zn	1.108402	-0.704866	-0.527517
Zn8	Zn	1.608402	-0.204866	-0.027517
O9	O	1.181450	-0.616739	-0.461543
O10	O	1.681450	-0.116739	0.038457
O11	O	1.364772	-0.567373	-0.522057
O12	O	1.864772	-0.067373	-0.022057
O13	O	1.241883	-0.673991	-0.278248
O14	O	1.741883	-0.173991	0.221752
O15	O	1.133026	-0.373200	-0.407909
O16	O	1.633026	0.126800	0.092091
O17	O	1.369888	-0.691362	-0.419899
O18	O	1.869888	-0.191362	0.080101
O19	O	1.230014	-0.386361	-0.515235
O20	O	1.730014	0.113639	-0.015235
O21	O	1.139779	-0.536842	-0.273080
O22	O	1.639779	-0.036842	0.226920
O23	O	0.998166	-0.535895	-0.401045
O24	O	1.498166	-0.035895	0.098955
O25	O	1.120978	-0.689698	-0.644821
O26	O	1.620978	-0.189698	-0.144821
O27	O	0.992972	-0.672327	-0.503171
O28	O	1.492972	-0.172327	-0.003171
O29	O	1.223160	-0.566427	-0.650022
O30	O	1.723160	-0.066427	-0.150022
O31	O	1.235028	-0.854056	-0.413035
O32	O	1.735028	-0.354056	0.086965
O33	O	1.127731	-0.853339	-0.509992
O34	O	1.627731	-0.353339	-0.009992
C35	C	0.965397	-0.602062	-0.450577
C36	C	1.465397	-0.102062	0.049423
C37	C	0.872967	-0.595810	-0.445905
C38	C	1.372967	-0.095810	0.054095
C39	C	0.703737	-0.584371	-0.437383
C40	C	1.203737	-0.084371	0.062617
C41	C	0.660000	-0.649190	-0.485763
C42	C	1.160000	-0.149190	0.014237
C43	C	0.565835	-0.642825	-0.481022
C44	C	1.065835	-0.142825	0.018978
C45	C	0.797911	-0.590734	-0.442124
C46	C	1.297911	-0.090734	0.057876
C47	C	1.181390	-0.892164	-0.461528
C48	C	1.681390	-0.392164	0.038472
C49	C	1.181439	-1.009999	-0.461554
C50	C	1.681439	-0.509999	0.038446
C51	C	1.114193	-1.177186	-0.522761
C52	C	1.614193	-0.677186	-0.022761
C53	C	1.113876	-1.054592	-0.522537
C54	C	1.613876	-0.554592	-0.022537
C55	C	1.162161	-1.047614	-0.372717
C56	C	1.662161	-0.547614	0.127283
C57	C	1.161751	-1.170210	-0.373088
C58	C	1.661751	-0.670210	0.126912
C59	C	1.268390	-1.184441	-0.488492
C60	C	1.768390	-0.684441	0.011508
C61	C	1.267753	-1.061915	-0.490381
C62	C	1.767753	-0.561915	0.009619
C63	C	1.398347	-0.631475	-0.472552
C64	C	1.898347	-0.131475	0.027448
C65	C	1.490775	-0.637754	-0.477244
C66	C	1.990775	-0.137754	0.022756
C67	C	1.170504	-0.629952	-0.678438
C68	C	1.670504	-0.129952	-0.178438
C69	C	1.165839	-0.635582	-0.770865
C70	C	1.665839	-0.135582	-0.270865
C71	C	1.181532	-0.340242	-0.461577
C72	C	1.681532	0.159758	0.038423
C73	C	1.181567	-0.222415	-0.461592
C74	C	1.681567	0.277585	0.038408
C75	C	1.157292	-0.645836	-0.940091
C76	C	1.657292	-0.145836	-0.440091
C77	C	1.205771	-0.587337	-0.983855
C78	C	1.705771	-0.087337	-0.483855
C79	C	1.201016	-0.593042	-1.078018
C80	C	1.701016	-0.093042	-0.578018
C81	C	1.162047	-0.640132	-0.845919
C82	C	1.662047	-0.140132	-0.345919
C83	C	1.192401	-0.603505	-0.245494
C84	C	1.692401	-0.103505	0.254506
C85	C	1.197227	-0.597587	-0.153075
C86	C	1.697227	-0.097587	0.346925
H87	H	1.125422	-1.029426	-0.588270
H88	H	1.625422	-0.529426	-0.088270
F89	F	1.098381	-0.716896	-0.983549
F90	F	1.598381	-0.216896	-0.483549
H91	H	0.670462	-0.524103	-0.392405
H92	H	1.170462	-0.024103	0.107595
H93	H	1.318531	-1.213794	-0.443994
H94	H	1.818531	-0.713794	0.056006
F95	F	0.703493	-0.727966	-0.544562
F96	F	1.203493	-0.227966	-0.044562
F97	F	1.264703	-0.516293	-0.940397
F98	F	1.764703	-0.016293	-0.440397
F99	F	1.129088	-1.222157	-0.608950
F100	F	1.629088	-0.722157	-0.108950
H101	H	1.050134	-1.202791	-0.504798
H102	H	1.550134	-0.702791	-0.004798
F103	F	1.224524	-1.009564	-0.311260
F104	F	1.724524	-0.509564	0.188740
F105	F	1.078966	-1.200491	-0.343979
F106	F	1.578966	-0.700491	0.156021
F107	F	1.029625	-1.009402	-0.498787
F108	F	1.529625	-0.509402	0.001213
H109	H	1.099513	-1.011500	-0.350136
H110	H	1.599513	-0.511500	0.149864
F111	F	1.223416	-1.208962	-0.311168
F112	F	1.723416	-0.708962	0.188832
F113	F	1.292512	-1.231705	-0.572032
F114	F	1.792512	-0.731705	-0.072032
H115	H	1.320237	-1.032010	-0.449427
H116	H	1.820237	-0.532010	0.050573
F117	F	1.286863	-1.030567	-0.575865
F118	F	1.786863	-0.530567	-0.075865
