data_functionalizedCrystal
_audit_creation_method	'MofGen! by Chris Wilmer'
_symmetry_space_group_name_H-M	'P1'
_symmetry_Int_Tables_number	1
_symmetry_cell_setting	triclinic
loop_
_symmetry_equiv_pos_as_xyz
  x,y,z
_cell_length_a	14.519709
_cell_length_b	10.654550
_cell_length_c	9.130313
_cell_angle_alpha	90.000488
_cell_angle_beta	90.003947
_cell_angle_gamma	84.082538
loop_
_atom_site_label
_atom_site_type_symbol
_atom_site_fract_x
_atom_site_fract_y
_atom_site_fract_z
O1	O	0.129530	1.666595	0.121694
O2	O	0.629530	2.166595	0.621694
O3	O	0.141871	1.300997	0.121721
O4	O	0.641871	1.800997	0.621721
O5	O	0.001513	1.493489	0.121693
O6	O	0.501513	1.993489	0.621693
O7	O	0.269889	1.474103	0.121721
O8	O	0.769889	1.974103	0.621721
O9	O	0.001513	1.493475	-0.121906
O10	O	0.501513	1.993475	0.378094
O11	O	0.141871	1.300983	-0.121878
O12	O	0.641871	1.800983	0.378122
O13	O	0.129530	1.666580	-0.121905
O14	O	0.629530	2.166580	0.378095
Cu15	Cu	0.135701	1.483780	-0.144134
Cu16	Cu	0.635701	1.983780	0.355866
Cu17	Cu	0.135701	1.483797	0.143950
Cu18	Cu	0.635701	1.983797	0.643950
O19	O	0.269889	1.474088	-0.121878
O20	O	0.769889	1.974088	0.378122
C21	C	0.140965	1.254201	-0.000075
C22	C	0.640965	1.754201	0.499925
C23	C	0.138254	1.114784	-0.000065
C24	C	0.638254	1.614784	0.499935
C25	C	-0.032852	1.492579	-0.000106
C26	C	0.467148	1.992579	0.499894
C27	C	-0.135247	1.489871	-0.000107
C28	C	0.364753	1.989871	0.499893
C29	C	0.220895	1.034504	-0.000061
C30	C	0.720895	1.534504	0.499939
C31	C	0.218342	0.903507	-0.000087
C32	C	0.718342	1.403507	0.499913
C33	C	0.050500	0.933084	-0.000115
C34	C	0.550500	1.433084	0.499885
C35	C	0.053054	1.064078	-0.000100
C36	C	0.553054	1.564078	0.499900
C37	C	-0.510195	1.479904	-0.000068
C38	C	-0.010195	1.979904	0.499932
C39	C	-0.405872	1.482672	-0.000079
C40	C	0.094128	1.982672	0.499921
C41	C	-0.322724	1.484887	-0.000089
C42	C	0.177276	1.984887	0.499911
C43	C	-0.218395	1.487656	-0.000097
C44	C	0.281605	1.987656	0.499903
C45	C	0.304253	1.474999	-0.000075
C46	C	0.804253	1.974999	0.499925
C47	C	0.406649	1.477706	-0.000065
C48	C	0.906649	1.977706	0.499935
C49	C	0.130436	1.713377	-0.000106
C50	C	0.630436	2.213377	0.499894
C51	C	0.133147	1.852794	-0.000106
C52	C	0.633147	2.352794	0.499894
N53	N	0.135700	1.483777	-0.346757
N54	N	0.635700	1.983777	0.153243
C55	C	0.192156	1.560066	-0.423403
C56	C	0.692156	2.060066	0.076597
C57	C	0.192151	1.560086	-0.576740
C58	C	0.692151	2.060086	-0.076740
C59	C	0.079232	1.407519	-0.576771
C60	C	0.579232	1.907519	-0.076771
C61	C	0.079233	1.407506	-0.423437
C62	C	0.579233	1.907506	0.076563
N63	N	0.135694	1.483810	0.346572
N64	N	0.635694	1.983810	0.846572
H65	H	0.285637	0.838147	-0.000086
H66	H	0.785637	1.338147	0.499914
H67	H	0.238121	1.622209	-0.639139
H68	H	0.738121	2.122209	-0.139139
H69	H	-0.014247	1.129446	-0.000108
H70	H	0.485753	1.629446	0.499892
O71	O	0.246869	1.634231	-0.348753
O72	O	0.746869	2.134231	0.151247
C73	C	0.191220	1.719811	-0.260080
C74	C	0.691220	2.219811	0.239920
H75	H	0.122524	1.680581	-0.237118
H76	H	0.622524	2.180581	0.262882
H77	H	0.228392	1.733871	-0.152251
H78	H	0.728392	2.233871	0.347749
H79	H	0.177745	1.814181	-0.319164
H80	H	0.677745	2.314181	0.180836
O81	O	0.024495	1.333200	-0.349046
O82	O	0.524495	1.833200	0.150954
C83	C	0.049163	1.205797	-0.386557
C84	C	0.549163	1.705797	0.113443
H85	H	0.123454	1.193822	-0.428700
H86	H	0.623454	1.693822	0.071300
H87	H	0.043367	1.143995	-0.285729
H88	H	0.543367	1.643995	0.214271
H89	H	0.000616	1.176553	-0.475572
H90	H	0.500616	1.676553	0.024428
O91	O	0.303734	1.083552	-0.000105
O92	O	0.803734	1.583552	0.499895
C93	C	0.376126	0.984598	-0.000072
C94	C	0.876126	1.484598	0.499928
H95	H	0.349702	0.895561	-0.046205
H96	H	0.849702	1.395561	0.453795
H97	H	0.435557	1.012107	-0.070785
H98	H	0.935557	1.512107	0.429215
H99	H	0.401658	0.966109	0.116795
H100	H	0.901658	1.466109	0.616795
O101	O	-0.032180	0.883617	-0.000072
O102	O	0.467820	1.383617	0.499928
C103	C	-0.016715	0.750783	-0.000117
C104	C	0.483285	1.250783	0.499883
H105	H	0.055057	0.720180	0.046010
H106	H	0.555057	1.220180	0.546010
H107	H	-0.071282	0.710440	0.070594
H108	H	0.428718	1.210440	0.570594
H109	H	-0.021416	0.714317	-0.116988
H110	H	0.478584	1.214317	0.383012
H111	H	0.033259	1.345420	-0.639222
H112	H	0.533259	1.845420	-0.139222
