data_functionalizedCrystal
_audit_creation_method	'MofGen! by Chris Wilmer'
_symmetry_space_group_name_H-M	'P1'
_symmetry_Int_Tables_number	1
_symmetry_cell_setting	triclinic
loop_
_symmetry_equiv_pos_as_xyz
  x,y,z
_cell_length_a	13.897448
_cell_length_b	12.759395
_cell_length_c	12.759387
_cell_angle_alpha	90.017289
_cell_angle_beta	90.032712
_cell_angle_gamma	90.023028
loop_
_atom_site_label
_atom_site_type_symbol
_atom_site_fract_x
_atom_site_fract_y
_atom_site_fract_z
Zn1	Zn	-0.383827	1.606247	0.593901
Zn2	Zn	-0.545154	1.606128	0.418216
Zn3	Zn	-0.383890	1.430545	0.418248
Zn4	Zn	-0.545096	1.430528	0.593864
O5	O	-0.464492	1.518362	0.506057
O6	O	-0.405225	1.753252	0.570598
O7	O	-0.523813	1.582794	0.271199
O8	O	-0.248900	1.453909	0.441577
O9	O	-0.523752	1.753165	0.441522
O10	O	-0.248854	1.582996	0.570629
O11	O	-0.405333	1.453794	0.271222
O12	O	-0.405277	1.283522	0.441542
O13	O	-0.523653	1.453880	0.740890
O14	O	-0.523714	1.283509	0.570567
O15	O	-0.405169	1.582980	0.740917
O16	O	-0.680128	1.582778	0.441487
O17	O	-0.680086	1.453765	0.570536
C18	C	-0.715106	1.518285	0.506027
C19	C	-0.822320	1.518349	0.506049
C20	C	-0.464497	1.245395	0.506054
C21	C	-0.464522	1.128618	0.506078
C22	C	-0.464397	1.518441	0.780091
C23	C	-0.464357	1.518475	0.896868
C24	C	-1.018615	1.518459	0.506115
C25	C	-0.909383	1.518395	0.506081
C26	C	-0.212899	1.518468	0.506111
C27	C	-0.105685	1.518513	0.506133
C28	C	-0.464488	1.792395	0.506061
C29	C	-0.464486	1.909172	0.506062
C30	C	-0.341056	1.909283	0.640459
C31	C	-0.279345	1.964199	0.707658
C32	C	-0.279357	2.073920	0.707665
C33	C	-0.341088	2.128728	0.640469
C34	C	-0.402799	2.073812	0.573270
C35	C	-0.402779	1.964088	0.573268
C36	C	-0.526233	2.073702	0.438879
C37	C	-0.526218	1.963980	0.438865
C38	C	-0.587964	2.128510	0.371683
C39	C	-0.649672	2.073594	0.304477
C40	C	-0.649657	1.963866	0.304472
C41	C	-0.587928	1.909064	0.371667
C42	C	-0.464516	1.518344	0.233090
C43	C	-0.464285	1.518513	0.116313
C44	C	-0.340988	1.652916	0.896915
C45	C	-0.279288	1.720151	0.951800
C46	C	-0.279253	1.720176	1.061522
C47	C	-0.340922	1.652958	1.116361
C48	C	-0.402621	1.585723	1.061476
C49	C	-0.402652	1.585707	0.951752
C50	C	-0.525984	1.451278	1.061429
C51	C	-0.526026	1.451256	0.951707
C52	C	-0.587653	1.384059	1.116268
C53	C	-0.649358	1.316828	1.061384
C54	C	-0.649392	1.316806	0.951655
C55	C	-0.587725	1.384021	0.896822
H56	H	-0.341019	1.819942	0.640437
H57	H	-0.341019	1.652912	0.807574
H58	H	-0.229078	1.774877	0.907137
Cl59	Cl	-0.201750	1.895293	0.792136
Cl60	Cl	-0.201782	2.142961	0.792149
Cl61	Cl	-0.201673	1.804684	1.130523
H62	H	-0.341102	2.218069	0.640490
H63	H	-0.587976	2.217851	0.371700
Cl64	Cl	-0.340867	1.652982	1.254298
Cl65	Cl	-0.587609	1.384091	1.254205
H66	H	-0.699559	1.262098	1.106043
Cl67	Cl	-0.726956	1.232271	0.882667
H68	H	-0.587898	1.819723	0.371656
H69	H	-0.699933	2.118227	0.249776
Cl70	Cl	-0.727248	1.894838	0.219996
H71	H	-0.587750	1.384014	0.807481
