data_functionalizedCrystal
_audit_creation_method	'MofGen! by Chris Wilmer'
_symmetry_space_group_name_H-M	'P1'
_symmetry_Int_Tables_number	1
_symmetry_cell_setting	triclinic
loop_
_symmetry_equiv_pos_as_xyz
  x,y,z
_cell_length_a	16.120530
_cell_length_b	12.594516
_cell_length_c	16.120297
_cell_angle_alpha	87.122232
_cell_angle_beta	89.871860
_cell_angle_gamma	87.111852
loop_
_atom_site_label
_atom_site_type_symbol
_atom_site_fract_x
_atom_site_fract_y
_atom_site_fract_z
Zn1	Zn	1.247493	-0.539249	0.534603
Zn2	Zn	1.580827	-0.205916	0.867936
Zn3	Zn	1.914160	0.127418	1.201269
Zn4	Zn	1.254461	-0.708692	0.395557
Zn5	Zn	1.587794	-0.375359	0.728890
Zn6	Zn	1.921127	-0.042025	1.062224
Zn7	Zn	1.115482	-0.521263	0.388519
Zn8	Zn	1.448815	-0.187930	0.721853
Zn9	Zn	1.782149	0.145404	1.055186
Zn10	Zn	1.108417	-0.707712	0.527526
Zn11	Zn	1.441750	-0.374379	0.860860
Zn12	Zn	1.775084	-0.041045	1.194193
O13	O	1.181463	-0.619229	0.461551
O14	O	1.514797	-0.285896	0.794885
O15	O	1.848130	0.047438	1.128218
O16	O	1.364785	-0.569664	0.522065
O17	O	1.698118	-0.236330	0.855398
O18	O	2.031451	0.097003	1.188731
O19	O	1.241897	-0.676712	0.278258
O20	O	1.575231	-0.343379	0.611591
O21	O	1.908564	-0.010046	0.944924
O22	O	1.133034	-0.374707	0.407914
O23	O	1.466368	-0.041373	0.741247
O24	O	1.799701	0.291960	1.074581
O25	O	1.369904	-0.694153	0.419909
O26	O	1.703237	-0.360819	0.753242
O27	O	2.036570	-0.027486	1.086575
O28	O	1.230022	-0.387921	0.515241
O29	O	1.563356	-0.054588	0.848574
O30	O	1.896689	0.278746	1.181907
O31	O	1.139790	-0.539009	0.273087
O32	O	1.473124	-0.205675	0.606420
O33	O	1.806457	0.127658	0.939754
O34	O	0.998178	-0.538058	0.401052
O35	O	1.331511	-0.204725	0.734386
O36	O	1.664844	0.128608	1.067719
O37	O	1.120993	-0.692482	0.644831
O38	O	1.454327	-0.359149	0.978164
O39	O	1.787660	-0.025815	1.311498
O40	O	0.992987	-0.675042	0.503180
O41	O	1.326320	-0.341708	0.836513
O42	O	1.659654	-0.008375	1.169847
O43	O	1.223172	-0.568713	0.650030
O44	O	1.556505	-0.235380	0.983363
O45	O	1.889839	0.097954	1.316697
O46	O	1.235047	-0.857504	0.413047
O47	O	1.568380	-0.524171	0.746380
O48	O	1.901714	-0.190838	1.079713
O49	O	1.127749	-0.856784	0.510004
O50	O	1.461083	-0.523451	0.843337
O51	O	1.794416	-0.190117	1.176671
C52	C	0.965410	-0.604493	0.450585
C53	C	1.298743	-0.271159	0.783918
C54	C	1.632076	0.062174	1.117252
C55	C	0.872980	-0.598215	0.445913
C56	C	1.206313	-0.264882	0.779247
C57	C	1.539647	0.068452	1.112580
C58	C	1.181409	-0.895766	0.461540
C59	C	1.514742	-0.562432	0.794874
C60	C	1.848076	-0.229099	1.128207
C61	C	1.181461	-1.014076	0.461567
C62	C	1.514794	-0.680743	0.794901
C63	C	1.848127	-0.347410	1.128234
C64	C	0.703749	-0.586730	0.437391
C65	C	1.037083	-0.253396	0.770724
C66	C	1.370416	0.079937	1.104058
C67	C	0.660015	-0.651810	0.485772
C68	C	0.993348	-0.318477	0.819106
C69	C	1.326681	0.014856	1.152439
C70	C	0.565849	-0.645420	0.481031
C71	C	0.899182	-0.312087	0.814364
C72	C	1.232515	0.021247	1.147697
C73	C	0.797924	-0.593119	0.442132
C74	C	1.131257	-0.259785	0.775465
C75	C	1.464590	0.073548	1.108798
C76	C	1.123098	-1.082974	0.514263
C77	C	1.456431	-0.749640	0.847596
C78	C	1.789765	-0.416307	1.180930
C79	C	1.106686	-1.147787	0.437359
C80	C	1.440019	-0.814454	0.770693
C81	C	1.773352	-0.481120	1.104026
C82	C	1.197948	-1.160068	0.538488
C83	C	1.531281	-0.826735	0.871821
C84	C	1.864615	-0.493401	1.205155
C85	C	1.165010	-1.077326	0.384621
C86	C	1.498344	-0.743993	0.717955
C87	C	1.831677	-0.410660	1.051288
C88	C	1.256305	-1.089606	0.485803
C89	C	1.589639	-0.756273	0.819136
C90	C	1.922972	-0.422940	1.152470
C91	C	1.239924	-1.154387	0.408848
C92	C	1.573258	-0.821053	0.742182
C93	C	1.906591	-0.487720	1.075515
C94	C	1.398360	-0.634024	0.472561
C95	C	1.731694	-0.300690	0.805894
C96	C	2.065027	0.032643	1.139228
C97	C	1.490789	-0.640328	0.477253
C98	C	1.824122	-0.306995	0.810586
C99	C	2.157456	0.026338	1.143919
C100	C	1.170517	-0.632495	0.678446
C101	C	1.503851	-0.299161	1.011780
C102	C	1.837184	0.034172	1.345113
C103	C	1.165853	-0.638148	0.770874
C104	C	1.499186	-0.304814	1.104208
C105	C	1.832520	0.028519	1.437541
C106	C	1.181539	-0.341615	0.461582
C107	C	1.514873	-0.008282	0.794915
C108	C	1.848206	0.325052	1.128248
C109	C	1.181572	-0.223313	0.461595
C110	C	1.514905	0.110021	0.794928
C111	C	1.848238	0.443354	1.128261
C112	C	1.192414	-0.605942	0.245502
C113	C	1.525748	-0.272608	0.578836
C114	C	1.859081	0.060725	0.912169
C115	C	1.197240	-0.600000	0.153083
C116	C	1.530573	-0.266666	0.486417
C117	C	1.863907	0.066667	0.819750
C118	C	1.157306	-0.648443	0.940100
C119	C	1.490640	-0.315109	1.273433
C120	C	1.823973	0.018224	1.606766
C121	C	1.205784	-0.589708	0.983863
C122	C	1.539117	-0.256374	1.317197
C123	C	1.872451	0.076959	1.650530
C124	C	1.201029	-0.595436	1.078026
C125	C	1.534362	-0.262103	1.411359
C126	C	1.867695	0.071231	1.744693
C127	C	1.162061	-0.642716	0.845928
C128	C	1.495394	-0.309382	1.179262
C129	C	1.828727	0.023951	1.512595
H130	H	0.693293	-0.712326	0.530755
H131	H	1.026626	-0.378993	0.864089
H132	H	1.359959	-0.045659	1.197422
H133	H	1.151036	-1.041305	0.319560
H134	H	1.484370	-0.707972	0.652893
H135	H	1.817703	-0.374638	0.986227
H136	H	1.112236	-0.703026	0.973349
H137	H	1.445569	-0.369693	1.306682
H138	H	1.778903	-0.036359	1.640016
H139	H	0.670473	-0.526218	0.392412
H140	H	1.003806	-0.192885	0.725746
H141	H	1.337140	0.140448	1.059079
C142	C	1.021252	-1.182603	0.409673
C143	C	1.354585	-0.849270	0.743006
C144	C	1.687918	-0.515937	1.076340
H145	H	1.027565	-1.221366	0.360803
H146	H	1.360898	-0.888033	0.694137
H147	H	1.694231	-0.554700	1.027470
H148	H	0.998183	-1.226447	0.452559
H149	H	1.331516	-0.893114	0.785893
H150	H	1.664850	-0.559780	1.119226
H151	H	0.985302	-1.121464	0.398564
H152	H	1.318635	-0.788131	0.731898
H153	H	1.651968	-0.454798	1.065231
H154	H	1.289330	-1.185534	0.364243
H155	H	1.622663	-0.852200	0.697576
H156	H	1.955997	-0.518867	1.030909
C157	C	1.266682	-0.515973	0.938950
C158	C	1.600015	-0.182640	1.272283
C159	C	1.933349	0.150694	1.605616
H160	H	1.261937	-0.521755	0.880636
H161	H	1.595270	-0.188422	1.213970
H162	H	1.928603	0.144912	1.547303
H163	H	1.253838	-0.444473	0.952513
H164	H	1.587172	-0.111139	1.285846
H165	H	1.920505	0.222194	1.619180
H166	H	1.321849	-0.536223	0.955981
H167	H	1.655182	-0.202890	1.289314
H168	H	1.988515	0.130444	1.622648
H169	H	1.073662	-1.051620	0.558754
H170	H	1.406996	-0.718287	0.892087
H171	H	1.740329	-0.384954	1.225420
C172	C	1.341734	-1.054802	0.513499
C173	C	1.675067	-0.721469	0.846833
C174	C	2.008401	-0.388135	1.180166
H175	H	1.353331	-1.083250	0.568179
H176	H	1.686665	-0.749916	0.901513
H177	H	2.019998	-0.416583	1.234846
H178	H	1.383322	-1.080383	0.476621
H179	H	1.716655	-0.747050	0.809954
H180	H	2.049989	-0.413716	1.143287
H181	H	1.341250	-0.979304	0.512801
H182	H	1.674584	-0.645970	0.846134
H183	H	2.007917	-0.312637	1.179467
H184	H	1.211849	-1.196211	0.603528
H185	H	1.545182	-0.862878	0.936862
H186	H	1.878516	-0.529545	1.270195
