data_functionalizedCrystal
_audit_creation_method	'MofGen! by Chris Wilmer'
_symmetry_space_group_name_H-M	'P1'
_symmetry_Int_Tables_number	1
_symmetry_cell_setting	triclinic
loop_
_symmetry_equiv_pos_as_xyz
  x,y,z
_cell_length_a	19.188930
_cell_length_b	11.026607
_cell_length_c	10.065875
_cell_angle_alpha	100.731764
_cell_angle_beta	81.269268
_cell_angle_gamma	95.865398
loop_
_atom_site_label
_atom_site_type_symbol
_atom_site_fract_x
_atom_site_fract_y
_atom_site_fract_z
O1	O	0.953440	0.133450	-0.113942
O2	O	0.752719	0.153846	-0.113849
O3	O	0.836444	-0.032915	-0.113883
O4	O	0.869715	0.320211	-0.113908
O5	O	0.820496	0.002841	0.113113
O6	O	0.736772	0.189601	0.113146
O7	O	0.937493	0.169205	0.113053
Zn8	Zn	0.834600	0.185080	0.149140
Zn9	Zn	0.855611	0.137971	-0.149936
O10	O	0.853768	0.355966	0.113087
C11	C	0.822332	-0.060215	-0.000384
C12	C	0.804035	-0.194832	-0.000380
C13	C	0.718650	0.171065	-0.000339
C14	C	0.640890	0.169090	-0.000303
C15	C	0.854557	-0.268909	-0.000406
C16	C	0.835648	-0.408043	-0.000402
C17	C	0.609934	0.278667	-0.000333
C18	C	0.536874	0.276803	-0.000347
C19	C	0.494775	0.165352	-0.000360
C20	C	0.525739	0.055761	-0.000323
C21	C	0.598796	0.057630	-0.000295
N22	N	0.381369	0.067986	-0.077666
N23	N	0.311967	0.066217	-0.077696
C24	C	0.274655	0.159714	-0.000444
N25	N	0.309368	0.255063	0.076823
N26	N	0.378776	0.256834	0.076847
C27	C	0.415555	0.163313	-0.000391
C28	C	0.164479	0.267279	-0.000487
C29	C	0.091417	0.265412	-0.000493
C30	C	0.080284	0.044364	-0.000483
C31	C	0.153344	0.046237	-0.000463
C32	C	0.195438	0.157696	-0.000471
C33	C	0.971562	0.151985	-0.000459
C34	C	1.049322	0.153960	-0.000504
C35	C	0.867880	0.383266	-0.000415
C36	C	0.886177	0.517881	-0.000427
N37	N	0.820266	0.217230	0.353252
N38	N	0.869950	0.105812	-0.354047
C39	C	0.850619	0.149149	0.421018
C40	C	0.839593	0.173902	0.578190
H41	H	0.778391	-0.447622	-0.000384
N42	N	0.958005	-0.432465	-0.000468
N43	N	0.973266	-0.319513	-0.000475
H44	H	1.023993	-0.284442	-0.000503
N45	N	0.037301	-0.069492	-0.000480
N46	N	0.034995	-0.128209	0.095214
H47	H	0.004636	-0.208625	0.095223
N48	N	0.732214	-0.244498	-0.000364
N49	N	0.716955	-0.357451	-0.000368
H50	H	0.666230	-0.392528	-0.000358
H51	H	0.644203	0.369426	-0.000342
H52	H	0.805439	0.250514	0.636525
N53	N	0.505253	0.388751	-0.000370
N54	N	0.542844	0.488257	-0.000370
H55	H	0.520515	0.567322	-0.000386
H56	H	0.624000	-0.031604	-0.000272
H57	H	0.198752	0.358039	-0.000474
N58	N	0.184958	-0.065707	-0.000437
N59	N	0.147364	-0.165211	-0.000443
H60	H	0.169690	-0.244277	-0.000420
H61	H	0.066214	0.354648	-0.000509
N62	N	0.893451	0.053034	0.347823
N63	N	0.902344	0.033058	0.220250
H64	H	0.932594	-0.034826	0.168556
H65	H	0.904098	0.029191	0.587618
N66	N	0.926388	-0.219290	-0.000446
N67	N	0.972559	-0.258305	-0.096147
H68	H	1.023292	-0.223267	-0.096176
H69	H	0.786114	0.293837	0.411591
H70	H	0.491458	-0.034986	-0.000353
