data_functionalizedCrystal
_audit_creation_method	'MofGen! by Chris Wilmer'
_symmetry_space_group_name_H-M	'P1'
_symmetry_Int_Tables_number	1
_symmetry_cell_setting	triclinic
loop_
_symmetry_equiv_pos_as_xyz
  x,y,z
_cell_length_a	18.215407
_cell_length_b	15.297327
_cell_length_c	18.215399
_cell_angle_alpha	80.354579
_cell_angle_beta	90.016824
_cell_angle_gamma	99.707397
loop_
_atom_site_label
_atom_site_type_symbol
_atom_site_fract_x
_atom_site_fract_y
_atom_site_fract_z
Zn1	Zn	1.074338	-0.359142	0.466791
Zn2	Zn	1.574338	0.140858	0.966791
Zn3	Zn	1.052949	-0.510019	0.365013
Zn4	Zn	1.552949	-0.010019	0.865013
Zn5	Zn	0.951272	-0.359178	0.343743
Zn6	Zn	1.451272	0.140822	0.843743
Zn7	Zn	0.929941	-0.509963	0.488030
Zn8	Zn	1.429941	-0.009963	0.988030
O9	O	1.002125	-0.434575	0.415894
O10	O	1.502125	0.065425	0.915894
O11	O	1.174484	-0.379165	0.453303
O12	O	1.674484	0.120835	0.953303
O13	O	1.039437	-0.490049	0.259213
O14	O	1.539437	0.009951	0.759213
O15	O	0.985476	-0.232926	0.342275
O16	O	1.485476	0.267074	0.842275
O17	O	1.158769	-0.490014	0.378527
O18	O	1.658769	0.009986	0.878527
O19	O	1.075892	-0.232900	0.432678
O20	O	1.575892	0.267100	0.932678
O21	O	0.964736	-0.379226	0.243586
O22	O	1.464736	0.120774	0.743586
O23	O	0.845460	-0.379171	0.362870
O24	O	1.345460	0.120829	0.862870
O25	O	0.949119	-0.489917	0.588192
O26	O	1.449119	0.010083	1.088192
O27	O	0.829787	-0.489952	0.468877
O28	O	1.329787	0.010048	0.968877
O29	O	1.055208	-0.379110	0.572587
O30	O	1.555208	0.120890	1.072587
O31	O	1.018753	-0.636259	0.399122
O32	O	1.518753	-0.136259	0.899122
O33	O	0.928379	-0.636217	0.489502
O34	O	1.428379	-0.136217	0.989502
C35	C	0.810921	-0.434560	0.415871
C36	C	1.310921	0.065440	0.915871
C37	C	0.729120	-0.434575	0.415882
C38	C	1.229120	0.065425	0.915882
C39	C	0.532772	-0.492350	0.471033
C40	C	1.032772	0.007650	0.971033
C41	C	0.455913	-0.492352	0.471043
C42	C	0.955913	0.007648	0.971043
C43	C	0.472228	-0.376818	0.360774
C44	C	0.972228	0.123182	0.860774
C45	C	0.549086	-0.376811	0.360768
C46	C	1.049086	0.123189	0.860768
C47	C	0.579356	-0.434582	0.415897
C48	C	1.079356	0.065418	0.915897
C49	C	0.425638	-0.434592	0.415913
C50	C	0.925638	0.065408	0.915913
C51	C	0.342304	-0.434594	0.415923
C52	C	0.842304	0.065406	0.915923
C53	C	0.662695	-0.434578	0.415888
C54	C	1.162695	0.065422	0.915888
C55	C	0.968950	-0.668972	0.448941
C56	C	1.468950	-0.168972	0.948941
C57	C	0.954825	-0.769248	0.463103
C58	C	1.454825	-0.269248	0.963103
C59	C	1.103383	-1.051871	0.314927
C60	C	1.603383	-0.551871	0.814927
C61	C	1.116654	-0.957656	0.301617
C62	C	1.616654	-0.457656	0.801617
C63	C	1.076198	-0.910550	0.341987
C64	C	1.576198	-0.410550	0.841987
C65	C	1.022468	-0.957666	0.395670
C66	C	1.522468	-0.457666	0.895670
C67	C	1.009192	-1.051890	0.408977
C68	C	1.509192	-0.551890	0.908977
C69	C	0.982007	-0.910569	0.436037
C70	C	1.482007	-0.410569	0.936037
C71	C	0.928278	-0.957686	0.489720
C72	C	1.428278	-0.457686	0.989720
C73	C	0.915004	-1.051900	0.503025
C74	C	1.415004	-0.551900	1.003025
C75	C	0.955460	-1.099007	0.462654
C76	C	1.455460	-0.599007	0.962654
C77	C	0.995284	-0.816346	0.422730
C78	C	1.495284	-0.316346	0.922730
C79	C	0.901093	-0.816365	0.516781
C80	C	1.401093	-0.316365	1.016781
C81	C	0.887822	-0.910579	0.530090
C82	C	1.387822	-0.410579	1.030090
C83	C	1.194076	-0.434592	0.415918
C84	C	1.694076	0.065408	0.915918
C85	C	1.275874	-0.434598	0.415928
C86	C	1.775874	0.065402	0.915928
C87	C	1.002170	-0.434503	0.607837
C88	C	1.502170	0.065497	1.107837
C89	C	1.002189	-0.434473	0.689632
C90	C	1.502189	0.065527	1.189632
C91	C	1.035450	-0.199263	0.382735
C92	C	1.535450	0.300737	0.882735
C93	C	1.049651	-0.098987	0.368604
C94	C	1.549651	0.401013	0.868604
C95	C	1.002132	-0.434582	0.224689
C96	C	1.502132	0.065418	0.724689
C97	C	1.002291	-0.434359	0.142859
C98	C	1.502291	0.065641	0.642859
C99	C	0.963337	-0.376728	0.869684
C100	C	1.463337	0.123272	1.369684
C101	C	0.963353	-0.376710	0.946540
C102	C	1.463353	0.123290	1.446540
C103	C	1.041144	-0.492109	0.962802
C104	C	1.541144	0.007891	1.462802
C105	C	1.041124	-0.492131	0.885948
C106	C	1.541124	0.007869	1.385948
C107	C	1.002222	-0.434436	0.839390
C108	C	1.502222	0.065564	1.339390
C109	C	1.002258	-0.434396	0.993101
C110	C	1.502258	0.065604	1.493101
C111	C	1.002275	-0.434376	1.076432
C112	C	1.502275	0.065624	1.576432
C113	C	1.002204	-0.434456	0.756054
C114	C	1.502204	0.065544	1.256054
H115	H	1.039030	-0.777991	0.379022
H116	H	1.539030	-0.277991	0.879022
C117	C	1.055342	-0.644907	0.883806
C118	C	1.555342	-0.144907	1.383806
C119	C	1.083871	-0.555569	0.852645
C120	C	1.583871	-0.055569	1.352645
H121	H	1.081733	-0.684068	0.863249
H122	H	1.581733	-0.184068	1.363249
H123	H	1.004029	-0.658104	0.873064
H124	H	1.504029	-0.158104	1.373064
H125	H	1.060927	-0.653139	0.936240
H126	H	1.560927	-0.153139	1.436240
H127	H	1.078280	-0.547335	0.800211
H128	H	1.578280	-0.047335	1.300211
H129	H	1.135196	-0.542367	0.863381
H130	H	1.635196	-0.042367	1.363381
H131	H	0.557415	-0.539388	0.515925
H132	H	1.057415	-0.039388	1.015925
H133	H	1.087006	-0.833836	0.331147
H134	H	1.587006	-0.333836	0.831147
C135	C	0.928767	-0.325516	0.744651
C136	C	1.428767	0.174484	1.244651
C137	C	0.920572	-0.313317	0.818507
C138	C	1.420572	0.186683	1.318507
H139	H	0.902367	-0.286364	0.713059
H140	H	1.402367	0.213636	1.213059
H141	H	0.909412	-0.386128	0.740595
H142	H	1.409412	0.113872	1.240595
H143	H	0.980082	-0.312314	0.730206
H144	H	1.480082	0.187686	1.230206
H145	H	0.869258	-0.326525	0.832953
H146	H	1.369258	0.173475	1.332953
H147	H	0.939925	-0.252691	0.822566
H148	H	1.439925	0.247309	1.322566
H149	H	0.587017	-0.329764	0.315869
H150	H	1.087017	0.170236	0.815869
C151	C	0.387554	-0.364141	0.260016
C152	C	0.887554	0.135859	0.760016
C153	C	0.438952	-0.313323	0.300175
C154	C	0.938952	0.186677	0.800175
H155	H	0.367016	-0.324940	0.222602
H156	H	0.867016	0.175060	0.722602
H157	H	0.348815	-0.398540	0.292853
H158	H	0.848815	0.101460	0.792853
H159	H	0.411980	-0.403399	0.237348
H160	H	0.911980	0.096601	0.737348
H161	H	0.414524	-0.274070	0.322848
H162	H	0.914524	0.225930	0.822848
H163	H	0.477697	-0.278909	0.267333
H164	H	0.977697	0.221091	0.767333
H165	H	1.072817	-0.539082	1.000718
H166	H	1.572817	-0.039082	1.500718
C167	C	1.208428	-0.967108	0.210000
C168	C	1.708428	-0.467108	0.710000
C169	C	1.175717	-0.905868	0.242620
C170	C	1.675717	-0.405868	0.742620
H171	H	1.244897	-0.935134	0.173580
H172	H	1.744897	-0.435134	0.673580
H173	H	1.171197	-1.003909	0.187016
H174	H	1.671197	-0.503909	0.687016
H175	H	1.231383	-1.003805	0.247281
H176	H	1.731383	-0.503805	0.747281
H177	H	1.152756	-0.869176	0.205339
H178	H	1.652756	-0.369176	0.705339
H179	H	1.212954	-0.869052	0.265604
H180	H	1.712954	-0.369052	0.765604
H181	H	1.136312	-1.090233	0.282058
H182	H	1.636312	-0.590233	0.782058
C183	C	0.447510	-0.606560	0.580030
C184	C	0.947510	-0.106560	1.080030
C185	C	0.404707	-0.555856	0.531647
C186	C	0.904707	-0.055856	1.031647
H187	H	0.415896	-0.645769	0.617444
H188	H	0.915896	-0.145769	1.117444
H189	H	0.483053	-0.567294	0.602693
H190	H	0.983053	-0.067294	1.102693
H191	H	0.472600	-0.641015	0.552766
H192	H	0.972600	-0.141015	1.052766
H193	H	0.379621	-0.521396	0.558911
H194	H	0.879621	-0.021396	1.058911
H195	H	0.369151	-0.595127	0.508983
H196	H	0.869151	-0.095127	1.008983
C197	C	0.875005	-1.080844	0.631698
C198	C	1.375005	-0.580844	1.131698
C199	C	0.855942	-1.103692	0.562029
C200	C	1.355942	-0.603692	1.062029
H201	H	0.838544	-1.112821	0.668125
H202	H	1.338544	-0.612821	1.168125
H203	H	0.877118	-1.017998	0.629547
H204	H	1.377118	-0.517998	1.129547
H205	H	0.922279	-1.096232	0.644676
H206	H	1.422279	-0.596232	1.144676
H207	H	0.808670	-1.088298	0.549049
H208	H	1.308670	-0.588298	1.049049
H209	H	0.853821	-1.166552	0.564179
H210	H	1.353821	-0.666552	1.064179
C211	C	0.928826	-0.325451	1.057132
C212	C	1.428826	0.174549	1.557132
C213	C	0.920604	-0.313283	0.979841
C214	C	1.420604	0.186717	1.479841
H215	H	0.902426	-0.286298	1.077689
H216	H	1.402426	0.213702	1.577689
H217	H	0.980138	-0.312239	1.067872
H218	H	1.480138	0.187761	1.567872
H219	H	0.909478	-0.386068	1.078253
H220	H	1.409478	0.113932	1.578253
H221	H	0.939957	-0.252667	0.958720
H222	H	1.439957	0.247333	1.458720
H223	H	0.869281	-0.326488	0.969095
H224	H	1.369281	0.173512	1.469095
C225	C	0.955190	-1.233886	0.551735
C226	C	1.455190	-0.733886	1.051735
C227	C	0.940882	-1.202572	0.477286
C228	C	1.440882	-0.702572	0.977286
H229	H	0.946198	-1.297824	0.560764
H230	H	1.446198	-0.797824	1.060764
H231	H	0.923399	-1.212588	0.583451
H232	H	1.423399	-0.712588	1.083451
H233	H	1.005684	-1.212494	0.561475
H234	H	1.505684	-0.712494	1.061475
H235	H	0.890386	-1.223959	0.467547
H236	H	1.390386	-0.723959	0.967547
H237	H	0.972673	-1.223880	0.445560
H238	H	1.472673	-0.723880	0.945560
H239	H	0.844075	-0.948955	0.573799
H240	H	1.344075	-0.448955	1.073799
H241	H	0.868149	-0.778011	0.549652
H242	H	1.368149	-0.278011	1.049652
