data_functionalizedCrystal
_audit_creation_method	'MofGen! by Chris Wilmer'
_symmetry_space_group_name_H-M	'P1'
_symmetry_Int_Tables_number	1
_symmetry_cell_setting	triclinic
loop_
_symmetry_equiv_pos_as_xyz
  x,y,z
_cell_length_a	23.532407
_cell_length_b	23.532407
_cell_length_c	9.130313
_cell_angle_alpha	89.990293
_cell_angle_beta	90.005122
_cell_angle_gamma	82.848713
loop_
_atom_site_label
_atom_site_type_symbol
_atom_site_fract_x
_atom_site_fract_y
_atom_site_fract_z
O1	O	0.755256	0.069132	-0.121643
O2	O	0.589393	0.079136	-0.121690
O3	O	0.677326	-0.008798	-0.121624
O4	O	0.667323	0.157066	-0.121709
O5	O	0.677325	-0.008795	0.121975
O6	O	0.589392	0.079138	0.121909
O7	O	0.755255	0.069135	0.121956
Cu8	Cu	0.672323	0.074136	0.144175
Cu9	Cu	0.672325	0.074134	-0.143909
O10	O	0.667322	0.157068	0.121890
C11	C	0.568176	0.078882	0.000104
C12	C	0.504959	0.078116	0.000088
C13	C	0.677071	-0.030013	0.000183
C14	C	0.676305	-0.093230	0.000205
C15	C	0.621110	-0.359397	0.000098
C16	C	0.621821	-0.299997	0.000109
O17	O	0.578035	-0.263252	0.000050
N18	N	0.674097	-0.277371	0.000141
C19	C	0.725666	-0.314148	0.000146
O20	O	0.770196	-0.289449	0.000173
C21	C	0.724954	-0.373547	0.000124
C22	C	0.672674	-0.396170	0.000107
C23	C	0.568834	-0.382020	0.000079
C24	C	0.568123	-0.441417	0.000071
C25	C	0.619687	-0.478189	0.000080
C26	C	0.671963	-0.455566	0.000099
C27	C	0.776521	-0.410324	0.000119
C28	C	0.775805	-0.469726	0.000096
C29	C	0.723525	-0.492349	0.000079
C30	C	0.722816	-0.551735	0.000099
N31	N	0.670539	-0.574361	0.000068
C32	C	0.618975	-0.537589	0.000058
C33	C	0.727157	-0.189406	0.000190
C34	C	0.727870	-0.130008	0.000222
C35	C	0.624025	-0.115860	0.000182
C36	C	0.623313	-0.175260	0.000160
C37	C	0.674881	-0.212032	0.000158
C38	C	0.617486	-0.662325	0.000041
C39	C	0.616779	-0.721727	0.000039
C40	C	0.720623	-0.735869	0.000070
C41	C	0.721330	-0.676473	0.000081
C42	C	0.669757	-0.639701	0.000061
O43	O	0.766579	-0.588514	0.000152
O44	O	0.574452	-0.562296	0.000012
C45	C	0.105856	0.125350	0.000130
C46	C	0.046456	0.124638	0.000140
O47	O	0.009712	0.168424	0.000170
N48	N	0.023830	0.072362	0.000164
C49	C	0.060607	0.020794	0.000194
O50	O	0.035908	-0.023737	0.000217
C51	C	0.120006	0.021506	0.000195
C52	C	0.142629	0.073785	0.000156
C53	C	0.128480	0.177625	0.000093
C54	C	0.187876	0.178336	0.000081
C55	C	0.224649	0.126772	0.000106
C56	C	0.202025	0.074496	0.000144
C57	C	0.156783	-0.030062	0.000235
C58	C	0.216185	-0.029345	0.000238
C59	C	0.238808	0.022934	0.000198
C60	C	0.298194	0.023643	0.000157
N61	N	0.320821	0.075920	0.000133
C62	C	0.284048	0.127484	0.000107
C63	C	-0.064135	0.019302	0.000194
C64	C	-0.123533	0.018589	0.000182
C65	C	-0.137680	0.122434	0.000131
C66	C	-0.078281	0.123146	0.000132
C67	C	-0.041509	0.071578	0.000170
C68	C	0.408784	0.128974	0.000081
C69	C	0.468186	0.129680	0.000063
C70	C	0.482329	0.025836	0.000122
C71	C	0.422932	0.025129	0.000132
C72	C	0.386160	0.076702	0.000117
O73	O	0.334974	-0.020119	0.000132
O74	O	0.308756	0.172007	0.000104
C75	C	0.776472	0.069388	0.000158
C76	C	0.839689	0.070154	0.000165
C77	C	0.667577	0.178283	0.000080
C78	C	0.668343	0.241500	0.000048
N79	N	0.672327	0.074138	0.346797
N80	N	0.672326	0.074128	-0.346532
C81	C	0.711273	0.035214	0.423479
C82	C	0.711272	0.035207	0.576815
C83	C	0.633375	0.113053	0.576776
C84	C	0.633375	0.113057	0.423442
C85	C	0.750225	-0.003705	0.346834
C86	C	0.789176	-0.042631	0.423515
C87	C	0.789174	-0.042638	0.576852
C88	C	0.750223	-0.003718	0.653507
H89	H	0.574205	-0.740143	0.000032
H90	H	0.817799	-0.499664	0.000086
O91	O	-0.147927	-0.037800	0.000207
H92	H	-0.195409	-0.029639	0.000199
O93	O	0.566924	-0.199654	0.000133
H94	H	0.564110	-0.226385	0.099415
O95	O	0.777715	-0.652066	0.000104
H96	H	0.813451	-0.687618	0.000103
H97	H	0.582038	-0.085909	0.000176
H98	H	0.525552	-0.459830	0.000044
H99	H	0.098544	0.219617	0.000077
H100	H	0.819093	-0.391915	0.000131
H101	H	0.206289	0.220908	0.000048
O102	O	0.398530	-0.031258	0.000165
H103	H	0.371813	-0.034062	0.099462
O104	O	0.784256	-0.105609	0.000240
H105	H	0.819989	-0.141164	0.000230
O106	O	0.750230	-0.003700	0.181450
H107	H	0.716605	0.029907	0.141004
H108	H	-0.059866	0.165717	0.000108
H109	H	0.762606	-0.765820	0.000085
O110	O	-0.177348	0.178053	0.000128
H111	H	-0.222451	0.168771	0.000155
O112	O	0.561862	-0.622669	0.000043
H113	H	0.525396	-0.648388	0.000047
O114	O	0.591377	0.155042	0.659445
H115	H	0.547020	0.148016	0.630028
H116	H	0.486602	0.172255	0.000030
O117	O	0.782780	-0.229068	0.000224
H118	H	0.819246	-0.203350	0.000267
H119	H	0.512280	-0.016146	0.000137
H120	H	0.378852	0.170970	0.000073
O121	O	-0.024473	-0.036321	0.000213
H122	H	-0.050191	-0.072787	0.000218
O123	O	0.255844	-0.084969	0.000285
H124	H	0.300950	-0.075696	0.000287
O125	O	0.831173	-0.084622	0.340850
H126	H	0.824631	-0.078080	0.221344
O127	O	0.132391	-0.086450	0.000308
H128	H	0.167949	-0.122180	0.000354
H129	H	0.526842	-0.352085	0.000067
H130	H	0.820885	-0.074337	0.639284
O131	O	0.591372	0.155041	0.340719
H132	H	0.564293	0.182109	0.419772
O133	O	0.750219	-0.003722	0.818894
H134	H	0.783847	-0.037326	0.859342
