data_functionalizedCrystal
_audit_creation_method	'MofGen! by Chris Wilmer'
_symmetry_space_group_name_H-M	'P1'
_symmetry_Int_Tables_number	1
_symmetry_cell_setting	triclinic
loop_
_symmetry_equiv_pos_as_xyz
  x,y,z
_cell_length_a	17.038272
_cell_length_b	14.048226
_cell_length_c	14.971496
_cell_angle_alpha	90.003149
_cell_angle_beta	87.364840
_cell_angle_gamma	90.002625
loop_
_atom_site_label
_atom_site_type_symbol
_atom_site_fract_x
_atom_site_fract_y
_atom_site_fract_z
O1	O	1.037603	0.079045	0.194244
O2	O	0.809969	0.079073	0.191160
O3	O	0.929883	0.079050	0.062959
O4	O	0.917689	0.079068	0.322445
O5	O	0.929864	-0.079271	0.062961
O6	O	0.809950	-0.079248	0.191162
O7	O	1.037584	-0.079276	0.194246
Zn8	Zn	0.923764	-0.104399	0.192704
Zn9	Zn	0.923789	0.104196	0.192702
O10	O	0.917670	-0.079253	0.322447
C11	C	0.780828	-0.000084	0.188356
C12	C	0.694025	-0.000074	0.179986
N13	N	0.923752	-0.246760	0.192706
C14	C	0.976913	-0.703610	0.135952
C15	C	0.976906	-0.603952	0.135957
C16	C	0.923789	-0.554130	0.192701
C17	C	0.870681	-0.603971	0.249449
C18	C	0.870692	-0.703626	0.249447
C19	C	0.870659	-0.396256	0.249447
C20	C	0.870647	-0.296594	0.249448
C21	C	0.976873	-0.296582	0.135957
C22	C	0.976884	-0.396238	0.135955
C23	C	0.923775	-0.446071	0.192703
C24	C	0.644002	-0.000069	0.256830
C25	C	0.562442	-0.000083	0.248960
C26	C	0.530906	-0.000094	0.164246
C27	C	0.580935	-0.000102	0.087397
C28	C	0.662494	-0.000095	0.095267
C29	C	0.285115	-0.000122	0.136441
C30	C	0.203551	-0.000126	0.128577
C31	C	0.185063	-0.000108	0.290141
C32	C	0.266624	-0.000096	0.298004
C33	C	0.316646	-0.000108	0.221154
C34	C	0.447539	-0.000105	0.156200
C35	C	0.400011	-0.000104	0.229201
C36	C	1.066725	-0.000117	0.197051
C37	C	1.153528	-0.000121	0.205420
C38	C	0.929327	-0.000111	0.029595
C39	C	0.927689	-0.000111	-0.069825
N40	N	0.923807	0.246557	0.192694
C41	C	0.920646	0.086216	-0.498058
C42	C	0.922190	0.086211	-0.404643
C43	C	0.922946	-0.000093	-0.357941
C44	C	0.922166	-0.086399	-0.404659
C45	C	0.920628	-0.086394	-0.498073
C46	C	0.925370	-0.086405	-0.209956
C47	C	0.926907	-0.086410	-0.116536
C48	C	0.926932	0.086201	-0.116526
C49	C	0.925394	0.086206	-0.209940
C50	C	0.924613	-0.000100	-0.256651
C51	C	0.918226	-0.000090	0.355812
C52	C	0.919864	-0.000084	0.455231
H53	H	1.020148	-0.563378	0.089755
O54	O	0.819027	-0.248342	0.304659
C55	C	0.713649	-0.258864	0.417205
C56	C	0.772076	-0.313627	0.354737
H57	H	0.675663	-0.311623	0.457696
H58	H	0.747408	-0.212224	0.464536
H59	H	0.674582	-0.212192	0.375575
H60	H	0.811158	-0.360351	0.396295
H61	H	0.738268	-0.360207	0.307403
H62	H	0.920024	0.156495	-0.536075
O63	O	0.513816	-0.000237	0.323577
C64	C	0.410965	-0.082213	0.408438
C65	C	0.466004	-0.082171	0.323906
H66	H	0.372284	-0.148439	0.408722
H67	H	0.447471	-0.082256	0.470372
H68	H	0.372356	-0.015928	0.408770
H69	H	0.504624	-0.148445	0.323487
H70	H	0.429451	-0.082078	0.262010
H71	H	0.924774	0.156483	-0.247962
O72	O	0.297126	-0.000132	0.380364
C73	C	0.270179	-0.000063	0.539782
C74	C	0.235532	-0.000049	0.446565
H75	H	0.220398	0.000024	0.593331
H76	H	0.307873	-0.066333	0.547566
H77	H	0.307927	0.066182	0.547456
H78	H	0.197749	-0.066249	0.438827
H79	H	0.197883	0.066264	0.438824
O80	O	0.136393	0.000023	0.364722
C81	C	0.033612	0.082069	0.449632
C82	C	0.088673	0.082032	0.365118
H83	H	-0.004971	0.148377	0.449989
H84	H	-0.005086	0.015853	0.449995
H85	H	0.070178	0.082030	0.511517
H86	H	0.052170	0.082105	0.303188
H87	H	0.127375	0.148242	0.364833
H88	H	0.325834	-0.000133	0.073865
O89	O	0.674726	-0.000181	0.339073
C90	C	0.756039	-0.082211	0.441748
C91	C	0.721314	-0.082189	0.348571
H92	H	0.793700	-0.148518	0.449465
H93	H	0.793809	-0.015994	0.449487
H94	H	0.706261	-0.082165	0.495302
H95	H	0.771042	-0.082269	0.294961
H96	H	0.683524	-0.148401	0.340909
O97	O	0.922909	0.170128	-0.359403
C98	C	0.922812	0.341334	-0.369255
C99	C	0.921976	0.246364	-0.420597
H100	H	0.922074	0.402995	-0.418709
H101	H	0.868843	0.345719	-0.321519
H102	H	0.978199	0.345590	-0.329521
H103	H	0.866625	0.242044	-0.460382
H104	H	0.975982	0.242018	-0.468280
H105	H	0.927561	0.156474	-0.078489
H106	H	0.927497	-0.156687	-0.078512
H107	H	0.177878	-0.000134	0.059589
H108	H	0.924735	-0.156684	-0.247986
H109	H	0.827414	-0.436828	0.295660
O110	O	0.920003	-0.170200	-0.543502
C111	C	0.985912	-0.270355	-0.653998
C112	C	0.986724	-0.175419	-0.602599
H113	H	1.039841	-0.274597	-0.701804
H114	H	0.986764	-0.332080	-0.604620
H115	H	0.930489	-0.274643	-0.693668
H116	H	1.042137	-0.171039	-0.562927
H117	H	0.985830	-0.113739	-0.652022
O118	O	0.550174	-0.000073	0.005173
C119	C	0.432725	-0.000144	-0.078556
C120	C	0.467455	-0.000158	0.014618
H121	H	0.365843	-0.000233	-0.070952
H122	H	0.453265	0.066126	-0.116865
H123	H	0.453367	-0.066389	-0.116836
H124	H	0.446829	0.066042	0.052972
H125	H	0.446919	-0.066471	0.052859
H126	H	0.421854	-0.000142	0.087225
O127	O	0.922783	-0.170293	-0.359379
C128	C	0.855492	-0.317766	-0.325779
C129	C	0.854714	-0.222802	-0.377125
H130	H	0.800456	-0.360237	-0.340093
H131	H	0.909819	-0.360416	-0.348173
H132	H	0.856756	-0.302914	-0.250998
H133	H	0.853422	-0.237567	-0.451915
H134	H	0.800393	-0.180181	-0.354657
O135	O	1.028583	-0.751855	0.080797
C136	C	1.133907	-0.741313	-0.031813
C137	C	1.075444	-0.686561	0.030620
H138	H	1.171798	-0.688547	-0.072411
H139	H	1.173062	-0.787937	0.009759
H140	H	1.100098	-0.788002	-0.079055
H141	H	1.109189	-0.639821	0.077874
H142	H	1.036290	-0.639998	-0.011008
H143	H	0.703222	-0.000098	0.032692
H144	H	0.827434	-0.563400	0.295656
H145	H	1.020132	-0.436803	0.089746
H146	H	1.020116	-0.256001	0.089752
H147	H	0.425691	-0.000100	0.298175
H148	H	0.827449	-0.744200	0.295654
