data_functionalizedCrystal
_audit_creation_method	'MofGen! by Chris Wilmer'
_symmetry_space_group_name_H-M	'P1'
_symmetry_Int_Tables_number	1
_symmetry_cell_setting	triclinic
loop_
_symmetry_equiv_pos_as_xyz
  x,y,z
_cell_length_a	15.944551
_cell_length_b	16.992695
_cell_length_c	15.455438
_cell_angle_alpha	92.856553
_cell_angle_beta	87.330173
_cell_angle_gamma	87.083481
loop_
_atom_site_label
_atom_site_type_symbol
_atom_site_fract_x
_atom_site_fract_y
_atom_site_fract_z
O1	O	-1.117868	-0.104551	-0.072040
O2	O	-0.617868	0.395449	0.427960
O3	O	-0.874153	-0.117020	-0.072062
O4	O	-0.374153	0.382980	0.427938
O5	O	-0.995034	0.003357	-0.072044
O6	O	-0.495034	0.503357	0.427956
O7	O	-0.996987	-0.224929	-0.072058
O8	O	-0.496987	0.275071	0.427942
O9	O	-1.001908	0.010217	0.072216
O10	O	-0.501908	0.510217	0.572216
O11	O	-0.881027	-0.110160	0.072199
O12	O	-0.381027	0.389840	0.572199
O13	O	-1.124742	-0.097691	0.072220
O14	O	-0.624742	0.402309	0.572220
Cu15	Cu	-1.003512	-0.103299	0.085381
Cu16	Cu	-0.503512	0.396701	0.585381
Cu17	Cu	-0.995383	-0.111412	-0.085223
Cu18	Cu	-0.495383	0.388588	0.414777
O19	O	-1.003861	-0.218069	0.072203
O20	O	-0.503861	0.281931	0.572203
C21	C	-0.995957	0.036000	0.000086
C22	C	-0.495957	0.536000	0.500086
C23	C	-0.988457	0.123045	0.000085
C24	C	-0.488457	0.623045	0.500085
C25	C	-0.846262	-0.113073	0.000066
C26	C	-0.346262	0.386927	0.500066
C27	C	-0.752911	-0.111521	0.000058
C28	C	-0.252911	0.388479	0.500058
C29	C	-1.152634	-0.101639	0.000091
C30	C	-0.652634	0.398361	0.500091
C31	C	-1.245984	-0.103190	0.000093
C32	C	-0.745984	0.396810	0.500093
C33	C	-0.532803	-0.033196	0.000079
C34	C	-0.032803	0.466804	0.500079
C35	C	-0.470832	-0.072950	-0.071051
C36	C	0.029168	0.427050	0.428949
C37	C	-0.581998	-0.108713	0.000068
C38	C	-0.081998	0.391287	0.500068
C39	C	-0.477633	-0.066204	0.071178
C40	C	0.022367	0.433796	0.571178
C41	C	-0.416903	-0.105996	0.000082
C42	C	0.083097	0.394004	0.500082
C43	C	-0.521254	-0.148491	-0.071121
C44	C	-0.021254	0.351509	0.428879
C45	C	-0.528063	-0.141731	0.071172
C46	C	-0.028063	0.358269	0.571172
C47	C	-0.466114	-0.181541	0.000025
C48	C	0.033886	0.318459	0.500025
C49	C	-0.677104	-0.110277	0.000059
C50	C	-0.177104	0.389723	0.500059
C51	C	-0.321798	-0.104438	0.000084
C52	C	0.178202	0.395562	0.500084
C53	C	-1.002938	-0.250711	0.000071
C54	C	-0.502938	0.249289	0.500071
C55	C	-1.010438	-0.337756	0.000066
C56	C	-0.510438	0.162244	0.500066
N57	N	-1.009236	-0.097593	0.205375
N58	N	-0.509236	0.402407	0.705375
C59	C	-1.060823	0.173282	0.000092
C60	C	-0.560823	0.673282	0.500092
C61	C	-1.053770	0.255068	0.000083
C62	C	-0.553770	0.755068	0.500083
C63	C	-0.974352	0.286616	0.000073
C64	C	-0.474352	0.786616	0.500073
C65	C	-0.901981	0.236373	0.000063
C66	C	-0.401981	0.736373	0.500063
C67	C	-0.909034	0.154588	0.000066
C68	C	-0.409034	0.654588	0.500066
C69	C	-0.945120	0.530215	0.000059
C70	C	-0.445120	1.030215	0.500059
C71	C	-0.938073	0.612007	0.000059
C72	C	-0.438073	1.112007	0.500059
C73	C	-1.089862	0.630697	0.000077
C74	C	-0.589862	1.130697	0.500077
C75	C	-1.096909	0.548909	0.000085
C76	C	-0.596909	1.048909	0.500085
C77	C	-1.024537	0.498672	0.000070
C78	C	-0.524537	0.998672	0.500070
N79	N	-0.967141	0.370215	0.000067
N80	N	-0.467141	0.870215	0.500067
N81	N	-1.031748	0.415075	0.000070
N82	N	-0.531748	0.915075	0.500070
N83	N	-0.989666	-0.117112	-0.205217
N84	N	-0.489666	0.382888	0.294783
C85	C	-0.957870	-0.148714	0.250783
C86	C	-0.457870	0.351286	0.750783
C87	C	-0.962223	-0.144395	0.341590
C88	C	-0.462223	0.355605	0.841590
C89	C	-1.017937	-0.088951	0.386987
C90	C	-0.517937	0.411049	0.886987
C91	C	-1.069309	-0.037828	0.341573
C92	C	-0.569309	0.462172	0.841573
C93	C	-1.064960	-0.042151	0.250768
C94	C	-0.564960	0.457849	0.750768
C95	C	-1.036688	-0.070312	0.658564
C96	C	-0.536688	0.429688	1.158564
C97	C	-1.041031	-0.065991	0.749375
C98	C	-0.541031	0.434009	1.249375
C99	C	-0.933946	-0.172560	0.749386
C100	C	-0.433946	0.327440	1.249386
C101	C	-0.929599	-0.176875	0.658579
C102	C	-0.429599	0.323125	1.158579
C103	C	-0.980973	-0.125754	0.613173
C104	C	-0.480973	0.374246	1.113173
N105	N	-1.022386	-0.084534	0.479806
N106	N	-0.522386	0.415466	0.979806
N107	N	-0.976529	-0.130176	0.520355
N108	N	-0.476529	0.369824	1.020355
H109	H	-0.561928	0.029473	-0.000005
H110	H	-0.061928	0.529473	0.499995
H111	H	-0.553201	-0.170786	0.131307
H112	H	-0.053201	0.329214	0.631307
H113	H	-0.445715	-0.043868	-0.131183
H114	H	0.054285	0.456132	0.368817
H115	H	-0.540514	-0.183270	-0.131321
H116	H	-0.040514	0.316730	0.368679
H117	H	-1.086403	-0.020839	0.786333
H118	H	-0.586403	0.479161	1.286333
H119	H	-0.437161	-0.244280	-0.000019
H120	H	0.062839	0.255720	0.499981
H121	H	-1.078518	-0.028686	0.621601
H122	H	-0.578518	0.471314	1.121601
H123	H	-0.884232	-0.222022	0.621619
H124	H	-0.384232	0.277978	1.121619
H125	H	-1.148782	0.671607	0.000087
H126	H	-0.648782	1.171607	0.500087
H127	H	-0.458269	-0.031390	0.131311
H128	H	0.041731	0.468610	0.631311
H129	H	-1.114677	0.007313	0.378540
H130	H	-0.614677	0.507313	0.878540
H131	H	-0.892120	-0.214181	0.786364
H132	H	-0.392120	0.285819	1.286364
H133	H	-1.106788	-0.000524	0.213797
H134	H	-0.606788	0.499476	0.713797
H135	H	-1.125494	0.147602	0.000106
H136	H	-0.625494	0.647602	0.500106
H137	H	-0.912498	-0.193859	0.213827
H138	H	-0.412498	0.306141	0.713827
H139	H	-1.112698	0.295969	0.000091
H140	H	-0.612698	0.795969	0.500091
H141	H	-1.161579	0.523229	0.000093
H142	H	-0.661579	1.023229	0.500093
H143	H	-0.837317	0.262066	0.000050
H144	H	-0.337317	0.762066	0.500050
H145	H	-0.886190	0.489322	0.000047
H146	H	-0.386190	0.989322	0.500047
H147	H	-0.873398	0.637690	0.000065
H148	H	-0.373398	1.137690	0.500065
H149	H	-0.850106	0.113685	0.000060
H150	H	-0.350106	0.613685	0.500060
H151	H	-0.920398	-0.186022	0.378561
H152	H	-0.420398	0.313978	0.878561
