data_functionalizedCrystal
_audit_creation_method	'MofGen! by Chris Wilmer'
_symmetry_space_group_name_H-M	'P1'
_symmetry_Int_Tables_number	1
_symmetry_cell_setting	triclinic
loop_
_symmetry_equiv_pos_as_xyz
  x,y,z
_cell_length_a	6.817900
_cell_length_b	14.858329
_cell_length_c	14.858340
_cell_angle_alpha	94.735759
_cell_angle_beta	104.519754
_cell_angle_gamma	104.519616
loop_
_atom_site_label
_atom_site_type_symbol
_atom_site_fract_x
_atom_site_fract_y
_atom_site_fract_z
V1	V	-4.043500	-0.129264	-0.290227
V2	V	-3.543500	0.370736	0.209773
O3	O	-4.025343	0.005601	-0.284429
O4	O	-3.525343	0.505601	0.215571
O5	O	-4.000049	-0.255722	-0.288504
O6	O	-3.500049	0.244278	0.211496
O7	O	-4.000051	-0.127543	-0.416685
O8	O	-3.500051	0.372457	0.083315
O9	O	-4.025341	-0.123464	-0.155361
O10	O	-3.525341	0.376536	0.344639
V11	V	-4.525845	-0.113101	-0.274064
V12	V	-4.025845	0.386899	0.225936
O13	O	-4.307342	-0.164719	-0.325681
O14	O	-3.807342	0.335281	0.174319
O15	O	-4.712200	-0.077646	-0.238609
O16	O	-4.212200	0.422354	0.261391
O17	O	-4.346089	0.013357	-0.275786
O18	O	-3.846089	0.513357	0.224214
O19	O	-4.661399	-0.247966	-0.279861
O20	O	-4.161399	0.252034	0.220139
O21	O	-4.661401	-0.118901	-0.408929
O22	O	-4.161401	0.381099	0.091071
O23	O	-4.346087	-0.114821	-0.147606
O24	O	-3.846087	0.385179	0.352394
C25	C	-3.846094	-0.286541	-0.283993
C26	C	-3.346094	0.213459	0.216007
C27	C	-3.891888	-0.389924	-0.283428
C28	C	-3.391888	0.110076	0.216572
C29	C	-3.929071	-0.473881	-0.282960
C30	C	-3.429071	0.026119	0.217040
C31	C	-3.975738	-0.579209	-0.282377
C32	C	-3.475738	-0.079209	0.217623
C33	C	-4.012950	-0.663161	-0.281914
C34	C	-3.512950	-0.163161	0.218086
C35	C	-4.059620	-0.768496	-0.281330
C36	C	-3.559620	-0.268496	0.218670
C37	C	-3.846095	-0.123036	-0.447499
C38	C	-3.346095	0.376964	0.052501
C39	C	-3.891888	-0.122466	-0.550881
C40	C	-3.391888	0.377534	-0.050881
C41	C	-3.929073	-0.122002	-0.634839
C42	C	-3.429073	0.377998	-0.134839
C43	C	-3.975740	-0.121416	-0.740167
C44	C	-3.475740	0.378584	-0.240167
C45	C	-4.012950	-0.120949	-0.824118
C46	C	-3.512950	0.379051	-0.324118
C47	C	-4.059621	-0.120365	-0.929452
C48	C	-3.559621	0.379635	-0.429452
C49	C	-4.163386	0.044171	-0.280295
C50	C	-3.663386	0.544171	0.219705
C51	C	-4.096831	0.147553	-0.280866
C52	C	-3.596831	0.647553	0.219134
C53	C	-4.163385	-0.119332	-0.116786
C54	C	-3.663385	0.380668	0.383214
C55	C	-4.096831	-0.119898	-0.013403
C56	C	-3.596831	0.380102	0.486597
