data_functionalizedCrystal
_audit_creation_method	'MofGen! by Chris Wilmer'
_symmetry_space_group_name_H-M	'P1'
_symmetry_Int_Tables_number	1
_symmetry_cell_setting	triclinic
loop_
_symmetry_equiv_pos_as_xyz
  x,y,z
_cell_length_a	10.654550
_cell_length_b	27.732048
_cell_length_c	9.730223
_cell_angle_alpha	89.993758
_cell_angle_beta	89.996251
_cell_angle_gamma	83.563778
loop_
_atom_site_label
_atom_site_type_symbol
_atom_site_fract_x
_atom_site_fract_y
_atom_site_fract_z
O1	O	1.664980	0.067884	-0.114419
O2	O	1.299230	0.074351	-0.114399
O3	O	1.493465	0.000792	-0.114384
O4	O	1.470746	0.141444	-0.114435
O5	O	1.493462	0.000793	0.114196
O6	O	1.299228	0.074353	0.114181
O7	O	1.664978	0.067886	0.114161
Zn8	Zn	1.482102	0.071120	0.150463
Zn9	Zn	1.482105	0.071117	-0.150701
O10	O	1.470743	0.141445	0.114145
C11	C	1.252451	0.073878	-0.000106
C12	C	1.113067	0.072457	-0.000097
C13	C	1.031761	0.115768	-0.000133
C14	C	0.900796	0.114430	-0.000156
C15	C	0.932457	0.026466	-0.000114
C16	C	1.063419	0.027805	-0.000080
C17	C	1.013480	0.166553	-0.000163
C18	C	0.882516	0.165215	-0.000187
C19	C	1.492987	-0.017217	-0.000090
C20	C	1.491551	-0.070881	-0.000078
C21	C	1.597290	-0.409038	-0.000155
C22	C	1.591962	-0.610731	-0.000174
O23	O	1.688653	-0.641384	-0.000239
N24	N	1.476789	-0.630572	-0.000166
C25	C	1.362940	-0.599986	-0.000163
O26	O	1.264856	-0.621490	-0.000171
C27	C	1.368269	-0.398294	-0.000154
C28	C	1.483449	-0.378456	-0.000147
C29	C	1.712461	-0.389199	-0.000150
C30	C	1.713792	-0.338779	-0.000138
C31	C	1.599951	-0.308197	-0.000131
C32	C	1.484780	-0.328036	-0.000135
C33	C	1.254421	-0.367709	-0.000160
C34	C	1.255764	-0.317284	-0.000161
C35	C	1.370944	-0.297446	-0.000155
C36	C	1.372271	-0.247034	-0.000115
N37	N	1.487444	-0.227193	-0.000123
C38	C	1.601284	-0.257775	-0.000131
C39	C	1.360150	-0.705877	-0.000165
C40	C	1.358817	-0.756300	-0.000164
C41	C	1.587840	-0.767041	-0.000178
C42	C	1.589171	-0.716618	-0.000169
C43	C	1.475323	-0.686036	-0.000172
C44	C	1.604070	-0.151888	-0.000104
C45	C	1.605391	-0.101463	-0.000086
C46	C	1.376369	-0.090726	-0.000080
C47	C	1.375047	-0.141147	-0.000090
C48	C	1.488908	-0.171727	-0.000107
O49	O	1.275631	-0.216352	-0.000065
O50	O	1.699354	-0.236261	-0.000153
C51	C	1.595959	-0.459458	-0.000167
C52	C	1.480788	-0.479296	-0.000172
C53	C	1.366948	-0.448715	-0.000164
C54	C	1.479455	-0.529719	-0.000172
C55	C	1.593296	-0.560301	-0.000179
C56	C	1.708469	-0.540460	-0.000187
C57	C	1.709800	-0.490040	-0.000175
C58	C	1.251774	-0.468556	-0.000157
C59	C	1.250453	-0.518976	-0.000167
C60	C	1.364293	-0.549558	-0.000175
C61	C	1.711757	0.068360	-0.000135
C62	C	1.851141	0.069780	-0.000153
C63	C	1.471221	0.159454	-0.000152
C64	C	1.472657	0.213118	-0.000172
N65	N	1.482110	0.071121	0.355999
N66	N	1.482108	0.071112	-0.356238
C67	C	1.568138	0.038560	0.427932
C68	C	1.568135	0.038554	0.571815
C69	C	1.396071	0.103675	0.571820
C70	C	1.396069	0.103678	0.427939
C71	C	1.667482	0.000964	0.427930
C72	C	1.667479	0.000959	0.571813
H73	H	1.699189	-0.085314	-0.000077
C74	C	1.025271	-0.463014	-0.000123
C75	C	1.126630	-0.434945	-0.000133
H76	H	0.948008	-0.442264	-0.000093
H77	H	1.029514	-0.482895	-0.079838
H78	H	1.029541	-0.482913	0.079584
H79	H	1.122365	-0.415048	-0.079846
H80	H	1.122384	-0.415055	0.079590
C81	C	1.844176	-0.439567	-0.117681
C82	C	1.836409	-0.468237	-0.000181
H83	H	1.922341	-0.426108	-0.117680
H84	H	1.838892	-0.459011	-0.197377
H85	H	1.776571	-0.414134	-0.117659
H86	H	1.904009	-0.493672	-0.000208
H87	H	1.841706	-0.448792	0.079536
H88	H	0.839980	0.184349	-0.095861
C89	C	1.849905	-0.020583	0.286598
C90	C	1.789873	0.016870	0.367624
H91	H	1.925449	-0.010755	0.249353
H92	H	1.869660	-0.048722	0.341543
H93	H	1.795323	-0.027667	0.213934
H94	H	1.844453	0.023951	0.440296
H95	H	1.770123	0.045018	0.312677
C96	C	1.132576	-0.740606	-0.000163
C97	C	1.232207	-0.778102	-0.000160
H98	H	1.054411	-0.754065	-0.000175
H99	H	1.137860	-0.721168	0.079546
H100	H	1.137880	-0.721158	-0.079877
H101	H	1.226909	-0.797548	0.079560
H102	H	1.226921	-0.797548	-0.079877
H103	H	1.326007	0.130188	0.369373
H104	H	1.326018	0.130181	0.630409
C105	C	1.130760	-0.046764	-0.117522
C106	C	1.152793	-0.019804	-0.000028
H107	H	1.185942	-0.076155	-0.117489
H108	H	1.045668	-0.053948	-0.117530
H109	H	1.145750	-0.028473	-0.197231
H110	H	1.137794	-0.038093	0.079682
H111	H	1.237905	-0.012620	-0.000007
C112	C	1.723541	-0.666145	-0.117682
C113	C	1.715777	-0.694812	-0.000176
H114	H	1.801703	-0.652683	-0.117681
H115	H	1.718263	-0.685591	-0.197374
H116	H	1.655931	-0.640714	-0.117666
H117	H	1.783382	-0.720245	-0.000197
H118	H	1.721068	-0.675365	0.079538
H119	H	0.892018	-0.009888	-0.000121
H120	H	1.647601	-0.036185	0.388891
H121	H	1.638442	-0.034148	0.616444
C122	C	1.719179	-0.829972	-0.117718
C123	C	1.712980	-0.800662	-0.000204
H124	H	1.796435	-0.850726	-0.117744
H125	H	1.650398	-0.848999	-0.117694
H126	H	1.714930	-0.810067	-0.197414
H127	H	1.717219	-0.820566	0.079492
H128	H	1.781780	-0.781633	-0.000216
C129	C	1.909401	-0.332417	-0.117666
C130	C	1.840404	-0.316978	-0.000151
H131	H	1.987567	-0.318958	-0.117680
H132	H	1.924879	-0.366820	-0.117657
H133	H	1.862556	-0.321937	-0.197361
H134	H	1.887245	-0.327462	0.079544
H135	H	1.824929	-0.282568	-0.000148
C136	C	1.903272	-0.565163	0.117303
C137	C	1.833604	-0.574083	-0.000198
H138	H	1.980516	-0.585924	0.117291
H139	H	1.920562	-0.532300	0.117299
H140	H	1.855991	-0.571224	0.197007
H141	H	1.880882	-0.568019	-0.079903
H142	H	1.816318	-0.606954	-0.000207
H143	H	0.836198	0.180563	0.098492
H144	H	1.763642	0.009240	0.610855
C145	C	1.116085	-0.569434	-0.117692
C146	C	1.123835	-0.540779	-0.000176
H147	H	1.037922	-0.582894	-0.117700
H148	H	1.121375	-0.549979	-0.197378
H149	H	1.183693	-0.594866	-0.117679
H150	H	1.056232	-0.515345	-0.000194
H151	H	1.118532	-0.560235	0.079531
H152	H	1.267435	-0.680982	-0.000167
H153	H	1.041976	0.186415	0.095495
H154	H	1.696787	-0.176781	-0.000123
C155	C	0.958153	0.201357	-0.220914
C156	C	1.060710	0.188385	-0.133386
H157	H	0.987314	0.214837	-0.303157
H158	H	0.918040	0.173385	-0.242320
H159	H	0.899563	0.224655	-0.176630
H160	H	1.119296	0.165084	-0.177667
H161	H	1.100843	0.216360	-0.111981
C162	C	1.124387	-0.254344	-0.117665
C163	C	1.130614	-0.283669	-0.000164
H164	H	1.047122	-0.233595	-0.117666
H165	H	1.193157	-0.235311	-0.117649
H166	H	1.128638	-0.274238	-0.197370
H167	H	1.126372	-0.263775	0.079541
H168	H	1.061825	-0.302704	-0.000168
H169	H	1.283683	-0.065818	-0.000069
H170	H	1.160629	-0.383852	-0.000173
H171	H	1.805169	-0.414094	-0.000162
H172	H	1.281258	-0.157300	-0.000057
