data_functionalizedCrystal
_audit_creation_method	'MofGen! by Chris Wilmer'
_symmetry_space_group_name_H-M	'P1'
_symmetry_Int_Tables_number	1
_symmetry_cell_setting	triclinic
loop_
_symmetry_equiv_pos_as_xyz
  x,y,z
_cell_length_a	14.044220
_cell_length_b	10.723024
_cell_length_c	9.798715
_cell_angle_alpha	90.003154
_cell_angle_beta	89.995620
_cell_angle_gamma	91.171627
loop_
_atom_site_label
_atom_site_type_symbol
_atom_site_fract_x
_atom_site_fract_y
_atom_site_fract_z
O1	O	0.133040	-1.670497	-0.113486
O2	O	0.633040	-1.170497	0.386514
O3	O	0.145775	-1.308619	-0.113491
O4	O	0.645775	-0.808619	0.386509
O5	O	0.001388	-1.484126	-0.113476
O6	O	0.501388	-0.984126	0.386524
O7	O	0.277427	-1.494990	-0.113502
O8	O	0.777427	-0.994990	0.386498
O9	O	0.001386	-1.484113	0.113507
O10	O	0.501386	-0.984113	0.613507
O11	O	0.145774	-1.308605	0.113491
O12	O	0.645774	-0.808605	0.613491
O13	O	0.133039	-1.670484	0.113496
O14	O	0.633039	-1.170484	0.613496
Zn15	Zn	0.139406	-1.489542	0.149532
Zn16	Zn	0.639406	-0.989542	0.649532
Zn17	Zn	0.139408	-1.489560	-0.149527
Zn18	Zn	0.639408	-0.989560	0.350473
O19	O	0.277426	-1.494976	0.113480
O20	O	0.777426	-0.994976	0.613480
C21	C	0.144847	-1.262020	-0.000001
C22	C	0.644847	-0.762020	0.499999
C23	C	0.142075	-1.123188	-0.000002
C24	C	0.642075	-0.623188	0.499998
C25	C	-0.033958	-1.479364	0.000016
C26	C	0.466042	-0.979364	0.500016
C27	C	-0.139276	-1.465180	0.000018
C28	C	0.360724	-0.965180	0.500018
N29	N	0.139405	-1.489539	0.353631
N30	N	0.639405	-0.989539	0.853631
C31	C	-0.332106	-1.439248	-0.000002
C32	C	0.167894	-0.939248	0.499998
C33	C	-0.389085	-1.539849	-0.000005
C34	C	0.110915	-1.039849	0.499995
C35	C	-0.496383	-1.525420	-0.000016
C36	C	0.003617	-1.025420	0.499984
C37	C	-0.224799	-1.453675	0.000009
C38	C	0.275201	-0.953675	0.500009
C39	C	0.312772	-1.499738	-0.000015
C40	C	0.812772	-0.999738	0.499985
C41	C	0.418090	-1.513923	-0.000025
C42	C	0.918090	-1.013923	0.499975
C43	C	0.133966	-1.717083	0.000002
C44	C	0.633966	-1.217083	0.500002
C45	C	0.136739	-1.855914	-0.000005
C46	C	0.636739	-1.355914	0.499995
C47	C	0.222866	-1.056288	-0.000011
C48	C	0.722866	-0.556288	0.499989
C49	C	0.220002	-0.912798	-0.000013
C50	C	0.720002	-0.412798	0.499987
N51	N	0.139402	-1.489572	-0.353627
N52	N	0.639402	-0.989572	0.146373
C53	C	0.078649	-1.563415	0.578570
C54	C	0.578649	-1.063415	1.078570
C55	C	0.078650	-1.563398	0.421407
C56	C	0.578650	-1.063398	0.921407
H57	H	-0.357284	-1.636814	-0.000095
H58	H	0.142716	-1.136814	0.499905
C59	C	-0.375061	-1.308266	0.000007
C60	C	0.124939	-0.808266	0.500007
H61	H	-0.442588	-1.315631	0.000014
H62	H	0.057412	-0.815631	0.500014
H63	H	-0.354552	-1.264175	-0.079138
H64	H	0.145448	-0.764175	0.420862
H65	H	-0.354563	-1.264192	0.079179
H66	H	0.145437	-0.764192	0.579179
C67	C	0.008393	-1.648820	0.342647
C68	C	0.508393	-1.148820	0.842647
H69	H	0.017620	-1.637615	0.247349
H70	H	0.517620	-1.137615	0.747349
H71	H	-0.055024	-1.628230	0.366000
H72	H	0.444976	-1.128230	0.866000
H73	H	0.019258	-1.733331	0.365987
H74	H	0.519258	-1.233331	0.865987
H75	H	0.026638	-1.626652	0.636870
H76	H	0.526638	-1.126652	1.136870
C77	C	0.319177	-1.122403	-0.000024
C78	C	0.819177	-0.622403	0.499976
H79	H	0.369494	-1.061824	-0.000022
H80	H	0.869494	-0.561824	0.499978
H81	H	0.323730	-1.173086	-0.079176
H82	H	0.823730	-0.673086	0.420824
H83	H	0.323732	-1.173072	0.079141
H84	H	0.823732	-0.673072	0.579141
C85	C	0.209674	-1.404148	0.567630
C86	C	0.709674	-0.904148	1.067630
H87	H	0.247794	-1.357829	0.630550
H88	H	0.747794	-0.857829	1.130550
H89	H	0.175169	-1.348398	0.511897
H90	H	0.675169	-0.848398	1.011897
H91	H	0.249428	-1.453527	0.511881
H92	H	0.749428	-0.953527	1.011881
C93	C	0.313441	-0.835113	-0.000022
C94	C	0.813441	-0.335113	0.499978
H95	H	0.299258	-0.748864	-0.000013
H96	H	0.799258	-0.248864	0.499987
H97	H	0.349356	-0.854273	-0.079176
H98	H	0.849356	-0.354273	0.420824
H99	H	0.349349	-0.854262	0.079141
H100	H	0.849349	-0.354262	0.579141
C101	C	0.043294	-0.933586	-0.000002
C102	C	0.543294	-0.433586	0.499998
H103	H	-0.009315	-0.879283	-0.000009
H104	H	0.490685	-0.379283	0.499991
H105	H	0.040767	-0.984695	0.079148
H106	H	0.540767	-0.484695	0.579148
H107	H	0.040775	-0.984693	-0.079170
H108	H	0.540775	-0.484693	0.420830
H109	H	0.070786	-1.074234	-0.000030
H110	H	0.570786	-0.574234	0.499970
H111	H	0.191417	-1.426312	0.411930
H112	H	0.691417	-0.926312	0.911930
