data_functionalizedCrystal
_audit_creation_method	'MofGen! by Chris Wilmer'
_symmetry_space_group_name_H-M	'P1'
_symmetry_Int_Tables_number	1
_symmetry_cell_setting	triclinic
loop_
_symmetry_equiv_pos_as_xyz
  x,y,z
_cell_length_a	14.044220
_cell_length_b	12.837943
_cell_length_c	11.892095
_cell_angle_alpha	94.305320
_cell_angle_beta	94.249598
_cell_angle_gamma	85.991091
loop_
_atom_site_label
_atom_site_type_symbol
_atom_site_fract_x
_atom_site_fract_y
_atom_site_fract_z
O1	O	-1.285970	0.245912	-0.093867
O2	O	-1.009181	0.236816	-0.093896
O3	O	-1.141438	0.089894	-0.093883
O4	O	-1.153713	0.392835	-0.093880
O5	O	-1.130409	0.102123	0.094123
O6	O	-0.998152	0.249046	0.094110
O7	O	-1.274941	0.258142	0.094140
Zn8	Zn	-1.134795	0.255535	0.123975
Zn9	Zn	-1.149327	0.239423	-0.123732
O10	O	-1.142684	0.405064	0.094127
C11	C	-0.967993	0.238950	0.000103
C12	C	-0.861695	0.227075	0.000092
C13	C	-1.316130	0.256008	0.000138
C14	C	-1.422428	0.267883	0.000142
C15	C	-1.152345	0.437953	0.000124
C16	C	-1.164713	0.554174	0.000126
C17	C	-0.667072	0.205368	0.000114
C18	C	-0.617045	0.289585	0.000120
C19	C	-0.508750	0.277507	0.000132
C20	C	-0.775377	0.217444	0.000102
C21	C	-1.131777	0.057004	0.000117
C22	C	-1.119410	-0.059217	0.000108
N23	N	-1.124885	0.266532	0.293028
C24	C	-1.016036	0.781382	0.000089
C25	C	-1.027651	0.890582	0.000090
C26	C	-1.199560	0.881776	0.000121
C27	C	-1.187944	0.772576	0.000120
C28	C	-1.096179	0.722383	0.000106
C29	C	-1.084563	0.613182	0.000113
C30	C	-1.256471	0.604377	0.000135
C31	C	-1.268087	0.713577	0.000136
N32	N	-1.159244	0.228418	-0.292785
C33	C	-1.228200	0.151839	0.529686
C34	C	-1.221280	0.159534	0.648027
C35	C	-1.104122	0.289610	0.648054
C36	C	-1.111041	0.281916	0.529713
C37	C	-1.173083	0.213029	0.470533
C38	C	-1.180008	0.205340	0.352190
C39	C	-1.062844	0.335411	0.352218
C40	C	-1.055925	0.343106	0.470559
H41	H	-0.655548	0.370757	0.000115
H42	H	-1.230528	0.149252	0.304006
H43	H	-0.628571	0.124202	0.000119
C44	C	-0.916402	0.726919	-0.000155
C45	C	-0.873053	0.749822	-0.096900
C46	C	-0.781275	0.699659	-0.097171
H47	H	-0.879027	0.750843	0.065327
H48	H	-0.920927	0.653422	-0.000216
H49	H	-0.868523	0.823304	-0.096829
H50	H	-0.910400	0.725897	-0.162397
H51	H	-0.785800	0.626162	-0.097232
H52	H	-0.743909	0.723587	-0.031685
H53	H	-0.751855	0.715184	-0.162816
C54	C	-0.940686	0.954678	-0.000157
C55	C	-0.948000	1.011314	-0.096897
C56	C	-0.867896	1.070359	-0.097173
H57	H	-0.937715	1.001811	0.065328
H58	H	-0.884353	0.909172	-0.000228
H59	H	-1.004317	1.056816	-0.096816
H60	H	-0.950958	0.964207	-0.162397
H61	H	-0.811563	1.024853	-0.097244
H62	H	-0.864931	1.117486	-0.031684
H63	H	-0.872843	1.108786	-0.162815
C64	C	-0.984928	0.558723	-0.000142
C65	C	-0.941593	0.581629	-0.096895
C66	C	-0.849813	0.531472	-0.097180
H67	H	-0.947548	0.582650	0.065334
H68	H	-0.989448	0.485225	-0.000200
H69	H	-0.937068	0.655111	-0.096826
H70	H	-0.978945	0.557700	-0.162386
H71	H	-0.854333	0.457974	-0.097238
H72	H	-0.812441	0.555402	-0.031700
H73	H	-0.820402	0.546998	-0.162831
H74	H	-1.278724	0.095756	0.481501
C75	C	-0.988500	0.417732	0.534965
C76	C	-0.920996	0.361024	0.602932
C77	C	-0.858879	0.429740	0.662288
H78	H	-0.956568	0.453106	0.482916
H79	H	-1.024089	0.467432	0.581194
H80	H	-0.885411	0.311344	0.556707
H81	H	-0.952901	0.325653	0.655002
H82	H	-0.894468	0.479439	0.708516
H83	H	-0.826953	0.465110	0.610231
H84	H	-0.813076	0.391275	0.708418
C85	C	-1.299101	0.936479	0.000189
C86	C	-1.292113	1.044741	0.000208
C87	C	-1.383790	1.095168	0.000287
H88	H	-1.336447	0.912632	-0.065348
H89	H	-1.328680	0.921108	0.065785
H90	H	-1.262548	1.060104	-0.065381
H91	H	-1.254784	1.068618	0.065740
H92	H	-1.413368	1.079797	0.065882
H93	H	-1.421129	1.071312	-0.065251
H94	H	-1.379060	1.168629	0.000310
C95	C	-1.003167	0.401914	0.287853
C96	C	-1.063846	0.466209	0.219896
C97	C	-1.008912	0.527481	0.160579
H98	H	-0.965222	0.444132	0.339925
H99	H	-0.962697	0.357640	0.241621
H100	H	-1.104299	0.510478	0.266125
H101	H	-1.101792	0.424019	0.167804
H102	H	-0.968442	0.483207	0.114346
H103	H	-0.970969	0.569691	0.212658
H104	H	-1.050074	0.571105	0.114455
H105	H	-1.266160	0.109705	0.696187
C106	C	-1.367749	0.768008	-0.000083
C107	C	-1.422452	0.732514	-0.096812
C108	C	-1.514262	0.782641	-0.097058
H109	H	-1.397435	0.752607	0.065409
H110	H	-1.363232	0.841497	-0.000149
H111	H	-1.426973	0.659041	-0.096736
H112	H	-1.392796	0.747915	-0.162320
H113	H	-1.509745	0.856130	-0.097124
H114	H	-1.543939	0.767236	-0.031561
H115	H	-1.551387	0.758573	-0.162692
C116	C	-1.343473	0.540253	-0.000085
C117	C	-1.347521	0.471028	-0.096822
C118	C	-1.427659	0.411952	-0.097068
H119	H	-1.338756	0.501643	0.065402
H120	H	-1.399811	0.585754	-0.000138
H121	H	-1.291197	0.425532	-0.096759
H122	H	-1.352252	0.509610	-0.162325
H123	H	-1.483997	0.457453	-0.097121
H124	H	-1.422935	0.373349	-0.031577
H125	H	-1.430421	0.364983	-0.162707
H126	H	-1.053601	0.345689	0.696253
