data_functionalizedCrystal
_audit_creation_method	'MofGen! by Chris Wilmer'
_symmetry_space_group_name_H-M	'P1'
_symmetry_Int_Tables_number	1
_symmetry_cell_setting	triclinic
loop_
_symmetry_equiv_pos_as_xyz
  x,y,z
_cell_length_a	10.654550
_cell_length_b	15.944551
_cell_length_c	9.130313
_cell_angle_alpha	89.997799
_cell_angle_beta	89.996220
_cell_angle_gamma	83.991820
loop_
_atom_site_label
_atom_site_type_symbol
_atom_site_fract_x
_atom_site_fract_y
_atom_site_fract_z
O1	O	1.666308	0.117973	-0.121923
O2	O	1.300684	0.129213	-0.121900
O3	O	1.493480	0.001376	-0.121899
O4	O	1.473511	0.245810	-0.121924
O5	O	1.493478	0.001379	0.121700
O6	O	1.300681	0.129216	0.121699
O7	O	1.666305	0.117976	0.121676
Cu8	Cu	1.483493	0.123596	0.143930
Cu9	Cu	1.483496	0.123592	-0.144154
O10	O	1.473509	0.245813	0.121675
C11	C	1.253895	0.128389	-0.000098
C12	C	1.114484	0.125920	-0.000088
C13	C	1.034024	0.201188	-0.000117
C14	C	0.903034	0.198863	-0.000142
C15	C	0.932975	0.045995	-0.000116
C16	C	1.063963	0.048321	-0.000080
C17	C	1.016737	0.289446	-0.000139
C18	C	0.885746	0.287121	-0.000164
C19	C	1.492650	-0.029921	-0.000099
C20	C	1.490165	-0.123182	-0.000098
C21	C	1.364720	-0.338765	-0.000111
C22	C	1.422971	-0.399443	0.119995
C23	C	1.485668	-0.293934	-0.000109
C24	C	1.423002	-0.399430	-0.120175
C25	C	1.481317	-0.458872	-0.000126
C26	C	1.543953	-0.353384	0.120095
C27	C	1.543967	-0.353364	-0.120182
C28	C	1.602306	-0.414024	-0.000048
C29	C	1.488172	-0.198917	-0.000098
C30	C	1.478822	-0.553887	-0.000127
C31	C	1.713094	0.118800	-0.000130
C32	C	1.852505	0.121269	-0.000149
C33	C	1.474339	0.277110	-0.000128
C34	C	1.476824	0.370371	-0.000139
N35	N	1.483500	0.123599	0.346552
N36	N	1.483499	0.123583	-0.346777
C37	C	1.568892	0.067012	0.423205
C38	C	1.568889	0.067002	0.576542
C39	C	1.398098	0.180173	0.576560
C40	C	1.398096	0.180178	0.423226
C41	C	1.667501	0.001676	0.423195
C42	C	1.667498	0.001666	0.576532
H43	H	1.045620	0.323965	0.101809
H44	H	1.264327	-0.306038	0.000016
H45	H	1.646893	-0.062886	0.381583
O46	O	1.775951	0.025982	0.366236
C47	C	1.835526	-0.039645	0.279365
H48	H	1.762637	-0.082423	0.241375
H49	H	1.911451	-0.077903	0.346566
C50	C	1.986024	0.050671	0.191669
C51	C	1.896498	-0.001865	0.145000
H52	H	2.023640	0.073975	0.108790
H53	H	1.945890	0.094885	0.250200
H54	H	2.049283	0.018782	0.247672
H55	H	1.833233	0.030027	0.089015
H56	H	1.936622	-0.046073	0.086456
H57	H	1.371831	-0.419804	-0.221721
O58	O	1.362030	-0.423939	0.241089
C59	C	1.361519	-0.512328	0.240041
H60	H	1.442664	-0.541764	0.169331
H61	H	1.268189	-0.529221	0.193291
C62	C	1.277758	-0.510143	0.484415
C63	C	1.377428	-0.546298	0.397576
H64	H	1.287565	-0.531098	0.581589
H65	H	1.278097	-0.450594	0.485120
H66	H	1.199992	-0.524224	0.445439
H67	H	1.455190	-0.532208	0.436542
H68	H	1.377102	-0.605846	0.396881
H69	H	1.129470	-0.012970	-0.000035
O70	O	1.315021	0.235163	0.650817
C71	C	1.239673	0.285125	0.550275
H72	H	1.238263	0.250684	0.440968
H73	H	1.280440	0.347781	0.533976
C74	C	1.105934	0.343885	0.744374
C75	C	1.104193	0.301581	0.610125
H76	H	1.022365	0.354040	0.781294
H77	H	1.156700	0.310227	0.812113
H78	H	1.139912	0.396094	0.730773
H79	H	1.070230	0.249369	0.623731
H80	H	1.053419	0.335230	0.542390
O81	O	1.631892	-0.071121	0.633088
C82	C	1.508804	-0.081985	0.585300
H83	H	1.487619	-0.044791	0.479963
H84	H	1.437911	-0.058211	0.673295
C85	C	1.524748	-0.221890	0.685899
C86	C	1.498733	-0.176214	0.556516
H87	H	1.518532	-0.280015	0.668150
H88	H	1.607673	-0.214570	0.718100
H89	H	1.465668	-0.202069	0.759216
H90	H	1.557822	-0.196028	0.483208
H91	H	1.415817	-0.183539	0.524302
H92	H	1.763823	0.016057	0.618141
O93	O	0.830816	0.318788	0.125383
C94	C	0.768628	0.255961	0.195219
H95	H	0.812058	0.191093	0.157937
H96	H	0.664197	0.264358	0.165245
C97	C	0.729759	0.343287	0.408148
C98	C	0.783108	0.263615	0.362367
H99	H	0.738684	0.348010	0.511253
H100	H	0.771651	0.385617	0.361097
H101	H	0.642737	0.350275	0.383157
H102	H	0.870130	0.256632	0.387342
H103	H	0.741230	0.221284	0.409426
O104	O	0.835558	0.326905	-0.121747
C105	C	0.863202	0.411469	-0.121500
H106	H	0.949941	0.417452	-0.050700
H107	H	0.779351	0.453497	-0.075312
C108	C	0.782966	0.431640	-0.366216
C109	C	0.889507	0.438987	-0.279269
H110	H	0.799187	0.448617	-0.463535
H111	H	0.764337	0.374669	-0.366382
H112	H	0.713100	0.466664	-0.327710
H113	H	0.959366	0.403956	-0.317765
H114	H	0.908148	0.495954	-0.279113
O115	O	1.605048	-0.329098	0.241216
C116	C	1.710502	-0.288451	0.198353
H117	H	1.695397	-0.262784	0.082443
H118	H	1.798766	-0.335477	0.201239
C119	C	1.745417	-0.246723	0.446569
C120	C	1.726860	-0.215192	0.304211
H121	H	1.755513	-0.201536	0.511870
H122	H	1.674374	-0.274110	0.475449
H123	H	1.818969	-0.285912	0.448953
H124	H	1.653301	-0.176013	0.301825
H125	H	1.797891	-0.187797	0.275333
H126	H	1.595080	-0.332939	-0.221733
H127	H	0.891824	-0.017184	-0.000131
O128	O	1.315314	0.235182	0.348609
C129	C	1.382556	0.287446	0.259943
H130	H	1.480822	0.254608	0.236955
H131	H	1.391084	0.349575	0.319047
C132	C	1.191057	0.345299	0.142537
C133	C	1.311745	0.304964	0.114292
H134	H	1.147376	0.356109	0.052695
H135	H	1.145754	0.310090	0.202276
H136	H	1.198181	0.397069	0.191794
H137	H	1.304620	0.253190	0.065054
H138	H	1.357046	0.340164	0.054541
H139	H	1.052030	0.317547	-0.105314
O140	O	1.722260	-0.452751	0.000098
C141	C	1.808333	-0.391339	0.001319
H142	H	1.760220	-0.329883	0.048012
H143	H	1.841229	-0.380222	-0.115236
C144	C	1.982004	-0.497772	0.039677
C145	C	1.922913	-0.422292	0.097038
H146	H	2.052686	-0.516866	0.098715
H147	H	1.924017	-0.539147	0.038850
H148	H	2.009407	-0.488497	-0.057451
H149	H	1.895499	-0.431570	0.194156
H150	H	1.980899	-0.380919	0.097884
