data_functionalizedCrystal
_audit_creation_method	'MofGen! by Chris Wilmer'
_symmetry_space_group_name_H-M	'P1'
_symmetry_Int_Tables_number	1
_symmetry_cell_setting	triclinic
loop_
_symmetry_equiv_pos_as_xyz
  x,y,z
_cell_length_a	15.297327
_cell_length_b	15.297475
_cell_length_c	15.298259
_cell_angle_alpha	91.629109
_cell_angle_beta	88.343348
_cell_angle_gamma	88.374454
loop_
_atom_site_label
_atom_site_type_symbol
_atom_site_fract_x
_atom_site_fract_y
_atom_site_fract_z
Zn1	Zn	-0.425823	-1.169549	-0.785809
Zn2	Zn	0.074177	-0.669549	-0.285809
Zn3	Zn	-0.596500	-1.161139	-0.663014
Zn4	Zn	-0.096500	-0.661139	-0.163014
Zn5	Zn	-0.434114	-1.046767	-0.615184
Zn6	Zn	0.065886	-0.546767	-0.115184
Zn7	Zn	-0.548496	-0.998847	-0.777488
Zn8	Zn	-0.048496	-0.498847	-0.277488
O9	O	-0.501233	-1.094075	-0.710374
O10	O	-0.001233	-0.594075	-0.210374
O11	O	-0.465083	-1.287737	-0.793019
O12	O	0.034917	-0.787737	-0.293019
O13	O	-0.598519	-1.162502	-0.537354
O14	O	-0.098519	-0.662502	-0.037354
O15	O	-0.313716	-1.086628	-0.621283
O16	O	0.186284	-0.586628	-0.121283
O17	O	-0.590479	-1.281559	-0.702802
O18	O	-0.090479	-0.781559	-0.202802
O19	O	-0.307624	-1.176836	-0.746641
O20	O	0.192376	-0.676836	-0.246641
O21	O	-0.479215	-1.078474	-0.502214
O22	O	0.020785	-0.578474	-0.002214
O23	O	-0.432668	-0.921106	-0.613215
O24	O	0.067332	-0.421106	-0.113215
O25	O	-0.508664	-1.004956	-0.897906
O26	O	-0.008664	-0.504956	-0.397906
O27	O	-0.516704	-0.885899	-0.732458
O28	O	-0.016704	-0.385899	-0.232458
O29	O	-0.418536	-1.130370	-0.904020
O30	O	0.081464	-0.630370	-0.404020
O31	O	-0.709431	-1.116036	-0.694733
O32	O	-0.209431	-0.616036	-0.194733
O33	O	-0.674163	-0.996801	-0.778837
O34	O	-0.174163	-0.496801	-0.278837
C35	C	-0.470377	-0.872568	-0.666744
C36	C	0.029623	-0.372568	-0.166744
C37	C	-0.457194	-0.777800	-0.648102
C38	C	0.042806	-0.277800	-0.148102
C39	C	-0.722729	-1.050327	-0.741095
C40	C	-0.222729	-0.550327	-0.241095
C41	C	-0.817491	-1.031685	-0.754282
C42	C	-0.317491	-0.531685	-0.254282
C43	C	-0.457320	-1.063256	-0.932765
C44	C	0.042680	-0.563256	-0.432765
C45	C	-0.438607	-1.050122	-1.027535
C46	C	0.061393	-0.550122	-0.527535
C47	C	-1.157929	-1.227622	-0.616486
C48	C	-0.657929	-0.727622	-0.116486
C49	C	-1.068897	-1.245137	-0.604092
C50	C	-0.568897	-0.745137	-0.104092
C51	C	-1.006041	-1.191776	-0.641638
C52	C	-0.506041	-0.691776	-0.141638
C53	C	-1.032226	-1.120896	-0.691581
C54	C	-0.532226	-0.620896	-0.191581
C55	C	-1.121268	-1.103375	-0.703971
C56	C	-0.621268	-0.603375	-0.203971
C57	C	-0.969380	-1.067529	-0.729123
C58	C	-0.469380	-0.567529	-0.229123
C59	C	-0.995565	-0.996649	-0.779066
C60	C	-0.495565	-0.496649	-0.279066
C61	C	-1.084599	-0.979132	-0.791454
C62	C	-0.584599	-0.479132	-0.291454
C63	C	-1.147454	-1.032493	-0.753907
C64	C	-0.647454	-0.532493	-0.253907
C65	C	-0.880338	-1.085050	-0.716734
C66	C	-0.380338	-0.585050	-0.216734
C67	C	-0.843677	-0.960803	-0.804219
C68	C	-0.343677	-0.460803	-0.304219
C69	C	-0.932710	-0.943287	-0.816613
C70	C	-0.432710	-0.443287	-0.316613
C71	C	-0.278873	-1.138015	-0.679555
C72	C	0.221127	-0.638015	-0.179555
C73	C	-0.184116	-1.156740	-0.666422
C74	C	0.315884	-0.656740	-0.166422
C75	C	-0.532210	-1.316447	-0.754174
C76	C	-0.032210	-0.816447	-0.254174
C77	C	-0.545411	-1.411209	-0.772839
C78	C	-0.045411	-0.911209	-0.272839
C79	C	-0.595466	-0.437417	-0.843613
C80	C	-0.095466	0.062583	-0.343613
C81	C	-0.607859	-0.526455	-0.861126
C82	C	-0.107859	-0.026455	-0.361126
C83	C	-0.570194	-0.589296	-0.807872
C84	C	-0.070194	-0.089296	-0.307872
C85	C	-0.520133	-0.563089	-0.737101
C86	C	-0.020133	-0.063089	-0.237101
C87	C	-0.507744	-0.474041	-0.719581
C88	C	-0.007744	0.025959	-0.219581
C89	C	-0.482472	-0.625920	-0.683841
C90	C	0.017528	-0.125920	-0.183841
C91	C	-0.432411	-0.599713	-0.613069
C92	C	0.067589	-0.099713	-0.113069
C93	C	-0.420023	-0.510673	-0.595554
C94	C	0.079977	-0.010673	-0.095554
C95	C	-0.457689	-0.447833	-0.648808
C96	C	0.042311	0.052167	-0.148808
C97	C	-0.494861	-0.714968	-0.701360
C98	C	0.005139	-0.214968	-0.201360
C99	C	-0.407139	-0.751592	-0.577329
C100	C	0.092861	-0.251592	-0.077329
C101	C	-0.394745	-0.662553	-0.559815
C102	C	0.105255	-0.162553	-0.059815
C103	C	-0.634327	-1.188100	-1.367852
C104	C	-0.134327	-0.688100	-0.867852
C105	C	-0.651914	-1.200434	-1.278811
C106	C	-0.151914	-0.700434	-0.778811
C107	C	-0.598588	-1.162857	-1.215988
C108	C	-0.098588	-0.662857	-0.715988
C109	C	-0.527673	-1.112944	-1.242214
C110	C	-0.027673	-0.612944	-0.742214
C111	C	-0.510089	-1.100603	-1.331264
C112	C	-0.010089	-0.600603	-0.831264
C113	C	-0.474350	-1.075360	-1.179399
C114	C	0.025650	-0.575360	-0.679399
C115	C	-0.403436	-1.025447	-1.205625
C116	C	0.096564	-0.525447	-0.705625
C117	C	-0.385854	-1.013109	-1.294667
C118	C	0.114146	-0.513109	-0.794667
C119	C	-0.439179	-1.050685	-1.357490
C120	C	0.060821	-0.550685	-0.857490
C121	C	-0.491935	-1.087701	-1.090350
C122	C	0.008065	-0.587701	-0.590350
C123	C	-0.367697	-1.000205	-1.053761
C124	C	0.132303	-0.500205	-0.553761
C125	C	-0.350110	-0.987871	-1.142802
C126	C	0.149890	-0.487871	-0.642802
C127	C	-0.544921	-1.124836	-0.488849
C128	C	-0.044921	-0.624836	0.011151
C129	C	-0.563417	-1.138182	-0.394078
C130	C	-0.063417	-0.638182	0.105922
H131	H	-0.859026	-1.142761	-0.676070
H132	H	-0.359026	-0.642761	-0.176070
H133	H	-0.677742	-1.218682	-1.419009
H134	H	-0.177742	-0.718682	-0.919009
H135	H	-0.549670	-1.128347	-1.069006
H136	H	-0.049670	-0.628347	-0.569006
H137	H	-1.209113	-1.271057	-0.585914
H138	H	-0.709113	-0.771057	-0.085914
H139	H	-0.933548	-1.206041	-0.631543
H140	H	-0.433548	-0.706041	-0.131543
H141	H	-0.580287	-0.661794	-0.822136
H142	H	-0.080287	-0.161794	-0.322136
H143	H	-1.047580	-1.302847	-0.563428
H144	H	-0.547580	-0.802847	-0.063428
H145	H	-0.328117	-0.972457	-1.316016
H146	H	0.171883	-0.472457	-0.816016
H147	H	-0.353985	-0.641202	-0.502192
H148	H	0.146015	-0.141202	-0.002192
H149	H	-0.792499	-0.917350	-0.834790
H150	H	-0.292499	-0.417350	-0.334790
H151	H	-0.612913	-1.172902	-1.143487
H152	H	-0.112913	-0.672902	-0.643487
H153	H	-0.535620	-0.736296	-0.758983
H154	H	-0.035620	-0.236296	-0.258983
H155	H	-0.709660	-1.241064	-1.257464
H156	H	-0.209660	-0.741064	-0.757464
H157	H	-1.219954	-1.018238	-0.763998
H158	H	-0.719954	-0.518238	-0.263998
H159	H	-0.424862	-1.040648	-1.429996
H160	H	0.075138	-0.540648	-0.929996
H161	H	-0.292371	-0.947230	-1.164169
H162	H	0.207629	-0.447230	-0.664169
H163	H	-0.379271	-0.489339	-0.537919
H164	H	0.120729	0.010661	-0.037919
H165	H	-0.324276	-0.969606	-1.002609
H166	H	0.175724	-0.469606	-0.502609
H167	H	-0.376470	-0.802757	-0.533963
H168	H	0.123530	-0.302757	-0.033963
H169	H	-0.954043	-0.885576	-0.857276
H170	H	-0.454043	-0.385576	-0.357276
H171	H	-1.105916	-0.921408	-0.832108
H172	H	-0.605916	-0.421408	-0.332108
H173	H	-0.626134	-0.386246	-0.886960
H174	H	-0.126134	0.113754	-0.386960
H175	H	-0.648621	-0.547786	-0.918747
H176	H	-0.148621	-0.047786	-0.418747
H177	H	-0.447599	-0.375329	-0.634554
H178	H	0.052401	0.124671	-0.134554
