data_functionalizedCrystal
_audit_creation_method	'MofGen! by Chris Wilmer'
_symmetry_space_group_name_H-M	'P1'
_symmetry_Int_Tables_number	1
_symmetry_cell_setting	triclinic
loop_
_symmetry_equiv_pos_as_xyz
  x,y,z
_cell_length_a	8.497367
_cell_length_b	8.497374
_cell_length_c	12.759401
_cell_angle_alpha	90.000368
_cell_angle_beta	90.033316
_cell_angle_gamma	90.038609
loop_
_atom_site_label
_atom_site_type_symbol
_atom_site_fract_x
_atom_site_fract_y
_atom_site_fract_z
Zn1	Zn	0.628323	0.892415	1.606419
Zn2	Zn	0.892070	0.628834	1.606517
Zn3	Zn	0.628298	0.628649	1.430777
Zn4	Zn	0.892056	0.892572	1.430858
O5	O	0.760187	0.760618	1.518643
O6	O	0.663326	0.857463	1.753453
O7	O	0.857074	0.408047	1.583212
O8	O	0.407539	0.663494	1.454001
O9	O	0.857099	0.663811	1.753525
O10	O	0.407557	0.857283	1.583045
O11	O	0.663282	0.407911	1.454096
O12	O	0.663270	0.663647	1.283766
O13	O	0.857077	1.113314	1.454139
O14	O	0.857052	0.857550	1.283826
O15	O	0.663314	1.113198	1.583124
O16	O	1.112830	0.663963	1.583290
O17	O	1.112821	0.857730	1.454234
C18	C	0.760158	0.760596	1.245675
C19	C	0.760183	0.760624	1.128899
C20	C	1.348706	0.760472	1.518570
C21	C	1.170063	0.760760	1.518702
C22	C	0.760189	1.172098	1.518635
C23	C	0.760206	1.350742	1.518637
C24	C	0.861247	0.861423	1.074095
C25	C	0.861267	0.861440	0.964371
C26	C	0.659155	0.659846	0.964264
C27	C	0.659128	0.659838	1.073986
C28	C	0.962302	0.962209	1.129008
C29	C	1.063376	1.063015	1.074204
C30	C	1.063396	1.063032	0.964480
C31	C	0.962342	0.962244	0.909560
C32	C	0.760217	0.760640	1.792676
C33	C	0.760230	0.760650	1.909453
H34	H	1.145640	1.145083	1.118928
H35	H	0.962353	0.962279	0.820215
O36	O	1.172397	1.171686	0.905309
H37	H	1.252483	1.100915	0.855359
O38	O	0.550209	0.551099	0.905036
H39	H	0.567231	0.568017	0.819532
H40	H	0.576821	0.577771	1.118608
H41	H	0.962300	0.962204	1.218351
