data_functionalizedCrystal
_audit_creation_method	'MofGen! by Chris Wilmer'
_symmetry_space_group_name_H-M	'P1'
_symmetry_Int_Tables_number	1
_symmetry_cell_setting	triclinic
loop_
_symmetry_equiv_pos_as_xyz
  x,y,z
_cell_length_a	18.050589
_cell_length_b	13.032831
_cell_length_c	18.050583
_cell_angle_alpha	97.189916
_cell_angle_beta	90.028091
_cell_angle_gamma	82.833186
loop_
_atom_site_label
_atom_site_type_symbol
_atom_site_fract_x
_atom_site_fract_y
_atom_site_fract_z
Zn1	Zn	-0.440027	1.597555	0.563869
Zn2	Zn	-0.564219	1.597419	0.439676
Zn3	Zn	-0.424265	1.422804	0.423948
Zn4	Zn	-0.548379	1.422741	0.548087
O5	O	-0.494223	1.510130	0.493895
O6	O	-0.469727	1.743774	0.560581
O7	O	-0.545687	1.574226	0.333662
O8	O	-0.322439	1.446069	0.442532
O9	O	-0.560970	1.743674	0.469337
O10	O	-0.334019	1.574457	0.545331
O11	O	-0.442864	1.445937	0.322107
O12	O	-0.427504	1.276559	0.427229
O13	O	-0.533973	1.445961	0.654108
O14	O	-0.518690	1.276513	0.518433
O15	O	-0.454367	1.574396	0.665703
O16	O	-0.666035	1.574164	0.454034
O17	O	-0.654398	1.445829	0.533683
C18	C	-0.469668	1.238618	0.469412
C19	C	-0.459182	1.122464	0.458956
C20	C	-0.499696	1.070684	0.499352
C21	C	-0.488859	0.950633	0.488546
C22	C	-0.687164	1.510004	0.493871
C23	C	-0.769713	1.510045	0.493895
C24	C	-0.962868	1.440325	0.537196
C25	C	-1.010012	1.414853	0.467134
C26	C	-0.920853	1.510148	0.493913
C27	C	-1.020796	1.535671	0.563988
C28	C	-1.066847	1.510245	0.493938
C29	C	-0.966904	1.484626	0.423811
C30	C	-0.977688	1.605488	0.520714
C31	C	-1.024812	1.580052	0.450609
C32	C	-0.836749	1.510089	0.493900
C33	C	-1.150948	1.510304	0.493943
C34	C	-0.300531	1.510285	0.493938
C35	C	-0.217991	1.510351	0.493956
C36	C	-0.494162	1.510187	0.687606
C37	C	-0.494136	1.510211	0.770154
C38	C	-0.518874	1.782702	0.518474
C39	C	-0.529378	1.898855	0.528948
C40	C	-0.494236	1.510133	0.300943
C41	C	-0.494071	1.510312	0.218414
C42	C	-0.450802	1.580119	1.025291
C43	C	-0.520870	1.605619	0.978179
C44	C	-0.494094	1.510278	1.067280
C45	C	-0.424055	1.484794	0.967311
C46	C	-0.494111	1.510248	0.921292
C47	C	-0.564203	1.535828	1.021261
C48	C	-0.467338	1.414959	1.010393
C49	C	-0.537450	1.440422	0.963301
C50	C	-0.494084	1.510298	1.151381
C51	C	-0.494129	1.510227	0.837194
H52	H	-0.935870	1.381192	0.573732
H53	H	-0.414239	1.639239	1.052308
H54	H	-0.446144	0.906091	0.445961
H55	H	-0.364817	1.463254	0.943690
H56	H	-0.572086	0.943396	0.571541
Br57	Br	-0.387988	1.048229	0.387981
Br58	Br	-0.598558	1.341954	0.918503
Br59	Br	-0.429571	1.280663	1.034487
Br60	Br	-0.570886	1.144920	0.570331
Br61	Br	-0.558611	1.739950	0.954122
H62	H	-1.024511	1.334273	0.444485
H63	H	-1.051670	1.639141	0.413968
Br64	Br	-0.927722	1.448559	0.325011
Br65	Br	-0.662980	1.571889	1.060484
H66	H	-0.963189	1.686050	0.543394
Br67	Br	-1.060126	1.571585	0.662742
