data_functionalizedCrystal
_audit_creation_method	'MofGen! by Chris Wilmer'
_symmetry_space_group_name_H-M	'P1'
_symmetry_Int_Tables_number	1
_symmetry_cell_setting	triclinic
loop_
_symmetry_equiv_pos_as_xyz
  x,y,z
_cell_length_a	10.723023
_cell_length_b	14.044190
_cell_length_c	9.198806
_cell_angle_alpha	89.991997
_cell_angle_beta	89.996191
_cell_angle_gamma	88.829662
loop_
_atom_site_label
_atom_site_type_symbol
_atom_site_fract_x
_atom_site_fract_y
_atom_site_fract_z
O1	O	1.670503	0.133036	-0.120907
O2	O	1.308625	0.145772	-0.120912
O3	O	1.484127	0.001384	-0.120881
O4	O	1.495000	0.277424	-0.120938
O5	O	1.484112	0.001384	0.120904
O6	O	1.308609	0.145771	0.120873
O7	O	1.670487	0.133036	0.120878
Cu8	Cu	1.489547	0.139404	0.142952
Cu9	Cu	1.489565	0.139404	-0.142986
O10	O	1.494985	0.277424	0.120847
C11	C	1.262025	0.144845	-0.000020
C12	C	1.123193	0.142073	-0.000021
C13	C	1.061305	0.140837	-0.125273
C14	C	0.917816	0.137971	-0.125277
C15	C	1.479363	-0.033962	0.000016
C16	C	1.465175	-0.139280	0.000028
C17	C	1.539861	-0.389081	-0.000028
C18	C	1.439257	-0.332106	-0.000019
C19	C	1.453681	-0.224808	0.000007
C20	C	1.525438	-0.496389	-0.000054
C21	C	1.717087	0.133963	-0.000017
C22	C	1.855919	0.136735	-0.000026
C23	C	1.499749	0.312769	-0.000053
C24	C	1.513937	0.418088	-0.000075
N25	N	1.489543	0.139403	0.344066
N26	N	1.489578	0.139398	-0.344100
C27	C	1.563205	0.078511	0.416277
C28	C	1.563224	0.078508	0.583689
H29	H	0.909133	0.137794	0.107213
H30	H	1.114551	0.141905	-0.232503
Cl31	Cl	0.835653	0.136323	-0.290845
H32	H	1.626252	0.026378	0.354162
H33	H	1.342294	-0.363911	-0.000029
Cl34	Cl	1.689556	-0.339978	-0.000002
H35	H	1.069947	0.141015	0.107209
Cl36	Cl	1.392186	0.219885	0.439960
H37	H	1.626294	0.026379	0.645786
Cl38	Cl	1.392209	0.219897	0.560041
