data_functionalizedCrystal
_audit_creation_method	'MofGen! by Chris Wilmer'
_symmetry_space_group_name_H-M	'P1'
_symmetry_Int_Tables_number	1
_symmetry_cell_setting	triclinic
loop_
_symmetry_equiv_pos_as_xyz
  x,y,z
_cell_length_a	18.215407
_cell_length_b	14.908178
_cell_length_c	18.215399
_cell_angle_alpha	93.325522
_cell_angle_beta	90.019833
_cell_angle_gamma	93.314324
loop_
_atom_site_label
_atom_site_type_symbol
_atom_site_fract_x
_atom_site_fract_y
_atom_site_fract_z
Zn1	Zn	1.108200	-0.359185	0.399200
Zn2	Zn	1.101021	-0.510066	0.269028
Zn3	Zn	0.985131	-0.359215	0.276146
Zn4	Zn	0.978014	-0.510015	0.392055
O5	O	1.043092	-0.434620	0.334107
O6	O	1.210232	-0.379209	0.381944
O7	O	1.085623	-0.490088	0.166986
O8	O	1.007440	-0.232956	0.298438
O9	O	1.204957	-0.490060	0.286307
O10	O	1.097858	-0.232935	0.388846
O11	O	1.000479	-0.379259	0.172216
O12	O	0.881203	-0.379210	0.291510
O13	O	0.995309	-0.489974	0.495989
O14	O	0.875974	-0.490003	0.376669
O15	O	1.090956	-0.379160	0.501238
O16	O	1.078721	-0.636314	0.279379
O17	O	0.988348	-0.636277	0.369767
C18	C	0.851886	-0.434605	0.334087
C19	C	0.770086	-0.434620	0.334095
C20	C	0.579185	-0.492400	0.378373
C21	C	0.502326	-0.492403	0.378382
C22	C	0.507750	-0.376857	0.289857
C23	C	0.584607	-0.376850	0.289852
C24	C	0.620323	-0.434627	0.334109
C25	C	0.466606	-0.434636	0.334123
C26	C	0.383272	-0.434639	0.334132
C27	C	0.703662	-0.434623	0.334101
C28	C	1.032003	-0.669031	0.323041
C29	C	1.027327	-0.769314	0.318331
C30	C	1.112620	-0.957582	0.403724
C31	C	1.108229	-1.051806	0.399301
C32	C	1.014149	-1.051987	0.305068
C33	C	1.018541	-0.957763	0.309490
C34	C	1.067779	-0.910564	0.358819
C35	C	1.072173	-0.816338	0.363238
C36	C	0.978090	-0.816521	0.269009
C37	C	0.973699	-0.910745	0.264586
C38	C	1.235044	-0.434636	0.334128
C39	C	1.316842	-0.434643	0.334137
C40	C	1.043139	-0.434558	0.526063
C41	C	1.043160	-0.434532	0.607863
C42	C	1.054244	-0.199294	0.345233
C43	C	1.058996	-0.099012	0.349974
C44	C	1.043089	-0.434617	0.142901
C45	C	1.043224	-0.434389	0.061114
C46	C	1.092983	-0.376777	0.798795
C47	C	1.092993	-0.376750	0.875655
C48	C	0.993395	-0.492147	0.870177
C49	C	0.993382	-0.492168	0.793319
C50	C	1.043180	-0.434484	0.757629
C51	C	1.043203	-0.434437	0.911348
C52	C	1.043214	-0.434409	0.994683
C53	C	1.043169	-0.434511	0.674289
H54	H	0.478661	-0.329818	0.253823
H55	H	1.133546	-0.329758	0.909168
H56	H	0.468834	-0.539447	0.414428
C57	C	0.629147	-0.314087	0.241711
C58	C	0.581419	-0.263512	0.202935
C59	C	0.622422	-0.205695	0.158577
H60	H	0.661003	-0.274738	0.271690
H61	H	0.657472	-0.348529	0.207935
H62	H	0.553106	-0.229072	0.236707
H63	H	0.549563	-0.302837	0.172942
H64	H	0.650747	-0.240138	0.124801
H65	H	0.654276	-0.166352	0.188561
H66	H	0.590045	-0.171379	0.132257
C67	C	0.939219	-0.554669	0.908893
C68	C	0.867331	-0.535011	0.891129
C69	C	0.817405	-0.592583	0.926785
H70	H	0.947018	-0.615324	0.893458
H71	H	0.946310	-0.546388	0.960570
H72	H	0.860243	-0.543300	0.839463
H73	H	0.859509	-0.474367	0.906564
H74	H	0.824496	-0.584302	0.978463
H75	H	0.825211	-0.653235	0.911348
H76	H	0.768624	-0.579248	0.914743
C77	C	0.939224	-0.554677	0.748588
C78	C	0.894455	-0.503599	0.706887
C79	C	0.844551	-0.561145	0.665679
H80	H	0.965423	-0.594014	0.716689
H81	H	0.909529	-0.589017	0.780827
H82	H	0.924146	-0.469274	0.674650
H83	H	0.868240	-0.464265	0.738767
H84	H	0.814857	-0.595485	0.697919
H85	H	0.870756	-0.600479	0.633785
H86	H	0.814165	-0.526496	0.637386
H87	H	1.112267	-0.777909	0.403402
C88	C	0.617828	-0.555154	0.426508
C89	C	0.565348	-0.605731	0.465290
C90	C	0.600916	-0.663539	0.509649
H91	H	0.645942	-0.594502	0.396530
H92	H	0.649435	-0.520705	0.460281
H93	H	0.533753	-0.640178	0.431520
H94	H	0.537231	-0.566407	0.495281
H95	H	0.632524	-0.629090	0.543422
H96	H	0.629029	-0.702881	0.479666
H97	H	0.565314	-0.697856	0.535973
H98	H	1.152717	-0.919151	0.443884
H99	H	0.974059	-1.090433	0.264910
H100	H	1.144740	-1.090084	0.435871
C101	C	0.920292	-0.961878	0.210916
C102	C	0.937423	-0.938985	0.139194
C103	C	0.888235	-0.986058	0.089733
H104	H	0.924049	-1.024743	0.214612
H105	H	0.871544	-0.946460	0.222315
H106	H	0.986158	-0.954409	0.127799
H107	H	0.933661	-0.876128	0.135475
H108	H	0.839487	-0.970640	0.101131
H109	H	0.891996	-1.048921	0.093435
H110	H	0.899847	-0.970525	0.041065
C111	C	0.929435	-0.765309	0.220340
C112	C	0.943806	-0.672689	0.234780
C113	C	0.898996	-0.625485	0.189967
H114	H	0.939474	-0.780675	0.170153
H115	H	0.879246	-0.780742	0.230345
H116	H	0.993984	-0.657262	0.224770
H117	H	0.933763	-0.657297	0.284958
H118	H	0.848806	-0.640918	0.199972
H119	H	0.909038	-0.640857	0.139783
H120	H	0.908735	-0.562637	0.199763
C121	C	1.147074	-0.314045	0.760183
C122	C	1.190677	-0.263484	0.812689
C123	C	1.240507	-0.205674	0.777151
H124	H	1.177572	-0.348464	0.728576
H125	H	1.120796	-0.274693	0.732073
H126	H	1.216953	-0.302830	0.840786
H127	H	1.160200	-0.229047	0.844299
H128	H	1.214229	-0.166322	0.749041
H129	H	1.271000	-0.240100	0.745545
H130	H	1.270093	-0.171356	0.812771
