data_functionalizedCrystal
_audit_creation_method	'MofGen! by Chris Wilmer'
_symmetry_space_group_name_H-M	'P1'
_symmetry_Int_Tables_number	1
_symmetry_cell_setting	triclinic
loop_
_symmetry_equiv_pos_as_xyz
  x,y,z
_cell_length_a	15.297475
_cell_length_b	15.297327
_cell_length_c	15.296720
_cell_angle_alpha	107.319222
_cell_angle_beta	91.617114
_cell_angle_gamma	91.625546
loop_
_atom_site_label
_atom_site_type_symbol
_atom_site_fract_x
_atom_site_fract_y
_atom_site_fract_z
Zn1	Zn	1.116342	-0.695081	-0.823122
Zn2	Zn	1.116246	-0.823682	-0.694497
Zn3	Zn	1.005113	-0.644908	-0.644396
Zn4	Zn	0.946204	-0.814903	-0.814406
O5	O	1.045976	-0.744644	-0.744105
O6	O	1.234042	-0.736812	-0.830675
O7	O	1.126118	-0.782644	-0.562870
O8	O	1.044561	-0.526600	-0.650785
O9	O	1.233972	-0.831295	-0.736174
O10	O	1.126281	-0.563461	-0.782095
O11	O	1.044469	-0.651299	-0.526062
O12	O	0.879585	-0.642787	-0.642333
O13	O	0.944159	-0.816332	-0.940543
O14	O	0.836305	-0.767682	-0.767239
O15	O	1.069159	-0.728299	-0.946946
O16	O	1.068996	-0.947482	-0.727722
O17	O	0.944066	-0.941032	-0.815819
C18	C	0.827423	-0.698838	-0.698404
C19	C	0.733917	-0.679267	-0.678877
C20	C	1.000147	-0.976666	-0.776286
C21	C	0.980613	-1.075946	-0.790099
C22	C	0.380296	-0.884531	-0.883671
C23	C	0.468149	-0.902925	-0.902016
C24	C	0.534595	-0.847012	-0.846233
C25	C	0.513180	-0.772701	-0.772102
C26	C	0.425318	-0.754309	-0.753750
C27	C	0.579617	-0.716791	-0.716312
C28	C	0.558202	-0.642480	-0.642181
C29	C	0.470348	-0.624091	-0.623833
C30	C	0.403902	-0.680004	-0.679616
C31	C	0.667479	-0.735183	-0.734664
C32	C	0.712501	-0.604961	-0.604743
C33	C	0.624648	-0.586567	-0.586398
C34	C	1.185880	-1.369169	-0.645759
C35	C	1.204235	-1.275889	-0.632777
C36	C	1.148331	-1.225899	-0.672106
C37	C	1.074069	-1.269198	-0.724420
C38	C	1.055710	-1.362485	-0.737398
C39	C	1.018160	-1.219215	-0.763745
C40	C	0.943898	-1.262513	-0.816059
C41	C	0.925542	-1.355791	-0.829035
C42	C	0.981446	-1.405781	-0.789706
C43	C	1.036520	-1.125928	-0.750767
C44	C	0.906349	-1.119243	-0.842406
C45	C	0.887995	-1.212523	-0.855389
C46	C	1.265382	-0.790629	-0.789986
C47	C	1.358880	-0.810225	-0.809537
C48	C	1.000098	-0.776933	-0.977057
C49	C	0.980548	-0.790693	-1.076327
C50	C	1.092003	-0.511723	-0.711823
C51	C	1.111617	-0.412466	-0.698067
C52	C	1.185768	-0.646151	-1.369491
C53	C	1.204141	-0.633225	-1.276224
C54	C	1.148244	-0.672591	-1.226245
C55	C	1.073971	-0.724884	-1.269543
C56	C	1.055600	-0.737817	-1.362821
C57	C	1.018076	-0.764257	-1.219575
C58	C	0.943803	-0.816551	-1.262873
C59	C	0.925434	-0.829480	-1.356142
C60	C	0.981331	-0.790115	-1.406121
C61	C	1.036448	-0.751324	-1.126296
C62	C	0.906280	-0.842991	-1.119626
C63	C	0.887906	-0.855916	-1.212894
C64	C	1.091736	-0.712426	-0.512061
C65	C	1.111499	-0.698449	-0.412791
H66	H	0.606128	-0.861993	-0.861175
C67	C	1.284792	-0.576381	-1.229370
C68	C	1.329799	-0.544653	-1.293093
C69	C	1.404096	-0.492270	-1.249961
H70	H	1.321953	-0.613095	-1.205381
H71	H	1.267495	-0.525641	-1.180879
H72	H	1.347098	-0.595385	-1.341567
H73	H	1.292663	-0.507925	-1.317086
H74	H	1.386798	-0.441531	-1.201470
H75	H	1.441250	-0.528991	-1.225973
H76	H	1.434638	-0.470729	-1.293188
C77	C	0.961353	-0.804341	-1.507416
C78	C	0.959913	-0.898135	-1.554548
C79	C	0.941504	-0.911272	-1.647860
H80	H	1.005240	-0.773484	-1.531096
H81	H	0.905941	-0.780496	-1.515061
H82	H	1.015317	-0.921968	-1.546909
H83	H	0.916025	-0.929011	-1.530896
H84	H	0.886092	-0.887428	-1.655506
H85	H	0.985393	-0.880412	-1.671532
H86	H	0.940517	-0.974912	-1.679850
C87	C	1.246322	-0.603459	-1.423902
C88	C	1.214325	-0.625965	-1.514848
C89	C	1.270085	-0.586644	-1.564996
H90	H	1.303291	-0.626225	-1.422352
H91	H	1.248869	-0.538745	-1.397782
H92	H	1.211788	-0.690666	-1.540961
H93	H	1.157364	-0.603199	-1.516426
H94	H	1.272632	-0.521929	-1.538876
H95	H	1.327051	-0.609412	-1.563439
H96	H	1.248379	-0.601901	-1.626706
H97	H	0.332363	-0.665029	-0.664685
C98	C	0.446949	-0.543390	-0.543441
C99	C	0.397790	-0.482700	-0.575612
C100	C	0.376201	-0.408368	-0.501572
H101	H	0.499015	-0.512608	-0.512773
H102	H	0.413567	-0.564921	-0.502066
H103	H	0.431171	-0.461170	-0.616971
H104	H	0.345714	-0.513454	-0.606271
H105	H	0.342820	-0.429898	-0.460198
H106	H	0.428271	-0.377593	-0.470909
H107	H	0.342838	-0.367185	-0.523389
H108	H	0.326190	-0.930052	-0.929077
H109	H	1.163279	-1.149947	-0.661531
C110	C	1.117102	-1.079009	-0.693838
C111	C	1.111789	-1.085697	-0.604811
C112	C	1.186016	-1.042498	-0.552343
H113	H	1.120113	-1.016275	-0.691626
H114	H	1.168051	-1.107917	-0.720843
H115	H	1.060855	-1.056787	-0.577812
H116	H	1.108791	-1.148420	-0.606994
H117	H	1.236965	-1.071406	-0.579349
H118	H	1.189021	-0.979767	-0.550139
H119	H	1.182426	-1.047038	-0.491935
H120	H	0.827530	-1.247790	-0.897983
H121	H	0.485578	-0.963431	-0.962373
H122	H	1.231385	-1.409877	-0.613736
H123	H	0.607199	-0.526062	-0.526039
C124	C	0.844732	-0.886254	-1.402979
C125	C	0.799698	-0.917941	-1.339246
C126	C	0.725346	-0.970233	-1.382354
H127	H	0.861944	-0.937012	-1.451480
H128	H	0.807622	-0.849462	-1.426941
H129	H	0.836802	-0.954732	-1.315298
H130	H	0.782466	-0.867202	-1.290742
H131	H	0.688235	-0.933441	-1.406316
H132	H	0.742566	-1.020986	-1.430854
H133	H	0.694777	-0.991732	-1.339116
H134	H	0.766603	-0.559433	-0.559318
C135	C	1.284928	-1.229060	-0.575998
C136	C	1.329971	-1.292807	-0.544356
C137	C	1.404322	-1.249705	-0.492059
H138	H	1.267714	-1.180585	-0.525217
H139	H	1.322033	-1.205067	-0.612779
H140	H	1.292873	-1.316787	-0.507576
H141	H	1.347207	-1.341285	-0.595117
H142	H	1.441428	-1.225711	-0.528840
H143	H	1.387100	-1.201230	-0.441283
H144	H	1.434897	-1.292952	-0.470590
C145	C	0.845667	-0.885620	-1.065205
C146	C	0.877639	-0.863081	-0.974248
C147	C	0.821826	-0.902324	-0.924081
H148	H	0.843071	-0.950330	-1.091263
H149	H	0.788714	-0.862804	-1.066805
H150	H	0.934576	-0.885901	-0.972653
H151	H	0.880232	-0.798378	-0.948163
H152	H	0.764873	-0.879507	-0.925680
H153	H	0.819234	-0.967032	-0.950147
H154	H	0.843506	-0.887029	-0.862359
H155	H	1.163209	-0.662064	-1.150302
C156	C	0.961397	-1.507066	-0.803954
C157	C	0.884408	-1.534294	-0.858202
C158	C	0.865923	-1.627595	-0.871359
H159	H	0.954027	-1.517299	-0.746283
H160	H	1.008451	-1.541657	-0.833770
H161	H	0.837365	-1.499713	-0.828384
H162	H	0.891758	-1.524083	-0.915882
H163	H	0.912978	-1.662186	-0.901176
H164	H	0.858557	-1.637819	-0.813684
H165	H	0.813690	-1.646083	-0.908174
C166	C	0.844892	-1.402646	-0.885894
C167	C	0.799874	-1.338912	-0.917580
C168	C	0.725582	-1.382042	-0.969970
H169	H	0.807736	-1.426668	-0.849192
H170	H	0.862195	-1.451111	-0.936655
H171	H	0.782570	-1.290464	-0.866826
H172	H	0.837006	-1.314887	-0.954295
H173	H	0.742885	-1.430507	-1.020731
H174	H	0.688432	-1.406062	-0.933262
H175	H	0.695032	-1.338808	-0.991482
H176	H	0.827432	-0.898494	-1.248160
C177	C	0.845519	-1.065126	-0.885152
C178	C	0.776539	-1.123001	-0.933717
C179	C	0.720483	-1.073171	-0.973090
H180	H	0.877062	-1.040816	-0.925806
H181	H	0.822728	-1.016379	-0.838254
H182	H	0.799329	-1.171731	-0.980609
H183	H	0.744974	-1.147312	-0.893083
H184	H	0.697692	-1.024425	-0.926192
H185	H	0.752033	-1.048864	-1.013740
H186	H	0.673669	-1.112430	-1.006038
C187	C	1.116995	-0.694379	-1.079299
C188	C	1.111654	-0.605328	-1.085902
C189	C	1.185836	-0.552835	-1.042610
H190	H	1.167980	-0.721297	-1.108169
H191	H	1.119943	-0.692247	-1.016572
H192	H	1.108715	-0.607464	-1.148617
H193	H	1.060684	-0.578384	-1.057028
H194	H	1.188784	-0.550703	-0.979883
H195	H	1.236816	-0.579761	-1.071484
H196	H	1.182218	-0.492407	-1.047076
H197	H	0.684906	-0.795687	-0.795023
