data_functionalizedCrystal
_audit_creation_method	'MofGen! by Chris Wilmer'
_symmetry_space_group_name_H-M	'P1'
_symmetry_Int_Tables_number	1
_symmetry_cell_setting	triclinic
loop_
_symmetry_equiv_pos_as_xyz
  x,y,z
_cell_length_a	19.077312
_cell_length_b	19.076808
_cell_length_c	12.759393
_cell_angle_alpha	87.665862
_cell_angle_beta	92.276336
_cell_angle_gamma	90.121844
loop_
_atom_site_label
_atom_site_type_symbol
_atom_site_fract_x
_atom_site_fract_y
_atom_site_fract_z
Zn1	Zn	1.062984	-0.322827	-0.510871
Zn2	Zn	1.058168	-0.440355	-0.328415
Zn3	Zn	0.945473	-0.318147	-0.342534
Zn4	Zn	0.940728	-0.435591	-0.511380
O5	O	1.001838	-0.379230	-0.423300
O6	O	1.160673	-0.342369	-0.480546
O7	O	1.043189	-0.424179	-0.183266
O8	O	0.965063	-0.220432	-0.370561
O9	O	1.157134	-0.428716	-0.346496
O10	O	1.051398	-0.223870	-0.494237
O11	O	0.960393	-0.334393	-0.193640
O12	O	0.846516	-0.329774	-0.371054
O13	O	0.956975	-0.420598	-0.658334
O14	O	0.843029	-0.416060	-0.495105
O15	O	1.046796	-0.337750	-0.657960
O16	O	1.038587	-0.538059	-0.346989
O17	O	0.952304	-0.534559	-0.481413
C18	C	0.819278	-0.371893	-0.434667
C19	C	0.741177	-0.368771	-0.439554
C20	C	0.301751	-0.346323	-0.474619
C21	C	0.375135	-0.349270	-0.470020
C22	C	0.409978	-0.395625	-0.397824
C23	C	0.371434	-0.439042	-0.330228
C24	C	0.298051	-0.436099	-0.334833
C25	C	0.629250	-0.409244	-0.376563
C26	C	0.702637	-0.412183	-0.371962
C27	C	0.706334	-0.322411	-0.511756
C28	C	0.632950	-0.319469	-0.516349
C29	C	0.594412	-0.362888	-0.448758
N30	N	0.484988	-0.398637	-0.393119
N31	N	0.519403	-0.359880	-0.453468
C32	C	0.994427	-0.561807	-0.412746
C33	C	0.991321	-0.639917	-0.408262
C34	C	1.034778	-0.678342	-0.470604
C35	C	1.031856	-0.751734	-0.466393
C36	C	0.985481	-0.786701	-0.399834
C37	C	0.942019	-0.748271	-0.337490
C38	C	0.944938	-0.674880	-0.341707
C39	C	0.971933	-1.006012	-0.380315
C40	C	0.969019	-1.079409	-0.376100
C41	C	1.058856	-1.082867	-0.505005
C42	C	1.061773	-1.009474	-0.509212
C43	C	1.018309	-0.971050	-0.446872
N44	N	0.982495	-0.861720	-0.395525
N45	N	1.021292	-0.896033	-0.451186
C46	C	1.185112	-0.386596	-0.411889
C47	C	1.263212	-0.389735	-0.407026
C48	C	1.001894	-0.379165	-0.697334
C49	C	1.001917	-0.379137	-0.814111
C50	C	1.009297	-0.195940	-0.433917
C51	C	1.012476	-0.117833	-0.438442
C52	C	1.048691	-0.335991	-0.868780
C53	C	1.048704	-0.335961	-0.978506
C54	C	0.955167	-0.422229	-0.978883
C55	C	0.955152	-0.422254	-0.869160
C56	C	1.001826	-0.379246	-0.150333
C57	C	1.001946	-0.379081	-0.033559
H58	H	0.406510	-0.313921	-0.525065
C59	C	1.100160	-0.288499	-1.038636
N60	N	1.138920	-0.252749	-1.083926
C61	C	0.917998	-1.117870	-0.302881
N62	N	0.879570	-1.146840	-0.247735
C63	C	0.924105	-0.963755	-0.311763
N64	N	0.888072	-0.931924	-0.260136
H65	H	0.917094	-0.457335	-1.023716
H66	H	1.086768	-0.300880	-0.823963
H67	H	0.273387	-0.308571	-0.533403
C68	C	0.903692	-0.469718	-0.809020
N69	N	0.864933	-0.505464	-0.763724
C70	C	0.740963	-0.463184	-0.292543
N71	N	0.769830	-0.501597	-0.232728
H72	H	1.067249	-0.783017	-0.517150
H73	H	0.597881	-0.444598	-0.321523
C74	C	0.748731	-0.274657	-0.586107
N75	N	0.780665	-0.238688	-0.642114
H76	H	0.399809	-0.476789	-0.271448
H77	H	0.604585	-0.281724	-0.575143
H78	H	1.072545	-0.649877	-0.524799
C79	C	0.255659	-0.483854	-0.260473
N80	N	0.223729	-0.519826	-0.204464
H81	H	1.099535	-0.981005	-0.563409
C82	C	1.106658	-1.125138	-0.573582
N83	N	1.142663	-1.156977	-0.625240
H84	H	0.904257	-0.776747	-0.283301
C85	C	0.897132	-0.632614	-0.273125
N86	N	0.861122	-0.600779	-0.221470
