data_functionalizedCrystal
_audit_creation_method	'MofGen! by Chris Wilmer'
_symmetry_space_group_name_H-M	'P1'
_symmetry_Int_Tables_number	1
_symmetry_cell_setting	triclinic
loop_
_symmetry_equiv_pos_as_xyz
  x,y,z
_cell_length_a	11.026660
_cell_length_b	11.026607
_cell_length_c	9.130313
_cell_angle_alpha	90.000037
_cell_angle_beta	89.999618
_cell_angle_gamma	108.585426
loop_
_atom_site_label
_atom_site_type_symbol
_atom_site_fract_x
_atom_site_fract_y
_atom_site_fract_z
O1	O	1.726711	0.533598	-0.121801
O2	O	1.360134	0.472838	-0.121802
O3	O	1.513041	0.319928	-0.121796
O4	O	1.573804	0.686507	-0.121806
O5	O	1.513039	0.319933	0.121803
O6	O	1.360132	0.472843	0.121797
O7	O	1.726709	0.533602	0.121798
Cu8	Cu	1.543421	0.503223	0.144040
Cu9	Cu	1.543422	0.503217	-0.144044
O10	O	1.573802	0.686512	0.121792
C11	C	1.312474	0.461631	-0.000003
C12	C	1.170461	0.428216	-0.000003
C13	C	1.501830	0.272271	0.000002
C14	C	1.468414	0.130257	-0.000004
C15	C	0.970035	0.485957	-0.000009
C16	C	1.116813	0.520496	-0.000007
C17	C	1.560682	0.076607	-0.000005
C18	C	1.526147	-0.070171	-0.000011
C19	C	1.774369	0.544809	-0.000004
C20	C	1.916382	0.578225	-0.000013
C21	C	1.585013	0.734169	-0.000008
C22	C	1.618429	0.876183	-0.000013
N23	N	1.543429	0.503228	0.346663
N24	N	1.543422	0.503204	-0.346666
C25	C	1.611164	0.435554	0.423317
C26	C	1.611158	0.435538	0.576654
C27	C	1.475678	0.570881	0.576668
C28	C	1.475678	0.570889	0.423334
C29	C	1.689387	0.357419	0.423310
C30	C	1.689380	0.357403	0.576647
H31	H	0.907305	0.381394	0.000015
H32	H	1.179538	0.625067	-0.000001
H33	H	1.107737	0.323645	-0.000098
Cl34	Cl	1.722123	0.173450	-0.000014
H35	H	1.788247	0.407804	0.375751
H36	H	0.979112	0.682788	-0.000007
H37	H	1.421578	-0.132899	-0.000021
H38	H	1.647125	0.255087	0.381693
H39	H	1.722999	-0.061091	-0.000122
H40	H	1.363852	0.067525	-0.000014
H41	H	1.420509	0.625981	0.360923
Cl42	Cl	1.390510	0.655935	0.673064
H43	H	1.639062	0.258519	0.624197
Cl44	Cl	1.847358	0.422750	0.640911
