data_functionalizedCrystal
_audit_creation_method	'MofGen! by Chris Wilmer'
_symmetry_space_group_name_H-M	'P1'
_symmetry_Int_Tables_number	1
_symmetry_cell_setting	triclinic
loop_
_symmetry_equiv_pos_as_xyz
  x,y,z
_cell_length_a	19.288864
_cell_length_b	8.559649
_cell_length_c	18.366186
_cell_angle_alpha	89.994914
_cell_angle_beta	89.977106
_cell_angle_gamma	76.457456
loop_
_atom_site_label
_atom_site_type_symbol
_atom_site_fract_x
_atom_site_fract_y
_atom_site_fract_z
O1	O	0.910987	0.199404	-0.060777
O2	O	0.707328	0.226304	-0.060726
O3	O	0.827100	-0.019877	-0.060756
O4	O	0.791215	0.445585	-0.060748
O5	O	0.827083	-0.019889	0.060344
O6	O	0.707311	0.226292	0.060373
O7	O	0.910970	0.199392	0.060322
Zn8	Zn	0.809137	0.212840	0.079575
Zn9	Zn	0.809160	0.212856	-0.079979
O10	O	0.791198	0.445573	0.060351
C11	C	0.681488	0.225432	-0.000170
C12	C	0.604519	0.222834	-0.000151
C13	C	0.552314	0.367282	-0.000161
C14	C	0.479994	0.364841	-0.000169
C15	C	0.459883	0.217944	-0.000182
C16	C	0.512099	0.073477	-0.000169
C17	C	0.584417	0.075922	-0.000154
C18	C	0.357630	0.102471	-0.042635
C19	C	0.285312	0.100032	-0.042655
C20	C	0.236829	0.210396	-0.000226
C21	C	0.260670	0.323227	0.042213
C22	C	0.332989	0.325672	0.042228
C23	C	0.381467	0.215276	-0.000198
C24	C	0.106205	0.352207	-0.000243
C25	C	0.033884	0.349760	-0.000247
C26	C	0.065991	0.058393	-0.000254
C27	C	0.138310	0.060844	-0.000244
C28	C	0.158412	0.207756	-0.000241
C29	C	0.829811	-0.079432	-0.000208
C30	C	0.837906	-0.256871	-0.000214
C31	C	0.936810	0.200264	-0.000235
C32	C	1.013778	0.202862	-0.000259
C33	C	0.788487	0.505129	-0.000198
C34	C	0.780392	0.682567	-0.000197
N35	N	0.809127	0.212828	0.188466
N36	N	0.809177	0.212855	-0.188870
C37	C	0.862174	0.103873	0.226553
C38	C	0.862179	0.103866	0.302781
C39	C	0.809141	0.212842	0.340919
C40	C	0.756084	0.321805	0.302822
C41	C	0.756077	0.321799	0.226596
C42	C	0.792272	0.358486	0.461683
C43	C	0.792284	0.358494	0.537908
C44	C	0.809160	0.212862	0.576026
C45	C	0.826039	0.067214	0.537910
C46	C	0.826032	0.067207	0.461684
C47	C	0.809143	0.212860	0.423573
C48	C	0.862216	0.103889	0.696769
C49	C	0.862216	0.103880	0.772998
C50	C	0.756124	0.321833	0.773037
C51	C	0.756121	0.321829	0.696809
C52	C	0.809171	0.212858	0.658680
H53	H	0.352397	0.417538	0.076786
H54	H	0.495719	-0.046127	-0.000190
Br55	Br	0.930306	-0.396705	-0.000224
H56	H	0.712899	0.410533	0.333877
Br57	Br	0.684137	0.469714	0.824788
Br58	Br	0.655272	-0.120130	-0.000140
H59	H	0.905369	0.015139	0.195510
Br60	Br	0.769437	0.556153	0.409958
H61	H	0.397100	0.012595	-0.077190
Br62	Br	0.579593	0.566660	-0.000156
Br63	Br	0.934178	-0.044017	0.354481
Br64	Br	0.848931	-0.130447	0.409957
Br65	Br	0.769385	0.556156	0.589628
H66	H	0.221197	0.413096	0.076763
Br67	Br	0.848952	-0.130446	0.589632
Br68	Br	0.934209	-0.044003	0.645019
H69	H	0.724959	-0.233537	-0.000181
Br70	Br	0.934210	-0.044013	0.824692
Br71	Br	0.684127	0.469708	0.645113
H72	H	0.437481	0.482471	-0.000174
Br73	Br	0.133492	0.551582	-0.000235
H74	H	0.712878	0.410525	0.195584
H75	H	0.049617	-0.061214	-0.000311
Br76	Br	0.209165	-0.135204	-0.000233
H77	H	0.265906	0.008165	-0.077214
H78	H	-0.008622	0.467392	-0.000250
