data_functionalizedCrystal
_audit_creation_method	'MofGen! by Chris Wilmer'
_symmetry_space_group_name_H-M	'P1'
_symmetry_Int_Tables_number	1
_symmetry_cell_setting	triclinic
loop_
_symmetry_equiv_pos_as_xyz
  x,y,z
_cell_length_a	16.120484
_cell_length_b	16.120566
_cell_length_c	16.120297
_cell_angle_alpha	89.874982
_cell_angle_beta	95.614431
_cell_angle_gamma	89.831930
loop_
_atom_site_label
_atom_site_type_symbol
_atom_site_fract_x
_atom_site_fract_y
_atom_site_fract_z
Zn1	Zn	-0.422255	-1.224984	-0.554879
Zn2	Zn	0.077745	-0.724984	-0.054879
Zn3	Zn	-0.554939	-1.224880	-0.422184
Zn4	Zn	-0.054939	-0.724880	0.077816
Zn5	Zn	-0.408172	-1.093724	-0.408115
Zn6	Zn	0.091828	-0.593724	0.091885
Zn7	Zn	-0.554173	-1.078877	-0.554109
Zn8	Zn	-0.054173	-0.578877	-0.054109
O9	O	-0.484885	-1.155616	-0.484822
O10	O	0.015115	-0.655616	0.015178
O11	O	-0.446070	-1.341006	-0.543487
O12	O	0.053930	-0.841006	-0.043487
O13	O	-0.529897	-1.213651	-0.303685
O14	O	-0.029897	-0.713651	0.196315
O15	O	-0.293409	-1.117393	-0.422018
O16	O	0.206591	-0.617393	0.077982
O17	O	-0.543553	-1.340929	-0.445997
O18	O	-0.043553	-0.840929	0.054003
O19	O	-0.303756	-1.213829	-0.529845
O20	O	0.196244	-0.713829	-0.029845
O21	O	-0.422067	-1.117292	-0.293349
O22	O	0.077933	-0.617292	0.206651
O23	O	-0.421324	-0.975719	-0.421271
O24	O	0.078676	-0.475719	0.078729
O25	O	-0.542247	-1.092089	-0.670843
O26	O	-0.042247	-0.592089	-0.170843
O27	O	-0.528591	-0.964811	-0.528532
O28	O	-0.028591	-0.464811	-0.028532
O29	O	-0.445327	-1.199433	-0.671409
O30	O	0.054673	-0.699433	-0.171409
O31	O	-0.671468	-1.199255	-0.445250
O32	O	-0.171468	-0.699255	0.054750
O33	O	-0.670905	-1.091988	-0.542174
O34	O	-0.170905	-0.591988	-0.042174
C35	C	-0.473347	-0.940178	-0.473291
C36	C	0.026653	-0.440178	0.026709
C37	C	-0.468432	-0.848011	-0.468379
C38	C	0.031568	-0.348011	0.031621
C39	C	-0.701429	-1.144021	-0.495174
C40	C	-0.201429	-0.644021	0.004826
C41	C	-0.794074	-1.139134	-0.499635
C42	C	-0.294074	-0.639134	0.000365
C43	C	-0.963697	-1.130217	-0.507797
C44	C	-0.463697	-0.630217	-0.007797
C45	C	-1.005240	-1.181163	-0.461868
C46	C	-0.505240	-0.681163	0.038132
C47	C	-1.099624	-1.176202	-0.466409
C48	C	-0.599624	-0.676202	0.033591
C49	C	-0.869304	-1.135178	-0.503257
C50	C	-0.369304	-0.635178	-0.003257
C51	C	-0.459439	-0.679260	-0.459418
C52	C	0.040561	-0.179260	0.040582
C53	C	-0.510402	-0.632809	-0.510236
C54	C	-0.010402	-0.132809	-0.010236
C55	C	-0.505398	-0.538910	-0.505249
C56	C	-0.005398	-0.038910	-0.005249
C57	C	-0.464442	-0.773167	-0.464403
C58	C	0.035558	-0.273167	0.035597
C59	C	-0.267496	-1.167279	-0.474448
C60	C	0.232504	-0.667279	0.025552
C61	C	-0.174858	-1.172249	-0.470027
C62	C	0.325142	-0.672249	0.029973
C63	C	-0.495272	-1.144117	-0.702213
C64	C	0.004728	-0.644117	-0.202213
C65	C	-0.499699	-1.139216	-0.794853
C66	C	0.000301	-0.639216	-0.294853
C67	C	-0.496470	-0.371896	-0.496384
C68	C	0.003530	0.128104	0.003616
C69	C	-0.501412	-0.464063	-0.501277
C70	C	-0.001412	0.035937	-0.001277
C71	C	-0.507761	-1.130240	-0.964463
C72	C	-0.007761	-0.630240	-0.464463
C73	C	-0.461767	-1.181169	-1.006028
C74	C	0.038233	-0.681169	-0.506028
C75	C	-0.466253	-1.176175	-1.100406
C76	C	0.033747	-0.676175	-0.600406
C77	C	-0.503276	-1.135233	-0.870078
C78	C	-0.003276	-0.635233	-0.370078
C79	C	-0.474480	-1.167122	-0.268275
C80	C	0.025520	-0.667122	0.231725
C81	C	-0.469827	-1.172196	-0.175634
C82	C	0.030173	-0.672196	0.324366
H83	H	-0.969921	-1.228505	-0.419135
H84	H	-0.469921	-0.728505	0.080865
O85	O	-1.010476	-1.067497	-0.564382
O86	O	-0.510476	-0.567497	-0.064382
H87	H	-1.054110	-1.100281	-0.610666
H88	H	-0.554110	-0.600281	-0.110666
H89	H	-0.557789	-0.663561	-0.557488
H90	H	-0.057789	-0.163561	-0.057488
O91	O	-0.396673	-0.638543	-0.396820
O92	O	0.103327	-0.138543	0.103180
H93	H	-0.408612	-0.657805	-0.332930
H94	H	0.091388	-0.157805	0.167070
H95	H	-0.419021	-1.228521	-0.970734
H96	H	0.080979	-0.728521	-0.470734
O97	O	-0.564382	-1.067518	-1.011204
O98	O	-0.064382	-0.567518	-0.511204
H99	H	-0.559065	-1.073397	-1.079071
H100	H	-0.059065	-0.573397	-0.579071
