data_functionalizedCrystal
_audit_creation_method	'MofGen! by Chris Wilmer'
_symmetry_space_group_name_H-M	'P1'
_symmetry_Int_Tables_number	1
_symmetry_cell_setting	triclinic
loop_
_symmetry_equiv_pos_as_xyz
  x,y,z
_cell_length_a	15.995350
_cell_length_b	10.654541
_cell_length_c	9.730217
_cell_angle_alpha	90.003041
_cell_angle_beta	89.997763
_cell_angle_gamma	83.988152
loop_
_atom_site_label
_atom_site_type_symbol
_atom_site_fract_x
_atom_site_fract_y
_atom_site_fract_z
O1	O	-1.111921	-0.161871	-0.114173
O2	O	-0.868262	-0.181860	-0.114201
O3	O	-0.995695	0.010947	-0.114178
O4	O	-0.984488	-0.354679	-0.114196
O5	O	-0.995691	0.010949	0.114402
O6	O	-0.868258	-0.181859	0.114379
O7	O	-1.111917	-0.161869	0.114407
Zn8	Zn	-0.990087	-0.171864	0.150685
Zn9	Zn	-0.990092	-0.171866	-0.150479
O10	O	-0.984484	-0.354677	0.114384
C11	C	-0.837060	-0.181033	0.000085
C12	C	-0.744095	-0.178556	0.000075
C13	C	-1.143119	-0.162697	0.000118
C14	C	-1.236083	-0.165174	0.000119
C15	C	-0.994870	0.057735	0.000111
C16	C	-0.992410	0.197146	0.000109
C17	C	-0.406296	-0.169658	0.000104
C18	C	-0.452934	-0.032344	0.000621
C19	C	-0.549638	-0.034822	0.000096
C20	C	-0.573882	-0.174072	0.000090
C21	C	-0.533190	-0.241800	-0.130438
C22	C	-0.436535	-0.238351	-0.130538
C23	C	-0.436208	-0.241186	0.129401
C24	C	-0.533153	-0.241153	0.131116
C25	C	-0.668594	-0.176573	0.000078
C26	C	-0.311584	-0.167161	0.000107
C27	C	-0.985309	-0.401465	0.000092
C28	C	-0.987769	-0.540876	0.000086
N29	N	-0.990089	-0.171861	0.356222
C30	C	-1.144790	0.227108	0.000144
C31	C	-1.219821	0.307582	0.000164
C32	C	-1.217504	0.438570	0.000159
C33	C	-1.140148	0.489085	0.000130
C34	C	-1.065117	0.408610	0.000110
C35	C	-1.067442	0.277621	0.000119
C36	C	-0.912738	0.378649	0.000065
C37	C	-0.915053	0.247661	0.000080
C38	C	-0.835382	0.429164	0.000036
C39	C	-0.760349	0.348689	0.000026
C40	C	-0.762670	0.217694	0.000032
C41	C	-0.840023	0.167187	0.000060
N42	N	-0.990096	-0.171858	-0.356015
C43	C	-1.102978	-0.001180	0.356233
C44	C	-1.159427	0.084158	0.428178
C45	C	-1.159436	0.084158	0.572058
C46	C	-1.102987	-0.001185	0.643996
C47	C	-1.046537	-0.086522	0.572050
C48	C	-1.046536	-0.086516	0.428167
C49	C	-0.933646	-0.257196	0.572039
C50	C	-0.933640	-0.257205	0.428159
C51	C	-0.877197	-0.342539	0.643977
C52	C	-0.820750	-0.427884	0.572031
C53	C	-0.820744	-0.427882	0.428143
C54	C	-0.877191	-0.342542	0.356214
H55	H	-0.434092	0.022544	0.094228
O56	O	-0.759876	-0.519937	0.649610
H57	H	-0.718883	-0.467039	0.715173
H58	H	-0.577757	0.018416	0.093664
H59	H	-0.701570	0.152178	0.000010
O60	O	-0.554276	-0.375667	0.141564
H61	H	-0.588642	-0.387989	0.238926
O62	O	-0.552679	-0.377316	-0.136874
H63	H	-0.523213	-0.423015	-0.229990
O64	O	-1.102969	-0.001178	0.201048
H65	H	-1.165629	-0.021324	0.163107
H66	H	-0.774773	-0.497370	0.369572
O67	O	-1.220288	0.176240	0.350594
H68	H	-1.210798	0.161913	0.238458
H69	H	-0.405034	-0.342426	0.130279
H70	H	-0.877194	-0.342537	0.239059
O71	O	-0.877206	-0.342554	0.799162
H72	H	-0.925949	-0.268889	0.837108
O73	O	-1.303251	0.253092	0.000189
H74	H	-1.355033	0.331058	0.000187
O75	O	-0.842533	0.025909	0.000069
H76	H	-0.810253	-0.015091	0.093231
H77	H	-1.102990	-0.001168	0.761150
H78	H	-0.433025	0.022290	-0.092465
H79	H	-1.205399	0.153652	0.630636
H80	H	-0.833501	0.535822	0.000024
O81	O	-0.394582	-0.371880	-0.138418
H82	H	-0.443356	-0.438630	-0.142151
H83	H	-0.577187	0.018774	-0.093630
O84	O	-0.570399	-0.179490	-0.259119
H85	H	-0.617862	-0.100296	-0.230439
H86	H	-0.697372	0.389830	-0.000006
H87	H	-0.560181	-0.191712	0.227681
H88	H	-0.417941	-0.188962	-0.228107
O89	O	-0.408681	-0.181714	0.260464
H90	H	-0.373368	-0.100502	0.234904
O91	O	-1.147283	0.085827	0.000169
H92	H	-1.180788	0.057735	-0.092985
O93	O	-1.298426	0.525380	0.000191
H94	H	-1.352606	0.468255	0.000221
H95	H	-1.138268	0.595743	0.000110
