data_functionalizedCrystal
_audit_creation_method	'MofGen! by Chris Wilmer'
_symmetry_space_group_name_H-M	'P1'
_symmetry_Int_Tables_number	1
_symmetry_cell_setting	triclinic
loop_
_symmetry_equiv_pos_as_xyz
  x,y,z
_cell_length_a	10.967926
_cell_length_b	10.065875
_cell_length_c	11.026607
_cell_angle_alpha	79.268236
_cell_angle_beta	83.619246
_cell_angle_gamma	93.120479
loop_
_atom_site_label
_atom_site_type_symbol
_atom_site_fract_x
_atom_site_fract_y
_atom_site_fract_z
O1	O	1.659143	0.276732	-0.213709
O2	O	1.309856	0.194579	-0.217209
O3	O	1.455551	0.228852	-0.037496
O4	O	1.513449	0.242459	-0.393422
O5	O	1.427800	0.449312	-0.071909
O6	O	1.282106	0.415040	-0.251622
O7	O	1.631392	0.497193	-0.248122
Zn8	Zn	1.452343	0.491119	-0.255336
Zn9	Zn	1.488906	0.200653	-0.209995
O10	O	1.485698	0.462920	-0.427835
C11	C	1.250570	0.294129	-0.231560
C12	C	1.115255	0.262303	-0.223039
C13	C	1.040552	0.362319	-0.237067
C14	C	0.900697	0.329427	-0.228260
C15	C	1.430994	0.336568	-0.009008
C16	C	1.399155	0.329075	0.127149
C17	C	1.690679	0.397640	-0.233770
C18	C	1.825995	0.429458	-0.242290
N19	N	1.427398	0.689357	-0.286279
N20	N	1.513858	0.002417	-0.179043
C21	C	1.480217	0.769561	-0.220753
C22	C	1.461031	0.922215	-0.244578
C23	C	1.510255	0.355201	-0.456323
C24	C	1.542096	0.362686	-0.592478
C25	C	1.487072	0.349751	0.196974
C26	C	1.454166	0.342006	0.337699
H27	H	0.861120	0.219442	-0.209726
N28	N	1.092966	0.508002	-0.261608
H29	H	1.185444	0.510848	-0.264421
H30	H	1.070785	0.556844	-0.343890
N31	N	0.878400	0.575149	-0.266825
H32	H	0.970878	0.577999	-0.269636
H33	H	0.856220	0.623997	-0.349105
N34	N	1.267178	0.298050	0.185951
H35	H	1.213027	0.285319	0.120019
H36	H	1.260431	0.212316	0.251379
H37	H	1.573281	0.958074	-0.105296
N38	N	1.062846	0.116617	-0.198498
H39	H	1.084939	0.067690	-0.116206
H40	H	0.970380	0.113884	-0.195750
H41	H	1.354530	0.318563	0.382098
N42	N	1.558943	0.710831	-0.123086
H43	H	1.591557	0.785328	-0.082632
H44	H	1.507797	0.639526	-0.057977
H45	H	1.367968	0.733703	-0.360011
N46	N	1.382300	0.980932	-0.342251
H47	H	1.379750	1.081659	-0.345423
H48	H	1.418394	0.964515	-0.426024
H49	H	1.586701	0.373192	0.152570
N50	N	1.674080	0.393718	0.348732
H51	H	1.678883	0.394849	0.256537
H52	H	1.705529	0.485261	0.362471
