data_functionalizedCrystal
_audit_creation_method	'MofGen! by Chris Wilmer'
_symmetry_space_group_name_H-M	'P1'
_symmetry_Int_Tables_number	1
_symmetry_cell_setting	triclinic
loop_
_symmetry_equiv_pos_as_xyz
  x,y,z
_cell_length_a	12.759401
_cell_length_b	18.050590
_cell_length_c	12.759401
_cell_angle_alpha	90.013733
_cell_angle_beta	90.003191
_cell_angle_gamma	90.017597
loop_
_atom_site_label
_atom_site_type_symbol
_atom_site_fract_x
_atom_site_fract_y
_atom_site_fract_z
Zn1	Zn	1.606068	-0.295796	0.593952
Zn2	Zn	1.605997	-0.419958	0.418260
Zn3	Zn	1.430417	-0.295785	0.418292
Zn4	Zn	1.430347	-0.419947	0.593901
O5	O	1.518207	-0.357871	0.506101
O6	O	1.753079	-0.312276	0.570654
O7	O	1.582706	-0.403487	0.271243
O8	O	1.453776	-0.191862	0.441628
O9	O	1.753028	-0.403498	0.441574
O10	O	1.582826	-0.191870	0.570685
O11	O	1.453708	-0.312257	0.271266
O12	O	1.283387	-0.312245	0.441578
O13	O	1.453656	-0.403477	0.740929
O14	O	1.283335	-0.403467	0.570598
O15	O	1.582758	-0.312265	0.740966
O16	O	1.582638	-0.523881	0.441524
O17	O	1.453588	-0.523873	0.570567
C18	C	1.245240	-0.357854	0.506086
C19	C	1.128463	-0.357864	0.506105
C20	C	1.073621	-0.310455	0.573422
C21	C	0.963897	-0.310469	0.573428
C22	C	0.963867	-0.405309	0.438799
C23	C	1.073589	-0.405290	0.438788
C24	C	1.128495	-0.263029	0.640739
C25	C	1.073653	-0.215617	0.708061
C26	C	0.963929	-0.215631	0.708068
C27	C	0.909047	-0.263058	0.640752
C28	C	1.518126	-0.550824	0.506059
C29	C	1.518188	-0.633369	0.506076
C30	C	1.588511	-0.832798	0.436001
C31	C	1.614153	-0.882148	0.531887
C32	C	1.518248	-0.784500	0.506118
C33	C	1.492713	-0.882231	0.410275
C34	C	1.518307	-0.930485	0.506150
C35	C	1.543938	-0.832763	0.602055
C36	C	1.422454	-0.832841	0.480378
C37	C	1.448059	-0.882169	0.576331
C38	C	1.518216	-0.700401	0.506098
C39	C	1.518339	-1.014581	0.506181
C40	C	1.792240	-0.357889	0.506116
C41	C	1.909017	-0.357897	0.506123
C42	C	1.518207	-0.357871	0.780134
C43	C	1.518207	-0.357871	0.896911
C44	C	1.518317	-0.164166	0.506166
C45	C	1.518364	-0.081620	0.506194
C46	C	1.585425	-0.310387	0.951794
C47	C	1.585420	-0.310390	1.061518
C48	C	1.450978	-0.405367	1.061466
C49	C	1.450978	-0.405360	0.951744
C50	C	1.652655	-0.262897	0.896961
C51	C	1.719879	-0.215410	0.951845
C52	C	1.719874	-0.215413	1.061569
C53	C	1.652646	-0.262903	1.116409
C54	C	1.518200	-0.357887	1.233134
C55	C	1.518203	-0.357881	1.116357
H56	H	1.118242	-0.443895	0.383973
N57	N	1.369378	-0.910718	0.654965
H58	H	1.297210	-0.891984	0.636151
H59	H	1.388905	-0.892621	0.727284
N60	N	1.652636	-0.262898	1.234755
H61	H	1.724699	-0.276554	1.261187
H62	H	1.599806	-0.300182	1.261083
N63	N	0.904779	-0.164498	0.780680
H64	H	0.826943	-0.171702	0.770474
H65	H	0.923963	-0.111437	0.764468
H66	H	1.652668	-0.262891	0.807619
N67	N	1.667244	-0.804074	0.357545
H68	H	1.666192	-0.748126	0.357617
H69	H	1.648635	-0.822893	0.285353
H70	H	1.565480	-0.811126	0.683192
H71	H	1.396243	-0.444031	1.106126
N72	N	1.315152	-0.804114	0.451471
H73	H	1.286472	-0.773321	0.511018
H74	H	1.266679	-0.847268	0.437653
N75	N	1.721488	-0.910845	0.560760
H76	H	1.774495	-0.892891	0.507741
H77	H	1.720442	-0.966790	0.561241
N78	N	1.378478	-0.456575	0.892545
H79	H	1.394763	-0.509641	0.911612
H80	H	1.388710	-0.449299	0.814736
N81	N	1.464065	-0.911018	0.302899
H82	H	1.517171	-0.893058	0.249985
H83	H	1.392183	-0.892306	0.282991
N84	N	1.792394	-0.164199	0.892699
H85	H	1.749732	-0.129777	0.847175
H86	H	1.841044	-0.194447	0.847237
H87	H	1.774603	-0.176741	1.106252
H88	H	0.819702	-0.263050	0.640740
N89	N	1.246839	-0.263040	0.640767
H90	H	1.273282	-0.225812	0.693637
H91	H	1.273218	-0.249333	0.568706
H92	H	0.919173	-0.443923	0.383995
N93	N	1.132839	-0.164471	0.780670
H94	H	1.210670	-0.171659	0.770460
H95	H	1.113657	-0.176127	0.855670
