data_functionalizedCrystal
_audit_creation_method	'MofGen! by Chris Wilmer'
_symmetry_space_group_name_H-M	'P1'
_symmetry_Int_Tables_number	1
_symmetry_cell_setting	triclinic
loop_
_symmetry_equiv_pos_as_xyz
  x,y,z
_cell_length_a	14.044220
_cell_length_b	14.044220
_cell_length_c	13.101018
_cell_angle_alpha	86.335703
_cell_angle_beta	93.664400
_cell_angle_gamma	93.188878
loop_
_atom_site_label
_atom_site_type_symbol
_atom_site_fract_x
_atom_site_fract_y
_atom_site_fract_z
O1	O	0.225353	1.281975	-0.085109
O2	O	0.217046	1.005305	-0.085135
O3	O	0.082864	1.139486	-0.085113
O4	O	0.359534	1.147793	-0.085132
O5	O	0.092500	1.129848	0.085316
O6	O	0.226681	0.995666	0.085294
O7	O	0.234988	1.272336	0.085319
Zn8	Zn	0.232365	1.132471	0.112366
Zn9	Zn	0.219669	1.145170	-0.112182
O10	O	0.369170	1.138155	0.085297
C11	C	0.218228	0.964864	0.000076
C12	C	0.207383	0.858722	0.000066
C13	C	0.187558	0.664383	0.000088
C14	C	0.264472	0.613253	0.000087
C15	C	0.253441	0.505116	0.000099
C16	C	0.198587	0.772529	0.000076
C17	C	0.052060	1.131031	0.000102
C18	C	-0.054083	1.120187	0.000102
C19	C	-0.248421	1.100362	0.000086
C20	C	-0.299551	1.177276	0.000090
C21	C	-0.407688	1.166245	0.000080
C22	C	-0.140275	1.111391	0.000095
C23	C	0.399974	1.146610	0.000080
C24	C	0.506116	1.157455	0.000073
C25	C	0.233806	1.312777	0.000106
C26	C	0.244651	1.418920	0.000109
N27	N	0.241029	1.123811	0.265613
N28	N	0.210998	1.153837	-0.265429
C29	C	0.199206	1.165614	0.525530
C30	C	0.252818	1.112036	0.474648
C31	C	0.246257	1.118589	0.358330
C32	C	0.205766	1.159063	0.641858
H33	H	0.338605	0.650693	0.000077
H34	H	-0.262115	1.251413	0.000028
H35	H	0.113431	0.626945	0.000099
O36	O	0.138499	1.226230	0.473450
C37	C	0.089958	1.274786	0.543660
H38	H	0.089807	1.231313	0.620177
H39	H	0.127589	1.347714	0.555022
C40	C	-0.013510	1.341434	0.407668
C41	C	-0.013703	1.288034	0.501644
H42	H	-0.077452	1.349610	0.381749
H43	H	0.019195	1.308724	0.360365
H44	H	0.017854	1.402201	0.417148
H45	H	-0.045056	1.227264	0.492160
H46	H	-0.046416	1.320734	0.548945
H47	H	-0.285859	1.026235	0.000076
H48	H	0.303645	1.061246	0.518444
