data_functionalizedCrystal
_audit_creation_method	'MofGen! by Chris Wilmer'
_symmetry_space_group_name_H-M	'P1'
_symmetry_Int_Tables_number	1
_symmetry_cell_setting	triclinic
loop_
_symmetry_equiv_pos_as_xyz
  x,y,z
_cell_length_a	16.959455
_cell_length_b	16.959454
_cell_length_c	11.169409
_cell_angle_alpha	89.967057
_cell_angle_beta	89.977953
_cell_angle_gamma	90.017022
loop_
_atom_site_label
_atom_site_type_symbol
_atom_site_fract_x
_atom_site_fract_y
_atom_site_fract_z
Zn1	Zn	1.208444	-0.314682	-0.678609
Zn2	Zn	1.208349	-0.446889	-0.477924
Zn3	Zn	1.076255	-0.314721	-0.477935
Zn4	Zn	1.076237	-0.446815	-0.678561
O5	O	1.142321	-0.380777	-0.578257
O6	O	1.319042	-0.332234	-0.652003
O7	O	1.190794	-0.429403	-0.309975
O8	O	1.093837	-0.204105	-0.504580
O9	O	1.318972	-0.429365	-0.504560
O10	O	1.190956	-0.204076	-0.652014
O11	O	1.093745	-0.332300	-0.309984
O12	O	0.965641	-0.332229	-0.504534
O13	O	1.093807	-0.429240	-0.846517
O14	O	0.965629	-0.429278	-0.651932
O15	O	1.190939	-0.332163	-0.846552
O16	O	1.190777	-0.557490	-0.504513
O17	O	1.093715	-0.557436	-0.651921
C18	C	0.936955	-0.380751	-0.578230
C19	C	0.849098	-0.380759	-0.578246
C20	C	0.477605	-0.330202	-0.501667
C21	C	0.477640	-0.431417	-0.654916
C22	C	0.560186	-0.431405	-0.654909
C23	C	0.601445	-0.380792	-0.578278
C24	C	0.560159	-0.330191	-0.501655
C25	C	0.601479	-0.482012	-0.731522
C26	C	0.684030	-0.482003	-0.731517
C27	C	0.725291	-0.431385	-0.654891
C28	C	0.683999	-0.380781	-0.578266
C29	C	0.725258	-0.330168	-0.501635
C30	C	0.683968	-0.279559	-0.425015
C31	C	0.601419	-0.279573	-0.425029
C32	C	0.807839	-0.431372	-0.654877
C33	C	0.807811	-0.330157	-0.501623
C34	C	1.142255	-0.586143	-0.578237
C35	C	1.142299	-0.674000	-0.578268
C36	C	1.091854	-1.045477	-0.655004
C37	C	1.193008	-1.045473	-0.501633
C38	C	1.192980	-0.962927	-0.501622
C39	C	1.142388	-0.921652	-0.578302
C40	C	1.091824	-0.962923	-0.654993
C41	C	1.243538	-0.921650	-0.424923
C42	C	1.243512	-0.839099	-0.424908
C43	C	1.192923	-0.797823	-0.501595
C44	C	1.142357	-0.839099	-0.578290
C45	C	1.091765	-0.797824	-0.654970
C46	C	1.041202	-0.839099	-0.731672
C47	C	1.041235	-0.921647	-0.731680
C48	C	1.192891	-0.715274	-0.501588
C49	C	1.091734	-0.715271	-0.654959
C50	C	1.348489	-0.380803	-0.578285
C51	C	1.436346	-0.380815	-0.578297
C52	C	1.142382	-0.380689	-0.891300
C53	C	1.142408	-0.380652	-1.024700
C54	C	1.142409	-0.174608	-0.578304
C55	C	1.142447	-0.086752	-0.578324
C56	C	1.142306	-0.380807	-0.266432
C57	C	1.142433	-0.380622	-0.133033
H58	H	0.717571	-0.238354	-0.362617
H59	H	1.000006	-0.805483	-0.794100
H60	H	1.050690	-1.079086	-0.717456
O61	O	1.292593	-0.799097	-0.350245
C62	C	1.275356	-0.819314	-0.230602
H63	H	1.244989	-0.879268	-0.228075
H64	H	1.234720	-0.772894	-0.190115
C65	C	1.389740	-0.749476	-0.161119
C66	C	1.352448	-0.823117	-0.158014
H67	H	1.437293	-0.751818	-0.116340
H68	H	1.401352	-0.735853	-0.241723
H69	H	1.355869	-0.710801	-0.127381
H70	H	1.386315	-0.861788	-0.191765
H71	H	1.340844	-0.836746	-0.077413
H72	H	0.444042	-0.472628	-0.717298
H73	H	0.567880	-0.523224	-0.793902
O74	O	1.241959	-0.675266	-0.426920
C75	C	1.224711	-0.695484	-0.307282
H76	H	1.194349	-0.755442	-0.304763
H77	H	1.184065	-0.649069	-0.266806
C78	C	1.339079	-0.625634	-0.237769
C79	C	1.301795	-0.699279	-0.234674
H80	H	1.386627	-0.627972	-0.192978
H81	H	1.350699	-0.612010	-0.318370
H82	H	1.305200	-0.586962	-0.204041
H83	H	1.335670	-0.737947	-0.268415
H84	H	1.290183	-0.712909	-0.154075
O85	O	0.992228	-0.961829	-0.806232
C86	C	1.037219	-1.009506	-0.883832
H87	H	1.097142	-1.021846	-0.841590
H88	H	1.045858	-0.977654	-0.972788
C89	C	0.920154	-1.072784	-0.957378
C90	C	0.993749	-1.087946	-0.905491
H91	H	0.893338	-1.121168	-0.970744
H92	H	0.889841	-1.040661	-0.905101
H93	H	0.927363	-1.046239	-1.031502
H94	H	0.986539	-1.114482	-0.831362
H95	H	1.024060	-1.120075	-0.957756
H96	H	0.567793	-0.238371	-0.362648
H97	H	1.050539	-0.681670	-0.717406
H98	H	1.234193	-1.079084	-0.439196
H99	H	0.841399	-0.288936	-0.439227
O100	O	0.437379	-0.281116	-0.427280
C101	C	0.355671	-0.291957	-0.443743
H102	H	0.344394	-0.352988	-0.482891
H103	H	0.332278	-0.245122	-0.507784
C104	C	0.327102	-0.209663	-0.274254
C105	C	0.313251	-0.284625	-0.322326
H106	H	0.300934	-0.205137	-0.199360
H107	H	0.382150	-0.202357	-0.263164
H108	H	0.307608	-0.170643	-0.327632
H109	H	0.332754	-0.323643	-0.268955
H110	H	0.258205	-0.291938	-0.333404
H111	H	0.717642	-0.523211	-0.793906
O112	O	0.847914	-0.480442	-0.729467
C113	C	0.827766	-0.463277	-0.849132
H114	H	0.805082	-0.400141	-0.855363
H115	H	0.779854	-0.505689	-0.880396
C116	C	0.928980	-0.550071	-0.921544
C117	C	0.901126	-0.472522	-0.929199
H118	H	0.974231	-0.555776	-0.970935
H119	H	0.942553	-0.561637	-0.840924
H120	H	0.889047	-0.585405	-0.947595
H121	H	0.941055	-0.437191	-0.903134
H122	H	0.887561	-0.460950	-1.009817
O123	O	1.292697	-0.961814	-0.350557
C124	C	1.343736	-1.009563	-0.418875
H125	H	1.348684	-0.984637	-0.513389
H126	H	1.319254	-1.072113	-0.423047
C127	C	1.419800	-1.041514	-0.244112
C128	C	1.425882	-1.010895	-0.360192
H129	H	1.470470	-1.042339	-0.207912
H130	H	1.385413	-1.009347	-0.198082
H131	H	1.399395	-1.093636	-0.247604
H132	H	1.446277	-0.958771	-0.356697
H133	H	1.460274	-1.043053	-0.406220
