data_functionalizedCrystal
_audit_creation_method	'MofGen! by Chris Wilmer'
_symmetry_space_group_name_H-M	'P1'
_symmetry_Int_Tables_number	1
_symmetry_cell_setting	triclinic
loop_
_symmetry_equiv_pos_as_xyz
  x,y,z
_cell_length_a	10.489716
_cell_length_b	10.489716
_cell_length_c	10.065875
_cell_angle_alpha	98.882384
_cell_angle_beta	81.163716
_cell_angle_gamma	84.529136
loop_
_atom_site_label
_atom_site_type_symbol
_atom_site_fract_x
_atom_site_fract_y
_atom_site_fract_z
O1	O	1.712546	0.161244	-0.113470
O2	O	1.341345	0.178169	-0.113474
O3	O	1.535409	-0.015895	-0.113477
O4	O	1.518482	0.355308	-0.113467
O5	O	1.498405	0.021260	0.113512
O6	O	1.304341	0.215324	0.113515
O7	O	1.675542	0.198399	0.113519
Zn8	Zn	1.484066	0.212761	0.149557
Zn9	Zn	1.532820	0.163807	-0.149512
O10	O	1.481478	0.392463	0.113522
C11	C	1.275311	0.195475	0.000020
C12	C	1.133681	0.191670	0.000018
C13	C	1.515636	-0.044850	0.000014
C14	C	1.511833	-0.186483	0.000001
C15	C	1.035996	0.310675	0.000018
C16	C	0.940410	0.266111	0.111940
C17	C	0.976900	0.229450	-0.111854
C18	C	1.039945	0.147170	0.112032
C19	C	1.076456	0.110510	-0.111862
C20	C	0.980915	0.065863	0.000088
C21	C	1.630837	-0.284165	0.000015
C22	C	1.586196	-0.379839	-0.111900
C23	C	1.549685	-0.343171	0.111894
C24	C	1.467257	-0.280306	-0.112006
C25	C	1.430748	-0.243616	0.111888
C26	C	1.386024	-0.339246	-0.000054
C27	C	1.741576	0.181093	0.000022
C28	C	1.883208	0.184897	0.000015
C29	C	1.501251	0.421418	0.000028
C30	C	1.505055	0.563049	0.000032
N31	N	1.450802	0.246170	0.353663
N32	N	1.566095	0.130389	-0.353618
C33	C	1.521239	0.175423	0.421440
C34	C	1.495648	0.201145	0.578608
H35	H	1.060639	0.414210	0.000125
H36	H	1.365129	-0.184606	0.206508
H37	H	1.416388	0.280758	0.636930
O38	O	0.951968	-0.057795	-0.000025
C39	C	0.990934	-0.279943	-0.116979
C40	C	1.023849	-0.139966	-0.117013
H41	H	1.049012	-0.346413	-0.211568
H42	H	1.016730	-0.314905	-0.021571
H43	H	0.882606	-0.282116	-0.117810
H44	H	1.132167	-0.137684	-0.116230
H45	H	0.997961	-0.105063	-0.212413
H46	H	0.948835	0.264226	-0.206462
O47	O	1.660398	0.035258	0.576607
C48	C	1.771460	-0.077537	0.356340
C49	C	1.664801	0.030409	0.435189
H50	H	1.775037	-0.081511	0.241990
H51	H	1.869533	-0.056055	0.384029
H52	H	1.748709	-0.175032	0.384643
H53	H	1.687429	0.127947	0.406928
H54	H	1.566761	0.008814	0.407493
H55	H	0.881498	0.331837	0.206563
O56	O	1.356343	0.341135	0.423446
C57	C	1.244621	0.453268	0.643718
C58	C	1.351659	0.345699	0.564864
H59	H	1.240781	0.456975	0.758068
H60	H	1.266978	0.551010	0.615809
H61	H	1.146790	0.431391	0.615640
H62	H	1.449532	0.367452	0.592900
H63	H	1.329190	0.247990	0.592780
H64	H	1.067825	0.112465	0.206747
O65	O	1.146723	0.032318	-0.224886
C66	C	1.194614	-0.012667	-0.470632
C67	C	1.114972	0.075991	-0.342733
H68	H	1.168953	0.022592	-0.565944
H69	H	1.302739	-0.009664	-0.469094
H70	H	1.171046	-0.116636	-0.471537
H71	H	1.138429	0.179998	-0.341746
H72	H	1.006870	0.072876	-0.344322
O73	O	1.664714	-0.450169	-0.224674
C74	C	1.882411	-0.502259	-0.352233
C75	C	1.793634	-0.422565	-0.224453
H76	H	1.986656	-0.479949	-0.352112
H77	H	1.878076	-0.610359	-0.351654
H78	H	1.848193	-0.475400	-0.447592
H79	H	1.827790	-0.449312	-0.129027
H80	H	1.797976	-0.314485	-0.225152
H81	H	1.734370	-0.259516	-0.000098
H82	H	1.282441	-0.363677	-0.000115
H83	H	1.584524	-0.371161	0.206507
H84	H	1.432489	-0.252503	-0.206726
H85	H	1.600484	0.095806	0.363115
