data_functionalizedCrystal
_audit_creation_method	'MofGen! by Chris Wilmer'
_symmetry_space_group_name_H-M	'P1'
_symmetry_Int_Tables_number	1
_symmetry_cell_setting	triclinic
loop_
_symmetry_equiv_pos_as_xyz
  x,y,z
_cell_length_a	17.077404
_cell_length_b	12.827892
_cell_length_c	17.077396
_cell_angle_alpha	89.973519
_cell_angle_beta	89.984079
_cell_angle_gamma	90.013362
loop_
_atom_site_label
_atom_site_type_symbol
_atom_site_fract_x
_atom_site_fract_y
_atom_site_fract_z
Zn1	Zn	1.200077	-0.416073	-0.443839
Zn2	Zn	1.700077	0.083927	0.056161
Zn3	Zn	1.200006	-0.590840	-0.312581
Zn4	Zn	1.700006	-0.090840	0.187419
Zn5	Zn	1.068814	-0.416108	-0.312589
Zn6	Zn	1.568814	0.083892	0.187411
Zn7	Zn	1.068794	-0.590767	-0.443807
Zn8	Zn	1.568794	-0.090767	0.056193
O9	O	1.134423	-0.503447	-0.378204
O10	O	1.634423	-0.003447	0.121796
O11	O	1.309914	-0.439273	-0.426437
O12	O	1.809914	0.060727	0.073563
O13	O	1.182583	-0.567707	-0.202735
O14	O	1.682583	-0.067707	0.297265
O15	O	1.086264	-0.269867	-0.330016
O16	O	1.586264	0.230133	0.169984
O17	O	1.309863	-0.567674	-0.330002
O18	O	1.809863	-0.067674	0.169998
O19	O	1.182702	-0.269842	-0.426445
O20	O	1.682702	0.230158	0.073555
O21	O	1.086196	-0.439332	-0.202741
O22	O	1.586196	0.060668	0.297259
O23	O	0.958964	-0.439260	-0.329986
O24	O	1.458964	0.060740	0.170014
O25	O	1.086229	-0.567548	-0.553658
O26	O	1.586229	-0.067548	-0.053658
O27	O	0.958949	-0.567581	-0.426391
O28	O	1.458949	-0.067581	0.073609
O29	O	1.182682	-0.439201	-0.553681
O30	O	1.682682	0.060799	-0.053681
O31	O	1.182563	-0.737067	-0.329972
O32	O	1.682563	-0.237067	0.170028
O33	O	1.086161	-0.737012	-0.426383
O34	O	1.586161	-0.237012	0.073617
C35	C	0.930475	-0.503417	-0.378186
C36	C	1.430475	-0.003417	0.121814
C37	C	0.843225	-0.503430	-0.378197
C38	C	1.343225	-0.003430	0.121803
C39	C	0.802262	-0.436690	-0.428487
C40	C	1.302262	0.063310	0.071513
C41	C	0.720282	-0.436697	-0.428491
C42	C	1.220282	0.063303	0.071509
C43	C	0.679266	-0.503449	-0.378208
C44	C	1.179266	-0.003449	0.121792
C45	C	0.720234	-0.570192	-0.327912
C46	C	1.220234	-0.070192	0.172088
C47	C	0.802213	-0.570179	-0.327905
C48	C	1.302213	-0.070179	0.172095
C49	C	0.549364	-0.570215	-0.327932
C50	C	1.049364	-0.070215	0.172068
C51	C	0.467379	-0.570230	-0.327940
C52	C	0.967379	-0.070230	0.172060
C53	C	0.467433	-0.436734	-0.428518
C54	C	0.967433	0.063266	0.071482
C55	C	0.549412	-0.436721	-0.428511
C56	C	1.049412	0.063279	0.071489
C57	C	0.590375	-0.503465	-0.378216
C58	C	1.090375	-0.003465	0.121784
C59	C	1.134374	-0.774957	-0.378190
C60	C	1.634374	-0.274957	0.121810
C61	C	1.134424	-0.891110	-0.378210
C62	C	1.634424	-0.391110	0.121790
C63	C	1.182184	-0.942887	-0.330556
C64	C	1.682184	-0.442887	0.169444
C65	C	1.182237	-1.062937	-0.330576
C66	C	1.682237	-0.562937	0.169424
C67	C	1.339167	-0.503477	-0.378222
C68	C	1.839167	-0.003477	0.121778
C69	C	1.426417	-0.503490	-0.378230
C70	C	1.926417	-0.003490	0.121770
C71	C	1.134461	-0.503362	-0.582948
C72	C	1.634461	-0.003362	-0.082948
C73	C	1.134478	-0.503326	-0.670198
C74	C	1.634478	-0.003326	-0.170198
C75	C	1.134493	-0.230877	-0.378235
C76	C	1.634493	0.269123	0.121765
C77	C	1.134523	-0.114724	-0.378248
C78	C	1.634523	0.385276	0.121752
C79	C	1.184738	-0.570050	-1.046012
C80	C	1.684738	-0.070050	-0.546012
C81	C	1.184718	-0.570080	-0.964031
C82	C	1.684718	-0.070080	-0.464031
C83	C	1.134528	-0.503253	-0.923047
C84	C	1.634528	-0.003253	-0.423047
C85	C	1.084350	-0.436398	-0.964048
C86	C	1.584350	0.063602	-0.464048
C87	C	1.084366	-0.436373	-1.046027
C88	C	1.584366	0.063627	-0.546027
C89	C	1.084321	-0.436451	-0.793177
C90	C	1.584321	0.063549	-0.293177
C91	C	1.084305	-0.436474	-0.711193
C92	C	1.584305	0.063526	-0.211193
C93	C	1.184672	-0.570158	-0.711182
C94	C	1.684672	-0.070158	-0.211182
C95	C	1.184688	-0.570134	-0.793161
C96	C	1.684688	-0.070134	-0.293161
C97	C	1.134511	-0.503277	-0.834156
C98	C	1.634511	-0.003277	-0.334156
C99	C	1.134429	-0.503456	-0.174256
C100	C	1.634429	-0.003456	0.325744
C101	C	1.134565	-0.503198	-0.087007
C102	C	1.634565	-0.003198	0.412993
H103	H	0.686934	-0.382353	-0.469444
H104	H	1.186934	0.117647	0.030556
H105	H	1.223123	-1.107464	-0.289775
H106	H	1.723123	-0.607464	0.210225
C107	C	1.079236	-0.951288	-0.433348
C108	C	1.579236	-0.451288	0.066652
N109	N	1.037666	-0.996613	-0.474879
N110	N	1.537666	-0.496613	0.025121
C111	C	1.239900	-0.643647	-0.838242
C112	C	1.739900	-0.143647	-0.338242
N113	N	1.281484	-0.699021	-0.872197
N114	N	1.781484	-0.199021	-0.372197
C115	C	1.239865	-0.643706	-0.666086
C116	C	1.739865	-0.143706	-0.166086
N117	N	1.281435	-0.699099	-0.632117
N118	N	1.781435	-0.199099	-0.132117
H119	H	1.043481	-0.381990	-0.930672
H120	H	1.543481	0.118010	-0.430672
H121	H	1.225564	-0.624530	-0.930657
H122	H	1.725564	-0.124530	-0.430657
C123	C	0.422373	-0.363318	-0.483845
C124	C	0.922373	0.136682	0.016155
N125	N	0.388429	-0.308028	-0.525520
N126	N	0.888429	0.191972	-0.025520
C127	C	0.594528	-0.363288	-0.483823
C128	C	1.094528	0.136712	0.016177
N129	N	0.628510	-0.307974	-0.525482
N130	N	1.128510	0.192026	-0.025482
H131	H	0.433986	-0.624586	-0.286995
H132	H	0.933986	-0.124586	0.213005
C133	C	1.239951	-0.643567	-1.091087
C134	C	1.739951	-0.143567	-0.591087
N135	N	1.281536	-0.698946	-1.125035
N136	N	1.781536	-0.198946	-0.625035
H137	H	1.223036	-0.898341	-0.289745
H138	H	1.723036	-0.398341	0.210255
H139	H	0.582713	-0.624563	-0.286974
H140	H	1.082713	-0.124563	0.213026
C141	C	1.029088	-0.362969	-0.666112
C142	C	1.529088	0.137031	-0.166112
N143	N	0.987495	-0.307607	-0.632157
N144	N	1.487495	0.192393	-0.132157
C145	C	1.029123	-0.362904	-0.838270
C146	C	1.529123	0.137096	-0.338270
N147	N	0.987553	-0.307504	-0.872233
N148	N	1.487553	0.192496	-0.372233
H149	H	0.835652	-0.382336	-0.469436
H150	H	1.335652	0.117664	0.030564
C151	C	0.675113	-0.643619	-0.272599
C152	C	1.175113	-0.143619	0.227401
N153	N	0.641128	-0.698928	-0.230938
N154	N	1.141128	-0.198928	0.269062
H155	H	1.093630	-1.070204	-0.419046
H156	H	1.593630	-0.570204	0.080954
C157	C	1.029174	-0.362828	-1.091120
C158	C	1.529174	0.137172	-0.591120
N159	N	0.987601	-0.307433	-1.125084
N160	N	1.487601	0.192567	-0.625084
C161	C	0.847271	-0.643600	-0.272584
C162	C	1.347271	-0.143600	0.227416
N163	N	0.881208	-0.698901	-0.230913
N164	N	1.381208	-0.198901	0.269087
