data_functionalizedCrystal
_audit_creation_method	'MofGen! by Chris Wilmer'
_symmetry_space_group_name_H-M	'P1'
_symmetry_Int_Tables_number	1
_symmetry_cell_setting	triclinic
loop_
_symmetry_equiv_pos_as_xyz
  x,y,z
_cell_length_a	19.288864
_cell_length_b	14.044220
_cell_length_c	18.366186
_cell_angle_alpha	89.993222
_cell_angle_beta	89.977106
_cell_angle_gamma	88.162561
loop_
_atom_site_label
_atom_site_type_symbol
_atom_site_fract_x
_atom_site_fract_y
_atom_site_fract_z
O1	O	0.928948	0.118214	-0.060787
O2	O	1.428948	0.618214	0.439213
O3	O	0.727712	0.134161	-0.060738
O4	O	1.227712	0.634161	0.439262
O5	O	0.825310	-0.011784	-0.060755
O6	O	1.325310	0.488216	0.439245
O7	O	0.831351	0.264160	-0.060770
O8	O	1.331351	0.764160	0.439230
O9	O	0.825291	-0.011791	0.060345
O10	O	1.325291	0.488209	0.560345
O11	O	0.727694	0.134154	0.060362
O12	O	1.227694	0.634154	0.560362
O13	O	0.928930	0.118207	0.060312
O14	O	1.428930	0.618207	0.560312
Zn15	Zn	0.828309	0.126180	0.079564
Zn16	Zn	1.328309	0.626180	0.579564
Zn17	Zn	0.828333	0.126189	-0.079990
Zn18	Zn	1.328333	0.626189	0.420010
O19	O	0.831332	0.264152	0.060329
O20	O	1.331332	0.764152	0.560329
C21	C	0.701794	0.133645	-0.000182
C22	C	1.201794	0.633645	0.499818
C23	C	0.624591	0.132104	-0.000163
C24	C	1.124591	0.632104	0.499837
C25	C	0.585397	0.217738	-0.000179
C26	C	1.085397	0.717738	0.499821
C27	C	0.512857	0.216291	-0.000187
C28	C	1.012857	0.716291	0.499813
C29	C	0.479514	0.129205	-0.000193
C30	C	0.979514	0.629205	0.499807
C31	C	0.518717	0.043560	-0.000173
C32	C	1.018717	0.543560	0.499827
C33	C	0.591256	0.045010	-0.000157
C34	C	1.091256	0.545010	0.499843
C35	C	0.366860	0.060749	-0.042640
C36	C	0.866860	0.560749	0.457360
C37	C	0.294322	0.059303	-0.042660
C38	C	0.794322	0.559303	0.457340
C39	C	0.255781	0.124731	-0.000237
C40	C	0.755781	0.624731	0.499763
C41	C	0.289785	0.191621	0.042196
C42	C	0.789785	0.691621	0.542196
C43	C	0.362323	0.193071	0.042212
C44	C	0.862323	0.693071	0.542212
C45	C	0.400858	0.127624	-0.000209
C46	C	0.900858	0.627624	0.499791
C47	C	0.137930	0.208802	-0.000261
C48	C	0.637930	0.708802	0.499739
C49	C	0.065389	0.207351	-0.000264
C50	C	0.565389	0.707351	0.499736
C51	C	0.071251	0.034617	-0.000257
C52	C	0.571251	0.534617	0.499743
C53	C	0.143790	0.036071	-0.000247
C54	C	0.643790	0.536071	0.499753
C55	C	0.177126	0.123165	-0.000252
C56	C	0.677126	0.623165	0.499748
C57	C	0.822656	-0.047091	-0.000204
C58	C	1.322656	0.452909	0.499796
C59	C	0.814768	-0.152283	-0.000201
C60	C	1.314768	0.347717	0.499799
C61	C	0.800348	-0.344882	-0.000208
C62	C	1.300348	0.155118	0.499792
C63	C	0.856291	-0.402755	-0.000224
C64	C	1.356291	0.097245	0.499776
C65	C	0.848267	-0.509924	-0.000228
C66	C	1.348267	-0.009924	0.499772
C67	C	0.808370	-0.237703	-0.000204
C68	C	1.308370	0.262297	0.499796
C69	C	0.954848	0.118724	-0.000245
C70	C	1.454848	0.618724	0.499755
C71	C	1.032051	0.120264	-0.000269
C72	C	1.532051	0.620264	0.499731
C73	C	0.833986	0.299459	-0.000223
C74	C	1.333986	0.799459	0.499777
C75	C	0.841874	0.404651	-0.000231
C76	C	1.341874	0.904651	0.499769
N77	N	0.828297	0.126173	0.188455
N78	N	1.328297	0.626173	0.688455
N79	N	0.828350	0.126188	-0.188881
N80	N	1.328350	0.626188	0.311119
C81	C	0.871531	0.061580	0.226548
C82	C	1.371531	0.561580	0.726548
C83	C	0.871535	0.061575	0.302776
C84	C	1.371535	0.561575	0.802776
C85	C	0.828313	0.126180	0.340908
C86	C	1.328313	0.626180	0.840908
C87	C	0.785071	0.190778	0.302806
C88	C	1.285071	0.690778	0.802806
C89	C	0.785063	0.190774	0.226579
C90	C	1.285063	0.690774	0.726579
C91	C	0.824562	0.212524	0.461665
C92	C	1.324562	0.712524	0.961665
C93	C	0.824575	0.212529	0.537890
C94	C	1.324575	0.712529	1.037890
C95	C	0.828333	0.126192	0.576015
C96	C	1.328333	0.626192	1.076015
C97	C	0.832093	0.039847	0.537907
C98	C	1.332093	0.539847	1.037907
C99	C	0.832085	0.039843	0.461681
C100	C	1.332085	0.539843	0.961681
C101	C	0.828316	0.126191	0.423563
C102	C	1.328316	0.626191	0.923563
C103	C	0.871574	0.061589	0.696763
C104	C	1.371574	0.561589	1.196763
C105	C	0.871573	0.061584	0.772993
C106	C	1.371573	0.561584	1.272993
C107	C	0.785113	0.190795	0.773021
C108	C	1.285113	0.690795	1.273021
C109	C	0.785110	0.190792	0.696793
C110	C	1.285110	0.690792	1.196793
C111	C	0.828344	0.126190	0.658669
C112	C	1.328344	0.626190	1.158669
H113	H	0.266642	0.004840	-0.077215
H114	H	0.766642	0.504840	0.422785
O115	O	0.629363	-0.038154	-0.000019
O116	O	1.129363	0.461846	0.499981
C117	C	0.671479	-0.042477	0.062696
C118	C	1.171479	0.457523	0.562696
H119	H	0.647934	0.006090	0.106529
H120	H	1.147934	0.506090	0.606529
H121	H	0.674885	-0.118846	0.083751
H122	H	1.174885	0.381154	0.583751
H123	H	0.725674	-0.018172	0.048522
H124	H	1.225674	0.481828	0.548522
O125	O	0.913542	-0.001271	0.189629
O126	O	1.413542	0.498729	0.689629
C127	C	0.951715	-0.058268	0.239603
C128	C	1.451715	0.441732	0.739603
H129	H	0.923185	-0.059234	0.293956
H130	H	1.423185	0.440766	0.793956
H131	H	0.957620	-0.133987	0.217588
H132	H	1.457620	0.366013	0.717588
H133	H	1.005205	-0.027675	0.247676
H134	H	1.505205	0.472325	0.747676
O135	O	0.920569	-0.365693	-0.000200
O136	O	1.420569	0.134307	0.499800
C137	C	0.914378	-0.265388	-0.000211
C138	C	1.414378	0.234612	0.499789
H139	H	0.861595	-0.242067	0.022724
H140	H	1.361595	0.257933	0.522724
H141	H	0.957103	-0.235126	0.034944
H142	H	1.457103	0.264874	0.534944
H143	H	0.919430	-0.237861	-0.058307
H144	H	1.419430	0.262139	0.441693
H145	H	0.746431	-0.375822	-0.000197
H146	H	1.246431	0.124178	0.499803
H147	H	0.175703	-0.033662	-0.000237
H148	H	0.675703	0.466338	0.499763
O149	O	0.617692	0.302404	-0.000277
O150	O	1.117692	0.802404	0.499723
C151	C	0.598225	0.354572	-0.063014
C152	C	1.098225	0.854572	0.436986
H153	H	0.546407	0.328946	-0.083932
H154	H	1.046407	0.828946	0.416068
H155	H	0.593043	0.433529	-0.048917
H156	H	1.093043	0.933529	0.451083
H157	H	0.639484	0.343426	-0.106922
H158	H	1.139484	0.843426	0.393078
H159	H	0.906742	0.008974	0.333797
H160	H	1.406742	0.508974	0.833797
O161	O	0.835703	-0.044112	0.424775
O162	O	1.335703	0.455888	0.924775
C163	C	0.839041	-0.120320	0.474763
C164	C	1.339041	0.379680	0.974763
H165	H	0.816146	-0.095841	0.529112
H166	H	1.316146	0.404159	1.029112
H167	H	0.808229	-0.181976	0.452760
H168	H	1.308229	0.318024	0.952760
H169	H	0.895445	-0.144765	0.482839
H170	H	1.395445	0.355235	0.982839
O171	O	0.404189	-0.002848	-0.083925
O172	O	0.904189	0.497152	0.416075
C173	C	0.358625	-0.062201	-0.121374
C174	C	0.858625	0.437799	0.378626
H175	H	0.305606	-0.024561	-0.126503
H176	H	0.805606	0.475439	0.373497
H177	H	0.380180	-0.078472	-0.177981
H178	H	0.880180	0.421528	0.322019
H179	H	0.353244	-0.131562	-0.089920
H180	H	0.853244	0.368438	0.410080
H181	H	0.835153	-0.030457	0.568947
H182	H	1.335153	0.469543	1.068947
O183	O	0.913608	-0.001036	0.810080
O184	O	1.413608	0.498964	1.310080
C185	C	0.959600	0.049575	0.854132
C186	C	1.459600	0.549575	1.354132
H187	H	0.936530	0.123822	0.865554
H188	H	1.436530	0.623822	1.365554
H189	H	0.968141	0.009985	0.907735
H190	H	1.468141	0.509985	1.407735
H191	H	1.011318	0.055841	0.824730
H192	H	1.511318	0.555841	1.324730
H193	H	0.906776	0.008984	0.665721
H194	H	1.406776	0.508984	1.165721
O195	O	0.743190	0.253515	0.810166
O196	O	1.243190	0.753515	1.310166
C197	C	0.752450	0.239650	0.885615
C198	C	1.252450	0.739650	1.385615
H199	H	0.805466	0.204043	0.896003
H200	H	1.305466	0.704043	1.396003
H201	H	0.749168	0.311442	0.914579
H202	H	1.249168	0.811442	1.414579
H203	H	0.710206	0.192254	0.907271
H204	H	1.210206	0.692254	1.407271
O205	O	0.743098	0.253638	0.659898
O206	O	1.243098	0.753638	1.159898
C207	C	0.704936	0.310645	0.709897
C208	C	1.204936	0.810645	1.209897
H209	H	0.733476	0.311619	0.764219
H210	H	1.233476	0.811619	1.264219
H211	H	0.699026	0.386360	0.687867
H212	H	1.199026	0.886360	1.187867
H213	H	0.651447	0.280054	0.718035
H214	H	1.151447	0.780054	1.218035
O215	O	0.820891	0.296484	0.574792
O216	O	1.320891	0.796484	1.074792
C217	C	0.817579	0.372687	0.524798
C218	C	1.317579	0.872687	1.024798
H219	H	0.796872	0.346538	0.470477
H220	H	1.296872	0.846538	0.970477
H221	H	0.781517	0.431794	0.546836
H222	H	1.281517	0.931794	1.046836
H223	H	0.871669	0.401347	0.516656
H224	H	1.371669	0.901347	1.016656
H225	H	0.821490	0.282834	0.430629
H226	H	1.321490	0.782834	0.930629
O227	O	0.743020	0.253571	0.339731
O228	O	1.243020	0.753571	0.839731
C229	C	0.704869	0.310600	0.289759
C230	C	1.204869	0.810600	0.789759
H231	H	0.701675	0.271746	0.235428
H232	H	1.201675	0.771746	0.735428
H233	H	0.650311	0.325245	0.311811
H234	H	1.150311	0.825245	0.811811
H235	H	0.731771	0.380921	0.281628
H236	H	1.231771	0.880921	0.781628
O237	O	0.743166	0.253569	0.189493
O238	O	1.243166	0.753569	0.689493
C239	C	0.783974	0.311918	0.145391
C240	C	1.283974	0.811918	0.645391
H241	H	0.835973	0.273985	0.133950
H242	H	1.335973	0.773985	0.633950
H243	H	0.755917	0.327012	0.091800
H244	H	1.255917	0.827012	0.591800
H245	H	0.793031	0.381938	0.174758
H246	H	1.293031	0.881938	0.674758
O247	O	0.027209	0.290453	-0.000251
O248	O	0.527209	0.790453	0.499749
C249	C	-0.043965	0.270502	-0.000280
C250	C	0.456035	0.770502	0.499720
H251	H	-0.051367	0.196085	0.022658
H252	H	0.448633	0.696085	0.522658
H253	H	-0.073424	0.325113	0.034864
H254	H	0.426576	0.825113	0.534864
H255	H	-0.064656	0.274175	-0.058382
H256	H	0.435344	0.774175	0.441618
H257	H	0.480939	0.286027	-0.000198
H258	H	0.980939	0.786027	0.499802
H259	H	0.491565	-0.027346	-0.000188
H260	H	0.991565	0.472654	0.499812
H261	H	0.258406	0.244899	0.076742
H262	H	0.758406	0.744899	0.576742
O263	O	0.395327	0.257946	0.083545
O264	O	0.895327	0.757946	0.583545
C265	C	0.377969	0.245104	0.157399
C266	C	0.877969	0.745104	0.657399
H267	H	0.360583	0.169133	0.166149
H268	H	0.860583	0.669133	0.666149
H269	H	0.425237	0.258354	0.192783
H270	H	0.925237	0.758354	0.692783
H271	H	0.334054	0.297441	0.172986
H272	H	0.834054	0.797441	0.672986
O273	O	0.170241	0.293459	-0.000354
O274	O	0.670241	0.793459	0.499646
C275	C	0.150781	0.345644	-0.063084
C276	C	0.650781	0.845644	0.436916
H277	H	0.098956	0.320041	-0.084002
H278	H	0.598956	0.820041	0.415998
H279	H	0.145614	0.424600	-0.048979
H280	H	0.645614	0.924600	0.451021
H281	H	0.192036	0.334491	-0.106995
H282	H	0.692036	0.834491	0.393005
O283	O	0.038760	-0.049896	-0.000297
O284	O	0.538760	0.450104	0.499703
C285	C	-0.033670	-0.032815	-0.000294
C286	C	0.466330	0.467185	0.499706
H287	H	-0.046083	0.041212	-0.023224
H288	H	0.453917	0.541212	0.476776
H289	H	-0.059347	-0.088519	-0.035456
H290	H	0.440653	0.411481	0.464544
H291	H	-0.054148	-0.037327	0.057800
H292	H	0.445852	0.462673	0.557800
