data_functionalizedCrystal
_audit_creation_method	'MofGen! by Chris Wilmer'
_symmetry_space_group_name_H-M	'P1'
_symmetry_Int_Tables_number	1
_symmetry_cell_setting	triclinic
loop_
_symmetry_equiv_pos_as_xyz
  x,y,z
_cell_length_a	16.974885
_cell_length_b	13.596369
_cell_length_c	14.519731
_cell_angle_alpha	90.000990
_cell_angle_beta	96.459364
_cell_angle_gamma	93.645761
loop_
_atom_site_label
_atom_site_type_symbol
_atom_site_fract_x
_atom_site_fract_y
_atom_site_fract_z
O1	O	1.049308	0.001652	-0.117506
O2	O	0.819127	-0.016655	-0.132484
O3	O	0.940312	-0.007008	0.009262
O4	O	0.928124	-0.007995	-0.259252
O5	O	0.940296	0.156574	0.009253
O6	O	0.819111	0.146927	-0.132493
O7	O	1.049292	0.165234	-0.117515
Zn8	Zn	0.934199	0.182052	-0.125005
Zn9	Zn	0.934220	-0.033473	-0.124994
O10	O	0.928108	0.155587	-0.259261
C11	C	0.789661	0.062793	-0.131919
C12	C	0.701883	0.055812	-0.130214
C13	C	0.207791	0.006877	-0.120582
C14	C	0.290267	0.013449	-0.122184
C15	C	0.331488	0.105905	-0.122997
C16	C	0.290229	0.191793	-0.122198
C17	C	0.207755	0.185220	-0.120589
C18	C	0.578149	0.135127	-0.127805
C19	C	0.660629	0.141694	-0.129418
C20	C	0.660662	-0.036651	-0.129402
C21	C	0.578185	-0.043217	-0.127798
C22	C	0.536934	0.042672	-0.126994
N23	N	0.415792	0.112625	-0.124639
N24	N	0.452632	0.035950	-0.125346
N25	N	0.934191	0.329144	-0.125013
C26	C	0.934194	0.418142	-0.125016
C27	C	0.934202	0.529794	-0.125010
C28	C	0.934211	0.618785	-0.125000
C29	C	0.934220	0.730444	-0.124996
C30	C	1.078759	0.085784	-0.118080
C31	C	1.166537	0.092759	-0.119785
C32	C	0.939733	0.074738	0.043615
C33	C	0.938022	0.074602	0.145990
N34	N	0.934229	0.819435	-0.124986
C35	C	0.928687	0.073839	-0.293614
C36	C	0.930398	0.073968	-0.395989
C37	C	0.936631	0.074490	0.229129
C38	C	0.934893	0.074344	0.333432
C39	C	0.933514	0.074228	0.416567
C40	C	0.931777	0.074084	0.520877
H41	H	0.323799	0.267073	-0.122854
H42	H	0.694188	0.216986	-0.130086
H43	H	0.694257	-0.106576	-0.130055
H44	H	0.174234	-0.068411	-0.119926
N45	N	0.536032	0.222866	-0.126982
N46	N	0.572848	0.305407	-0.127709
H47	H	0.543101	0.367379	-0.127128
N48	N	0.165626	0.272956	-0.119769
N49	N	0.202437	0.355501	-0.120493
H50	H	0.172685	0.417468	-0.119909
H51	H	0.323853	-0.056485	-0.122827
H52	H	0.544629	-0.118504	-0.127135
