data_functionalizedCrystal
_audit_creation_method	'MofGen! by Chris Wilmer'
_symmetry_space_group_name_H-M	'P1'
_symmetry_Int_Tables_number	1
_symmetry_cell_setting	triclinic
loop_
_symmetry_equiv_pos_as_xyz
  x,y,z
_cell_length_a	12.837943
_cell_length_b	23.532407
_cell_length_c	11.892095
_cell_angle_alpha	93.859970
_cell_angle_beta	85.689438
_cell_angle_gamma	88.838809
loop_
_atom_site_label
_atom_site_type_symbol
_atom_site_fract_x
_atom_site_fract_y
_atom_site_fract_z
O1	O	1.380592	0.144688	-0.094007
O2	O	1.078862	0.137379	-0.094012
O3	O	1.238824	0.058625	-0.093989
O4	O	1.220630	0.223442	-0.094030
O5	O	1.225487	0.065180	0.094017
O6	O	1.065525	0.143934	0.093993
O7	O	1.367255	0.151243	0.093999
Zn8	Zn	1.214272	0.148629	0.123846
Zn9	Zn	1.231845	0.139993	-0.123859
O10	O	1.207293	0.229998	0.093975
C11	C	1.033599	0.138187	-0.000010
C12	C	0.918597	0.130823	-0.000011
C13	C	0.676728	0.219356	-0.000017
C14	C	0.568673	0.212439	-0.000017
C15	C	0.594431	0.110073	-0.000004
C16	C	0.702485	0.116990	-0.000003
C17	C	0.743630	0.171633	-0.000012
C18	C	0.851687	0.178549	-0.000020
C19	C	0.877442	0.076184	0.000002
C20	C	0.769387	0.069267	0.000002
C21	C	1.231692	0.040660	0.000017
C22	C	1.230298	-0.022637	0.000026
C23	C	1.316227	-0.416812	-0.000035
C24	C	1.314934	-0.476287	-0.000043
O25	O	1.394590	-0.508463	-0.000084
N26	N	1.219835	-0.504370	-0.000044
C27	C	1.126025	-0.472975	-0.000048
O28	O	1.045018	-0.502322	-0.000051
C29	C	1.127321	-0.413501	-0.000047
C30	C	1.222424	-0.385421	-0.000035
C31	C	1.411324	-0.388732	-0.000024
C32	C	1.412617	-0.329261	-0.000013
C33	C	1.318813	-0.297871	-0.000013
C34	C	1.223717	-0.325951	-0.000024
C35	C	1.033512	-0.382108	-0.000059
C36	C	1.034816	-0.322631	-0.000060
C37	C	1.129920	-0.294551	-0.000047
C38	C	1.131207	-0.235089	-0.000014
N39	N	1.226306	-0.207006	-0.000013
C40	C	1.320109	-0.238397	-0.000013
C41	C	1.123312	-0.597873	-0.000051
C42	C	1.122015	-0.657345	-0.000043
C43	C	1.310925	-0.660653	-0.000041
C44	C	1.312220	-0.601180	-0.000040
C45	C	1.218411	-0.569790	-0.000050
C46	C	1.322817	-0.113504	0.000011
C47	C	1.324101	-0.054028	0.000026
C48	C	1.135193	-0.050725	0.000018
C49	C	1.133908	-0.110196	0.000008
C50	C	1.227729	-0.141584	0.000001
O51	O	1.051594	-0.202877	0.000022
O52	O	1.401104	-0.209042	-0.000025
C53	C	1.412519	0.150435	-0.000006
C54	C	1.527521	0.157799	-0.000012
C55	C	1.214425	0.247962	-0.000033
C56	C	1.215820	0.311259	-0.000049
N57	N	1.202287	0.154524	0.292898
N58	N	1.243838	0.134094	-0.292912
C59	C	1.327236	0.093046	0.529565
C60	C	1.318866	0.097171	0.647905
C61	C	1.177173	0.166894	0.647922
C62	C	1.185543	0.162770	0.529582
C63	C	1.260578	0.125845	0.470407
C64	C	1.268952	0.121724	0.352064
C65	C	1.127255	0.191444	0.352084
C66	C	1.118885	0.195569	0.470424
H67	H	0.931927	0.037324	-0.000001
H68	H	0.560905	0.065588	0.000097
H69	H	1.490060	-0.306404	-0.000007
H70	H	0.735872	0.024778	0.000022
H71	H	0.710228	0.263848	-0.000026
H72	H	1.044571	-0.680202	-0.000034
C73	C	1.036357	0.236185	0.535522
H74	H	1.040923	0.233948	0.614475
H75	H	0.968648	0.225561	0.516145
H76	H	1.048604	0.274112	0.516117
C77	C	1.428720	-0.023143	0.000033
H78	H	1.484399	-0.050360	0.000019
H79	H	1.428506	0.002268	0.065597
H80	H	1.437803	-0.002292	-0.065535
H81	H	1.373145	0.070462	0.696068
C82	C	1.426016	-0.148023	0.000012
H83	H	1.482829	-0.122774	0.000031
H84	H	1.434104	-0.173573	-0.065550
H85	H	1.424787	-0.169010	0.065582
H86	H	1.388340	0.062984	0.481384
C87	C	1.053927	0.227527	0.287013
H88	H	1.008049	0.250111	0.339209
H89	H	1.014277	0.203093	0.240857
H90	H	1.094227	0.251647	0.240843
C91	C	1.514516	-0.423253	-0.000014
H92	H	1.571327	-0.398003	0.000001
H93	H	1.522606	-0.448806	-0.065571
H94	H	1.513286	-0.444236	0.065561
H95	H	0.514204	0.251300	-0.000019
H96	H	0.956069	-0.404960	-0.000076
C97	C	1.351483	0.081106	0.286973
H98	H	1.389974	0.062159	0.339159
H99	H	1.397667	0.102322	0.240792
H100	H	1.317713	0.053769	0.240825
C101	C	0.896945	0.238653	-0.000026
H102	H	0.841620	0.266084	-0.000018
H103	H	0.943212	0.241198	-0.065587
H104	H	0.933910	0.245761	0.065545
C105	C	1.094641	0.207506	0.713027
H106	H	1.099209	0.205264	0.791979
H107	H	1.026933	0.196878	0.693650
H108	H	1.106880	0.245434	0.693631
C109	C	1.414111	-0.695188	-0.000049
H110	H	1.470939	-0.669950	-0.000038
H111	H	1.422176	-0.720738	-0.065613
H112	H	1.412876	-0.716177	0.065519
H113	H	1.389662	-0.578321	-0.000031
H114	H	0.958423	-0.297076	-0.000069
C115	C	1.020114	-0.563349	-0.000040
H116	H	0.963298	-0.588595	-0.000030
H117	H	1.021331	-0.542359	-0.065598
H118	H	1.012041	-0.537800	0.065533
C119	C	1.029298	-0.141085	-0.000008
H120	H	0.973619	-0.113870	-0.000014
H121	H	1.020205	-0.161944	0.065540
H122	H	1.029527	-0.166490	-0.065591
H123	H	1.058821	-0.025156	0.000021
