data_functionalizedCrystal
_audit_creation_method	'MofGen! by Chris Wilmer'
_symmetry_space_group_name_H-M	'P1'
_symmetry_Int_Tables_number	1
_symmetry_cell_setting	triclinic
loop_
_symmetry_equiv_pos_as_xyz
  x,y,z
_cell_length_a	27.440280
_cell_length_b	20.919309
_cell_length_c	20.919309
_cell_angle_alpha	60.101124
_cell_angle_beta	90.005478
_cell_angle_gamma	62.590440
loop_
_atom_site_label
_atom_site_type_symbol
_atom_site_fract_x
_atom_site_fract_y
_atom_site_fract_z
Zr1	Zr	0.493211	0.692368	-0.106753
O2	O	0.422174	0.817904	-0.209864
O3	O	0.512145	0.561536	-0.071681
O4	O	0.519748	0.684717	-0.204853
O5	O	0.411807	0.702604	0.024417
O6	O	0.599951	0.684706	-0.204840
O7	O	0.414571	0.694723	-0.076692
O8	O	0.586349	0.464357	0.033380
O9	O	0.425408	0.922953	-0.213803
O10	O	0.583509	0.617302	-0.060898
O11	O	0.521592	0.623192	0.014549
O12	O	0.530544	0.768222	-0.142244
O13	O	0.468628	0.774112	-0.066797
Zr14	Zr	0.616716	0.704919	0.054525
Zr15	Zr	0.621124	0.692350	-0.106732
Zr16	Zr	0.488803	0.704937	0.054504
Zr17	Zr	0.498369	0.859908	-0.113036
Zr18	Zr	0.611558	0.537379	0.060808
O19	O	0.597782	0.835751	0.019453
O20	O	0.604050	0.817878	-0.209834
O21	O	0.415907	0.835777	0.019423
O22	O	0.687753	0.579383	0.157636
O23	O	0.694021	0.561510	-0.071651
O24	O	0.505877	0.579409	0.157606
O25	O	0.698120	0.694683	-0.076645
O26	O	0.590179	0.712570	0.152625
O27	O	0.509977	0.712581	0.152612
O28	O	0.695357	0.702564	0.024464
O29	O	0.527082	0.922939	-0.213786
O30	O	0.582845	0.474348	0.161558
O31	O	0.684519	0.474334	0.161575
O32	O	0.688023	0.464343	0.033397
O33	O	0.421904	0.932944	-0.085625
O34	O	0.523578	0.932930	-0.085608
O35	O	0.579383	0.629065	0.090016
O36	O	0.641300	0.623175	0.014569
O37	O	0.588335	0.774095	-0.066777
O38	O	0.526419	0.779985	0.008670
C39	C	0.548512	0.489076	-0.018255
C40	C	0.546323	0.417950	-0.015588
C41	C	0.577612	0.381461	-0.053718
C42	C	0.575556	0.314627	-0.051204
C43	C	0.542207	0.284287	-0.010566
C44	C	0.510916	0.320780	0.027569
C45	C	0.512976	0.387609	0.025059
C46	C	0.534374	0.082658	-0.001015
C47	C	0.532315	0.015826	0.001490
C48	C	0.596956	0.009676	-0.077282
C49	C	0.599010	0.076510	-0.079792
C50	C	0.567722	0.112994	-0.041654
C51	C	0.540103	0.215974	-0.007998
C52	C	0.569829	0.181302	-0.044218
C53	C	0.394964	0.698666	-0.026140
C54	C	0.340662	0.698674	-0.026149
C55	C	0.031608	0.619851	0.016369
C56	C	-0.019411	0.619847	0.016376
O57	O	-0.022287	0.552850	0.052511
N58	N	-0.072575	0.698625	-0.026087
C59	C	-0.074719	0.777413	-0.068552
O60	O	-0.124623	0.844419	-0.104669
C61	C	-0.023701	0.777417	-0.068554
C62	C	0.029462	0.698633	-0.026095
C63	C	0.084768	0.541074	0.058825
C64	C	0.135784	0.541079	0.058817
C65	C	0.133638	0.619861	0.016353
C66	C	0.080477	0.698638	-0.026104
C67	C	-0.025845	0.856204	-0.111015
C68	C	0.025179	0.856201	-0.111013
C69	C	0.078341	0.777418	-0.068554
C70	C	0.129347	0.777424	-0.068576
N71	N	0.182511	0.698646	-0.026114
C72	C	0.184656	0.619865	0.016351
C73	C	-0.181858	0.777399	-0.068544
C74	C	-0.232875	0.777395	-0.068547
C75	C	-0.177564	0.619829	0.016383
C76	C	-0.126546	0.619833	0.016381
C77	C	-0.128694	0.698621	-0.026082
C78	C	0.291790	0.619881	0.016330
C79	C	0.342807	0.619892	0.016315
C80	C	0.287491	0.777458	-0.068611
C81	C	0.236478	0.777447	-0.068600
C82	C	0.238631	0.698651	-0.026124
O83	O	0.132267	0.844387	-0.104690
O84	O	0.234563	0.552870	0.052469
C85	C	0.714963	0.698621	-0.026088
C86	C	0.769266	0.698613	-0.026079
C87	C	0.560478	0.682921	-0.227822
C88	C	0.562349	0.677584	-0.296280
C89	C	0.561415	0.908211	-0.033973
C90	C	0.563605	0.979337	-0.036640
C91	C	0.535582	0.753854	-0.370904
C92	C	0.537348	0.748835	-0.435224
C93	C	0.565877	0.667545	-0.424920
C94	C	0.592648	0.591270	-0.350289
C95	C	0.590885	0.596290	-0.285970
C96	C	0.572586	0.648447	-0.616998
C97	C	0.574345	0.643433	-0.681324
C98	C	0.519046	0.800999	-0.766256
C99	C	0.517283	0.806011	-0.701931
C100	C	0.544056	0.729736	-0.627306
C101	C	0.567682	0.662413	-0.490665
C102	C	0.542255	0.734869	-0.561563
C103	C	0.549450	0.714366	0.175594
C104	C	0.547578	0.719703	0.244052
C105	C	0.708512	0.489053	-0.018229
C106	C	0.760625	0.417920	-0.015553
C107	C	0.542998	0.504798	0.183453
C108	C	0.538937	0.439009	0.254578
C109	C	0.702998	0.504776	0.183479
C110	C	0.753239	0.438979	0.254613
C111	C	0.406929	0.892511	-0.235707
C112	C	0.356688	0.958308	-0.306841
C113	C	0.401415	0.908234	-0.033999
C114	C	0.349303	0.979367	-0.036675
C115	C	0.566929	0.892489	-0.235681
C116	C	0.570990	0.958278	-0.306806
C117	C	0.754931	0.381449	-0.053696
C118	C	0.803893	0.314620	-0.051197
C119	C	0.858547	0.284259	-0.010550
C120	C	0.864239	0.320737	0.027593
C121	C	0.815279	0.387569	0.025089
C122	C	0.567196	0.411180	0.327378
C123	C	0.563379	0.349374	0.394214
C124	C	0.531305	0.315394	0.388247
C125	C	0.503042	0.343229	0.315439
C126	C	0.506857	0.405038	0.248605
C127	C	0.809158	0.405005	0.248636
C128	C	0.856371	0.343191	0.315467
C129	C	0.847663	0.315347	0.388275
C130	C	0.791738	0.349327	0.394251
C131	C	0.744527	0.411145	0.327420
C132	C	0.300769	0.992290	-0.300864
C133	C	0.253557	1.054125	-0.367696
C134	C	0.262265	1.081972	-0.440505
C135	C	0.318190	1.047988	-0.446480
C136	C	0.365401	0.986159	-0.379649
C137	C	0.354997	1.015845	0.001461
C138	C	0.306036	1.082691	-0.001057
C139	C	0.251382	1.113054	-0.041706
C140	C	0.245690	1.076573	-0.079846
C141	C	0.294650	1.009732	-0.077333
C142	C	0.603069	0.992239	-0.300814
C143	C	0.606896	1.054047	-0.367638
C144	C	0.578640	1.081896	-0.440452
C145	C	0.546560	1.047928	-0.446441
C146	C	0.542737	0.986117	-0.379619
H147	H	0.512950	0.191265	0.025091
H148	H	0.293551	0.555718	0.050919
C149	C	0.291176	0.961675	-0.220782
N150	N	0.283946	0.938625	-0.160465
H151	H	0.487495	0.417320	0.056106
H152	H	0.596985	0.206002	-0.077303
H153	H	0.523556	1.070613	-0.505736
H154	H	0.908745	0.296007	0.060687
C155	C	0.642183	1.091404	-0.361031
N156	N	0.668761	1.119541	-0.356054
H157	H	0.505156	-0.008872	0.034582
C158	C	0.185564	1.109971	-0.124545
N159	N	0.140276	1.135121	-0.158205
C160	C	0.821551	0.427672	0.067061
N161	N	0.826279	0.457874	0.098678
H162	H	0.593314	0.438841	0.332251
C163	C	0.489604	0.884896	-0.848346
N164	N	0.467429	0.948091	-0.910178
H165	H	0.208025	1.081785	-0.362816
H166	H	0.586396	0.326719	0.453491
C167	C	0.899603	0.247338	0.461785
N168	N	0.938726	0.196110	0.517149
H169	H	0.601035	0.284916	-0.082252
C170	C	0.210325	1.149980	-0.514014
N171	N	0.171202	1.201200	-0.569378
C172	C	0.683016	0.448507	0.334008
N173	N	0.636687	0.476647	0.338976
C174	C	0.912399	0.210735	-0.007797
N175	N	0.952959	0.155354	-0.005723
H176	H	0.290005	0.980034	-0.108386
H177	H	-0.276159	0.841548	-0.103131
C178	C	0.527120	0.247393	0.461775
N179	N	0.523973	0.196171	0.517159
C180	C	0.022809	0.942876	-0.157730
N181	N	0.021024	1.008159	-0.192919
C182	C	0.602031	0.564541	-0.534917
N183	N	0.624209	0.501339	-0.473089
H184	H	0.816260	0.427667	0.189358
C185	C	0.499976	0.122755	0.040966
N186	N	0.474073	0.152949	0.072600
C187	C	0.177997	0.864111	-0.115310
N188	N	0.133952	0.929390	-0.150486
H189	H	-0.183615	0.841561	-0.103126
H190	H	0.516613	0.958473	-0.384508
C191	C	0.467765	0.305836	0.308889
N192	N	0.441198	0.277665	0.303958
C193	C	0.475774	0.435633	0.168526
N194	N	0.452361	0.458673	0.108212
C195	C	0.917883	0.305816	0.308877
N196	N	0.964213	0.277664	0.303911
C197	C	0.782169	0.318682	0.474347
N198	N	0.774962	0.295592	0.534679
C199	C	0.327759	1.078622	-0.526576
N200	N	0.334965	1.101691	-0.586907
C201	C	0.426911	0.948775	-0.386236
N202	N	0.473240	0.920618	-0.391203
H203	H	0.604766	0.406162	-0.086814
C204	C	0.312311	1.122801	0.040910
N205	N	0.317038	1.153008	0.072522
C206	C	0.197530	1.186578	-0.044459
N207	N	0.156970	1.241954	-0.046527
H208	H	0.386094	0.555734	0.050893
C209	C	0.507876	0.832738	-0.517311
N210	N	0.485668	0.895938	-0.579140
H211	H	0.399494	0.991129	0.034567
C212	C	0.634159	0.961612	-0.220725
N213	N	0.657582	0.938543	-0.160403
H214	H	0.581758	1.132228	-0.494857
H215	H	0.626166	0.101211	-0.112883
H216	H	0.622430	-0.020036	-0.108331
H217	H	-0.175825	0.555681	0.050957
C218	C	0.194258	0.454411	0.105533
N219	N	0.238300	0.389128	0.140725
C220	C	0.087142	0.454400	0.105536
N221	N	0.088935	0.389110	0.140714
C222	C	0.474231	0.287405	0.072272
N223	N	0.446598	0.262270	0.105940
C224	C	-0.068070	0.533167	0.063094
N225	N	-0.024027	0.467886	0.098283
H226	H	0.285755	0.841600	-0.103187
C227	C	-0.084316	0.942874	-0.157722
N228	N	-0.128357	1.008159	-0.192903
H229	H	0.512347	0.820049	-0.379303
H230	H	0.494053	0.872206	-0.710330
H231	H	0.597577	0.577234	-0.672926
C232	C	0.624029	0.501850	-0.338956
N233	N	0.647663	0.434497	-0.330418
H234	H	0.519029	0.801055	-0.569949
C235	C	0.620329	0.512387	-0.203881
N236	N	0.642508	0.449188	-0.142051
H237	H	0.710434	0.406167	-0.086804
H238	H	0.590910	0.596227	-0.482283
C239	C	0.797617	0.274499	-0.093152
N240	N	0.792889	0.244279	-0.124751
