data_functionalizedCrystal
_audit_creation_method	'MofGen! by Chris Wilmer'
_symmetry_space_group_name_H-M	'P1'
_symmetry_Int_Tables_number	1
_symmetry_cell_setting	triclinic
loop_
_symmetry_equiv_pos_as_xyz
  x,y,z
_cell_length_a	12.594517
_cell_length_b	16.625546
_cell_length_c	16.625539
_cell_angle_alpha	90.030397
_cell_angle_beta	89.979100
_cell_angle_gamma	89.977732
loop_
_atom_site_label
_atom_site_type_symbol
_atom_site_fract_x
_atom_site_fract_y
_atom_site_fract_z
Zn1	Zn	1.627215	0.321004	-0.455905
Zn2	Zn	1.960548	0.654338	-0.122571
Zn3	Zn	2.293882	0.987671	0.210762
Zn4	Zn	1.627087	0.455848	-0.321067
Zn5	Zn	1.960421	0.789181	0.012266
Zn6	Zn	2.293754	1.122514	0.345600
Zn7	Zn	1.449220	0.321032	-0.321084
Zn8	Zn	1.782554	0.654366	0.012249
Zn9	Zn	2.115887	0.987699	0.345582
Zn10	Zn	1.449181	0.455798	-0.455856
Zn11	Zn	1.782514	0.789132	-0.122523
Zn12	Zn	2.115848	1.122465	0.210811
O13	O	1.538176	0.388421	-0.388478
O14	O	1.871509	0.721754	-0.055145
O15	O	2.204843	1.055087	0.278189
O16	O	1.776144	0.338901	-0.438031
O17	O	2.109477	0.672234	-0.104698
O18	O	2.442810	1.005567	0.228635
O19	O	1.603456	0.437996	-0.208237
O20	O	1.936789	0.771330	0.125096
O21	O	2.270122	1.104663	0.458430
O22	O	1.472901	0.208196	-0.338996
O23	O	1.806235	0.541529	-0.005663
O24	O	2.139568	0.874863	0.327670
O25	O	1.776050	0.437969	-0.338967
O26	O	2.109383	0.771303	-0.005633
O27	O	2.442717	1.104636	0.327700
O28	O	1.603673	0.208176	-0.438048
O29	O	1.937007	0.541509	-0.104715
O30	O	2.270340	0.874842	0.228618
O31	O	1.472778	0.338948	-0.208250
O32	O	1.806111	0.672281	0.125084
O33	O	2.139444	1.005615	0.458417
O34	O	1.300269	0.338900	-0.338949
O35	O	1.633603	0.672234	-0.005616
O36	O	1.966936	1.005567	0.327717
O37	O	1.472835	0.437885	-0.568695
O38	O	1.806168	0.771219	-0.235362
O39	O	2.139502	1.104552	0.097972
O40	O	1.300241	0.437912	-0.437965
O41	O	1.633574	0.771246	-0.104632
O42	O	1.966907	1.104579	0.228701
O43	O	1.603636	0.338853	-0.568731
O44	O	1.936969	0.672186	-0.235397
O45	O	2.270302	1.005520	0.097936
O46	O	1.603418	0.568673	-0.338919
O47	O	1.936751	0.902007	-0.005586
O48	O	2.270084	1.235340	0.327747
O49	O	1.472711	0.568637	-0.437948
O50	O	1.806044	0.901971	-0.104615
O51	O	2.139378	1.235304	0.228718
C52	C	1.261635	0.388404	-0.388454
C53	C	1.594968	0.721738	-0.055121
C54	C	1.928302	1.055071	0.278212
C55	C	1.143329	0.388417	-0.388463
C56	C	1.476663	0.721750	-0.055130
C57	C	1.809996	1.055084	0.278203
C58	C	1.538075	0.597912	-0.388444
C59	C	1.871409	0.931245	-0.055111
C60	C	2.204742	1.264578	0.278222
C61	C	1.538129	0.687533	-0.388457
C62	C	1.871463	1.020866	-0.055124
C63	C	2.204796	1.354199	0.278210
C64	C	1.538245	0.388361	-0.598787
C65	C	1.871578	0.721694	-0.265454
C66	C	2.204912	1.055027	0.067880
C67	C	1.538275	0.388335	-0.688408
C68	C	1.871608	0.721668	-0.355075
C69	C	2.204941	1.055002	-0.021742
C70	C	1.074061	0.334491	-0.334711
C71	C	1.407394	0.667824	-0.001378
C72	C	1.740728	1.001157	0.331956
C73	C	1.003239	0.408038	-0.314872
C74	C	1.336573	0.741372	0.018461
C75	C	1.669906	1.074705	0.351794
C76	C	1.003352	0.314905	-0.408316
C77	C	1.336685	0.648239	-0.074983
C78	C	1.670019	0.981572	0.258351
C79	C	1.074066	0.462003	-0.368586
C80	C	1.407399	0.795337	-0.035253
C81	C	1.740733	1.128670	0.298081
C82	C	1.074185	0.368821	-0.462064
C83	C	1.407518	0.702154	-0.128731
C84	C	1.740852	1.035487	0.204603
C85	C	1.003395	0.442419	-0.442253
C86	C	1.336729	0.775752	-0.108920
C87	C	1.670062	1.109086	0.224414
C88	C	1.815797	0.388437	-0.388502
C89	C	2.149130	0.721771	-0.055169
C90	C	2.482463	1.055104	0.278164
C91	C	1.934102	0.388445	-0.388513
C92	C	2.267435	0.721778	-0.055179
C93	C	2.600769	1.055111	0.278154
C94	C	1.538306	0.178112	-0.388530
C95	C	1.871639	0.511445	-0.055196
C96	C	2.204973	0.844778	0.278137
C97	C	1.538361	0.088491	-0.388552
C98	C	1.871695	0.421824	-0.055218
C99	C	2.205028	0.755157	0.278115
C100	C	1.538315	1.015708	-0.388541
C101	C	1.871648	1.349042	-0.055208
C102	C	2.204982	1.682375	0.278126
C103	C	1.538260	0.924400	-0.388520
C104	C	1.871593	1.257733	-0.055186
C105	C	2.204927	1.591066	0.278147
C106	C	1.538221	0.851623	-0.388498
C107	C	1.871555	1.184957	-0.055165
C108	C	2.204888	1.518290	0.278168
C109	C	1.538168	0.760309	-0.388478
C110	C	1.871501	1.093642	-0.055145
C111	C	2.204835	1.426976	0.278189
C112	C	1.538324	0.388245	-1.016584
C113	C	1.871657	0.721578	-0.683251
C114	C	2.204990	1.054911	-0.349917
C115	C	1.538307	0.388272	-0.925276
C116	C	1.871640	0.721606	-0.591942
C117	C	2.204974	1.054939	-0.258609
C118	C	1.538300	0.388290	-0.852499
C119	C	1.871633	0.721624	-0.519166
C120	C	2.204966	1.054957	-0.185832
C121	C	1.538282	0.388317	-0.761185
C122	C	1.871615	0.721650	-0.427851
C123	C	2.204949	1.054984	-0.094518
C124	C	1.538168	0.388422	-0.178987
C125	C	1.871502	0.721756	0.154346
C126	C	2.204835	1.055089	0.487679
C127	C	1.538345	0.388221	-0.089367
C128	C	1.871678	0.721554	0.243967
C129	C	2.205012	1.054887	0.577300
H130	H	1.105089	0.288932	-0.289199
H131	H	1.438423	0.622265	0.044135
H132	H	1.771756	0.955598	0.377468
H133	H	0.972234	0.252734	-0.425059
H134	H	1.305568	0.586068	-0.091726
H135	H	1.638901	0.919401	0.241608
H136	H	0.972562	0.488087	-0.487730
H137	H	1.305896	0.821420	-0.154397
H138	H	1.639229	1.154754	0.178936
H139	H	1.105371	0.352206	-0.524266
H140	H	1.438705	0.685539	-0.190933
H141	H	1.772038	1.018873	0.142400
H142	H	1.104999	0.524201	-0.351746
H143	H	1.438332	0.857534	-0.018413
H144	H	1.771665	1.190868	0.314920
H145	H	0.972079	0.424631	-0.252651
H146	H	1.305412	0.757964	0.080682
H147	H	1.638745	1.091297	0.414016
