data_functionalizedCrystal
_audit_creation_method	'MofGen! by Chris Wilmer'
_symmetry_space_group_name_H-M	'P1'
_symmetry_Int_Tables_number	1
_symmetry_cell_setting	triclinic
loop_
_symmetry_equiv_pos_as_xyz
  x,y,z
_cell_length_a	12.837943
_cell_length_b	17.699083
_cell_length_c	11.892295
_cell_angle_alpha	93.866432
_cell_angle_beta	94.314049
_cell_angle_gamma	90.944023
loop_
_atom_site_label
_atom_site_type_symbol
_atom_site_fract_x
_atom_site_fract_y
_atom_site_fract_z
O1	O	1.381601	-0.192378	0.093985
O2	O	1.079820	-0.182660	0.093992
O3	O	1.239236	-0.077957	0.093978
O4	O	1.222185	-0.297081	0.093999
O5	O	1.225935	-0.086641	-0.094023
O6	O	1.066519	-0.191344	-0.094009
O7	O	1.368300	-0.201062	-0.094016
Zn8	Zn	1.215297	-0.197582	-0.123862
Zn9	Zn	1.232823	-0.186140	0.123838
O10	O	1.208884	-0.305766	-0.094002
C11	C	1.231974	-0.054057	-0.000022
C12	C	1.230141	0.030096	-0.000023
C13	C	1.034557	-0.183719	-0.000008
C14	C	0.919505	-0.173928	-0.000006
N15	N	1.203345	-0.205391	-0.292910
C16	C	0.678250	-0.291633	-0.000011
C17	C	0.570147	-0.282437	-0.000010
C18	C	0.595195	-0.146342	-0.000011
C19	C	0.703297	-0.155537	-0.000012
C20	C	0.744821	-0.228185	-0.000010
C21	C	0.852926	-0.237380	-0.000003
C22	C	0.877971	-0.101286	-0.000012
C23	C	0.769868	-0.092090	-0.000011
C24	C	1.413563	-0.200003	-0.000013
C25	C	1.528616	-0.209793	-0.000008
C26	C	1.216146	-0.329665	0.000001
C27	C	1.217980	-0.413818	0.000009
C28	C	1.323715	0.071842	-0.000026
C29	C	1.321987	0.150913	-0.000016
C30	C	1.226684	0.188236	-0.000011
C31	C	1.133103	0.146484	-0.000004
C32	C	1.134833	0.067415	-0.000006
C33	C	1.126126	0.465360	0.000005
C34	C	1.124404	0.544434	0.000004
C35	C	1.313281	0.548858	-0.000005
C36	C	1.315011	0.469789	-0.000007
C37	C	1.221431	0.428044	0.000006
C38	C	1.223306	0.342307	-0.000003
C39	C	1.224808	0.273971	-0.000010
N40	N	1.244784	-0.178326	0.292886
C41	C	1.120063	-0.259855	0.529595
C42	C	1.128433	-0.254375	0.647933
C43	C	1.269889	-0.161882	0.647901
C44	C	1.261519	-0.167362	0.529563
C45	C	1.186604	-0.216351	0.470415
C46	C	1.178240	-0.221835	0.352075
C47	C	1.319690	-0.129338	0.352045
C48	C	1.328060	-0.123858	0.470383
H49	H	0.886732	-0.296534	-0.000004
H50	H	0.932186	-0.049622	-0.000004
H51	H	1.389052	-0.083970	0.518556
H52	H	1.117243	-0.261726	0.303917
H53	H	0.736044	-0.032943	-0.000025
H54	H	1.058635	0.033425	-0.000003
C55	C	1.424917	0.196835	-0.000009
H56	H	1.410242	0.249272	0.000011
H57	H	1.459372	0.181767	-0.065568
H58	H	1.468635	0.187805	0.065560
H59	H	1.059071	-0.299749	0.481435
C60	C	1.392885	-0.081478	0.286945
H61	H	1.377169	-0.091753	0.207995
H62	H	1.463366	-0.093911	0.306345
H63	H	1.383259	-0.029240	0.306319
H64	H	0.712059	-0.350785	-0.000008
H65	H	1.074247	-0.289800	0.696114
H66	H	0.515948	-0.334103	-0.000014
H67	H	1.046792	0.574819	0.000006
H68	H	0.561360	-0.087199	-0.000105
H69	H	1.401322	0.041460	-0.000038
C70	C	1.419844	0.428738	-0.000008
H71	H	1.475328	0.464927	0.000002
H72	H	1.419810	0.394958	-0.065566
H73	H	1.429078	0.401014	0.065562
H74	H	1.389479	0.582856	-0.000010
H75	H	1.049928	0.431380	0.000016
C76	C	1.028269	0.187533	0.000011
H77	H	0.972788	0.151344	0.000025
H78	H	1.019023	0.215262	-0.065546
H79	H	1.028314	0.221309	0.065582
H80	H	1.330876	-0.121991	0.696076
