data_functionalizedCrystal
_audit_creation_method	'MofGen! by Chris Wilmer'
_symmetry_space_group_name_H-M	'P1'
_symmetry_Int_Tables_number	1
_symmetry_cell_setting	triclinic
loop_
_symmetry_equiv_pos_as_xyz
  x,y,z
_cell_length_a	13.032831
_cell_length_b	29.839131
_cell_length_c	29.839126
_cell_angle_alpha	90.021998
_cell_angle_beta	97.195958
_cell_angle_gamma	82.845366
loop_
_atom_site_label
_atom_site_type_symbol
_atom_site_fract_x
_atom_site_fract_y
_atom_site_fract_z
Zn1	Zn	1.597520	-0.266263	0.341065
Zn2	Zn	1.597320	-0.341370	0.265924
Zn3	Zn	1.422748	-0.256708	0.256423
Zn4	Zn	1.422668	-0.331805	0.331508
O5	O	1.510064	-0.299036	0.298730
O6	O	1.743728	-0.284229	0.339074
O7	O	1.574112	-0.330144	0.201794
O8	O	1.446049	-0.195115	0.267675
O9	O	1.743582	-0.339409	0.283868
O10	O	1.574453	-0.202135	0.329861
O11	O	1.445855	-0.267942	0.194814
O12	O	1.276502	-0.258667	0.258408
O13	O	1.445913	-0.323106	0.395646
O14	O	1.276444	-0.313841	0.313572
O15	O	1.574376	-0.274953	0.402667
O16	O	1.574035	-0.402962	0.274601
O17	O	1.445719	-0.395934	0.322784
C18	C	1.238556	-0.284179	0.283922
C19	C	1.122403	-0.277834	0.277597
C20	C	1.070617	-0.302348	0.302031
C21	C	0.950568	-0.295791	0.295495
C22	C	1.509875	-0.415749	0.298698
C23	C	1.509890	-0.465684	0.298704
C24	C	1.577000	-0.778990	0.273690
C25	C	1.577129	-0.966670	0.273714
O26	O	1.634038	-0.994041	0.252420
N27	N	1.510281	-0.986490	0.298776
C28	C	1.443401	-0.959387	0.323836
O29	O	1.386553	-0.980553	0.345157
C30	C	1.443278	-0.771709	0.323814
C31	C	1.510122	-0.751891	0.298747
C32	C	1.643840	-0.759172	0.248625
C33	C	1.643803	-0.712254	0.248617
C34	C	1.576926	-0.685155	0.273674
C35	C	1.510085	-0.704973	0.298739
C36	C	1.376404	-0.744607	0.348876
C37	C	1.376381	-0.697685	0.348869
C38	C	1.443225	-0.677867	0.323802
C39	C	1.443171	-0.630956	0.323788
N40	N	1.510019	-0.611136	0.298726
C41	C	1.576896	-0.638236	0.273669
C42	C	1.443468	-1.057922	0.323845
C43	C	1.443498	-1.104841	0.323850
C44	C	1.577227	-1.112121	0.273729
C45	C	1.577192	-1.065200	0.273721
C46	C	1.510316	-1.038102	0.298783
C47	C	1.576813	-0.539705	0.273654
C48	C	1.576767	-0.492783	0.273647
C49	C	1.443042	-0.485508	0.323770
C50	C	1.443083	-0.532426	0.323776
C51	C	1.509978	-0.559524	0.298716
O52	O	1.386300	-0.603559	0.345074
O53	O	1.633752	-0.617063	0.252359
C54	C	1.577037	-0.825908	0.273697
C55	C	1.510196	-0.845726	0.298762
C56	C	1.443319	-0.818626	0.323819
C57	C	1.510226	-0.892645	0.298767
C58	C	1.577103	-0.919744	0.273710
C59	C	1.643951	-0.899924	0.248648
C60	C	1.643914	-0.853007	0.248640
C61	C	1.376471	-0.838446	0.348881
C62	C	1.376513	-0.885364	0.348887
C63	C	1.443390	-0.912464	0.323830
C64	C	1.782632	-0.313952	0.313597
C65	C	1.898785	-0.320308	0.319932
C66	C	1.510158	-0.299029	0.415914
C67	C	1.510198	-0.299025	0.465850
C68	C	1.510282	-0.181870	0.298774
C69	C	1.510375	-0.131941	0.298793
C70	C	1.510031	-0.299015	0.182006
C71	C	1.510193	-0.298903	0.132081
C72	C	1.576967	-0.331353	0.826075
C73	C	1.576969	-0.331384	0.638402
O74	O	1.633728	-0.358940	0.617229
N75	N	1.510193	-0.299003	0.611295
C76	C	1.443407	-0.266614	0.631110
O77	O	1.386602	-0.239076	0.603748
C78	C	1.443401	-0.266585	0.818782
C79	C	1.510188	-0.298965	0.845886
C80	C	1.643749	-0.363730	0.853179
C81	C	1.643752	-0.363721	0.900094
C82	C	1.576973	-0.331333	0.919906
C83	C	1.510191	-0.298956	0.892802
C84	C	1.376610	-0.234199	0.838595
C85	C	1.376612	-0.234195	0.885516
C86	C	1.443400	-0.266575	0.912621
C87	C	1.443416	-0.266559	0.959529
N88	N	1.510192	-0.298939	0.986635
C89	C	1.576970	-0.331327	0.966824
C90	C	1.443416	-0.266631	0.532580
C91	C	1.443419	-0.266638	0.485662
C92	C	1.576980	-0.331408	0.492957
C93	C	1.576982	-0.331399	0.539876
C94	C	1.510192	-0.299012	0.559686
C95	C	1.576972	-0.331304	1.065350
C96	C	1.576972	-0.331290	1.112269
C97	C	1.443408	-0.266521	1.104970
C98	C	1.443411	-0.266533	1.058055
C99	C	1.510197	-0.298928	1.038246
O100	O	1.386678	-0.239020	0.980732
O101	O	1.633750	-0.358867	0.994192
C102	C	1.576964	-0.331362	0.779159
C103	C	1.510183	-0.298985	0.752055
C104	C	1.443404	-0.266597	0.771866
C105	C	1.510185	-0.298991	0.705137
C106	C	1.576964	-0.331379	0.685326
C107	C	1.643740	-0.363760	0.712432
C108	C	1.643743	-0.363750	0.759347
C109	C	1.376628	-0.234217	0.744760
C110	C	1.376631	-0.234229	0.697845
C111	C	1.443410	-0.266616	0.678033
H112	H	0.906031	-0.269945	0.269738
O113	O	1.069318	-0.246945	0.246918
C114	C	1.035821	-0.168682	0.223417
C115	C	1.095986	-0.203615	0.258200
H116	H	1.057377	-0.133644	0.232520
H117	H	0.948456	-0.168850	0.223624
H118	H	1.057145	-0.177701	0.188332
H119	H	1.074750	-0.194621	0.293300
H120	H	1.183337	-0.203441	0.257953
H121	H	1.115158	-0.328188	0.327790
H122	H	1.698402	-0.921997	0.228244
H123	H	1.698305	-0.781232	0.228220
H124	H	1.321923	-0.675623	0.369279
O125	O	0.951857	-0.351089	0.350726
C126	C	0.985469	-0.374849	0.428921
C127	C	0.925321	-0.339953	0.394097
H128	H	0.964020	-0.365863	0.463993
H129	H	1.072837	-0.374646	0.428759
H130	H	0.964023	-0.409897	0.419782
H131	H	0.946679	-0.304889	0.403211
H132	H	0.837967	-0.340196	0.394265
O133	O	1.641945	-0.362791	1.046186
C134	C	1.774378	-0.427048	1.058384
C135	C	1.700864	-0.391410	1.080145
H136	H	1.822017	-0.450201	1.085829
H137	H	1.829131	-0.409446	1.039429
H138	H	1.726348	-0.447899	1.033776
H139	H	1.748810	-0.370548	1.104773
H140	H	1.646108	-0.409040	1.099072
O141	O	1.642000	-0.362841	0.566161
C142	C	1.819723	-0.394352	0.590245
C143	C	1.746206	-0.358728	0.560452
H144	H	1.903991	-0.391032	0.585646
H145	H	1.801394	-0.429582	0.579996
H146	H	1.808205	-0.388794	0.627178
H147	H	1.757684	-0.364243	0.523511
H148	H	1.764554	-0.323510	0.570739
H149	H	1.631200	-0.476649	0.253233
O150	O	1.708703	-0.833732	0.224236
C151	C	1.722813	-0.781543	0.164362
C152	C	1.649315	-0.803341	0.191960
H153	H	1.674829	-0.756960	0.138267
H154	H	1.770594	-0.808956	0.146424
H155	H	1.777444	-0.762551	0.187992
H156	H	1.594621	-0.822329	0.168361
H157	H	1.601608	-0.775907	0.209904
H158	H	1.631287	-0.561763	0.253250
H159	H	1.698237	-0.696122	0.228207
H160	H	1.322070	-0.901495	0.369298
O161	O	1.642226	-1.046026	0.249364
C162	C	1.774818	-1.058208	0.199627
C163	C	1.701233	-1.079979	0.227200
H164	H	1.822528	-1.085648	0.181692
H165	H	1.829501	-1.039214	0.223228
H166	H	1.726838	-1.033637	0.173519
H167	H	1.749129	-1.104570	0.253309
H168	H	1.646548	-1.098945	0.203570
O169	O	1.642223	-1.138520	0.249459
C170	C	1.701625	-1.214040	0.227312
C171	C	1.627942	-1.184192	0.254801
H172	H	1.690089	-1.250970	0.231614
H173	H	1.785867	-1.209398	0.239865
H174	H	1.683416	-1.203841	0.190076
H175	H	1.646057	-1.194372	0.292042
H176	H	1.543722	-1.188837	0.242211
O177	O	1.378523	-1.124018	0.348237
C178	C	1.245840	-1.111830	0.397931
C179	C	1.319385	-1.090058	0.370337
H180	H	1.197992	-1.084383	0.415798
H181	H	1.293754	-1.136372	0.424085
H182	H	1.191276	-1.130858	0.374307
H183	H	1.373964	-1.071007	0.393926
H184	H	1.271406	-1.065541	0.344178
H185	H	1.389008	-1.035861	0.344254
H186	H	1.389045	-0.240266	0.463598
O187	O	1.311440	-0.763779	0.373269
C188	C	1.178771	-0.751585	0.422969
C189	C	1.252310	-0.729816	0.395369
H190	H	1.130930	-0.724136	0.440836
H191	H	1.226689	-0.776125	0.449123
H192	H	1.124200	-0.770614	0.399349
H193	H	1.306896	-0.710765	0.418954
H194	H	1.204327	-0.705301	0.369210
O195	O	1.708765	-0.395192	0.785630
C196	C	1.886492	-0.426704	0.809704
C197	C	1.812968	-0.391079	0.779915
H198	H	1.970757	-0.423385	0.805101
H199	H	1.868159	-0.461934	0.799455
H200	H	1.874985	-0.421148	0.846638
H201	H	1.824435	-0.396593	0.742973
H202	H	1.831319	-0.355862	0.790202
H203	H	1.388656	-0.548562	0.344189
O204	O	1.378180	-0.459115	0.348101
C205	C	1.318844	-0.383600	0.370282
C206	C	1.392362	-0.413438	0.342712
H207	H	1.330269	-0.346663	0.365927
H208	H	1.337171	-0.393766	0.407524
H209	H	1.234603	-0.388282	0.357779
H210	H	1.476628	-0.408771	0.355176
H211	H	1.373946	-0.403265	0.305475
H212	H	1.322013	-0.816385	0.369286
H213	H	1.631363	-0.357658	1.134336
O214	O	1.378678	-0.235156	0.551879
C215	C	1.364706	-0.173710	0.604079
C216	C	1.438136	-0.209341	0.582266
H217	H	1.412749	-0.152823	0.628643
H218	H	1.310040	-0.191319	0.623077
H219	H	1.316958	-0.150590	0.576635
H220	H	1.485952	-0.232472	0.609681
H221	H	1.492733	-0.191703	0.563256
O222	O	1.708654	-0.395223	0.926352
C223	C	1.841160	-0.459453	0.928620
C224	C	1.767695	-0.423806	0.898834
H225	H	1.888929	-0.482567	0.906385
H226	H	1.793190	-0.480348	0.947943
H227	H	1.895802	-0.441812	0.953592
H228	H	1.713038	-0.441411	0.873836
H229	H	1.815730	-0.402914	0.879543
O230	O	1.708476	-0.395233	0.833911
C231	C	1.722472	-0.456649	0.781679
C232	C	1.649036	-0.421001	0.803467
H233	H	1.674445	-0.477486	0.757054
H234	H	1.770175	-0.479817	0.809096
H235	H	1.777178	-0.439010	0.762732
H236	H	1.594267	-0.438602	0.822411
H237	H	1.601406	-0.397835	0.776030
H238	H	1.631356	-0.357779	0.476819
H239	H	1.322222	-0.207832	0.816534
O240	O	1.311699	-0.202688	0.904688
C241	C	1.179172	-0.138467	0.892493
C242	C	1.252646	-0.174116	0.870725
H243	H	1.131392	-0.115362	0.865044
H244	H	1.227135	-0.117563	0.917074
H245	H	1.124539	-0.156107	0.911480
H246	H	1.307292	-0.156512	0.851715
H247	H	1.204617	-0.195017	0.846169
H248	H	1.389041	-0.240162	1.035986
O249	O	1.378576	-0.235106	1.124291
C250	C	1.319440	-0.206380	1.193347
C251	C	1.392902	-0.241989	1.171522
H252	H	1.331013	-0.211927	1.231537
H253	H	1.235138	-0.209662	1.179546
H254	H	1.337836	-0.171167	1.185111
H255	H	1.374600	-0.277218	1.179749
H256	H	1.477182	-0.238667	1.185324
O257	O	1.708458	-0.395261	0.693153
C258	C	1.722379	-0.456664	0.640903
C259	C	1.648980	-0.421017	0.662713
H260	H	1.674322	-0.477491	0.616280
H261	H	1.770097	-0.479841	0.668309
H262	H	1.777073	-0.439024	0.621951
H263	H	1.594223	-0.438619	0.681662
H264	H	1.601335	-0.397842	0.635287
H265	H	1.322246	-0.207857	0.675780
H266	H	1.322245	-0.207843	0.760885
