data_functionalizedCrystal
_audit_creation_method	'MofGen! by Chris Wilmer'
_symmetry_space_group_name_H-M	'P1'
_symmetry_Int_Tables_number	1
_symmetry_cell_setting	triclinic
loop_
_symmetry_equiv_pos_as_xyz
  x,y,z
_cell_length_a	18.215407
_cell_length_b	21.295417
_cell_length_c	18.215399
_cell_angle_alpha	90.032152
_cell_angle_beta	90.019833
_cell_angle_gamma	90.030955
loop_
_atom_site_label
_atom_site_type_symbol
_atom_site_fract_x
_atom_site_fract_y
_atom_site_fract_z
Zn1	Zn	1.125043	-0.250608	0.416094
Zn2	Zn	1.625043	0.249392	0.916094
Zn3	Zn	1.124940	-0.355879	0.293019
Zn4	Zn	1.624940	0.144121	0.793019
Zn5	Zn	1.001976	-0.250629	0.293042
Zn6	Zn	1.501976	0.249371	0.793042
Zn7	Zn	1.001930	-0.355844	0.416044
Zn8	Zn	1.501930	0.144156	0.916044
O9	O	1.063472	-0.303240	0.354550
O10	O	1.563472	0.196760	0.854550
O11	O	1.228014	-0.264579	0.399780
O12	O	1.728014	0.235421	0.899780
O13	O	1.108604	-0.341941	0.190038
O14	O	1.608604	0.158059	0.690038
O15	O	1.018364	-0.162537	0.309396
O16	O	1.518364	0.337463	0.809396
O17	O	1.227938	-0.341921	0.309357
O18	O	1.727938	0.158079	0.809357
O19	O	1.108781	-0.162521	0.399802
O20	O	1.608781	0.337479	0.899802
O21	O	1.018263	-0.264614	0.190054
O22	O	1.518263	0.235386	0.690054
O23	O	0.898985	-0.264580	0.309347
O24	O	1.398985	0.235420	0.809347
O25	O	1.018285	-0.341861	0.519035
O26	O	1.518285	0.158139	1.019035
O27	O	0.898951	-0.341881	0.399716
O28	O	1.398951	0.158119	0.899716
O29	O	1.108736	-0.264545	0.519072
O30	O	1.608736	0.235455	1.019072
O31	O	1.108559	-0.443964	0.309308
O32	O	1.608559	0.056036	0.809308
O33	O	1.018184	-0.443938	0.399694
O34	O	1.518184	0.056062	0.899694
C35	C	0.872266	-0.303229	0.354529
C36	C	1.372266	0.196771	0.854529
C37	C	0.790467	-0.303240	0.354537
C38	C	1.290467	0.196760	0.854537
C39	C	0.602275	-0.343554	0.401533
C40	C	1.102275	0.156446	0.901533
C41	C	0.525416	-0.343556	0.401542
C42	C	1.025416	0.156444	0.901542
C43	C	0.525422	-0.262938	0.307582
C44	C	1.025422	0.237062	0.807582
C45	C	0.602279	-0.262933	0.307577
C46	C	1.102279	0.237067	0.807577
C47	C	0.640703	-0.303245	0.354552
C48	C	1.140703	0.196755	0.854552
C49	C	0.486987	-0.303251	0.354566
C50	C	0.986987	0.196749	0.854566
C51	C	0.403654	-0.303253	0.354575
C52	C	0.903654	0.196747	0.854575
C53	C	0.724042	-0.303242	0.354543
C54	C	1.224042	0.196758	0.854543
C55	C	1.063376	-0.466792	0.354509
C56	C	1.563376	0.033208	0.854509
C57	C	1.063402	-0.536760	0.354516
C58	C	1.563402	-0.036760	0.854516
C59	C	1.110502	-0.569619	0.307500
C60	C	1.610502	-0.069619	0.807500
C61	C	1.110536	-0.635361	0.307517
C62	C	1.610536	-0.135361	0.807517
C63	C	1.063457	-0.668242	0.354542
C64	C	1.563457	-0.168242	0.854542
C65	C	1.016354	-0.635375	0.401566
C66	C	1.516354	-0.135375	0.901566
C67	C	1.016326	-0.569634	0.401554
C68	C	1.516326	-0.069634	0.901554
N69	N	0.999079	-0.771508	0.360145
N70	N	1.499079	-0.271508	0.860145
N71	N	0.999107	-0.833960	0.360153
N72	N	1.499107	-0.333960	0.860153
C73	C	1.063540	-0.866317	0.354584
C74	C	1.563540	-0.366317	0.854584
N75	N	1.127944	-0.833863	0.348993
N76	N	1.627944	-0.333863	0.848993
N77	N	1.127915	-0.771406	0.348981
N78	N	1.627915	-0.271406	0.848981
C79	C	1.063483	-0.739528	0.354561
C80	C	1.563483	-0.239528	0.854561
C81	C	1.110681	-0.970462	0.307584
C82	C	1.610681	-0.470462	0.807584
C83	C	1.110717	-1.036205	0.307605
C84	C	1.610717	-0.536205	0.807605
C85	C	1.016528	-1.036218	0.401651
C86	C	1.516528	-0.536218	0.901651
C87	C	1.016499	-0.970475	0.401633
C88	C	1.516499	-0.470475	0.901633
C89	C	1.063575	-0.937601	0.354595
C90	C	1.563575	-0.437601	0.854595
C91	C	1.255425	-0.303251	0.354571
C92	C	1.755425	0.196749	0.854571
C93	C	1.337224	-0.303256	0.354581
C94	C	1.837224	0.196744	0.854581
C95	C	1.063517	-0.303197	0.546503
C96	C	1.563517	0.196803	1.046503
C97	C	1.063536	-0.303178	0.628302
C98	C	1.563536	0.196822	1.128302
C99	C	1.063589	-0.139050	0.354607
C100	C	1.563589	0.360950	0.854607
C101	C	1.063639	-0.069082	0.354631
C102	C	1.563639	0.430918	0.854631
C103	C	1.063470	-0.303238	0.163344
C104	C	1.563470	0.196762	0.663344
C105	C	1.063593	-0.303079	0.081545
C106	C	1.563593	0.196921	0.581545
C107	C	1.110651	-0.262882	0.816516
C108	C	1.610651	0.237118	1.316516
C109	C	1.110660	-0.262863	0.893375
C110	C	1.610660	0.237137	1.393375
C111	C	1.016473	-0.343377	0.893325
C112	C	1.516473	0.156623	1.393325
C113	C	1.016461	-0.343392	0.816468
C114	C	1.516461	0.156608	1.316468
C115	C	1.063554	-0.303145	0.778065
C116	C	1.563554	0.196855	1.278065
C117	C	1.063575	-0.303112	0.931781
C118	C	1.563575	0.196888	1.431781
C119	C	1.063584	-0.303093	1.015115
C120	C	1.563584	0.196907	1.515115
C121	C	1.063544	-0.303164	0.694726
C122	C	1.563544	0.196836	1.194726
H123	H	0.494127	-0.230118	0.269336
H124	H	0.994127	0.269882	0.769336
H125	H	0.978104	-0.376179	0.785160
H126	H	1.478104	0.123821	1.285160
H127	H	0.633557	-0.376377	0.439785
H128	H	1.133557	0.123623	0.939785
H129	H	1.148995	-0.230109	0.785251
H130	H	1.648995	0.269891	1.285251
C131	C	1.162469	-0.218577	0.935668
C132	C	1.662469	0.281423	1.435668
H133	H	1.190516	-0.194615	0.901787
H134	H	1.690516	0.305385	1.401787
H135	H	1.134344	-0.191140	0.965655
H136	H	1.634344	0.308860	1.465655
H137	H	1.194524	-0.242657	0.965646
H138	H	1.694524	0.257343	1.465646
C139	C	0.644554	-0.218591	0.255894
C140	C	1.144554	0.281409	0.755894
H141	H	0.610663	-0.194590	0.227911
H142	H	1.110663	0.305410	0.727911
H143	H	0.674563	-0.191193	0.284103
H144	H	1.174563	0.308807	0.784103
H145	H	0.674509	-0.242640	0.223774
H146	H	1.174509	0.257360	0.723774
C147	C	0.964679	-0.934329	0.453341
C148	C	1.464679	-0.434329	0.953341
H149	H	0.936640	-0.963325	0.481346
H150	H	1.436640	-0.463325	0.981346
H151	H	0.992798	-0.908639	0.485428
H152	H	1.492798	-0.408639	0.985428
H153	H	0.932617	-0.908728	0.425147
H154	H	1.432617	-0.408728	0.925147
H155	H	0.978133	-0.376146	0.924602
H156	H	1.478133	0.123854	1.424602
H157	H	0.494130	-0.376379	0.439801
H158	H	0.994130	0.123621	0.939801
H159	H	1.148835	-0.542855	0.269202
H160	H	1.648835	-0.042855	0.769202
H161	H	1.148893	-0.662121	0.269231
H162	H	1.648893	-0.162121	0.769231
C163	C	0.964568	-0.671541	0.453290
C164	C	1.464568	-0.171541	0.953290
H165	H	0.971324	-0.715401	0.446559
H166	H	1.471324	-0.215401	0.946559
H167	H	0.975304	-0.660730	0.502745
H168	H	1.475304	-0.160730	1.002745
H169	H	0.915120	-0.660811	0.442468
H170	H	1.415120	-0.160811	0.942468
C171	C	0.964510	-0.533487	0.453269
C172	C	1.464510	-0.033487	0.953269
H173	H	0.936473	-0.562483	0.481277
H174	H	1.436473	-0.062483	0.981277
H175	H	0.992631	-0.507797	0.485353
H176	H	1.492631	-0.007797	0.985353
H177	H	0.932446	-0.507888	0.425076
H178	H	1.432446	-0.007888	0.925076
H179	H	1.149076	-1.062958	0.269321
H180	H	1.649076	-0.562958	0.769321
C181	C	1.162469	-0.934297	0.255854
C182	C	1.662469	-0.434297	0.755854
H183	H	1.190534	-0.963286	0.227862
H184	H	1.690534	-0.463286	0.727862
H185	H	1.134327	-0.908694	0.223755
H186	H	1.634327	-0.408694	0.723755
H187	H	1.194507	-0.908609	0.284036
H188	H	1.694507	-0.408609	0.784036
H189	H	0.978199	-1.062989	0.439942
H190	H	1.478199	-0.562989	0.939942
