data_functionalizedCrystal
_audit_creation_method	'MofGen! by Chris Wilmer'
_symmetry_space_group_name_H-M	'P1'
_symmetry_Int_Tables_number	1
_symmetry_cell_setting	triclinic
loop_
_symmetry_equiv_pos_as_xyz
  x,y,z
_cell_length_a	19.121102
_cell_length_b	12.759399
_cell_length_c	12.759393
_cell_angle_alpha	89.969094
_cell_angle_beta	92.461703
_cell_angle_gamma	92.430450
loop_
_atom_site_label
_atom_site_type_symbol
_atom_site_fract_x
_atom_site_fract_y
_atom_site_fract_z
Zn1	Zn	1.073807	0.486843	0.662511
Zn2	Zn	1.073733	0.662554	0.486825
Zn3	Zn	0.956348	0.479387	0.479354
Zn4	Zn	0.956342	0.654973	0.654974
O5	O	1.015058	0.570939	0.570916
O6	O	1.172082	0.516444	0.645486
O7	O	1.058134	0.638309	0.338811
O8	O	0.971963	0.333357	0.503677
O9	O	1.172028	0.645538	0.516411
O10	O	1.058259	0.338835	0.638242
O11	O	0.971892	0.503737	0.333322
O12	O	0.858062	0.496386	0.496369
O13	O	0.971952	0.632618	0.802997
O14	O	0.858058	0.625389	0.625397
O15	O	1.058253	0.509093	0.808534
O16	O	1.058128	0.808567	0.509103
O17	O	0.971881	0.802998	0.632641
C18	C	0.832576	0.559257	0.559255
C19	C	0.754509	0.554284	0.554292
C20	C	1.015015	0.843904	0.570889
C21	C	1.015060	0.960683	0.570917
C22	C	1.015110	0.570842	0.844953
C23	C	1.015133	0.570800	0.961731
C24	C	0.717849	0.619214	0.619032
C25	C	0.644497	0.614528	0.614373
C26	C	0.607807	0.544916	0.544968
C27	C	0.644472	0.479980	0.480225
C28	C	0.717822	0.484661	0.484890
C29	C	0.386334	0.527411	0.527533
C30	C	0.312979	0.522737	0.522871
C31	C	0.313009	0.657284	0.657021
C32	C	0.386361	0.661964	0.661675
C33	C	0.423020	0.597023	0.596936
C34	C	0.532829	0.540127	0.540202
C35	C	0.497996	0.601808	0.601708
C36	C	1.198252	0.582668	0.582623
C37	C	1.276319	0.587666	0.587611
C38	C	1.015120	0.296910	0.570967
C39	C	1.015147	0.180135	0.570989
C40	C	1.060020	1.018414	0.506670
C41	C	1.060065	1.128141	0.506708
C42	C	0.970185	1.122397	0.635243
C43	C	0.970144	1.012672	0.635209
C44	C	1.015046	0.570963	0.297948
C45	C	1.015159	0.570717	0.181179
C46	C	1.060073	0.506470	1.019478
C47	C	1.060085	0.506426	1.129203
C48	C	0.970214	0.635050	1.123424
C49	C	0.970199	0.635088	1.013701
H50	H	0.614652	0.667402	0.667091
H51	H	0.933614	1.164740	0.687586
C52	C	0.920684	0.949164	0.705883
H53	H	0.893932	0.995840	0.744167
H54	H	0.947521	0.908006	0.753392
H55	H	0.890078	0.904477	0.663681
C56	C	0.758148	0.413237	0.413678
H57	H	0.725792	0.371113	0.371669
H58	H	0.786780	0.369337	0.455771
H59	H	0.786742	0.455198	0.369644
C60	C	1.109488	0.435743	0.962313
H61	H	1.136248	0.397416	1.012424
H62	H	1.140077	0.477899	0.921458
H63	H	1.082618	0.388259	0.917803
H64	H	1.096678	0.454040	1.176216
C65	C	0.272617	0.446171	0.446515
H66	H	0.223682	0.452699	0.452999
H67	H	0.284644	0.376362	0.462768
H68	H	0.284617	0.462242	0.376660
H69	H	0.933633	0.687393	1.165751
H70	H	0.416230	0.718651	0.718190
C71	C	0.920767	0.705861	0.950175
H72	H	0.894017	0.744156	0.996840
H73	H	0.890169	0.663731	0.905417
H74	H	0.947626	0.753375	0.909088
H75	H	0.502947	0.483452	0.483690
H76	H	0.283154	0.710154	0.709729
C77	C	0.758202	0.695786	0.695380
H78	H	0.725861	0.733776	0.733276
H79	H	0.786798	0.743341	0.656935
H80	H	0.786835	0.657469	0.743051
H81	H	0.614592	0.423296	0.423719
C82	C	0.426650	0.455997	0.456305
H83	H	0.394291	0.413883	0.414292
H84	H	0.455287	0.412089	0.498380
H85	H	0.455239	0.497972	0.412275
C86	C	1.109433	0.961229	0.435962
H87	H	1.136220	1.011331	0.397713
H88	H	1.082569	0.916779	0.388422
H89	H	1.140008	0.920313	0.478140
C90	C	1.109518	1.191639	0.436031
H91	H	1.136257	1.144958	0.397734
H92	H	1.140126	1.236327	0.478220
H93	H	1.082676	1.232796	0.388518
C94	C	0.538350	0.678377	0.678051
H95	H	0.506014	0.716378	0.715947
H96	H	0.566947	0.725924	0.639596
H97	H	0.566983	0.640061	0.725722
