data_functionalizedCrystal
_audit_creation_method	'MofGen! by Chris Wilmer'
_symmetry_space_group_name_H-M	'P1'
_symmetry_Int_Tables_number	1
_symmetry_cell_setting	triclinic
loop_
_symmetry_equiv_pos_as_xyz
  x,y,z
_cell_length_a	21.395362
_cell_length_b	12.827892
_cell_length_c	21.395355
_cell_angle_alpha	89.986862
_cell_angle_beta	89.956060
_cell_angle_gamma	90.031272
loop_
_atom_site_label
_atom_site_type_symbol
_atom_site_fract_x
_atom_site_fract_y
_atom_site_fract_z
Zn1	Zn	0.957926	-0.415711	-0.354609
Zn2	Zn	1.457926	0.084289	0.145391
Zn3	Zn	0.957857	-0.590438	-0.249841
Zn4	Zn	1.457857	-0.090438	0.250159
Zn5	Zn	0.853141	-0.415760	-0.249810
Zn6	Zn	1.353141	0.084240	0.250190
Zn7	Zn	0.853138	-0.590459	-0.354546
Zn8	Zn	1.353138	-0.090459	0.145454
O9	O	0.905516	-0.503092	-0.302202
O10	O	1.405516	-0.003092	0.197798
O11	O	1.045595	-0.438860	-0.340751
O12	O	1.545595	0.061140	0.159249
O13	O	0.943938	-0.567278	-0.162159
O14	O	1.443938	-0.067278	0.337841
O15	O	0.867071	-0.269517	-0.263725
O16	O	1.367071	0.230483	0.236275
O17	O	1.045544	-0.567231	-0.263778
O18	O	1.545544	-0.067231	0.236222
O19	O	0.944056	-0.269482	-0.340721
O20	O	1.444056	0.230518	0.159279
O21	O	0.867004	-0.438943	-0.162137
O22	O	1.367004	0.061057	0.337863
O23	O	0.765463	-0.438963	-0.263664
O24	O	1.265463	0.061037	0.236336
O25	O	0.867067	-0.567267	-0.442232
O26	O	1.367067	-0.067267	0.057768
O27	O	0.765461	-0.567314	-0.340613
O28	O	1.265461	-0.067314	0.159387
O29	O	0.944054	-0.438881	-0.442279
O30	O	1.444054	0.061119	0.057721
O31	O	0.943935	-0.736677	-0.263717
O32	O	1.443935	-0.236677	0.236283
O33	O	0.866999	-0.736692	-0.340643
O34	O	1.366999	-0.236692	0.159357
C35	C	0.742728	-0.503147	-0.302129
C36	C	1.242728	-0.003147	0.197871
C37	C	0.673087	-0.503196	-0.302113
C38	C	1.173087	-0.003196	0.197887
C39	C	0.640389	-0.570117	-0.342120
C40	C	1.140389	-0.070117	0.157880
C41	C	0.574953	-0.570091	-0.342148
C42	C	1.074953	-0.070091	0.157852
C43	C	0.542218	-0.503156	-0.302157
C44	C	1.042218	-0.003156	0.197843
C45	C	0.574924	-0.436222	-0.262147
C46	C	1.074924	0.063778	0.237853
C47	C	0.640358	-0.436242	-0.262125
C48	C	1.140358	0.063758	0.237875
C49	C	0.438492	-0.494737	-0.245752
C50	C	0.938492	0.005263	0.254248
C51	C	0.373059	-0.494724	-0.245773
C52	C	0.873059	0.005276	0.254227
C53	C	0.340398	-0.503088	-0.302227
C54	C	0.840398	-0.003088	0.197773
C55	C	0.373177	-0.511486	-0.358661
C56	C	0.873177	-0.011486	0.141339
C57	C	0.438611	-0.511506	-0.358638
C58	C	0.938611	-0.011506	0.141362
C59	C	0.471266	-0.503126	-0.302177
C60	C	0.971266	-0.003126	0.197823
C61	C	0.236747	-0.569984	-0.342268
C62	C	0.736747	-0.069984	0.157732
C63	C	0.171311	-0.569951	-0.342297
C64	C	0.671311	-0.069951	0.157703
C65	C	0.171283	-0.436087	-0.262290
C66	C	0.671283	0.063913	0.237710
C67	C	0.236718	-0.436115	-0.262267
C68	C	0.736718	0.063885	0.237733
C69	C	0.269446	-0.503069	-0.302255
C70	C	0.769446	-0.003069	0.197745
C71	C	0.905476	-0.774602	-0.302191
C72	C	1.405476	-0.274602	0.197809
C73	C	0.905517	-0.890755	-0.302207
C74	C	1.405517	-0.390755	0.197793
C75	C	0.943633	-0.942497	-0.264184
C76	C	1.443633	-0.442497	0.235816
C77	C	0.943675	-1.062548	-0.264200
C78	C	1.443675	-0.562548	0.235800
C79	C	1.068939	-0.503037	-0.302275
C80	C	1.568939	-0.003037	0.197725
C81	C	1.138580	-0.503014	-0.302306
C82	C	1.638580	-0.003014	0.197694
C83	C	0.905568	-0.503071	-0.465625
C84	C	1.405568	-0.003071	0.034375
C85	C	0.905590	-0.503062	-0.535266
C86	C	1.405590	-0.003062	-0.035266
C87	C	0.905572	-0.230522	-0.302227
C88	C	1.405572	0.269478	0.197773
C89	C	0.905596	-0.114369	-0.302237
C90	C	1.405596	0.385631	0.197763
C91	C	0.945675	-0.436208	-0.568005
C92	C	1.445675	0.063792	-0.068005
C93	C	0.945674	-0.436163	-0.633440
C94	C	1.445674	0.063837	-0.133440
C95	C	0.905595	-0.502991	-0.666135
C96	C	1.405595	-0.002991	-0.166135
C97	C	0.865501	-0.569849	-0.633389
C98	C	1.365501	-0.069849	-0.133389
C99	C	0.865499	-0.569885	-0.567954
C100	C	1.365499	-0.069885	-0.067954
C101	C	0.900634	-0.597087	-0.769804
C102	C	1.400634	-0.097087	-0.269804
C103	C	0.900641	-0.597053	-0.835237
C104	C	1.400641	-0.097053	-0.335237
C105	C	0.905598	-0.502880	-0.867956
C106	C	1.405598	-0.002880	-0.367956
C107	C	0.910563	-0.408738	-0.835233
C108	C	1.410563	0.091262	-0.335233
C109	C	0.910560	-0.408774	-0.769799
C110	C	1.410560	0.091226	-0.269799
C111	C	0.905592	-0.502959	-0.737087
C112	C	1.405592	-0.002959	-0.237087
C113	C	0.945685	-0.435972	-0.971646
C114	C	1.445685	0.064028	-0.471646
C115	C	0.945680	-0.435925	-1.037083
C116	C	1.445680	0.064075	-0.537083
C117	C	0.865510	-0.569621	-1.037030
C118	C	1.365510	-0.069621	-0.537030
C119	C	0.865512	-0.569658	-0.971595
C120	C	1.365512	-0.069658	-0.471595
C121	C	0.905603	-0.502835	-0.938907
C122	C	1.405603	-0.002835	-0.438907
C123	C	0.905500	-0.503038	-0.139414
C124	C	1.405500	-0.003038	0.360586
C125	C	0.905599	-0.502752	-0.069773
C126	C	1.405599	-0.002752	0.430227
H127	H	0.548267	-0.381721	-0.229588
H128	H	1.048267	0.118279	0.270412
Br129	Br	0.328580	-0.483330	-0.169185
Br130	Br	0.828580	0.016670	0.330815
Br131	Br	1.000096	-0.345203	-1.081515
Br132	Br	1.500096	0.154797	-0.581515
H133	H	0.832866	-0.624257	-0.660013
H134	H	1.332866	-0.124257	-0.160013
H135	H	0.872919	-0.935333	-0.334774
H136	H	1.372919	-0.435333	0.165226
H137	H	0.548326	-0.624586	-0.374729
H138	H	1.048326	-0.124586	0.125271
Br139	Br	0.483096	-0.522898	-0.435223
Br140	Br	0.983096	-0.022898	0.064777
Br141	Br	0.811092	-0.660620	-0.523521
Br142	Br	1.311092	-0.160620	-0.023521
Br143	Br	0.126864	-0.345234	-0.208022
Br144	Br	0.626864	0.154766	0.291978
H145	H	0.666980	-0.381744	-0.229546
H146	H	1.166980	0.118256	0.270454
H147	H	0.346585	-0.518294	-0.404631
H148	H	0.846585	-0.018294	0.095369
Br149	Br	0.281168	-0.660843	-0.396538
Br150	Br	0.781168	-0.160843	0.103462
H151	H	0.832870	-0.624022	-1.063650
H152	H	1.332870	-0.124022	-0.563650
H153	H	0.976236	-0.897922	-0.231621
H154	H	1.476236	-0.397922	0.268379
Br155	Br	0.998063	-1.136705	-0.209934
Br156	Br	1.498063	-0.636705	0.290066
Br157	Br	0.851196	-1.040218	-0.356494
Br158	Br	1.351196	-0.540218	0.143506
H159	H	0.978320	-0.381794	-0.541394
H160	H	1.478320	0.118206	-0.041394
H161	H	0.465080	-0.487922	-0.199777
H162	H	0.965080	0.012078	0.300223
H163	H	0.978315	-0.381717	-0.660101
H164	H	1.478315	0.118283	-0.160101
H165	H	0.914601	-0.332121	-0.743159
H166	H	1.414601	0.167879	-0.243159
Br167	Br	0.684803	-0.660980	-0.396391
Br168	Br	1.184803	-0.160980	0.103609
H169	H	0.144689	-0.624444	-0.374879
H170	H	0.644689	-0.124444	0.125121
Br171	Br	0.893923	-0.724907	-0.725407
Br172	Br	1.393923	-0.224907	-0.225407
H173	H	0.263341	-0.381626	-0.229685
H174	H	0.763341	0.118374	0.270315
Br175	Br	0.917297	-0.280923	-0.879628
Br176	Br	1.417297	0.219077	-0.379628
Br177	Br	1.000090	-0.345283	-0.927280
Br178	Br	1.500090	0.154717	-0.427280
H179	H	0.832874	-0.624104	-0.944939
H180	H	1.332874	-0.124104	-0.444939
Br181	Br	0.893912	-0.724815	-0.879639
Br182	Br	1.393912	-0.224815	-0.379639
