data_functionalizedCrystal
_audit_creation_method	'MofGen! by Chris Wilmer'
_symmetry_space_group_name_H-M	'P1'
_symmetry_Int_Tables_number	1
_symmetry_cell_setting	triclinic
loop_
_symmetry_equiv_pos_as_xyz
  x,y,z
_cell_length_a	10.967819
_cell_length_b	27.732048
_cell_length_c	10.065918
_cell_angle_alpha	99.886927
_cell_angle_beta	111.758108
_cell_angle_gamma	83.698904
loop_
_atom_site_label
_atom_site_type_symbol
_atom_site_fract_x
_atom_site_fract_y
_atom_site_fract_z
O1	O	1.728898	0.096958	0.520150
O2	O	1.352804	0.098486	0.431697
O3	O	1.552528	0.027548	0.478644
O4	O	1.529174	0.167896	0.473203
O5	O	1.518874	0.014379	0.243735
O6	O	1.319150	0.085317	0.196788
O7	O	1.695244	0.083789	0.285241
Zn8	Zn	1.501854	0.082462	0.203718
Zn9	Zn	1.546195	0.099812	0.513220
O10	O	1.495520	0.154727	0.238295
C11	C	1.287876	0.090795	0.302929
C12	C	1.144551	0.087491	0.269220
C13	C	0.949960	0.089433	0.341067
C14	C	1.098095	0.092843	0.375899
C15	C	1.535210	0.002946	0.361070
C16	C	1.533732	-0.050737	0.360711
C17	C	1.642472	-0.387462	0.386356
C18	C	1.636996	-0.589225	0.385087
O19	O	1.736431	-0.618570	0.408532
N20	N	1.518566	-0.610622	0.357232
C21	C	1.401497	-0.581574	0.329702
O22	O	1.300641	-0.604402	0.305995
C23	C	1.406976	-0.379811	0.330981
C24	C	1.525412	-0.358418	0.358823
C25	C	1.760899	-0.366069	0.414197
C26	C	1.762265	-0.315631	0.414507
C27	C	1.645205	-0.286587	0.386974
C28	C	1.526778	-0.307980	0.359133
C29	C	1.289910	-0.350763	0.303461
C30	C	1.291291	-0.300319	0.303787
C31	C	1.409727	-0.278926	0.331629
C32	C	1.411085	-0.228498	0.331909
N33	N	1.529515	-0.207102	0.359764
C34	C	1.646576	-0.236146	0.387297
C35	C	1.398629	-0.687503	0.329029
C36	C	1.397258	-0.737944	0.328707
C37	C	1.632758	-0.745592	0.384095
C38	C	1.634126	-0.695151	0.384407
C39	C	1.517059	-0.666106	0.356884
C40	C	1.649436	-0.130224	0.387943
C41	C	1.650792	-0.079782	0.388244
C42	C	1.415294	-0.072137	0.332863
C43	C	1.413937	-0.122575	0.332555
C44	C	1.531019	-0.151617	0.360102
O45	O	1.311706	-0.199124	0.308492
O46	O	1.747421	-0.213307	0.411031
C47	C	1.641105	-0.437899	0.386047
C48	C	1.522679	-0.459293	0.358205
C49	C	1.405619	-0.430248	0.330673
C50	C	1.521308	-0.509733	0.357883
C51	C	1.638368	-0.538778	0.385415
C52	C	1.756799	-0.517381	0.413270
C53	C	1.758165	-0.466944	0.413579
C54	C	1.287188	-0.451645	0.302818
C55	C	1.285831	-0.502083	0.302509
C56	C	1.402891	-0.531127	0.330042
C57	C	1.760173	0.091480	0.414012
C58	C	1.903499	0.094784	0.447731
C59	C	1.512839	0.179328	0.355871
C60	C	1.514318	0.233012	0.356239
N61	N	1.471602	0.070620	-0.007507
C62	C	1.535660	0.095692	-0.060211
C63	C	1.512389	0.086574	-0.222854
N64	N	1.576457	0.111650	0.724447
H65	H	0.880068	0.082330	0.223960
H66	H	1.648537	0.139867	-0.200270
H67	H	1.607738	0.123906	0.015078
C68	C	1.890941	-0.292420	0.445054
C69	C	1.978934	-0.300211	0.582554
C70	C	2.097484	-0.278834	0.610758
H71	H	1.927532	-0.306837	0.374598
H72	H	1.875078	-0.258211	0.441395
H73	H	1.994798	-0.334412	0.586201
H74	H	1.942385	-0.285793	0.653038
H75	H	2.081622	-0.244626	0.607099
H76	H	2.134062	-0.293253	0.540294
H77	H	2.157197	-0.284113	0.704058
C78	C	1.762652	-0.671848	0.414848
C79	C	1.787623	-0.636326	0.537490
C80	C	1.906006	-0.614848	0.565570
H81	H	1.832288	-0.696318	0.431294
H82	H	1.756370	-0.656895	0.334256
H83	H	1.793915	-0.651279	0.618063
H84	H	1.718019	-0.611847	0.521076
H85	H	1.899724	-0.599895	0.484978
H86	H	1.975632	-0.639321	0.582010
H87	H	1.922958	-0.590741	0.648776
C88	C	1.191393	0.102392	0.531989
C89	C	1.254446	0.145888	0.553937
C90	C	1.340415	0.154697	0.697699
H91	H	1.143192	0.105342	0.594545
H92	H	1.255160	0.075914	0.552056
H93	H	1.190689	0.172360	0.533886
H94	H	1.302672	0.142949	0.491416
H95	H	1.404182	0.128218	0.717767
H96	H	1.292203	0.157644	0.760243
H97	H	1.383216	0.184206	0.712607
H98	H	1.074664	0.080388	0.152105
C99	C	0.996801	0.104332	0.603812
C100	C	1.059855	0.147828	0.625761
C101	C	1.145823	0.156637	0.769523
H102	H	0.948600	0.107282	0.666368
H103	H	1.060568	0.077854	0.623880
H104	H	0.996097	0.174300	0.605709
H105	H	1.108081	0.144889	0.563240
H106	H	1.209590	0.130159	0.789590
H107	H	1.097612	0.159585	0.832067
H108	H	1.188624	0.186147	0.784431
H109	H	1.747240	-0.062367	0.410913
H110	H	1.399533	0.042403	-0.082793
H111	H	1.744777	-0.153864	0.410379
H112	H	1.728073	-0.769248	0.406512
C113	C	1.888008	-0.397604	0.444371
C114	C	1.911461	-0.419997	0.566684
C115	C	2.028558	-0.449043	0.594526
H116	H	1.880780	-0.422074	0.363604
H117	H	1.958771	-0.377643	0.461082
H118	H	1.840717	-0.439957	0.549964
H119	H	1.918715	-0.395540	0.647476
H120	H	2.099321	-0.429082	0.611237
H121	H	2.021319	-0.473509	0.513751
H122	H	2.044493	-0.464236	0.677524
C123	C	1.268544	-0.761072	0.298502
C124	C	1.166336	-0.724832	0.274502
C125	C	1.047746	-0.746116	0.246701
H126	H	1.251187	-0.785181	0.215286
H127	H	1.274782	-0.775978	0.379161
H128	H	1.160096	-0.709934	0.193851
H129	H	1.183648	-0.700721	0.357702
H130	H	1.053984	-0.761022	0.327359
H131	H	1.030403	-0.770224	0.163487
H132	H	0.978386	-0.721530	0.230426
C133	C	1.271596	-0.655934	0.299435
C134	C	1.282782	-0.619979	0.418865
C135	C	1.165778	-0.590897	0.391657
H136	H	1.255379	-0.640645	0.216556
H137	H	1.200852	-0.675886	0.282867
H138	H	1.353505	-0.600030	0.435416
H139	H	1.298979	-0.635254	0.501759
H140	H	1.095034	-0.610849	0.375089
H141	H	1.149571	-0.575611	0.308775
H142	H	1.173348	-0.566501	0.472690
C143	C	1.161197	-0.373884	0.273280
C144	C	1.058998	-0.337641	0.249288
C145	C	0.940404	-0.358919	0.221501
H146	H	1.143829	-0.397994	0.190065
H147	H	1.167437	-0.388789	0.353943
H148	H	1.052756	-0.322744	0.168633
H149	H	1.076322	-0.313529	0.332487
H150	H	0.946645	-0.373824	0.302163
H151	H	0.923050	-0.383028	0.138287
H152	H	0.871051	-0.334331	0.205232
H153	H	1.195959	-0.276673	0.281376
H154	H	1.854608	-0.449530	0.436251
H155	H	1.317491	-0.139996	0.309844
H156	H	1.852112	-0.541038	0.435681
H157	H	1.319986	-0.048481	0.310442
H158	H	1.189377	-0.519497	0.279823
H159	H	1.191862	-0.428002	0.280400
H160	H	1.440316	0.058356	-0.298137
