data_functionalizedCrystal
_audit_creation_method	'MofGen! by Chris Wilmer'
_symmetry_space_group_name_H-M	'P1'
_symmetry_Int_Tables_number	1
_symmetry_cell_setting	triclinic
loop_
_symmetry_equiv_pos_as_xyz
  x,y,z
_cell_length_a	15.712078
_cell_length_b	18.266242
_cell_length_c	19.188929
_cell_angle_alpha	90.026921
_cell_angle_beta	101.362960
_cell_angle_gamma	90.017389
loop_
_atom_site_label
_atom_site_type_symbol
_atom_site_fract_x
_atom_site_fract_y
_atom_site_fract_z
O1	O	1.145459	0.061208	0.382504
O2	O	1.645459	0.561208	0.882504
O3	O	0.894004	0.061150	0.329405
O4	O	1.394004	0.561150	0.829405
O5	O	1.026988	0.061136	0.256170
O6	O	1.526988	0.561136	0.756170
O7	O	1.012475	0.061223	0.455740
O8	O	1.512475	0.561223	0.955740
O9	O	1.026965	-0.060626	0.256161
O10	O	1.526965	0.439374	0.756161
O11	O	0.893981	-0.060612	0.329397
O12	O	1.393981	0.439388	0.829397
O13	O	1.145436	-0.060554	0.382496
O14	O	1.645436	0.439446	0.882496
Zn15	Zn	1.019705	-0.079915	0.355945
Zn16	Zn	1.519705	0.420085	0.855945
Zn17	Zn	1.019735	0.080512	0.355956
Zn18	Zn	1.519735	0.580512	0.855956
O19	O	1.012452	-0.060539	0.455731
O20	O	1.512452	0.439461	0.955731
C21	C	0.861822	0.000261	0.320726
C22	C	1.361822	0.500261	0.820726
C23	C	0.765965	0.000237	0.294871
C24	C	1.265965	0.500237	0.794871
N25	N	1.019691	-0.189402	0.355938
N26	N	1.519691	0.310598	0.855938
C27	C	0.398039	0.000383	0.514393
C28	C	0.898039	0.500383	1.014393
C29	C	0.307969	0.000390	0.490082
C30	C	0.807969	0.500390	0.990082
C31	C	0.329045	0.000339	0.368262
C32	C	0.829045	0.500339	0.868262
C33	C	0.419119	0.000335	0.392564
C34	C	0.919119	0.500335	0.892564
C35	C	0.453608	0.000356	0.465630
C36	C	0.953608	0.500356	0.965630
C37	C	0.474688	0.000308	0.343801
C38	C	0.974688	0.500308	0.843801
C39	C	0.564754	0.000300	0.368100
C40	C	1.064754	0.500300	0.868100
C41	C	0.599250	0.000319	0.441163
C42	C	1.099250	0.500319	0.941163
C43	C	0.543673	0.000348	0.489930
C44	C	1.043673	0.500348	0.989930
C45	C	0.440197	0.000282	0.270735
C46	C	0.940197	0.500282	0.770735
C47	C	0.495767	0.000255	0.221971
C48	C	0.995767	0.500255	0.721971
C49	C	0.585834	0.000252	0.246271
C50	C	1.085834	0.500252	0.746271
C51	C	0.620330	0.000271	0.319334
C52	C	1.120330	0.500271	0.819334
C53	C	0.641410	0.000223	0.197505
C54	C	1.141410	0.500223	0.697505
C55	C	0.731476	0.000215	0.221804
C56	C	1.231476	0.500215	0.721804
C57	C	0.710396	0.000263	0.343634
C58	C	1.210396	0.500263	0.843634
C59	C	1.071895	-0.227673	0.411643
C60	C	1.571895	0.272327	0.911643
C61	C	1.071910	-0.304318	0.411645
C62	C	1.571910	0.195682	0.911645
C63	C	1.019704	-0.342689	0.355945
C64	C	1.519704	0.157311	0.855945
C65	C	0.967496	-0.304409	0.300231
C66	C	1.467496	0.195591	0.800231
C67	C	0.967490	-0.227765	0.300227
C68	C	1.467490	0.272235	0.800227
N69	N	0.944076	-0.463061	0.334726
N70	N	1.444076	0.036939	0.834726
N71	N	0.944085	-0.535869	0.334734
N72	N	1.444085	-0.035869	0.834734
C73	C	1.019721	-0.573611	0.355952
C74	C	1.519721	-0.073611	0.855952
N75	N	1.095349	-0.535795	0.377176
N76	N	1.595349	-0.035795	0.877176
N77	N	1.095340	-0.462980	0.377171
N78	N	1.595340	0.037020	0.877171
C79	C	1.019705	-0.425796	0.355943
C80	C	1.519705	0.074204	0.855943
C81	C	1.071945	-0.694989	0.411663
C82	C	1.571945	-0.194989	0.911663
C83	C	1.071961	-0.771635	0.411660
C84	C	1.571961	-0.271635	0.911660
C85	C	0.967540	-0.771725	0.300248
C86	C	1.467540	-0.271725	0.800248
C87	C	0.967532	-0.695080	0.300248
C88	C	1.467532	-0.195080	0.800248
C89	C	1.019733	-0.656717	0.355960
C90	C	1.519733	-0.156717	0.855960
C91	C	1.177618	0.000337	0.391175
C92	C	1.677618	0.500337	0.891175
C93	C	1.273475	0.000367	0.417031
C94	C	1.773475	0.500367	0.917031
C95	C	1.026507	0.000245	0.230034
C96	C	1.526507	0.500245	0.730034
C97	C	1.025096	0.000214	0.152165
C98	C	1.525096	0.500214	0.652165
N99	N	1.019756	0.189999	0.355959
N100	N	1.519756	0.689999	0.855959
C101	C	1.012934	0.000354	0.481867
C102	C	1.512934	0.500354	0.981867
C103	C	1.014344	0.000389	0.559736
C104	C	1.514344	0.500389	1.059736
C105	C	0.936314	0.000356	0.584541
C106	C	1.436314	0.500356	1.084541
C107	C	0.937639	0.000340	0.657706
C108	C	1.437639	0.500340	1.157706
C109	C	1.017000	0.000342	0.706065
C110	C	1.517000	0.500342	1.206065
C111	C	1.095041	0.000379	0.681252
C112	C	1.595041	0.500379	1.181252
C113	C	1.093713	0.000402	0.608088
C114	C	1.593713	0.500402	1.108088
N115	N	1.077653	-0.041129	0.829670
N116	N	1.577653	0.458871	1.329670
N117	N	1.078909	-0.041153	0.899173
N118	N	1.578909	0.458847	1.399173
C119	C	1.021005	0.000272	0.926506
C120	C	1.521005	0.500272	1.426506
N121	N	0.961784	0.041713	0.881709
N122	N	1.461784	0.541713	1.381709
N123	N	0.960525	0.041734	0.812200
N124	N	1.460525	0.541734	1.312200
C125	C	1.018448	0.000317	0.785401
C126	C	1.518448	0.500317	1.285401
C127	C	0.944406	0.000223	1.030645
C128	C	1.444406	0.500223	1.530645
C129	C	0.945735	0.000211	1.103812
C130	C	1.445735	0.500211	1.603812
C131	C	1.103138	0.000243	1.127357
C132	C	1.603138	0.500243	1.627357
C133	C	1.101807	0.000262	1.054191
C134	C	1.601807	0.500262	1.554191
C135	C	1.022439	0.000248	1.005838
C136	C	1.522439	0.500248	1.505838
H137	H	0.672588	0.000310	0.460947
H138	H	1.172588	0.500310	0.960947
N139	N	1.180637	0.000372	0.733406
N140	N	1.680637	0.500372	1.233406
H141	H	1.214824	0.045520	0.725860
H142	H	1.714824	0.545520	1.225860
H143	H	1.169565	0.000320	0.783496
H144	H	1.669565	0.500320	1.283496
N145	N	0.853482	0.000282	0.684482
N146	N	1.353482	0.500282	1.184482
H147	H	0.850522	0.045403	0.714353
H148	H	1.350522	0.545403	1.214353
H149	H	0.803043	0.000246	0.642718
H150	H	1.303043	0.500246	1.142718
N151	N	1.128214	-0.345602	0.471736
N152	N	1.628214	0.154398	0.971736
H153	H	1.090481	-0.377398	0.496253
H154	H	1.590481	0.122602	0.996253
H155	H	1.170593	-0.377358	0.452137
H156	H	1.670593	0.122642	0.952137
H157	H	0.571756	0.000364	0.549427
H158	H	1.071756	0.500364	1.049427
H159	H	0.871686	0.000352	0.545176
H160	H	1.371686	0.500352	1.045176
N161	N	1.128205	-0.186295	0.471723
N162	N	1.628205	0.313705	0.971723
H163	H	1.161283	-0.222174	0.507011
H164	H	1.661283	0.277826	1.007011
H165	H	1.170532	-0.154497	0.452104
H166	H	1.670532	0.345503	0.952104
H167	H	1.157257	0.000430	0.587894
H168	H	1.657257	0.500430	1.087894
H169	H	0.776722	0.000196	0.182096
H170	H	1.276722	0.500196	0.682096
N171	N	0.604196	0.000197	0.118703
N172	N	1.104196	0.500197	0.618703
H173	H	0.624500	0.045322	0.096306
H174	H	1.124500	0.545322	0.596306
H175	H	0.624459	-0.044983	0.096350
H176	H	1.124459	0.455017	0.596350
H177	H	0.924991	-0.335656	0.254879
H178	H	1.424991	0.164344	0.754879
H179	H	1.167755	0.000297	1.166730
H180	H	1.667755	0.500297	1.666730
H181	H	1.165348	0.000284	1.033995
H182	H	1.665348	0.500284	1.533995
N183	N	0.911184	-0.186482	0.240141
N184	N	1.411184	0.313518	0.740141
H185	H	0.878114	-0.222417	0.204853
H186	H	1.378114	0.277583	0.704853
H187	H	0.868850	-0.154687	0.259753
H188	H	1.368850	0.345313	0.759753
N189	N	1.128302	-0.812917	0.471728
N190	N	1.628302	-0.312917	0.971728
H191	H	1.161375	-0.776981	0.507013
H192	H	1.661375	-0.276981	1.007013
H193	H	1.090548	-0.844731	0.496204
H194	H	1.590548	-0.344731	0.996204
N195	N	1.128246	-0.653604	0.471746
N196	N	1.628246	-0.153604	0.971746
H197	H	1.161326	-0.689482	0.507034
H198	H	1.661326	-0.189482	1.007034
H199	H	1.170570	-0.621798	0.452132
H200	H	1.670570	-0.121798	0.952132
H201	H	0.925034	-0.802966	0.254895
H202	H	1.425034	-0.302966	0.754895
H203	H	0.879779	0.000208	0.991274
H204	H	1.379779	0.500208	1.491274
N205	N	0.911223	-0.653797	0.240167
N206	N	1.411223	-0.153797	0.740167
H207	H	0.878152	-0.689732	0.204880
H208	H	1.378152	-0.189732	0.704880
H209	H	0.868891	-0.621999	0.259778
H210	H	1.368891	-0.121999	0.759778
N211	N	0.248029	0.000431	0.542679
N212	N	0.748029	0.500431	1.042679
H213	H	0.259128	0.045582	0.573542
H214	H	0.759128	0.545582	1.073542
H215	H	0.185766	0.000408	0.516144
H216	H	0.685766	0.500408	1.016144
N217	N	0.861569	0.000182	1.130569
N218	N	1.361569	0.500182	1.630569
H219	H	0.811092	0.000176	1.088834
H220	H	1.311092	0.500176	1.588834
H221	H	0.858687	-0.044965	1.160382
H222	H	1.358687	0.455035	1.660382
H223	H	0.738478	0.000279	0.403131
H224	H	1.238478	0.500279	0.903131
H225	H	0.300952	0.000313	0.308771
H226	H	0.800952	0.500313	0.808771
N227	N	0.435243	0.000415	0.593201
N228	N	0.935243	0.500415	1.093201
H229	H	0.414934	-0.044708	0.615599
H230	H	0.914934	0.455292	1.115599
H231	H	0.500725	0.000433	0.601133
H232	H	1.000725	0.500433	1.101133
N233	N	0.343055	0.000292	0.244528
N234	N	0.843055	0.500292	0.744528
H235	H	0.325530	0.045419	0.214764
H236	H	0.825530	0.545419	0.714764
H237	H	0.325534	-0.044885	0.214785
H238	H	0.825534	0.455115	0.714785
N239	N	0.458565	0.000223	0.143167
N240	N	0.958565	0.500223	0.643167
H241	H	0.393077	0.000229	0.135171
H242	H	0.893077	0.500229	0.635171
H243	H	0.478937	0.045349	0.120822
H244	H	0.978937	0.545349	0.620822
