data_functionalizedCrystal
_audit_creation_method	'MofGen! by Chris Wilmer'
_symmetry_space_group_name_H-M	'P1'
_symmetry_Int_Tables_number	1
_symmetry_cell_setting	triclinic
loop_
_symmetry_equiv_pos_as_xyz
  x,y,z
_cell_length_a	8.965430
_cell_length_b	9.065218
_cell_length_c	9.065218
_cell_angle_alpha	94.984115
_cell_angle_beta	89.995732
_cell_angle_gamma	89.997611
loop_
_atom_site_label
_atom_site_type_symbol
_atom_site_fract_x
_atom_site_fract_y
_atom_site_fract_z
O1	O	-0.124037	-1.960386	0.216361
O2	O	-0.124038	-1.531101	0.234108
O3	O	-0.124034	-1.754617	0.010592
O4	O	-0.124040	-1.736871	0.439877
O5	O	0.124045	-1.754628	0.010576
O6	O	0.124041	-1.531112	0.234092
O7	O	0.124042	-1.960397	0.216345
Cu8	Cu	0.146693	-1.745756	0.225217
Cu9	Cu	-0.146689	-1.745743	0.225236
O10	O	0.124038	-1.736881	0.439861
C11	C	0.000001	-1.476120	0.232394
C12	C	0.000000	-1.312277	0.227294
N13	N	-0.353038	-1.745735	0.225238
C14	C	0.000003	-1.752917	-0.044403
C15	C	-0.000004	-1.747817	-0.208245
C16	C	-0.450336	-1.642158	0.328403
C17	C	-0.549752	-1.612086	0.194579
C18	C	-0.549750	-1.775782	0.359014
C19	C	-0.450265	-1.715595	0.091346
C20	C	-0.450254	-1.879350	0.255870
C21	C	-0.549625	-1.849334	0.121951
N22	N	0.353042	-1.745776	0.225203
C23	C	-0.000000	-2.015378	0.218059
C24	C	-0.000009	-2.179221	0.223158
C25	C	-0.000002	-1.738582	0.494855
C26	C	-0.000004	-1.743681	0.658698
H27	H	-0.593467	-1.499110	0.168651
O28	O	-0.398437	-1.685380	-0.043774
C29	C	-0.450239	-1.794059	-0.152426
H30	H	-0.478733	-1.899372	-0.098230
H31	H	-0.554151	-1.751575	-0.207579
C32	C	-0.292967	-1.698554	-0.336381
C33	C	-0.327953	-1.827906	-0.269819
H34	H	-0.217540	-1.719429	-0.408799
H35	H	-0.258071	-1.625331	-0.263183
H36	H	-0.379571	-1.663164	-0.382330
H37	H	-0.241355	-1.863284	-0.223856
H38	H	-0.362832	-1.901136	-0.343012
O39	O	-0.601148	-1.954034	0.017833
C40	C	-0.548245	-2.094408	0.049195
H41	H	-0.443008	-2.080478	0.119600
H42	H	-0.637362	-2.153028	0.112202
C43	C	-0.641485	-2.204484	-0.183237
C44	C	-0.512224	-2.187376	-0.096775
H45	H	-0.619272	-2.261835	-0.273277
H46	H	-0.677132	-2.109913	-0.204365
H47	H	-0.715737	-2.253329	-0.130715
H48	H	-0.437981	-2.138515	-0.149290
H49	H	-0.476563	-2.281941	-0.075660
H50	H	-0.593422	-1.801199	0.472166
O51	O	-0.398131	-2.014032	0.287115
C52	C	-0.448762	-2.045275	0.428328
H53	H	-0.476724	-1.937277	0.496653
H54	H	-0.552760	-2.117656	0.415982
C55	C	-0.291471	-2.260163	0.423045
C56	C	-0.325802	-2.127516	0.506968
H57	H	-0.215627	-2.310898	0.471553
H58	H	-0.257363	-2.239118	0.327905
H59	H	-0.378146	-2.320462	0.412763
H60	H	-0.239133	-2.067212	0.517232
H61	H	-0.359892	-2.148553	0.602112
H62	H	-0.406739	-1.554490	0.415558
