data_functionalizedCrystal
_audit_creation_method	'MofGen! by Chris Wilmer'
_symmetry_space_group_name_H-M	'P1'
_symmetry_Int_Tables_number	1
_symmetry_cell_setting	triclinic
loop_
_symmetry_equiv_pos_as_xyz
  x,y,z
_cell_length_a	18.050591
_cell_length_b	18.050589
_cell_length_c	18.215399
_cell_angle_alpha	90.023603
_cell_angle_beta	90.024537
_cell_angle_gamma	90.024669
loop_
_atom_site_label
_atom_site_type_symbol
_atom_site_fract_x
_atom_site_fract_y
_atom_site_fract_z
Zn1	Zn	1.135328	-0.295737	0.416230
Zn2	Zn	1.385328	-0.045737	0.666230
Zn3	Zn	1.635328	0.204263	0.916230
Zn4	Zn	1.885328	0.454263	1.166230
Zn5	Zn	1.135228	-0.419932	0.293173
Zn6	Zn	1.385228	-0.169932	0.543173
Zn7	Zn	1.635228	0.080068	0.793173
Zn8	Zn	1.885228	0.330068	1.043173
Zn9	Zn	1.011136	-0.295753	0.293168
Zn10	Zn	1.261136	-0.045753	0.543168
Zn11	Zn	1.511136	0.204247	0.793168
Zn12	Zn	1.761136	0.454247	1.043168
Zn13	Zn	1.011095	-0.419882	0.416188
Zn14	Zn	1.261095	-0.169882	0.666188
Zn15	Zn	1.511095	0.080118	0.916188
Zn16	Zn	1.761095	0.330118	1.166188
O17	O	1.073197	-0.357826	0.354690
O18	O	1.323197	-0.107826	0.604690
O19	O	1.573197	0.142174	0.854690
O20	O	1.823197	0.392174	1.104690
O21	O	1.239239	-0.312227	0.399927
O22	O	1.489239	-0.062227	0.649927
O23	O	1.739239	0.187773	0.899927
O24	O	1.989239	0.437773	1.149927
O25	O	1.118743	-0.403487	0.190188
O26	O	1.368743	-0.153487	0.440188
O27	O	1.618743	0.096513	0.690188
O28	O	1.868743	0.346513	0.940188
O29	O	1.027670	-0.191826	0.309507
O30	O	1.277670	0.058174	0.559507
O31	O	1.527670	0.308174	0.809507
O32	O	1.777670	0.558174	1.059507
O33	O	1.239166	-0.403472	0.309517
O34	O	1.489166	-0.153472	0.559517
O35	O	1.739166	0.096528	0.809517
O36	O	1.989166	0.346528	1.059517
O37	O	1.118912	-0.191815	0.399921
O38	O	1.368912	0.058185	0.649921
O39	O	1.618912	0.308185	0.899921
O40	O	1.868912	0.558185	1.149921
O41	O	1.027573	-0.312253	0.190184
O42	O	1.277573	-0.062253	0.440184
O43	O	1.527573	0.187747	0.690184
O44	O	1.777573	0.437747	0.940184
O45	O	0.907206	-0.312205	0.309467
O46	O	1.157206	-0.062205	0.559467
O47	O	1.407206	0.187795	0.809467
O48	O	1.657206	0.437795	1.059467
O49	O	1.027599	-0.403387	0.519178
O50	O	1.277599	-0.153387	0.769178
O51	O	1.527599	0.096613	1.019178
O52	O	1.777599	0.346613	1.269178
O53	O	0.907176	-0.403402	0.399849
O54	O	1.157176	-0.153402	0.649849
O55	O	1.407176	0.096598	0.899849
O56	O	1.657176	0.346598	1.149849
O57	O	1.118872	-0.312178	0.519209
O58	O	1.368872	-0.062178	0.769209
O59	O	1.618872	0.187822	1.019209
O60	O	1.868872	0.437822	1.269209
O61	O	1.118702	-0.523850	0.309476
O62	O	1.368702	-0.273850	0.559476
O63	O	1.618702	-0.023850	0.809476
O64	O	1.868702	0.226150	1.059476
O65	O	1.027502	-0.523814	0.399855
O66	O	1.277502	-0.273814	0.649855
O67	O	1.527502	-0.023814	0.899855
O68	O	1.777502	0.226186	1.149855
C69	C	0.880245	-0.357800	0.354653
C70	C	1.130245	-0.107800	0.604653
C71	C	1.380245	0.142200	0.854653
C72	C	1.630245	0.392200	1.104653
C73	C	0.797699	-0.357807	0.354655
C74	C	1.047699	-0.107807	0.604655
C75	C	1.297699	0.142193	0.854655
C76	C	1.547699	0.392193	1.104655
C77	C	0.548868	-0.308162	0.305621
C78	C	0.798868	-0.058162	0.555621
C79	C	1.048868	0.191838	0.805621
C80	C	1.298868	0.441838	1.055621
C81	C	0.598306	-0.290075	0.372783
C82	C	0.848306	-0.040075	0.622783
C83	C	1.098306	0.209925	0.872783
C84	C	1.348306	0.459925	1.122783
C85	C	0.500578	-0.357845	0.354715
C86	C	0.750578	-0.107845	0.604715
C87	C	1.000578	0.142155	0.854715
C88	C	1.250578	0.392155	1.104715
C89	C	0.598222	-0.375879	0.287528
C90	C	0.848222	-0.125879	0.537528
C91	C	1.098222	0.124121	0.787528
C92	C	1.348222	0.374121	1.037528
C93	C	0.646563	-0.357824	0.354682
C94	C	0.896563	-0.107824	0.604682
C95	C	1.146563	0.142176	0.854682
C96	C	1.396563	0.392176	1.104682
C97	C	0.548929	-0.339722	0.421912
C98	C	0.798929	-0.089722	0.671912
C99	C	1.048929	0.160278	0.921912
C100	C	1.298929	0.410278	1.171912
C101	C	0.548841	-0.425557	0.336612
C102	C	0.798841	-0.175557	0.586612
C103	C	1.048841	0.074443	0.836612
C104	C	1.298841	0.324443	1.086612
C105	C	0.598256	-0.407496	0.403820
C106	C	0.848256	-0.157496	0.653820
C107	C	1.098256	0.092504	0.903820
C108	C	1.348256	0.342504	1.153820
C109	C	0.416480	-0.357855	0.354733
C110	C	0.666480	-0.107855	0.604733
C111	C	0.916480	0.142145	0.854733
C112	C	1.166480	0.392145	1.104733
C113	C	0.730660	-0.357815	0.354671
C114	C	0.980660	-0.107815	0.604671
C115	C	1.230660	0.142185	0.854671
C116	C	1.480660	0.392185	1.104671
C117	C	1.073107	-0.550778	0.354678
C118	C	1.323107	-0.300778	0.604678
C119	C	1.573107	-0.050778	0.854678
C120	C	1.823107	0.199222	1.104678
C121	C	1.073137	-0.633324	0.354697
C122	C	1.323137	-0.383324	0.604697
C123	C	1.573137	-0.133324	0.854697
C124	C	1.823137	0.116676	1.104697
C125	C	1.023591	-0.832782	0.403828
C126	C	1.273591	-0.582782	0.653828
C127	C	1.523591	-0.332782	0.903828
C128	C	1.773591	-0.082782	1.153828
C129	C	1.005487	-0.882221	0.336672
C130	C	1.255487	-0.632221	0.586672
C131	C	1.505487	-0.382221	0.836672
C132	C	1.755487	-0.132221	1.086672
C133	C	1.073210	-0.784455	0.354707
C134	C	1.323210	-0.534455	0.604707
C135	C	1.573210	-0.284455	0.854707
C136	C	1.823210	-0.034455	1.104707
C137	C	1.091350	-0.882097	0.421870
C138	C	1.341350	-0.632097	0.671870
C139	C	1.591350	-0.382097	0.921870
C140	C	1.841350	-0.132097	1.171870
C141	C	1.073279	-0.930440	0.354722
C142	C	1.323279	-0.680440	0.604722
C143	C	1.573279	-0.430440	0.854722
C144	C	1.823279	-0.180440	1.104722
C145	C	1.055070	-0.832807	0.287515
C146	C	1.305070	-0.582807	0.537515
C147	C	1.555070	-0.332807	0.787515
C148	C	1.805070	-0.082807	1.037515
C149	C	1.140964	-0.832678	0.372759
C150	C	1.390964	-0.582678	0.622759
C151	C	1.640964	-0.332678	0.872759
C152	C	1.890964	-0.082678	1.122759
C153	C	1.122886	-0.882095	0.305557
C154	C	1.372886	-0.632095	0.555557
C155	C	1.622886	-0.382095	0.805557
C156	C	1.872886	-0.132095	1.055557
C157	C	1.073168	-0.700356	0.354699
C158	C	1.323168	-0.450356	0.604699
C159	C	1.573168	-0.200356	0.854699
C160	C	1.823168	0.049644	1.104699
C161	C	1.073320	-1.014536	0.354722
C162	C	1.323320	-0.764536	0.604722
C163	C	1.573320	-0.514536	0.854722
C164	C	1.823320	-0.264536	1.104722
C165	C	1.266902	-0.357853	0.354727
C166	C	1.516902	-0.107853	0.604727
C167	C	1.766902	0.142147	0.854727
C168	C	2.016902	0.392147	1.104727
C169	C	1.349448	-0.357865	0.354743
C170	C	1.599448	-0.107865	0.604743
C171	C	1.849448	0.142135	0.854743
C172	C	2.099448	0.392135	1.104743
C173	C	1.073242	-0.357775	0.546643
C174	C	1.323242	-0.107775	0.796643
C175	C	1.573242	0.142225	1.046643
C176	C	1.823242	0.392225	1.296643
C177	C	1.073261	-0.357753	0.628442
C178	C	1.323261	-0.107753	0.878442
C179	C	1.573261	0.142247	1.128442
C180	C	1.823261	0.392247	1.378442
C181	C	1.073307	-0.164121	0.354718
C182	C	1.323307	0.085879	0.604718
C183	C	1.573307	0.335879	0.854718
C184	C	1.823307	0.585879	1.104718
C185	C	1.073354	-0.081575	0.354730
C186	C	1.323354	0.168425	0.604730
C187	C	1.573354	0.418425	0.854730
C188	C	1.823354	0.668425	1.104730
C189	C	1.073194	-0.357824	0.163484
C190	C	1.323194	-0.107824	0.413484
C191	C	1.573194	0.142176	0.663484
C192	C	1.823194	0.392176	0.913484
C193	C	1.073319	-0.357636	0.081685
C194	C	1.323319	-0.107636	0.331685
C195	C	1.573319	0.142364	0.581685
C196	C	1.823319	0.392364	0.831685
C197	C	1.120804	-0.310216	0.816653
C198	C	1.370804	-0.060216	1.066653
C199	C	1.620804	0.189784	1.316653
C200	C	1.870804	0.439784	1.566653
C201	C	1.120813	-0.310195	0.893512
C202	C	1.370813	-0.060195	1.143512
C203	C	1.620813	0.189805	1.393512
C204	C	1.870813	0.439805	1.643512
C205	C	1.025771	-0.405175	0.893469
C206	C	1.275771	-0.155175	1.143469
C207	C	1.525771	0.094825	1.393469
C208	C	1.775771	0.344825	1.643469
C209	C	1.025759	-0.405193	0.816611
C210	C	1.275759	-0.155193	1.066611
C211	C	1.525759	0.094807	1.316611
C212	C	1.775759	0.344807	1.566611
C213	C	1.073280	-0.357714	0.778205
C214	C	1.323280	-0.107714	1.028205
C215	C	1.573280	0.142286	1.278205
C216	C	1.823280	0.392286	1.528205
C217	C	1.073301	-0.357675	0.931922
C218	C	1.323301	-0.107675	1.181922
C219	C	1.573301	0.142325	1.431922
C220	C	1.823301	0.392325	1.681922
C221	C	1.073310	-0.357652	1.015255
C222	C	1.323310	-0.107652	1.265255
C223	C	1.573310	0.142348	1.515255
C224	C	1.823310	0.392348	1.765255
C225	C	1.073270	-0.357736	0.694866
C226	C	1.323270	-0.107736	0.944866
C227	C	1.573270	0.142264	1.194866
C228	C	1.823270	0.392264	1.444866
H229	H	0.527365	-0.324394	0.478734
H230	H	0.777365	-0.074394	0.728734
H231	H	1.027365	0.175606	0.978734
H232	H	1.277365	0.425606	1.228734
H233	H	1.039689	-0.811245	0.230707
H234	H	1.289689	-0.561245	0.480707
H235	H	1.539689	-0.311245	0.730707
H236	H	1.789689	-0.061245	0.980707
Br237	Br	0.634319	-0.401316	0.192850
Br238	Br	0.884319	-0.151316	0.442850
Br239	Br	1.134319	0.098684	0.692850
Br240	Br	1.384319	0.348684	0.942850
H241	H	1.159511	-0.271516	0.924813
H242	H	1.409511	-0.021516	1.174813
H243	H	1.659511	0.228484	1.424813
H244	H	1.909511	0.478484	1.674813
H245	H	0.987082	-0.443832	0.924748
H246	H	1.237082	-0.193832	1.174748
H247	H	1.487082	0.056168	1.424748
H248	H	1.737082	0.306168	1.674748
Br249	Br	1.116875	-0.918190	0.516527
Br250	Br	1.366875	-0.668190	0.766527
Br251	Br	1.616875	-0.418190	1.016527
Br252	Br	1.866875	-0.168190	1.266527
H253	H	0.987053	-0.443871	0.785306
H254	H	1.237053	-0.193871	1.035306
H255	H	1.487053	0.056129	1.285306
H256	H	1.737053	0.306129	1.535306
Br257	Br	0.634172	-0.477513	0.473070
Br258	Br	0.884172	-0.227513	0.723070
Br259	Br	1.134172	0.022487	0.973070
Br260	Br	1.384172	0.272487	1.223070
Br261	Br	0.512723	-0.238101	0.236531
Br262	Br	0.762723	0.011899	0.486531
Br263	Br	1.012723	0.261899	0.736531
Br264	Br	1.262723	0.511899	0.986531
Br265	Br	0.634510	-0.194618	0.398297
Br266	Br	0.884510	0.055382	0.648297
Br267	Br	1.134510	0.305382	0.898297
Br268	Br	1.384510	0.555382	1.148297
H269	H	0.948222	-0.903999	0.321417
H270	H	1.198222	-0.653999	0.571417
H271	H	1.448222	-0.403999	0.821417
H272	H	1.698222	-0.153999	1.071417
H273	H	1.164877	-0.903611	0.263975
H274	H	1.414877	-0.653611	0.513975
H275	H	1.664877	-0.403611	0.763975
H276	H	1.914877	-0.153611	1.013975
H277	H	0.981568	-0.811128	0.445309
H278	H	1.231568	-0.561128	0.695309
H279	H	1.481568	-0.311128	0.945309
H280	H	1.731568	-0.061128	1.195309
H281	H	1.198217	-0.810902	0.388046
H282	H	1.448217	-0.560902	0.638046
H283	H	1.698217	-0.310902	0.888046
H284	H	1.948217	-0.060902	1.138046
H285	H	0.527098	-0.482813	0.321290
H286	H	0.777098	-0.232813	0.571290
H287	H	1.027098	0.017187	0.821290
H288	H	1.277098	0.267187	1.071290
H289	H	1.159497	-0.271555	0.785386
H290	H	1.409497	-0.021555	1.035386
H291	H	1.659497	0.228445	1.285386
H292	H	1.909497	0.478445	1.535386
