data_functionalizedCrystal
_audit_creation_method	'MofGen! by Chris Wilmer'
_symmetry_space_group_name_H-M	'P1'
_symmetry_Int_Tables_number	1
_symmetry_cell_setting	triclinic
loop_
_symmetry_equiv_pos_as_xyz
  x,y,z
_cell_length_a	13.262529
_cell_length_b	22.010155
_cell_length_c	13.339070
_cell_angle_alpha	89.991921
_cell_angle_beta	80.570968
_cell_angle_gamma	74.075649
loop_
_atom_site_label
_atom_site_type_symbol
_atom_site_fract_x
_atom_site_fract_y
_atom_site_fract_z
O1	O	-1.432427	0.287215	0.136340
O2	O	-1.131159	0.237435	0.151189
O3	O	-1.247217	0.256610	-0.003643
O4	O	-1.316369	0.268040	0.291172
O5	O	-1.247195	0.155556	-0.003620
O6	O	-1.131136	0.136381	0.151212
O7	O	-1.432405	0.186161	0.136363
Cu8	Cu	-1.281768	0.152044	0.143790
Cu9	Cu	-1.281795	0.271552	0.143762
O10	O	-1.316346	0.166986	0.291195
C11	C	-1.091801	0.180406	0.150371
C12	C	-0.974557	0.161034	0.147888
C13	C	-0.919471	0.096844	0.146735
C14	C	-0.809312	0.078637	0.144392
C15	C	-0.754230	0.124618	0.143210
C16	C	-0.809318	0.188809	0.144369
C17	C	-0.919486	0.207017	0.146704
C18	C	-0.754245	0.234791	0.143179
C19	C	-0.809333	0.298982	0.144338
C20	C	-0.919490	0.317187	0.146674
C21	C	-0.974572	0.271207	0.147857
C22	C	-0.644077	0.216583	0.140843
C23	C	-0.644092	0.326756	0.140813
C24	C	-0.754251	0.344963	0.143156
N25	N	-1.281757	0.067989	0.143808
C26	C	-1.333193	-0.343292	0.075212
C27	C	-1.333196	-0.406899	0.075205
O28	O	-1.376889	-0.432571	0.016896
N29	N	-1.281788	-0.447213	0.143741
C30	C	-1.230366	-0.423918	0.212281
O31	O	-1.186639	-0.464048	0.270574
C32	C	-1.230357	-0.360313	0.212282
C33	C	-1.281777	-0.320000	0.143749
C34	C	-1.384607	-0.302980	0.006684
C35	C	-1.384606	-0.239377	0.006693
C36	C	-1.333190	-0.216086	0.075229
C37	C	-1.281775	-0.256397	0.143758
C38	C	-1.178929	-0.337020	0.280817
C39	C	-1.178924	-0.273410	0.280811
C40	C	-1.230343	-0.233098	0.212278
C41	C	-1.230358	-0.169503	0.212303
N42	N	-1.281765	-0.129189	0.143767
C43	C	-1.333181	-0.152481	0.075231
C44	C	-1.230386	-0.557492	0.212272
C45	C	-1.230401	-0.621095	0.212276
C46	C	-1.333229	-0.604072	0.075199
C47	C	-1.333220	-0.540467	0.075201
C48	C	-1.281793	-0.517179	0.143736
C49	C	-1.333175	-0.018910	0.075254
C50	C	-1.333173	0.044698	0.075272
C51	C	-1.230340	0.027669	0.212344
C52	C	-1.230347	-0.035933	0.212331
C53	C	-1.281766	-0.059221	0.143778
O54	O	-1.186683	-0.143787	0.270580
O55	O	-1.376889	-0.112346	0.016938
C56	C	-0.471762	0.243190	0.137180
C57	C	-0.589006	0.262566	0.139660
C58	C	-1.235525	0.204154	-0.041369
C59	C	-1.200706	0.198403	-0.153816
N60	N	-1.281812	0.355607	0.143736
C61	C	-1.471437	0.243137	-0.517483
C62	C	-1.504154	0.248537	-0.411834
C63	C	-1.428295	0.236004	-0.347324
C64	C	-1.319713	0.218070	-0.388474
C65	C	-1.286993	0.212664	-0.494133
C66	C	-1.243851	0.205531	-0.323975
C67	C	-1.135269	0.187597	-0.365124
C68	C	-1.102554	0.182193	-0.470773
C69	C	-1.178413	0.194726	-0.535282
C70	C	-1.276571	0.210937	-0.218315
C71	C	-1.092127	0.180464	-0.194966
C72	C	-1.059410	0.175064	-0.300614
C73	C	-1.328039	0.219443	0.328921
C74	C	-1.362857	0.225198	0.441368
H75	H	-0.964327	0.059414	0.147690
H76	H	-1.188482	0.046643	0.268149
Br77	Br	-1.472698	0.243335	-0.203941
Br78	Br	-0.569329	0.129470	0.139267
Br79	Br	-1.402967	0.099406	-0.017739
Br80	Br	-0.989168	0.163447	-0.107425
Br81	Br	-0.569349	0.389163	0.139214
H82	H	-0.799118	0.397228	0.144100
H83	H	-1.014140	0.167585	-0.504273
H84	H	-0.971001	0.160461	-0.334133
Br85	Br	-0.734560	-0.008474	0.142833
H86	H	-1.533189	0.253334	-0.570015
H87	H	-1.375090	-0.507648	0.019395
H88	H	-0.964337	0.369455	0.147605
Br89	Br	-1.124082	0.295915	0.151055
H90	H	-1.426472	-0.206558	-0.049116
Br91	Br	-1.402959	-0.050505	-0.017784
Br92	Br	-1.454393	-0.334578	-0.086344
H93	H	-1.137057	-0.369834	0.336622
H94	H	-1.375093	-0.623047	0.019391
Br95	Br	-1.160637	-0.675794	0.305305
H96	H	-1.592560	0.263138	-0.378338
Br97	Br	-1.134014	0.187479	-0.678670
H98	H	-0.664535	0.109790	0.141304
H99	H	-1.188513	-0.538534	0.268090
H100	H	-1.188489	-0.068755	0.268147
Br101	Br	-1.109120	-0.241810	0.373826
H102	H	-1.364978	0.225539	-0.184822
