data_functionalizedCrystal
_audit_creation_method	'MofGen! by Chris Wilmer'
_symmetry_space_group_name_H-M	'P1'
_symmetry_Int_Tables_number	1
_symmetry_cell_setting	triclinic
loop_
_symmetry_equiv_pos_as_xyz
  x,y,z
_cell_length_a	19.288864
_cell_length_b	19.188925
_cell_length_c	17.766277
_cell_angle_alpha	89.993978
_cell_angle_beta	89.976791
_cell_angle_gamma	83.139398
loop_
_atom_site_label
_atom_site_type_symbol
_atom_site_fract_x
_atom_site_fract_y
_atom_site_fract_z
O1	O	0.921358	0.087099	-0.062835
O2	O	1.421358	0.587099	0.437165
O3	O	0.719098	0.098849	-0.062783
O4	O	1.219098	0.598849	0.437217
O5	O	0.826067	-0.008682	-0.062806
O6	O	1.326067	0.491318	0.437194
O7	O	0.814389	0.194631	-0.062812
O8	O	1.314389	0.694631	0.437188
O9	O	0.826048	-0.008688	0.062382
O10	O	1.326048	0.491312	0.562382
O11	O	0.719079	0.098844	0.062405
O12	O	1.219079	0.598844	0.562405
O13	O	0.921339	0.087094	0.062354
O14	O	1.421339	0.587094	0.562354
Cu15	Cu	0.820207	0.092968	0.073810
Cu16	Cu	1.320207	0.592968	0.573810
Cu17	Cu	0.820230	0.092975	-0.074240
Cu18	Cu	1.320230	0.592975	0.425760
O19	O	0.814370	0.194625	0.062377
O20	O	1.314370	0.694625	0.562377
C21	C	0.693212	0.098468	-0.000183
C22	C	1.193212	0.598468	0.499817
C23	C	0.616108	0.097333	-0.000163
C24	C	1.116108	0.597333	0.499837
C25	C	0.825680	-0.034696	-0.000213
C26	C	1.325680	0.465304	0.499787
C27	C	0.824546	-0.112201	-0.000214
C28	C	1.324546	0.387799	0.499786
C29	C	0.571416	0.160428	-0.000176
C30	C	1.071416	0.660428	0.499824
C31	C	0.498968	0.159362	-0.000185
C32	C	0.998968	0.659362	0.499815
C33	C	0.471217	0.095197	-0.000195
C34	C	0.971217	0.595197	0.499805
C35	C	0.515920	0.032095	-0.000177
C36	C	1.015920	0.532095	0.499823
C37	C	0.588366	0.033163	-0.000161
C38	C	1.088366	0.533163	0.499839
C39	C	0.362959	0.044759	-0.044078
C40	C	0.862959	0.544759	0.455922
C41	C	0.290515	0.043694	-0.044098
C42	C	0.790515	0.543694	0.455902
C43	C	0.247772	0.091901	-0.000240
C44	C	0.747772	0.591901	0.499760
C45	C	0.277480	0.141185	0.043629
C46	C	0.777480	0.641185	0.543629
C47	C	0.349926	0.142253	0.043645
C48	C	0.849926	0.642253	0.543645
C49	C	0.392663	0.094032	-0.000211
C50	C	0.892663	0.594032	0.499789
C51	C	0.124523	0.153843	-0.000261
C52	C	0.624523	0.653843	0.499739
C53	C	0.052075	0.152774	-0.000265
C54	C	0.552075	0.652774	0.499735
C55	C	0.069028	0.025506	-0.000265
C56	C	0.569028	0.525506	0.499735
C57	C	0.141474	0.026576	-0.000254
C58	C	0.641474	0.526576	0.499746
C59	C	0.169217	0.090747	-0.000255
C60	C	0.669217	0.590747	0.499745
C61	C	0.879724	-0.673975	-0.000247
C62	C	1.379724	-0.173975	0.499753
C63	C	0.880795	-0.601152	-0.000240
C64	C	1.380795	-0.101152	0.499760
C65	C	0.818029	-0.556213	-0.000225
C66	C	1.318029	-0.056213	0.499775
C67	C	0.754187	-0.584102	-0.000196
C68	C	1.254187	-0.084102	0.499804
C69	C	0.753118	-0.656924	-0.000195
C70	C	1.253118	-0.156924	0.499805
N71	N	0.772595	-0.435527	-0.042824
N72	N	1.272595	0.064473	0.457176
N73	N	0.773615	-0.366350	-0.042826
N74	N	1.273615	0.133650	0.457174
C75	C	0.821246	-0.336804	-0.000226
C76	C	1.321246	0.163196	0.499774
N77	N	0.867829	-0.379050	0.042368
N78	N	1.367829	0.120950	0.542368
N79	N	0.866811	-0.448234	0.042367
N80	N	1.366811	0.051766	0.542367
C81	C	0.819181	-0.477248	-0.000225
C82	C	1.319181	0.022752	0.499775
C83	C	0.886245	-0.229960	-0.000242
C84	C	1.386245	0.270040	0.499758
C85	C	0.887313	-0.157135	-0.000231
C86	C	1.387313	0.342865	0.499769
C87	C	0.760704	-0.140086	-0.000194
C88	C	1.260704	0.359914	0.499806
C89	C	0.759637	-0.212910	-0.000198
C90	C	1.259637	0.287090	0.499802
C91	C	0.822410	-0.257842	-0.000225
C92	C	1.322410	0.242158	0.499775
C93	C	0.947225	0.087475	-0.000249
C94	C	1.447225	0.587475	0.499751
C95	C	1.024329	0.088610	-0.000274
C96	C	1.524329	0.588610	0.499726
C97	C	0.814757	0.220639	-0.000219
C98	C	1.314757	0.720639	0.499781
C99	C	0.815891	0.298144	-0.000223
C100	C	1.315891	0.798144	0.499777
N101	N	0.820197	0.092963	0.177940
N102	N	1.320197	0.592963	0.677940
N103	N	0.820246	0.092974	-0.178370
N104	N	1.320246	0.592974	0.321630
C105	C	0.867578	0.045372	0.217317
C106	C	1.367578	0.545372	0.717317
C107	C	0.867582	0.045369	0.296119
C108	C	1.367582	0.545369	0.796119
C109	C	0.820212	0.092969	0.335541
C110	C	1.320212	0.592969	0.835541
C111	C	0.772822	0.140564	0.296155
C112	C	1.272822	0.640564	0.796155
C113	C	0.772814	0.140561	0.217354
C114	C	1.272814	0.640561	0.717354
C115	C	0.810916	0.156586	0.460379
C116	C	1.310916	0.656586	0.960379
C117	C	0.810928	0.156589	0.539177
C118	C	1.310928	0.656589	1.039177
C119	C	0.820230	0.092977	0.578587
C120	C	1.320230	0.592977	1.078587
C121	C	0.829534	0.029359	0.539189
C122	C	1.329534	0.529359	1.039189
C123	C	0.829527	0.029356	0.460388
C124	C	1.329527	0.529356	0.960388
C125	C	0.820214	0.092977	0.420987
C126	C	1.320214	0.592977	0.920987
C127	C	0.867618	0.045378	0.703410
C128	C	1.367618	0.545378	1.203410
C129	C	0.867617	0.045374	0.782213
C130	C	1.367617	0.545374	1.282213
C131	C	0.772860	0.140576	0.782247
C132	C	1.272860	0.640576	1.282247
C133	C	0.772858	0.140574	0.703446
C134	C	1.272858	0.640574	1.203446
C135	C	0.820240	0.092976	0.664032
C136	C	1.320240	0.592976	1.164032
H137	H	0.593999	0.212680	-0.000179
H138	H	1.093999	0.712680	0.499821
H139	H	0.701136	-0.679623	-0.000174
H140	H	1.201136	-0.179623	0.499826
Br141	Br	0.971433	-0.290944	-0.000278
Br142	Br	1.471433	0.209056	0.499722
H143	H	0.147112	0.206095	-0.000252
H144	H	0.647112	0.706095	0.499748
H145	H	0.803357	0.208391	0.571250
H146	H	1.303357	0.708391	1.071250
Br147	Br	0.438302	0.244996	-0.000199
Br148	Br	0.938302	0.744996	0.499801
Br149	Br	0.708506	0.205154	0.163910
Br150	Br	1.208506	0.705154	0.663910
H151	H	0.932777	-0.578446	-0.000260
H152	H	1.432777	-0.078446	0.499740
H153	H	0.374112	0.182379	0.079367
H154	H	0.874112	0.682379	0.579367
Br155	Br	0.708527	0.205160	0.349653
Br156	Br	1.208527	0.705160	0.849653
H157	H	0.624755	-0.018218	-0.000150
H158	H	1.124755	0.481782	0.499850
H159	H	0.703083	-0.547508	-0.000181
H160	H	1.203083	-0.047508	0.499819
H161	H	0.397755	0.005502	-0.079797
H162	H	0.897755	0.505502	0.420203
H163	H	0.242680	0.180439	0.079343
H164	H	0.742680	0.680439	0.579343
Br165	Br	0.964914	-0.734952	-0.000278
Br166	Br	1.464914	-0.234952	0.499722
Br167	Br	0.973951	-0.119295	-0.000265
Br168	Br	1.473951	0.380705	0.499735
Br169	Br	0.478260	-0.054986	-0.000182
Br170	Br	0.978260	0.445014	0.499818
Br171	Br	0.842167	-0.056979	0.592663
Br172	Br	1.342167	0.443021	1.092663
H173	H	0.837101	-0.022444	0.428313
H174	H	1.337101	0.477556	0.928313
Br175	Br	0.675520	-0.079105	-0.000159
Br176	Br	1.175520	0.420895	0.499841
Br177	Br	0.931920	-0.019220	0.649917
Br178	Br	1.431920	0.480780	1.149917
H179	H	0.906199	0.006616	0.814274
H180	H	1.406199	0.506616	1.314274
H181	H	0.015686	0.204156	-0.000272
H182	H	0.515686	0.704156	0.499728
Br183	Br	0.708564	0.205169	0.835742
Br184	Br	1.208564	0.705169	1.335742
Br185	Br	0.673002	-0.250752	-0.000170
Br186	Br	1.173002	0.249248	0.499830
H187	H	0.906158	0.006613	0.185228
H188	H	1.406158	0.506613	0.685228
H189	H	0.906166	0.006612	0.328185
H190	H	1.406166	0.506612	0.828185
H191	H	0.046434	-0.026738	-0.000319
H192	H	0.546434	0.473262	0.499681
Br193	Br	0.708554	0.205167	0.650000
Br194	Br	1.208554	0.705167	1.150000
H195	H	0.803330	0.208390	0.428298
H196	H	1.303330	0.708390	0.928298
H197	H	0.266331	0.003566	-0.079822
H198	H	0.766331	0.503566	0.420178
Br199	Br	0.202133	-0.059057	-0.000237
Br200	Br	0.702133	0.440943	0.499763
