data_functionalizedCrystal
_audit_creation_method	'MofGen! by Chris Wilmer'
_symmetry_space_group_name_H-M	'P1'
_symmetry_Int_Tables_number	1
_symmetry_cell_setting	triclinic
loop_
_symmetry_equiv_pos_as_xyz
  x,y,z
_cell_length_a	12.759395
_cell_length_b	19.121063
_cell_length_c	12.759387
_cell_angle_alpha	92.403602
_cell_angle_beta	89.980569
_cell_angle_gamma	92.468690
loop_
_atom_site_label
_atom_site_type_symbol
_atom_site_fract_x
_atom_site_fract_y
_atom_site_fract_z
Zn1	Zn	1.588334	-0.279579	-0.611765
Zn2	Zn	1.580690	-0.397046	-0.443560
Zn3	Zn	1.412630	-0.279613	-0.436107
Zn4	Zn	1.405093	-0.396993	-0.619199
O5	O	1.496687	-0.338308	-0.527658
O6	O	1.734341	-0.295169	-0.589460
O7	O	1.558351	-0.381505	-0.295552
O8	O	1.442291	-0.181325	-0.453178
O9	O	1.728724	-0.381472	-0.465880
O10	O	1.571380	-0.181299	-0.582233
O11	O	1.434879	-0.295228	-0.290077
O12	O	1.264610	-0.295176	-0.460387
O13	O	1.429445	-0.381381	-0.765231
O14	O	1.259072	-0.381414	-0.594903
O15	O	1.564072	-0.295117	-0.759770
O16	O	1.551043	-0.495323	-0.473089
O17	O	1.422032	-0.495284	-0.602130
C18	C	1.223720	-0.338294	-0.527644
C19	C	1.106943	-0.338305	-0.527664
C20	C	1.112763	-0.248583	-0.656574
C21	C	1.060811	-0.203730	-0.721037
C22	C	0.951089	-0.203743	-0.721051
C23	C	0.893315	-0.248611	-0.656592
C24	C	0.945266	-0.293464	-0.592128
C25	C	1.054992	-0.293448	-0.592124
C26	C	0.939447	-0.383181	-0.463214
C27	C	1.049169	-0.383173	-0.463205
C28	C	0.881673	-0.428049	-0.398755
C29	C	0.933624	-0.472906	-0.334295
C30	C	1.043353	-0.472892	-0.334285
C31	C	1.101120	-0.428025	-0.398741
C32	C	1.484919	-0.520788	-0.539248
C33	C	1.479980	-0.598853	-0.544241
C34	C	1.544881	-0.635526	-0.479458
C35	C	1.540243	-0.708877	-0.484160
C36	C	1.470698	-0.745554	-0.553641
C37	C	1.405794	-0.708876	-0.618432
C38	C	1.410439	-0.635526	-0.613734
C39	C	1.453317	-0.967022	-0.571189
C40	C	1.448675	-1.040377	-0.575880
C41	C	1.583126	-1.040373	-0.441609
C42	C	1.587759	-0.967022	-0.436913
C43	C	1.522860	-0.930350	-0.501707
C44	C	1.465953	-0.820530	-0.558447
C45	C	1.527611	-0.855375	-0.496906
C46	C	1.770719	-0.338322	-0.527672
C47	C	1.887495	-0.338328	-0.527678
C48	C	1.496771	-0.338239	-0.801687
C49	C	1.496806	-0.338210	-0.918462
C50	C	1.508529	-0.155115	-0.516045
C51	C	1.513576	-0.077050	-0.511097
C52	C	1.637002	-0.248389	-0.912795
C53	C	1.707115	-0.203468	-0.964821
C54	C	1.707142	-0.203443	-1.074541
C55	C	1.637046	-0.248341	-1.132237
C56	C	1.566933	-0.293262	-1.080211
C57	C	1.566916	-0.293284	-0.970488
C58	C	1.426735	-0.383078	-1.085878
C59	C	1.426711	-0.383108	-0.976158
C60	C	1.356639	-0.427976	-1.143574
C61	C	1.286529	-0.472902	-1.091548
C62	C	1.286506	-0.472926	-0.981821
C63	C	1.356598	-0.428029	-0.924131
C64	C	1.496667	-0.338326	-0.254691
C65	C	1.496848	-0.338157	-0.137904
H66	H	0.886577	-0.509431	-0.281813
N67	N	1.356558	-0.428041	-0.812055
N68	N	1.275544	-0.413355	-0.762146
H69	H	1.275515	-0.413360	-0.682990
N70	N	0.898024	-0.157939	-0.786921
N71	N	0.910015	-0.162688	-0.884153
H72	H	0.872536	-0.130343	-0.930679
H73	H	1.085646	-0.509414	-0.281787
N74	N	0.781238	-0.248606	-0.656603
N75	N	0.734867	-0.208550	-0.714155
H76	H	0.655711	-0.208546	-0.714162
N77	N	1.615920	-0.598054	-0.408494
N78	N	1.620060	-0.532563	-0.404305
H79	H	1.670234	-0.506099	-0.354187
H80	H	1.202105	-0.248565	-0.656564
H81	H	1.229458	-0.509450	-1.138532
H82	H	1.593091	-0.738732	-0.431406
N83	N	1.214869	-0.518801	-0.928680
N84	N	1.118230	-0.514122	-0.940625
H85	H	1.067633	-0.546521	-0.903097
N86	N	1.119842	-0.157901	-0.786865
N87	N	1.217807	-0.157893	-0.786848
H88	H	1.259497	-0.125524	-0.833336
H89	H	1.190463	-0.428006	-0.398733
H90	H	0.792332	-0.428054	-0.398768
N91	N	1.658777	-0.929544	-0.365934
N92	N	1.728293	-0.888538	-0.400299
H93	H	1.778434	-0.862063	-0.350159
N94	N	1.649406	-1.077843	-0.375434
N95	N	1.645253	-1.143333	-0.379632
H96	H	1.692068	-1.169797	-0.332895
N97	N	1.377618	-1.077832	-0.646855
N98	N	1.319674	-1.045083	-0.704696
H99	H	1.269488	-1.071535	-0.754816
H100	H	1.357591	-0.605668	-0.666489
N101	N	1.387018	-0.929581	-0.637379
N102	N	1.324929	-0.962339	-0.699407
H103	H	1.278101	-0.935894	-0.746157
H104	H	1.349174	-0.738744	-0.675009
N105	N	1.598631	-0.817904	-0.425930
N106	N	1.564273	-0.777029	-0.356342
H107	H	1.614427	-0.750558	-0.306211
N108	N	1.394910	-0.858010	-0.629399
N109	N	1.325398	-0.899001	-0.594989
H110	H	1.275225	-0.925474	-0.645099
N111	N	1.636964	-0.248409	-0.800718
N112	N	1.555952	-0.233727	-0.750804
H113	H	1.555925	-0.233739	-0.671648
H114	H	1.764183	-0.166912	-0.917833
N115	N	1.778755	-0.157547	-1.127674
N116	N	1.841326	-0.117459	-1.076155
H117	H	1.891902	-0.085043	-1.113679
N118	N	1.637090	-0.248306	-1.244312
N119	N	1.718105	-0.262978	-1.294228
H120	H	1.718137	-0.262953	-1.373383
H121	H	1.356662	-0.427950	-1.232913
