data_functionalizedCrystal
_audit_creation_method	'MofGen! by Chris Wilmer'
_symmetry_space_group_name_H-M	'P1'
_symmetry_Int_Tables_number	1
_symmetry_cell_setting	triclinic
loop_
_symmetry_equiv_pos_as_xyz
  x,y,z
_cell_length_a	13.033291
_cell_length_b	13.031981
_cell_length_c	12.759393
_cell_angle_alpha	97.216555
_cell_angle_beta	97.211334
_cell_angle_gamma	103.320130
loop_
_atom_site_label
_atom_site_type_symbol
_atom_site_fract_x
_atom_site_fract_y
_atom_site_fract_z
Zn1	Zn	1.570282	-0.216785	0.767190
Zn2	Zn	1.547611	-0.394474	0.565898
Zn3	Zn	1.392637	-0.239380	0.565911
Zn4	Zn	1.370083	-0.416926	0.715955
O5	O	1.470153	-0.316891	0.653739
O6	O	1.715916	-0.221503	0.761924
O7	O	1.527003	-0.373961	0.418865
O8	O	1.435129	-0.087716	0.614059
O9	O	1.699259	-0.352051	0.614036
O10	O	1.565644	-0.071115	0.761937
O11	O	1.413145	-0.260014	0.418874
O12	O	1.241004	-0.281785	0.564379
O13	O	1.396690	-0.390317	0.869787
O14	O	1.224434	-0.412227	0.674616
O15	O	1.543775	-0.243274	0.907428
O16	O	1.505134	-0.546120	0.564356
O17	O	1.374706	-0.562615	0.674603
C18	C	1.194178	-0.351895	0.613940
C19	C	1.076111	-0.366895	0.596935
C20	C	0.909678	-0.324583	0.645045
C21	C	1.031706	-0.309082	0.662619
C22	C	1.435041	-0.592912	0.613945
C23	C	1.420118	-0.710982	0.596971
C24	C	1.477999	-0.755330	0.662627
C25	C	1.462576	-0.877361	0.645084
C26	C	1.747206	-0.281752	0.693693
C27	C	1.865269	-0.266778	0.710720
C28	C	1.470246	-0.316779	0.927798
C29	C	1.470285	-0.316732	1.044586
C30	C	1.505431	-0.039790	0.693714
C31	C	1.520465	0.078295	0.710750
C32	C	1.470132	-0.316919	0.380765
C33	C	1.470336	-0.316641	0.264051
C34	C	1.546879	-0.240155	1.119052
C35	C	1.546903	-0.240107	1.228785
C36	C	1.393735	-0.393222	1.189575
C37	C	1.393707	-0.393264	1.079844
H38	H	0.857359	-0.385543	0.575803
H39	H	1.359140	-0.763359	0.527777
C40	C	1.560373	-0.684577	0.756112
N41	N	1.622421	-0.631287	0.826525
C42	C	1.631108	-0.155959	1.080272
N43	N	1.694549	-0.092536	1.051067
H44	H	1.084024	-0.248108	0.731857
C45	C	1.309441	-0.477506	0.997926
N46	N	1.245972	-0.540952	0.936225
C47	C	1.309502	-0.477402	1.228371
N48	N	1.246056	-0.540807	1.257590
C49	C	1.005439	-0.449264	0.503390
N50	N	0.952208	-0.511305	0.432935
C51	C	1.631164	-0.155868	1.310694
N52	N	1.694634	-0.092416	1.372389
H53	H	0.917590	-0.205808	0.779953
C54	C	1.380223	-0.948108	0.551573
N55	N	1.318207	-1.001394	0.481132
C56	C	1.602843	-0.850958	0.804241
N57	N	1.664890	-0.797671	0.874656
