data_functionalizedCrystal
_audit_creation_method	'MofGen! by Chris Wilmer'
_symmetry_space_group_name_H-M	'P1'
_symmetry_Int_Tables_number	1
_symmetry_cell_setting	triclinic
loop_
_symmetry_equiv_pos_as_xyz
  x,y,z
_cell_length_a	12.996460
_cell_length_b	10.723024
_cell_length_c	10.723024
_cell_angle_alpha	84.467869
_cell_angle_beta	90.004962
_cell_angle_gamma	90.005265
loop_
_atom_site_label
_atom_site_type_symbol
_atom_site_fract_x
_atom_site_fract_y
_atom_site_fract_z
O1	O	-0.085557	-1.657190	-0.175030
O2	O	-0.085561	-1.294038	-0.191783
O3	O	-0.085555	-1.483991	-0.001830
O4	O	-0.085563	-1.467237	-0.364982
O5	O	0.085579	-1.483971	-0.001819
O6	O	0.085573	-1.294018	-0.191772
O7	O	0.085576	-1.657170	-0.175019
Cu8	Cu	0.101201	-1.475592	-0.183395
Cu9	Cu	-0.101185	-1.475616	-0.183407
O10	O	0.085571	-1.467217	-0.364972
C11	C	0.000006	-1.247528	-0.190558
C12	C	0.000005	-1.108974	-0.186911
N13	N	0.243548	-1.475585	-0.183385
N14	N	-0.243532	-1.475633	-0.183407
C15	C	0.663362	-1.475614	-0.183408
C16	C	0.546557	-1.475602	-0.183406
C17	C	0.453459	-1.475600	-0.183398
C18	C	0.336646	-1.475587	-0.183393
C19	C	0.000011	-1.482762	0.044675
C20	C	0.000007	-1.479114	0.183229
C21	C	0.000008	-1.703680	-0.176243
C22	C	0.000002	-1.842234	-0.179891
C23	C	0.000002	-1.033991	-0.293198
C24	C	0.000000	-0.890788	-0.289431
C25	C	0.000003	-1.468447	-0.411477
C26	C	-0.000000	-1.472094	-0.550031
C27	C	0.000006	-1.585401	0.258212
C28	C	0.000003	-1.581634	0.401415
H29	H	0.000006	-1.075814	-0.386984
H30	H	-0.000002	-0.906659	-0.088896
Cl31	Cl	-0.000005	-1.334308	0.247788
H32	H	-0.000006	-0.826355	-0.380421
H33	H	-0.000020	-1.067152	-0.093125
Cl34	Cl	0.000010	-1.722124	0.500888
Cl35	Cl	0.000009	-1.331599	0.350504
H36	H	0.000014	-1.679187	0.216390
