data_functionalizedCrystal
_audit_creation_method	'MofGen! by Chris Wilmer'
_symmetry_space_group_name_H-M	'P1'
_symmetry_Int_Tables_number	1
_symmetry_cell_setting	triclinic
loop_
_symmetry_equiv_pos_as_xyz
  x,y,z
_cell_length_a	17.699083
_cell_length_b	16.776229
_cell_length_c	17.699083
_cell_angle_alpha	89.995692
_cell_angle_beta	96.716985
_cell_angle_gamma	89.999727
loop_
_atom_site_label
_atom_site_type_symbol
_atom_site_fract_x
_atom_site_fract_y
_atom_site_fract_z
O1	O	1.004077	0.066178	-0.095710
O2	O	1.337411	0.399511	0.237624
O3	O	1.670744	0.732845	0.570957
O4	O	0.783699	0.066204	-0.108162
O5	O	1.117032	0.399538	0.225171
O6	O	1.450366	0.732871	0.558505
O7	O	0.900114	0.066183	0.008253
O8	O	1.233448	0.399517	0.341587
O9	O	1.566781	0.732850	0.674920
O10	O	0.887662	0.066199	-0.212125
O11	O	1.220995	0.399532	0.121208
O12	O	1.554329	0.732866	0.454542
O13	O	0.900101	-0.066393	0.008254
O14	O	1.233435	0.266940	0.341587
O15	O	1.566768	0.600274	0.674920
O16	O	0.783686	-0.066372	-0.108162
O17	O	1.117019	0.266961	0.225172
O18	O	1.450352	0.600295	0.558505
O19	O	1.004064	-0.066398	-0.095709
O20	O	1.337398	0.266935	0.237624
O21	O	1.670731	0.600268	0.570957
Zn22	Zn	0.893873	-0.087435	-0.101935
Zn23	Zn	1.227206	0.245899	0.231398
Zn24	Zn	1.560540	0.579232	0.564731
Zn25	Zn	0.893890	0.087241	-0.101936
Zn26	Zn	1.227224	0.420574	0.231397
Zn27	Zn	1.560557	0.753907	0.564731
O28	O	0.887649	-0.066378	-0.212125
O29	O	1.220982	0.266956	0.121209
O30	O	1.554315	0.600289	0.454542
C31	C	0.755495	-0.000081	-0.107716
C32	C	1.088829	0.333253	0.225618
C33	C	1.422162	0.666586	0.558951
C34	C	0.671477	-0.000071	-0.106377
C35	C	1.004811	0.333263	0.226956
C36	C	1.338144	0.666596	0.560290
N37	N	0.893867	-0.206646	-0.101935
N38	N	1.227200	0.126687	0.231399
N39	N	1.560533	0.460021	0.564732
C40	C	0.622856	-0.000066	-0.174710
C41	C	0.956190	0.333267	0.158623
C42	C	1.289523	0.666600	0.491956
C43	C	0.543913	-0.000077	-0.173448
C44	C	0.877246	0.333257	0.159885
C45	C	1.210580	0.666590	0.493218
C46	C	0.513592	-0.000086	-0.103852
C47	C	0.846926	0.333247	0.229482
C48	C	1.180259	0.666581	0.562815
C49	C	0.562219	-0.000093	-0.035513
C50	C	0.895553	0.333240	0.297820
C51	C	1.228886	0.666574	0.631154
C52	C	0.641161	-0.000088	-0.036776
C53	C	0.974495	0.333245	0.296557
C54	C	1.307828	0.666579	0.629890
C55	C	0.243856	-0.000113	-0.030418
C56	C	0.577190	0.333220	0.302915
C57	C	0.910523	0.666554	0.636249
C58	C	0.164908	-0.000115	-0.029160
C59	C	0.498242	0.333218	0.304173
C60	C	0.831575	0.666551	0.637507
C61	C	0.146608	-0.000101	-0.167090
C62	C	0.479942	0.333232	0.166243
C63	C	0.813275	0.666565	0.499577
C64	C	0.225550	-0.000097	-0.168353
C65	C	0.558883	0.333237	0.164980
C66	C	0.892217	0.666570	0.498314
C67	C	0.274170	-0.000108	-0.100015
C68	C	0.607504	0.333226	0.233319
C69	C	0.940837	0.666559	0.566652
C70	C	0.359769	-0.000098	-0.101384
C71	C	0.693103	0.333235	0.231949
C72	C	1.026436	0.666569	0.565282
C73	C	0.427995	-0.000090	-0.102481
C74	C	0.761328	0.333243	0.230852
C75	C	1.094661	0.666577	0.564185
C76	C	0.939682	-0.248362	-0.147783
C77	C	1.273015	0.084971	0.185550
C78	C	1.606348	0.418305	0.518883
C79	C	0.939690	-0.331814	-0.147781
C80	C	1.273023	0.001519	0.185553
C81	C	1.606357	0.334853	0.518886
C82	C	0.893879	-0.373549	-0.101933
C83	C	1.227212	-0.040215	0.231401
C84	C	1.560546	0.293118	0.564734
C85	C	0.848062	-0.331827	-0.056079
C86	C	1.181395	0.001506	0.277255
C87	C	1.514729	0.334840	0.610588
C88	C	0.848058	-0.248376	-0.056078
C89	C	1.181392	0.084957	0.277255
C90	C	1.514725	0.418290	0.610589
C91	C	0.848077	-0.668374	-0.056080
C92	C	1.181411	-0.335041	0.277254
C93	C	1.514744	-0.001707	0.610587
C94	C	0.848083	-0.751831	-0.056085
C95	C	1.181416	-0.418497	0.277248
C96	C	1.514750	-0.085164	0.610581
C97	C	0.939709	-0.751812	-0.147782
C98	C	1.273042	-0.418479	0.185551
C99	C	1.606376	-0.085145	0.518885
C100	C	0.939705	-0.668361	-0.147781
C101	C	1.273039	-0.335028	0.185552
C102	C	1.606372	-0.001695	0.518885
C103	C	0.893892	-0.626647	-0.101925
C104	C	1.227225	-0.293313	0.231408
C105	C	1.560558	0.040020	0.564742
C106	C	0.893884	-0.536158	-0.101927
C107	C	1.227218	-0.202825	0.231406
C108	C	1.560551	0.130508	0.564739
C109	C	0.893882	-0.464036	-0.101933
C110	C	1.227215	-0.130702	0.231400
C111	C	1.560548	0.202631	0.564733
C112	C	1.032268	-0.000112	-0.096156
C113	C	1.365601	0.333222	0.237178
C114	C	1.698934	0.666555	0.570511
C115	C	1.116286	-0.000116	-0.097494
C116	C	1.449619	0.333217	0.235839
C117	C	1.782953	0.666550	0.569172
C118	C	0.899662	-0.000105	0.036451
C119	C	1.232995	0.333228	0.369784
C120	C	1.566328	0.666562	0.703117
C121	C	0.898323	-0.000105	0.120469
C122	C	1.231656	0.333228	0.453802
C123	C	1.564990	0.666562	0.787135
N124	N	0.893903	0.206452	-0.101931
N125	N	1.227236	0.539785	0.231403
N126	N	1.560569	0.873118	0.564736
C127	C	0.888102	-0.000087	-0.240322
C128	C	1.221435	0.333246	0.093011
C129	C	1.554768	0.666579	0.426345
C130	C	0.889440	-0.000082	-0.324340
C131	C	1.222773	0.333251	0.008993
C132	C	1.556107	0.666585	0.342327
C133	C	0.966656	-0.000114	0.169090
C134	C	1.299990	0.333219	0.502423
C135	C	1.633323	0.666552	0.835756
C136	C	0.965394	-0.000107	0.248033
C137	C	1.298727	0.333226	0.581366
C138	C	1.632061	0.666560	0.914700
C139	C	0.895798	-0.000096	0.278354
C140	C	1.229131	0.333237	0.611687
C141	C	1.562464	0.666570	0.945020
C142	C	0.827459	-0.000085	0.229727
C143	C	1.160792	0.333249	0.563060
C144	C	1.494126	0.666582	0.896393
C145	C	0.828722	-0.000086	0.150785
C146	C	1.162055	0.333247	0.484118
C147	C	1.495389	0.666580	0.817451
C148	C	0.822364	-0.000078	0.548090
C149	C	1.155697	0.333256	0.881423
C150	C	1.489030	0.666589	1.214756
C151	C	0.821106	-0.000078	0.627038
C152	C	1.154439	0.333255	0.960371
C153	C	1.487773	0.666588	1.293704
C154	C	0.959036	-0.000099	0.645338
C155	C	1.292369	0.333235	0.978671
C156	C	1.625703	0.666568	1.312004
C157	C	0.960299	-0.000100	0.566396
C158	C	1.293632	0.333233	0.899729
C159	C	1.626966	0.666567	1.233063
C160	C	0.891961	-0.000084	0.517776
C161	C	1.225294	0.333249	0.851109
C162	C	1.558627	0.666582	1.184442
C163	C	0.893330	-0.000090	0.432177
C164	C	1.226664	0.333243	0.765510
C165	C	1.559997	0.666576	1.098843
C166	C	0.894427	-0.000096	0.363951
C167	C	1.227761	0.333238	0.697285
C168	C	1.561094	0.666571	1.030618
H169	H	0.647537	-0.000058	-0.231384
H170	H	0.980870	0.333275	0.101949
H171	H	1.314204	0.666609	0.435283
Br172	Br	1.001871	-0.388426	-0.210006
Br173	Br	1.335204	-0.055093	0.123327
Br174	Br	1.668537	0.278241	0.456660
Br175	Br	0.477929	-0.000068	-0.266191
Br176	Br	0.811263	0.333266	0.067143
Br177	Br	1.144596	0.666599	0.400476
Br178	Br	1.001855	-0.191730	-0.210012
Br179	Br	1.335188	0.141603	0.123321
Br180	Br	1.668521	0.474937	0.456655
H181	H	0.107012	-0.000097	-0.222734
H182	H	0.440345	0.333237	0.110599
H183	H	0.773678	0.666570	0.443933
H184	H	0.764429	-0.000071	0.651721
H185	H	1.097762	0.333262	0.985054
H186	H	1.431096	0.666595	1.318388
H187	H	0.810776	-0.785809	-0.018748
H188	H	1.144110	-0.452475	0.314586
H189	H	1.477443	-0.119142	0.647919
Br190	Br	1.058137	-0.000120	0.314016
Br191	Br	1.391470	0.333214	0.647350
Br192	Br	1.724803	0.666547	0.980683
H193	H	0.810751	-0.214412	-0.018743
H194	H	1.144084	0.118921	0.314590
H195	H	1.477417	0.452254	0.647923
Br196	Br	0.266696	-0.000077	-0.262808
Br197	Br	0.600029	0.333257	0.070525
Br198	Br	0.933362	0.666590	0.403858
H199	H	0.140225	-0.000124	0.027517
H200	H	0.473558	0.333209	0.360850
H201	H	0.806892	0.666543	0.694184
Br202	Br	0.733005	-0.000057	0.270875
Br203	Br	1.066339	0.333277	0.604208
Br204	Br	1.399672	0.666610	0.937542
Br205	Br	0.309831	-0.000130	0.062327
Br206	Br	0.643165	0.333203	0.395660
Br207	Br	0.976498	0.666537	0.728994
Br208	Br	1.061114	-0.000140	0.127948
Br209	Br	1.394447	0.333193	0.461282
Br210	Br	1.727781	0.666526	0.794615
H211	H	1.016971	-0.000113	0.541714
H212	H	1.350305	0.333221	0.875047
H213	H	1.683638	0.666554	1.208380
H214	H	0.537526	-0.000112	0.021154
H215	H	0.870859	0.333222	0.354487
H216	H	1.204193	0.666555	0.687820
Br217	Br	0.707148	-0.000101	0.055966
Br218	Br	1.040482	0.333232	0.389299
Br219	Br	1.373815	0.666565	0.722632
Br220	Br	1.001867	-0.611725	-0.210018
Br221	Br	1.335200	-0.278392	0.123315
Br222	Br	1.668534	0.054941	0.456648
Br223	Br	0.785870	-0.611772	0.006123
Br224	Br	1.119204	-0.278439	0.339456
Br225	Br	1.452537	0.054895	0.672790
H226	H	0.977015	-0.785786	-0.185119
H227	H	1.310348	-0.452453	0.148215
H228	H	1.643681	-0.119119	0.481548
H229	H	0.766718	-0.000065	0.508512
H230	H	1.100052	0.333268	0.841845
H231	H	1.433385	0.666602	1.175179
Br232	Br	0.785892	-0.388466	0.006148
Br233	Br	1.119225	-0.055133	0.339481
Br234	Br	1.452559	0.278201	0.672815
H235	H	1.014680	-0.000107	0.684934
H236	H	1.348013	0.333226	1.018268
H237	H	1.681347	0.666559	1.351601
H238	H	0.773078	-0.000078	0.111198
H239	H	1.106411	0.333255	0.444531
H240	H	1.439745	0.666588	0.777864
