data_functionalizedCrystal
_audit_creation_method	'MofGen! by Chris Wilmer'
_symmetry_space_group_name_H-M	'P1'
_symmetry_Int_Tables_number	1
_symmetry_cell_setting	triclinic
loop_
_symmetry_equiv_pos_as_xyz
  x,y,z
_cell_length_a	23.096457
_cell_length_b	23.096457
_cell_length_c	12.970454
_cell_angle_alpha	60.001576
_cell_angle_beta	89.998496
_cell_angle_gamma	60.000185
loop_
_atom_site_label
_atom_site_type_symbol
_atom_site_fract_x
_atom_site_fract_y
_atom_site_fract_z
Zr1	Zr	0.557780	0.633739	-0.135289
O2	O	0.465335	0.754524	-0.299898
O3	O	0.586118	0.512953	-0.084833
O4	O	0.586120	0.633740	-0.299915
O5	O	0.465332	0.633737	0.084851
O6	O	0.681401	0.633741	-0.299921
O7	O	0.465332	0.633737	-0.084816
O8	O	0.681396	0.417677	0.084821
O9	O	0.465337	0.849802	-0.299891
O10	O	0.669313	0.562636	-0.063312
O11	O	0.598206	0.562634	0.063314
O12	O	0.598209	0.704845	-0.189917
O13	O	0.527103	0.704843	-0.063292
Zr14	Zr	0.709742	0.633741	0.135301
Zr15	Zr	0.709742	0.633741	-0.135299
Zr16	Zr	0.557781	0.633738	0.135311
Zr17	Zr	0.557784	0.785696	-0.135277
Zr18	Zr	0.709738	0.481783	0.135290
O19	O	0.681405	0.754526	0.084846
O20	O	0.681404	0.754527	-0.299912
O21	O	0.465336	0.754523	0.084860
O22	O	0.802188	0.512956	0.299911
O23	O	0.802187	0.512957	-0.084847
O24	O	0.586119	0.512952	0.299925
O25	O	0.802190	0.633743	-0.084838
O26	O	0.681402	0.633740	0.299928
O27	O	0.586122	0.633738	0.299934
O28	O	0.802191	0.633742	0.084829
O29	O	0.586126	0.849804	-0.299899
O30	O	0.681397	0.417676	0.299912
O31	O	0.802186	0.417678	0.299904
O32	O	0.802185	0.417679	0.084813
O33	O	0.465338	0.849801	-0.084800
O34	O	0.586126	0.849803	-0.084808
O35	O	0.669313	0.562635	0.189930
O36	O	0.740420	0.562637	0.063304
O37	O	0.669316	0.704845	-0.063301
O38	O	0.598210	0.704844	0.063324
C39	C	0.633757	0.443664	-0.000008
C40	C	0.633755	0.379154	-0.000013
C41	C	0.670867	0.348854	-0.066115
C42	C	0.670874	0.288232	-0.066104
C43	C	0.633755	0.257924	-0.000009
C44	C	0.596641	0.288228	0.066107
C45	C	0.596641	0.348843	0.066105
N46	N	0.573351	0.195527	-0.009170
N47	N	0.573352	0.137946	-0.009175
C48	C	0.633754	0.075292	0.000002
N49	N	0.694154	0.072401	0.009161
N50	N	0.694151	0.129989	0.009159
C51	C	0.633751	0.192196	0.000001
C52	C	0.670877	-0.020743	-0.066091
C53	C	0.670886	-0.081370	-0.066072
C54	C	0.596647	-0.081367	0.066131
C55	C	0.596645	-0.020747	0.066120
C56	C	0.633758	0.009564	0.000002
C57	C	0.443681	0.633737	0.000019
C58	C	0.379170	0.633736	0.000023
C59	C	0.385979	0.559506	0.066098
C60	C	0.325364	0.559505	0.066103
C61	C	0.257939	0.633737	0.000009
C62	C	0.251132	0.707977	-0.066068
C63	C	0.311747	0.707976	-0.066062
N64	N	0.135144	0.688993	-0.107560
N65	N	0.077565	0.688989	-0.107564
C66	C	0.075306	0.633745	-0.000013
N67	N	0.132808	0.578493	0.107541
N68	N	0.190394	0.578495	0.107542
C69	C	0.192208	0.633747	-0.000005
C70	C	0.016392	0.559509	0.066073
C71	C	-0.044226	0.559511	0.066083
C72	C	-0.118458	0.707985	-0.066101
C73	C	-0.057840	0.707981	-0.066098
C74	C	0.009583	0.633741	-0.000014
C75	C	0.823842	0.633743	-0.000006
C76	C	0.888353	0.633744	-0.000010
C77	C	0.633760	0.633741	-0.338473
C78	C	0.633760	0.633741	-0.453350
C79	C	0.633766	0.823815	0.000021
C80	C	0.633768	0.888325	0.000025
C81	C	0.633762	0.633739	0.338486
C82	C	0.633762	0.633739	0.453362
C83	C	0.823837	0.443668	-0.000020
C84	C	0.888347	0.379159	-0.000029
C85	C	0.633757	0.443663	0.338471
C86	C	0.633756	0.379153	0.453343
C87	C	0.823838	0.443667	0.338459
C88	C	0.888348	0.379158	0.453327
C89	C	0.443685	0.823813	-0.338446
C90	C	0.379175	0.888322	-0.453314
C91	C	0.443686	0.823812	0.000033
C92	C	0.379176	0.888321	0.000042
C93	C	0.633765	0.823816	-0.338459
C94	C	0.633767	0.888326	-0.453331
C95	C	0.881524	0.348864	-0.066137
C96	C	0.942132	0.288260	-0.066171
C97	C	1.009562	0.257947	-0.000089
C98	C	1.016383	0.288247	0.066021
C99	C	0.955776	0.348855	0.066047
C100	C	0.670872	0.348859	0.573392
C101	C	0.670868	0.288253	0.681337
C102	C	0.633752	0.257939	0.669230
C103	C	0.596631	0.288239	0.549168
C104	C	0.596631	0.348848	0.441226
C105	C	0.955766	0.348864	0.441172
C106	C	1.016386	0.288259	0.549093
C107	C	1.009586	0.257945	0.669165
C108	C	0.942161	0.288244	0.681317
C109	C	0.881543	0.348852	0.573398
C110	C	0.311757	0.918623	-0.441160
C111	C	0.251137	0.979246	-0.549080
C112	C	0.257936	1.009564	-0.669153
C113	C	0.325361	0.979261	-0.681305
C114	C	0.385980	0.918643	-0.573386
C115	C	0.385999	0.918622	0.066139
C116	C	0.325390	0.979243	0.066143
C117	C	0.257960	1.009558	0.000057
C118	C	0.251139	0.979255	-0.066048
C119	C	0.311747	0.918639	-0.066059
C120	C	0.670891	0.918622	-0.441183
C121	C	0.670906	0.979228	-0.549107
C122	C	0.633792	1.009542	-0.669177
C123	C	0.596667	0.979240	-0.681322
C124	C	0.596657	0.918631	-0.573399
H125	H	0.701089	0.373530	-0.119948
O126	O	0.706887	0.889115	-0.324461
C127	C	0.698941	0.829105	-0.231791
H128	H	0.648805	0.839061	-0.273843
H129	H	0.694697	0.834023	-0.148553
H130	H	0.746893	0.765707	-0.198042
H131	H	0.826625	0.373545	-0.119965
H132	H	0.566451	1.003931	-0.779098
H133	H	0.071291	0.499058	0.119910
O134	O	1.081823	0.258893	0.537047
C135	C	1.074818	0.298656	0.407923
H136	H	1.020724	0.323625	0.350392
H137	H	1.118284	0.253191	0.392863
H138	H	1.079781	0.351305	0.376103
H139	H	0.701099	0.263590	0.779085
O140	O	0.305240	0.889133	-0.130230
C141	C	0.373187	0.829111	-0.116048
H142	H	0.413378	0.839055	-0.091730
H143	H	0.372505	0.834025	-0.208040
H144	H	0.388621	0.765718	-0.036908
H145	H	0.566411	0.263548	0.539329
O146	O	0.706953	1.008725	-0.537518
C147	C	0.698999	1.068734	-0.658511
H148	H	0.685341	1.058784	-0.730070
H149	H	0.750665	1.063808	-0.657291
H150	H	0.654560	1.132133	-0.686009
O151	O	0.935370	0.258892	-0.130403
C152	C	0.862857	0.298654	-0.188728
H153	H	0.830547	0.323623	-0.136863
H154	H	0.854402	0.253187	-0.185167
H155	H	0.844987	0.351303	-0.291314
O156	O	1.068360	0.199043	-0.000197
C157	C	1.047870	0.178823	-0.072744
H158	H	0.991918	0.195532	-0.077696
H159	H	1.086154	0.110317	-0.026995
H160	H	1.048968	0.214268	-0.172201
H161	H	1.071293	0.263558	0.119823
O162	O	0.560523	0.889328	-0.585434
C163	C	0.527785	0.929074	-0.714556
H164	H	0.520454	0.990502	-0.772094
H165	H	0.473859	0.939538	-0.729621
H166	H	0.562565	0.889323	-0.746366
O167	O	0.560601	-0.110866	0.130228
C168	C	0.568576	-0.170883	0.116088
H169	H	0.582244	-0.160933	0.026819
H170	H	0.516915	-0.165967	0.108527
H171	H	0.613015	-0.234278	0.201482
O172	O	0.633783	0.198983	0.773998
C173	C	0.663316	0.128846	0.773833
H174	H	0.658264	0.147140	0.673042
H175	H	0.633860	0.099502	0.813577
H176	H	0.721704	0.083180	0.834747
O177	O	0.962322	0.378253	0.130380
C178	C	0.929508	0.363405	0.223182
H179	H	0.888187	0.355878	0.195391
H180	H	0.902612	0.417226	0.231233
H181	H	0.971189	0.305107	0.317964
O182	O	0.560570	0.378150	0.324708
C183	C	0.527801	0.338403	0.337186
H184	H	0.556915	0.276976	0.433513
H185	H	0.529804	0.327939	0.259794
H186	H	0.470189	0.378154	0.328340
O187	O	0.962323	0.378410	0.324499
C188	C	0.929517	0.463339	0.258064
H189	H	0.888179	0.489092	0.299204
H190	H	0.902644	0.494711	0.154189
H191	H	0.971199	0.474891	0.267075
O192	O	0.451522	0.889155	-0.584977
C193	C	0.503576	0.829139	-0.463988
H194	H	0.479966	0.839069	-0.392415
H195	H	0.550308	0.834079	-0.465200
H196	H	0.522545	0.765742	-0.436515
O197	O	0.706997	0.008582	-0.130320
C198	C	0.739749	-0.031157	-0.188677
H199	H	0.747098	-0.092595	-0.136833
H200	H	0.793666	-0.041600	-0.185121
H201	H	0.704968	0.008588	-0.291262
H202	H	1.058951	0.208594	0.757030
H203	H	0.701096	0.263557	-0.119934
H204	H	0.936636	0.263553	0.779095
O205	O	0.706932	0.378244	0.585395
C206	C	0.739695	0.338491	0.714510
H207	H	0.710583	0.313508	0.772066
H208	H	0.737683	0.383969	0.729552
H209	H	0.797310	0.285854	0.746318
O210	O	0.332042	1.008692	-0.797886
C211	C	0.369481	1.043715	-0.811836
H212	H	0.364408	1.062025	-0.743636
H213	H	0.346497	1.100242	-0.912860
H214	H	0.427810	0.997202	-0.790294
H215	H	0.826650	0.373509	0.583312
O216	O	0.560646	0.008764	0.130295
C217	C	0.568588	0.068780	0.116091
H218	H	0.618721	0.058826	0.091753
H219	H	0.572835	0.063867	0.208082
H220	H	0.520633	0.132175	0.036958
H221	H	0.701111	-0.106044	-0.119895
H222	H	0.306207	0.893942	-0.343400
H223	H	0.196243	1.003909	-0.539161
H224	H	0.208571	1.058923	-0.757017
H225	H	0.330958	1.003906	0.119978
O226	O	0.560708	0.258672	0.130550
C227	C	0.588022	0.223620	0.259555
H228	H	0.644584	0.205478	0.282881
H229	H	0.587975	0.166984	0.319362
H230	H	0.553597	0.270052	0.280738
O231	O	0.451442	0.889295	0.130361
C232	C	0.444453	0.929035	0.188717
H233	H	0.390365	0.990473	0.136875
H234	H	0.487927	0.939479	0.185159
H235	H	0.449415	0.889290	0.291303
H236	H	0.566418	0.373514	0.119934
H237	H	0.208616	1.058915	0.000076
H238	H	0.196230	1.003947	-0.119854
H239	H	0.330908	0.499057	0.119910
H240	H	0.440873	0.499054	0.119901
H241	H	0.196231	0.768417	-0.119882
H242	H	0.633806	1.058894	-0.757045
H243	H	-0.038675	0.499062	0.119897
O244	O	0.305007	0.780159	-0.130367
C245	C	0.232500	0.845681	-0.188672
H246	H	0.200171	0.823922	-0.201765
H247	H	0.224057	0.897600	-0.284678
H248	H	0.214642	0.868506	-0.126726
H249	H	-0.173355	0.768426	-0.119917
H250	H	-0.063388	0.768426	-0.119912
