data_functionalizedCrystal
_audit_creation_method	'MofGen! by Chris Wilmer'
_symmetry_space_group_name_H-M	'P1'
_symmetry_Int_Tables_number	1
_symmetry_cell_setting	triclinic
loop_
_symmetry_equiv_pos_as_xyz
  x,y,z
_cell_length_a	17.019383
_cell_length_b	19.188930
_cell_length_c	16.098538
_cell_angle_alpha	92.708456
_cell_angle_beta	83.394151
_cell_angle_gamma	83.272360
loop_
_atom_site_label
_atom_site_type_symbol
_atom_site_fract_x
_atom_site_fract_y
_atom_site_fract_z
O1	O	1.053765	0.082473	-0.144764
O2	O	1.387098	0.415806	0.188569
O3	O	1.720431	0.749140	0.521903
O4	O	0.823219	0.094549	-0.128249
O5	O	1.156552	0.427883	0.205084
O6	O	1.489885	0.761216	0.538418
O7	O	0.945144	-0.013153	-0.136967
O8	O	1.278477	0.320180	0.196367
O9	O	1.611811	0.653513	0.529700
O10	O	0.931839	0.190176	-0.136046
O11	O	1.265173	0.523509	0.197287
O12	O	1.598506	0.856843	0.530620
O13	O	0.938022	-0.006887	0.002055
O14	O	1.271355	0.326447	0.335389
O15	O	1.604688	0.659780	0.668722
O16	O	0.816096	0.100816	0.010773
O17	O	1.149430	0.434150	0.344106
O18	O	1.482763	0.767483	0.677440
O19	O	1.046642	0.088740	-0.005742
O20	O	1.379976	0.422073	0.327591
O21	O	1.713309	0.755407	0.660925
Zn22	Zn	0.930239	0.095773	0.024588
Zn23	Zn	1.263572	0.429107	0.357922
Zn24	Zn	1.596905	0.762440	0.691255
Zn25	Zn	0.939622	0.087516	-0.158579
Zn26	Zn	1.272956	0.420850	0.174754
Zn27	Zn	1.606289	0.754183	0.508087
O28	O	0.924717	0.196443	0.002976
O29	O	1.258051	0.529776	0.336309
O30	O	1.591384	0.863110	0.669643
C31	C	0.790162	0.097347	-0.056625
C32	C	1.123495	0.430680	0.276708
C33	C	1.456829	0.764013	0.610042
C34	C	0.702275	0.096336	-0.050328
C35	C	1.035609	0.429670	0.283005
C36	C	1.368942	0.763003	0.616338
C37	C	0.941152	-0.036030	-0.067422
C38	C	1.274485	0.297303	0.265911
C39	C	1.607818	0.630636	0.599244
C40	C	0.939858	-0.113533	-0.067323
C41	C	1.273191	0.219801	0.266011
C42	C	1.606525	0.553134	0.599344
C43	C	0.664861	0.092448	-0.123145
C44	C	0.998194	0.425781	0.210188
C45	C	1.331527	0.759114	0.543521
C46	C	0.582279	0.091510	-0.117217
C47	C	0.915613	0.424844	0.216117
C48	C	1.248946	0.758177	0.549450
C49	C	0.537115	0.094457	-0.038471
C50	C	0.870448	0.427790	0.294863
C51	C	1.203782	0.761123	0.628196
C52	C	0.574535	0.098348	0.034351
C53	C	0.907868	0.431681	0.367685
C54	C	1.241202	0.765014	0.701018
C55	C	0.657114	0.099290	0.028422
C56	C	0.990447	0.432624	0.361756
C57	C	1.323781	0.765957	0.695089
C58	C	0.287585	0.091786	-0.016777
C59	C	0.620918	0.425120	0.316556
C60	C	0.954252	0.758453	0.649890
C61	C	0.205001	0.090842	-0.010853
C62	C	0.538334	0.424175	0.322480
C63	C	0.871667	0.757508	0.655814
C64	C	0.212751	0.084005	-0.162422
C65	C	0.546084	0.417339	0.170911
C66	C	0.879417	0.750672	0.504245
C67	C	0.295332	0.084944	-0.168344
C68	C	0.628665	0.418277	0.164989
C69	C	0.961998	0.751611	0.498322
C70	C	0.332744	0.088839	-0.095522
C71	C	0.666077	0.422172	0.237811
C72	C	0.999411	0.755505	0.571145
C73	C	0.452704	0.093496	-0.032409
C74	C	0.786037	0.426829	0.300924
C75	C	1.119371	0.760163	0.634258
C76	C	0.417153	0.089804	-0.101585
C77	C	0.750486	0.423137	0.231749
C78	C	1.083819	0.756471	0.565082
C79	C	1.011400	-0.158562	-0.072443
C80	C	1.344733	0.174771	0.260890
C81	C	1.678067	0.508104	0.594223
C82	C	1.010185	-0.231385	-0.072370
C83	C	1.343519	0.101948	0.260963
C84	C	1.676852	0.435282	0.594297
C85	C	0.937424	-0.259174	-0.067158
C86	C	1.270757	0.074160	0.266175
C87	C	1.604091	0.407493	0.599508
C88	C	0.865873	-0.214134	-0.062041
C89	C	1.199206	0.119199	0.271292
C90	C	1.532539	0.452533	0.604625
C91	C	0.867090	-0.141314	-0.062124
C92	C	1.200423	0.192020	0.271210
C93	C	1.533756	0.525353	0.604543
N94	N	0.879382	-0.364963	-0.015862
N95	N	1.212716	-0.031630	0.317471
N96	N	1.546049	0.301703	0.650804
N97	N	0.878231	-0.434140	-0.015783
N98	N	1.211565	-0.100807	0.317551
N99	N	1.544898	0.232526	0.650884
C100	C	0.933753	-0.478578	-0.066912
C101	C	1.267086	-0.145244	0.266421
C102	C	1.600419	0.188089	0.599755
N103	N	0.990481	-0.451225	-0.118114
N104	N	1.323814	-0.117892	0.215219
N105	N	1.657147	0.215441	0.548552
N106	N	0.991634	-0.382042	-0.118190
N107	N	1.324968	-0.048709	0.215143
N108	N	1.658301	0.284624	0.548476
C109	C	0.936096	-0.338135	-0.067069
C110	C	1.269430	-0.004801	0.266264
C111	C	1.602763	0.328532	0.599598
C112	C	1.003983	-0.602571	-0.071955
C113	C	1.337316	-0.269237	0.261379
C114	C	1.670650	0.064096	0.594712
C115	C	1.002766	-0.675395	-0.071886
C116	C	1.336099	-0.342061	0.261447
C117	C	1.669432	-0.008728	0.594781
C118	C	0.858450	-0.658142	-0.061549
C119	C	1.191784	-0.324808	0.271784
C120	C	1.525117	0.008525	0.605118
C121	C	0.859670	-0.585320	-0.061626
C122	C	1.193004	-0.251987	0.271707
C123	C	1.526337	0.081347	0.605040
C124	C	0.932438	-0.557539	-0.066825
C125	C	1.265772	-0.224206	0.266508
C126	C	1.599105	0.109128	0.599841
C127	C	1.079699	0.085943	-0.077368
C128	C	1.413032	0.419276	0.255965
C129	C	1.746366	0.752609	0.589299
C130	C	1.167586	0.086953	-0.083670
C131	C	1.500919	0.420286	0.249664
C132	C	1.834253	0.753619	0.582997
C133	C	0.928709	0.219320	-0.066570
C134	C	1.262043	0.552653	0.266763
C135	C	1.595376	0.885986	0.600096
C136	C	0.930004	0.296822	-0.066676
C137	C	1.263337	0.630155	0.266658
C138	C	1.596670	0.963488	0.599991
N139	N	0.923840	0.101408	0.149595
N140	N	1.257173	0.434741	0.482928
N141	N	1.590507	0.768075	0.816262
N142	N	0.946027	0.081876	-0.283586
N143	N	1.279361	0.415209	0.049747
N144	N	1.612694	0.748543	0.383080
C145	C	0.975609	0.055711	0.189479
C146	C	1.308942	0.389044	0.522812
C147	C	1.642276	0.722377	0.856145
C148	C	0.971140	0.059659	0.276987
C149	C	1.304474	0.392992	0.610320
C150	C	1.637807	0.726326	0.943654
C151	C	0.914906	0.109308	0.324610
C152	C	1.248239	0.442642	0.657944
C153	C	1.581573	0.775975	0.991277
C154	C	0.863132	0.155008	0.284721
C155	C	1.196465	0.488341	0.618054
C156	C	1.529798	0.821675	0.951388
C157	C	0.867597	0.151056	0.197214
C158	C	1.200931	0.484389	0.530548
C159	C	1.534264	0.817722	0.863881
C160	C	0.898718	0.123623	0.589018
C161	C	1.232052	0.456957	0.922351
C162	C	1.565385	0.790290	1.255684
C163	C	0.894258	0.127573	0.676530
C164	C	1.227592	0.460907	1.009863
C165	C	1.560925	0.794240	1.343197
C166	C	1.002266	0.032223	0.668790
C167	C	1.335600	0.365556	1.002123
C168	C	1.668933	0.698890	1.335457
C169	C	1.006730	0.028278	0.581282
C170	C	1.340063	0.361611	0.914615
C171	C	1.673397	0.694945	1.247949
C172	C	0.954953	0.073975	0.541401
C173	C	1.288286	0.407308	0.874734
C174	C	1.621620	0.740642	1.208067
C175	C	0.910339	0.113347	0.414058
C176	C	1.243672	0.446680	0.747391
C177	C	1.577005	0.780014	1.080725
C178	C	0.959517	0.069933	0.451955
C179	C	1.292850	0.403266	0.785288
C180	C	1.626184	0.736600	1.118621
H181	H	0.701628	0.090046	-0.187269
H182	H	1.034962	0.423380	0.146065
H183	H	1.368295	0.756713	0.479398
H184	H	0.453928	0.087409	-0.165699
H185	H	0.787262	0.420743	0.167634
H186	H	1.120595	0.754076	0.500968
C187	C	1.021366	0.015314	0.399567
C188	C	1.354700	0.348647	0.732900
C189	C	1.688033	0.681981	1.066234
N190	N	1.067952	-0.025825	0.360101
N191	N	1.401285	0.307508	0.693435
N192	N	1.734618	0.640841	1.026768
H193	H	0.551820	0.088344	-0.176512
H194	H	0.885154	0.421677	0.156821
H195	H	1.218487	0.755010	0.490155
C196	C	0.788384	-0.091778	-0.056488
C197	C	1.121717	0.241555	0.276846
C198	C	1.455051	0.574888	0.610179
N199	N	0.729102	-0.054467	-0.052241
N200	N	1.062435	0.278866	0.281093
N201	N	1.395768	0.612200	0.614426
H202	H	1.013294	0.022448	0.309460
H203	H	1.346627	0.355781	0.642793
H204	H	1.679961	0.689115	0.976126
C205	C	0.801266	0.209617	0.337110
C206	C	1.134599	0.542950	0.670443
C207	C	1.467933	0.876283	1.003777
N208	N	0.754667	0.250749	0.376569
N209	N	1.088000	0.584082	0.709902
N210	N	1.421334	0.917415	1.043236
C211	C	0.810654	0.201332	0.153343
C212	C	1.143987	0.534665	0.486676
C213	C	1.477320	0.867999	0.820009
N214	N	0.767762	0.239203	0.120300
N215	N	1.101095	0.572536	0.453633
N216	N	1.434429	0.905869	0.786966
H217	H	0.801413	-0.548655	-0.057452
H218	H	1.134746	-0.215322	0.275882
H219	H	1.468079	0.118012	0.609215
C220	C	1.068588	-0.026344	0.528903
C221	C	1.401921	0.306990	0.862236
C222	C	1.735255	0.640323	1.195570
N223	N	1.115181	-0.067485	0.489451
N224	N	1.448514	0.265848	0.822784
N225	N	1.781847	0.599181	1.156118
H226	H	1.044420	-0.004982	0.701270
H227	H	1.377753	0.328351	1.034603
H228	H	1.711087	0.661685	1.367936
H229	H	0.799207	-0.680766	-0.057310
H230	H	1.132540	-0.347433	0.276024
H231	H	1.465873	-0.014100	0.609357
H232	H	0.848463	0.168007	0.715301
H233	H	1.181797	0.501340	1.048635
H234	H	1.515130	0.834674	1.381968
H235	H	1.021404	0.015284	0.150709
H236	H	1.354737	0.348617	0.484042
H237	H	1.688071	0.681950	0.817376
H238	H	0.856561	0.160833	0.556553
H239	H	1.189894	0.494166	0.889886
H240	H	1.523227	0.827500	1.223220
C241	C	0.848477	0.167956	0.466452
C242	C	1.181811	0.501289	0.799786
C243	C	1.515144	0.834623	1.133119
N244	N	0.801880	0.209084	0.505919
N245	N	1.135213	0.542418	0.839252
N246	N	1.468546	0.875751	1.172586
H247	H	1.063235	-0.579951	-0.076192
H248	H	1.396569	-0.246617	0.257141
H249	H	1.729902	0.086716	0.590475
H250	H	0.687575	0.102460	0.087718
H251	H	1.020908	0.435793	0.421051
H252	H	1.354242	0.769126	0.754384
H253	H	0.332100	0.082540	-0.232468
H254	H	0.665433	0.415873	0.100866
H255	H	0.998767	0.749206	0.434199
H256	H	0.168227	0.093261	0.053275
H257	H	0.501560	0.426594	0.386608
H258	H	0.834893	0.759927	0.719941
C259	C	0.171590	0.079728	-0.242521
C260	C	0.504923	0.413061	0.090813
C261	C	0.838256	0.746394	0.424146
N262	N	0.140586	0.076508	-0.302854
N263	N	0.473920	0.409842	0.030479
N264	N	0.807253	0.743175	0.363812
C265	C	1.091448	-0.128008	-0.078170
C266	C	1.424781	0.205325	0.255164
C267	C	1.758114	0.538658	0.588497
N268	N	1.151740	-0.104994	-0.082485
N269	N	1.485074	0.228340	0.250848
N270	N	1.818407	0.561673	0.584182
C271	C	0.524851	0.101589	0.120973
C272	C	0.858184	0.434923	0.454307
C273	C	1.191518	0.768256	0.787640
N274	N	0.487430	0.104028	0.186219
N275	N	0.820763	0.437362	0.519552
N276	N	1.154097	0.770695	0.852885
C277	C	0.328729	0.096063	0.063331
C278	C	0.662062	0.429396	0.396664
C279	C	0.995395	0.762729	0.729997
N280	N	0.359721	0.099282	0.123671
N281	N	0.693054	0.432615	0.457005
N282	N	1.026388	0.765948	0.790338
H283	H	1.068446	-0.268056	-0.076543
H284	H	1.401779	0.065278	0.256790
H285	H	1.735112	0.398611	0.590123
H286	H	0.415922	0.095893	0.031706
H287	H	0.749256	0.429226	0.365040
H288	H	1.082589	0.762560	0.698373
H289	H	0.806630	-0.236764	-0.057800
H290	H	1.139963	0.096569	0.275533
H291	H	1.473296	0.429902	0.608867
C292	C	1.081472	-0.724928	-0.077515
C293	C	1.414805	-0.391595	0.255818
C294	C	1.748138	-0.058262	0.589152
N295	N	1.140755	-0.762238	-0.081751
N296	N	1.474088	-0.428904	0.251582
N297	N	1.807421	-0.095571	0.584915
