data_functionalizedCrystal
_audit_creation_method	'MofGen! by Chris Wilmer'
_symmetry_space_group_name_H-M	'P1'
_symmetry_Int_Tables_number	1
_symmetry_cell_setting	triclinic
loop_
_symmetry_equiv_pos_as_xyz
  x,y,z
_cell_length_a	23.532407
_cell_length_b	23.532407
_cell_length_c	9.482900
_cell_angle_alpha	99.270833
_cell_angle_beta	80.775065
_cell_angle_gamma	82.848678
loop_
_atom_site_label
_atom_site_type_symbol
_atom_site_fract_x
_atom_site_fract_y
_atom_site_fract_z
O1	O	0.764174	0.060180	-0.120724
O2	O	0.598314	0.070180	-0.120769
O3	O	0.686243	-0.017750	-0.120719
O4	O	0.676244	0.148110	-0.120775
O5	O	0.668382	0.000182	0.121064
O6	O	0.580453	0.088112	0.121013
O7	O	0.746313	0.078112	0.121058
Cu8	Cu	0.661752	0.084749	0.143112
Cu9	Cu	0.682875	0.063543	-0.142823
O10	O	0.658383	0.166041	0.121008
C11	C	0.568168	0.078891	0.000117
C12	C	0.504952	0.078124	0.000101
C13	C	0.105845	0.125361	0.000151
C14	C	0.046444	0.124650	0.000160
O15	O	0.009697	0.168439	0.000198
N16	N	0.023817	0.072375	0.000175
C17	C	0.060593	0.020808	0.000196
O18	O	0.035892	-0.023721	0.000211
C19	C	0.119992	0.021520	0.000197
C20	C	0.142617	0.073798	0.000167
C21	C	0.128470	0.177634	0.000122
C22	C	0.187867	0.178344	0.000111
C23	C	0.224639	0.126781	0.000127
C24	C	0.202014	0.074508	0.000155
C25	C	0.156766	-0.030045	0.000229
C26	C	0.216168	-0.029328	0.000231
C27	C	0.238793	0.022949	0.000201
C28	C	0.298183	0.023655	0.000160
N29	N	0.320810	0.075931	0.000145
C30	C	0.284038	0.127494	0.000128
C31	C	-0.064150	0.019317	0.000196
C32	C	-0.123547	0.018603	0.000184
C33	C	-0.137692	0.122445	0.000151
C34	C	-0.078293	0.123158	0.000152
C35	C	-0.041522	0.071592	0.000181
C36	C	0.408777	0.128981	0.000102
C37	C	0.468180	0.129687	0.000084
C38	C	0.482319	0.025845	0.000125
C39	C	0.422922	0.025139	0.000136
C40	C	0.386151	0.076712	0.000129
O41	O	0.334964	-0.020110	0.000128
O42	O	0.308746	0.172017	0.000132
C43	C	0.677058	-0.030000	0.000176
C44	C	0.676291	-0.093216	0.000187
C45	C	0.723530	-0.492324	0.000120
C46	C	0.722819	-0.551725	0.000109
O47	O	0.766608	-0.588473	0.000067
N48	N	0.670544	-0.574352	0.000096
C49	C	0.618977	-0.537576	0.000079
O50	O	0.574447	-0.562276	0.000066
C51	C	0.619689	-0.478177	0.000080
C52	C	0.671966	-0.455552	0.000108
C53	C	0.775803	-0.469699	0.000146
C54	C	0.776513	-0.410301	0.000160
C55	C	0.724950	-0.373529	0.000148
C56	C	0.672676	-0.396155	0.000122
C57	C	0.568123	-0.441402	0.000053
C58	C	0.568840	-0.382000	0.000053
C59	C	0.621117	-0.359375	0.000081
C60	C	0.621823	-0.299985	0.000124
N61	N	0.674099	-0.277358	0.000137
C62	C	0.725662	-0.314130	0.000149
C63	C	0.617486	-0.662319	0.000075
C64	C	0.616772	-0.721716	0.000085
C65	C	0.720615	-0.735861	0.000112
C66	C	0.721327	-0.676462	0.000112
C67	C	0.669761	-0.639691	0.000088
C68	C	0.727149	-0.189391	0.000179
C69	C	0.727855	-0.129988	0.000199
C70	C	0.624013	-0.115848	0.000165
C71	C	0.623307	-0.175246	0.000152
C72	C	0.674880	-0.212017	0.000155
O73	O	0.578058	-0.263204	0.000159
O74	O	0.770186	-0.289423	0.000143
C75	C	0.776459	0.069401	0.000169
C76	C	0.839676	0.070167	0.000175
C77	C	0.667569	0.178291	0.000110
C78	C	0.668336	0.241506	0.000089
N79	N	0.646900	0.099664	0.344224
N80	N	0.697732	0.048623	-0.343935
C81	C	0.678490	0.067939	0.416441
C82	C	0.666137	0.080353	0.583852
H83	H	0.098536	0.219626	0.000114
H84	H	0.714679	0.031585	0.354334
H85	H	0.610707	0.136014	0.406333
F86	F	0.618826	0.127867	0.665022
H87	H	-0.034213	-0.022678	0.000206
F88	F	0.562597	-0.623188	0.000063
H89	H	-0.141960	-0.023968	0.000186
H90	H	-0.167643	0.164431	0.000144
H91	H	0.526847	-0.352063	0.000031
F92	F	0.745134	0.001200	0.574898
F93	F	0.132702	-0.085688	0.000240
F94	F	0.492255	0.185329	0.000048
F95	F	0.830689	-0.508827	0.000158
F96	F	0.398842	-0.030500	0.000168
F97	F	0.211938	0.233986	0.000086
F98	F	0.369651	0.183871	0.000096
F99	F	0.255299	-0.084213	0.000265
H100	H	0.512270	-0.016136	0.000133
H101	H	-0.059877	0.165727	0.000136
F102	F	0.782040	-0.228518	0.000181
F103	F	0.783498	-0.105913	0.000228
F104	F	0.832157	-0.386233	0.000158
F105	F	0.776967	-0.652389	0.000142
F106	F	0.775494	-0.775008	0.000117
H107	H	0.574201	-0.740129	0.000087
F108	F	0.512482	-0.465468	0.000017
H109	H	0.580735	-0.193665	0.000170
H110	H	0.582031	-0.085898	0.000160
