data_functionalizedCrystal
_audit_creation_method	'MofGen! by Chris Wilmer'
_symmetry_space_group_name_H-M	'P1'
_symmetry_Int_Tables_number	1
_symmetry_cell_setting	triclinic
loop_
_symmetry_equiv_pos_as_xyz
  x,y,z
_cell_length_a	8.634740
_cell_length_b	11.792241
_cell_length_c	7.088929
_cell_angle_alpha	83.733449
_cell_angle_beta	97.174675
_cell_angle_gamma	92.381861
loop_
_atom_site_label
_atom_site_type_symbol
_atom_site_fract_x
_atom_site_fract_y
_atom_site_fract_z
O1	O	2.033409	0.380327	-0.159001
O2	O	1.584198	0.349270	-0.159002
O3	O	1.819706	0.200770	-0.158988
O4	O	1.797901	0.528827	-0.159015
O5	O	1.851179	0.180872	0.158989
O6	O	1.615671	0.329371	0.158975
O7	O	2.064882	0.360429	0.158976
Cu8	Cu	1.843150	0.343083	0.188009
Cu9	Cu	1.805930	0.366615	-0.188036
O10	O	1.829374	0.508929	0.158962
C11	C	1.542425	0.332285	-0.000014
C12	C	1.371067	0.311307	-0.000014
C13	C	1.834073	0.148386	-0.000000
C14	C	1.829974	0.021943	-0.000002
C15	C	1.822433	-0.209557	-0.000034
C16	C	1.826623	-0.080734	-0.000017
C17	C	2.106654	0.377414	-0.000017
C18	C	2.278012	0.398393	-0.000029
C19	C	1.815007	0.561313	-0.000030
C20	C	1.819105	0.687757	-0.000041
N21	N	1.869340	0.326533	0.452499
N22	N	1.779752	0.383158	-0.452525
H23	H	1.329441	0.488999	-0.000019
H24	H	1.962206	0.267859	0.534160
H25	H	1.319627	0.220697	-0.000061
H26	H	1.686904	0.441838	0.465823
