data_functionalizedCrystal
_audit_creation_method	'MofGen! by Chris Wilmer'
_symmetry_space_group_name_H-M	'P1'
_symmetry_Int_Tables_number	1
_symmetry_cell_setting	triclinic
loop_
_symmetry_equiv_pos_as_xyz
  x,y,z
_cell_length_a	27.732048
_cell_length_b	16.109301
_cell_length_c	15.186229
_cell_angle_alpha	90.005167
_cell_angle_beta	90.002148
_cell_angle_gamma	96.947932
loop_
_atom_site_label
_atom_site_type_symbol
_atom_site_fract_x
_atom_site_fract_y
_atom_site_fract_z
O1	O	0.641340	-0.098925	-0.073118
O2	O	1.141340	0.401075	0.426882
O3	O	0.500610	-0.113967	-0.073145
O4	O	1.000610	0.386033	0.426855
O5	O	0.574841	0.014633	-0.073122
O6	O	1.074841	0.514633	0.426878
O7	O	0.567109	-0.227525	-0.073141
O8	O	1.067109	0.272475	0.426859
O9	O	0.574836	0.014634	0.073335
O10	O	1.074836	0.514634	0.573335
O11	O	0.500605	-0.113965	0.073312
O12	O	1.000605	0.386035	0.573312
O13	O	0.641335	-0.098924	0.073339
O14	O	1.141335	0.401076	0.573339
Zn15	Zn	0.570969	-0.106444	0.096579
Zn16	Zn	1.070969	0.393556	0.596579
Zn17	Zn	0.570976	-0.106446	-0.096385
Zn18	Zn	1.070976	0.393554	0.403615
O19	O	0.567104	-0.227523	0.073316
O20	O	1.067104	0.272477	0.573316
C21	C	0.482599	-0.113650	0.000080
C22	C	0.982599	0.386350	0.500080
C23	C	0.428940	-0.112700	0.000070
C24	C	0.928940	0.387300	0.500070
N25	N	0.570969	-0.106442	0.228272
N26	N	1.070969	0.393558	0.728272
C27	C	0.574526	0.045605	0.000107
C28	C	1.074526	0.545605	0.500107
C29	C	0.573586	0.137888	0.000108
C30	C	1.073586	0.637888	0.500108
C31	C	0.090418	-0.182708	0.000103
C32	C	0.590418	0.317292	0.500103
C33	C	-0.111256	-0.179181	0.000111
C34	C	0.388744	0.320819	0.500111
O35	O	-0.142244	-0.243198	0.000144
O36	O	0.357756	0.256802	0.500144
N37	N	-0.130699	-0.102926	0.000115
N38	N	0.369301	0.397074	0.500115
C39	C	-0.099720	-0.027548	0.000124
C40	C	0.400280	0.472452	0.500124
O41	O	-0.120885	0.037392	0.000137
O42	O	0.379115	0.537392	0.500137
C43	C	0.101954	-0.031077	0.000122
C44	C	0.601954	0.468923	0.500122
C45	C	0.121393	-0.107336	0.000108
C46	C	0.621393	0.392664	0.500108
C47	C	0.109859	-0.258961	0.000090
C48	C	0.609859	0.241039	0.500090
C49	C	0.160274	-0.259842	0.000083
C50	C	0.660274	0.240158	0.500083
C51	C	0.191250	-0.184470	0.000089
C52	C	0.691250	0.315530	0.500089
C53	C	0.171809	-0.108217	0.000102
C54	C	0.671809	0.391783	0.500102
C55	C	0.132932	0.044300	0.000137
C56	C	0.632932	0.544300	0.500137
C57	C	0.183353	0.043411	0.000138
C58	C	0.683353	0.543411	0.500138
C59	C	0.202793	-0.032848	0.000125
C60	C	0.702793	0.467152	0.500125
C61	C	0.253200	-0.033726	0.000100
C62	C	0.753200	0.466274	0.500100
N63	N	0.272643	-0.109981	0.000096
N64	N	0.772643	0.390019	0.500096
C65	C	0.241668	-0.185353	0.000090
C66	C	0.741668	0.314647	0.500090
C67	C	-0.205602	-0.025701	0.000123
C68	C	0.294398	0.474299	0.500123
C69	C	-0.256020	-0.024819	0.000122
C70	C	0.243980	0.475181	0.500122
C71	C	-0.267553	-0.176451	0.000111
C72	C	0.232447	0.323549	0.500111
C73	C	-0.217134	-0.177333	0.000106
C74	C	0.282866	0.322667	0.500106
C75	C	-0.186159	-0.101956	0.000118
C76	C	0.313841	0.398044	0.500118
C77	C	0.347545	-0.187197	0.000075
C78	C	0.847545	0.312803	0.500075
C79	C	0.397965	-0.188072	0.000065
C80	C	0.897965	0.311928	0.500065
C81	C	0.409494	-0.036440	0.000080
C82	C	0.909494	0.463560	0.500080
C83	C	0.359077	-0.035565	0.000086
C84	C	0.859077	0.464435	0.500086
C85	C	0.328104	-0.110950	0.000087
C86	C	0.828104	0.389050	0.500087
O87	O	0.284216	0.030257	0.000077
O88	O	0.784216	0.530257	0.500077
O89	O	0.262842	-0.250283	0.000097
O90	O	0.762842	0.249717	0.500097
C91	C	0.040003	-0.181827	0.000110
C92	C	0.540003	0.318173	0.500110
C93	C	0.020562	-0.105574	0.000122
C94	C	0.520562	0.394426	0.500122
C95	C	0.051537	-0.030202	0.000128
C96	C	0.551537	0.469798	0.500128
C97	C	-0.029856	-0.104692	0.000121
C98	C	0.470144	0.395308	0.500121
C99	C	-0.060831	-0.180064	0.000115
C100	C	0.439169	0.319936	0.500115
C101	C	-0.041388	-0.256318	0.000111
C102	C	0.458612	0.243682	0.500111
C103	C	0.009027	-0.257199	0.000104
C104	C	0.509027	0.242801	0.500104
C105	C	0.032095	0.046052	0.000132
C106	C	0.532095	0.546052	0.500132
C107	C	-0.018322	0.046927	0.000138
C108	C	0.481678	0.546927	0.500138
C109	C	-0.049297	-0.028445	0.000133
C110	C	0.450703	0.471555	0.500133
C111	C	0.659346	-0.099240	0.000112
C112	C	1.159346	0.400760	0.500112
C113	C	0.713005	-0.100191	0.000116
C114	C	1.213005	0.399809	0.500116
C115	C	0.567420	-0.258495	0.000085
C116	C	1.067420	0.241505	0.500085
C117	C	0.568359	-0.350779	0.000078
C118	C	1.068359	0.149221	0.500078
C119	C	0.615450	0.360679	0.000102
C120	C	1.115450	0.860679	0.500102
C121	C	0.614564	0.447388	0.000095
C122	C	1.114564	0.947388	0.500095
C123	C	0.526492	0.426424	0.000082
C124	C	1.026492	0.926424	0.500082
C125	C	0.527378	0.339716	0.000083
C126	C	1.027378	0.839716	0.500083
C127	C	0.571859	0.306846	0.000098
C128	C	1.071859	0.806846	0.500098
C129	C	0.570086	0.480263	0.000089
C130	C	1.070086	0.980263	0.500089
C131	C	0.569125	0.574277	0.000081
C132	C	1.069125	1.074277	0.500081
C133	C	0.572820	0.212826	0.000104
C134	C	1.072820	0.712826	0.500104
N135	N	0.570981	-0.106442	-0.228077
N136	N	1.070981	0.393558	0.271923
C137	C	0.603849	-0.049517	0.454005
C138	C	1.103849	0.450483	0.954005
C139	C	0.603851	-0.049515	0.546194
C140	C	1.103851	0.450485	1.046194
C141	C	0.538096	-0.163370	0.546183
C142	C	1.038096	0.336630	1.046183
C143	C	0.538093	-0.163367	0.453995
C144	C	1.038093	0.336633	0.953995
C145	C	0.570972	-0.106442	0.407908
C146	C	1.070972	0.393558	0.907908
C147	C	0.570977	-0.106442	0.592286
C148	C	1.070977	0.393558	1.092286
C149	C	0.570979	-0.106441	0.692242
C150	C	1.070979	0.393559	1.192242
C151	C	0.570970	-0.106442	0.307946
C152	C	1.070970	0.393558	0.807946
H153	H	0.322331	-0.248584	0.000078
H154	H	0.822331	0.251416	0.500078
H155	H	-0.180386	0.035684	0.000134
H156	H	0.319614	0.535684	0.500134
H157	H	0.511318	-0.209722	0.416461
H158	H	1.011318	0.290278	0.916461
C159	C	0.662514	0.506605	0.000097
C160	C	1.162514	1.006605	0.500097
H161	H	0.655617	0.562953	0.000083
H162	H	1.155617	1.062953	0.500083
H163	H	0.680754	0.496711	0.051172
H164	H	1.180754	0.996711	0.551172
H165	H	0.680751	0.496691	-0.050981
H166	H	1.180751	0.996691	0.449019
C167	C	-0.039702	0.130816	0.000147
C168	C	0.460298	0.630816	0.500147
H169	H	-0.074166	0.120555	0.000144
H170	H	0.425834	0.620555	0.500144
H171	H	-0.029064	0.161821	0.051222
H172	H	0.470936	0.661821	0.551222
H173	H	-0.029071	0.161820	-0.050930
H174	H	0.470929	0.661820	0.449070
H175	H	0.084643	-0.320342	0.000089
H176	H	0.584643	0.179658	0.500089
C177	C	0.477567	0.462584	0.000077
C178	C	0.977567	0.962584	0.500077
H179	H	0.483281	0.521934	0.000087
H180	H	0.983281	1.021934	0.500087
H181	H	0.459617	0.444064	-0.050996
H182	H	0.959617	0.944064	0.449004
H183	H	0.459621	0.444069	0.051156
H184	H	0.959621	0.944069	0.551156
H185	H	0.117113	0.106398	0.000148
H186	H	0.617113	0.606398	0.500148
C187	C	0.640015	0.013101	0.596901
C188	C	1.140015	0.513101	1.096901
H189	H	0.635305	0.004955	0.658406
H190	H	1.135305	0.504955	1.158406
H191	H	0.672271	0.004456	0.581793
H192	H	1.172271	0.504456	1.081793
H193	H	0.634771	0.068529	0.581796
H194	H	1.134771	0.568529	1.081796
C195	C	0.479425	0.280496	0.000080
C196	C	0.979425	0.780496	0.500080
H197	H	0.452807	0.312489	0.000084
H198	H	0.952807	0.812489	0.500084
H199	H	0.477942	0.246230	-0.050992
H200	H	0.977942	0.746230	0.449008
H201	H	0.477942	0.246242	0.051160
H202	H	0.977942	0.746242	0.551160
H203	H	0.511328	-0.209718	0.583716
H204	H	1.011328	0.290282	1.083716
C205	C	0.640010	0.013105	0.403312
C206	C	1.140010	0.513105	0.903312
H207	H	0.659587	0.047013	0.443973
H208	H	1.159587	0.547013	0.943973
H209	H	0.660125	-0.016558	0.367343
H210	H	1.160125	0.483442	0.867343
H211	H	0.622623	0.047511	0.367358
H212	H	1.122623	0.547511	0.867358
H213	H	0.176097	-0.321940	0.000072
H214	H	0.676097	0.178060	0.500072
C215	C	0.419346	-0.271960	0.000055
C216	C	0.919346	0.228040	0.500055
H217	H	0.393675	-0.316720	0.000062
H218	H	0.893675	0.183280	0.500062
H219	H	0.438772	-0.275461	-0.051020
H220	H	0.938772	0.224539	0.448980
H221	H	0.438776	-0.275455	0.051133
H222	H	0.938776	0.224545	0.551133
C223	C	-0.195754	-0.261217	0.000098
C224	C	0.304246	0.238783	0.500098
H225	H	-0.221427	-0.305975	0.000099
H226	H	0.278573	0.194025	0.500099
H227	H	-0.176325	-0.264718	-0.050972
H228	H	0.323675	0.235282	0.449028
H229	H	-0.176328	-0.264715	0.051180
H230	H	0.323672	0.235285	0.551180
H231	H	-0.066617	-0.317688	0.000103
H232	H	0.433383	0.182312	0.500103
H233	H	0.343249	0.026532	0.000084
H234	H	0.843249	0.526532	0.500084
C235	C	-0.301631	-0.259359	0.000111
C236	C	0.198369	0.240641	0.500111
H237	H	-0.334441	-0.247904	0.000119
H238	H	0.165559	0.252096	0.500119
H239	H	-0.295744	-0.290666	-0.050960
H240	H	0.204256	0.209334	0.449040
H241	H	-0.295739	-0.290646	0.051193
H242	H	0.204261	0.209354	0.551193
C243	C	0.443570	0.046465	0.000082
C244	C	0.943570	0.546465	0.500082
H245	H	0.424774	0.092011	0.000082
H246	H	0.924774	0.592011	0.500082
H247	H	0.463481	0.049269	0.051152
H248	H	0.963481	0.549269	0.551152
H249	H	0.463474	0.049267	-0.051000
H250	H	0.963474	0.549267	0.449000
C251	C	-0.277401	0.059064	0.000121
C252	C	0.222599	0.559064	0.500121
H253	H	-0.311865	0.048802	0.000112
H254	H	0.188135	0.548802	0.500112
H255	H	-0.266765	0.090072	0.051195
H256	H	0.233235	0.590072	0.551195
H257	H	-0.266767	0.090064	-0.050957
H258	H	0.233233	0.590064	0.449043
C259	C	0.217424	0.126326	0.000150
C260	C	0.717424	0.626326	0.500150
H261	H	0.250237	0.114886	0.000152
H262	H	0.750237	0.614886	0.500152
H263	H	0.211528	0.157624	-0.050916
H264	H	0.711528	0.657624	0.449084
H265	H	0.211532	0.157616	0.051236
H266	H	0.711532	0.657616	0.551236
C267	C	0.030405	-0.341085	0.000098
C268	C	0.530405	0.158915	0.500098
H269	H	0.004731	-0.385841	0.000104
H270	H	0.504731	0.114159	0.500104
H271	H	0.049832	-0.344591	-0.050974
H272	H	0.549832	0.155409	0.449026
H273	H	0.049833	-0.344583	0.051178
H274	H	0.549833	0.155417	0.551178
H275	H	0.651670	0.333920	0.000113
H276	H	1.151670	0.833920	0.500113
C277	C	0.066161	0.128966	0.000131
C278	C	0.566161	0.628966	0.500131
H279	H	0.047356	0.174501	0.000128
H280	H	0.547356	0.674501	0.500128
H281	H	0.086075	0.131786	0.051199
H282	H	0.586075	0.631786	0.551199
H283	H	0.086063	0.131773	-0.050953
H284	H	0.586063	0.631773	0.449047
