data_functionalizedCrystal
_audit_creation_method	'MofGen! by Chris Wilmer'
_symmetry_space_group_name_H-M	'P1'
_symmetry_Int_Tables_number	1
_symmetry_cell_setting	triclinic
loop_
_symmetry_equiv_pos_as_xyz
  x,y,z
_cell_length_a	23.532407
_cell_length_b	23.532407
_cell_length_c	22.010155
_cell_angle_alpha	90.000423
_cell_angle_beta	89.994271
_cell_angle_gamma	97.151288
loop_
_atom_site_label
_atom_site_type_symbol
_atom_site_fract_x
_atom_site_fract_y
_atom_site_fract_z
O1	O	0.755264	-0.069127	-0.050493
O2	O	1.255264	0.430873	0.449507
O3	O	0.589400	-0.079130	-0.050503
O4	O	1.089400	0.420870	0.449497
O5	O	0.677334	0.008803	-0.050487
O6	O	1.177334	0.508803	0.449513
O7	O	0.667330	-0.157061	-0.050510
O8	O	1.167330	0.342939	0.449490
O9	O	0.677318	0.008790	0.050564
O10	O	1.177318	0.508790	0.550564
O11	O	0.589384	-0.079144	0.050547
O12	O	1.089384	0.420856	0.550547
O13	O	0.755248	-0.069141	0.050557
O14	O	1.255248	0.430859	0.550557
Cu15	Cu	0.672315	-0.074143	0.059779
Cu16	Cu	1.172315	0.425857	0.559779
Cu17	Cu	0.672333	-0.074128	-0.059725
Cu18	Cu	1.172333	0.425872	0.440275
O19	O	0.667314	-0.157074	0.050541
O20	O	1.167314	0.342926	0.550541
C21	C	0.568176	-0.078882	0.000021
C22	C	1.068176	0.421118	0.500021
C23	C	0.504959	-0.078116	0.000017
C24	C	1.004959	0.421884	0.500017
C25	C	0.677071	0.030012	0.000040
C26	C	1.177071	0.530012	0.500040
C27	C	0.676305	0.093229	0.000045
C28	C	1.176305	0.593229	0.500045
N29	N	0.672305	-0.074154	0.143831
N30	N	1.172305	0.425846	0.643831
C31	C	0.238792	-0.022921	0.000041
C32	C	0.738792	0.477079	0.500041
C33	C	0.298192	-0.023632	0.000041
C34	C	0.798192	0.476368	0.500041
O35	O	0.334937	0.020153	0.000068
O36	O	0.834937	0.520153	0.500068
N37	N	0.320818	-0.075909	0.000030
N38	N	0.820818	0.424091	0.500030
C39	C	0.284041	-0.127477	0.000025
C40	C	0.784041	0.372523	0.500025
O41	O	0.308740	-0.172007	0.000016
O42	O	0.808740	0.327993	0.500016
C43	C	0.224642	-0.126765	0.000029
C44	C	0.724642	0.373235	0.500029
C45	C	0.202019	-0.074485	0.000035
C46	C	0.702019	0.425515	0.500035
C47	C	0.216168	0.029354	0.000047
C48	C	0.716168	0.529354	0.500047
C49	C	0.156772	0.030066	0.000046
C50	C	0.656772	0.530066	0.500046
C51	C	0.119999	-0.021499	0.000039
C52	C	0.619999	0.478501	0.500039
C53	C	0.142623	-0.073774	0.000034
C54	C	0.642623	0.426226	0.500034
C55	C	0.187865	-0.178333	0.000029
C56	C	0.687865	0.321667	0.500029
C57	C	0.128463	-0.177616	0.000034
C58	C	0.628463	0.322384	0.500034
C59	C	0.105840	-0.125336	0.000039
C60	C	0.605840	0.374664	0.500039
C61	C	0.046454	-0.124627	0.000026
C62	C	0.546454	0.375373	0.500026
N63	N	0.023828	-0.072351	0.000037
N64	N	0.523828	0.427649	0.500037
C65	C	0.060600	-0.020787	0.000044
C66	C	0.560600	0.479213	0.500044
C67	C	0.408783	-0.128968	0.000016
C68	C	0.908783	0.371032	0.500016
C69	C	0.468181	-0.129681	0.000007
C70	C	0.968181	0.370319	0.500007
C71	C	0.482328	-0.025836	0.000025
C72	C	0.982328	0.474164	0.500025
C73	C	0.422929	-0.025124	0.000029
C74	C	0.922929	0.474876	0.500029
C75	C	0.386157	-0.076692	0.000027
C76	C	0.886157	0.423308	0.500027
C77	C	-0.064136	-0.019297	0.000042
C78	C	0.435864	0.480703	0.500042
C79	C	-0.123538	-0.018590	0.000038
C80	C	0.376462	0.481410	0.500038
C81	C	-0.137680	-0.122435	0.000024
C82	C	0.362320	0.377565	0.500024
C83	C	-0.078284	-0.123142	0.000024
C84	C	0.421716	0.376858	0.500024
C85	C	-0.041512	-0.071568	0.000035
C86	C	0.458488	0.428432	0.500035
O87	O	0.009675	-0.168390	0.000001
O88	O	0.509675	0.331610	0.500001
O89	O	0.035892	0.023737	0.000061
O90	O	0.535892	0.523737	0.500061
C91	C	0.776472	-0.069389	0.000032
C92	C	1.276472	0.430611	0.500032
C93	C	0.839689	-0.070155	0.000032
C94	C	1.339689	0.429845	0.500032
C95	C	0.667577	-0.178283	0.000013
C96	C	1.167577	0.321717	0.500013
C97	C	0.668343	-0.241500	0.000004
C98	C	1.168343	0.258500	0.500004
C99	C	0.723538	0.492332	0.000014
C100	C	1.223538	0.992332	0.500014
C101	C	0.722827	0.551733	0.000010
C102	C	1.222827	1.051733	0.500010
O103	O	0.766613	0.588477	-0.000010
O104	O	1.266613	1.088477	0.499990
N105	N	0.670551	0.574359	0.000007
N106	N	1.170551	1.074359	0.500007
C107	C	0.618982	0.537581	0.000002
C108	C	1.118982	1.037581	0.500002
O109	O	0.574452	0.562281	-0.000001
O110	O	1.074452	1.062281	0.499999
C111	C	0.619695	0.478182	0.000003
C112	C	1.119695	0.978182	0.500003
C113	C	0.671974	0.455559	0.000012
C114	C	1.171974	0.955559	0.500012
C115	C	0.775814	0.469709	0.000023
C116	C	1.275814	0.969709	0.500023
C117	C	0.776525	0.410313	0.000028
C118	C	1.276525	0.910313	0.500028
C119	C	0.724961	0.373540	0.000026
C120	C	1.224961	0.873540	0.500026
C121	C	0.672685	0.396163	0.000018
C122	C	1.172685	0.896163	0.500018
C123	C	0.568127	0.441406	-0.000006
C124	C	1.068127	0.941406	0.499994
C125	C	0.568843	0.382003	-0.000006
C126	C	1.068843	0.882003	0.499994
C127	C	0.621123	0.359381	0.000003
C128	C	1.121123	0.859381	0.500003
C129	C	0.621832	0.299994	0.000021
C130	C	1.121832	0.799994	0.500021
N131	N	0.674109	0.277368	0.000024
N132	N	1.174109	0.777368	0.500024
C133	C	0.725673	0.314141	0.000026
C134	C	1.225673	0.814141	0.500026
C135	C	0.617491	0.662324	0.000001
C136	C	1.117491	1.162324	0.500001
C137	C	0.616778	0.721722	0.000005
C138	C	1.116778	1.221722	0.500005
C139	C	0.720623	0.735869	0.000011
C140	C	1.220623	1.235869	0.500011
C141	C	0.721335	0.676470	0.000011
C142	C	1.221335	1.176470	0.500011
C143	C	0.669767	0.639698	0.000004
C144	C	1.169767	1.139698	0.500004
C145	C	0.727163	0.189404	0.000039
C146	C	1.227163	0.689404	0.500039
C147	C	0.727869	0.130002	0.000047
C148	C	1.227869	0.630002	0.500047
C149	C	0.624025	0.115860	0.000038
C150	C	1.124025	0.615860	0.500038
C151	C	0.623318	0.175257	0.000033
C152	C	1.123318	0.675257	0.500033
C153	C	0.674891	0.212028	0.000031
C154	C	1.174891	0.712028	0.500031
O155	O	0.578069	0.263215	0.000038
O156	O	1.078069	0.763215	0.500038
O157	O	0.770196	0.289433	0.000022
O158	O	1.270196	0.789433	0.500022
N159	N	0.672347	-0.074113	-0.143777
N160	N	1.172347	0.425887	0.356223
C161	C	0.711273	-0.035196	0.563618
C162	C	1.211273	0.464804	1.063618
C163	C	0.711275	-0.035192	0.627226
C164	C	1.211275	0.464808	1.127226
O165	O	0.744383	-0.002077	0.660123
O166	O	1.244383	0.497923	1.160123
N167	N	0.672333	-0.074116	0.659038
N168	N	1.172333	0.425884	1.159038
C169	C	0.633382	-0.113042	0.627240
C170	C	1.133382	0.386958	1.127240
O171	O	0.600259	-0.146148	0.660140
O172	O	1.100259	0.353852	1.160140
C173	C	0.633377	-0.113042	0.563634
C174	C	1.133377	0.386958	1.063634
C175	C	0.672326	-0.074120	0.531824
C176	C	1.172326	0.425880	1.031824
C177	C	0.750217	0.003723	0.531809
C178	C	1.250217	0.503723	1.031809
C179	C	0.750215	0.003718	0.468205
C180	C	1.250215	0.503718	0.968205
C181	C	0.711268	-0.035206	0.436412
C182	C	1.211268	0.464794	0.936412
C183	C	0.672323	-0.074125	0.468221
C184	C	1.172323	0.425875	0.968221
C185	C	0.594424	-0.151965	0.531837
C186	C	1.094424	0.348035	1.031837
C187	C	0.594422	-0.151962	0.468226
C188	C	1.094422	0.348038	0.968226
C189	C	0.633370	-0.113040	0.436417
C190	C	1.133370	0.386960	0.936417
C191	C	0.633374	-0.113054	0.372824
C192	C	1.133374	0.386946	0.872824
N193	N	0.672316	-0.074131	0.341012
N194	N	1.172316	0.425869	0.841012
C195	C	0.711263	-0.035207	0.372805
C196	C	1.211263	0.464793	0.872805
C197	C	0.633395	-0.113037	0.760818
C198	C	1.133395	0.386963	1.260818
C199	C	0.633402	-0.113039	0.824423
C200	C	1.133402	0.386961	1.324423
C201	C	0.711294	-0.035189	0.824404
C202	C	1.211294	0.464811	1.324404
C203	C	0.711290	-0.035189	0.760798
C204	C	1.211290	0.464811	1.260798
C205	C	0.672337	-0.074113	0.729005
C206	C	1.172337	0.425887	1.229005
C207	C	0.711256	-0.035220	0.239234
C208	C	1.211256	0.464780	0.739234
C209	C	0.711252	-0.035230	0.175625
C210	C	1.211252	0.464770	0.675625
C211	C	0.633358	-0.113078	0.175650
C212	C	1.133358	0.386922	0.675650
C213	C	0.633364	-0.113070	0.239253
C214	C	1.133364	0.386930	0.739253
C215	C	0.672315	-0.074137	0.271043
C216	C	1.172315	0.425863	0.771043
O217	O	0.600282	-0.146151	0.339886
O218	O	1.100282	0.353849	0.839886
O219	O	0.744376	-0.002101	0.339898
O220	O	1.244376	0.497899	0.839898
H221	H	-0.034204	0.022699	0.000050
H222	H	0.465796	0.522699	0.500050
N223	N	0.753273	0.006765	0.273517
N224	N	1.253273	0.506765	0.773517
H225	H	0.731665	0.031880	0.299910
H226	H	1.231665	0.531880	0.799910
H227	H	0.777932	0.031375	0.243668
H228	H	1.277932	0.531375	0.743668
N229	N	0.753264	0.006750	0.141316
N230	N	1.253264	0.506750	0.641316
H231	H	0.777935	0.031409	0.171113
H232	H	1.277935	0.531409	0.671113
H233	H	0.731606	0.031817	0.114926
H234	H	1.231606	0.531817	0.614926
N235	N	0.560388	0.746113	0.000009
N236	N	1.060388	1.246113	0.500009
H237	H	0.537818	0.732677	-0.037450
H238	H	1.037818	1.232677	0.462550
H239	H	0.567800	0.789318	0.000031
H240	H	1.067800	1.289318	0.500031
N241	N	-0.177350	-0.178047	0.000021
N242	N	0.322650	0.321953	0.500021
H243	H	-0.154009	-0.211276	0.000018
H244	H	0.345991	0.288724	0.500018
H245	H	-0.202301	-0.180008	-0.037438
H246	H	0.297699	0.319992	0.462562
H247	H	0.486595	-0.172252	-0.000006
H248	H	0.986595	0.327748	0.499994
H249	H	0.819097	0.391900	0.000033
H250	H	1.319097	0.891900	0.500033
H251	H	0.781929	0.035413	0.442310
H252	H	1.281929	0.535413	0.942310
H253	H	0.582043	0.085909	0.000038
H254	H	1.082043	0.585909	0.500038
H255	H	0.206274	-0.220904	0.000022
H256	H	0.706274	0.279096	0.500022
N257	N	0.511734	0.465787	-0.000022
N258	N	1.011734	0.965787	0.499978
H259	H	0.509128	0.490113	-0.037484
H260	H	1.009128	0.990113	0.462516
H261	H	0.509138	0.490088	0.037460
H262	H	1.009138	0.990088	0.537460
N263	N	0.552407	-0.193940	0.566133
N264	N	1.052407	0.306060	1.066133
H265	H	0.558311	-0.188039	0.611254
H266	H	1.058311	0.311961	1.111254
H267	H	0.558748	-0.234311	0.555013
H268	H	1.058748	0.265689	1.055013
H269	H	0.562700	-0.183658	0.442344
H270	H	1.062700	0.316342	0.942344
H271	H	0.817806	0.499644	0.000022
H272	H	1.317806	0.999644	0.500022
H273	H	0.781933	0.035422	0.557689
H274	H	1.281933	0.535422	1.057689
N275	N	0.561868	0.622663	-0.000002
N276	N	1.061868	1.122663	0.499998
H277	H	0.528647	0.646015	-0.000003
H278	H	1.028647	1.146015	0.499997
H279	H	0.559893	0.597711	0.037459
H280	H	1.059893	1.097711	0.537459
H281	H	0.743004	-0.003496	0.734902
H282	H	1.243004	0.496504	1.234902
H283	H	0.770443	0.111587	0.000056
H284	H	1.270443	0.611587	0.500056
H285	H	-0.141954	0.023984	0.000041
H286	H	0.358046	0.523984	0.500041
N287	N	0.513226	0.342337	-0.000001
N288	N	1.013226	0.842337	0.499999
H289	H	0.511209	0.317371	-0.037457
H290	H	1.011209	0.817371	0.462543
H291	H	0.480032	0.365721	0.000019
H292	H	0.980032	0.865721	0.500019
H293	H	0.512280	0.016150	0.000030
H294	H	1.012280	0.516150	0.500030
N295	N	0.255821	0.084978	0.000057
N296	N	0.755821	0.584978	0.500057
H297	H	0.248571	0.107801	-0.037400
H298	H	0.748571	0.607801	0.462600
H299	H	0.296870	0.076561	0.000076
H300	H	0.796870	0.576561	0.500076
H301	H	0.743006	-0.003494	0.850302
H302	H	1.243006	0.496506	1.350302
N303	N	0.777722	0.652072	0.000021
N304	N	1.277722	1.152072	0.500021
H305	H	0.810276	0.684385	0.000025
H306	H	1.310276	1.184385	0.500025
H307	H	0.780289	0.627737	-0.037440
H308	H	1.280289	1.127737	0.462560
H309	H	0.601692	-0.144739	0.850318
H310	H	1.101692	0.355261	1.350318
N311	N	0.566930	0.199657	0.000028
N312	N	1.066930	0.699657	0.500028
H313	H	0.564327	0.223982	-0.037436
H314	H	1.064327	0.723982	0.462564
H315	H	0.564347	0.223963	0.037507
H316	H	1.064347	0.723963	0.537507
N317	N	0.591381	-0.155023	0.726529
N318	N	1.091381	0.344977	1.226529
H319	H	0.566715	-0.179677	0.756339
H320	H	1.066715	0.320323	1.256339
H321	H	0.613034	-0.180094	0.700135
H322	H	1.113034	0.319906	1.200135
N323	N	0.591366	-0.155058	0.273566
N324	N	1.091366	0.344942	0.773566
H325	H	0.566696	-0.179719	0.243771
H326	H	1.066696	0.320281	0.743771
H327	H	0.566312	-0.133383	0.299958
H328	H	1.066312	0.366617	0.799958
N329	N	0.591353	-0.155059	0.141352
N330	N	1.091353	0.344941	0.641352
H331	H	0.597262	-0.149150	0.096231
H332	H	1.097262	0.350850	0.596231
H333	H	0.550992	-0.148679	0.152475
H334	H	1.050992	0.351321	0.652475
H335	H	0.378846	-0.170964	0.000010
H336	H	0.878846	0.329036	0.500010
H337	H	0.138359	0.072637	0.000053
H338	H	0.638359	0.572637	0.500053
H339	H	0.404515	0.017447	0.000034
H340	H	0.904515	0.517447	0.500034
H341	H	0.098525	-0.219610	0.000035
H342	H	0.598525	0.280390	0.500035
N343	N	0.776241	0.775537	0.000014
N344	N	1.276241	1.275537	0.500014
H345	H	0.767853	0.816598	0.000010
H346	H	1.267853	1.316598	0.500010
H347	H	0.799045	0.768246	-0.037446
H348	H	1.299045	1.268246	0.462554
H349	H	0.769159	0.219337	0.000035
H350	H	1.269159	0.719337	0.500035
N351	N	-0.053879	-0.179527	0.000010
N352	N	0.446121	0.320473	0.500010
H353	H	-0.086190	-0.212084	0.000003
H354	H	0.413810	0.287916	0.500003
H355	H	-0.029550	-0.182089	0.037473
H356	H	0.470450	0.317911	0.537473
