data_functionalizedCrystal
_audit_creation_method	'MofGen! by Chris Wilmer'
_symmetry_space_group_name_H-M	'P1'
_symmetry_Int_Tables_number	1
_symmetry_cell_setting	triclinic
loop_
_symmetry_equiv_pos_as_xyz
  x,y,z
_cell_length_a	11.792254
_cell_length_b	11.792241
_cell_length_c	16.176319
_cell_angle_alpha	89.993071
_cell_angle_beta	89.992652
_cell_angle_gamma	84.196007
loop_
_atom_site_label
_atom_site_type_symbol
_atom_site_fract_x
_atom_site_fract_y
_atom_site_fract_z
O1	O	1.506905	0.155639	-0.068746
O2	O	1.840238	0.488973	0.264587
O3	O	2.173571	0.822306	0.597920
O4	O	1.176565	0.171657	-0.068748
O5	O	1.509899	0.504990	0.264585
O6	O	1.843232	0.838324	0.597919
O7	O	1.349751	-0.001522	-0.068741
O8	O	1.683085	0.331811	0.264592
O9	O	2.016418	0.665145	0.597925
O10	O	1.333719	0.328818	-0.068753
O11	O	1.667052	0.662152	0.264580
O12	O	2.000385	0.995485	0.597914
O13	O	1.349727	-0.001533	0.068752
O14	O	1.683061	0.331800	0.402085
O15	O	2.016394	0.665133	0.735419
O16	O	1.176541	0.171646	0.068745
O17	O	1.509875	0.504979	0.402078
O18	O	1.843208	0.838313	0.735412
O19	O	1.506881	0.155628	0.068747
O20	O	1.840214	0.488961	0.402080
O21	O	2.173547	0.822295	0.735414
Cu22	Cu	1.341709	0.163636	0.081300
Cu23	Cu	1.675042	0.496969	0.414634
Cu24	Cu	2.008375	0.830303	0.747967
Cu25	Cu	1.341737	0.163649	-0.081301
Cu26	Cu	1.675071	0.496983	0.252032
Cu27	Cu	2.008404	0.830316	0.585365
O28	O	1.333695	0.328807	0.068740
O29	O	1.667028	0.662140	0.402074
O30	O	2.000361	0.995474	0.735407
C31	C	1.134263	0.170642	-0.000002
C32	C	1.467596	0.503976	0.333332
C33	C	1.800929	0.837309	0.666665
C34	C	1.008250	0.167622	-0.000002
C35	C	1.341583	0.500956	0.333331
C36	C	1.674916	0.834289	0.666664
C37	C	0.905913	0.165168	-0.000006
C38	C	1.239247	0.498502	0.333328
C39	C	1.572580	0.831835	0.666661
C40	C	0.777527	0.162100	-0.000006
C41	C	1.110860	0.495433	0.333327
C42	C	1.444193	0.828767	0.666661
C43	C	1.348732	-0.043819	0.000005
C44	C	1.682066	0.289515	0.333338
C45	C	2.015399	0.622848	0.666672
C46	C	1.345718	-0.169832	0.000004
C47	C	1.679051	0.163501	0.333338
C48	C	2.012385	0.496834	0.666671
C49	C	1.340175	-0.400545	-0.000010
C50	C	1.673508	-0.067212	0.333324
C51	C	2.006842	0.266122	0.666657
C52	C	1.343255	-0.272160	-0.000002
C53	C	1.676588	0.061174	0.333331
C54	C	2.009921	0.394507	0.666665
C55	C	1.549183	0.156643	-0.000001
C56	C	1.882517	0.489976	0.333332
C57	C	2.215850	0.823309	0.666665
C58	C	1.675196	0.159663	-0.000006
C59	C	2.008530	0.492996	0.333327
C60	C	2.341863	0.826329	0.666661
C61	C	1.334714	0.371104	-0.000008
C62	C	1.668047	0.704437	0.333325
C63	C	2.001380	1.037770	0.666659
C64	C	1.337728	0.497118	-0.000013
C65	C	1.671061	0.830451	0.333321
C66	C	2.004395	1.163784	0.666654
N67	N	1.341697	0.163626	0.195666
N68	N	1.675030	0.496959	0.528999
N69	N	2.008364	0.830292	0.862332
N70	N	1.341758	0.163650	-0.195667
N71	N	1.675091	0.496984	0.137667
N72	N	2.008425	0.830317	0.471000
C73	C	1.418407	0.086974	0.238933
C74	C	1.751741	0.420307	0.572266
C75	C	2.085074	0.753640	0.905599
C76	C	1.418413	0.086973	0.325480
C77	C	1.751746	0.420306	0.658813
C78	C	2.085080	0.753639	0.992146
C79	C	1.341713	0.163630	0.368758
C80	C	1.675047	0.496963	0.702091
C81	C	2.008380	0.830297	1.035425
C82	C	1.264995	0.240285	0.325485
C83	C	1.598328	0.573619	0.658818
C84	C	1.931661	0.906952	0.992152
C85	C	1.264984	0.240280	0.238939
C86	C	1.598318	0.573614	0.572273
C87	C	1.931651	0.906947	0.905606
C88	C	1.265034	0.240307	0.674513
C89	C	1.598367	0.573640	1.007846
C90	C	1.931700	0.906974	1.341180
C91	C	1.265052	0.240309	0.761065
C92	C	1.598386	0.573642	1.094398
C93	C	1.931719	0.906975	1.427731
C94	C	1.418462	0.086999	0.761054
C95	C	1.751796	0.420333	1.094387
C96	C	2.085129	0.753666	1.427720
C97	C	1.418452	0.086994	0.674508
C98	C	1.751785	0.420328	1.007841
C99	C	2.085119	0.753661	1.341175
C100	C	1.341730	0.163645	0.631242
C101	C	1.675064	0.496979	0.964576
C102	C	2.008397	0.830312	1.297909
C103	C	1.341723	0.163644	0.537398
C104	C	1.675057	0.496978	0.870732
C105	C	2.008390	0.830311	1.204065
C106	C	1.341725	0.163637	0.462601
C107	C	1.675058	0.496971	0.795934
C108	C	2.008391	0.830304	1.129267
H109	H	1.480870	0.024556	0.203701
H110	H	1.814203	0.357889	0.537034
H111	H	2.147537	0.691222	0.870368
Br112	Br	1.160866	0.344305	0.180219
Br113	Br	1.494199	0.677639	0.513553
Br114	Br	1.827532	1.010972	0.846886
Br115	Br	1.522517	-0.017060	0.384202
Br116	Br	1.855850	0.316273	0.717536
Br117	Br	2.189184	0.649606	1.050869
Br118	Br	1.160954	0.344352	0.819800
Br119	Br	1.494287	0.677685	1.153133
Br120	Br	1.827620	1.011018	1.486467
H121	H	1.480912	0.024577	0.639273
H122	H	1.814245	0.357910	0.972607
H123	H	2.147579	0.691243	1.305940
Br124	Br	1.522586	-0.017031	0.819775
Br125	Br	1.855920	0.316302	1.153108
Br126	Br	2.189253	0.649635	1.486442
Br127	Br	1.160917	0.344332	0.615800
Br128	Br	1.494250	0.677665	0.949133
Br129	Br	1.827584	1.010999	1.282467
H130	H	1.202539	0.302697	0.360727
H131	H	1.535872	0.636031	0.694060
H132	H	1.869205	0.969364	1.027394
