data_functionalizedCrystal
_audit_creation_method	'MofGen! by Chris Wilmer'
_symmetry_space_group_name_H-M	'P1'
_symmetry_Int_Tables_number	1
_symmetry_cell_setting	triclinic
loop_
_symmetry_equiv_pos_as_xyz
  x,y,z
_cell_length_a	17.917603
_cell_length_b	14.395555
_cell_length_c	17.917559
_cell_angle_alpha	63.035891
_cell_angle_beta	90.240464
_cell_angle_gamma	57.013208
loop_
_atom_site_label
_atom_site_type_symbol
_atom_site_fract_x
_atom_site_fract_y
_atom_site_fract_z
Zr1	Zr	0.757834	0.924046	-0.060820
O2	O	0.638416	1.117838	-0.180240
O3	O	0.794438	0.730252	-0.024210
O4	O	0.801552	0.906367	-0.173122
O5	O	0.625694	0.955669	0.086134
O6	O	0.930241	0.892424	-0.167508
O7	O	0.631302	0.941723	-0.031328
O8	O	0.917515	0.577387	0.098867
O9	O	0.638420	1.270707	-0.180241
O10	O	0.906093	0.799558	-0.004409
O11	O	0.805868	0.820371	0.079063
O12	O	0.814245	1.027724	-0.096261
O13	O	0.714020	1.048537	-0.012790
Zr14	Zr	0.954133	0.924052	0.135471
Zr15	Zr	0.963077	0.901809	-0.051868
Zr16	Zr	0.748890	0.946289	0.126519
Zr17	Zr	0.757840	1.167854	-0.060823
Zr18	Zr	0.954127	0.680244	0.135474
O19	O	0.917529	1.117846	0.098861
O20	O	0.930246	1.086219	-0.167510
O21	O	0.625699	1.149464	0.086132
O22	O	1.073551	0.730261	0.254891
O23	O	1.086268	0.698634	-0.011481
O24	O	0.781721	0.761879	0.242161
O25	O	1.086273	0.892429	-0.011483
O26	O	0.910415	0.941731	0.247773
O27	O	0.781726	0.955674	0.242159
O28	O	1.080665	0.906375	0.105979
O29	O	0.801561	1.253031	-0.173125
O30	O	0.910406	0.595067	0.247776
O31	O	1.073547	0.577392	0.254892
O32	O	1.080656	0.559711	0.105983
O33	O	0.631311	1.288387	-0.031332
O34	O	0.794452	1.270711	-0.024216
O35	O	0.897722	0.820374	0.170912
O36	O	0.997947	0.799561	0.087441
O37	O	0.906099	1.027727	-0.004411
O38	O	0.805874	1.048540	0.079060
C39	C	0.599255	0.951864	0.026127
C40	C	0.512123	0.961305	0.022327
C41	C	0.855976	0.619082	0.037329
C42	C	0.855973	0.515579	0.037330
C43	C	0.352611	0.978549	0.015386
C44	C	0.359349	0.869555	0.059263
C45	C	0.270591	0.879150	0.055401
C46	C	0.441376	0.968957	0.019247
C47	C	0.801329	0.466335	0.082845
C48	C	0.767314	0.474916	-0.001240
C49	C	0.889966	0.322602	0.121389
C50	C	0.821908	0.525587	-0.046806
C51	C	0.944606	0.373210	0.075884
C52	C	0.910617	0.381830	-0.008249
C53	C	1.112712	0.896234	0.048524
C54	C	1.199844	0.886794	0.052324
C55	C	0.867171	0.896227	-0.197007
C56	C	0.870968	0.886784	-0.276537
C57	C	0.855991	1.229016	0.037322
C58	C	0.855994	1.332519	0.037321
C59	C	0.834046	0.978550	-0.503179
C60	C	0.877919	0.869554	-0.422167
C61	C	0.874050	0.879144	-0.341132
C62	C	0.837914	0.968962	-0.584223
C63	C	0.844796	0.951872	0.271658
C64	C	0.840999	0.961314	0.351188
C65	C	1.112704	0.591267	0.048527
C66	C	1.199833	0.478324	0.052329
C67	C	0.844788	0.646905	0.271661
C68	C	0.840988	0.552844	0.351192
C69	C	1.101517	0.619089	0.282859
C70	C	1.184849	0.515589	0.366191
C71	C	0.610450	1.229009	-0.208208
C72	C	0.527118	1.332509	-0.291540
C73	C	0.599263	1.256831	0.026124
C74	C	0.512134	1.369774	0.022322
C75	C	0.867179	1.201194	-0.197010
C76	C	0.870979	1.295254	-0.276541
C77	C	1.192803	0.425282	0.006162
C78	C	1.274663	0.319172	0.009716
C79	C	1.363551	0.266100	0.059443
C80	C	1.370579	0.319151	0.105611
C81	C	1.288721	0.425265	0.102052
C82	C	0.887150	0.508675	0.436494
C83	C	0.883576	0.420310	0.511229
C84	C	0.833845	0.376109	0.500661
C85	C	0.787677	0.420288	0.415350
C86	C	0.791246	0.508658	0.340617
C87	C	1.276307	0.456119	0.361754
C88	C	1.354614	0.358881	0.440046
C89	C	1.341461	0.321108	0.522775
C90	C	1.249993	0.380589	0.527210
C91	C	1.171688	0.477832	0.448919
C92	C	0.435660	1.391991	-0.287103
C93	C	0.357353	1.489259	-0.365395
C94	C	0.370506	1.527037	-0.448124
C95	C	0.461974	1.467550	-0.452559
C96	C	0.540279	1.370290	-0.374268
C97	C	0.519164	1.422825	0.068482
C98	C	0.437305	1.528960	0.064907
C99	C	0.348417	1.582035	0.015177
C100	C	0.341389	1.528979	-0.030988
C101	C	0.423247	1.422853	-0.027418
C102	C	0.920718	1.339426	-0.265945
C103	C	0.924307	1.427792	-0.340665
C104	C	0.878149	1.471990	-0.425981
C105	C	0.828408	1.427809	-0.436575
C106	C	0.824826	1.339438	-0.361856
H107	H	0.280188	1.079058	-0.025077
H108	H	0.881073	1.543948	-0.486815
O109	O	1.456945	0.267383	0.154034
C110	C	1.504220	0.133272	0.220422
H111	H	1.450271	0.114456	0.235104
H112	H	1.546590	0.107619	0.283515
H113	H	1.554026	0.069296	0.196331
O114	O	0.605448	1.371278	0.116916
C115	C	0.611683	1.324474	0.206699
H116	H	0.537630	1.377286	0.210970
H117	H	0.653408	1.344465	0.236606
H118	H	0.649053	1.213829	0.245122
H119	H	1.429084	0.310460	0.436419
H120	H	1.239298	0.349820	0.594579
O121	O	0.785640	1.098445	-0.513281
C122	C	0.713414	1.117839	-0.475789
H123	H	0.694603	1.052731	-0.473250
H124	H	0.648349	1.225735	-0.518237
H125	H	0.738883	1.090735	-0.405567
H126	H	1.120434	0.468490	-0.034342
O127	O	1.417635	0.226577	0.598738
C128	C	1.501175	0.182216	0.577070
H129	H	1.485659	0.202874	0.507271
H130	H	1.556743	0.071640	0.626793
H131	H	1.528675	0.236260	0.579625
H132	H	0.431777	0.769037	0.099728
H133	H	1.294457	0.468439	0.139652
H134	H	0.921176	0.384350	0.580685
O135	O	0.745995	0.510402	0.128561
C136	C	0.652609	0.565207	0.087606
H137	H	0.640796	0.596810	0.015018
H138	H	0.601046	0.654685	0.091321
H139	H	0.640470	0.488445	0.123361
H140	H	0.417510	1.379663	-0.065004
H141	H	0.692367	0.516896	-0.033857
H142	H	1.097221	0.526241	0.452544
H143	H	1.287034	0.486857	0.294399
H144	H	0.424933	1.361240	-0.219748
O145	O	0.474802	1.503966	-0.532899
C146	C	0.525679	1.393532	-0.540230
H147	H	0.567724	1.299375	-0.470973
H148	H	0.576148	1.398250	-0.577522
H149	H	0.474307	1.393673	-0.578122
O150	O	0.924200	0.218960	0.206150
C151	C	0.924565	0.121458	0.204951
H152	H	0.870770	0.168659	0.140192
H153	H	0.905295	0.073891	0.263574
H154	H	0.997923	0.042983	0.210119
O155	O	0.787644	0.629102	-0.131630
C156	C	0.857158	0.646577	-0.149409
H157	H	0.909140	0.601616	-0.084220
H158	H	0.822014	0.756417	-0.193480
H159	H	0.896530	0.595831	-0.184903
H160	H	0.790829	1.463809	-0.506050
O161	O	0.268573	1.546851	-0.360916
C162	C	0.273766	1.492653	-0.271107
H163	H	0.344922	1.390898	-0.228086
H164	H	0.214559	1.483480	-0.263246
H165	H	0.266017	1.559753	-0.249366
H166	H	0.614746	1.321859	-0.377891
H167	H	0.306737	1.606233	-0.511867
O168	O	0.444023	1.580468	0.109824
C169	C	0.396619	1.569109	0.172125
H170	H	0.341725	1.560804	0.150445
H171	H	0.360029	1.660071	0.176096
H172	H	0.449769	1.477272	0.240212
O173	O	0.746290	0.551763	0.257732
C174	C	0.678137	0.690201	0.208668
H175	H	0.657181	0.724630	0.256324
H176	H	0.613167	0.720484	0.164438
H177	H	0.708951	0.737435	0.165568
H178	H	0.784319	1.303483	-0.370496
O179	O	0.830258	0.290304	0.573165
C180	C	0.776490	0.260723	0.545557
H181	H	0.726763	0.343558	0.474270
H182	H	0.733441	0.250539	0.591001
H183	H	0.825786	0.164155	0.549075
H184	H	0.281771	1.668450	0.012278
H185	H	0.269005	1.572210	-0.071477
H186	H	0.958305	1.303454	-0.196483
O187	O	0.972491	1.470853	-0.330323
C188	C	0.933425	1.536549	-0.285820
H189	H	0.857306	1.573288	-0.295407
H190	H	0.934917	1.623974	-0.314189
H191	H	0.976462	1.465510	-0.211880
O192	O	0.965625	0.338423	-0.054375
C193	C	0.929481	0.444644	-0.142928
H194	H	0.851330	0.524690	-0.160302
H195	H	0.938327	0.408449	-0.189531
H196	H	0.969559	0.486687	-0.150557
H197	H	1.268922	0.275991	-0.027881
O198	O	1.033936	0.323272	0.114901
C199	C	1.037590	0.334262	0.188897
H200	H	0.963856	0.416013	0.180629
H201	H	1.087352	0.358846	0.193861
H202	H	1.064515	0.236818	0.252036
O203	O	0.926113	0.749744	-0.412183
C204	C	0.919192	0.766732	-0.496500
H205	H	0.853794	0.870574	-0.548875
H206	H	0.913382	0.691431	-0.495973
H207	H	0.984802	0.751930	-0.512833
O208	O	1.442968	0.162977	0.062839
C209	C	1.417691	0.127571	0.011407
H210	H	1.342285	0.162162	0.004679
H211	H	1.467887	0.015813	0.045342
H212	H	1.422463	0.176103	-0.057385
H213	H	0.927647	0.544654	0.445115
H214	H	0.747187	0.384286	0.406759
