data_functionalizedCrystal
_audit_creation_method	'MofGen! by Chris Wilmer'
_symmetry_space_group_name_H-M	'P1'
_symmetry_Int_Tables_number	1
_symmetry_cell_setting	triclinic
loop_
_symmetry_equiv_pos_as_xyz
  x,y,z
_cell_length_a	15.995350
_cell_length_b	10.540539
_cell_length_c	14.472311
_cell_angle_alpha	89.997978
_cell_angle_beta	90.007428
_cell_angle_gamma	95.991067
loop_
_atom_site_label
_atom_site_type_symbol
_atom_site_fract_x
_atom_site_fract_y
_atom_site_fract_z
O1	O	0.118004	-1.684264	0.076792
O2	O	0.129121	-1.314698	0.076803
O3	O	0.001735	-1.509583	0.076797
O4	O	0.245390	-1.489379	0.076799
O5	O	0.001719	-1.509570	-0.076885
O6	O	0.129105	-1.314685	-0.076879
O7	O	0.117988	-1.684250	-0.076890
Cu8	Cu	0.123545	-1.499466	-0.090917
Cu9	Cu	0.123564	-1.499482	0.090830
O10	O	0.245374	-1.489365	-0.076883
C11	C	0.128280	-1.267400	-0.000036
C12	C	0.125785	-1.126486	-0.000032
C13	C	-0.029472	-1.508741	-0.000043
C14	C	-0.122438	-1.506237	-0.000037
N15	N	0.123531	-1.499464	-0.218747
C16	C	-0.460239	-1.497244	-0.000040
C17	C	-0.413635	-1.358450	0.000309
C18	C	-0.316930	-1.360955	-0.000038
C19	C	-0.292652	-1.501705	-0.000038
C20	C	-0.333329	-1.570155	-0.087798
C21	C	-0.429986	-1.566668	-0.087872
C22	C	-0.430308	-1.569551	0.086893
C23	C	-0.333363	-1.569518	0.088053
C24	C	-0.197939	-1.504233	-0.000040
C25	C	-0.554952	-1.494719	-0.000044
C26	C	0.276581	-1.490207	-0.000042
C27	C	0.369547	-1.492711	-0.000041
C28	C	0.118829	-1.731549	-0.000048
C29	C	0.121324	-1.872462	-0.000046
C30	C	0.030202	-0.944373	-0.000392
C31	C	0.032730	-1.090956	-0.000036
C32	C	0.170576	-1.064206	0.087725
C33	C	0.167400	-0.917705	0.087789
C34	C	0.169275	-0.917175	-0.086976
C35	C	0.170132	-1.064145	-0.088127
C36	C	0.123558	-1.499483	-0.592839
C37	C	0.055628	-1.604101	-0.553648
C38	C	0.055374	-1.603828	-0.446560
C39	C	0.123544	-1.499475	-0.407248
C40	C	0.103672	-1.367041	-0.446135
C41	C	0.103191	-1.367660	-0.553256
C42	C	0.211556	-1.526107	-0.553344
C43	C	0.210985	-1.529113	-0.446215
C44	C	0.123539	-1.499462	-0.302359
C45	C	0.123562	-1.499488	-0.697727
N46	N	0.123571	-1.499494	0.218661
H47	H	-0.288823	-1.307148	0.062872
H48	H	-0.006398	-0.914674	0.062193
H49	H	0.263965	-1.457853	-0.419453
H50	H	-0.002512	-1.134049	-0.062944
N51	N	0.131484	-0.878103	-0.170418
N52	N	0.068743	-0.816819	-0.166828
H53	H	0.042046	-0.789222	-0.225754
N54	N	0.164029	-1.267013	-0.414178
N55	N	0.140680	-1.177420	-0.367446
H56	H	0.183308	-1.106775	-0.344874
H57	H	-0.432492	-1.302981	0.063243
N58	N	0.229899	-1.651315	-0.414321
N59	N	0.294331	-1.660442	-0.366924
H60	H	0.307688	-1.746749	-0.344394
N61	N	-0.438633	-1.289193	-0.078216
N62	N	-0.426050	-1.328712	-0.157928
H63	H	-0.443707	-1.279810	-0.213391
H64	H	-0.002747	-1.133195	0.062981
H65	H	0.150745	-1.287472	-0.579182
H66	H	0.134309	-0.889955	0.153388
H67	H	0.038990	-1.344195	-0.578251
N68	N	0.253586	-0.856750	-0.087739
N69	N	0.278888	-0.787099	-0.154073
H70	H	0.338430	-0.744417	-0.154607
H71	H	-0.317387	-1.672159	0.093352
N72	N	-0.025817	-1.583062	-0.587398
N73	N	-0.082906	-1.563155	-0.531932
H74	H	-0.140427	-1.548293	-0.555766
N75	N	-0.456417	-1.512657	0.170343
N76	N	-0.532854	-1.507381	0.185830
H77	H	-0.551296	-1.467191	0.244763
H78	H	0.234324	-0.868816	0.091773
N79	N	-0.026555	-1.582555	-0.414468
N80	N	-0.057337	-1.482358	-0.435890
H81	H	-0.115213	-1.467362	-0.413242
H82	H	-0.006567	-0.916287	-0.063327
H83	H	-0.318586	-1.673560	-0.091062
N84	N	0.256304	-1.091070	0.091814
N85	N	0.285414	-1.156575	0.029949
H86	H	0.345960	-1.175550	0.032833
H87	H	0.040198	-1.343000	-0.419315
N88	N	-0.282394	-1.292986	-0.079092
N89	N	-0.329724	-1.243559	-0.134185
H90	H	-0.305335	-1.195555	-0.190022
H91	H	0.139475	-1.107227	0.153035
H92	H	0.230460	-1.620613	-0.580355
N93	N	0.274976	-1.430388	-0.585137
N94	N	0.255567	-1.342897	-0.636657
H95	H	0.300350	-1.275289	-0.659114
H96	H	-0.448593	-1.516743	-0.153474
N97	N	0.129066	-1.116073	-0.169566
N98	N	0.067368	-1.198690	-0.162824
H99	H	0.038362	-1.235372	-0.220339
H100	H	-0.306407	-1.519472	0.152976
H101	H	-0.461457	-1.671883	0.087483
H102	H	-0.305239	-1.522602	-0.153106
H103	H	0.237974	-1.087439	-0.093425
N104	N	0.070448	-1.727294	-0.413583
N105	N	0.081226	-1.814269	-0.469684
H106	H	0.091900	-1.901461	-0.446399
N107	N	0.070400	-1.728005	-0.585970
N108	N	0.069847	-1.751052	-0.670703
H109	H	0.080284	-1.838562	-0.693537
N110	N	-0.469670	-1.694501	-0.092880
N111	N	-0.425955	-1.786004	-0.096316
H112	H	-0.453978	-1.876286	-0.099860
