data_functionalizedCrystal
_audit_creation_method	'MofGen! by Chris Wilmer'
_symmetry_space_group_name_H-M	'P1'
_symmetry_Int_Tables_number	1
_symmetry_cell_setting	triclinic
loop_
_symmetry_equiv_pos_as_xyz
  x,y,z
_cell_length_a	18.101398
_cell_length_b	18.101397
_cell_length_c	17.077396
_cell_angle_alpha	89.967492
_cell_angle_beta	89.976860
_cell_angle_gamma	90.018196
loop_
_atom_site_label
_atom_site_type_symbol
_atom_site_fract_x
_atom_site_fract_y
_atom_site_fract_z
Zn1	Zn	1.132164	-0.294868	-0.443949
Zn2	Zn	1.132086	-0.418719	-0.312675
Zn3	Zn	1.008326	-0.294891	-0.312683
Zn4	Zn	1.008296	-0.418668	-0.443886
O5	O	1.070218	-0.356786	-0.378298
O6	O	1.235786	-0.311309	-0.426558
O7	O	1.115649	-0.402323	-0.202829
O8	O	1.024798	-0.191255	-0.330126
O9	O	1.235729	-0.402302	-0.330112
O10	O	1.115781	-0.191238	-0.426566
O11	O	1.024723	-0.311348	-0.202835
O12	O	0.904689	-0.311298	-0.330064
O13	O	1.024748	-0.402215	-0.553741
O14	O	0.904667	-0.402236	-0.426458
O15	O	1.115752	-0.311260	-0.553787
O16	O	1.115620	-0.522345	-0.330051
O17	O	1.024672	-0.522307	-0.426451
C18	C	0.877808	-0.356765	-0.378256
C19	C	0.795493	-0.356773	-0.378256
C20	C	0.644785	-0.356788	-0.378291
C21	C	0.613420	-0.299490	-0.317744
C22	C	0.527802	-0.299275	-0.317943
C23	C	0.496402	-0.356803	-0.378325
C24	C	0.527536	-0.335968	-0.461146
C25	C	0.613181	-0.335544	-0.460777
C26	C	0.613196	-0.435069	-0.356748
C27	C	0.527545	-0.434657	-0.354943
C28	C	0.412543	-0.356813	-0.378349
C29	C	0.728644	-0.356777	-0.378273
C30	C	1.070155	-0.549197	-0.378260
C31	C	1.070195	-0.631511	-0.378270
C32	C	1.070290	-0.930602	-0.378342
C33	C	1.127352	-0.899269	-0.317527
C34	C	1.127550	-0.813651	-0.317685
C35	C	1.070243	-0.782219	-0.378306
C36	C	1.091397	-0.813225	-0.461049
C37	C	1.091838	-0.898870	-0.460718
C38	C	0.991922	-0.899108	-0.357129
C39	C	0.992309	-0.813459	-0.355282
C40	C	1.070215	-0.698360	-0.378290
C41	C	1.070319	-1.014461	-0.378363
C42	C	1.263380	-0.356809	-0.378342
C43	C	1.345694	-0.356818	-0.378360
C44	C	1.070255	-0.356729	-0.583043
C45	C	1.070271	-0.356704	-0.670292
C46	C	1.070302	-0.163624	-0.378354
C47	C	1.070338	-0.081310	-0.378377
C48	C	1.022940	-0.309328	-0.711285
C49	C	1.022953	-0.309311	-0.793265
C50	C	1.070300	-0.356668	-0.834252
C51	C	1.117632	-0.404050	-0.793254
C52	C	1.117616	-0.404070	-0.711275
C53	C	1.117664	-0.404003	-0.964124
C54	C	1.117682	-0.403983	-1.046109
C55	C	1.023001	-0.309245	-1.046115
C56	C	1.022985	-0.309265	-0.964136
C57	C	1.070319	-0.356646	-0.923143
C58	C	1.070224	-0.356790	-0.174350
C59	C	1.070351	-0.356606	-0.087101
H60	H	0.506105	-0.279390	-0.479676
F61	F	1.166712	-0.924910	-0.484202
F62	F	0.639316	-0.260765	-0.484578
F63	F	0.972597	-0.258858	-0.920516
H64	H	0.984461	-0.270664	-1.079495
H65	H	0.972677	-0.920770	-0.297838
F66	F	0.499631	-0.493411	-0.408367
H67	H	1.185086	-0.920739	-0.331402
F68	F	1.168018	-0.454455	-0.836877
F69	F	0.639725	-0.490868	-0.414372
F70	F	1.039867	-0.925960	-0.521957
H71	H	0.633965	-0.312341	-0.256139
H72	H	1.114278	-0.919914	-0.255991
F73	F	0.936350	-0.925594	-0.415021
H74	H	0.984408	-0.270735	-0.826638
F75	F	0.641382	-0.459936	-0.279125
F76	F	1.168078	-0.454381	-1.089728
H77	H	0.976358	-0.793202	-0.294389
H78	H	0.506749	-0.312274	-0.256542
F79	F	0.641568	-0.224101	-0.336198
H80	H	1.148039	-0.791719	-0.479321
F81	F	0.933746	-0.785504	-0.408936
F82	F	1.038730	-0.786618	-0.521869
F83	F	0.500943	-0.455202	-0.275273
F84	F	1.203426	-0.786798	-0.336035
F85	F	1.110213	-0.786252	-0.237502
H86	H	0.507329	-0.241273	-0.332246
H87	H	1.156215	-0.442580	-0.930750
H88	H	0.633933	-0.375480	-0.507451
F89	F	0.972550	-0.258919	-0.667671
F90	F	0.500960	-0.388854	-0.521747
F91	F	1.167989	-0.454497	-0.667648
