data_functionalizedCrystal
_audit_creation_method	'MofGen! by Chris Wilmer'
_symmetry_space_group_name_H-M	'P1'
_symmetry_Int_Tables_number	1
_symmetry_cell_setting	triclinic
loop_
_symmetry_equiv_pos_as_xyz
  x,y,z
_cell_length_a	18.101397
_cell_length_b	29.839134
_cell_length_c	18.101389
_cell_angle_alpha	90.020208
_cell_angle_beta	89.981649
_cell_angle_gamma	90.001922
loop_
_atom_site_label
_atom_site_type_symbol
_atom_site_fract_x
_atom_site_fract_y
_atom_site_fract_z
Zn1	Zn	-0.295336	-0.686817	-0.418758
Zn2	Zn	-0.419161	-0.686769	-0.294916
Zn3	Zn	-0.295291	-0.611691	-0.294928
Zn4	Zn	-0.419093	-0.611676	-0.418714
O5	O	-0.357220	-0.649238	-0.356829
O6	O	-0.311809	-0.749678	-0.402343
O7	O	-0.402740	-0.676796	-0.191285
O8	O	-0.191664	-0.621683	-0.311377
O9	O	-0.402783	-0.749642	-0.311358
O10	O	-0.191697	-0.676878	-0.402354
O11	O	-0.311733	-0.621636	-0.191293
O12	O	-0.311667	-0.548822	-0.311335
O13	O	-0.402666	-0.621658	-0.522352
O14	O	-0.402623	-0.548811	-0.402280
O15	O	-0.311742	-0.676863	-0.522385
O16	O	-0.522785	-0.676781	-0.311315
O17	O	-0.522735	-0.621611	-0.402269
C18	C	-0.549631	-0.649201	-0.356802
C19	C	-0.631945	-0.649227	-0.356815
C20	C	-0.357133	-0.532516	-0.356804
C21	C	-0.357114	-0.482581	-0.356811
C22	C	-0.782653	-0.649254	-0.356840
C23	C	-0.814008	-0.684000	-0.299670
C24	C	-0.899626	-0.683913	-0.299460
C25	C	-0.931036	-0.649281	-0.356865
C26	C	-0.899986	-0.601902	-0.335856
C27	C	-0.814342	-0.602087	-0.335427
C28	C	-0.814169	-0.661479	-0.435168
C29	C	-0.899819	-0.662539	-0.434765
C30	C	-1.014896	-0.649294	-0.356880
C31	C	-0.698794	-0.649238	-0.356823
C32	C	-0.309915	-0.126008	-0.404279
C33	C	-0.309868	-0.313682	-0.404269
O34	O	-0.269664	-0.337958	-0.444637
N35	N	-0.357153	-0.337136	-0.356823
C36	C	-0.404457	-0.313670	-0.309380
O37	O	-0.444681	-0.337925	-0.269029
C38	C	-0.404508	-0.125997	-0.309394
C39	C	-0.357214	-0.102545	-0.356838
C40	C	-0.262625	-0.102556	-0.451720
C41	C	-0.262635	-0.055641	-0.451719
C42	C	-0.309934	-0.032178	-0.404278
C43	C	-0.357223	-0.055630	-0.356837
C44	C	-0.451815	-0.102532	-0.261955
C45	C	-0.451825	-0.055611	-0.261965
C46	C	-0.404531	-0.032158	-0.309408
C47	C	-0.404532	0.014749	-0.309395
N48	N	-0.357246	0.038204	-0.356841
C49	C	-0.309947	0.014740	-0.404282
C50	C	-0.404426	-0.412200	-0.309375
C51	C	-0.404413	-0.459118	-0.309370
C52	C	-0.309824	-0.459127	-0.404260
C53	C	-0.309834	-0.412208	-0.404261
C54	C	-0.357141	-0.388746	-0.356820
C55	C	-0.309970	0.113266	-0.404277
C56	C	-0.309982	0.160186	-0.404270
C57	C	-0.404573	0.160190	-0.309382
C58	C	-0.404559	0.113275	-0.309386
C59	C	-0.357255	0.089814	-0.356840
O60	O	-0.444720	0.039055	-0.269055
O61	O	-0.269741	0.039004	-0.444638
C62	C	-0.309905	-0.172924	-0.404280
C63	C	-0.357195	-0.196376	-0.356840
C64	C	-0.404494	-0.172913	-0.309398
C65	C	-0.357182	-0.243294	-0.356835
C66	C	-0.309883	-0.266757	-0.404276
C67	C	-0.262597	-0.243303	-0.451722
C68	C	-0.262606	-0.196387	-0.451721
C69	C	-0.451780	-0.196367	-0.261952
C70	C	-0.451766	-0.243283	-0.261957
C71	C	-0.404467	-0.266746	-0.309398
C72	C	-0.164059	-0.649288	-0.356872
C73	C	-0.081744	-0.649309	-0.356890
C74	C	-0.357202	-0.649264	-0.549991
C75	C	-0.357194	-0.649275	-0.632305
C76	C	-0.357292	0.233583	-0.356845
C77	C	-0.357281	0.183649	-0.356828
C78	C	-0.357055	-0.649301	-0.931396
C79	C	-0.414080	-0.614448	-0.900051
C80	C	-0.414344	-0.614542	-0.814432
C81	C	-0.357124	-0.649288	-0.783013
C82	C	-0.378337	-0.696623	-0.814114
C83	C	-0.378712	-0.696429	-0.899759
C84	C	-0.278690	-0.637231	-0.899822
C85	C	-0.279142	-0.636178	-0.814171
C86	C	-0.357162	-0.649283	-0.699154
C87	C	-0.357019	-0.649309	-1.015256
C88	C	-0.357186	-0.649238	-0.164418
C89	C	-0.356985	-0.649314	-0.082105
H90	H	-0.920619	-0.719042	-0.312583
Br91	Br	-0.780355	-0.619309	-0.506165
Br92	Br	-0.779646	-0.742723	-0.321282
H93	H	-0.792538	-0.695431	-0.454316
Br94	Br	-0.198403	-0.275155	-0.516102
H95	H	-0.271451	0.094170	-0.442917
H96	H	-0.471811	-0.622338	-0.921575
Br97	Br	-0.392172	-0.555764	-0.934358
Br98	Br	-0.778200	-0.670664	-0.203486
H99	H	-0.793601	-0.575311	-0.375267
H100	H	-0.271466	0.179278	-0.442904
Br101	Br	-0.933892	-0.557587	-0.403135
H102	H	-0.435015	-0.707031	-0.792670
H103	H	-0.271309	-0.478239	-0.442887
Br104	Br	-0.246486	-0.580699	-0.935803
H105	H	-0.921475	-0.591386	-0.279242
Br106	Br	-0.392208	-0.556039	-0.779379
Br107	Br	-0.515969	-0.164532	-0.197553
H108	H	-0.920110	-0.697407	-0.450610
Br109	Br	-0.252481	-0.578114	-0.780303
Br110	Br	-0.935452	-0.623468	-0.509556
Br111	Br	-0.198453	-0.023820	-0.516116
Br112	Br	-0.198419	-0.164567	-0.516113
Br113	Br	-0.511149	-0.627852	-0.780285
H114	H	-0.338982	-0.723278	-0.920496
Br115	Br	-0.474192	-0.713482	-0.933068
Br116	Br	-0.781106	-0.584842	-0.240009
Br117	Br	-0.311289	-0.741072	-0.780203
H118	H	-0.234398	-0.659711	-0.792784
Br119	Br	-0.933845	-0.670423	-0.202739
H120	H	-0.236203	-0.662617	-0.920094
H121	H	-0.224108	-0.121655	-0.490356
H122	H	-0.442917	-0.478209	-0.270728
H123	H	-0.442951	-0.393101	-0.270740
H124	H	-0.271323	-0.393116	-0.442893
Br125	Br	-0.516037	-0.023771	-0.197584
H126	H	-0.490327	-0.121618	-0.223322
Br127	Br	-0.468749	0.081446	-0.245003
H128	H	-0.443080	0.179303	-0.270754
Br129	Br	-0.515947	-0.275105	-0.197553
