data_functionalizedCrystal
_audit_creation_method	'MofGen! by Chris Wilmer'
_symmetry_space_group_name_H-M	'P1'
_symmetry_Int_Tables_number	1
_symmetry_cell_setting	triclinic
loop_
_symmetry_equiv_pos_as_xyz
  x,y,z
_cell_length_a	15.944545
_cell_length_b	9.065218
_cell_length_c	7.540329
_cell_angle_alpha	90.001757
_cell_angle_beta	89.999825
_cell_angle_gamma	95.743971
loop_
_atom_site_label
_atom_site_type_symbol
_atom_site_fract_x
_atom_site_fract_y
_atom_site_fract_z
O1	O	1.115967	-0.190225	-0.147360
O2	O	0.871594	-0.213694	-0.147388
O3	O	0.998832	0.012801	-0.147370
O4	O	0.988729	-0.416720	-0.147378
O5	O	0.998824	0.012804	0.147595
O6	O	0.871587	-0.213691	0.147577
O7	O	1.115959	-0.190223	0.147605
Cu8	Cu	0.993772	-0.201957	0.174523
Cu9	Cu	0.993781	-0.201960	-0.174307
O10	O	0.988722	-0.416717	0.147587
C11	C	0.840289	-0.212720	0.000091
C12	C	0.747021	-0.209804	0.000080
C13	C	0.475258	-0.060699	0.000102
C14	C	0.526381	-0.132584	0.145538
C15	C	0.411298	-0.199405	0.000110
C16	C	0.526369	-0.132624	-0.145275
C17	C	0.576250	-0.204507	0.000092
C18	C	0.461192	-0.271253	0.145667
C19	C	0.461177	-0.271273	-0.145276
C20	C	0.512267	-0.343259	0.000195
C21	C	0.316274	-0.196462	0.000122
C22	C	0.671272	-0.207460	0.000093
C23	C	0.997857	0.067766	0.000109
C24	C	0.994954	0.231541	0.000101
C25	C	1.147264	-0.191197	0.000122
C26	C	1.240533	-0.194113	0.000121
C27	C	0.989696	-0.471683	0.000103
C28	C	0.992599	-0.635458	0.000100
N29	N	0.993772	-0.201953	0.419872
N30	N	0.993788	-0.201951	-0.419655
H31	H	0.432677	-0.329801	-0.268238
O32	O	0.427469	-0.340941	0.292706
C33	C	0.461515	-0.268121	0.445607
H34	H	0.524807	-0.204533	0.411714
H35	H	0.416417	-0.187475	0.495754
C36	C	0.396391	-0.461513	0.632301
C37	C	0.474131	-0.383423	0.590676
H38	H	0.404171	-0.532634	0.721791
H39	H	0.373451	-0.510571	0.529290
H40	H	0.358818	-0.394293	0.674080
H41	H	0.511699	-0.450640	0.548878
H42	H	0.497078	-0.334378	0.693684
O43	O	0.455537	0.081827	0.000578
C44	C	0.488910	0.154445	0.154188
H45	H	0.498879	0.068788	0.260830
H46	H	0.551791	0.219775	0.121006
C47	C	0.414714	0.366433	0.091768
C48	C	0.426951	0.261228	0.222754
H49	H	0.376498	0.432307	0.134060
H50	H	0.392232	0.317512	-0.011725
H51	H	0.467120	0.420858	0.064129
H52	H	0.374549	0.206792	0.250374
H53	H	0.449423	0.310142	0.326254
H54	H	0.554865	-0.074003	0.268495
H55	H	0.528665	-0.462807	0.000278
O56	O	0.560254	-0.062518	-0.291905
C57	C	0.541741	0.086343	-0.291322
H58	H	0.483580	0.097054	-0.206182
H59	H	0.597580	0.159710	-0.234557
C60	C	0.596088	0.122217	-0.586946
C61	C	0.524649	0.135370	-0.482387
H62	H	0.585549	0.152463	-0.704803
H63	H	0.608564	0.021928	-0.587337
H64	H	0.642614	0.183357	-0.539620
H65	H	0.478128	0.074217	-0.529700
H66	H	0.512165	0.235650	-0.482008
