data_functionalizedCrystal
_audit_creation_method	'MofGen! by Chris Wilmer'
_symmetry_space_group_name_H-M	'P1'
_symmetry_Int_Tables_number	1
_symmetry_cell_setting	triclinic
loop_
_symmetry_equiv_pos_as_xyz
  x,y,z
_cell_length_a	19.121112
_cell_length_b	19.121063
_cell_length_c	10.686551
_cell_angle_alpha	88.212799
_cell_angle_beta	82.987990
_cell_angle_gamma	90.126867
loop_
_atom_site_label
_atom_site_type_symbol
_atom_site_fract_x
_atom_site_fract_y
_atom_site_fract_z
Zn1	Zn	1.096327	-0.291396	-0.819692
Zn2	Zn	1.082222	-0.416912	-0.617203
Zn3	Zn	0.969281	-0.295420	-0.599285
Zn4	Zn	0.974014	-0.403621	-0.818850
O5	O	1.030461	-0.351837	-0.713758
O6	O	1.192910	-0.311925	-0.800683
O7	O	1.059356	-0.408042	-0.438194
O8	O	0.990056	-0.197075	-0.621377
O9	O	1.182547	-0.404140	-0.651914
O10	O	1.083396	-0.194119	-0.783309
O11	O	0.976379	-0.318782	-0.425031
O12	O	0.871454	-0.305894	-0.620560
O13	O	0.998124	-0.381488	-0.995593
O14	O	0.874932	-0.385389	-0.781874
O15	O	1.087986	-0.299037	-0.996212
O16	O	1.063946	-0.512960	-0.651098
O17	O	0.984446	-0.503195	-0.799247
C18	C	0.847665	-0.344637	-0.699182
C19	C	0.769465	-0.341572	-0.692978
C20	C	0.327090	-0.322125	-0.653678
C21	C	0.400568	-0.325009	-0.659515
C22	C	0.439125	-0.367918	-0.746295
C23	C	0.404201	-0.407941	-0.827252
C24	C	0.330725	-0.405053	-0.821421
C25	C	0.661065	-0.378707	-0.768103
C26	C	0.734546	-0.381594	-0.773926
C27	C	0.730908	-0.298660	-0.606190
C28	C	0.657431	-0.295779	-0.600361
C29	C	0.622514	-0.335799	-0.681323
C30	C	0.514230	-0.370868	-0.752260
C31	C	0.547410	-0.332845	-0.675362
C32	C	1.023199	-0.533439	-0.727054
C33	C	1.020159	-0.611129	-0.732790
C34	C	1.060160	-0.652688	-0.658421
C35	C	1.057305	-0.725686	-0.663823
C36	C	1.014445	-0.757125	-0.743589
C37	C	0.974443	-0.715560	-0.817966
C38	C	0.977302	-0.642563	-0.812570
C39	C	1.003743	-0.977275	-0.763744
C40	C	1.000886	-1.050277	-0.769132
C41	C	1.083749	-1.060398	-0.614989
C42	C	1.086601	-0.987399	-0.609594
C43	C	1.046602	-0.945842	-0.683977
C44	C	1.011524	-0.831740	-0.749109
C45	C	1.049527	-0.871227	-0.678462
C46	C	1.213971	-0.359066	-0.728391
C47	C	1.292171	-0.362147	-0.734627
C48	C	1.045156	-0.338331	-1.042982
C49	C	1.051418	-0.332575	-1.183278
C50	C	1.037771	-0.169526	-0.700438
C51	C	1.040886	-0.091836	-0.694762
C52	C	1.015865	-0.365242	-0.385814
C53	C	1.009747	-0.370806	-0.245515
H54	H	0.435600	-0.442876	-0.897915
C55	C	0.776958	-0.428793	-0.869405
N56	N	0.808902	-0.464341	-0.941317
C57	C	0.615024	-0.248568	-0.504909
N58	N	0.583084	-0.213006	-0.433014
H59	H	1.091891	-0.295442	-1.237330
H60	H	0.516014	-0.297906	-0.604711
H61	H	0.759346	-0.266077	-0.540277
C62	C	0.955075	-0.420973	-1.172503
N63	N	0.913894	-0.458758	-1.117502
C64	C	0.622664	-0.422750	-0.857135
N65	N	0.593737	-0.455931	-0.924188
C66	C	0.927294	-0.750145	-0.905705
N67	N	0.891777	-0.776194	-0.971786
C68	C	0.964371	-0.866330	-0.836835
N69	N	0.928854	-0.892386	-0.902908
C70	C	0.292314	-0.449083	-0.910467
N71	N	0.263385	-0.482246	-0.977542
H72	H	0.545631	-0.405807	-0.822914
C73	C	0.933299	-0.596849	-0.894383
N74	N	0.900156	-0.562417	-0.956011
C75	C	1.096670	-0.836643	-0.590720
N76	N	1.132175	-0.810587	-0.524626
H77	H	0.295702	-0.287184	-0.583011
H78	H	0.428995	-0.292422	-0.593593
H79	H	1.095058	-0.627096	-0.593461
C80	C	1.133731	-0.952824	-0.521812
N81	N	1.169221	-0.926782	-0.455678
C82	C	1.127748	-1.106117	-0.533178
N83	N	1.160891	-1.140553	-0.471558
H84	H	1.089877	-0.759521	-0.603262
C85	C	0.953739	-1.084857	-0.856892
N86	N	0.918231	-1.110903	-0.922991
H87	H	0.971173	-0.943444	-0.824306
