data_functionalizedCrystal
_audit_creation_method	'MofGen! by Chris Wilmer'
_symmetry_space_group_name_H-M	'P1'
_symmetry_Int_Tables_number	1
_symmetry_cell_setting	triclinic
loop_
_symmetry_equiv_pos_as_xyz
  x,y,z
_cell_length_a	12.811453
_cell_length_b	13.596369
_cell_length_c	12.837942
_cell_angle_alpha	90.005289
_cell_angle_beta	90.587019
_cell_angle_gamma	84.562921
loop_
_atom_site_label
_atom_site_type_symbol
_atom_site_fract_x
_atom_site_fract_y
_atom_site_fract_z
O1	O	-1.406651	0.207258	0.139722
O2	O	-0.906651	0.707258	0.639722
O3	O	-1.102585	0.180139	0.154903
O4	O	-0.602585	0.680139	0.654903
O5	O	-1.247876	0.193091	-0.003619
O6	O	-0.747876	0.693091	0.496381
O7	O	-1.261361	0.194306	0.298245
O8	O	-0.761361	0.694306	0.798245
O9	O	-1.247859	0.029507	-0.003628
O10	O	-0.747859	0.529507	0.496372
O11	O	-1.102568	0.016554	0.154895
O12	O	-0.602568	0.516554	0.654895
O13	O	-1.406635	0.043674	0.139714
O14	O	-0.906635	0.543674	0.639714
Zn15	Zn	-1.254599	0.004141	0.147303
Zn16	Zn	-0.754599	0.504141	0.647303
Zn17	Zn	-1.254621	0.219671	0.147314
Zn18	Zn	-0.754621	0.719671	0.647314
O19	O	-1.261344	0.030721	0.298236
O20	O	-0.761344	0.530721	0.798236
C21	C	-1.063387	0.094851	0.154047
C22	C	-0.563387	0.594851	0.654047
C23	C	-0.946614	0.084436	0.151495
C24	C	-0.446614	0.584436	0.651495
N25	N	-1.254591	-0.142951	0.147295
N26	N	-0.754591	0.357049	0.647295
C27	C	-0.727201	0.243223	0.146730
C28	C	-0.227201	0.743223	0.646730
C29	C	-0.617482	0.233442	0.144333
C30	C	-0.117482	0.733442	0.644333
C31	C	-0.617456	0.055092	0.144312
C32	C	-0.117456	0.555092	0.644312
C33	C	-0.727174	0.064874	0.146709
C34	C	-0.227174	0.564874	0.646709
C35	C	-0.782043	0.158942	0.147916
C36	C	-0.282043	0.658942	0.647916
C37	C	-0.891764	0.168723	0.150306
C38	C	-0.391764	0.668723	0.650306
C39	C	-0.891736	-0.009625	0.150292
C40	C	-0.391736	0.490375	0.650292
C41	C	-0.782017	-0.019407	0.147895
C42	C	-0.282017	0.480593	0.647895
C43	C	-1.254620	-0.544240	0.147315
C44	C	-0.754620	-0.044240	0.647315
C45	C	-1.254609	-0.432589	0.147313
C46	C	-0.754609	0.067411	0.647313
C47	C	-1.254606	-0.343599	0.147306
C48	C	-0.754606	0.156401	0.647306
C49	C	-1.254594	-0.231941	0.147302
C50	C	-0.754594	0.268059	0.647302
C51	C	-0.445832	0.128962	0.140570
C52	C	0.054168	0.628962	0.640570
C53	C	-0.562606	0.139379	0.143122
C54	C	-0.062606	0.639379	0.643122
C55	C	-1.243312	0.110893	-0.042264
C56	C	-0.743312	0.610893	0.457736
C57	C	-1.229726	0.109683	-0.157400
C58	C	-0.729726	0.609683	0.342600
N59	N	-1.254636	0.366764	0.147314
N60	N	-0.754636	0.866764	0.647314
C61	C	-1.393056	0.124271	-0.397650
C62	C	-0.893056	0.624271	0.102350
C63	C	-1.380296	0.123134	-0.505831
C64	C	-0.880296	0.623134	-0.005831
C65	C	-1.191446	0.106281	-0.481945
C66	C	-0.691446	0.606281	0.018055
C67	C	-1.204206	0.107417	-0.373764
C68	C	-0.704206	0.607417	0.126236
C69	C	-1.305015	0.116411	-0.331621
C70	C	-0.805015	0.616411	0.168379
C71	C	-1.317774	0.117540	-0.223437
C72	C	-0.817774	0.617540	0.276563
C73	C	-1.128925	0.100694	-0.199554
C74	C	-0.628925	0.600694	0.300446
C75	C	-1.116164	0.099557	-0.307735
C76	C	-0.616164	0.599557	0.192265
C77	C	-1.265908	0.112921	0.336881
C78	C	-0.765908	0.612921	0.836881
C79	C	-1.279494	0.114138	0.452017
C80	C	-0.779494	0.614138	0.952017
H81	H	-0.936437	0.245319	0.151288
H82	H	-0.436437	0.745319	0.651288
H83	H	-0.737328	-0.095995	0.146916
H84	H	-0.237328	0.404005	0.646916
N85	N	-0.786380	0.344679	0.148025
N86	N	-0.286380	0.844679	0.648025
H87	H	-0.829820	0.352531	0.213229
H88	H	-0.329820	0.852531	0.713229
H89	H	-0.833928	0.352830	0.084764
H90	H	-0.333928	0.852830	0.584764
N91	N	-1.033959	0.092223	-0.128334
N92	N	-0.533959	0.592223	0.371666
H93	H	-0.968165	0.086353	-0.171451
H94	H	-0.468165	0.586353	0.328549
H95	H	-1.035138	0.031683	-0.082939
H96	H	-0.535138	0.531683	0.417061
N97	N	-1.501778	0.133954	-0.352186
N98	N	-1.001778	0.633954	0.147814
H99	H	-1.540853	0.198077	-0.376221
H100	H	-1.040853	0.698077	0.123779
H101	H	-1.496409	0.133433	-0.273643
H102	H	-0.996409	0.633433	0.226357
N103	N	-1.007442	0.089845	-0.353197
N104	N	-0.507442	0.589845	0.146803
H105	H	-0.953604	0.085035	-0.294949
H106	H	-0.453604	0.585035	0.205051
H107	H	-0.998030	0.149648	-0.397554
H108	H	-0.498030	0.649648	0.102446
H109	H	-1.399858	0.124860	-0.189126
H110	H	-0.899858	0.624860	0.310874
H111	H	-0.572762	-0.021494	0.143338
H112	H	-0.072762	0.478506	0.643338
H113	H	-0.572833	0.302072	0.143369
H114	H	-0.072833	0.802072	0.643369
H115	H	-1.451989	0.129538	-0.559589
H116	H	-0.951989	0.629538	-0.059589
N117	N	-0.950898	-0.100529	0.151578
N118	N	-0.450898	0.399471	0.651578
H119	H	-0.929716	-0.141404	0.215367
H120	H	-0.429716	0.358596	0.715367
H121	H	-0.933863	-0.140955	0.086903
H122	H	-0.433863	0.359045	0.586903
H123	H	-1.109372	0.098969	-0.516278
H124	H	-0.609372	0.598969	-0.016278
