data_functionalizedCrystal
_audit_creation_method	'MofGen! by Chris Wilmer'
_symmetry_space_group_name_H-M	'P1'
_symmetry_Int_Tables_number	1
_symmetry_cell_setting	triclinic
loop_
_symmetry_equiv_pos_as_xyz
  x,y,z
_cell_length_a	17.019282
_cell_length_b	17.000371
_cell_length_c	12.503572
_cell_angle_alpha	93.243058
_cell_angle_beta	90.358276
_cell_angle_gamma	79.503272
loop_
_atom_site_label
_atom_site_type_symbol
_atom_site_fract_x
_atom_site_fract_y
_atom_site_fract_z
O1	O	1.039277	0.101709	0.006842
O2	O	0.809871	0.113557	-0.014387
O3	O	0.938818	-0.008182	-0.002447
O4	O	0.910331	0.223448	-0.005098
O5	O	0.929120	0.000989	0.175297
O6	O	0.800173	0.122728	0.163357
O7	O	1.029579	0.110880	0.184586
Cu8	Cu	0.913990	0.117641	0.190201
Cu9	Cu	0.925460	0.106796	-0.020002
O10	O	0.900632	0.232619	0.172646
C11	C	0.775814	0.117514	0.071782
C12	C	0.688784	0.115632	0.063729
C13	C	0.642616	0.119746	0.156836
C14	C	0.560845	0.117965	0.149272
C15	C	0.525242	0.112077	0.048600
C16	C	0.571418	0.107961	-0.044514
C17	C	0.653188	0.109736	-0.036949
C18	C	0.278612	0.106463	0.020912
C19	C	0.196835	0.104690	0.013354
C20	C	0.186268	0.114693	0.207141
C21	C	0.268040	0.116472	0.214697
C22	C	0.314209	0.112352	0.121583
C23	C	0.441659	0.110259	0.040866
C24	C	0.397792	0.114164	0.129318
C25	C	0.935499	-0.033245	0.086566
C26	C	0.940049	-0.121587	0.086987
C27	C	0.870029	-0.153864	0.080502
C28	C	0.874309	-0.236871	0.080901
C29	C	0.948610	-0.287601	0.087777
C30	C	1.018636	-0.255320	0.094265
C31	C	1.014355	-0.172313	0.093874
C32	C	0.965146	-0.538688	0.089300
C33	C	0.969422	-0.621700	0.089687
C34	C	0.825094	-0.603246	0.076326
C35	C	0.820820	-0.520239	0.075929
C36	C	0.890845	-0.487964	0.082422
C37	C	0.952987	-0.372449	0.088181
C38	C	0.886467	-0.403118	0.082025
C39	C	1.063636	0.106922	0.098414
C40	C	1.150666	0.108804	0.106461
C41	C	0.903951	0.257681	0.083630
C42	C	0.899401	0.346023	0.083203
N43	N	0.905929	0.125269	0.338047
N44	N	0.933528	0.099162	-0.167847
C45	C	0.894070	0.136496	0.556064
C46	C	0.945385	0.087937	0.614143
C47	C	0.938786	0.094184	0.735455
C48	C	0.900667	0.130250	0.434740
H49	H	0.167850	0.099898	-0.068630
C50	C	0.329384	0.101937	-0.081517
C51	C	0.336173	0.028548	-0.161221
C52	C	0.386946	0.024023	-0.263657
C53	C	0.430931	0.092888	-0.286389
C54	C	0.424144	0.166282	-0.206682
C55	C	0.373371	0.170807	-0.104246
H56	H	0.303611	-0.022434	-0.144396
H57	H	0.391970	-0.030308	-0.322661
H58	H	0.468517	0.089538	-0.362218
H59	H	0.456706	0.217264	-0.223508
H60	H	0.368347	0.225139	-0.045242
H61	H	0.297022	0.121263	0.296675
H62	H	0.690778	0.106388	-0.112767
C63	C	0.436954	0.120644	0.240053
C64	C	0.478032	0.192264	0.270609
C65	C	0.517202	0.198748	0.381344
C66	C	0.515294	0.133613	0.461523
C67	C	0.474214	0.061988	0.430969
C68	C	0.435044	0.055503	0.320234
H69	H	0.479446	0.240485	0.211254
H70	H	0.547612	0.251770	0.403962
H71	H	0.544290	0.138413	0.543496
H72	H	0.472800	0.013766	0.490324
H73	H	0.404633	0.002481	0.297617
C74	C	0.135482	0.119216	0.309560
C75	C	0.064126	0.188391	0.329741
C76	C	0.013341	0.192911	0.432166
C77	C	0.033912	0.128256	0.514410
C78	C	0.105272	0.059076	0.494231
C79	C	0.156057	0.054556	0.391807
H80	H	0.048895	0.236257	0.268858
H81	H	-0.039485	0.244123	0.447103
H82	H	-0.003682	0.131601	0.590231
H83	H	0.120503	0.011209	0.555115
H84	H	0.208882	0.003344	0.376870
C85	C	1.042170	-0.503189	0.096430
C86	C	1.064106	-0.453414	0.005701
C87	C	1.141132	-0.417908	0.012828
C88	C	1.196223	-0.432178	0.110685
C89	C	1.174288	-0.481956	0.201421
C90	C	1.097261	-0.517461	0.194293
H91	H	1.023324	-0.442848	-0.066745
H92	H	1.157370	-0.381059	-0.054341
H93	H	1.253242	-0.405895	0.115961
H94	H	1.215070	-0.492521	0.273866
H95	H	1.081024	-0.554310	0.261462
C96	C	1.011435	0.025441	0.558241
C97	C	1.017993	0.019162	0.435161
C98	C	1.084043	-0.043328	0.379253
C99	C	1.143535	-0.099539	0.446424
C100	C	1.136979	-0.093261	0.569511
C101	C	1.070929	-0.030771	0.625419
H102	H	0.973952	0.060774	0.385430
H103	H	1.088896	-0.047975	0.288136
H104	H	1.192430	-0.145797	0.405038
H105	H	1.181021	-0.134873	0.619242
H106	H	1.066076	-0.026125	0.716536
H107	H	0.542425	0.103161	-0.126483
H108	H	0.412662	0.105465	-0.041101
C109	C	0.828032	0.198999	0.611962
C110	C	0.820963	0.204719	0.734990
C111	C	0.754929	0.267224	0.790903
C112	C	0.695964	0.324010	0.723789
C113	C	0.703032	0.318293	0.600754
C114	C	0.769066	0.255787	0.544841
H115	H	0.864613	0.162681	0.784679
H116	H	0.749697	0.271457	0.881982
H117	H	0.647082	0.370280	0.765179
H118	H	0.659382	0.360331	0.551065
H119	H	0.774298	0.251555	0.453762
H120	H	0.809525	-0.112564	0.074898
C121	C	0.681772	0.126224	0.267580
C122	C	0.750219	0.059798	0.300705
C123	C	0.789372	0.066274	0.411453
C124	C	0.760077	0.139176	0.489076
C125	C	0.691626	0.205606	0.455953
C126	C	0.652473	0.199130	0.345205
H127	H	0.771909	0.005828	0.243242
H128	H	0.840044	0.017098	0.435972
H129	H	0.789060	0.143970	0.571058
H130	H	0.669936	0.259577	0.513416
H131	H	0.601801	0.248307	0.320686
H132	H	0.760316	-0.478939	0.070326
C133	C	0.748071	-0.638751	0.069191
C134	C	0.726129	-0.688522	0.159921
C135	C	0.649102	-0.724026	0.152789
C136	C	0.594017	-0.709760	0.054928
C137	C	0.615957	-0.659986	-0.035810
C138	C	0.692984	-0.624482	-0.028678
H139	H	0.766907	-0.699085	0.232371
H140	H	0.632860	-0.760872	0.219960
H141	H	0.536997	-0.736042	0.049648
H142	H	0.575179	-0.649423	-0.108259
H143	H	0.709226	-0.587636	-0.095848
H144	H	1.013483	-0.413762	0.093778
H145	H	1.029931	-0.663004	0.095280
C146	C	0.797280	-0.272367	0.073767
C147	C	0.732120	-0.248574	0.160496
C148	C	0.655086	-0.284065	0.153364
C149	C	0.643211	-0.343351	0.059503
C150	C	0.708373	-0.367148	-0.027232
C151	C	0.785408	-0.331656	-0.020101
H152	H	0.740909	-0.204684	0.229983
H153	H	0.606848	-0.266449	0.217572
H154	H	0.586186	-0.369624	0.054224
H155	H	0.699585	-0.411037	-0.096720
H156	H	0.833645	-0.349272	-0.084309
C157	C	1.091378	-0.136805	0.101005
C158	C	1.146462	-0.151074	0.198867
C159	C	1.223487	-0.115567	0.206006
C160	C	1.245428	-0.065790	0.115281
C161	C	1.190343	-0.051519	0.017411
C162	C	1.113318	-0.087026	0.010273
H163	H	1.130221	-0.187924	0.266033
H164	H	1.264265	-0.126132	0.278456
H165	H	1.302447	-0.039506	0.120565
H166	H	1.206584	-0.014669	-0.049755
H167	H	1.072540	-0.076461	-0.062177
H168	H	0.523260	0.121301	0.225090
H169	H	1.079133	-0.296631	0.099870
H170	H	0.825971	-0.361810	0.076433
