data_functionalizedCrystal
_audit_creation_method	'MofGen! by Chris Wilmer'
_symmetry_space_group_name_H-M	'P1'
_symmetry_Int_Tables_number	1
_symmetry_cell_setting	triclinic
loop_
_symmetry_equiv_pos_as_xyz
  x,y,z
_cell_length_a	16.992695
_cell_length_b	16.992697
_cell_length_c	13.448316
_cell_angle_alpha	90.000126
_cell_angle_beta	89.993283
_cell_angle_gamma	89.331663
loop_
_atom_site_label
_atom_site_type_symbol
_atom_site_fract_x
_atom_site_fract_y
_atom_site_fract_z
O1	O	0.166921	-1.050853	-0.082549
O2	O	0.165089	-0.822453	-0.082582
O3	O	0.051805	-0.935737	-0.082558
O4	O	0.280205	-0.937569	-0.082573
O5	O	0.051796	-0.935722	0.082826
O6	O	0.165081	-0.822437	0.082802
O7	O	0.166912	-1.050837	0.082835
Cu8	Cu	0.165996	-0.936636	0.097919
Cu9	Cu	0.166006	-0.936654	-0.097666
O10	O	0.280196	-0.937553	0.082811
C11	C	0.162729	-0.793085	0.000106
C12	C	0.155700	-0.705600	0.000093
C13	C	0.022440	-0.933374	0.000134
C14	C	-0.065044	-0.926345	0.000132
C15	C	0.223518	-0.659609	0.000088
C16	C	0.216909	-0.577409	0.000101
C17	C	0.142481	-0.541200	0.000111
C18	C	0.074658	-0.587197	0.000119
C19	C	0.081268	-0.669397	0.000113
C20	C	0.115086	-0.295886	0.000135
C21	C	0.108481	-0.213681	0.000138
C22	C	0.250733	-0.203898	0.000121
C23	C	0.257336	-0.286099	0.000110
C24	C	0.189513	-0.332089	0.000123
N25	N	0.135724	-0.457178	0.000121
N26	N	0.196271	-0.416109	0.000120
C27	C	-0.111035	-0.994163	0.000143
C28	C	-0.193236	-0.987554	0.000133
C29	C	-0.229444	-0.913126	0.000119
C30	C	-0.183447	-0.845303	0.000105
C31	C	-0.101248	-0.851913	0.000108
C32	C	-0.474758	-0.885732	0.000101
C33	C	-0.556964	-0.879127	0.000101
C34	C	-0.566747	-1.021379	0.000127
C35	C	-0.484545	-1.027982	0.000136
C36	C	-0.438556	-0.960159	0.000117
N37	N	-0.313466	-0.906369	0.000111
N38	N	-0.354535	-0.966917	0.000118
C39	C	0.309561	-0.939916	0.000117
C40	C	0.397045	-0.946945	0.000112
C41	C	0.169272	-0.080205	0.000141
C42	C	0.176299	-0.167690	0.000133
N43	N	0.165989	-0.936629	0.235484
N44	N	0.166007	-0.936667	-0.235231
C45	C	0.115849	-0.986809	0.287535
C46	C	0.115849	-0.986814	0.391638
C47	C	0.165992	-0.936642	0.443688
C48	C	0.216134	-0.886456	0.391630
C49	C	0.216130	-0.886448	0.287528
C50	C	0.216141	-0.886478	0.608610
C51	C	0.216146	-0.886487	0.712718
C52	C	0.115860	-0.986844	0.712719
C53	C	0.115856	-0.986836	0.608618
C54	C	0.165998	-0.936651	0.556567
H55	H	0.284125	-0.689084	0.000079
N56	N	-0.222493	-0.765025	0.000097
H57	H	-0.206044	-0.735086	-0.061216
H58	H	-0.281536	-0.771191	0.000139
H59	H	-0.455071	-1.088589	0.000148
N60	N	0.270207	-0.832320	0.231389
H61	H	0.326653	-0.844882	0.249489
H62	H	0.262528	-0.839947	0.157562
H63	H	0.075021	-1.027674	0.434018
H64	H	0.305950	-0.166444	0.000113
H65	H	0.047870	-0.184203	0.000145
N66	N	0.041942	-0.345490	0.000131
H67	H	0.041509	-0.379814	0.061437
H68	H	-0.006171	-0.310030	0.000094
N69	N	-0.596017	-0.798847	0.000075
H70	H	-0.655068	-0.804954	0.000082
H71	H	-0.579518	-0.768933	0.061377
H72	H	-0.437323	-0.830505	0.000086
N73	N	-0.005619	-0.548149	0.000146
H74	H	0.000483	-0.489097	0.000148
H75	H	-0.035525	-0.564651	-0.061159
H76	H	0.026043	-0.706842	0.000116
N77	N	0.061778	-1.040949	0.552470
H78	H	0.074378	-1.097387	0.570574
H79	H	0.005355	-1.028322	0.570617
H80	H	0.256959	-0.845601	0.434015
H81	H	-0.063803	-0.796688	0.000099
N82	N	0.061793	-1.040988	0.768856
H83	H	0.030037	-1.072781	0.720087
H84	H	0.094156	-1.077667	0.812024
H85	H	0.272134	-0.539966	0.000096
N86	N	0.337612	-0.325151	0.000080
H87	H	0.379573	-0.283542	0.000075
H88	H	0.343459	-0.359050	0.061381
N89	N	-0.616348	-1.094527	0.000149
H90	H	-0.673916	-1.079050	0.000146
H91	H	-0.604110	-1.126748	-0.061154
H92	H	0.075020	-1.027668	0.245162
H93	H	0.256977	-0.845631	0.755092
H94	H	0.256969	-0.845609	0.566233
H95	H	-0.081560	-1.054770	0.000161
H96	H	-0.230678	-1.042779	0.000144
