data_functionalizedCrystal
_audit_creation_method	'MofGen! by Chris Wilmer'
_symmetry_space_group_name_H-M	'P1'
_symmetry_Int_Tables_number	1
_symmetry_cell_setting	triclinic
loop_
_symmetry_equiv_pos_as_xyz
  x,y,z
_cell_length_a	15.944545
_cell_length_b	10.654550
_cell_length_c	14.421503
_cell_angle_alpha	89.990796
_cell_angle_beta	89.991685
_cell_angle_gamma	96.009449
loop_
_atom_site_label
_atom_site_type_symbol
_atom_site_fract_x
_atom_site_fract_y
_atom_site_fract_z
O1	O	1.115452	-0.161939	0.077051
O2	O	0.871017	-0.181916	0.077066
O3	O	0.998854	0.010885	0.077053
O4	O	0.987614	-0.354740	0.077065
O5	O	0.998869	0.010911	-0.077171
O6	O	0.871032	-0.181889	-0.077157
O7	O	1.115466	-0.161912	-0.077172
Cu8	Cu	0.993250	-0.171898	-0.091246
Cu9	Cu	0.993233	-0.171930	0.091141
O10	O	0.987629	-0.354713	-0.077158
C11	C	0.839726	-0.181075	-0.000043
C12	C	0.746465	-0.178593	-0.000038
C13	C	0.475097	-0.051669	-0.000052
C14	C	0.526041	-0.112848	-0.076092
C15	C	0.410770	-0.169741	-0.000054
C16	C	0.526007	-0.112906	0.075960
C17	C	0.575708	-0.174083	-0.000045
C18	C	0.460484	-0.230888	-0.076157
C19	C	0.460447	-0.230929	0.075963
C20	C	0.511358	-0.292195	-0.000096
C21	C	0.315753	-0.167236	-0.000060
C22	C	0.670722	-0.176598	-0.000045
C23	C	0.998036	0.057685	-0.000059
C24	C	0.995567	0.197096	-0.000057
C25	C	1.146758	-0.162754	-0.000060
C26	C	1.240019	-0.165236	-0.000060
C27	C	0.988447	-0.401514	-0.000045
C28	C	0.990916	-0.540925	-0.000041
N29	N	0.993269	-0.171875	-0.219528
C30	C	1.070836	0.277558	-0.000061
C31	C	1.068511	0.408549	-0.000050
C32	C	0.915642	0.378603	-0.000034
C33	C	0.917968	0.247615	-0.000038
N34	N	0.993221	-0.171943	0.219422
C35	C	0.933995	-0.260915	0.469076
C36	C	0.917227	-0.147346	0.530878
C37	C	0.993237	-0.171917	0.408583
C38	C	1.009982	-0.285462	0.530875
C39	C	0.993250	-0.171903	0.591305
C40	C	0.976430	-0.058291	0.469025
C41	C	1.069219	-0.196482	0.469016
C42	C	1.052482	-0.082830	0.530790
C43	C	0.993227	-0.171928	0.303322
C44	C	0.993261	-0.171880	0.696564
H45	H	0.458856	0.050016	-0.000129
H46	H	0.852463	0.419751	-0.000020
H47	H	0.554629	-0.063032	0.140242
O48	O	0.426190	-0.290564	0.152563
C49	C	0.369111	-0.394017	0.125309
H50	H	0.385700	-0.425054	0.052521
H51	H	0.302251	-0.365152	0.125589
C52	C	0.354292	-0.465971	0.282886
C53	C	0.374672	-0.504098	0.193489
H54	H	0.357719	-0.533872	0.324945
H55	H	0.392745	-0.396270	0.301249
H56	H	0.298577	-0.441916	0.283106
H57	H	0.430389	-0.528136	0.193268
H58	H	0.336228	-0.573805	0.175128
H59	H	0.962198	0.037760	0.441971
O60	O	1.145914	-0.221173	0.436680
C61	C	1.208436	-0.128429	0.469473
H62	H	1.184988	-0.083587	0.535039
H63	H	1.222549	-0.052751	0.414124
C64	C	1.318144	-0.245001	0.410968
C65	C	1.289347	-0.189932	0.491501
H66	H	1.368055	-0.282936	0.424551
H67	H	1.276022	-0.307482	0.388870
H68	H	1.329898	-0.181926	0.364850
H69	H	1.277584	-0.253009	0.537612
H70	H	1.331469	-0.127462	0.513606
O71	O	1.146141	0.228275	-0.000110
C72	C	1.132058	0.095407	-0.000091
H73	H	1.066691	0.064654	-0.029287
H74	H	1.136332	0.058923	0.073897
C75	C	1.279483	0.078864	-0.024716
C76	C	1.199202	0.041093	-0.060583
H77	H	1.320902	0.045359	-0.062027
H78	H	1.288972	0.168379	-0.024726
H79	H	1.283033	0.048458	0.036939
H80	H	1.195649	0.071512	-0.122233
H81	H	1.189713	-0.048419	-0.060585
O82	O	0.560198	-0.053150	-0.152722
C83	C	0.542049	0.073552	-0.152470
H84	H	0.528791	0.103512	-0.078473
H85	H	0.484335	0.083213	-0.197531
C86	C	0.634377	0.121635	-0.282169
C87	C	0.618101	0.158435	-0.191283
H88	H	0.681287	0.173996	-0.306114
H89	H	0.646603	0.036272	-0.282341
H90	H	0.586276	0.129687	-0.319708
H91	H	0.666197	0.150368	-0.153743
H92	H	0.605885	0.243799	-0.191105
O93	O	0.844768	0.169624	-0.000076
C94	C	0.775778	0.242298	-0.000043
H95	H	0.796525	0.340069	-0.029242
H96	H	0.752026	0.251604	0.073949
C97	C	0.678997	0.056954	-0.024653
C98	C	0.704477	0.177035	-0.060523
H99	H	0.635013	0.016696	-0.061956
H100	H	0.725476	0.007991	-0.024672
H101	H	0.659209	0.064726	0.037006
H102	H	0.724274	0.169261	-0.122177
H103	H	0.657999	0.225996	-0.060516
H104	H	1.129802	0.474057	-0.000051
O105	O	0.874077	-0.350478	0.436787
C106	C	0.794077	-0.324102	0.468332
H107	H	0.796011	-0.219447	0.485651
H108	H	0.776334	-0.382410	0.533038
C109	C	0.725669	-0.486436	0.370718
C110	C	0.728043	-0.357895	0.391981
H111	H	0.684935	-0.507286	0.323624
H112	H	0.779566	-0.504210	0.349467
H113	H	0.710886	-0.535011	0.424646
H114	H	0.742836	-0.309323	0.338057
H115	H	0.674146	-0.340113	0.413221
H116	H	0.852978	-0.126559	0.558058
O117	O	1.112170	0.007220	0.562880
C118	C	1.094214	0.126706	0.531174
H119	H	1.024244	0.123383	0.513932
H120	H	1.133059	0.153272	0.466388
C121	C	1.202586	0.229910	0.628521
C122	C	1.116645	0.225831	0.607353
H123	H	1.216426	0.291058	0.675509
H124	H	1.214686	0.149411	0.649880
H125	H	1.234946	0.252045	0.574526
H126	H	1.084287	0.203682	0.661344
H127	H	1.104541	0.306330	0.586004
H128	H	1.024150	-0.381495	0.558026
H129	H	0.527439	-0.393958	-0.000137
O130	O	0.426342	-0.290214	-0.152913
C131	C	0.338157	-0.287140	-0.152001
H132	H	0.321675	-0.205324	-0.106929
H133	H	0.306660	-0.379659	-0.122611
C134	C	0.326883	-0.369815	-0.306949
C135	C	0.306640	-0.269320	-0.251597
H136	H	0.307440	-0.358828	-0.368384
H137	H	0.386294	-0.371891	-0.307562
H138	H	0.300634	-0.446905	-0.282447
H139	H	0.332897	-0.192235	-0.276092
H140	H	0.247232	-0.267231	-0.250989
