data_functionalizedCrystal
_audit_creation_method	'MofGen! by Chris Wilmer'
_symmetry_space_group_name_H-M	'P1'
_symmetry_Int_Tables_number	1
_symmetry_cell_setting	triclinic
loop_
_symmetry_equiv_pos_as_xyz
  x,y,z
_cell_length_a	8.559649
_cell_length_b	8.559649
_cell_length_c	7.681481
_cell_angle_alpha	85.069100
_cell_angle_beta	94.913240
_cell_angle_gamma	69.778664
loop_
_atom_site_label
_atom_site_type_symbol
_atom_site_fract_x
_atom_site_fract_y
_atom_site_fract_z
O1	O	2.109661	-0.037797	-0.146402
O2	O	1.634175	0.045985	-0.146408
O3	O	1.913809	-0.233649	-0.146402
O4	O	1.830027	0.241837	-0.146407
O5	O	1.948236	-0.268136	0.146456
O6	O	1.668602	0.011497	0.146450
O7	O	2.144088	-0.072285	0.146457
Zn8	Zn	1.911811	-0.035869	0.192951
Zn9	Zn	1.866452	0.009570	-0.192902
O10	O	1.864454	0.207349	0.146451
C11	C	1.591080	0.035090	0.000020
C12	C	1.411380	0.053990	0.000017
C13	C	1.937371	-0.311201	0.000024
C14	C	1.956269	-0.490899	0.000014
C15	C	2.187183	-0.061390	0.000025
C16	C	2.366881	-0.080288	0.000016
C17	C	1.840891	0.284902	0.000021
C18	C	1.821992	0.464601	0.000019
N19	N	1.942779	-0.066883	0.456286
N20	N	1.835499	0.040569	-0.456237
H21	H	1.311991	0.183419	0.000006
N22	N	1.650555	-0.403777	0.000043
H23	H	1.660900	-0.289757	0.000040
H24	H	1.575264	-0.404046	-0.108516
N25	N	2.127712	-0.622547	0.000025
H26	H	2.177556	-0.596860	-0.108539
H27	H	2.202950	-0.622351	0.108658
N28	N	1.498498	-0.251732	0.000020
H29	H	1.557448	-0.252924	-0.108540
H30	H	1.582859	-0.278391	0.108658
N31	N	1.690434	0.185853	0.444168
H32	H	1.693945	0.182323	0.313431
H33	H	1.581352	0.177580	0.476320
H34	H	2.052307	-0.176556	0.531494
