data_functionalizedCrystal
_audit_creation_method	'MofGen! by Chris Wilmer'
_symmetry_space_group_name_H-M	'P1'
_symmetry_Int_Tables_number	1
_symmetry_cell_setting	triclinic
loop_
_symmetry_equiv_pos_as_xyz
  x,y,z
_cell_length_a	16.109301
_cell_length_b	17.038272
_cell_length_c	15.500346
_cell_angle_alpha	92.974377
_cell_angle_beta	93.179977
_cell_angle_gamma	87.286518
loop_
_atom_site_label
_atom_site_type_symbol
_atom_site_fract_x
_atom_site_fract_y
_atom_site_fract_z
O1	O	1.113943	0.103719	0.071889
O2	O	1.613943	0.603719	0.571889
O3	O	0.872769	0.116226	0.071903
O4	O	1.372769	0.616226	0.571903
O5	O	0.991922	-0.003843	0.071889
O6	O	1.491922	0.496157	0.571889
O7	O	0.994790	0.223789	0.071903
O8	O	1.494790	0.723789	0.571903
O9	O	0.984558	-0.010298	-0.071997
O10	O	1.484558	0.489702	0.428003
O11	O	0.865406	0.109771	-0.071983
O12	O	1.365406	0.609771	0.428017
O13	O	1.106579	0.097264	-0.071997
O14	O	1.606579	0.597264	0.428003
Cu15	Cu	0.985320	0.102928	-0.085128
Cu16	Cu	1.485320	0.602928	0.414872
Cu17	Cu	0.994028	0.110562	0.085034
Cu18	Cu	1.494028	0.610562	0.585034
O19	O	0.987426	0.217333	-0.071984
O20	O	1.487426	0.717333	0.428016
C21	C	0.838077	0.112492	-0.000039
C22	C	1.338077	0.612492	0.499961
C23	C	0.745674	0.110974	-0.000033
C24	C	1.245674	0.610974	0.499967
C25	C	0.985633	-0.036199	-0.000054
C26	C	1.485633	0.463801	0.499946
C27	C	0.977854	-0.122992	-0.000053
C28	C	1.477854	0.377008	0.499947
C29	C	0.528210	0.178688	-0.000039
C30	C	1.028210	0.678688	0.499961
C31	C	0.441388	0.177255	-0.000045
C32	C	0.941388	0.677255	0.499955
C33	C	0.451145	0.034797	-0.000050
C34	C	0.951145	0.534797	0.499950
C35	C	0.537965	0.036231	-0.000051
C36	C	1.037965	0.536231	0.499949
C37	C	0.576496	0.108179	-0.000041
C38	C	1.076496	0.608179	0.499959
C39	C	0.402853	0.105312	-0.000046
C40	C	0.902853	0.605312	0.499954
C41	C	0.308716	0.103757	-0.000052
C42	C	0.808716	0.603757	0.499948
C43	C	0.670638	0.109734	-0.000036
C44	C	1.170638	0.609734	0.499964
C45	C	1.049274	-0.173107	-0.000058
C46	C	1.549274	0.326893	0.499942
C47	C	1.041961	-0.254657	-0.000049
C48	C	1.541961	0.245343	0.499951
C49	C	0.963225	-0.286090	-0.000042
C50	C	1.463225	0.213910	0.499958
C51	C	0.891800	-0.235969	-0.000034
C52	C	1.391800	0.264031	0.499966
C53	C	0.899115	-0.154420	-0.000037
C54	C	1.399115	0.345580	0.499963
C55	C	0.937384	-0.531847	-0.000029
C56	C	1.437384	-0.031847	0.499971
C57	C	0.930074	-0.613403	-0.000029
C58	C	1.430074	-0.113403	0.499971
C59	C	1.080236	-0.632085	-0.000042
C60	C	1.580236	-0.132085	0.499958
C61	C	1.087543	-0.550534	-0.000050
C62	C	1.587543	-0.050534	0.499950
C63	C	1.016118	-0.500419	-0.000038
C64	C	1.516118	-0.000419	0.499962
C65	C	0.955748	-0.369448	-0.000036
C66	C	1.455748	0.130552	0.499964
C67	C	1.023597	-0.417063	-0.000038
C68	C	1.523597	0.082937	0.499962
C69	C	1.141271	0.100998	-0.000054
C70	C	1.641271	0.600998	0.499946
C71	C	1.233675	0.102517	-0.000053
C72	C	1.733675	0.602517	0.499947
C73	C	0.993715	0.249689	-0.000039
C74	C	1.493715	0.749689	0.499961
C75	C	1.001494	0.336482	-0.000034
C76	C	1.501494	0.836482	0.499966
N77	N	0.979200	0.097558	-0.204811
N78	N	1.479200	0.597558	0.295189
C79	C	0.948693	0.070538	-0.749989
C80	C	1.448693	0.570538	-0.249989
C81	C	0.953318	0.074630	-0.659418
C82	C	1.453318	0.574630	-0.159418
C83	C	1.009399	0.124114	-0.614142
C84	C	1.509399	0.624114	-0.114142
C85	C	1.060866	0.169504	-0.659443
C86	C	1.560866	0.669504	-0.159443
C87	C	1.056245	0.165408	-0.750012
C88	C	1.556245	0.665408	-0.250012
C89	C	1.026046	0.138851	-0.340681
C90	C	1.526046	0.638851	0.159319
C91	C	1.030661	0.142946	-0.250105
C92	C	1.530661	0.642946	0.249895
C93	C	0.923114	0.048070	-0.250087
C94	C	1.423114	0.548070	0.249913
C95	C	0.918494	0.043982	-0.340658
C96	C	1.418494	0.543982	0.159342
C97	C	0.969963	0.089369	-0.385950
C98	C	1.469963	0.589369	0.114050
C99	C	1.014126	0.128299	-0.521564
C100	C	1.514126	0.628299	-0.021564
C101	C	0.965240	0.085179	-0.478527
C102	C	1.465240	0.585179	0.021473
N103	N	1.000154	0.115926	0.204717
N104	N	1.500154	0.615926	0.704717
H105	H	0.559579	0.237272	-0.000038
H106	H	1.059579	0.737272	0.499962
O107	O	0.904769	0.031794	-0.527360
O108	O	1.404769	0.531794	-0.027360
H109	H	0.869764	0.000910	-0.480652
H110	H	1.369764	0.500910	0.019348
O111	O	1.081555	0.187807	-0.389523
O112	O	1.581555	0.687807	0.110477
H113	H	1.042562	0.227943	-0.430813
H114	H	1.542562	0.727943	0.069187
H115	H	0.879224	-0.491053	-0.000019
H116	H	1.379224	0.008947	0.499981
H117	H	0.872828	0.003685	-0.377515
H118	H	1.372828	0.503685	0.122485
O119	O	0.590048	-0.039825	-0.000057
O120	O	1.090048	0.460175	0.499943
H121	H	0.656892	-0.026739	-0.000068
H122	H	1.156892	0.473261	0.499932
O123	O	1.157272	-0.686134	-0.000050
O124	O	1.657272	-0.186134	0.499950
H125	H	1.138962	-0.748121	-0.000041
H126	H	1.638962	-0.248121	0.499959
H127	H	0.402077	0.234670	-0.000046
H128	H	0.902077	0.734670	0.499954
O129	O	1.108519	-0.383168	-0.000042
O130	O	1.608519	0.116832	0.499958
H131	H	1.112439	-0.349099	-0.058692
H132	H	1.612439	0.150901	0.441308
H133	H	0.840956	-0.113617	-0.000033
H134	H	1.340956	0.386383	0.499967
O135	O	1.134197	-0.139203	-0.000058
O136	O	1.634197	0.360797	0.499942
H137	H	1.182631	-0.187755	-0.000049
H138	H	1.682631	0.312245	0.499951
H139	H	0.865955	-0.638993	-0.000037
H140	H	1.365955	-0.138993	0.499963
H141	H	1.059787	0.168591	-0.484691
H142	H	1.559787	0.668591	0.015309
H143	H	0.891641	-0.395050	-0.000032
H144	H	1.391641	0.104950	0.499968
O145	O	0.888220	0.017150	-0.798822
O146	O	1.388220	0.517150	-0.298822
H147	H	0.853225	-0.013735	-0.752106
H148	H	1.353225	0.486265	-0.252106
O149	O	0.806874	-0.269866	-0.000035
O150	O	1.306874	0.230134	0.499965
H151	H	0.813784	-0.334993	-0.000047
H152	H	1.313784	0.165007	0.499953
H153	H	0.419762	-0.023781	-0.000063
H154	H	0.919762	0.476219	0.499937
H155	H	1.100119	-0.295458	-0.000055
H156	H	1.600119	0.204542	0.499945
O157	O	1.172466	-0.516628	-0.000037
O158	O	1.672466	-0.016628	0.499963
H159	H	1.220903	-0.565178	-0.000026
H160	H	1.720903	-0.065178	0.499974
O161	O	0.897809	0.025682	-0.610562
O162	O	1.397809	0.525682	-0.110562
H163	H	0.858026	-0.009407	-0.657260
H164	H	1.358026	0.490593	-0.157260
H165	H	0.881211	0.011118	-0.213200
H166	H	1.381211	0.511118	0.286800
H167	H	1.076328	0.183248	-0.213244
H168	H	1.576328	0.683248	0.286756
O169	O	1.121351	0.222884	-0.610617
O170	O	1.621351	0.722884	-0.110617
H171	H	1.115912	0.218117	-0.540028
H172	H	1.615912	0.718117	-0.040028
O173	O	1.111744	0.214365	-0.798872
O174	O	1.611744	0.714365	-0.298872
H175	H	1.151512	0.249469	-0.752176
H176	H	1.651512	0.749469	-0.252176
