data_functionalizedCrystal
_audit_creation_method	'MofGen! by Chris Wilmer'
_symmetry_space_group_name_H-M	'P1'
_symmetry_Int_Tables_number	1
_symmetry_cell_setting	triclinic
loop_
_symmetry_equiv_pos_as_xyz
  x,y,z
_cell_length_a	14.560432
_cell_length_b	23.196402
_cell_length_c	23.196402
_cell_angle_alpha	60.003756
_cell_angle_beta	60.005612
_cell_angle_gamma	90.005927
loop_
_atom_site_label
_atom_site_type_symbol
_atom_site_fract_x
_atom_site_fract_y
_atom_site_fract_z
Zr1	Zr	0.884840	-0.075631	0.630990
O2	O	0.738202	-0.167676	0.751247
O3	O	0.929780	-0.047417	0.510730
O4	O	0.929783	-0.167681	0.630989
O5	O	0.738211	0.047458	0.630989
O6	O	1.080920	-0.167681	0.630991
O7	O	0.738199	-0.047412	0.630988
O8	O	1.080915	0.047449	0.415869
O9	O	0.738217	-0.167673	0.846111
O10	O	1.061754	-0.035381	0.560197
O11	O	0.948971	0.035420	0.560196
O12	O	0.948975	-0.106175	0.701786
O13	O	0.836192	-0.035375	0.701785
Zr14	Zr	1.125908	0.075676	0.630996
Zr15	Zr	1.125887	-0.075631	0.630993
Zr16	Zr	0.884861	0.075676	0.630992
Zr17	Zr	0.884865	-0.075625	0.782287
Zr18	Zr	1.125883	0.075670	0.479699
O19	O	1.080969	0.047462	0.751256
O20	O	1.080940	-0.167677	0.751252
O21	O	0.738231	0.047462	0.751250
O22	O	1.272546	0.167721	0.510738
O23	O	1.272517	-0.047417	0.510735
O24	O	0.929809	0.167721	0.510733
O25	O	1.272537	-0.047413	0.630996
O26	O	1.080966	0.167726	0.630997
O27	O	0.929828	0.167726	0.630994
O28	O	1.272550	0.047457	0.630998
O29	O	0.929817	-0.167673	0.846114
O30	O	1.080931	0.167718	0.415871
O31	O	1.272531	0.167718	0.415874
O32	O	1.272515	0.047449	0.415873
O33	O	0.738233	-0.047404	0.846113
O34	O	0.929833	-0.047404	0.846116
O35	O	1.061773	0.106220	0.560199
O36	O	1.174556	0.035420	0.560200
O37	O	1.061777	-0.035375	0.701789
O38	O	0.948994	0.035425	0.701788
C39	C	0.703861	0.000023	0.630988
C40	C	0.601530	0.000023	0.630986
C41	C	1.005344	0.000015	0.441743
C42	C	1.005333	0.000013	0.377513
C43	C	1.005400	0.189284	0.630996
C44	C	1.005408	0.253517	0.630997
C45	C	0.719255	0.073927	0.483166
C46	C	0.730041	0.110875	0.409258
C47	C	0.633889	0.110873	0.409261
C48	C	0.526942	0.073921	0.483180
C49	C	0.516156	0.036972	0.557088
C50	C	0.612317	0.036976	0.557077
C51	C	0.398432	-0.036927	0.704907
C52	C	0.494583	-0.036930	0.704905
C53	C	0.291486	-0.073879	0.778826
C54	C	0.280698	-0.110832	0.852735
C55	C	0.376859	-0.110830	0.852729
C56	C	0.483798	-0.073878	0.778813
C57	C	1.306887	0.000022	0.630998
C58	C	1.409218	0.000022	0.630999
C59	C	1.005349	-0.189239	0.630990
C60	C	1.005340	-0.253473	0.630989
C61	C	0.946544	0.246738	0.704902
C62	C	0.946527	0.307093	0.704903
C63	C	1.005397	0.374226	0.630995
C64	C	1.064264	0.381002	0.557079
C65	C	1.064270	0.320648	0.557080
C66	C	1.104004	0.498161	0.574371
C67	C	1.104002	0.558512	0.574373
C68	C	1.005378	0.560380	0.630988
C69	C	0.906758	0.501881	0.687615
C70	C	0.906764	0.441527	0.687616
C71	C	1.005397	0.439674	0.630985
C72	C	0.946491	0.619041	0.704900
C73	C	0.946471	0.679398	0.704898
C74	C	1.064219	0.753308	0.557072
C75	C	1.064228	0.692951	0.557076
C76	C	1.005366	0.625820	0.630993
C77	C	1.088604	0.052273	0.295087
C78	C	1.088612	0.052279	0.234726
C79	C	1.005357	0.000015	0.256797
C80	C	0.922071	-0.052249	0.339238
C81	C	0.922060	-0.052250	0.399596
C82	C	0.979423	-0.063776	0.201209
C83	C	0.979443	-0.063775	0.140850
C84	C	1.005387	0.000018	0.070636
C85	C	1.031336	0.063815	0.060778
C86	C	1.031325	0.063814	0.121136
C87	C	1.005360	0.000011	0.191355
C88	C	1.088671	0.052289	-0.077244
C89	C	1.088672	0.052296	-0.137604
C90	C	0.922135	-0.052238	-0.033089
C91	C	0.922131	-0.052239	0.027267
C92	C	1.005405	0.000024	0.005185
C93	C	1.005405	0.000029	0.820243
C94	C	1.005415	0.000032	0.884472
C95	C	1.306857	0.000015	0.441748
C96	C	1.409177	0.000012	0.377520
C97	C	1.005369	0.189277	0.441746
C98	C	1.005368	0.253508	0.377517
C99	C	1.306882	0.189276	0.441751
C100	C	1.409211	0.253507	0.377524
C101	C	0.703866	-0.189232	0.820235
C102	C	0.601537	-0.253463	0.884462
C103	C	0.703891	0.000030	0.820238
C104	C	0.601571	0.000032	0.884466
C105	C	1.005379	-0.189232	0.820240
C106	C	1.005381	-0.253463	0.884468
C107	C	1.398347	-0.036952	0.347356
C108	C	1.494478	-0.036969	0.287015
C109	C	1.601440	-0.000016	0.256835
C110	C	1.612268	0.036950	0.287005
C111	C	1.516137	0.036962	0.347349
C112	C	1.064248	0.320635	0.347356
C113	C	1.064242	0.380993	0.287015
C114	C	1.005362	0.374222	0.256832
C115	C	0.946474	0.307088	0.286999
C116	C	0.946474	0.246732	0.347343
C117	C	1.516148	0.246714	0.347362
C118	C	1.612306	0.307060	0.287023
C119	C	1.601526	0.374199	0.256841
C120	C	1.494578	0.380991	0.287009
C121	C	1.398422	0.320646	0.347351
C122	C	0.494600	-0.246669	0.914630
C123	C	0.398442	-0.307015	0.974989
C124	C	0.409223	-0.374154	1.005173
C125	C	0.516170	-0.380946	0.975002
C126	C	0.612326	-0.320601	0.914649
C127	C	0.612402	0.036991	0.914636
C128	C	0.516270	0.036990	0.974993
C129	C	0.409309	0.000036	1.005175
C130	C	0.398480	-0.036927	0.975003
C131	C	0.494611	-0.036931	0.914650
C132	C	1.064273	-0.246670	0.914632
C133	C	1.064296	-0.307016	0.974974
C134	C	1.005420	-0.374155	1.005155
C135	C	0.946527	-0.380947	0.974984
C136	C	0.946510	-0.320601	0.914640
H137	H	0.797554	0.073926	0.483155
H138	H	1.112196	0.326161	0.371925
C139	C	0.730049	0.077640	0.881446
H140	H	0.785761	0.072354	0.841176
H141	H	0.738485	0.059386	0.924773
H142	H	0.738484	0.126264	0.857904
H143	H	0.898530	0.192076	0.371892
C144	C	0.528195	0.077650	1.008174
H145	H	0.455630	0.072355	1.048450
H146	H	0.568141	0.126270	0.964850
H147	H	0.568160	0.059395	1.031710
C148	C	1.128988	0.700403	0.475781
H149	H	1.120553	0.654844	0.486366
H150	H	1.206444	0.725484	0.445411
H151	H	1.099899	0.725471	0.445414
C152	C	1.482547	-0.077624	0.253831
H153	H	1.405075	-0.099616	0.280440
H154	H	1.517586	-0.112606	0.263725
H155	H	1.517604	-0.045722	0.196852
C156	C	1.729936	0.299580	0.253823
H157	H	1.785667	0.345132	0.213563
H158	H	1.738329	0.274506	0.230279
H159	H	1.738385	0.274494	0.297145
C160	C	0.881706	-0.328079	0.881476
H161	H	0.890122	-0.282528	0.841213
H162	H	0.804257	-0.353159	0.924814
H163	H	0.910773	-0.353158	0.857930
C164	C	1.180192	0.109765	0.270795
H165	H	1.229781	0.140894	0.213056
H166	H	1.221312	0.088298	0.292173
H167	H	1.145980	0.135584	0.292162
H168	H	0.448655	0.073930	0.483177
H169	H	1.112200	0.435650	0.262460
H170	H	1.679706	-0.000031	0.207699
H171	H	0.331042	0.000044	1.054318
H172	H	0.311379	-0.067014	0.999586
H173	H	0.213197	-0.073874	0.778824
C174	C	0.482683	-0.077577	0.881460
H175	H	0.405211	-0.099576	0.908076
H176	H	0.517735	-0.112554	0.891341
H177	H	0.517726	-0.045671	0.824483
C178	C	1.180254	0.109782	-0.101529
H179	H	1.229840	0.140915	-0.159267
H180	H	1.221379	0.088315	-0.080155
H181	H	1.146038	0.135597	-0.080156
H182	H	1.699369	0.067035	0.262424
C183	C	1.129045	-0.172825	0.881442
H184	H	1.164128	-0.177432	0.908049
H185	H	1.078237	-0.147741	0.891334
H186	H	1.184757	-0.147750	0.824463
C187	C	0.881786	0.172900	0.786207
H188	H	0.846717	0.177510	0.830223
H189	H	0.932604	0.147821	0.789283
H190	H	0.826064	0.147817	0.789279
C191	C	0.830539	-0.109727	0.117940
H192	H	0.842450	-0.102240	0.150726
H193	H	0.833986	-0.154847	0.129526
H194	H	0.758665	-0.107552	0.129511
C195	C	1.129067	-0.299532	1.008160
H196	H	1.164107	-0.250903	0.981551
H197	H	1.184793	-0.321529	0.998267
H198	H	1.078245	-0.321539	1.065139
C199	C	1.528065	0.077635	0.380513
H200	H	1.605537	0.099644	0.353886
H201	H	1.493015	0.045750	0.437489
H202	H	1.493020	0.112616	0.370605
H203	H	0.817127	0.140963	0.349075
C204	C	0.881688	-0.454800	1.008236
H205	H	0.846589	-0.450210	0.981643
H206	H	0.826002	-0.479834	1.065209
H207	H	0.932459	-0.479915	0.998370
C208	C	1.280796	0.328124	0.380519
H209	H	1.225063	0.282572	0.420784
H210	H	1.272378	0.353205	0.337185
H211	H	1.272373	0.353202	0.404065
C212	C	1.180214	0.109766	0.144048
H213	H	1.229809	0.140889	0.139542
H214	H	1.146022	0.135583	0.118323
H215	H	1.221341	0.088287	0.118341
H216	H	0.642676	0.140962	0.349079
C217	C	1.005378	0.440618	0.190449
H218	H	1.048891	0.481564	0.176808
H219	H	0.930374	0.440632	0.210221
H220	H	1.036908	0.440626	0.143355
H221	H	0.898535	0.301586	0.262414
C222	C	1.528023	0.172867	0.380556
H223	H	1.455446	0.137894	0.420811
H224	H	1.567970	0.167576	0.404104
H225	H	1.567971	0.167573	0.337228
C226	C	1.005437	-0.440529	1.071538
H227	H	1.048937	-0.426861	1.085182
H228	H	1.036952	-0.467839	1.051767
H229	H	0.930425	-0.467828	1.118631
C230	C	1.707303	0.440573	0.190459
H231	H	1.772531	0.426905	0.176817
H232	H	1.707332	0.467883	0.210231
H233	H	1.707314	0.467872	0.143365
H234	H	0.193620	-0.140913	0.912914
C235	C	1.059843	0.133980	0.110307
H236	H	1.056122	0.124840	0.156310
H237	H	1.007410	0.156809	0.105452
H238	H	1.133601	0.163577	0.062482
H239	H	0.562098	-0.073874	0.778800
C240	C	0.364993	-0.151415	0.934027
H241	H	0.437572	-0.146103	0.923441
H242	H	0.325026	-0.200044	0.964455
H243	H	0.325069	-0.133107	0.964335
H244	H	0.330917	-0.423286	1.054317
C245	C	0.881780	0.299645	0.786201
H246	H	0.890203	0.345205	0.775612
H247	H	0.910864	0.274578	0.816567
H248	H	0.804317	0.274565	0.816573
C249	C	0.798288	0.377188	0.749892
H250	H	0.739544	0.386941	0.783608
H251	H	0.810784	0.337273	0.782638
H252	H	0.777600	0.367667	0.721841
H253	H	0.699396	-0.326141	0.890086
H254	H	0.826450	0.503398	0.733717
H255	H	1.485817	0.435664	0.262426
C256	C	0.881729	0.545198	0.786203
H257	H	0.846652	0.549806	0.830221
H258	H	0.932546	0.520119	0.789283
H259	H	0.826014	0.520115	0.789270
H260	H	0.898529	0.673872	0.765084
C261	C	1.128937	0.827146	0.475773
H262	H	1.120497	0.862121	0.486356
H263	H	1.099834	0.832414	0.445424
H264	H	1.206406	0.832463	0.445386
C265	C	0.280812	-0.299535	1.008164
H266	H	0.225081	-0.345087	1.048439
H267	H	0.272381	-0.274463	0.964836
H268	H	0.272401	-0.274448	1.031699
C269	C	0.528020	-0.454800	1.008200
H270	H	0.605479	-0.450210	0.981594
H271	H	0.492939	-0.479872	0.998308
H272	H	0.492965	-0.479877	1.065179
C273	C	1.212476	0.622853	0.512087
H274	H	1.271208	0.613104	0.478359
H275	H	1.233182	0.632386	0.540118
H276	H	1.199963	0.662765	0.479342
C277	C	1.212492	0.496118	0.512082
H278	H	1.271225	0.539597	0.478364
H279	H	1.199986	0.488944	0.479339
H280	H	1.233201	0.458559	0.540118
C281	C	0.830551	-0.109728	-0.008801
H282	H	0.780952	-0.140851	0.048938
H283	H	0.864751	-0.135544	-0.030170
H284	H	0.789428	-0.088251	-0.030177
H285	H	1.112194	0.435666	0.496902
H286	H	1.112206	0.326173	0.496895
C287	C	1.059869	0.133991	-0.016448
H288	H	1.056146	0.124856	-0.050980
H289	H	1.133616	0.163584	-0.044494
H290	H	1.007426	0.156819	-0.001513
H291	H	1.156480	0.094856	-0.204722
H292	H	0.958318	-0.115722	0.148881
C293	C	1.280702	-0.077607	0.380548
H294	H	1.288036	-0.099628	0.353941
H295	H	1.240742	-0.045713	0.370656
H296	H	1.240757	-0.112579	0.437527
H297	H	0.958285	-0.115728	0.258383
H298	H	0.854284	-0.094802	0.357205
H299	H	0.485801	-0.192007	0.890057
C300	C	0.830464	-0.109742	0.490268
H301	H	0.780882	-0.140871	0.494772
H302	H	0.789337	-0.088274	0.515986
H303	H	0.864670	-0.135561	0.515985
