data_functionalizedCrystal
_audit_creation_method	'MofGen! by Chris Wilmer'
_symmetry_space_group_name_H-M	'P1'
_symmetry_Int_Tables_number	1
_symmetry_cell_setting	triclinic
loop_
_symmetry_equiv_pos_as_xyz
  x,y,z
_cell_length_a	19.188930
_cell_length_b	19.188924
_cell_length_c	14.472310
_cell_angle_alpha	89.996838
_cell_angle_beta	89.973109
_cell_angle_gamma	83.143372
loop_
_atom_site_label
_atom_site_type_symbol
_atom_site_fract_x
_atom_site_fract_y
_atom_site_fract_z
O1	O	0.926152	0.087163	-0.077142
O2	O	1.259485	0.420496	0.256191
O3	O	1.592819	0.753830	0.589525
O4	O	0.722840	0.098897	-0.077079
O5	O	1.056174	0.432231	0.256254
O6	O	1.389507	0.765564	0.589587
O7	O	0.830366	-0.008626	-0.077102
O8	O	1.163699	0.324708	0.256232
O9	O	1.497032	0.658041	0.589565
O10	O	0.818626	0.194686	-0.077120
O11	O	1.151960	0.528020	0.256214
O12	O	1.485293	0.861353	0.589547
O13	O	0.830338	-0.008619	0.076580
O14	O	1.163671	0.324714	0.409914
O15	O	1.497005	0.658047	0.743247
O16	O	0.722813	0.098904	0.076603
O17	O	1.056146	0.432237	0.409936
O18	O	1.389479	0.765570	0.743269
O19	O	0.926124	0.087169	0.076540
O20	O	1.259458	0.420503	0.409873
O21	O	1.592791	0.753836	0.743207
Cu22	Cu	0.824466	0.093037	0.090604
Cu23	Cu	1.157799	0.426370	0.423937
Cu24	Cu	1.491133	0.759704	0.757270
Cu25	Cu	0.824499	0.093030	-0.091143
Cu26	Cu	1.157832	0.426363	0.242190
Cu27	Cu	1.491165	0.759696	0.575524
O28	O	0.818599	0.194693	0.076562
O29	O	1.151932	0.528026	0.409896
O30	O	1.485265	0.861359	0.743229
C31	C	0.696815	0.098521	-0.000230
C32	C	1.030149	0.431854	0.333103
C33	C	1.363482	0.765187	0.666436
C34	C	0.619311	0.097380	-0.000206
C35	C	0.952644	0.430713	0.333127
C36	C	1.285978	0.764047	0.666461
C37	C	0.574386	0.160471	-0.000226
C38	C	0.907719	0.493804	0.333107
C39	C	1.241052	0.827138	0.666441
C40	C	0.501562	0.159399	-0.000236
C41	C	0.834895	0.492733	0.333097
C42	C	1.168228	0.826066	0.666431
C43	C	0.473667	0.095233	-0.000245
C44	C	0.807000	0.428566	0.333089
C45	C	1.140333	0.761900	0.666422
C46	C	0.518602	0.032134	-0.000219
C47	C	0.851935	0.365467	0.333114
C48	C	1.185269	0.698800	0.666448
C49	C	0.591424	0.033207	-0.000200
C50	C	0.924758	0.366540	0.333134
C51	C	1.258091	0.699874	0.666467
N52	N	0.365697	0.046184	-0.052582
N53	N	0.699030	0.379517	0.280751
N54	N	1.032364	0.712850	0.614085
N55	N	0.296519	0.045168	-0.052602
N56	N	0.629852	0.378502	0.280731
N57	N	0.963185	0.711835	0.614064
C58	C	0.254258	0.091995	-0.000301
C59	C	0.587592	0.425328	0.333033
C60	C	0.920925	0.758661	0.666366
N61	N	0.283788	0.139886	0.052010
N62	N	0.617122	0.473219	0.385344
N63	N	0.950455	0.806552	0.718677
N64	N	0.352973	0.140903	0.052027
N65	N	0.686306	0.474237	0.385360
N66	N	1.019640	0.807570	0.718693
C67	C	0.394704	0.094062	-0.000265
C68	C	0.728038	0.427395	0.333068
C69	C	1.061371	0.760728	0.666402
C70	C	0.130368	0.153928	-0.000330
C71	C	0.463702	0.487261	0.333003
C72	C	0.797035	0.820595	0.666336
C73	C	0.057543	0.152854	-0.000335
C74	C	0.390877	0.486187	0.332999
C75	C	0.724210	0.819520	0.666332
C76	C	0.074586	0.025586	-0.000327
C77	C	0.407919	0.358920	0.333006
C78	C	0.741252	0.692253	0.666339
C79	C	0.147409	0.026663	-0.000314
C80	C	0.480742	0.359996	0.333020
C81	C	0.814075	0.693329	0.666353
C82	C	0.175295	0.090835	-0.000320
C83	C	0.508629	0.424169	0.333014
C84	C	0.841962	0.757502	0.666347
C85	C	0.829973	-0.034634	-0.000260
C86	C	1.163306	0.298700	0.333074
C87	C	1.496639	0.632033	0.666407
C88	C	0.828834	-0.112138	-0.000257
C89	C	1.162167	0.221195	0.333076
C90	C	1.495500	0.554528	0.666410
C91	C	0.828317	-0.148541	-0.084029
C92	C	1.161651	0.184793	0.249304
C93	C	1.494984	0.518126	0.582638
C94	C	0.827237	-0.221363	-0.084036
C95	C	1.160571	0.111970	0.249298
C96	C	1.493904	0.445303	0.582631
C97	C	0.826688	-0.257783	-0.000265
C98	C	1.160021	0.075550	0.333068
C99	C	1.493355	0.408884	0.666401
C100	C	0.827201	-0.221371	0.083518
C101	C	1.160534	0.111962	0.416851
C102	C	1.493867	0.445295	0.750184
C103	C	0.828273	-0.148549	0.083522
C104	C	1.161607	0.184784	0.416855
C105	C	1.494940	0.518118	0.750189
N106	N	0.864725	-0.377444	0.062071
N107	N	1.198058	-0.044110	0.395404
N108	N	1.531391	0.289223	0.728737
N109	N	0.863707	-0.446622	0.062061
N110	N	1.197040	-0.113289	0.395394
N111	N	1.530374	0.220045	0.728728
C112	C	0.823454	-0.477192	-0.000273
C113	C	1.156787	-0.143859	0.333060
C114	C	1.490121	0.189475	0.666393
N115	N	0.784266	-0.435972	-0.062612
N116	N	1.117599	-0.102638	0.270722
N117	N	1.450933	0.230695	0.604055
N118	N	0.785287	-0.366788	-0.062605
N119	N	1.118620	-0.033454	0.270729
N120	N	1.451954	0.299879	0.604062
C121	C	0.825524	-0.336746	-0.000261
C122	C	1.158858	-0.003413	0.333073
C123	C	1.492191	0.329920	0.666406
C124	C	0.821766	-0.592557	-0.084059
C125	C	1.155099	-0.259224	0.249275
C126	C	1.488432	0.074110	0.582608
C127	C	0.820681	-0.665380	-0.084062
C128	C	1.154015	-0.332047	0.249272
C129	C	1.487348	0.001286	0.582605
C130	C	0.820652	-0.665388	0.083494
C131	C	1.153985	-0.332055	0.416827
C132	C	1.487318	0.001279	0.750161
C133	C	0.821729	-0.592565	0.083495
C134	C	1.155062	-0.259232	0.416828
C135	C	1.488395	0.074102	0.750162
C136	C	0.822289	-0.556154	-0.000284
C137	C	1.155622	-0.222821	0.333049
C138	C	1.488956	0.110512	0.666383
C139	C	0.952149	0.087546	-0.000311
C140	C	1.285482	0.420880	0.333022
C141	C	1.618816	0.754213	0.666355
C142	C	1.029654	0.088687	-0.000342
C143	C	1.362987	0.422020	0.332992
C144	C	1.696320	0.755354	0.666325
C145	C	0.818992	0.220700	-0.000282
C146	C	1.152325	0.554034	0.333052
C147	C	1.485659	0.887367	0.666385
C148	C	0.820131	0.298205	-0.000291
C149	C	1.153464	0.631539	0.333043
C150	C	1.486797	0.964872	0.666376
N151	N	0.824448	0.093042	0.218435
N152	N	1.157781	0.426375	0.551768
N153	N	1.491115	0.759709	0.885101
N154	N	0.824522	0.093019	-0.218974
N155	N	1.157855	0.426353	0.114359
N156	N	1.491189	0.759686	0.447693
C157	C	0.824498	0.093027	0.592526
C158	C	1.157831	0.426360	0.925859
C159	C	1.491164	0.759694	1.259192
C160	C	0.766771	0.150369	0.553372
C161	C	1.100105	0.483702	0.886705
C162	C	1.433438	0.817035	1.220039
C163	C	0.766903	0.150577	0.446284
C164	C	1.100237	0.483910	0.779617
C165	C	1.433570	0.817243	1.112950
C166	C	0.824472	0.093034	0.406935
C167	C	1.157806	0.426368	0.740268
C168	C	1.491139	0.759701	1.073601
C169	C	0.897274	0.108724	0.445747
C170	C	1.230608	0.442057	0.779081
C171	C	1.563941	0.775390	1.112414
C172	C	0.896950	0.109131	0.552869
C173	C	1.230283	0.442464	0.886202
C174	C	1.563616	0.775798	1.219536
C175	C	0.810073	0.019824	0.553067
C176	C	1.143406	0.353158	0.886401
C177	C	1.476739	0.686491	1.219734
C178	C	0.808400	0.020318	0.445941
C179	C	1.141734	0.353651	0.779274
C180	C	1.475067	0.686985	1.112607
C181	C	0.824463	0.093037	0.302047
C182	C	1.157796	0.426370	0.635380
C183	C	1.491129	0.759704	0.968713
C184	C	0.824512	0.093026	0.697414
C185	C	1.157845	0.426359	1.030747
C186	C	1.491179	0.759692	1.364081
H187	H	0.597086	0.212725	-0.000233
H188	H	0.930419	0.546059	0.333101
H189	H	1.263752	0.879392	0.666434
H190	H	0.712781	0.141262	0.420046
H191	H	1.046114	0.474595	0.753379
H192	H	1.379448	0.807928	1.086712
F193	F	0.195224	-0.040489	-0.000297
F194	F	0.528557	0.292845	0.333036
F195	F	0.861891	0.626178	0.666370
H196	H	0.758151	0.004683	0.580153
H197	H	1.091484	0.338016	0.913486
H198	H	1.424817	0.671349	1.246820
F199	F	0.044902	-0.042705	-0.000327
F200	F	0.378236	0.290628	0.333006
F201	F	0.711569	0.623962	0.666339
H202	H	0.020965	0.204232	-0.000346
H203	H	0.354298	0.537566	0.332987
H204	H	0.687632	0.870899	0.666321
F205	F	0.453740	0.226552	-0.000255
F206	F	0.787073	0.559885	0.333078
F207	F	1.120407	0.893219	0.666412
F208	F	0.913609	0.178901	0.585504
F209	F	1.246942	0.512235	0.918837
F210	F	1.580275	0.845568	1.252171
H211	H	0.628003	-0.018171	-0.000184
H212	H	0.961337	0.315162	0.333149
H213	H	1.294670	0.648496	0.666483
H214	H	0.828772	-0.118899	-0.152248
H215	H	1.162105	0.214434	0.181085
H216	H	1.495438	0.547767	0.514418
F217	F	0.822358	-0.553803	-0.173222
F218	F	1.155691	-0.220470	0.160111
F219	F	1.489024	0.112864	0.493445
H220	H	0.153075	0.206181	-0.000322
H221	H	0.486408	0.539515	0.333012
H222	H	0.819741	0.872848	0.666345
F223	F	0.820063	-0.704143	0.172649
F224	F	1.153397	-0.370809	0.505983
F225	F	1.486730	-0.037476	0.839316
H226	H	0.826813	-0.251007	-0.152255
H227	H	1.160146	0.082326	0.181078
H228	H	1.493479	0.415659	0.514412
H229	H	0.852173	-0.022845	0.578385
H230	H	1.185506	0.310489	0.911718
H231	H	1.518839	0.643822	1.245052
F232	F	0.822278	-0.553821	0.172658
F233	F	1.155612	-0.220488	0.505991
F234	F	1.488945	0.112845	0.839325
F235	F	0.826611	-0.260132	0.172672
F236	F	1.159945	0.073202	0.506005
F237	F	1.493278	0.406535	0.839338
F238	F	0.828822	-0.109806	0.172688
F239	F	1.162155	0.223528	0.506021
F240	F	1.495488	0.556861	0.839354
F241	F	0.820127	-0.704122	-0.173229
F242	F	1.153460	-0.370788	0.160105
F243	F	1.486794	-0.037455	0.493438
F244	F	0.695795	0.138390	0.587084
F245	F	1.029129	0.471724	0.920417
F246	F	1.362462	0.805057	1.253750
F247	F	0.778619	0.220981	0.588517
F248	F	1.111952	0.554315	0.921851
F249	F	1.445285	0.887648	1.255184
H250	H	0.495885	-0.020111	-0.000239
H251	H	0.829219	0.313222	0.333095
H252	H	1.162552	0.646556	0.666428
F253	F	0.778890	0.221592	0.412762
F254	F	1.112223	0.554926	0.746096
F255	F	1.445557	0.888259	1.079429
F256	F	0.954717	0.056549	0.586721
F257	F	1.288051	0.389882	0.920054
F258	F	1.621384	0.723215	1.253387
F259	F	0.954752	0.055574	0.412431
F260	F	1.288086	0.388907	0.745764
F261	F	1.621419	0.722241	1.079098
F262	F	0.738403	0.004747	0.412790
F263	F	1.071736	0.338080	0.746123
F264	F	1.405069	0.671413	1.079456
F265	F	0.914342	0.177697	0.410658
F266	F	1.247675	0.511030	0.743991
F267	F	1.581009	0.844363	1.077324
F268	F	0.859814	-0.038048	0.410945
F269	F	1.193148	0.295285	0.744279
F270	F	1.526481	0.628619	1.077612
