data_functionalizedCrystal
_audit_creation_method	'MofGen! by Chris Wilmer'
_symmetry_space_group_name_H-M	'P1'
_symmetry_Int_Tables_number	1
_symmetry_cell_setting	triclinic
loop_
_symmetry_equiv_pos_as_xyz
  x,y,z
_cell_length_a	27.780901
_cell_length_b	27.780865
_cell_length_c	27.780853
_cell_angle_alpha	120.006138
_cell_angle_beta	90.001448
_cell_angle_gamma	60.000211
loop_
_atom_site_label
_atom_site_type_symbol
_atom_site_fract_x
_atom_site_fract_y
_atom_site_fract_z
O1	O	-0.330206	-0.424601	-0.014326
O2	O	-0.260209	-0.326028	0.014248
O3	O	-0.260207	-0.424602	-0.084328
O4	O	-0.330208	-0.326027	0.084250
O5	O	-0.340269	-0.344537	-0.084320
O6	O	-0.340271	-0.245964	0.014256
O7	O	-0.410268	-0.344536	-0.014318
Cu8	Cu	-0.382580	-0.287939	-0.000030
Cu9	Cu	-0.287897	-0.382625	-0.000040
O10	O	-0.410271	-0.245963	0.084257
C11	C	-0.207591	-0.090571	0.029861
C12	C	-0.237293	-0.031168	0.025768
C13	C	-0.236696	-0.119396	0.030272
C14	C	-0.120427	-0.177734	0.029867
C15	C	-0.056933	-0.211526	0.025779
C16	C	-0.149664	-0.206427	0.030277
C17	C	-0.207595	-0.177732	0.029869
C18	C	-0.237300	-0.211521	0.025785
C19	C	-0.149661	-0.119398	0.030269
C20	C	-0.261298	-0.238821	0.022484
C21	C	-0.261288	0.016823	0.022461
C22	C	-0.005635	-0.238827	0.022476
C23	C	-0.291405	-0.273068	0.018344
C24	C	-0.291391	0.077030	0.018312
C25	C	0.058720	-0.273077	0.018333
C26	C	-0.207588	-0.492836	-0.285242
C27	C	-0.237294	-0.459046	-0.221745
C28	C	-0.236692	-0.464138	-0.314474
C29	C	-0.120417	-0.580002	-0.372414
C30	C	-0.056919	-0.639410	-0.402122
C31	C	-0.149653	-0.551172	-0.401514
C32	C	-0.207587	-0.492832	-0.372406
C33	C	-0.237292	-0.459038	-0.402106
C34	C	-0.149654	-0.551175	-0.314482
C35	C	-0.261290	-0.431735	-0.426100
C36	C	-0.261293	-0.431746	-0.170445
C37	C	-0.005618	-0.687404	-0.426123
C38	C	-0.291398	-0.397482	-0.456201
C39	C	-0.291402	-0.397497	-0.106087
C40	C	0.058740	-0.747616	-0.456233
C41	C	-0.462869	-0.580021	-0.029971
C42	C	-0.433163	-0.639432	-0.025889
C43	C	-0.520801	-0.551192	-0.030375
C44	C	-0.462873	-0.492848	-0.029962
C45	C	-0.433171	-0.459054	-0.025870
C46	C	-0.520805	-0.464151	-0.030366
C47	C	-0.550038	-0.492850	-0.029962
C48	C	-0.613534	-0.459057	-0.025871
C49	C	-0.433767	-0.551190	-0.030375
C50	C	-0.664833	-0.431755	-0.022564
C51	C	-0.409164	-0.687429	-0.022590
C52	C	-0.409175	-0.431750	-0.022564
C53	C	-0.729189	-0.397504	-0.018417
C54	C	-0.379055	-0.747645	-0.018452
C55	C	-0.379071	-0.397497	-0.018416
O56	O	0.249050	-0.344548	-0.014327
O57	O	0.080485	-0.245978	0.014236
O58	O	0.179054	-0.344564	-0.084335
O59	O	0.150480	-0.245962	0.084244
O60	O	0.179051	-0.424619	-0.084327
O61	O	0.080481	-0.326033	0.014244
O62	O	0.249047	-0.424603	-0.014320
Cu63	Cu	0.164763	-0.382627	-0.000037
Cu64	Cu	0.164768	-0.287954	-0.000046
O65	O	0.150477	-0.326016	0.084252
O66	O	-0.410250	0.234686	-0.014359
O67	O	-0.340256	0.094699	0.014218
O68	O	-0.340247	0.094673	-0.084359
O69	O	-0.410258	0.234711	0.084218
O70	O	-0.260187	0.094671	-0.084361
O71	O	-0.260195	0.094697	0.014216
O72	O	-0.330189	0.234684	-0.014362
Cu73	Cu	-0.287882	0.164690	-0.000073
Cu74	Cu	-0.382563	0.164692	-0.000070
O75	O	-0.330198	0.234710	0.084215
O76	O	-0.330211	-0.326005	-0.575051
O77	O	-0.260201	-0.424582	-0.505067
O78	O	-0.260214	-0.326001	-0.505045
O79	O	-0.330199	-0.424586	-0.575074
O80	O	-0.340277	-0.245943	-0.424979
O81	O	-0.340265	-0.344524	-0.425001
O82	O	-0.410274	-0.245947	-0.494985
Cu83	Cu	-0.382580	-0.287925	-0.452682
Cu84	Cu	-0.287896	-0.382603	-0.547370
O85	O	-0.410262	-0.344528	-0.495007
O86	O	0.249072	-0.905287	-0.495044
O87	O	0.080501	-0.765286	-0.425039
O88	O	0.179059	-0.765274	-0.425026
O89	O	0.150514	-0.905299	-0.495058
O90	O	0.179063	-0.765273	-0.505085
O91	O	0.080505	-0.765285	-0.505098
O92	O	0.249075	-0.905285	-0.575104
Cu93	Cu	0.164790	-0.835285	-0.547411
Cu94	Cu	0.164787	-0.835287	-0.452732
O95	O	0.150517	-0.905297	-0.575117
C96	C	-0.550054	-0.090536	0.372353
C97	C	-0.613550	-0.031124	0.402061
C98	C	-0.520818	-0.119363	0.401454
C99	C	-0.462885	-0.177710	0.285178
C100	C	-0.433180	-0.211506	0.221678
C101	C	-0.433781	-0.206406	0.314412
C102	C	-0.462886	-0.177706	0.372346
C103	C	-0.433181	-0.211497	0.402048
C104	C	-0.520817	-0.119368	0.314418
C105	C	-0.409184	-0.238798	0.426044
C106	C	-0.664849	0.016873	0.426062
C107	C	-0.409182	-0.238811	0.170377
C108	C	-0.379078	-0.273048	0.456148
C109	C	-0.729206	0.077089	0.456173
C110	C	-0.379075	-0.273066	0.106017
C111	C	0.194666	-0.580069	-0.372419
C112	C	0.190575	-0.639477	-0.402120
C113	C	0.195074	-0.551248	-0.401528
C114	C	0.194672	-0.492892	-0.285253
C115	C	0.190587	-0.459091	-0.221754
C116	C	0.195079	-0.464204	-0.314493
C117	C	0.194669	-0.492908	-0.372427
C118	C	0.190582	-0.459124	-0.402136
C119	C	0.195076	-0.551232	-0.314486
C120	C	0.187279	-0.431829	-0.426137
C121	C	0.187268	-0.687473	-0.426114
C122	C	0.187285	-0.431782	-0.170454
C123	C	0.183135	-0.397587	-0.456249
C124	C	0.183121	-0.747685	-0.456217
C125	C	0.183145	-0.397523	-0.106095
C126	C	0.134861	-0.177672	0.372344
C127	C	0.138948	-0.211456	0.402053
C128	C	0.134457	-0.119333	0.401444
C129	C	0.134859	-0.177688	0.285170
C130	C	0.138944	-0.211490	0.221671
C131	C	0.134455	-0.119349	0.314402
C132	C	0.134865	-0.090512	0.372336
C133	C	0.138957	-0.031104	0.402036
C134	C	0.134451	-0.206377	0.314410
C135	C	0.142264	0.016891	0.426031
C136	C	0.142252	-0.238751	0.426055
C137	C	0.142246	-0.238799	0.170370
C138	C	0.146411	0.077104	0.456133
C139	C	0.146395	-0.272993	0.456166
C140	C	0.146386	-0.273058	0.106012
C141	C	-0.120390	-0.177837	-0.372455
C142	C	-0.056893	-0.211635	-0.402160
C143	C	-0.149624	-0.206539	-0.401559
C144	C	-0.207562	-0.090653	-0.285283
C145	C	-0.237270	-0.031232	-0.221784
C146	C	-0.236663	-0.119487	-0.314519
C147	C	-0.207557	-0.177837	-0.372453
C148	C	-0.237258	-0.211634	-0.402158
C149	C	-0.149629	-0.119487	-0.314521
C150	C	-0.261254	-0.238940	-0.426155
C151	C	-0.005594	-0.238941	-0.426159
C152	C	-0.261271	0.016773	-0.170483
C153	C	-0.291358	-0.273195	-0.456262
C154	C	0.058764	-0.273197	-0.456267
C155	C	-0.291381	0.076998	-0.106124
O156	O	0.150451	-0.246063	-0.495057
O157	O	0.179032	-0.344619	-0.425050
O158	O	0.080459	-0.246071	-0.425057
O159	O	0.249024	-0.344611	-0.495050
O160	O	0.080480	-0.326156	-0.505127
O161	O	0.179053	-0.424704	-0.505120
O162	O	0.150472	-0.326148	-0.575127
Cu163	Cu	0.164764	-0.382739	-0.547434
Cu164	Cu	0.164740	-0.288028	-0.452742
O165	O	0.249045	-0.424696	-0.575120
C166	C	-0.462891	0.507220	0.372310
C167	C	-0.433189	0.541018	0.402015
C168	C	-0.520824	0.535922	0.401415
C169	C	-0.462884	0.420035	0.285139
C170	C	-0.433176	0.360615	0.221640
C171	C	-0.520817	0.448869	0.314376
C172	C	-0.550057	0.507220	0.372311
C173	C	-0.613554	0.541017	0.402016
C174	C	-0.433784	0.448870	0.314376
C175	C	-0.664853	0.568322	0.426014
C176	C	-0.409194	0.568323	0.426013
C177	C	-0.409175	0.312610	0.170339
C178	C	-0.729211	0.602578	0.456121
C179	C	-0.379090	0.602579	0.456120
C180	C	-0.379064	0.252385	0.105980
H181	H	-0.126192	-0.095268	0.030927
H182	H	-0.126193	-0.253366	0.030939
H183	H	0.133800	-0.095198	0.449047
H184	H	-0.386169	-0.575318	-0.031028
H185	H	0.195733	-0.575389	-0.449131
H186	H	0.195728	-0.575354	-0.291011
H187	H	-0.544285	0.424735	0.290901
H188	H	-0.544277	-0.417203	-0.031014
H189	H	-0.544289	-0.095223	0.449060
N190	N	-0.370744	-0.268617	0.283321
H191	H	-0.344981	-0.257850	0.305843
H192	H	-0.368429	-0.307120	0.281202
N193	N	-0.299744	-0.401959	-0.283383
H194	H	-0.325487	-0.412760	-0.305918
H195	H	-0.313774	-0.388099	-0.242171
N196	N	-0.118558	-0.583112	-0.464558
H197	H	-0.077339	-0.624513	-0.478642
H198	H	-0.141120	-0.597087	-0.490277
H199	H	-0.126181	-0.575296	-0.291008
N200	N	0.133593	-0.268568	0.283315
H201	H	0.133407	-0.282457	0.310639
H202	H	0.097052	-0.257737	0.271578
H203	H	-0.126144	-0.253498	-0.449157
H204	H	-0.284266	-0.095347	-0.291046
H205	H	0.133803	-0.095231	0.290923
H206	H	-0.126156	-0.095359	-0.291050
H207	H	-0.544296	0.582874	0.449017
N208	N	-0.370733	0.416902	0.283280
H209	H	-0.356653	0.444040	0.310603
H210	H	-0.345032	0.368625	0.271549
N211	N	0.195960	-0.402028	-0.283413
H212	H	0.196155	-0.388132	-0.242197
H213	H	0.232508	-0.412887	-0.306000
H214	H	-0.544269	-0.575323	-0.031032
N215	N	-0.299745	-0.087440	0.031143
H216	H	-0.313826	-0.046038	0.031329
H217	H	-0.302110	-0.121500	-0.005009
N218	N	-0.551905	-0.087417	0.283324
H219	H	-0.593122	-0.046010	0.310649
H220	H	-0.529333	-0.073447	0.271590
