data_functionalizedCrystal
_audit_creation_method	'MofGen! by Chris Wilmer'
_symmetry_space_group_name_H-M	'P1'
_symmetry_Int_Tables_number	1
_symmetry_cell_setting	triclinic
loop_
_symmetry_equiv_pos_as_xyz
  x,y,z
_cell_length_a	12.503572
_cell_length_b	19.288864
_cell_length_c	19.288813
_cell_angle_alpha	96.874130
_cell_angle_beta	86.476549
_cell_angle_gamma	86.505348
loop_
_atom_site_label
_atom_site_type_symbol
_atom_site_fract_x
_atom_site_fract_y
_atom_site_fract_z
O1	O	-0.089688	-0.917286	0.090692
O2	O	-0.089618	-0.715027	0.102378
O3	O	-0.089621	-0.822021	-0.004599
O4	O	-0.089685	-0.810292	0.197669
O5	O	0.089020	-0.830071	-0.012654
O6	O	0.089024	-0.723077	0.094323
O7	O	0.088953	-0.925336	0.082637
Cu8	Cu	0.105300	-0.824942	0.087745
Cu9	Cu	-0.105965	-0.815421	0.097271
O10	O	0.088957	-0.818342	0.189614
C11	C	-0.000288	-0.693176	0.097974
C12	C	-0.000259	-0.616074	0.096844
N13	N	-0.254557	-0.808726	0.103966
C14	C	-0.000294	-0.825675	-0.034504
C15	C	-0.000274	-0.824561	-0.111610
C16	C	-0.473672	-0.798871	0.113815
C17	C	-0.527000	-0.841496	0.071197
C18	C	-0.648923	-0.836012	0.076677
C19	C	-0.351738	-0.804353	0.108336
N20	N	0.253892	-0.831643	0.081044
C21	C	-0.000379	-0.947187	0.087041
C22	C	-0.000415	-1.024289	0.088172
C23	C	-0.000296	-0.571364	0.159615
C24	C	-0.000307	-0.498917	0.158555
C25	C	-0.000304	-0.471181	0.094721
C26	C	-0.000261	-0.515901	0.031941
C27	C	-0.000239	-0.588347	0.033003
C28	C	-0.062910	-0.360107	0.047363
C29	C	-0.062939	-0.287661	0.046305
C30	C	-0.000368	-0.247733	0.091444
C31	C	0.062219	-0.280257	0.137654
C32	C	0.062241	-0.352704	0.138716
C33	C	-0.000327	-0.392626	0.093563
C34	C	-0.000416	-0.124468	0.153070
C35	C	-0.000420	-0.052020	0.152007
C36	C	-0.000385	-0.069004	0.025392
C37	C	-0.000369	-0.141451	0.026456
C38	C	-0.000390	-0.169178	0.090297
C39	C	-0.000373	-0.814688	0.219519
C40	C	-0.000400	-0.815802	0.296626
C41	C	0.096983	-0.820732	0.328429
C42	C	0.097001	-0.821799	0.400875
C43	C	-0.000369	-0.817951	0.441513
C44	C	-0.097765	-0.813016	0.409702
C45	C	-0.097780	-0.811942	0.337259
C46	C	-0.074961	-0.856975	0.554203
C47	C	-0.074942	-0.858054	0.626644
C48	C	-0.000326	-0.821261	0.664952
C49	C	0.074289	-0.783399	0.630808
C50	C	0.074273	-0.782325	0.558365
C51	C	-0.000364	-0.819115	0.520066
C52	C	0.097083	-0.827347	0.775309
C53	C	0.097097	-0.828410	0.847757
C54	C	-0.097672	-0.819635	0.856582
C55	C	-0.097683	-0.818565	0.784136
C56	C	-0.000303	-0.822425	0.743504
H57	H	-0.481088	-0.882106	0.030595
H58	H	-0.519578	-0.758262	0.154413
N59	N	0.202108	-0.831510	0.731479
H60	H	0.206461	-0.788217	0.706997
H61	H	0.206354	-0.874339	0.695491
N62	N	-0.000350	-0.189682	-0.041244
H63	H	0.065882	-0.223085	-0.046611
H64	H	-0.000392	-0.161074	-0.081806
N65	N	-0.000326	-0.601270	0.228469
H66	H	-0.000353	-0.561948	0.268074
H67	H	0.065904	-0.633925	0.228689
H68	H	-0.000209	-0.624750	-0.018115
H69	H	-0.000334	-0.462508	0.209672
N70	N	0.129743	-0.387786	0.188548
H71	H	0.169381	-0.351503	0.216985
H72	H	0.183214	-0.423665	0.161014
H73	H	-0.000416	-0.147045	0.205052
H74	H	-0.113905	-0.261186	0.008681
N75	N	0.202009	-0.824893	0.284605
H76	H	0.263705	-0.828178	0.315749
H77	H	0.206264	-0.781589	0.260135
H78	H	0.113171	-0.247749	0.174410
N79	N	-0.000374	-0.003797	0.219709
H80	H	-0.000360	-0.032359	0.260309
H81	H	-0.066581	0.029623	0.225042
N82	N	0.202039	-0.827115	0.435189
H83	H	0.263725	-0.829396	0.398455
H84	H	0.206263	-0.870802	0.459273
H85	H	0.176401	-0.832423	0.873649
H86	H	-0.000448	-0.046420	-0.026580
H87	H	-0.113870	-0.392611	0.010604
H88	H	-0.000273	-0.493313	-0.020032
N89	N	0.154742	-0.741492	0.521536
H90	H	0.202019	-0.718346	0.556791
H91	H	0.115427	-0.704525	0.497926
H92	H	0.135051	-0.753441	0.661997
H93	H	-0.176953	-0.816493	0.889669
N94	N	-0.202718	-0.813312	0.749820
H95	H	-0.264401	-0.811056	0.786552
H96	H	-0.206914	-0.855748	0.714194
H97	H	-0.135693	-0.888887	0.654438
N98	N	-0.155455	-0.896653	0.512890
H99	H	-0.202714	-0.920803	0.545510
H100	H	-0.116160	-0.932730	0.476383
N101	N	-0.202787	-0.808804	0.453536
H102	H	-0.188002	-0.810215	0.504257
H103	H	-0.245394	-0.849727	0.437048
N104	N	-0.202819	-0.806665	0.302946
H105	H	-0.264503	-0.804400	0.339679
H106	H	-0.207037	-0.849095	0.267316
