data_functionalizedCrystal
_audit_creation_method	'MofGen! by Chris Wilmer'
_symmetry_space_group_name_H-M	'P1'
_symmetry_Int_Tables_number	1
_symmetry_cell_setting	triclinic
loop_
_symmetry_equiv_pos_as_xyz
  x,y,z
_cell_length_a	13.897449
_cell_length_b	13.897448
_cell_length_c	13.897441
_cell_angle_alpha	89.969401
_cell_angle_beta	90.023394
_cell_angle_gamma	89.981481
loop_
_atom_site_label
_atom_site_type_symbol
_atom_site_fract_x
_atom_site_fract_y
_atom_site_fract_z
Zn1	Zn	1.474703	0.383963	0.545450
Zn2	Zn	1.724703	0.633963	0.795450
Zn3	Zn	1.974703	0.883963	1.045450
Zn4	Zn	2.224703	1.133963	1.295450
Zn5	Zn	1.474597	0.545285	0.384151
Zn6	Zn	1.724597	0.795285	0.634151
Zn7	Zn	1.974597	1.045285	0.884151
Zn8	Zn	2.224597	1.295285	1.134151
Zn9	Zn	1.313392	0.384007	0.384161
Zn10	Zn	1.563392	0.634007	0.634161
Zn11	Zn	1.813392	0.884007	0.884161
Zn12	Zn	2.063392	1.134007	1.134161
Zn13	Zn	1.313373	0.545220	0.545396
Zn14	Zn	1.563373	0.795220	0.795396
Zn15	Zn	1.813373	1.045220	1.045396
Zn16	Zn	2.063373	1.295220	1.295396
O17	O	1.394016	0.464619	0.464789
O18	O	1.644016	0.714619	0.714789
O19	O	1.894016	0.964619	0.964789
O20	O	2.144016	1.214619	1.214789
O21	O	1.609670	0.405371	0.524071
O22	O	1.859670	0.655371	0.774071
O23	O	2.109670	0.905371	1.024071
O24	O	2.359670	1.155371	1.274071
O25	O	1.453176	0.523937	0.249171
O26	O	1.703176	0.773937	0.499171
O27	O	1.953176	1.023937	0.749171
O28	O	2.203176	1.273937	0.999171
O29	O	1.334842	0.249020	0.405582
O30	O	1.584842	0.499020	0.655582
O31	O	1.834842	0.749020	0.905582
O32	O	2.084842	0.999020	1.155582
O33	O	1.609592	0.523893	0.405566
O34	O	1.859592	0.773893	0.655566
O35	O	2.109592	1.023893	0.905566
O36	O	2.359592	1.273893	1.155566
O37	O	1.453356	0.248987	0.524081
O38	O	1.703356	0.498987	0.774081
O39	O	1.953356	0.748987	1.024081
O40	O	2.203356	0.998987	1.274081
O41	O	1.334739	0.405447	0.249178
O42	O	1.584739	0.655447	0.499178
O43	O	1.834739	0.905447	0.749178
O44	O	2.084739	1.155447	0.999178
O45	O	1.178408	0.405384	0.405530
O46	O	1.428408	0.655384	0.655530
O47	O	1.678408	0.905384	0.905530
O48	O	1.928408	1.155384	1.155530
O49	O	1.334811	0.523783	0.680385
O50	O	1.584811	0.773783	0.930385
O51	O	1.834811	1.023783	1.180385
O52	O	2.084811	1.273783	1.430385
O53	O	1.178394	0.523826	0.523990
O54	O	1.428394	0.773826	0.773990
O55	O	1.678394	1.023826	1.023990
O56	O	1.928394	1.273826	1.273990
O57	O	1.453339	0.405308	0.680424
O58	O	1.703339	0.655308	0.930424
O59	O	1.953339	0.905308	1.180424
O60	O	2.203339	1.155308	1.430424
O61	O	1.453158	0.680258	0.405514
O62	O	1.703158	0.930258	0.655514
O63	O	1.953158	1.180258	0.905514
O64	O	2.203158	1.430258	1.155514
O65	O	1.334708	0.680210	0.523980
O66	O	1.584708	0.930210	0.773980
O67	O	1.834708	1.180210	1.023980
O68	O	2.084708	1.430210	1.273980
C69	C	1.143402	0.464604	0.464756
C70	C	1.393402	0.714604	0.714756
C71	C	1.643402	0.964604	0.964756
C72	C	1.893402	1.214604	1.214756
C73	C	1.036188	0.464621	0.464764
C74	C	1.286188	0.714621	0.714764
C75	C	1.536188	0.964621	0.964764
C76	C	1.786188	1.214621	1.214764
C77	C	0.949118	0.464624	0.464780
C78	C	1.199118	0.714624	0.714780
C79	C	1.449118	0.964624	0.964780
C80	C	1.699118	1.214624	1.214780
C81	C	0.839886	0.464631	0.464810
C82	C	1.089886	0.714631	0.714810
C83	C	1.339886	0.964631	0.964810
C84	C	1.589886	1.214631	1.214810
C85	C	1.393946	0.715233	0.464761
C86	C	1.643946	0.965233	0.714761
C87	C	1.893946	1.215233	0.964761
C88	C	2.143946	1.465233	1.214761
C89	C	1.394004	0.822447	0.464782
C90	C	1.644004	1.072447	0.714782
C91	C	1.894004	1.322447	0.964782
C92	C	2.144004	1.572447	1.214782
C93	C	1.394085	0.464533	0.716382
C94	C	1.644085	0.714533	0.966382
C95	C	1.894085	0.964533	1.216382
C96	C	2.144085	1.214533	1.466382
C97	C	1.394114	0.464497	0.823596
C98	C	1.644114	0.714497	1.073596
C99	C	1.894114	0.964497	1.323596
C100	C	2.144114	1.214497	1.573596
C101	C	1.645609	0.464634	0.464824
C102	C	1.895609	0.714634	0.714824
C103	C	2.145609	0.964634	0.964824
C104	C	2.395609	1.214634	1.214824
C105	C	1.752823	0.464641	0.464838
C106	C	2.002823	0.714641	0.714838
C107	C	2.252823	0.964641	0.964838
C108	C	2.502823	1.214641	1.214838
C109	C	1.394113	0.213026	0.464839
C110	C	1.644113	0.463026	0.714839
C111	C	1.894113	0.713026	0.964839
C112	C	2.144113	0.963026	1.214839
C113	C	1.394154	0.105812	0.464859
C114	C	1.644154	0.355812	0.714859
C115	C	1.894154	0.605812	0.964859
C116	C	2.144154	0.855812	1.214859
C117	C	1.394105	1.018742	0.464842
C118	C	1.644105	1.268742	0.714842
C119	C	1.894105	1.518742	0.964842
C120	C	2.144105	1.768742	1.214842
C121	C	1.394046	0.909510	0.464812
C122	C	1.644046	1.159510	0.714812
C123	C	1.894046	1.409510	0.964812
C124	C	2.144046	1.659510	1.214812
C125	C	1.394003	0.464634	0.214175
C126	C	1.644003	0.714634	0.464175
C127	C	1.894003	0.964634	0.714175
C128	C	2.144003	1.214634	0.964175
C129	C	1.394161	0.464399	0.106962
C130	C	1.644161	0.714399	0.356962
C131	C	1.894161	0.964399	0.606962
C132	C	2.144161	1.214399	0.856962
C133	C	1.394140	0.464432	1.019892
C134	C	1.644140	0.714432	1.269892
C135	C	1.894140	0.964432	1.519892
C136	C	2.144140	1.214432	1.769892
C137	C	1.394122	0.464471	0.910659
C138	C	1.644122	0.714471	1.160659
C139	C	1.894122	0.964471	1.410659
C140	C	2.144122	1.214471	1.660659
