data_functionalizedCrystal
_audit_creation_method	'MofGen! by Chris Wilmer'
_symmetry_space_group_name_H-M	'P1'
_symmetry_Int_Tables_number	1
_symmetry_cell_setting	triclinic
loop_
_symmetry_equiv_pos_as_xyz
  x,y,z
_cell_length_a	10.654556
_cell_length_b	10.654550
_cell_length_c	9.130313
_cell_angle_alpha	90.002847
_cell_angle_beta	90.002077
_cell_angle_gamma	84.486234
loop_
_atom_site_label
_atom_site_type_symbol
_atom_site_fract_x
_atom_site_fract_y
_atom_site_fract_z
O1	O	1.667835	0.176434	0.121744
O2	O	1.302358	0.193232	0.121759
O3	O	1.493500	0.002094	0.121742
O4	O	1.476694	0.367572	0.121761
O5	O	1.493485	0.002094	-0.121857
O6	O	1.302343	0.193232	-0.121840
O7	O	1.667821	0.176434	-0.121855
Cu8	Cu	1.485081	0.184833	-0.144090
Cu9	Cu	1.485098	0.184833	0.143994
O10	O	1.476679	0.367572	-0.121838
C11	C	1.255553	0.191997	-0.000039
C12	C	1.116110	0.188302	-0.000033
C13	C	1.492258	-0.044704	-0.000057
C14	C	1.488567	-0.184147	-0.000055
C15	C	0.919573	0.183099	0.132741
C16	C	1.050595	0.186563	0.132750
C17	C	1.050598	0.186563	-0.132835
C18	C	0.919579	0.183090	-0.132843
C19	C	1.601108	-0.263630	-0.000059
C20	C	1.597631	-0.394651	-0.000041
C21	C	1.369063	-0.366693	-0.000021
C22	C	1.372540	-0.235675	-0.000028
C23	C	1.714626	0.177669	-0.000054
C24	C	1.854069	0.181364	-0.000050
C25	C	1.477920	0.414370	-0.000036
C26	C	1.481612	0.553813	-0.000029
N27	N	1.485078	0.184832	-0.346713
C28	C	1.561909	0.261716	-0.423359
C29	C	1.561929	0.261709	-0.576695
C30	C	1.408277	0.107931	-0.576727
C31	C	1.408264	0.107933	-0.423393
N32	N	1.485111	0.184824	0.346616
H33	H	0.866238	0.181692	0.240869
O34	O	1.333508	0.033209	-0.349157
C35	C	1.181164	-0.119376	-0.365357
C36	C	1.265731	-0.034792	-0.449612
H37	H	1.126365	-0.174397	-0.446537
H38	H	1.112251	-0.058310	-0.293614
H39	H	1.242349	-0.188108	-0.293526
H40	H	1.204647	0.033953	-0.521522
H41	H	1.334652	-0.095937	-0.521262
O42	O	1.636647	0.336440	-0.349097
C43	C	1.789001	0.489016	-0.365256
C44	C	1.704438	0.404432	-0.449533
H45	H	1.843811	0.544029	-0.446422
H46	H	1.857904	0.427951	-0.293501
H47	H	1.727812	0.557755	-0.293436
H48	H	1.765526	0.335680	-0.521433
H49	H	1.635527	0.465575	-0.521196
O50	O	1.114140	0.188475	0.261782
C51	C	1.140888	0.298116	0.488819
C52	C	1.068848	0.296123	0.342723
H53	H	1.104280	0.385126	0.554314
H54	H	1.245791	0.300972	0.466109
H55	H	1.125869	0.209659	0.554237
H56	H	1.083765	0.384561	0.277231
H57	H	0.963972	0.293202	0.365536
H58	H	1.274598	-0.408664	-0.000002
H59	H	1.624494	0.324314	-0.639093
O60	O	0.856102	0.181240	-0.261939
C61	C	0.829245	0.071519	-0.488898
C62	C	0.901247	0.073482	-0.342773
H63	H	0.865699	-0.015609	-0.554280
H64	H	0.844306	0.159879	-0.554480
H65	H	0.724349	0.068796	-0.466059
H66	H	1.006165	0.076161	-0.365480
H67	H	0.886081	-0.014874	-0.277236
H68	H	1.695584	-0.221681	-0.000077
O69	O	1.707072	-0.471681	-0.000114
C70	C	1.934148	-0.485575	-0.000054
C71	C	1.810296	-0.398196	-0.000008
H72	H	2.017636	-0.426199	0.000062
H73	H	1.938311	-0.547601	-0.102018
H74	H	1.938177	-0.547628	0.101874
H75	H	1.806184	-0.336065	-0.101868
H76	H	1.806184	-0.336256	0.102022
O77	O	1.263126	-0.158585	0.000170
C78	C	1.068885	-0.094532	0.126435
C79	C	1.192726	-0.181927	0.126367
H80	H	1.011943	-0.113355	0.228470
H81	H	1.011745	-0.113415	0.024565
H82	H	1.091333	0.007950	0.126360
H83	H	1.170391	-0.284440	0.126494
H84	H	1.249830	-0.162936	0.228229
H85	H	1.103952	0.187971	-0.240949
H86	H	1.345736	0.045324	-0.639179
