data_functionalizedCrystal
_audit_creation_method	'MofGen! by Chris Wilmer'
_symmetry_space_group_name_H-M	'P1'
_symmetry_Int_Tables_number	1
_symmetry_cell_setting	triclinic
loop_
_symmetry_equiv_pos_as_xyz
  x,y,z
_cell_length_a	16.959454
_cell_length_b	14.908571
_cell_length_c	14.908308
_cell_angle_alpha	89.824947
_cell_angle_beta	93.269679
_cell_angle_gamma	93.283579
loop_
_atom_site_label
_atom_site_type_symbol
_atom_site_fract_x
_atom_site_fract_y
_atom_site_fract_z
Zn1	Zn	-0.412496	-1.345297	-0.587603
Zn2	Zn	-0.537521	-1.353878	-0.437249
Zn3	Zn	-0.397314	-1.203612	-0.428600
Zn4	Zn	-0.536582	-1.194906	-0.578901
O5	O	-0.470978	-1.274423	-0.508088
O6	O	-0.435828	-1.472261	-0.574920
O7	O	-0.512961	-1.341180	-0.310277
O8	O	-0.288721	-1.222460	-0.449714
O9	O	-0.527683	-1.478566	-0.464456
O10	O	-0.299875	-1.326555	-0.566532
O11	O	-0.409952	-1.230780	-0.303922
O12	O	-0.409042	-1.076631	-0.441276
O13	O	-0.526082	-1.207621	-0.705880
O14	O	-0.511361	-1.070235	-0.551701
O15	O	-0.434917	-1.318113	-0.712273
O16	O	-0.648003	-1.332737	-0.456018
O17	O	-0.647313	-1.215941	-0.560089
C18	C	-0.458452	-1.040808	-0.494606
C19	C	-0.453114	-0.940865	-0.488860
C20	C	-0.676340	-1.274349	-0.508068
C21	C	-0.764200	-1.274398	-0.508095
C22	C	-0.482089	-1.260938	-0.742614
C23	C	-0.486823	-1.255192	-0.842555
C24	C	-1.135352	-1.213691	-0.562276
C25	C	-1.136020	-1.335401	-0.454006
C26	C	-1.053472	-1.335370	-0.453996
C27	C	-1.011860	-1.274498	-0.508126
C28	C	-1.052796	-1.213657	-0.562266
C29	C	-1.012529	-1.396203	-0.399850
C30	C	-0.929976	-1.396174	-0.399837
C31	C	-0.888363	-1.335306	-0.453972
C32	C	-0.929304	-1.274463	-0.508115
C33	C	-0.887692	-1.213591	-0.562245
C34	C	-0.928632	-1.152752	-0.616394
C35	C	-1.011183	-1.152788	-0.616402
C36	C	-0.805812	-1.335269	-0.453965
C37	C	-0.805136	-1.213557	-0.562235
C38	C	-0.264817	-1.274521	-0.508129
C39	C	-0.176963	-1.274563	-0.508146
C40	C	-0.483554	-1.508951	-0.521623
C41	C	-0.488913	-1.608893	-0.527391
C42	C	-0.549777	-0.746458	-0.592894
C43	C	-0.544763	-0.652552	-0.587498
C44	C	-0.438070	-0.659146	-0.472677
C45	C	-0.443084	-0.753052	-0.478073
C46	C	-0.498940	-0.796704	-0.538183
C47	C	-0.503956	-0.890612	-0.543574
C48	C	-0.397260	-0.897204	-0.428758
C49	C	-0.392247	-0.803298	-0.423362
C50	C	-0.400771	-1.359446	-1.037013
C51	C	-0.405217	-1.354049	-1.130917
C52	C	-0.500156	-1.238998	-1.124267
C53	C	-0.495710	-1.244395	-1.030364
C54	C	-0.446017	-1.304622	-0.986740
C55	C	-0.441576	-1.310022	-0.892835
C56	C	-0.536510	-1.194967	-0.886187
C57	C	-0.540956	-1.189570	-0.980090
C58	C	-0.459857	-1.287908	-0.274478
C59	C	-0.454909	-1.293828	-0.174547
H60	H	-0.894742	-1.103186	-0.660463
H61	H	-1.044524	-1.103256	-0.660485
O62	O	-1.175019	-1.154472	-0.614823
C63	C	-1.149191	-1.065997	-0.589912
H64	H	-1.087529	-1.066123	-0.555225
H65	H	-1.191875	-1.038426	-0.541926
C66	C	-1.222350	-1.006269	-0.716981
C67	C	-1.146612	-1.006423	-0.674384
H68	H	-1.220762	-0.969519	-0.769086
H69	H	-1.239753	-1.065876	-0.733763
H70	H	-1.257911	-0.983295	-0.676984
H71	H	-1.111055	-1.029406	-0.714377
H72	H	-1.129203	-0.946817	-0.657611
O73	O	-0.548328	-1.180365	-1.166598
C74	C	-0.525175	-1.092081	-1.138459
H75	H	-0.460567	-1.089058	-1.112389
H76	H	-0.563714	-1.071694	-1.082590
C77	C	-0.614453	-1.030978	-1.250427
C78	C	-0.535098	-1.027264	-1.218414
H79	H	-0.620577	-0.990995	-1.299745
H80	H	-0.630055	-1.090457	-1.269383
H81	H	-0.646560	-1.013992	-1.203862
H82	H	-0.502995	-1.044261	-1.264976
H83	H	-0.519492	-0.967786	-1.199468
H84	H	-0.595261	-0.782000	-0.641833
H85	H	-1.046415	-1.445756	-0.355773
H86	H	-0.581413	-1.140534	-1.015621
O87	O	-0.594229	-0.603880	-0.640681
C88	C	-0.644585	-0.662548	-0.694908
H89	H	-0.649104	-0.731595	-0.661918
H90	H	-0.619497	-0.668631	-0.763824
C91	C	-0.721825	-0.540344	-0.746129
C92	C	-0.727381	-0.625146	-0.705607
H93	H	-0.772897	-0.517272	-0.752733
H94	H	-0.687898	-0.500817	-0.709599
H95	H	-0.700915	-0.545424	-0.803555
H96	H	-0.748281	-0.620064	-0.648178
H97	H	-0.761314	-0.664672	-0.742128
O98	O	-0.393419	-1.368617	-0.850420
C99	C	-0.438949	-1.429785	-0.799425
H100	H	-0.502840	-1.433697	-0.828033
H101	H	-0.436815	-1.406071	-0.726654
C102	C	-0.326792	-1.518548	-0.768241
C103	C	-0.405261	-1.523358	-0.803383
H104	H	-0.306010	-1.576268	-0.770678
H105	H	-0.296116	-1.477336	-0.802594
H106	H	-0.325023	-1.498783	-0.707601
H107	H	-0.407027	-1.543112	-0.864024
H108	H	-0.435937	-1.564576	-0.769040
H109	H	-0.392590	-0.623587	-0.423745
H110	H	-0.896647	-1.445713	-0.355747
H111	H	-0.573355	-1.150327	-0.845244
O112	O	-0.558290	-0.933065	-0.601837
C113	C	-0.609737	-0.990327	-0.553678
H114	H	-0.609664	-0.966084	-0.481224
H115	H	-0.588950	-1.061676	-0.554716
C116	C	-0.694202	-1.019020	-0.686531
C117	C	-0.694117	-0.989239	-0.597544
H118	H	-0.746251	-1.018353	-0.713591
H119	H	-0.659540	-0.980445	-0.718978
H120	H	-0.676876	-1.078476	-0.687384
H121	H	-0.711434	-0.929782	-0.596693
H122	H	-0.728784	-1.027805	-0.565098
O123	O	-0.338097	-0.760853	-0.364879
C124	C	-0.377364	-0.709832	-0.303616
H125	H	-0.440853	-0.738442	-0.299568
H126	H	-0.377641	-0.637073	-0.327328
C127	C	-0.256145	-0.678599	-0.215102
C128	C	-0.334121	-0.713743	-0.210126
H129	H	-0.229469	-0.681007	-0.157434
H130	H	-0.229688	-0.712970	-0.256378
H131	H	-0.256386	-0.617969	-0.234866
H132	H	-0.333879	-0.774375	-0.190374
H133	H	-0.360576	-0.679382	-0.168844
H134	H	-1.169904	-1.384955	-0.409930
O135	O	-0.766120	-1.394320	-0.401242
C136	C	-0.781010	-1.379879	-0.310482
H137	H	-0.839030	-1.345450	-0.306605
H138	H	-0.730673	-1.335395	-0.277495
C139	C	-0.715635	-1.512990	-0.265902
C140	C	-0.786899	-1.470711	-0.261139
H141	H	-0.719264	-1.569018	-0.235462
H142	H	-0.705600	-1.522718	-0.327048
H143	H	-0.673695	-1.475911	-0.238413
H144	H	-0.828836	-1.507785	-0.288637
H145	H	-0.796941	-1.460991	-0.199996
O146	O	-0.347985	-0.946113	-0.375568
C147	C	-0.393056	-1.003731	-0.320511
H148	H	-0.455246	-1.015980	-0.352921
H149	H	-0.396564	-0.971349	-0.251784
C150	C	-0.277157	-1.078825	-0.269622
C151	C	-0.353539	-1.093874	-0.309432
H152	H	-0.252781	-1.134428	-0.262784
H153	H	-0.246791	-1.040004	-0.306712
H154	H	-0.280092	-1.051837	-0.212353
H155	H	-0.350603	-1.120851	-0.366704
H156	H	-0.383903	-1.132701	-0.272351
O157	O	-0.352440	-1.417971	-0.994773
C158	C	-0.313476	-1.465226	-1.059284
H159	H	-0.311932	-1.424553	-1.124099
H160	H	-0.346557	-1.532927	-1.073205
C161	C	-0.230211	-1.530290	-0.943788
C162	C	-0.228308	-1.480331	-1.023392
H163	H	-0.177677	-1.539612	-0.921647
H164	H	-0.256463	-1.498456	-0.900324
H165	H	-0.257782	-1.586702	-0.955399
H166	H	-0.200746	-1.423916	-1.011778
H167	H	-0.202049	-1.512155	-1.066853
H168	H	-0.368371	-1.398691	-1.171846
H169	H	-0.771261	-1.163990	-0.606318
