data_functionalizedCrystal
_audit_creation_method	'MofGen! by Chris Wilmer'
_symmetry_space_group_name_H-M	'P1'
_symmetry_Int_Tables_number	1
_symmetry_cell_setting	triclinic
loop_
_symmetry_equiv_pos_as_xyz
  x,y,z
_cell_length_a	14.044220
_cell_length_b	10.654541
_cell_length_c	9.130307
_cell_angle_alpha	90.000178
_cell_angle_beta	90.004455
_cell_angle_gamma	88.836403
loop_
_atom_site_label
_atom_site_type_symbol
_atom_site_fract_x
_atom_site_fract_y
_atom_site_fract_z
O1	O	0.133219	1.681226	0.121759
O2	O	0.145915	1.317023	0.121772
O3	O	0.001547	1.493658	0.121751
O4	O	0.277588	1.504591	0.121780
O5	O	0.001545	1.493651	-0.121848
O6	O	0.145914	1.317016	-0.121827
O7	O	0.133218	1.681220	-0.121840
Cu8	Cu	0.139565	1.499117	-0.144076
Cu9	Cu	0.139567	1.499125	0.144008
O10	O	0.277586	1.504585	-0.121819
C11	C	0.144983	1.270128	-0.000026
C12	C	0.142195	1.130404	-0.000021
C13	C	-0.033800	1.488869	-0.000049
C14	C	-0.139120	1.474593	-0.000050
C15	C	0.314827	1.119781	0.000015
C16	C	0.399829	1.048829	0.000039
C17	C	0.397204	0.917547	0.000040
C18	C	0.309567	0.857215	0.000013
C19	C	0.224565	0.928167	-0.000011
C20	C	0.227199	1.059452	-0.000008
C21	C	0.051935	0.938790	-0.000058
C22	C	0.054558	1.070072	-0.000049
C23	C	-0.035701	0.878458	-0.000085
C24	C	-0.120706	0.949411	-0.000098
C25	C	-0.118077	1.080701	-0.000098
C26	C	-0.030444	1.141025	-0.000072
C27	C	-0.331952	1.448494	-0.000028
C28	C	-0.388921	1.549742	-0.000027
C29	C	-0.496219	1.535221	-0.000015
C30	C	-0.224644	1.463014	-0.000040
C31	C	0.312933	1.509374	-0.000016
C32	C	0.418252	1.523649	-0.000005
C33	C	0.134150	1.728114	-0.000039
C34	C	0.136938	1.867838	-0.000034
N35	N	0.139564	1.499121	-0.346699
C36	C	0.011763	1.655605	-0.346707
C37	C	-0.052134	1.733855	-0.423378
C38	C	-0.052135	1.733868	-0.576712
C39	C	0.011767	1.655619	-0.653378
C40	C	0.075664	1.577368	-0.576707
C41	C	0.075660	1.577367	-0.423370
C42	C	0.203459	1.420880	-0.576698
C43	C	0.203466	1.420872	-0.423365
C44	C	0.267361	1.342631	-0.653364
C45	C	0.331265	1.264385	-0.576693
C46	C	0.331263	1.264377	-0.423351
C47	C	0.267363	1.342621	-0.346694
N48	N	0.139561	1.499130	0.346631
H49	H	0.471181	1.097966	0.000057
C50	C	0.247378	1.222099	-0.873029
C51	C	0.267358	1.342641	-0.821911
H52	H	0.247373	1.222110	-0.977083
H53	H	0.294576	1.164311	-0.838344
H54	H	0.186624	1.198135	-0.838343
H55	H	0.328116	1.366600	-0.856588
H56	H	0.220158	1.400448	-0.856610
C57	C	0.385417	1.053051	-0.623916
C58	C	0.401493	1.178376	-0.660969
H59	H	0.428771	0.999954	-0.675958
H60	H	0.394575	1.041858	-0.521638
H61	H	0.322005	1.032343	-0.649047
H62	H	0.464903	1.199087	-0.635828
H63	H	0.392343	1.189575	-0.763270
C64	C	0.568114	0.920218	0.000098
C65	C	0.490638	0.839548	0.000074
H66	H	0.625794	0.872062	0.000130
H67	H	0.565560	0.971636	-0.084849
H68	H	0.565537	0.971652	0.085048
H69	H	0.493210	0.788121	-0.084882
H70	H	0.493193	0.788109	0.085030
H71	H	0.307437	0.750318	-0.000004
H72	H	-0.363762	1.350915	-0.000021
H73	H	-0.028295	1.247921	-0.000055
C74	C	-0.201380	0.752881	-0.000130
C75	C	-0.217027	0.883093	-0.000125
H76	H	-0.260847	0.711939	-0.000136
H77	H	-0.166348	0.729200	-0.085069
H78	H	-0.166345	0.729194	0.084829
H79	H	-0.252056	0.906781	-0.085090
H80	H	-0.252074	0.906783	0.084822
H81	H	0.011765	1.655614	-0.221855
H82	H	-0.357109	1.647330	0.000067
C83	C	-0.180993	1.746786	-0.250853
C84	C	-0.122322	1.819905	-0.339060
H85	H	-0.224305	1.799922	-0.198784
H86	H	-0.215536	1.690707	-0.310650
H87	H	-0.142926	1.700154	-0.183287
H88	H	-0.160388	1.866530	-0.406633
H89	H	-0.087775	1.876006	-0.279258
C90	C	0.494960	1.208935	-0.376129
C91	C	0.401504	1.178363	-0.339076
H92	H	0.538323	1.155837	-0.324097
H93	H	0.504094	1.197737	-0.478409
H94	H	0.505846	1.293962	-0.350985
H95	H	0.390616	1.093338	-0.364231
H96	H	0.392366	1.189550	-0.236774
H97	H	-0.104169	1.797581	-0.639138
H98	H	0.011755	1.655622	-0.778230
C99	C	0.356914	1.377962	-0.127022
C100	C	0.267361	1.342619	-0.178147
H101	H	0.356905	1.377968	-0.022968
H102	H	0.404104	1.320162	-0.161695
H103	H	0.370458	1.459738	-0.161714
H104	H	0.253819	1.260838	-0.143464
H105	H	0.220156	1.400421	-0.143460
H106	H	0.316973	1.226677	0.000046
H107	H	-0.037833	0.771562	-0.000092
H108	H	-0.187297	1.138463	-0.000123
