data_functionalizedCrystal
_audit_creation_method	'MofGen! by Chris Wilmer'
_symmetry_space_group_name_H-M	'P1'
_symmetry_Int_Tables_number	1
_symmetry_cell_setting	triclinic
loop_
_symmetry_equiv_pos_as_xyz
  x,y,z
_cell_length_a	22.863218
_cell_length_b	22.862586
_cell_length_c	22.858745
_cell_angle_alpha	60.006856
_cell_angle_beta	60.013818
_cell_angle_gamma	59.991795
loop_
_atom_site_label
_atom_site_type_symbol
_atom_site_fract_x
_atom_site_fract_y
_atom_site_fract_z
O1	O	0.081006	-0.854581	0.714630
O2	O	0.030492	-0.665350	0.575795
O3	O	0.150314	-0.785089	0.575706
O4	O	-0.038816	-0.734841	0.714718
O5	O	0.190066	-0.745348	0.615369
O6	O	0.070244	-0.625609	0.615458
O7	O	0.120758	-0.814840	0.754293
Zn8	Zn	0.101812	-0.713914	0.691173
Zn9	Zn	0.049438	-0.766275	0.638915
O10	O	0.000936	-0.695100	0.754381
N11	N	0.137558	-0.678184	0.726840
N12	N	0.013698	-0.802011	0.603247
C13	C	0.187224	-0.518558	0.776483
C14	C	0.187235	-0.628552	0.776467
C15	C	0.214753	-0.601061	0.803961
C16	C	0.334724	-0.580392	0.740801
C17	C	0.409718	-0.605392	0.715784
C18	C	0.409746	-0.726732	0.762051
C19	C	0.334754	-0.701730	0.787070
C20	C	0.205297	-0.481049	0.702756
C21	C	0.180267	-0.406048	0.677779
C22	C	0.119099	-0.406071	0.800259
C23	C	0.144128	-0.481071	0.825236
C24	C	0.113501	-0.610437	0.794610
C25	C	0.088492	-0.635428	0.769607
C26	C	0.210943	-0.696652	0.708337
C27	C	0.235956	-0.671660	0.733331
C28	C	0.113585	-0.610461	0.923980
C29	C	0.088635	-0.635476	0.998978
C30	C	0.211128	-0.696714	0.998930
C31	C	0.236077	-0.671700	0.923930
C32	C	0.187303	-0.628571	0.886457
C33	C	0.297246	-0.628559	0.776441
C34	C	-0.117796	-0.823430	0.581283
C35	C	-0.007671	-0.823587	0.471446
C36	C	-0.007879	-0.933535	0.581483
C37	C	-0.007861	-0.823583	0.581554
C38	C	-0.035301	-0.851035	0.553942
N39	N	0.446162	-0.678198	0.726752
O40	O	0.691234	-0.690164	0.550341
O41	O	0.691462	-0.829422	0.739388
O42	O	0.691373	-0.829102	0.619485
O43	O	0.691323	-0.690484	0.670244
O44	O	0.572233	-0.789455	0.659278
O45	O	0.572322	-0.789775	0.779181
O46	O	0.572094	-0.650517	0.590134
Zn47	Zn	0.553292	-0.713851	0.690976
Zn48	Zn	0.710264	-0.766088	0.638547
O49	O	0.572183	-0.650837	0.710037
N50	N	0.817394	-0.801741	0.602763
N51	N	0.137538	-0.369628	0.726874
O52	O	-0.038795	-0.124419	0.714761
O53	O	0.150256	-0.124417	0.575522
O54	O	0.030331	-0.124432	0.575860
O55	O	0.081131	-0.124404	0.714423
O56	O	0.070086	-0.243584	0.615573
O57	O	0.190011	-0.243569	0.615236
O58	O	0.000960	-0.243571	0.754474
Zn59	Zn	0.101797	-0.262488	0.691160
Zn60	Zn	0.049419	-0.105500	0.638836
O61	O	0.120885	-0.243556	0.754137
N62	N	0.013669	0.001640	0.603123
N63	N	0.137749	-0.678230	1.035381
O64	O	0.125655	-0.854547	1.280566
O65	O	-0.013567	-0.665426	1.280590
O66	O	-0.013245	-0.785328	1.280537
O67	O	0.125333	-0.734644	1.280618
O68	O	0.026456	-0.745599	1.161392
O69	O	0.026134	-0.625697	1.161444
O70	O	0.165355	-0.814817	1.161420
Zn71	Zn	0.102048	-0.713949	1.142516
Zn72	Zn	0.049740	-0.766294	1.299495
O73	O	0.165033	-0.694915	1.161473
N74	N	0.014038	-0.802020	1.406629
C75	C	0.045634	-0.621635	0.576499
C76	C	0.194019	-0.769918	0.576389
C77	C	0.105616	-0.858555	0.753588
C78	C	-0.042769	-0.710272	0.753698
C79	C	0.631920	-0.828776	0.783102
C80	C	0.631811	-0.828380	0.634616
C81	C	0.631633	-0.651162	0.546422
C82	C	0.631745	-0.651559	0.694907
C83	C	0.193900	-0.183846	0.576155
C84	C	0.045437	-0.184012	0.576622
C85	C	-0.042734	-0.183994	0.753792
C86	C	0.105780	-0.183977	0.753375
C87	C	-0.012889	-0.621735	1.221020
C88	C	-0.012483	-0.770211	1.220931
C89	C	0.164678	-0.858508	1.220991
C90	C	0.164280	-0.710023	1.221052
H91	H	0.028603	-0.620718	1.029520
C92	C	-0.071275	-0.784824	1.220831
H93	H	-0.112967	-0.743400	1.220822
H94	H	-0.054699	-0.796182	1.179260
H95	H	-0.082439	-0.823902	1.262362
H96	H	-0.097027	-0.183996	0.797505
H97	H	0.208389	-0.912821	1.220975
C98	C	0.267397	-0.784381	0.517411
H99	H	0.267514	-0.742908	0.475777
H100	H	0.303839	-0.795720	0.533858
H101	H	0.276100	-0.823434	0.506201
C102	C	-0.116151	-0.695808	0.812671
H103	H	-0.146207	-0.648384	0.795294
H104	H	-0.137623	-0.728913	0.825720
H105	H	-0.109895	-0.701192	0.853381
C106	C	0.223097	-0.695379	1.221070
H107	H	0.205591	-0.647936	1.221076
H108	H	0.236155	-0.728433	1.262617
H109	H	0.263831	-0.700722	1.179515
H110	H	0.631977	-0.872492	0.837399
H111	H	0.631832	-0.871926	0.623751
H112	H	0.073862	-0.575336	0.893474
C113	C	0.631718	-0.592727	0.709574
H114	H	0.631665	-0.551022	0.668174
H115	H	0.590192	-0.581605	0.748673
H116	H	0.673291	-0.609256	0.720915
C117	C	0.264781	-0.744147	1.040141
H118	H	0.312258	-0.751352	1.007049
H119	H	0.257593	-0.721258	1.069404
H120	H	0.257599	-0.789106	1.069388
C121	C	0.030751	-0.184028	0.517816
H122	H	-0.016683	-0.184037	0.535332
H123	H	0.036073	-0.142482	0.477069
H124	H	0.063801	-0.225588	0.504778
C125	C	0.317171	-0.691625	0.882659
H126	H	0.342642	-0.720885	0.915720
H127	H	0.329455	-0.717064	0.853397
H128	H	0.329446	-0.649212	0.853408
H129	H	0.116656	-0.183968	0.796904
C130	C	-0.071937	-0.548359	1.221017
H131	H	-0.113518	-0.548278	1.220991
H132	H	-0.083212	-0.539611	1.262572
H133	H	-0.055510	-0.511918	1.179469
C134	C	0.007386	-0.615510	0.789564
H135	H	-0.018050	-0.586265	0.818842
H136	H	-0.004946	-0.590057	0.747171
H137	H	-0.004884	-0.657926	0.815006
C138	C	0.267079	-0.183362	0.516938
H139	H	0.267093	-0.183271	0.475324
H140	H	0.275558	-0.141708	0.505806
H141	H	0.303730	-0.224813	0.533145
H142	H	0.073825	-0.575337	0.829731
C143	C	0.631535	-0.592093	0.473083
H144	H	0.631503	-0.550495	0.473028
H145	H	0.673064	-0.608491	0.436608
H146	H	0.589966	-0.580842	0.464373
C147	C	0.264539	-0.744070	0.660894
H148	H	0.312033	-0.751274	0.653671
H149	H	0.257352	-0.789023	0.683784
H150	H	0.257306	-0.721156	0.615946
H151	H	0.304240	-0.740958	0.816091
C152	C	0.317062	-0.691576	0.713373
H153	H	0.342498	-0.720831	0.684104
H154	H	0.329333	-0.649165	0.687935
H155	H	0.329392	-0.717034	0.755770
H156	H	0.440232	-0.566167	0.686761
C157	C	0.451012	-0.807219	0.773734
H158	H	0.501043	-0.815209	0.753725
H159	H	0.438751	-0.833371	0.823604
H160	H	0.438708	-0.822728	0.751067
C161	C	0.293467	-0.499906	0.729110
H162	H	0.243436	-0.491911	0.749108
H163	H	0.305774	-0.484393	0.751768
H164	H	0.305731	-0.473760	0.679234
C165	C	0.252700	-0.522286	0.649134
H166	H	0.265025	-0.572326	0.674569
H167	H	0.227236	-0.509992	0.619889
H168	H	0.295095	-0.509988	0.619869
C169	C	0.200142	-0.364781	0.596678
H170	H	0.179060	-0.314745	0.588784
H171	H	0.250737	-0.377068	0.575598
H172	H	0.182875	-0.377066	0.575619
C173	C	0.071698	-0.364833	0.853884
H174	H	0.064522	-0.397914	0.901373
H175	H	0.094588	-0.335569	0.846671
H176	H	0.026729	-0.335583	0.846699
H177	H	0.129402	-0.511613	0.885274
C178	C	0.031066	-0.548206	0.517589
H179	H	0.072502	-0.548015	0.475929
H180	H	-0.008005	-0.539508	0.506414
H181	H	0.019725	-0.511792	0.534078
H182	H	0.116407	-0.912913	0.797192
