data_functionalizedCrystal
_audit_creation_method	'MofGen! by Chris Wilmer'
_symmetry_space_group_name_H-M	'P1'
_symmetry_Int_Tables_number	1
_symmetry_cell_setting	triclinic
loop_
_symmetry_equiv_pos_as_xyz
  x,y,z
_cell_length_a	6.817900
_cell_length_b	15.300912
_cell_length_c	11.168136
_cell_angle_alpha	93.626975
_cell_angle_beta	108.508683
_cell_angle_gamma	104.173621
loop_
_atom_site_label
_atom_site_type_symbol
_atom_site_fract_x
_atom_site_fract_y
_atom_site_fract_z
V1	V	-4.087785	-0.124772	-0.394082
O2	O	-4.070526	0.005982	-0.386186
O3	O	-4.042358	-0.247388	-0.391766
O4	O	-4.064415	-0.122859	-0.565782
O5	O	-4.048317	-0.119410	-0.210966
V6	V	-4.567785	-0.109131	-0.372134
O7	O	-4.356773	-0.159080	-0.442228
O8	O	-4.748995	-0.074823	-0.323989
O9	O	-4.390005	0.013485	-0.374450
O10	O	-4.702441	-0.239885	-0.380030
O11	O	-4.724651	-0.114494	-0.555251
O12	O	-4.367949	-0.111045	-0.200434
C13	C	-3.887272	-0.277279	-0.385647
C14	C	-3.931584	-0.377520	-0.384898
C15	C	-4.305696	-0.813885	-0.387987
C16	C	-4.264040	-0.719697	-0.388683
C17	C	-4.060053	-0.668016	-0.382723
C18	C	-3.897705	-0.710527	-0.376055
C19	C	-3.939357	-0.804712	-0.375350
C20	C	-3.810904	-0.514216	-0.377527
C21	C	-3.769249	-0.420024	-0.378234
C22	C	-4.135587	-0.429200	-0.390859
C23	C	-4.177239	-0.523386	-0.390155
C24	C	-4.014888	-0.565890	-0.383489
C25	C	-3.915406	-0.118428	-0.607620
C26	C	-3.977601	-0.117675	-0.747988
C27	C	-4.179412	-0.121617	-0.816692
C28	C	-4.243698	-0.120839	-0.961770
C29	C	-4.208433	0.043371	-0.380566
C30	C	-4.143361	0.143611	-0.381323
C31	C	-4.180299	-0.115478	-0.158589
C32	C	-4.097342	-0.116226	-0.018220
H33	H	-4.471804	-0.855957	-0.392848
H34	H	-4.416584	-0.124217	-1.020832
O35	O	-3.699553	-0.660211	-0.370101
C36	C	-3.385213	-0.536342	-0.253600
C37	C	-3.609608	-0.593235	-0.260197
H38	H	-3.312407	-0.482191	-0.164735
H39	H	-3.400626	-0.501842	-0.342365
H40	H	-3.276412	-0.582927	-0.248777
H41	H	-3.718530	-0.546714	-0.264978
H42	H	-3.594029	-0.627745	-0.171433
H43	H	-4.304593	-0.125561	-0.768106
H44	H	-3.924457	-0.112858	-0.959169
H45	H	-4.396236	-0.685094	-0.394114
O46	O	-3.828076	-0.112799	-0.805844
C47	C	-3.490030	-0.026434	-0.818002
C48	C	-3.659230	-0.031832	-0.752401
H49	H	-3.353454	0.039014	-0.774802
H50	H	-3.568343	-0.026583	-0.924680
H51	H	-3.422962	-0.087781	-0.803032
H52	H	-3.726357	0.029501	-0.767271
H53	H	-3.580808	-0.031726	-0.645746
O54	O	-4.375455	-0.573658	-0.396153
C55	C	-4.689662	-0.697617	-0.512540
C56	C	-4.465247	-0.640741	-0.505934
H57	H	-4.762307	-0.751879	-0.601276
H58	H	-4.798695	-0.651120	-0.517500
H59	H	-4.674052	-0.731999	-0.423666
H60	H	-4.480653	-0.606351	-0.594785
H61	H	-4.356299	-0.687282	-0.500910
H62	H	-4.267776	-0.394589	-0.396284
H63	H	-3.603151	-0.377949	-0.373387
H64	H	-3.678703	-0.548821	-0.372110
O65	O	-3.781627	-0.846022	-0.368656
C66	C	-3.561488	-0.934841	-0.250629
C67	C	-3.740110	-0.888082	-0.258047
H68	H	-3.527898	-0.968875	-0.161223
H69	H	-3.408434	-0.881757	-0.246407
H70	H	-3.616012	-0.988563	-0.338832
H71	H	-3.685791	-0.834365	-0.169866
H72	H	-3.893123	-0.941219	-0.262331
