data_functionalizedCrystal
_audit_creation_method	'MofGen! by Chris Wilmer'
_symmetry_space_group_name_H-M	'P1'
_symmetry_Int_Tables_number	1
_symmetry_cell_setting	triclinic
loop_
_symmetry_equiv_pos_as_xyz
  x,y,z
_cell_length_a	29.839134
_cell_length_b	29.839131
_cell_length_c	13.897441
_cell_angle_alpha	89.957203
_cell_angle_beta	89.966048
_cell_angle_gamma	90.027971
loop_
_atom_site_label
_atom_site_type_symbol
_atom_site_fract_x
_atom_site_fract_y
_atom_site_fract_z
Zn1	Zn	0.686782	-0.178926	-0.545639
Zn2	Zn	0.686709	-0.254061	-0.384306
Zn3	Zn	0.611652	-0.178936	-0.384321
Zn4	Zn	0.611620	-0.254020	-0.545522
O5	O	0.649191	-0.216486	-0.464947
O6	O	0.749639	-0.188905	-0.524282
O7	O	0.676736	-0.244117	-0.249327
O8	O	0.621661	-0.116068	-0.405775
O9	O	0.749586	-0.244107	-0.405751
O10	O	0.676859	-0.116060	-0.524295
O11	O	0.621591	-0.188923	-0.249337
O12	O	0.548781	-0.188883	-0.405661
O13	O	0.621608	-0.244037	-0.680519
O14	O	0.548757	-0.244047	-0.524095
O15	O	0.676829	-0.188866	-0.680606
O16	O	0.676705	-0.316923	-0.405637
O17	O	0.621538	-0.316893	-0.524081
C18	C	0.532468	-0.216462	-0.464867
C19	C	0.482534	-0.216463	-0.464856
C20	C	0.649122	-0.333208	-0.464866
C21	C	0.649134	-0.383143	-0.464863
C22	C	0.125946	-0.187719	-0.403405
C23	C	0.313619	-0.187707	-0.403346
O24	O	0.337883	-0.163230	-0.351008
N25	N	0.337089	-0.216470	-0.464905
C26	C	0.313637	-0.245237	-0.526487
O27	O	0.337905	-0.269699	-0.578852
C28	C	0.125965	-0.245247	-0.526549
C29	C	0.102498	-0.216485	-0.464980
C30	C	0.102479	-0.158959	-0.341841
C31	C	0.055564	-0.158964	-0.341852
C32	C	0.032115	-0.187730	-0.403428
C33	C	0.055582	-0.216490	-0.464991
C34	C	0.102514	-0.274012	-0.588136
C35	C	0.055593	-0.274011	-0.588148
C36	C	0.032126	-0.245248	-0.526578
C37	C	-0.014782	-0.245261	-0.526578
N38	N	-0.038251	-0.216497	-0.465020
C39	C	-0.014803	-0.187732	-0.403444
C40	C	0.412168	-0.245231	-0.526448
C41	C	0.459085	-0.245229	-0.526431
C42	C	0.459064	-0.187697	-0.403292
C43	C	0.412146	-0.187702	-0.403304
C44	C	0.388698	-0.216467	-0.464889
C45	C	-0.113328	-0.187745	-0.403473
C46	C	-0.160248	-0.187754	-0.403487
C47	C	-0.160223	-0.245283	-0.526630
C48	C	-0.113307	-0.245276	-0.526612
C49	C	-0.089861	-0.216503	-0.465031
O50	O	-0.039075	-0.269722	-0.578897
O51	O	-0.039079	-0.163267	-0.351102
C52	C	0.172862	-0.187714	-0.403393
C53	C	0.196329	-0.216475	-0.464957
C54	C	0.172880	-0.245240	-0.526532
C55	C	0.243247	-0.216473	-0.464940
C56	C	0.266695	-0.187707	-0.403365
C57	C	0.243226	-0.158943	-0.341806
C58	C	0.196310	-0.158949	-0.341818
C59	C	0.196350	-0.274004	-0.588091
C60	C	0.243265	-0.273997	-0.588073
C61	C	0.266714	-0.245231	-0.526498
C62	C	0.677926	-0.692747	-0.526748
C63	C	0.677975	-0.880420	-0.526806
O64	O	0.702387	-0.904652	-0.579363
N65	N	0.649267	-0.903928	-0.465054
C66	C	0.620543	-0.880514	-0.403287
O67	O	0.596124	-0.904815	-0.350772
C68	C	0.620493	-0.692842	-0.403235
C69	C	0.649205	-0.669337	-0.464984
C70	C	0.706636	-0.669242	-0.588494
C71	C	0.706625	-0.622327	-0.588475
C72	C	0.677904	-0.598916	-0.526711
C73	C	0.649194	-0.622421	-0.464966
C74	C	0.591767	-0.669429	-0.341474
C75	C	0.591756	-0.622508	-0.341468
C76	C	0.620468	-0.599003	-0.403217
C77	C	0.620463	-0.552096	-0.403183
N78	N	0.649171	-0.528588	-0.464935
C79	C	0.677891	-0.551999	-0.526699
C80	C	0.620572	-0.979045	-0.403318
C81	C	0.620586	-1.025962	-0.403330
C82	C	0.678017	-1.025866	-0.526850
C83	C	0.678005	-0.978947	-0.526833
C84	C	0.649280	-0.955537	-0.465070
C85	C	0.677867	-0.453473	-0.526654
C86	C	0.677855	-0.406553	-0.526627
C87	C	0.620422	-0.406654	-0.403111
C88	C	0.620436	-0.453570	-0.403134
C89	C	0.649160	-0.476978	-0.464913
O90	O	0.596059	-0.527835	-0.350661
O91	O	0.702300	-0.527690	-0.579222
C92	C	0.677937	-0.739663	-0.526767
C93	C	0.649227	-0.763168	-0.465022
C94	C	0.620506	-0.739757	-0.403258
C95	C	0.649240	-0.810086	-0.465034
C96	C	0.677961	-0.833496	-0.526798
C97	C	0.706668	-0.809989	-0.588550
C98	C	0.706657	-0.763073	-0.588531
C99	C	0.591798	-0.763265	-0.341506
C100	C	0.591812	-0.810180	-0.341529
C101	C	0.620533	-0.833591	-0.403293
C102	C	0.766369	-0.216509	-0.465028
C103	C	0.816304	-0.216520	-0.465062
C104	C	0.649223	-0.216446	-0.716540
C105	C	0.649236	-0.216429	-0.823754
C106	C	0.649272	-0.099307	-0.465050
C107	C	0.649306	-0.049373	-0.465094
C108	C	0.649248	-0.216399	-1.020050
C109	C	0.649240	-0.216417	-0.910817
C110	C	0.649185	-0.216493	-0.214333
C111	C	0.649258	-0.216383	-0.107119
H112	H	-0.094244	-0.164313	-0.353331
O113	O	-0.182974	-0.159769	-0.343647
C114	C	-0.152213	-0.134387	-0.289284
H115	H	-0.118755	-0.132852	-0.328795
H116	H	-0.165757	-0.098986	-0.279143
H117	H	-0.147253	-0.150798	-0.215956
O118	O	0.705979	-1.048591	-0.586751
C119	C	0.750759	-1.037097	-0.565812
H120	H	0.753052	-1.024227	-0.488758
H121	H	0.772956	-1.067935	-0.574187
H122	H	0.762481	-1.009837	-0.617557
O123	O	0.592460	-0.383957	-0.343170
C124	C	0.547682	-0.395435	-0.364176
H125	H	0.546751	-0.429489	-0.401251
H126	H	0.527549	-0.397077	-0.294520
H127	H	0.532538	-0.369023	-0.413739
H128	H	0.568363	-0.603450	-0.291174
H129	H	0.568410	-0.744208	-0.291211
H130	H	-0.094200	-0.268700	-0.576740
O131	O	0.592633	-1.048772	-0.343442
C132	C	0.547851	-1.037319	-0.364400
H133	H	0.545563	-1.024395	-0.441453
H134	H	0.525663	-1.068191	-0.356041
H135	H	0.536116	-1.010112	-0.312656
H136	H	0.701385	-0.959812	-0.577115
H137	H	0.701238	-0.387417	-0.576911
O138	O	0.032760	-0.131093	-0.281915
C139	C	0.005591	-0.156644	-0.219524
H140	H	0.019707	-0.192027	-0.213463
H141	H	0.005062	-0.140369	-0.145344
H142	H	-0.029966	-0.158197	-0.249313
O143	O	0.389301	-0.159741	-0.343632
C144	C	0.362202	-0.130745	-0.398670
H145	H	0.355190	-0.146626	-0.471709
H146	H	0.329199	-0.124706	-0.359412
H147	H	0.380303	-0.097458	-0.409392
H148	H	0.730038	-0.743939	-0.638814
H149	H	0.121566	-0.135532	-0.291699
O150	O	0.705809	-0.476138	-0.586701
C151	C	0.731134	-0.445323	-0.641207
H152	H	0.732690	-0.411897	-0.601678
H153	H	0.766532	-0.458845	-0.651598
H154	H	0.714660	-0.440309	-0.714420
O155	O	0.734502	-0.832756	-0.648653
C156	C	0.708908	-0.859895	-0.710872
H157	H	0.673522	-0.845772	-0.716736
H158	H	0.725135	-0.860391	-0.785147
H159	H	0.707371	-0.895464	-0.681046
H160	H	0.478164	-0.164276	-0.353154
H161	H	0.478188	-0.268655	-0.576557
O162	O	0.125324	-0.301995	-0.647814
C163	C	0.152444	-0.330979	-0.592795
H164	H	0.138284	-0.333721	-0.516813
H165	H	0.152969	-0.365568	-0.627557
H166	H	0.188007	-0.317086	-0.589526
O167	O	0.592732	-0.956258	-0.343265
C168	C	0.618317	-0.929133	-0.281001
H169	H	0.652351	-0.922059	-0.315105
H170	H	0.600009	-0.896163	-0.268010
H171	H	0.623280	-0.947244	-0.209540
H172	H	0.568386	-0.688559	-0.291190
O173	O	0.032886	-0.301995	-0.648008
C174	C	0.063664	-0.327368	-0.702361
H175	H	0.097093	-0.328901	-0.662831
H176	H	0.050098	-0.362771	-0.712523
H177	H	0.068687	-0.310951	-0.775680
H178	H	0.597059	-0.472708	-0.352845
H179	H	-0.179323	-0.268705	-0.576759
H180	H	0.177207	-0.135527	-0.291682
H181	H	0.568431	-0.829314	-0.291236
H182	H	0.393081	-0.268656	-0.576600
H183	H	0.262326	-0.135523	-0.291666
O184	O	0.265989	-0.301954	-0.647977
C185	C	0.235226	-0.327349	-0.702307
H186	H	0.201790	-0.308952	-0.705717
H187	H	0.248800	-0.332178	-0.778288
H188	H	0.230212	-0.361452	-0.666851
H189	H	0.730004	-0.603192	-0.638759
O190	O	0.734517	-0.691929	-0.648628
C191	C	0.724666	-0.680438	-0.744738
H192	H	0.707379	-0.646389	-0.746682
H193	H	0.757080	-0.678782	-0.788061
H194	H	0.701575	-0.706852	-0.777190
O195	O	0.173556	-0.301886	-0.648008
C196	C	0.146438	-0.276354	-0.710416
H197	H	0.160587	-0.240971	-0.716521
H198	H	0.145930	-0.292647	-0.784578
H199	H	0.110869	-0.274799	-0.680615
