data_functionalizedCrystal
_audit_creation_method	'MofGen! by Chris Wilmer'
_symmetry_space_group_name_H-M	'P1'
_symmetry_Int_Tables_number	1
_symmetry_cell_setting	triclinic
loop_
_symmetry_equiv_pos_as_xyz
  x,y,z
_cell_length_a	16.109301
_cell_length_b	9.798715
_cell_length_c	16.109301
_cell_angle_alpha	89.995430
_cell_angle_beta	96.538519
_cell_angle_gamma	90.000966
loop_
_atom_site_label
_atom_site_type_symbol
_atom_site_fract_x
_atom_site_fract_y
_atom_site_fract_z
O1	O	1.103131	0.113409	-0.106865
O2	O	1.603131	0.613409	0.393135
O3	O	0.861069	0.113431	-0.120165
O4	O	1.361069	0.613431	0.379835
O5	O	0.988750	0.113406	0.007516
O6	O	1.488750	0.613406	0.507516
O7	O	0.975450	0.113435	-0.234546
O8	O	1.475450	0.613435	0.265454
O9	O	0.988740	-0.113577	0.007516
O10	O	1.488740	0.386423	0.507516
O11	O	0.861060	-0.113551	-0.120164
O12	O	1.361060	0.386449	0.379836
O13	O	1.103122	-0.113573	-0.106865
O14	O	1.603122	0.386427	0.393135
Zn15	Zn	0.982089	-0.149600	-0.113515
Zn16	Zn	1.482089	0.350400	0.386485
Zn17	Zn	0.982102	0.149458	-0.113515
Zn18	Zn	1.482102	0.649458	0.386485
O19	O	0.975441	-0.113547	-0.234546
O20	O	1.475441	0.386453	0.265454
C21	C	0.830090	-0.000057	-0.119626
C22	C	1.330090	0.499943	0.380374
C23	C	0.737794	-0.000049	-0.118011
C24	C	1.237794	0.499951	0.381989
N25	N	0.982087	-0.353700	-0.113514
N26	N	1.482087	0.146300	0.386486
C27	C	0.515522	-0.000056	-0.190018
C28	C	1.015522	0.499944	0.309982
C29	C	0.428801	-0.000065	-0.188494
C30	C	0.928801	0.499935	0.311506
C31	C	0.448676	-0.000078	-0.037006
C32	C	0.948676	0.499922	0.462994
C33	C	0.535394	-0.000078	-0.038530
C34	C	1.035394	0.499922	0.461470
C35	C	0.568815	-0.000061	-0.115039
C36	C	1.068815	0.499939	0.384961
C37	C	0.395376	-0.000069	-0.111990
C38	C	0.895376	0.499931	0.388010
C39	C	0.301350	-0.000079	-0.110337
C40	C	0.801350	0.499921	0.389663
C41	C	0.662847	-0.000054	-0.116693
C42	C	1.162847	0.499946	0.383307
C43	C	1.035698	-0.421488	-0.059670
C44	C	1.535698	0.078512	0.440330
C45	C	1.035712	-0.578650	-0.059667
C46	C	1.535712	-0.078650	0.440333
C47	C	1.134101	-0.000082	-0.107404
C48	C	1.634101	0.499918	0.392596
C49	C	1.226397	-0.000081	-0.109019
C50	C	1.726397	0.499919	0.390981
C51	C	0.988206	-0.000086	0.038491
C52	C	1.488206	0.499914	0.538491
C53	C	0.986591	-0.000088	0.130786
C54	C	1.486591	0.499912	0.630786
N55	N	0.982111	0.353558	-0.113509
N56	N	1.482111	0.853558	0.386491
C57	C	0.975984	-0.000053	-0.265521
C58	C	1.475984	0.499947	0.234479
C59	C	0.977600	-0.000042	-0.357816
C60	C	1.477600	0.499958	0.142184
C61	C	1.058599	-0.000073	0.353059
C62	C	1.558599	0.499927	0.853059
C63	C	1.057075	-0.000061	0.439779
C64	C	1.557075	0.499939	0.939779
C65	C	0.905586	-0.000053	0.419905
C66	C	1.405586	0.499947	0.919905
C67	C	0.907111	-0.000055	0.333186
C68	C	1.407111	0.499945	0.833186
C69	C	0.983620	-0.000071	0.299766
C70	C	1.483620	0.499929	0.799766
C71	C	0.980571	-0.000058	0.473205
C72	C	1.480571	0.499942	0.973205
C73	C	0.978918	-0.000046	0.567231
C74	C	1.478918	0.499954	1.067231
C75	C	0.985273	-0.000081	0.205734
C76	C	1.485273	0.499919	0.705734
H77	H	0.542730	-0.000052	-0.252317
H78	H	1.042730	0.499948	0.247683
H79	H	0.385413	-0.000064	-0.249550
H80	H	0.885413	0.499936	0.250450
H81	H	0.843295	-0.000042	0.447127
H82	H	1.343295	0.499958	0.947127
H83	H	0.421454	-0.000100	0.025285
H84	H	0.921454	0.499900	0.525285
O85	O	0.927303	-0.423409	-0.168394
O86	O	1.427303	0.076591	0.331606
C87	C	0.875928	-0.506052	-0.123958
C88	C	1.375928	-0.006052	0.376042
H89	H	0.908903	-0.527314	-0.058824
H90	H	1.408903	-0.027314	0.441176
H91	H	0.814415	-0.451082	-0.118499
H92	H	1.314415	0.048918	0.381501
C93	C	0.817861	-0.615746	-0.250778
C94	C	1.317861	-0.115746	0.249222
C95	C	0.858364	-0.641870	-0.170781
C96	C	1.358364	-0.141870	0.329219
H97	H	0.807023	-0.699522	-0.279661
H98	H	1.307023	-0.199522	0.220339
H99	H	0.852470	-0.560065	-0.280716
H100	H	1.352470	-0.060065	0.219284
H101	H	0.766604	-0.569934	-0.246217
H102	H	1.266604	-0.069934	0.253783
H103	H	0.909624	-0.687665	-0.175343
H104	H	1.409624	-0.187665	0.324657
H105	H	0.823763	-0.697562	-0.140845
H106	H	1.323763	-0.197562	0.359155
H107	H	1.081585	-0.363174	-0.013571
H108	H	1.581585	0.136826	0.486429
O109	O	0.587051	-0.000021	0.034386
O110	O	1.087051	0.499979	0.534386
C111	C	0.538960	-0.000058	0.102241
C112	C	1.038960	0.499942	0.602241
H113	H	0.474231	0.042919	0.081127
H114	H	0.974231	0.542919	0.581127
H115	H	0.532791	-0.108955	0.125695
H116	H	1.032791	0.391045	0.625695
C117	C	0.661701	0.036162	0.199137
C118	C	1.161701	0.536162	0.699137
C119	C	0.582201	0.088958	0.173205
C120	C	1.082201	0.588958	0.673205
H121	H	0.688375	0.091066	0.242913
H122	H	1.188375	0.591066	0.742913
H123	H	0.694101	0.036182	0.153422
H124	H	1.194101	0.536182	0.653422
H125	H	0.656549	-0.054585	0.218676
H126	H	1.156549	0.445415	0.718676
H127	H	0.587355	0.179696	0.153657
H128	H	1.087355	0.679696	0.653657
H129	H	0.549802	0.088955	0.218919
H130	H	1.049802	0.588955	0.718919
O131	O	1.090435	-0.648037	-0.004555
O132	O	1.590435	-0.148037	0.495445
C133	C	1.076711	-0.613260	0.077708
C134	C	1.576711	-0.113260	0.577708
H135	H	1.044709	-0.509486	0.077584
H136	H	1.544709	-0.009486	0.577584
H137	H	1.035209	-0.693662	0.103258
H138	H	1.535209	-0.193662	0.603258
C139	C	1.200320	-0.734302	0.133373
C140	C	1.700320	-0.234302	0.633373
C141	C	1.161020	-0.606838	0.133221
C142	C	1.661020	-0.106838	0.633221
H143	H	1.252325	-0.730346	0.167618
H144	H	1.752325	-0.230346	0.667618
H145	H	1.209565	-0.757736	0.077951
H146	H	1.709565	-0.257736	0.577951
H147	H	1.165726	-0.801290	0.154663
H148	H	1.665726	-0.301290	0.654663
H149	H	1.195610	-0.539856	0.111922
H150	H	1.695610	-0.039856	0.611922
H151	H	1.151784	-0.583392	0.188640
H152	H	1.651784	-0.083392	0.688640
H153	H	1.120897	-0.000084	0.325851
H154	H	1.620897	0.499916	0.825851
O155	O	1.129833	-0.000004	0.491666
O156	O	1.629833	0.499996	0.991666
C157	C	1.112086	-0.000026	0.575374
C158	C	1.612086	0.499974	1.075374
H159	H	1.046784	0.042951	0.578676
H160	H	1.546784	0.542951	1.078676
H161	H	1.115242	-0.108918	0.600464
H162	H	1.615242	0.391082	1.100464
C163	C	1.256854	0.036205	0.624404
C164	C	1.756854	0.536205	1.124404
C165	C	1.176652	0.089001	0.628460
C166	C	1.676652	0.589001	1.128460
H167	H	1.296683	0.091116	0.657152
H168	H	1.796683	0.591116	1.157152
H169	H	1.268812	0.036215	0.568009
H170	H	1.768812	0.536215	1.068009
H171	H	1.259472	-0.054537	0.645311
H172	H	1.759472	0.445463	1.145311
H173	H	1.174032	0.179735	0.607544
H174	H	1.674032	0.679735	1.107544
H175	H	1.164696	0.089009	0.684854
H176	H	1.664696	0.589009	1.184854
H177	H	0.936212	-0.588156	-0.159612
H178	H	1.436212	-0.088156	0.340388
H179	H	0.846050	-0.000049	0.289792
H180	H	1.346050	0.499951	0.789792
