data_functionalizedCrystal
_audit_creation_method	'MofGen! by Chris Wilmer'
_symmetry_space_group_name_H-M	'P1'
_symmetry_Int_Tables_number	1
_symmetry_cell_setting	triclinic
loop_
_symmetry_equiv_pos_as_xyz
  x,y,z
_cell_length_a	11.026607
_cell_length_b	11.026607
_cell_length_c	10.065875
_cell_angle_alpha	100.714830
_cell_angle_beta	79.285340
_cell_angle_gamma	108.586017
loop_
_atom_site_label
_atom_site_type_symbol
_atom_site_fract_x
_atom_site_fract_y
_atom_site_fract_z
O1	O	1.741330	0.519010	-0.113490
O2	O	2.241330	1.019010	0.386510
O3	O	1.374751	0.458246	-0.113493
O4	O	1.874751	0.958246	0.386507
O5	O	1.527658	0.305339	-0.113487
O6	O	2.027658	0.805339	0.386513
O7	O	1.588423	0.671917	-0.113496
O8	O	2.088423	1.171917	0.386504
O9	O	1.498445	0.334557	0.113501
O10	O	1.998445	0.834557	0.613501
O11	O	1.345538	0.487465	0.113495
O12	O	1.845538	0.987465	0.613495
O13	O	1.712117	0.548229	0.113497
O14	O	2.212117	1.048229	0.613497
Zn15	Zn	1.524189	0.522486	0.149535
Zn16	Zn	2.024189	1.022486	0.649535
Zn17	Zn	1.562679	0.483989	-0.149531
Zn18	Zn	2.062679	0.983989	0.350469
O19	O	1.559210	0.701136	0.113491
O20	O	2.059210	1.201136	0.613491
C21	C	1.312485	0.461645	0.000001
C22	C	1.812485	0.961645	0.500001
C23	C	1.170471	0.428228	0.000000
C24	C	1.670471	0.928228	0.500000
C25	C	1.116822	0.520498	-0.000003
C26	C	1.616822	1.020498	0.499997
C27	C	0.970043	0.485962	-0.000004
C28	C	1.470043	0.985962	0.499996
C29	C	1.501842	0.272288	0.000005
C30	C	2.001842	0.772288	0.500005
C31	C	1.468426	0.130273	0.000000
C32	C	1.968426	0.630273	0.500000
C33	C	1.560695	0.076624	-0.000001
C34	C	2.060695	0.576624	0.499999
C35	C	1.526160	-0.070155	-0.000006
C36	C	2.026160	0.429845	0.499994
C37	C	1.774384	0.544829	0.000001
C38	C	2.274384	1.044829	0.500001
C39	C	1.916399	0.578244	-0.000007
C40	C	2.416399	1.078244	0.499993
C41	C	1.585026	0.734186	-0.000004
C42	C	2.085026	1.234186	0.499996
C43	C	1.618444	0.876199	-0.000008
C44	C	2.118444	1.376199	0.499992
N45	N	1.497930	0.548760	0.353640
N46	N	1.997930	1.048760	0.853640
N47	N	1.588946	0.457707	-0.353635
N48	N	2.088946	0.957707	0.146365
C49	C	1.533343	0.513346	0.578584
C50	C	2.033343	1.013346	1.078584
C51	C	1.553541	0.493113	0.421417
C52	C	2.053541	0.993113	0.921417
H53	H	0.979125	0.682816	-0.000001
H54	H	1.479125	1.182816	0.499999
F55	F	0.888055	0.349282	0.000008
F56	F	1.388055	0.849282	0.500008
F57	F	1.198812	0.657172	-0.000002
F58	F	1.698812	1.157172	0.499998
F59	F	1.088479	0.291556	0.000013
F60	F	1.588479	0.791556	0.500013
F61	F	1.697371	0.158614	-0.000008
F62	F	2.197371	0.658614	0.499992
F63	F	1.389481	-0.152144	-0.000020
F64	F	1.889481	0.347856	0.499980
F65	F	1.755127	-0.041817	-0.000013
F66	F	2.255127	0.458183	0.499987
H67	H	1.363864	0.067539	-0.000009
H68	H	1.863864	0.567539	0.499991
F69	F	1.670706	0.375856	0.570137
F70	F	2.170706	0.875856	1.070137
F71	F	1.451568	0.595182	0.654809
F72	F	1.951568	1.095182	1.154809
F73	F	1.635305	0.411258	0.345195
F74	F	2.135305	0.911258	0.845195
F75	F	1.416151	0.630600	0.429863
F76	F	1.916151	1.130600	0.929863
