data_functionalizedCrystal
_audit_creation_method	'MofGen! by Chris Wilmer'
_symmetry_space_group_name_H-M	'P1'
_symmetry_Int_Tables_number	1
_symmetry_cell_setting	triclinic
loop_
_symmetry_equiv_pos_as_xyz
  x,y,z
_cell_length_a	14.519731
_cell_length_b	17.038272
_cell_length_c	12.996460
_cell_angle_alpha	89.993697
_cell_angle_beta	89.994327
_cell_angle_gamma	87.400204
loop_
_atom_site_label
_atom_site_type_symbol
_atom_site_fract_x
_atom_site_fract_y
_atom_site_fract_z
O1	O	1.231705	0.102582	-0.085570
O2	O	0.964153	0.114636	-0.085572
O3	O	1.096339	-0.005209	-0.085563
O4	O	1.099519	0.222427	-0.085579
O5	O	1.096324	-0.005216	0.085571
O6	O	0.964138	0.114629	0.085562
O7	O	1.231690	0.102576	0.085564
Cu8	Cu	1.097913	0.108602	0.101189
Cu9	Cu	1.097931	0.108610	-0.101197
O10	O	1.099504	0.222421	0.085555
C11	C	0.929743	0.114068	-0.000005
C12	C	0.827233	0.112375	-0.000006
C13	C	0.743984	0.111000	-0.000010
C14	C	0.639544	0.109282	-0.000010
C15	C	0.556300	0.107918	-0.000010
C16	C	0.451854	0.106200	-0.000012
C17	C	1.093439	-0.034345	0.000004
C18	C	1.084809	-0.121153	0.000003
C19	C	1.164041	-0.171133	0.000005
C20	C	1.155927	-0.252698	-0.000005
C21	C	1.068580	-0.284280	-0.000009
C22	C	0.989342	-0.234293	-0.000013
C23	C	0.997457	-0.152730	-0.000011
C24	C	1.039911	-0.530086	-0.000023
C25	C	1.031802	-0.611655	-0.000022
C26	C	1.198388	-0.630054	-0.000016
C27	C	1.206496	-0.548489	-0.000007
C28	C	1.127257	-0.498509	-0.000017
C29	C	1.060284	-0.367651	-0.000016
C30	C	1.135554	-0.415140	-0.000018
C31	C	1.266100	0.103144	-0.000005
C32	C	1.368610	0.104836	-0.000012
C33	C	1.102404	0.251557	-0.000014
C34	C	1.111034	0.338364	-0.000021
N35	N	1.097907	0.108596	0.243536
N36	N	1.097944	0.108610	-0.243544
C37	C	1.097930	0.108611	0.663350
C38	C	1.097921	0.108609	0.546545
C39	C	1.097919	0.108604	0.453447
C40	C	1.097909	0.108601	0.336634
H41	H	1.220447	-0.293389	-0.000001
H42	H	1.277623	-0.522782	-0.000004
H43	H	0.932937	-0.112036	-0.000013
C44	C	1.231633	-0.380405	-0.000011
H45	H	1.277664	-0.421851	-0.000014
H46	H	1.238247	-0.348973	0.059667
H47	H	1.238266	-0.348966	-0.059697
H48	H	1.262899	-0.670756	-0.000009
C49	C	0.893260	-0.269027	-0.000026
H50	H	0.847234	-0.227576	-0.000038
H51	H	0.886620	-0.300469	0.059649
H52	H	0.886643	-0.300454	-0.059715
C53	C	0.964205	-0.402391	-0.000020
H54	H	0.918173	-0.360945	-0.000026
H55	H	0.957572	-0.433837	0.059652
H56	H	0.957591	-0.433816	-0.059711
C57	C	1.260124	-0.136400	0.000009
H58	H	1.306149	-0.177852	-0.000001
H59	H	1.266750	-0.104971	0.059688
H60	H	1.266757	-0.104961	-0.059676
C61	C	0.935716	-0.646393	-0.000044
H62	H	0.889686	-0.604946	-0.000063
H63	H	0.929073	-0.677835	0.059630
H64	H	0.929109	-0.677822	-0.059734
H65	H	0.975389	-0.489401	-0.000031
