data_functionalizedCrystal
_audit_creation_method	'MofGen! by Chris Wilmer'
_symmetry_space_group_name_H-M	'P1'
_symmetry_Int_Tables_number	1
_symmetry_cell_setting	triclinic
loop_
_symmetry_equiv_pos_as_xyz
  x,y,z
_cell_length_a	16.120530
_cell_length_b	12.759400
_cell_length_c	12.759393
_cell_angle_alpha	89.968436
_cell_angle_beta	87.081000
_cell_angle_gamma	87.110362
loop_
_atom_site_label
_atom_site_type_symbol
_atom_site_fract_x
_atom_site_fract_y
_atom_site_fract_z
Zn1	Zn	1.274626	-0.499755	-0.675426
Zn2	Zn	1.274542	-0.675468	-0.499741
Zn3	Zn	1.135203	-0.490889	-0.490856
Zn4	Zn	1.135194	-0.666471	-0.666478
O5	O	1.204891	-0.583146	-0.583125
O6	O	1.391282	-0.530539	-0.659583
O7	O	1.256027	-0.651038	-0.351539
O8	O	1.153736	-0.345047	-0.515367
O9	O	1.391220	-0.659635	-0.530508
O10	O	1.256170	-0.351560	-0.650969
O11	O	1.153655	-0.515429	-0.345012
O12	O	1.018535	-0.506705	-0.506690
O13	O	1.153721	-0.644301	-0.814688
O14	O	1.018528	-0.635704	-0.635719
O15	O	1.256161	-0.521815	-0.821262
O16	O	1.256019	-0.821293	-0.521832
O17	O	1.153640	-0.814683	-0.644333
C18	C	1.204842	-0.856110	-0.583100
C19	C	1.204897	-0.972890	-0.583129
C20	C	0.988281	-0.569267	-0.569270
C21	C	0.895614	-0.563355	-0.563368
C22	C	1.258265	-1.031163	-0.519421
C23	C	1.258316	-1.140890	-0.519457
C24	C	1.151624	-1.134062	-0.646912
C25	C	1.151578	-1.024337	-0.646881
C26	C	1.319860	-1.035106	-0.445832
C27	C	1.319911	-1.144833	-0.445868
C28	C	0.725951	-0.552536	-0.552601
C29	C	0.684672	-0.613833	-0.613726
C30	C	0.590265	-0.607813	-0.607735
C31	C	0.820366	-0.558555	-0.558590
C32	C	1.422347	-0.597080	-0.597035
C33	C	1.515014	-0.603017	-0.602962
C34	C	1.204950	-0.583044	-0.857162
C35	C	1.204974	-0.583000	-0.973941
C36	C	1.204964	-0.309117	-0.583175
C37	C	1.204994	-0.192343	-0.583196
C38	C	1.258322	-0.519216	-1.032228
C39	C	1.258342	-0.519179	-1.141953
C40	C	1.151664	-0.646720	-1.135095
C41	C	1.151640	-0.646750	-1.025371
C42	C	1.319915	-0.445584	-1.036189
C43	C	1.319935	-0.445547	-1.145914
C44	C	1.204881	-0.583175	-0.310157
C45	C	1.205018	-0.582933	-0.193390
H46	H	1.108215	-1.175963	-0.698817
H47	H	1.384506	-0.471471	-1.179818
C48	C	1.288638	-0.987235	-0.339385
H49	H	1.289663	-0.912936	-0.342996
H50	H	1.323631	-1.012470	-0.286226
H51	H	1.233343	-1.006752	-0.323273
H52	H	0.690392	-0.495544	-0.495775
H53	H	1.108130	-0.976893	-0.698767
H54	H	1.384409	-1.009378	-0.471808
H55	H	1.381254	-1.182703	-0.479000
H56	H	1.108196	-0.698686	-0.977917
H57	H	1.108239	-0.698621	-1.176982
H58	H	0.720233	-0.670829	-0.670558
C59	C	1.296568	-0.334185	-0.994491
H60	H	1.286974	-0.288350	-1.051801
H61	H	1.340755	-0.309990	-0.955962
H62	H	1.247555	-0.335490	-0.949996
C63	C	1.402750	-0.490273	-0.995494
H64	H	1.439657	-0.510148	-1.053299
H65	H	1.392819	-0.549904	-0.952936
H66	H	1.426887	-0.438324	-0.955151
C67	C	1.288741	-0.339113	-1.189926
H68	H	1.274840	-0.291738	-1.133598
H69	H	1.240929	-0.348513	-1.228768
H70	H	1.331220	-0.311419	-1.234553
H71	H	1.302661	-1.173592	-0.363385
