data_functionalizedCrystal
_audit_creation_method	'MofGen! by Chris Wilmer'
_symmetry_space_group_name_H-M	'P1'
_symmetry_Int_Tables_number	1
_symmetry_cell_setting	triclinic
loop_
_symmetry_equiv_pos_as_xyz
  x,y,z
_cell_length_a	18.215407
_cell_length_b	25.639240
_cell_length_c	18.215399
_cell_angle_alpha	89.962783
_cell_angle_beta	89.982632
_cell_angle_gamma	90.030201
loop_
_atom_site_label
_atom_site_type_symbol
_atom_site_fract_x
_atom_site_fract_y
_atom_site_fract_z
Zn1	Zn	1.125032	-0.208192	-0.416020
Zn2	Zn	1.124923	-0.295628	-0.292934
Zn3	Zn	1.001964	-0.208204	-0.292973
Zn4	Zn	1.001913	-0.295594	-0.415964
O5	O	1.063458	-0.251905	-0.354473
O6	O	1.228001	-0.219799	-0.399700
O7	O	1.108588	-0.284050	-0.189955
O8	O	1.018356	-0.135037	-0.309335
O9	O	1.227922	-0.284038	-0.309269
O10	O	1.108773	-0.135028	-0.399737
O11	O	1.018251	-0.219821	-0.189983
O12	O	0.898973	-0.219788	-0.309281
O13	O	1.018269	-0.283981	-0.518956
O14	O	0.898936	-0.283993	-0.399642
O15	O	1.108724	-0.219767	-0.518997
O16	O	1.108539	-0.368789	-0.309214
O17	O	1.018164	-0.368764	-0.399604
C18	C	0.872252	-0.251888	-0.354460
C19	C	0.790453	-0.251894	-0.354472
C20	C	0.602299	-0.218514	-0.401633
C21	C	0.525441	-0.218518	-0.401636
C22	C	0.525369	-0.285310	-0.307325
C23	C	0.602226	-0.285302	-0.307319
C24	C	0.640689	-0.251905	-0.354478
C25	C	0.486973	-0.251917	-0.354486
C26	C	0.403640	-0.251922	-0.354488
C27	C	0.724028	-0.251899	-0.354475
C28	C	1.063354	-0.387747	-0.354415
C29	C	1.063377	-0.445861	-0.354415
C30	C	1.110562	-0.806181	-0.401630
C31	C	1.110583	-0.860785	-0.401645
O32	O	1.150578	-0.888985	-0.441730
N33	N	1.063560	-0.888144	-0.354544
C34	C	1.016507	-0.860895	-0.307430
O35	O	0.976512	-0.889179	-0.267368
C36	C	1.016482	-0.806291	-0.307419
C37	C	1.063514	-0.778936	-0.354518
C38	C	1.157589	-0.778825	-0.448726
C39	C	1.157568	-0.724225	-0.448710
C40	C	1.110520	-0.696980	-0.401598
C41	C	1.063493	-0.724335	-0.354502
C42	C	0.969426	-0.779044	-0.260309
C43	C	0.969404	-0.724437	-0.260303
C44	C	1.016436	-0.697081	-0.307402
C45	C	1.016424	-0.642490	-0.307374
N46	N	1.063447	-0.615132	-0.354475
C47	C	1.110495	-0.642377	-0.401587
C48	C	1.016562	-0.975565	-0.307457
C49	C	1.016590	-1.030168	-0.307463
C50	C	1.110665	-1.030054	-0.401680
C51	C	1.110641	-0.975451	-0.401669
C52	C	1.063585	-0.948207	-0.354558
C53	C	1.110448	-0.527711	-0.401549
C54	C	1.110425	-0.473106	-0.401527
C55	C	1.016347	-0.473224	-0.307314
C56	C	1.016372	-0.527825	-0.307333
C57	C	1.063425	-0.555067	-0.354457
O58	O	0.976448	-0.614255	-0.267312
O59	O	1.150477	-0.614086	-0.441649
C60	C	1.255411	-0.251921	-0.354486
C61	C	1.337210	-0.251928	-0.354492
C62	C	1.063503	-0.251869	-0.546426
C63	C	1.063522	-0.251853	-0.628225
C64	C	1.063582	-0.115532	-0.354547
C65	C	1.063636	-0.057417	-0.354578
C66	C	1.110639	-0.218386	-0.816441
C67	C	1.110647	-0.218370	-0.893300
C68	C	1.016457	-0.285240	-0.893246
C69	C	1.016445	-0.285252	-0.816389
C70	C	1.063540	-0.251826	-0.777988
C71	C	1.063561	-0.251798	-0.931704
C72	C	1.063570	-0.251782	-1.015038
C73	C	1.063530	-0.251841	-0.694649
C74	C	1.063456	-0.251903	-0.163266
C75	C	1.063579	-0.251771	-0.081468
H76	H	0.633614	-0.191318	-0.440031
H77	H	1.148937	-0.953181	-0.440021
H78	H	0.633484	-0.312494	-0.268915
C79	C	1.209294	-0.694138	-0.500525
H80	H	1.202553	-0.657715	-0.493774
H81	H	1.198495	-0.703069	-0.549961
H82	H	1.258754	-0.703066	-0.489797
H83	H	0.978300	-1.052436	-0.269102
H84	H	0.978043	-0.451033	-0.268953
C85	C	1.162431	-0.181612	-0.774203
H86	H	1.190476	-0.161690	-0.808115
H87	H	1.194477	-0.201614	-0.744211
H88	H	1.134285	-0.158833	-0.744234
H89	H	0.494187	-0.191327	-0.440034
C90	C	1.162416	-1.060028	-0.453508
H91	H	1.190425	-1.035919	-0.481557
H92	H	1.134250	-1.081327	-0.485549
H93	H	1.194507	-1.081326	-0.425384
H94	H	1.148726	-0.450835	-0.439880
H95	H	0.978246	-0.953386	-0.269087
C96	C	1.162211	-0.557670	-0.453378
H97	H	1.190218	-0.533552	-0.481415
H98	H	1.134060	-0.578970	-0.485430
H99	H	1.194306	-0.578966	-0.425253
H100	H	0.494042	-0.312501	-0.268931
C101	C	0.964636	-0.322037	-0.774084
H102	H	0.971369	-0.317252	-0.722811
H103	H	0.975374	-0.357166	-0.786657
H104	H	0.915195	-0.314375	-0.786677
C105	C	1.209351	-0.808787	-0.500549
H106	H	1.237354	-0.784667	-0.528587
H107	H	1.181202	-0.830089	-0.532601
H108	H	1.241448	-0.830080	-0.472424
C109	C	0.917681	-0.809125	-0.208511
H110	H	0.924426	-0.845549	-0.215256
H111	H	0.868231	-0.800192	-0.219248
H112	H	0.928471	-0.800199	-0.159067
C113	C	0.917644	-0.694471	-0.208478
H114	H	0.889644	-0.718587	-0.180429
H115	H	0.885554	-0.673172	-0.236595
H116	H	0.945807	-0.673175	-0.176425
C117	C	0.964641	-0.557917	-0.255524
H118	H	0.936616	-0.533868	-0.227467
H119	H	0.992812	-0.579226	-0.223490
H120	H	0.932563	-0.579214	-0.283663
C121	C	1.162459	-0.181589	-0.935595
H122	H	1.190507	-0.161687	-0.901715
H123	H	1.134335	-0.158799	-0.965587
H124	H	1.194513	-0.201591	-0.965570
H125	H	0.978116	-0.312456	-0.924521
