data_functionalizedCrystal
_audit_creation_method	'MofGen! by Chris Wilmer'
_symmetry_space_group_name_H-M	'P1'
_symmetry_Int_Tables_number	1
_symmetry_cell_setting	triclinic
loop_
_symmetry_equiv_pos_as_xyz
  x,y,z
_cell_length_a	19.188933
_cell_length_b	16.109301
_cell_length_c	15.186229
_cell_angle_alpha	90.005167
_cell_angle_beta	89.998062
_cell_angle_gamma	96.696475
loop_
_atom_site_label
_atom_site_type_symbol
_atom_site_fract_x
_atom_site_fract_y
_atom_site_fract_z
O1	O	0.926385	-0.103804	-0.073202
O2	O	0.723107	-0.117775	-0.073211
O3	O	0.830330	0.010260	-0.073197
O4	O	0.819162	-0.231839	-0.073215
O5	O	0.830323	0.010262	0.073260
O6	O	0.723100	-0.117773	0.073247
O7	O	0.926378	-0.103802	0.073255
Zn8	Zn	0.824738	-0.110788	0.096504
Zn9	Zn	0.824747	-0.110790	-0.096460
O10	O	0.819155	-0.231837	0.073242
C11	C	0.697091	-0.117322	0.000017
C12	C	0.619584	-0.115963	0.000014
C13	C	0.066310	-0.106264	-0.079810
C14	C	0.139137	-0.107536	-0.079813
C15	C	0.175551	-0.108175	0.000020
C16	C	0.139135	-0.107521	0.079863
C17	C	0.066310	-0.106240	0.079865
N18	N	0.284684	-0.157495	0.059440
N19	N	0.353864	-0.158713	0.059434
C20	C	0.394969	-0.112031	0.000022
N21	N	0.364279	-0.064095	-0.059397
N22	N	0.295092	-0.062881	-0.059393
C23	C	0.254518	-0.109563	0.000028
C24	C	0.510345	-0.114058	-0.079820
C25	C	0.583174	-0.115325	-0.079820
C26	C	0.583170	-0.115318	0.079859
C27	C	0.510343	-0.114043	0.079856
C28	C	0.473935	-0.113417	0.000015
C29	C	0.829874	0.041234	0.000032
C30	C	0.828518	0.133525	0.000033
C31	C	0.952394	-0.104256	0.000026
C32	C	1.029902	-0.105615	0.000023
C33	C	0.819611	-0.262812	0.000011
C34	C	0.820967	-0.355102	0.000004
N35	N	0.824737	-0.110785	0.228197
C36	C	0.888989	0.355997	0.000022
C37	C	0.887709	0.442713	0.000014
C38	C	0.760492	0.422418	0.000013
C39	C	0.761772	0.335704	0.000014
C40	C	0.826023	0.302496	0.000023
C41	C	0.823462	0.475927	0.000014
C42	C	0.822074	0.569948	0.000006
C43	C	0.827411	0.208469	0.000029
N44	N	0.824754	-0.110785	-0.228152
C45	C	0.872231	-0.054110	0.453926
C46	C	0.872233	-0.054108	0.546115
C47	C	0.777254	-0.167463	0.546113
C48	C	0.777249	-0.167460	0.453925
C49	C	0.824742	-0.110785	0.407834
C50	C	0.824749	-0.110786	0.592211
C51	C	0.824751	-0.110784	0.692167
C52	C	0.824739	-0.110786	0.307871
H53	H	0.036671	-0.105752	-0.144823
C54	C	0.924470	0.008245	0.596813
N55	N	0.963815	0.055215	0.634997
C56	C	0.725014	-0.229801	0.596821
N57	N	0.685666	-0.276755	0.635014
C58	C	0.725036	-0.229848	0.403220
N59	N	0.685721	-0.276848	0.365030
H60	H	0.168786	-0.108070	-0.144824
H61	H	0.710495	0.292141	0.000012
C62	C	0.956976	0.501562	0.000021
N63	N	1.009152	0.545886	0.000028
C64	C	0.689820	0.458956	0.000020
N65	N	0.636588	0.486475	0.000032
C66	C	0.623224	-0.116030	-0.167647
N67	N	0.653390	-0.116559	-0.233800
C68	C	0.924469	0.008241	0.403229
N69	N	0.963813	0.055208	0.365046
H70	H	0.168789	-0.108039	0.144864
H71	H	0.036667	-0.105715	0.144876
C72	C	0.470294	-0.113360	-0.167647
N73	N	0.440130	-0.112832	-0.233799
H74	H	0.480699	-0.113517	0.144865
C75	C	0.959666	0.319472	0.000022
N76	N	1.012902	0.291963	0.000018
C77	C	0.623223	-0.116012	0.167677
N78	N	0.653395	-0.116531	0.233824
