data_functionalizedCrystal
_audit_creation_method	'MofGen! by Chris Wilmer'
_symmetry_space_group_name_H-M	'P1'
_symmetry_Int_Tables_number	1
_symmetry_cell_setting	triclinic
loop_
_symmetry_equiv_pos_as_xyz
  x,y,z
_cell_length_a	12.759401
_cell_length_b	12.759399
_cell_length_c	11.169409
_cell_angle_alpha	90.030535
_cell_angle_beta	89.979279
_cell_angle_gamma	89.984308
loop_
_atom_site_label
_atom_site_type_symbol
_atom_site_fract_x
_atom_site_fract_y
_atom_site_fract_z
Zn1	Zn	1.606272	0.418177	-0.678562
Zn2	Zn	1.606157	0.593903	-0.477885
Zn3	Zn	1.430568	0.418239	-0.477896
Zn4	Zn	1.430560	0.593815	-0.678530
O5	O	1.518389	0.506034	-0.578218
O6	O	1.753278	0.441499	-0.651951
O7	O	1.582820	0.570663	-0.309937
O8	O	1.453926	0.271210	-0.504533
O9	O	1.753194	0.570603	-0.504515
O10	O	1.583016	0.271164	-0.651962
O11	O	1.453815	0.441604	-0.309945
O12	O	1.283546	0.441519	-0.504501
O13	O	1.453914	0.570454	-0.846484
O14	O	1.283540	0.570514	-0.651906
O15	O	1.583009	0.441414	-0.846508
O16	O	1.582813	0.740912	-0.504483
O17	O	1.453803	0.740848	-0.651896
C18	C	1.245422	0.506014	-0.578202
C19	C	1.128645	0.506031	-0.578224
C20	C	1.073808	0.573307	-0.654850
C21	C	0.964084	0.573320	-0.654863
C22	C	0.964044	0.438780	-0.501613
C23	C	1.073766	0.438762	-0.501607
C24	C	1.128687	0.640576	-0.731467
C25	C	1.073850	0.707858	-0.808099
C26	C	0.964126	0.707871	-0.808112
C27	C	0.909239	0.640603	-0.731493
C28	C	1.518323	0.779001	-0.578211
C29	C	1.518391	0.895778	-0.578248
C30	C	1.585640	0.950638	-0.501578
C31	C	1.585703	1.060362	-0.501622
C32	C	1.451258	1.060355	-0.655008
C33	C	1.451201	0.950633	-0.654969
C34	C	1.652830	0.895782	-0.424856
C35	C	1.720084	0.950643	-0.348180
C36	C	1.720146	1.060367	-0.348224
C37	C	1.652955	1.115230	-0.424944
C38	C	1.792423	0.506054	-0.578235
C39	C	1.909199	0.506062	-0.578243
C40	C	1.518481	1.232000	-0.578268
C41	C	1.518511	1.115224	-0.578331
C42	C	1.518474	0.505917	-0.891261
C43	C	1.518510	0.505868	-1.024661
C44	C	1.518366	0.506074	-0.266394
C45	C	1.518534	0.505827	-0.132994
H46	H	0.919347	0.384014	-0.439232
O47	O	1.653027	1.233577	-0.424991
H48	H	1.595009	1.262506	-0.491218
O49	O	1.132925	0.366212	-0.418952
H50	H	1.076332	0.319452	-0.365661
H51	H	1.652783	0.806440	-0.424809
H52	H	1.774795	0.905968	-0.285723
H53	H	1.774915	1.105032	-0.285799
O54	O	1.378773	1.119522	-0.737734
H55	H	1.390100	1.205035	-0.724867
H56	H	1.396442	0.905965	-0.717402
H57	H	1.118546	0.762618	-0.870487
O58	O	1.247032	0.640564	-0.731444
H59	H	1.275983	0.698639	-0.797594
H60	H	0.919480	0.762647	-0.870518
H61	H	0.819894	0.640610	-0.731520
