data_functionalizedCrystal
_audit_creation_method	'MofGen! by Chris Wilmer'
_symmetry_space_group_name_H-M	'P1'
_symmetry_Int_Tables_number	1
_symmetry_cell_setting	triclinic
loop_
_symmetry_equiv_pos_as_xyz
  x,y,z
_cell_length_a	13.339070
_cell_length_b	17.699077
_cell_length_c	16.776229
_cell_angle_alpha	89.999352
_cell_angle_beta	89.994491
_cell_angle_gamma	99.454935
loop_
_atom_site_label
_atom_site_type_symbol
_atom_site_fract_x
_atom_site_fract_y
_atom_site_fract_z
O1	O	0.127836	1.031096	-0.066275
O2	O	0.627836	1.531096	0.433725
O3	O	0.144478	0.814235	-0.066278
O4	O	0.644478	1.314235	0.433722
O5	O	-0.011045	0.897777	-0.066274
O6	O	0.488955	1.397777	0.433726
O7	O	0.283359	0.947554	-0.066278
O8	O	0.783359	1.447554	0.433722
O9	O	-0.011059	0.897772	0.066302
O10	O	0.488941	1.397772	0.566302
O11	O	0.144464	0.814230	0.066298
O12	O	0.644464	1.314230	0.566298
O13	O	0.127822	1.031091	0.066302
O14	O	0.627822	1.531091	0.566302
Zn15	Zn	0.136141	0.922660	0.087349
Zn16	Zn	0.636141	1.422660	0.587349
Zn17	Zn	0.136159	0.922666	-0.087326
Zn18	Zn	0.636159	1.422666	0.412674
O19	O	0.283345	0.947549	0.066298
O20	O	0.783345	1.447549	0.566298
C21	C	0.143875	0.785909	0.000010
C22	C	0.643875	1.285909	0.500010
C23	C	0.142090	0.701514	0.000008
C24	C	0.642090	1.201514	0.500008
C25	C	0.141241	0.661866	0.072276
C26	C	0.641241	1.161866	0.572276
C27	C	0.139547	0.582565	0.072277
C28	C	0.639547	1.082565	0.572277
C29	C	0.138709	0.542915	0.000009
C30	C	0.638709	1.042915	0.500009
C31	C	0.139555	0.582568	-0.072265
C32	C	0.639555	1.082568	0.427735
C33	C	0.141242	0.661866	-0.072265
C34	C	0.641242	1.161866	0.427735
C35	C	0.132751	0.262766	-0.072266
C36	C	0.632751	0.762766	0.427734
C37	C	0.131067	0.183463	-0.072261
C38	C	0.631067	0.683463	0.427739
C39	C	0.131055	0.183465	0.072276
C40	C	0.631055	0.683465	0.572276
C41	C	0.132742	0.262763	0.072276
C42	C	0.632742	0.762763	0.572276
C43	C	0.133583	0.302409	0.000003
C44	C	0.633583	0.802409	0.500003
C45	C	0.135418	0.388396	0.000002
C46	C	0.635418	0.888396	0.500002
C47	C	0.136881	0.456930	0.000008
C48	C	0.636881	0.956930	0.500008
C49	C	-0.048720	0.889366	0.000013
C50	C	0.451280	1.389366	0.500013
C51	C	-0.160959	0.864303	0.000009
C52	C	0.339041	1.364303	0.500009
C53	C	-0.526237	1.059182	0.000013
C54	C	-0.026237	1.559182	0.500013
C55	C	-0.420783	1.082733	0.000020
C56	C	0.079217	1.582733	0.500020
C57	C	-0.355822	1.028127	0.000017
C58	C	0.144178	1.528127	0.500017
C59	C	-0.396325	0.949967	0.000007
C60	C	0.103675	1.449967	0.500007
C61	C	-0.501790	0.926414	0.000005
C62	C	-0.001790	1.426414	0.500005
C63	C	-0.331375	0.895359	0.000010
C64	C	0.168625	1.395359	0.500010
C65	C	-0.371878	0.817199	-0.000001
C66	C	0.128122	1.317199	0.499999
C67	C	-0.477333	0.793650	-0.000003
C68	C	0.022667	1.293650	0.499997
C69	C	-0.542293	0.848255	0.000000
C70	C	-0.042293	1.348255	0.500000
C71	C	-0.225910	0.918912	0.000011
C72	C	0.274090	1.418912	0.500011
C73	C	-0.201463	0.786144	0.000004
C74	C	0.298537	1.286144	0.500004
C75	C	-0.306917	0.762593	-0.000004
C76	C	0.193083	1.262593	0.499996
C77	C	0.321020	0.955960	0.000009
C78	C	0.821020	1.455960	0.500009
C79	C	0.433259	0.981023	0.000008
C80	C	0.933259	1.481023	0.500008
C81	C	0.128425	1.059417	0.000012
C82	C	0.628425	1.559417	0.500012
C83	C	0.130210	1.143812	0.000008
C84	C	0.630210	1.643812	0.500008
N85	N	0.136164	0.922670	-0.206537
N86	N	0.636164	1.422670	0.293463
C87	C	0.067434	0.959786	-0.248253
C88	C	0.567434	1.459786	0.251747
C89	C	0.067431	0.959788	-0.331705
C90	C	0.567431	1.459788	0.168295
C91	C	0.136155	0.922669	-0.373440
C92	C	0.636155	1.422669	0.126560
C93	C	0.204892	0.885552	-0.331719
C94	C	0.704892	1.385552	0.168281
C95	C	0.204899	0.885555	-0.248268
C96	C	0.704899	1.385555	0.251732
C97	C	0.204868	0.885541	-0.668266
C98	C	0.704868	1.385541	-0.168266
C99	C	0.204854	0.885539	-0.751722
C100	C	0.704854	1.385539	-0.251722
C101	C	0.067400	0.959775	-0.751703
C102	C	0.567400	1.459775	-0.251703
C103	C	0.067407	0.959778	-0.668252
C104	C	0.567407	1.459778	-0.168252
C105	C	0.136148	0.922664	-0.626538
C106	C	0.636148	1.422664	-0.126538
C107	C	0.136151	0.922663	-0.536050
C108	C	0.636151	1.422663	-0.036050
C109	C	0.136148	0.922665	-0.463927
C110	C	0.636148	1.422665	0.036073
N111	N	0.136128	0.922661	0.206561
N112	N	0.636128	1.422661	0.706561
H113	H	0.141935	0.694147	-0.131113
H114	H	0.641935	1.194147	0.368887
H115	H	0.133432	0.295036	-0.131116
H116	H	0.633432	0.795036	0.368884
H117	H	-0.192943	0.982550	0.000020
H118	H	0.307057	1.482550	0.500020
C119	C	-0.579550	1.165094	-0.068130
C120	C	-0.079550	1.665094	0.431870
C121	C	-0.597640	1.119198	0.000018
C122	C	-0.097640	1.619198	0.500018
H123	H	-0.623630	1.202151	-0.068122
H124	H	-0.123630	1.702151	0.431878
H125	H	-0.591807	1.133962	-0.114356
H126	H	-0.091807	1.633962	0.385644
H127	H	-0.510945	1.190305	-0.068121
H128	H	-0.010945	1.690305	0.431879
H129	H	-0.666243	1.093982	0.000006
H130	H	-0.166243	1.593982	0.500006
H131	H	-0.585391	1.150334	0.046255
H132	H	-0.085391	1.650334	0.546255
H133	H	0.138838	0.550285	0.131125
H134	H	0.638838	1.050285	0.631125
H135	H	-0.510306	0.730007	-0.000005
H136	H	-0.010306	1.230007	0.499995
C137	C	-0.686724	0.778363	0.068134
C138	C	-0.186724	1.278363	0.568134
C139	C	-0.658214	0.822362	-0.000012
C140	C	-0.158214	1.322362	0.499988
H141	H	-0.758289	0.762375	0.068121
H142	H	-0.258289	1.262375	0.568121
H143	H	-0.667404	0.808207	0.114361
H144	H	-0.167404	1.308207	0.614361
H145	H	-0.653827	0.734660	0.068129
H146	H	-0.153827	1.234660	0.568129
H147	H	-0.691105	0.866068	-0.000004
H148	H	-0.191105	1.366068	0.499996
H149	H	-0.677545	0.792517	-0.046250
H150	H	-0.177545	1.292517	0.453750
H151	H	0.011443	0.990000	-0.634274
H152	H	0.511443	1.490000	-0.134274
C153	C	0.043644	0.149328	0.195488
C154	C	0.543644	0.649328	0.695488
C155	C	0.130119	0.139885	0.151724
C156	C	0.630119	0.639885	0.651724
H157	H	0.043074	0.122429	0.244536
H158	H	0.543074	0.622429	0.744536
H159	H	-0.015559	0.129727	0.165798
H160	H	0.484441	0.629727	0.665798
H161	H	0.044783	0.202233	0.205820
H162	H	0.544783	0.702233	0.705820
H163	H	0.128976	0.086980	0.141387
H164	H	0.628976	0.586980	0.641387
H165	H	0.189337	0.159483	0.181421
H166	H	0.689337	0.659483	0.681421
H167	H	0.260821	0.855312	-0.785702
H168	H	0.760821	1.355312	-0.285702
H169	H	-0.339910	0.698954	-0.000012
H170	H	0.160090	1.198954	0.499988
C171	C	-0.028951	0.763292	-0.000009
C172	C	0.471049	1.263292	0.499991
C173	C	-0.130068	0.726114	-0.000006
C174	C	0.369932	1.226114	0.499994
H175	H	0.015128	0.726234	-0.000019
H176	H	0.515128	1.226234	0.499981
H177	H	-0.016701	0.794416	0.046223
H178	H	0.483299	1.294416	0.546223
H179	H	-0.016699	0.794430	-0.046242
H180	H	0.483301	1.294430	0.453758
H181	H	-0.142321	0.694981	0.046231
H182	H	0.357679	1.194981	0.546231
H183	H	-0.142322	0.694977	-0.046242
H184	H	0.357678	1.194977	0.453758
H185	H	0.011431	0.989998	-0.785675
H186	H	0.511431	1.489998	-0.285675
C187	C	-0.068439	1.033166	-0.256624
C188	C	0.431561	1.533166	0.243376
C189	C	-0.008114	1.000586	-0.202381
C190	C	0.491886	1.500586	0.297619
H191	H	-0.115075	1.058359	-0.228305
H192	H	0.384925	1.558359	0.271695
H193	H	-0.104840	0.994077	-0.289167
H194	H	0.395160	1.494077	0.210833
H195	H	-0.026310	1.069169	-0.289179
H196	H	0.473690	1.569169	0.210821
H197	H	-0.050242	0.964579	-0.169830
H198	H	0.449758	1.464579	0.330170
H199	H	0.028289	1.039680	-0.169825
H200	H	0.528289	1.539680	0.330175
H201	H	0.133430	0.295044	0.131124
H202	H	0.633430	0.795044	0.631124
H203	H	0.260853	0.855332	-0.365704
H204	H	0.760853	1.355332	0.134296
H205	H	0.130384	0.151181	-0.131114
H206	H	0.630384	0.651181	0.368886
H207	H	0.260837	0.855320	-0.634309
H208	H	0.760837	1.355320	-0.134309
C209	C	0.340757	0.812161	-0.256664
C210	C	0.840757	1.312161	0.243336
C211	C	0.280442	0.844748	-0.202411
C212	C	0.780442	1.344748	0.297589
H213	H	0.387391	0.786966	-0.228353
H214	H	0.887391	1.286966	0.271647
H215	H	0.377160	0.851247	-0.289216
H216	H	0.877160	1.351247	0.210784
H217	H	0.298622	0.776160	-0.289209
H218	H	0.798622	1.276160	0.210791
H219	H	0.322576	0.880753	-0.169870
H220	H	0.822576	1.380753	0.330130
H221	H	0.244036	0.805657	-0.169846
H222	H	0.744036	1.305657	0.330154
C223	C	-0.316361	1.186242	-0.068122
C224	C	0.183639	1.686242	0.431878
C225	C	-0.376264	1.168641	0.000026
C226	C	0.123736	1.668641	0.500026
H227	H	-0.288874	1.239281	-0.068116
H228	H	0.211126	1.739281	0.431884
H229	H	-0.356987	1.174301	-0.114347
H230	H	0.143013	1.674301	0.385653
H231	H	-0.262585	1.157089	-0.068114
H232	H	0.237415	1.657089	0.431886
H233	H	-0.430045	1.197791	0.000015
H234	H	0.069955	1.697791	0.500015
H235	H	-0.335636	1.180591	0.046263
H236	H	0.164364	1.680591	0.546263
C237	C	0.141046	0.653893	0.215149
C238	C	0.641046	1.153893	0.715149
C239	C	0.142156	0.705445	0.151718
C240	C	0.642156	1.205445	0.651718
H241	H	0.141602	0.680796	0.264193
H242	H	0.641602	1.180796	0.764193
H243	H	0.199325	0.629569	0.212145
H244	H	0.699325	1.129569	0.712145
H245	H	0.081447	0.616359	0.212134
H246	H	0.581447	1.116359	0.712134
H247	H	0.201760	0.742976	0.154730
H248	H	0.701760	1.242976	0.654730
H249	H	0.083872	0.729781	0.154724
H250	H	0.583872	1.229781	0.654724
C251	C	0.136984	0.461011	-0.136445
C252	C	0.636984	0.961011	0.363555
C253	C	0.138636	0.538986	-0.151705
C254	C	0.638636	1.038986	0.348295
H255	H	0.136426	0.434109	-0.185490
H256	H	0.636426	0.934109	0.314510
H257	H	0.077770	0.441415	-0.106757
H258	H	0.577770	0.941415	0.393243
H259	H	0.195648	0.454627	-0.106751
H260	H	0.695648	0.954627	0.393249
H261	H	0.079968	0.545370	-0.181395
H262	H	0.579968	1.045370	0.318605
H263	H	0.197857	0.558587	-0.181406
H264	H	0.697857	1.058587	0.318594
H265	H	-0.269957	1.047307	0.000024
H266	H	0.230043	1.547307	0.500024
C267	C	-0.070561	0.947036	-0.425144
C268	C	0.429439	1.447036	0.074856
C269	C	-0.008525	1.000344	-0.377380
C270	C	0.491475	1.500344	0.122620
H271	H	-0.117570	0.972007	-0.453290
H272	H	0.382430	1.472007	0.046710
H273	H	-0.106538	0.907869	-0.392460
H274	H	0.393462	1.407869	0.107540
H275	H	-0.029644	0.925090	-0.462083
H276	H	0.470356	1.425090	0.037917
H277	H	-0.049442	1.022287	-0.340436
H278	H	0.450558	1.522287	0.159564
H279	H	0.027455	1.039526	-0.410066
H280	H	0.527455	1.539526	0.089934
