data_functionalizedCrystal
_audit_creation_method	'MofGen! by Chris Wilmer'
_symmetry_space_group_name_H-M	'P1'
_symmetry_Int_Tables_number	1
_symmetry_cell_setting	triclinic
loop_
_symmetry_equiv_pos_as_xyz
  x,y,z
_cell_length_a	10.686220
_cell_length_b	10.685194
_cell_length_c	11.169409
_cell_angle_alpha	85.594469
_cell_angle_beta	94.348347
_cell_angle_gamma	99.069756
loop_
_atom_site_label
_atom_site_type_symbol
_atom_site_fract_x
_atom_site_fract_y
_atom_site_fract_z
Zn1	Zn	1.901872	-0.356222	-0.514038
Zn2	Zn	2.401872	0.143778	-0.014038
Zn3	Zn	1.885488	-0.568559	-0.299053
Zn4	Zn	2.385488	-0.068559	0.200947
Zn5	Zn	1.689599	-0.372601	-0.327637
Zn6	Zn	2.189599	0.127399	0.172363
Zn7	Zn	1.673354	-0.584748	-0.513966
Zn8	Zn	2.173354	-0.084748	-0.013966
O9	O	1.787578	-0.470532	-0.413674
O10	O	2.287578	0.029468	0.086326
O11	O	2.077314	-0.370759	-0.473588
O12	O	2.577314	0.129241	0.026412
O13	O	1.859445	-0.542645	-0.134894
O14	O	2.359445	-0.042645	0.365106
O15	O	1.731412	-0.192780	-0.364356
O16	O	2.231412	0.307220	0.135644
O17	O	2.065277	-0.526762	-0.315640
O18	O	2.565277	-0.026762	0.184360
O19	O	1.887368	-0.180746	-0.501304
O20	O	2.387368	0.319254	-0.001304
O21	O	1.715526	-0.398675	-0.155894
O22	O	2.215526	0.101325	0.344106
O23	O	1.509828	-0.414373	-0.364286
O24	O	2.009828	0.085627	0.135714
O25	O	1.703726	-0.554354	-0.681927
O26	O	2.203726	-0.054354	-0.181927
O27	O	1.497894	-0.570236	-0.501181
O28	O	1.997894	-0.070236	-0.001181
O29	O	1.871616	-0.386457	-0.681980
O30	O	2.371616	0.113543	-0.181980
O31	O	1.843693	-0.748355	-0.315570
O32	O	2.343693	-0.248355	0.184430
O33	O	1.687840	-0.760249	-0.473465
O34	O	2.187840	-0.260249	0.026535
C35	C	1.457807	-0.495840	-0.435828
C36	C	1.957807	0.004160	0.064172
C37	C	1.316727	-0.506697	-0.445332
C38	C	1.816727	-0.006697	0.054668
C39	C	1.762260	-0.800362	-0.391432
C40	C	2.262260	-0.300362	0.108568
C41	C	1.751546	-0.941455	-0.381949
C42	C	2.251546	-0.441455	0.118051
C43	C	2.118637	-0.445128	-0.391433
C44	C	2.618637	0.054872	0.108567
C45	C	2.259715	-0.434301	-0.381956
C46	C	2.759715	0.065699	0.118044
C47	C	1.787686	-0.470384	-0.726719
C48	C	2.287686	0.029616	-0.226719
C49	C	1.787733	-0.470321	-0.860121
C50	C	2.287733	0.029679	-0.360121
C51	C	1.813029	-0.139413	-0.436027
C52	C	2.313029	0.360587	0.063973
C53	C	1.823875	0.001691	-0.445552
C54	C	2.323875	0.501691	0.054448
C55	C	1.787550	-0.470583	-0.101847
C56	C	2.287550	0.029417	0.398153
C57	C	1.787778	-0.470270	0.031546
C58	C	2.287778	0.029730	0.531546
H59	H	1.893999	-0.939045	-0.507266
H60	H	2.393999	-0.439045	-0.007266
H61	H	1.681407	-1.000728	-0.320242
H62	H	2.181407	-0.500728	0.179758
H63	H	1.318834	-0.364016	-0.320425
H64	H	1.818834	0.135984	0.179575
H65	H	1.257601	-0.576995	-0.506859
H66	H	1.757601	-0.076995	-0.006859
