data_functionalizedCrystal
_audit_creation_method	'MofGen! by Chris Wilmer'
_symmetry_space_group_name_H-M	'P1'
_symmetry_Int_Tables_number	1
_symmetry_cell_setting	triclinic
loop_
_symmetry_equiv_pos_as_xyz
  x,y,z
_cell_length_a	14.044191
_cell_length_b	10.654549
_cell_length_c	9.130313
_cell_angle_alpha	89.996463
_cell_angle_beta	89.998938
_cell_angle_gamma	88.838277
loop_
_atom_site_label
_atom_site_type_symbol
_atom_site_fract_x
_atom_site_fract_y
_atom_site_fract_z
O1	O	1.259699	0.303028	-0.121722
O2	O	0.983657	0.292085	-0.121741
O3	O	1.128025	0.115455	-0.121725
O4	O	1.115331	0.479658	-0.121738
O5	O	1.128015	0.115449	0.121874
O6	O	0.983647	0.292079	0.121858
O7	O	1.259689	0.303021	0.121877
Cu8	Cu	1.121667	0.297549	0.144110
Cu9	Cu	1.121679	0.297557	-0.143974
O10	O	1.115321	0.479651	0.121861
C11	C	1.127088	0.068560	0.000073
C12	C	1.124300	-0.071163	0.000068
C13	C	0.948306	0.287295	0.000056
C14	C	0.842987	0.273016	0.000049
C15	C	1.206674	-0.273397	0.000063
C16	C	1.209301	-0.142113	0.000075
C17	C	1.036665	-0.131505	0.000064
C18	C	1.034039	-0.262787	0.000062
C19	C	0.593194	0.348181	0.000061
C20	C	0.650158	0.246931	0.000062
C21	C	0.757458	0.261448	0.000055
C22	C	0.485884	0.333666	0.000068
C23	C	1.295040	0.307812	0.000076
C24	C	1.400360	0.322091	0.000074
C25	C	1.116258	0.526546	0.000060
C26	C	1.119047	0.666270	0.000055
N27	N	1.121666	0.297544	0.346732
N28	N	1.121688	0.297554	-0.346597
C29	C	1.185614	0.219370	0.423391
C30	C	1.185623	0.219371	0.576728
C31	C	1.057733	0.375731	0.576734
C32	C	1.057720	0.375722	0.423400
H33	H	1.280656	-0.092996	0.000085
H34	H	0.962678	-0.311911	0.000062
C35	C	1.255161	0.134455	0.659693
C36	C	1.311170	0.066015	0.559726
C37	C	1.375249	-0.012215	0.636098
H38	H	1.220816	0.078179	0.719527
H39	H	1.294996	0.184098	0.719464
H40	H	1.271341	0.016375	0.499980
H41	H	1.345536	0.122258	0.499889
H42	H	1.415084	0.037429	0.695869
H43	H	1.340896	-0.068483	0.695929
H44	H	1.413265	-0.058652	0.568282
H45	H	0.618341	0.149345	-0.000038
H46	H	1.005642	0.439380	0.360980
C47	C	0.988161	0.460448	0.659903
C48	C	0.894816	0.429519	0.622663
C49	C	0.830701	0.507524	0.699263
H50	H	0.998875	0.545528	0.634824
H51	H	0.997265	0.449244	0.762217
H52	H	0.885716	0.440733	0.520373
H53	H	0.884072	0.344453	0.647746
H54	H	0.839805	0.496320	0.801576
H55	H	0.841424	0.592599	0.674178
H56	H	0.767360	0.486542	0.674017
H57	H	1.275893	-0.331156	0.000057
H58	H	0.967456	-0.073727	0.000066
C59	C	0.635665	0.478264	-0.000262
C60	C	0.691856	0.492456	-0.125616
C61	C	0.730998	0.612274	-0.125979
H62	H	0.673913	0.488256	0.084580
H63	H	0.585843	0.539930	-0.000346
H64	H	0.741671	0.430808	-0.125519
H65	H	0.653630	0.482489	-0.210479
H66	H	0.681176	0.673940	-0.126063
H67	H	0.769241	0.622255	-0.041131
H68	H	0.769121	0.621923	-0.211035
H69	H	1.237681	0.155711	0.360972
