data_functionalizedCrystal
_audit_creation_method	'MofGen! by Chris Wilmer'
_symmetry_space_group_name_H-M	'P1'
_symmetry_Int_Tables_number	1
_symmetry_cell_setting	triclinic
loop_
_symmetry_equiv_pos_as_xyz
  x,y,z
_cell_length_a	10.686285
_cell_length_b	21.395362
_cell_length_c	21.395355
_cell_angle_alpha	90.048039
_cell_angle_beta	85.619443
_cell_angle_gamma	94.352004
loop_
_atom_site_label
_atom_site_type_symbol
_atom_site_fract_x
_atom_site_fract_y
_atom_site_fract_z
Zn1	Zn	-0.501858	-0.977078	-0.335605
Zn2	Zn	-0.712826	-0.985059	-0.222820
Zn3	Zn	-0.501925	-0.872295	-0.230796
Zn4	Zn	-0.712861	-0.880342	-0.327516
O5	O	-0.607367	-0.928694	-0.279184
O6	O	-0.529800	-1.065813	-0.320691
O7	O	-0.684863	-0.970073	-0.136199
O8	O	-0.325348	-0.879487	-0.251423
O9	O	-0.684798	-1.071677	-0.237828
O10	O	-0.325298	-0.956470	-0.328426
O11	O	-0.529915	-0.887226	-0.142060
O12	O	-0.529949	-0.785686	-0.243579
O13	O	-0.684857	-0.893202	-0.416267
O14	O	-0.684922	-0.791598	-0.314638
O15	O	-0.529834	-0.964273	-0.422210
O16	O	-0.889399	-0.977876	-0.229984
O17	O	-0.889424	-0.900941	-0.306904
C18	C	-0.607448	-0.765909	-0.279097
C19	C	-0.607512	-0.696270	-0.279073
C20	C	-0.935194	-0.941165	-0.266715
C21	C	-1.075439	-0.946557	-0.261401
C22	C	-0.688317	-0.666656	-0.316007
C23	C	-0.688291	-0.601220	-0.316031
C24	C	-0.607475	-0.565400	-0.279110
C25	C	-0.526655	-0.595022	-0.242174
C26	C	-0.526674	-0.660457	-0.242155
C27	C	-0.597319	-0.461287	-0.223083
C28	C	-0.597309	-0.395853	-0.223100
C29	C	-0.607409	-0.363577	-0.279167
C30	C	-0.617546	-0.396743	-0.335218
C31	C	-0.617565	-0.462178	-0.335200
C32	C	-0.607445	-0.494447	-0.279126
C33	C	-0.688190	-0.263010	-0.316131
C34	C	-0.688156	-0.197572	-0.316156
C35	C	-0.526526	-0.191375	-0.242292
C36	C	-0.526554	-0.256812	-0.242273
C37	C	-0.607393	-0.292625	-0.279191
C38	C	-0.278261	-0.916191	-0.291716
C39	C	-0.138015	-0.910863	-0.297057
C40	C	-0.607342	-0.928745	-0.442609
C41	C	-0.607331	-0.928766	-0.512250
C42	C	-0.607309	-0.092115	-0.279254
C43	C	-0.607337	-0.161757	-0.279235
C44	C	-0.526607	-0.965771	-0.548059
C45	C	-0.526553	-0.965768	-0.613497
C46	C	-0.607245	-0.928768	-0.643122
C47	C	-0.687974	-0.891755	-0.607305
C48	C	-0.688017	-0.891755	-0.541869
C49	C	-0.720859	-0.928143	-0.742473
C50	C	-0.720818	-0.928148	-0.807908
C51	C	-0.607111	-0.928767	-0.844948
C52	C	-0.493442	-0.929393	-0.816546
C53	C	-0.493485	-0.929392	-0.751110
C54	C	-0.607207	-0.928764	-0.714076
C55	C	-0.526322	-0.965770	-0.951712
C56	C	-0.526266	-0.965763	-1.017151
C57	C	-0.687699	-0.891754	-1.010957
C58	C	-0.687744	-0.891757	-0.945520
C59	C	-0.607057	-0.928769	-0.915901
C60	C	-0.607302	-0.928675	-0.116399
C61	C	-0.606957	-0.928761	-0.046771
H62	H	-0.754140	-0.695811	-0.346070
H63	H	-1.084298	-0.876179	-0.331649
Cl64	Cl	-0.424969	-0.294043	-0.195837
Cl65	Cl	-0.424919	-0.146351	-0.195880
H66	H	-0.460811	-0.995901	-0.642658
Cl67	Cl	-1.158377	-1.000104	-0.207981
Cl68	Cl	-0.789882	-0.563982	-0.362466
Cl69	Cl	-0.584564	-0.354165	-0.152637
Cl70	Cl	-0.630300	-0.503870	-0.405661
H71	H	-0.625769	-0.370465	-0.380874
Cl72	Cl	-0.350594	-0.930175	-0.715406
Cl73	Cl	-0.425165	-1.012296	-0.510828
H74	H	-0.400852	-0.929898	-0.846703
H75	H	-0.460615	-0.995904	-0.927595
Cl76	Cl	-0.863822	-0.927384	-0.695914
Cl77	Cl	-0.424794	-1.012299	-1.062168
H78	H	-0.753387	-0.861620	-1.035078
H79	H	-0.753671	-0.861627	-0.631430
H80	H	-0.753486	-0.861628	-0.916364
Cl81	Cl	-0.863715	-0.927366	-0.843606
H82	H	-0.753751	-0.861618	-0.512714
H83	H	-0.754008	-0.292170	-0.346195
Cl84	Cl	-0.584625	-0.501856	-0.152590
Cl85	Cl	-0.789742	-0.160342	-0.362596
Cl86	Cl	-0.425051	-0.549993	-0.195761
H87	H	-0.460869	-0.684568	-0.212079
