data_functionalizedCrystal
_audit_creation_method	'MofGen! by Chris Wilmer'
_symmetry_space_group_name_H-M	'P1'
_symmetry_Int_Tables_number	1
_symmetry_cell_setting	triclinic
loop_
_symmetry_equiv_pos_as_xyz
  x,y,z
_cell_length_a	14.519709
_cell_length_b	14.853567
_cell_length_c	13.596369
_cell_angle_alpha	90.002958
_cell_angle_beta	89.998664
_cell_angle_gamma	96.342462
loop_
_atom_site_label
_atom_site_type_symbol
_atom_site_fract_x
_atom_site_fract_y
_atom_site_fract_z
O1	O	0.120399	-1.196414	-0.081726
O2	O	0.370399	-0.946414	0.168274
O3	O	0.620399	-0.696414	0.418274
O4	O	0.870399	-0.446414	0.668274
O5	O	0.134742	-0.933960	-0.081743
O6	O	0.384742	-0.683960	0.168257
O7	O	0.634742	-0.433960	0.418257
O8	O	0.884742	-0.183960	0.668257
O9	O	-0.006670	-1.072146	-0.081725
O10	O	0.243330	-0.822146	0.168275
O11	O	0.493330	-0.572146	0.418275
O12	O	0.743330	-0.322146	0.668275
O13	O	0.261812	-1.058228	-0.081744
O14	O	0.511812	-0.808228	0.168256
O15	O	0.761812	-0.558228	0.418256
O16	O	1.011812	-0.308228	0.668256
O17	O	-0.006663	-1.072129	0.081858
O18	O	0.243337	-0.822129	0.331858
O19	O	0.493337	-0.572129	0.581858
O20	O	0.743337	-0.322129	0.831858
O21	O	0.134750	-0.933943	0.081840
O22	O	0.384750	-0.683943	0.331840
O23	O	0.634750	-0.433943	0.581840
O24	O	0.884750	-0.183943	0.831840
O25	O	0.120407	-1.196397	0.081857
O26	O	0.370407	-0.946397	0.331857
O27	O	0.620407	-0.696397	0.581857
O28	O	0.870407	-0.446397	0.831857
Zn29	Zn	0.127580	-1.065167	0.107821
Zn30	Zn	0.377580	-0.815167	0.357821
Zn31	Zn	0.627580	-0.565167	0.607821
Zn32	Zn	0.877580	-0.315167	0.857821
Zn33	Zn	0.127570	-1.065190	-0.107707
Zn34	Zn	0.377570	-0.815190	0.142293
Zn35	Zn	0.627570	-0.565190	0.392293
Zn36	Zn	0.877570	-0.315190	0.642293
O37	O	0.261820	-1.058211	0.081839
O38	O	0.511820	-0.808211	0.331839
O39	O	0.761820	-0.558211	0.581839
O40	O	1.011820	-0.308211	0.831839
C41	C	0.134096	-0.900363	0.000047
C42	C	0.384096	-0.650363	0.250047
C43	C	0.634096	-0.400363	0.500047
C44	C	0.884096	-0.150363	0.750047
C45	C	0.132149	-0.800278	0.000040
C46	C	0.382149	-0.550278	0.250040
C47	C	0.632149	-0.300278	0.500040
C48	C	0.882149	-0.050278	0.750040
C49	C	-0.041026	-1.071488	0.000067
C50	C	0.208974	-0.821488	0.250067
C51	C	0.458974	-0.571488	0.500067
C52	C	0.708974	-0.321488	0.750067
C53	C	-0.143407	-1.069545	0.000067
C54	C	0.106593	-0.819545	0.250067
C55	C	0.356593	-0.569545	0.500067
C56	C	0.606593	-0.319545	0.750067
N57	N	0.127586	-1.065159	0.254913
N58	N	0.377586	-0.815159	0.504913
N59	N	0.627586	-0.565159	0.754913
N60	N	0.877586	-0.315159	1.004913
C61	C	-0.518299	-1.062390	0.000041
C62	C	-0.268299	-0.812390	0.250041
C63	C	-0.018299	-0.562390	0.500041
C64	C	0.231701	-0.312390	0.750041
C65	C	-0.413992	-1.064377	0.000049
C66	C	-0.163992	-0.814377	0.250049
C67	C	0.086008	-0.564377	0.500049
C68	C	0.336008	-0.314377	0.750049
C69	C	-0.330856	-1.065967	0.000055
C70	C	-0.080856	-0.815967	0.250055
C71	C	0.169144	-0.565967	0.500055
C72	C	0.419144	-0.315967	0.750055
C73	C	-0.226543	-1.067955	0.000061
C74	C	0.023457	-0.817955	0.250061
C75	C	0.273457	-0.567955	0.500061
C76	C	0.523457	-0.317955	0.750061
C77	C	0.296175	-1.058869	0.000046
C78	C	0.546175	-0.808869	0.250046
C79	C	0.796175	-0.558869	0.500046
C80	C	1.046175	-0.308869	0.750046
C81	C	0.398556	-1.060812	0.000039
C82	C	0.648556	-0.810812	0.250039
C83	C	0.898556	-0.560812	0.500039
C84	C	1.148556	-0.310812	0.750039
C85	C	0.121053	-1.229994	0.000066
C86	C	0.371053	-0.979994	0.250066
C87	C	0.621053	-0.729994	0.500066
C88	C	0.871053	-0.479994	0.750066
C89	C	0.123001	-1.330079	0.000065
C90	C	0.373001	-1.080079	0.250065
C91	C	0.623001	-0.830079	0.500065
C92	C	0.873001	-0.580079	0.750065
C93	C	0.039914	-0.387709	0.000069
C94	C	0.289914	-0.137709	0.250069
C95	C	0.539914	0.112291	0.500069
C96	C	0.789914	0.362291	0.750069
C97	C	0.207916	-0.366493	0.000056
C98	C	0.457916	-0.116493	0.250056
C99	C	0.707916	0.133507	0.500056
C100	C	0.957916	0.383507	0.750056
C101	C	0.209747	-0.460527	0.000053
C102	C	0.459747	-0.210527	0.250053
C103	C	0.709747	0.039473	0.500053
C104	C	0.959747	0.289473	0.750053
C105	C	0.126660	-0.518157	0.000056
C106	C	0.376660	-0.268157	0.250056
C107	C	0.626660	-0.018157	0.500056
C108	C	0.876660	0.231843	0.750056
C109	C	0.041743	-0.481752	0.000062
C110	C	0.291743	-0.231752	0.250062
C111	C	0.541743	0.018248	0.500062
C112	C	0.791743	0.268248	0.750062
C113	C	0.294663	-0.496939	0.000036
C114	C	0.544663	-0.246939	0.250036
C115	C	0.794663	0.003061	0.500036
C116	C	1.044663	0.253061	0.750036
C117	C	0.296498	-0.590979	0.000032
C118	C	0.546498	-0.340979	0.250032
C119	C	0.796498	-0.090979	0.500032
C120	C	1.046498	0.159021	0.750032
C121	C	0.213410	-0.648610	0.000042
C122	C	0.463410	-0.398610	0.250042
C123	C	0.713410	-0.148610	0.500042
C124	C	0.963410	0.101390	0.750042
C125	C	0.128489	-0.612200	0.000050
C126	C	0.378489	-0.362200	0.250050
C127	C	0.628489	-0.112200	0.500050
C128	C	0.878489	0.137800	0.750050
C129	C	0.045403	-0.669830	0.000053
C130	C	0.295403	-0.419830	0.250053
C131	C	0.545403	-0.169830	0.500053
C132	C	0.795403	0.080170	0.750053
C133	C	-0.039520	-0.633422	0.000068
C134	C	0.210480	-0.383422	0.250068
C135	C	0.460480	-0.133422	0.500068
C136	C	0.710480	0.116578	0.750068
C137	C	-0.041345	-0.539383	0.000073
C138	C	0.208655	-0.289383	0.250073
C139	C	0.458655	-0.039383	0.500073
C140	C	0.708655	0.210617	0.750073
C141	C	0.215235	-0.742649	0.000037
C142	C	0.465235	-0.492649	0.250037
C143	C	0.715235	-0.242649	0.500037
C144	C	0.965235	0.007351	0.750037
C145	C	0.047231	-0.763873	0.000047
C146	C	0.297231	-0.513873	0.250047
C147	C	0.547231	-0.263873	0.500047
C148	C	0.797231	-0.013873	0.750047
N149	N	0.127556	-1.065206	-0.254798
N150	N	0.377556	-0.815206	-0.004798
N151	N	0.627556	-0.565206	0.245202
N152	N	0.877556	-0.315206	0.495202
C153	C	0.127588	-1.065163	0.343911
C154	C	0.377588	-0.815163	0.593911
C155	C	0.627588	-0.565163	0.843911
C156	C	0.877588	-0.315163	1.093911
C157	C	0.127582	-1.065172	0.455562
C158	C	0.377582	-0.815172	0.705562
C159	C	0.627582	-0.565172	0.955562
C160	C	0.877582	-0.315172	1.205562
C161	C	0.127572	-1.065184	0.544553
C162	C	0.377572	-0.815184	0.794553
C163	C	0.627572	-0.565184	1.044553
C164	C	0.877572	-0.315184	1.294553
C165	C	0.127566	-1.065194	0.656211
C166	C	0.377566	-0.815194	0.906211
C167	C	0.627566	-0.565194	1.156211
C168	C	0.877566	-0.315194	1.406211
H169	H	-0.020429	-0.810790	0.000053
H170	H	0.229571	-0.560790	0.250053
H171	H	0.479571	-0.310790	0.500053
H172	H	0.729571	-0.060790	0.750053
C173	C	-0.134750	-0.499337	0.000077
C174	C	0.115250	-0.249337	0.250077
C175	C	0.365250	0.000663	0.500077
C176	C	0.615250	0.250663	0.750077
H177	H	-0.183974	-0.547125	0.000086
H178	H	0.066026	-0.297125	0.250086
H179	H	0.316026	-0.047125	0.500086
H180	H	0.566026	0.202875	0.750086
H181	H	-0.138954	-0.463096	-0.056968
H182	H	0.111046	-0.213096	0.193032
H183	H	0.361046	0.036904	0.443032
H184	H	0.611046	0.286904	0.693032
H185	H	-0.138953	-0.463091	0.057129
H186	H	0.111047	-0.213091	0.307129
H187	H	0.361047	0.036909	0.557129
H188	H	0.611047	0.286909	0.807129
H189	H	-0.107168	-0.680356	0.000063
H190	H	0.142832	-0.430356	0.250063
H191	H	0.392832	-0.180356	0.500063
H192	H	0.642832	0.069644	0.750063
H193	H	-0.029228	-0.358060	0.000084
H194	H	0.220772	-0.108060	0.250084
H195	H	0.470772	0.141940	0.500084
H196	H	0.720772	0.391940	0.750084
H197	H	0.275561	-0.319566	0.000045
H198	H	0.525561	-0.069566	0.250045
H199	H	0.775561	0.180434	0.500045
H200	H	1.025561	0.430434	0.750045
C201	C	0.386049	-0.433549	0.000037
C202	C	0.636049	-0.183549	0.250037
C203	C	0.886049	0.066451	0.500037
C204	C	1.136049	0.316451	0.750037
H205	H	0.372795	-0.372329	0.000056
H206	H	0.622795	-0.122329	0.250056
H207	H	0.872795	0.127671	0.500056
H208	H	1.122795	0.377671	0.750056
H209	H	0.420864	-0.444593	-0.057011
H210	H	0.670864	-0.194593	0.192989
H211	H	0.920864	0.055407	0.442989
H212	H	1.170864	0.305407	0.692989
H213	H	0.420863	-0.444604	0.057086
H214	H	0.670863	-0.194604	0.307086
H215	H	0.920863	0.055396	0.557086
H216	H	1.170863	0.305396	0.807086
H217	H	0.365646	-0.620614	0.000020
H218	H	0.615646	-0.370614	0.250020
H219	H	0.865646	-0.120614	0.500020
H220	H	1.115646	0.129386	0.750020
H221	H	0.284378	-0.772288	0.000027
H222	H	0.534378	-0.522288	0.250027
H223	H	0.784378	-0.272288	0.500027
H224	H	1.034378	-0.022288	0.750027
