data_functionalizedCrystal
_audit_creation_method	'MofGen! by Chris Wilmer'
_symmetry_space_group_name_H-M	'P1'
_symmetry_Int_Tables_number	1
_symmetry_cell_setting	triclinic
loop_
_symmetry_equiv_pos_as_xyz
  x,y,z
_cell_length_a	17.077404
_cell_length_b	16.959454
_cell_length_c	17.077396
_cell_angle_alpha	89.975265
_cell_angle_beta	89.980499
_cell_angle_gamma	90.020300
loop_
_atom_site_label
_atom_site_type_symbol
_atom_site_fract_x
_atom_site_fract_y
_atom_site_fract_z
Zn1	Zn	1.200070	-0.314677	-0.443863
Zn2	Zn	1.700070	0.185323	0.056137
Zn3	Zn	1.199983	-0.446865	-0.312606
Zn4	Zn	1.699983	0.053135	0.187394
Zn5	Zn	1.068802	-0.314705	-0.312611
Zn6	Zn	1.568802	0.185295	0.187389
Zn7	Zn	1.068776	-0.446818	-0.443829
Zn8	Zn	1.568776	0.053182	0.056171
O9	O	1.134408	-0.380766	-0.378227
O10	O	1.634408	0.119234	0.121773
O11	O	1.309905	-0.332220	-0.426463
O12	O	1.809905	0.167780	0.073537
O13	O	1.182556	-0.429365	-0.202759
O14	O	1.682556	0.070635	0.297241
O15	O	1.086262	-0.204090	-0.330038
O16	O	1.586262	0.295910	0.169962
O17	O	1.309842	-0.429338	-0.330029
O18	O	1.809842	0.070662	0.169971
O19	O	1.182704	-0.204070	-0.426469
O20	O	1.682704	0.295930	0.073531
O21	O	1.086178	-0.332267	-0.202763
O22	O	1.586178	0.167733	0.297237
O23	O	0.958951	-0.332222	-0.330006
O24	O	1.458951	0.167778	0.169994
O25	O	1.086218	-0.429258	-0.553681
O26	O	1.586218	0.070742	-0.053681
O27	O	0.958933	-0.429285	-0.426411
O28	O	1.458933	0.070715	0.073589
O29	O	1.182679	-0.332174	-0.553706
O30	O	1.682679	0.167826	-0.053706
O31	O	1.182532	-0.557469	-0.329996
O32	O	1.682532	-0.057469	0.170004
O33	O	1.086134	-0.557435	-0.426406
O34	O	1.586134	-0.057435	0.073594
C35	C	0.930460	-0.380752	-0.378206
C36	C	1.430460	0.119248	0.121794
C37	C	0.843210	-0.380764	-0.378215
C38	C	1.343210	0.119236	0.121785
C39	C	0.802231	-0.431381	-0.428333
C40	C	1.302231	0.068619	0.071667
C41	C	0.720250	-0.431383	-0.428345
C42	C	1.220250	0.068617	0.071655
C43	C	0.679251	-0.380771	-0.378236
C44	C	1.179251	0.119229	0.121764
C45	C	0.720236	-0.330149	-0.328116
C46	C	1.220236	0.169851	0.171884
C47	C	0.802215	-0.330144	-0.328108
C48	C	1.302215	0.169856	0.171892
C49	C	0.549366	-0.330164	-0.328134
C50	C	1.049366	0.169836	0.171866
C51	C	0.467381	-0.330170	-0.328141
C52	C	0.967381	0.169830	0.171859
C53	C	0.467401	-0.431404	-0.428372
C54	C	0.967401	0.068596	0.071628
C55	C	0.549380	-0.431399	-0.428364
C56	C	1.049380	0.068601	0.071636
C57	C	0.590360	-0.380777	-0.378243
C58	C	1.090360	0.119223	0.121757
C59	C	1.134342	-0.586132	-0.378214
C60	C	1.634342	-0.086132	0.121786
C61	C	1.134386	-0.673989	-0.378235
C62	C	1.634386	-0.173989	0.121765
C63	C	1.084287	-1.045476	-0.428422
C64	C	1.584287	-0.545476	0.071578
C65	C	1.184748	-1.045452	-0.328112
C66	C	1.684748	-0.545452	0.171888
C67	C	1.184720	-0.962906	-0.328105
C68	C	1.684720	-0.462906	0.171895
C69	C	1.134474	-0.921642	-0.378256
C70	C	1.634474	-0.421642	0.121744
C71	C	1.084256	-0.962923	-0.428415
C72	C	1.584256	-0.462923	0.071585
C73	C	1.234932	-0.921619	-0.277942
C74	C	1.734932	-0.421619	0.222058
C75	C	1.234906	-0.839068	-0.277932
C76	C	1.734906	-0.339068	0.222068
C77	C	1.184664	-0.797802	-0.328088
C78	C	1.684664	-0.297802	0.171912
C79	C	1.134444	-0.839088	-0.378249
C80	C	1.634444	-0.339088	0.121751
C81	C	1.084198	-0.797823	-0.428400
C82	C	1.584198	-0.297823	0.071600
C83	C	1.033981	-0.839108	-0.478566
C84	C	1.533981	-0.339108	0.021434
C85	C	1.034013	-0.921657	-0.478571
C86	C	1.534013	-0.421657	0.021429
C87	C	1.184632	-0.715254	-0.328083
C88	C	1.684632	-0.215254	0.171917
C89	C	1.084167	-0.715270	-0.428393
C90	C	1.584167	-0.215270	0.071607
C91	C	1.339152	-0.380781	-0.378250
C92	C	1.839152	0.119219	0.121750
C93	C	1.426402	-0.380787	-0.378259
C94	C	1.926402	0.119213	0.121741
C95	C	1.134455	-0.380708	-0.582972
C96	C	1.634455	0.119292	-0.082972
C97	C	1.134476	-0.380683	-0.670222
C98	C	1.634476	0.119317	-0.170222
C99	C	1.134495	-0.174598	-0.378258
C100	C	1.634495	0.325402	0.121742
C101	C	1.134533	-0.086741	-0.378271
C102	C	1.634533	0.413259	0.121729
C103	C	1.184705	-0.330127	-0.711226
C104	C	1.684705	0.169873	-0.211226
C105	C	1.184714	-0.330101	-0.793206
C106	C	1.684714	0.169899	-0.293206
C107	C	1.134498	-0.380635	-0.834181
C108	C	1.634498	0.119365	-0.334181
C109	C	1.084263	-0.431193	-0.793171
C110	C	1.584263	0.068807	-0.293171
C111	C	1.084250	-0.431214	-0.711192
C112	C	1.584250	0.068786	-0.211192
C113	C	1.084295	-0.431145	-0.964041
C114	C	1.584295	0.068855	-0.464041
C115	C	1.084309	-0.431125	-1.046026
C116	C	1.584309	0.068875	-0.546026
C117	C	1.184759	-0.330032	-1.046056
C118	C	1.684759	0.169968	-0.546056
C119	C	1.184746	-0.330053	-0.964077
C120	C	1.684746	0.169947	-0.464077
C121	C	1.134512	-0.380613	-0.923072
C122	C	1.634512	0.119387	-0.423072
C123	C	1.134406	-0.380767	-0.174279
C124	C	1.634406	0.119233	0.325721
C125	C	1.134538	-0.380569	-0.087030
C126	C	1.634538	0.119431	0.412970
H127	H	0.434032	-0.472620	-0.469185
H128	H	0.934032	0.027380	0.030815
C129	C	1.029698	-0.670328	-0.482816
C130	C	1.529698	-0.170328	0.017184
C131	C	1.040428	-0.589199	-0.472087
C132	C	1.540428	-0.089199	0.027913
C133	C	0.990273	-0.547775	-0.522214
C134	C	1.490273	-0.047775	-0.022214
H135	H	0.976936	-0.683809	-0.471333
H136	H	1.476936	-0.183809	0.028667
H137	H	1.041172	-0.683773	-0.535586
H138	H	1.541172	-0.183773	-0.035586
H139	H	1.028949	-0.575759	-0.419328
H140	H	1.528949	-0.075759	0.080672
H141	H	1.093179	-0.575695	-0.483575
H142	H	1.593179	-0.075695	0.016425
H143	H	1.001746	-0.561220	-0.574985
H144	H	1.501746	-0.061220	-0.074985
H145	H	0.937514	-0.561262	-0.510727
H146	H	1.437514	-0.061262	-0.010727
H147	H	0.997551	-0.492724	-0.514947
H148	H	1.497551	0.007276	-0.014947
H149	H	0.993067	-0.805501	-0.519396
H150	H	1.493067	-0.305501	-0.019396
C151	C	1.289500	-0.966504	-0.223582
C152	C	1.789500	-0.466504	0.276418
C153	C	1.339823	-1.013868	-0.268023
C154	C	1.839823	-0.513868	0.231977
C155	C	1.390077	-1.055242	-0.217954
C156	C	1.890077	-0.555242	0.282046
H157	H	1.259518	-0.998784	-0.189383
H158	H	1.759518	-0.498784	0.310617
H159	H	1.319449	-0.930156	-0.193678
H160	H	1.819449	-0.430156	0.306322
H161	H	1.309878	-1.050212	-0.297914
H162	H	1.809878	-0.550212	0.202086
H163	H	1.369823	-0.981608	-0.302221
H164	H	1.869823	-0.481608	0.197779
H165	H	1.420025	-1.018894	-0.188050
H166	H	1.920025	-0.518894	0.311950
H167	H	1.360087	-1.087518	-0.183757
H168	H	1.860087	-0.587518	0.316243
H169	H	1.424231	-1.087378	-0.248101
H170	H	1.924231	-0.587378	0.251899
C171	C	1.239361	-1.090311	-0.273776
C172	C	1.739361	-0.590311	0.226224
C173	C	1.289677	-1.137652	-0.318250
C174	C	1.789677	-0.637652	0.181750
C175	C	1.339992	-1.178990	-0.268214
C176	C	1.839992	-0.678990	0.231786
H177	H	1.209423	-1.122603	-0.239549
H178	H	1.709423	-0.622603	0.260451
H179	H	1.269313	-1.053941	-0.243901
H180	H	1.769313	-0.553941	0.256099
H181	H	1.259729	-1.174018	-0.348112
H182	H	1.759729	-0.674018	0.151888
H183	H	1.319632	-1.105380	-0.352475
H184	H	1.819632	-0.605380	0.147525
H185	H	1.369944	-1.142620	-0.238338
H186	H	1.869944	-0.642620	0.261662
H187	H	1.310048	-1.211278	-0.233989
H188	H	1.810048	-0.711278	0.266011
H189	H	1.374142	-1.211110	-0.298382
H190	H	1.874142	-0.711110	0.201618
C191	C	1.029796	-1.090437	-0.482799
C192	C	1.529796	-0.590437	0.017201
C193	C	1.040561	-1.171562	-0.472065
C194	C	1.540561	-0.671562	0.027935
C195	C	0.990371	-1.213004	-0.522136
C196	C	1.490371	-0.713004	-0.022136
H197	H	1.041198	-1.076963	-0.535582
H198	H	1.541198	-0.576963	-0.035582
H199	H	0.977039	-1.076999	-0.471252
H200	H	1.477039	-0.576999	0.028748
H201	H	1.093306	-1.184995	-0.483618
H202	H	1.593306	-0.684995	0.016382
H203	H	1.029154	-1.185059	-0.419293
H204	H	1.529154	-0.685059	0.080707
H205	H	0.937614	-1.199567	-0.510588
H206	H	1.437614	-0.699567	-0.010588
H207	H	1.001777	-1.199525	-0.574915
H208	H	1.501777	-0.699525	-0.074915
H209	H	0.997663	-1.268052	-0.514854
H210	H	1.497663	-0.768052	-0.014854
H211	H	0.582760	-0.472616	-0.469164
H212	H	1.082760	0.027384	0.030836
H213	H	1.225514	-0.681643	-0.287235
H214	H	1.725514	-0.181643	0.212765
H215	H	1.275796	-0.805459	-0.237085
H216	H	1.775796	-0.305459	0.262915
C217	C	0.979590	-0.966440	-0.533158
C218	C	1.479590	-0.466440	-0.033158
C219	C	0.996642	-0.946331	-0.610842
C220	C	1.496642	-0.446331	-0.110842
C221	C	0.946531	-0.987582	-0.661147
C222	C	1.446531	-0.487582	-0.161147
H223	H	0.926822	-0.952991	-0.521725
H224	H	1.426822	-0.452991	-0.021725
H225	H	0.986812	-1.021520	-0.526028
H226	H	1.486812	-0.521520	-0.026028
H227	H	0.989414	-0.891263	-0.617969
H228	H	1.489414	-0.391263	-0.117969
H229	H	1.049401	-0.959782	-0.622300
H230	H	1.549401	-0.459782	-0.122300
H231	H	0.953752	-1.042661	-0.654017
H232	H	1.453752	-0.542661	-0.154017
H233	H	0.893765	-0.974129	-0.649707
H234	H	1.393765	-0.474129	-0.149707
H235	H	0.958098	-0.973948	-0.713861
H236	H	1.458098	-0.473948	-0.213861
H237	H	1.225599	-0.288979	-0.677870
H238	H	1.725599	0.211021	-0.177870
H239	H	1.043341	-0.472374	-0.677807
H240	H	1.543341	0.027626	-0.177807
H241	H	0.434002	-0.288948	-0.287347
H242	H	0.934002	0.211052	0.212653
H243	H	0.582729	-0.288936	-0.287327
H244	H	1.082729	0.211064	0.212673
H245	H	0.686848	-0.288936	-0.287319
H246	H	1.186848	0.211064	0.212681
H247	H	1.225617	-0.288936	-0.826589
H248	H	1.725617	0.211064	-0.326589
H249	H	0.686889	-0.472601	-0.469156
H250	H	1.186889	0.027399	0.030844
H251	H	0.835579	-0.288922	-0.287301
H252	H	1.335579	0.211078	0.212699
C253	C	1.239296	-0.275103	-0.919729
C254	C	1.739296	0.224897	-0.419729
C255	C	1.283277	-0.230806	-0.973183
C256	C	1.783277	0.269194	-0.473183
C257	C	1.333528	-0.180168	-0.932359
C258	C	1.833528	0.319832	-0.432359
H259	H	1.273548	-0.305265	-0.887747
H260	H	1.773548	0.194735	-0.387747
H261	H	1.209294	-0.240629	-0.887766
H262	H	1.709294	0.259371	-0.387766
H263	H	1.313277	-0.265276	-1.005132
H264	H	1.813277	0.234724	-0.505132
H265	H	1.249046	-0.200628	-1.005167
H266	H	1.749046	0.299372	-0.505167
H267	H	1.303525	-0.145694	-0.900397
H268	H	1.803525	0.354306	-0.400397
H269	H	1.367774	-0.210336	-0.900378
H270	H	1.867774	0.289664	-0.400378
H271	H	1.363369	-0.150101	-0.968621
H272	H	1.863369	0.349899	-0.468621
H273	H	1.225659	-0.288863	-1.079445
H274	H	1.725659	0.211137	-0.579445
H275	H	0.835607	-0.472598	-0.469136
H276	H	1.335607	0.027402	0.030864
H277	H	1.043416	-0.472272	-1.079385
H278	H	1.543416	0.027728	-0.579385
C279	C	1.029742	-0.486140	-0.919662
C280	C	1.529742	0.013860	-0.419662
C281	C	0.985790	-0.530415	-0.973090
C282	C	1.485790	-0.030415	-0.473090
C283	C	0.935547	-0.581100	-0.932236
C284	C	1.435547	-0.081100	-0.432236
H285	H	0.995472	-0.456014	-0.887669
H286	H	1.495472	0.043986	-0.387669
H287	H	1.059749	-0.520627	-0.887707
H288	H	1.559749	-0.020627	-0.387707
H289	H	0.955785	-0.495932	-1.005031
H290	H	1.455785	0.004068	-0.505031
H291	H	1.020039	-0.560557	-1.005085
H292	H	1.520039	-0.060557	-0.505085
H293	H	0.965554	-0.615587	-0.900282
H294	H	1.465554	-0.115587	-0.400282
H295	H	0.901282	-0.550967	-0.900244
H296	H	1.401282	-0.050967	-0.400244
H297	H	0.905725	-0.611152	-0.968481
H298	H	1.405725	-0.111152	-0.468481
H299	H	1.043373	-0.472335	-0.826539
H300	H	1.543373	0.027665	-0.326539
