data_functionalizedCrystal
_audit_creation_method	'MofGen! by Chris Wilmer'
_symmetry_space_group_name_H-M	'P1'
_symmetry_Int_Tables_number	1
_symmetry_cell_setting	triclinic
loop_
_symmetry_equiv_pos_as_xyz
  x,y,z
_cell_length_a	13.032831
_cell_length_b	16.959454
_cell_length_c	13.034296
_cell_angle_alpha	82.791768
_cell_angle_beta	74.814550
_cell_angle_gamma	82.825094
loop_
_atom_site_label
_atom_site_type_symbol
_atom_site_fract_x
_atom_site_fract_y
_atom_site_fract_z
Zn1	Zn	1.700179	-0.400710	-0.806474
Zn2	Zn	2.033513	-0.067377	-0.473140
Zn3	Zn	2.366846	0.265956	-0.139807
Zn4	Zn	1.677485	-0.547792	-0.628852
Zn5	Zn	2.010819	-0.214458	-0.295519
Zn6	Zn	2.344152	0.118875	0.037815
Zn7	Zn	1.499982	-0.400717	-0.606355
Zn8	Zn	1.833316	-0.067384	-0.273021
Zn9	Zn	2.166649	0.265949	0.060312
Zn10	Zn	1.522518	-0.517929	-0.783904
Zn11	Zn	1.855851	-0.184595	-0.450571
Zn12	Zn	2.189185	0.148738	-0.117237
O13	O	1.600041	-0.466787	-0.706396
O14	O	1.933374	-0.133454	-0.373063
O15	O	2.266708	0.199880	-0.039729
O16	O	1.845806	-0.432716	-0.801772
O17	O	2.179140	-0.099382	-0.468439
O18	O	2.512473	0.233951	-0.135106
O19	O	1.635010	-0.540783	-0.477227
O20	O	1.968344	-0.207449	-0.143894
O21	O	2.301677	0.125884	0.189439
O22	O	1.526605	-0.290109	-0.632931
O23	O	1.859938	0.043224	-0.299598
O24	O	2.193272	0.376558	0.033735
O25	O	1.829133	-0.540776	-0.671274
O26	O	2.162466	-0.207442	-0.337941
O27	O	2.495800	0.125891	-0.004608
O28	O	1.673689	-0.290104	-0.779958
O29	O	2.007022	0.043230	-0.446624
O30	O	2.340356	0.376563	-0.113291
O31	O	1.504600	-0.432728	-0.460699
O32	O	1.837933	-0.099395	-0.127365
O33	O	2.171266	0.233939	0.205968
O34	O	1.354334	-0.403771	-0.611046
O35	O	1.687667	-0.070438	-0.277713
O36	O	2.021001	0.262896	0.055620
O37	O	1.565014	-0.489879	-0.935538
O38	O	1.898347	-0.156545	-0.602205
O39	O	2.231681	0.176788	-0.268872
O40	O	1.370891	-0.489886	-0.741491
O41	O	1.704224	-0.156552	-0.408158
O42	O	2.037558	0.176781	-0.074825
O43	O	1.695541	-0.403759	-0.952120
O44	O	2.028874	-0.070425	-0.618787
O45	O	2.362208	0.262908	-0.285453
O46	O	1.656862	-0.654438	-0.649390
O47	O	1.990196	-0.321104	-0.316056
O48	O	2.323529	0.012229	0.017277
O49	O	1.543008	-0.632497	-0.763306
O50	O	1.876342	-0.299164	-0.429973
O51	O	2.209675	0.034169	-0.096639
C52	C	1.324073	-0.443589	-0.671379
C53	C	1.657406	-0.110256	-0.338046
C54	C	1.990739	0.223078	-0.004712
C55	C	1.206015	-0.433682	-0.656424
C56	C	1.539349	-0.100348	-0.323091
C57	C	1.872682	0.232985	0.010243
C58	C	1.161589	-0.471958	-0.714201
C59	C	1.494922	-0.138624	-0.380868
C60	C	1.828256	0.194709	-0.047535
C61	C	1.039571	-0.461719	-0.698746
C62	C	1.372904	-0.128386	-0.365412
C63	C	1.706237	0.204948	-0.032079
C64	C	1.599950	-0.672147	-0.706367
C65	C	1.933283	-0.338814	-0.373033
C66	C	2.266617	-0.005481	-0.039700
C67	C	1.600012	-0.760007	-0.706402
C68	C	1.933346	-0.426673	-0.373069
C69	C	2.266679	-0.093340	-0.039735
C70	C	1.540855	-1.120100	-0.765717
C71	C	1.874188	-0.786767	-0.432384
C72	C	2.207522	-0.453433	-0.099051
C73	C	1.659537	-1.142887	-0.647220
C74	C	1.992870	-0.809553	-0.313887
C75	C	2.326203	-0.476220	0.019446
C76	C	1.659498	-1.060338	-0.647206
C77	C	1.992832	-0.727005	-0.313873
C78	C	2.326165	-0.393672	0.019461
C79	C	1.600136	-1.007667	-0.706447
C80	C	1.933470	-0.674334	-0.373114
C81	C	2.266803	-0.341000	-0.039780
C82	C	1.540812	-1.037544	-0.765702
C83	C	1.874146	-0.704210	-0.432369
C84	C	2.207479	-0.370877	-0.099036
C85	C	1.718813	-1.030455	-0.587943
C86	C	2.052146	-0.697122	-0.254610
C87	C	2.385479	-0.363789	0.078724
C88	C	1.718776	-0.947903	-0.587925
C89	C	2.052109	-0.614569	-0.254592
C90	C	2.385442	-0.281236	0.078741
C91	C	1.659419	-0.895229	-0.647173
C92	C	1.992752	-0.561896	-0.313840
C93	C	2.326085	-0.228563	0.019494
C94	C	1.600094	-0.925111	-0.706432
C95	C	1.933427	-0.591778	-0.373098
C96	C	2.266760	-0.258444	-0.039765
C97	C	1.540731	-0.872439	-0.765673
C98	C	1.874065	-0.539106	-0.432339
C99	C	2.207398	-0.205773	-0.099006
C100	C	1.481411	-0.902319	-0.824938
C101	C	1.814745	-0.568986	-0.491605
C102	C	2.148078	-0.235653	-0.158271
C103	C	1.481456	-0.984871	-0.824950
C104	C	1.814789	-0.651537	-0.491617
C105	C	2.148122	-0.318204	-0.158283
C106	C	1.659375	-0.812678	-0.647161
C107	C	1.992708	-0.479345	-0.313828
C108	C	2.326041	-0.146011	0.019506
C109	C	1.540689	-0.789883	-0.765657
C110	C	1.874022	-0.456550	-0.432324
C111	C	2.207355	-0.123217	-0.098991
C112	C	1.877087	-0.490076	-0.741550
C113	C	2.210421	-0.156743	-0.408217
C114	C	2.543754	0.176591	-0.074884
C115	C	1.995148	-0.500000	-0.756531
C116	C	2.328481	-0.166667	-0.423198
C117	C	2.661815	0.166666	-0.089864
C118	C	1.635323	-0.443487	-0.983448
C119	C	1.968656	-0.110153	-0.650114
C120	C	2.301989	0.223180	-0.316781
C121	C	1.650358	-0.433557	-1.101510
C122	C	1.983691	-0.100224	-0.768177
C123	C	2.317024	0.233109	-0.434844
C124	C	1.600165	-0.260625	-0.706453
C125	C	1.933498	0.072708	-0.373119
C126	C	2.266831	0.406041	-0.039786
C127	C	1.600217	-0.172771	-0.706477
C128	C	1.933551	0.160562	-0.373143
C129	C	2.266884	0.493895	-0.039810
C130	C	1.592478	-0.471741	-1.145942
C131	C	1.925812	-0.138408	-0.812609
C132	C	2.259145	0.194926	-0.479276
C133	C	1.608016	-0.461480	-1.267966
C134	C	1.941350	-0.128146	-0.934633
C135	C	2.274683	0.205187	-0.601299
C136	C	1.564958	-0.489945	-0.430430
C137	C	1.898291	-0.156611	-0.097097
C138	C	2.231625	0.176722	0.236236
C139	C	1.550129	-0.499669	-0.312394
C140	C	1.883462	-0.166335	0.020939
C141	C	2.216796	0.166998	0.354273
H142	H	1.213888	-0.512304	-0.775112
H143	H	1.547221	-0.178971	-0.441779
H144	H	1.880555	0.154363	-0.108446
H145	H	1.531427	-0.512032	-1.093645
H146	H	1.864760	-0.178698	-0.760311
H147	H	2.198094	0.154635	-0.426978
H148	H	1.047443	-0.540348	-0.817449
H149	H	1.380776	-0.207014	-0.484116
H150	H	1.714109	0.126319	-0.150783
F151	F	1.730169	-0.380902	-1.169863
F152	F	2.063502	-0.047569	-0.836530
F153	F	2.396836	0.285764	-0.503197
F154	F	1.137663	-0.380936	-0.576817
F155	F	1.470996	-0.047603	-0.243483
F156	F	1.804330	0.285730	0.089850
H157	H	1.433159	-1.009207	-0.873199
H158	H	1.766492	-0.675873	-0.539866
H159	H	2.099826	-0.342540	-0.206533
H160	H	1.492353	-0.747002	-0.813903
H161	H	1.825686	-0.413668	-0.480570
H162	H	2.159020	-0.080335	-0.147237
F163	F	1.418231	-0.846253	-0.887979
F164	F	1.751564	-0.512920	-0.554646
F165	F	2.084897	-0.179587	-0.221313
H166	H	1.489073	-0.539962	-1.260101
H167	H	1.822406	-0.206629	-0.926768
H168	H	2.155739	0.126705	-0.593435
H169	H	0.987276	-0.421363	-0.637838
H170	H	1.320609	-0.088030	-0.304505
H171	H	1.653943	0.245303	0.028828
F172	F	1.781990	-1.086515	-0.524904
F173	F	2.115323	-0.753181	-0.191571
F174	F	2.448657	-0.419848	0.141763
F175	F	1.687832	-0.408822	-1.336316
F176	F	2.021165	-0.075488	-1.002982
F177	F	2.354499	0.257845	-0.669649
H178	H	1.492562	-1.144432	-0.813973
H179	H	1.825895	-0.811099	-0.480640
H180	H	2.159228	-0.477765	-0.147307
H181	H	1.707860	-1.185776	-0.598982
H182	H	2.041193	-0.852443	-0.265649
H183	H	2.374526	-0.519109	0.067685
H184	H	1.767078	-0.923580	-0.539670
H185	H	2.100411	-0.590247	-0.206336
H186	H	2.433745	-0.256913	0.126997
H187	H	1.707666	-0.788353	-0.598902
H188	H	2.041000	-0.455020	-0.265569
H189	H	2.374333	-0.121687	0.067764
