data_functionalizedCrystal
_audit_creation_method	'MofGen! by Chris Wilmer'
_symmetry_space_group_name_H-M	'P1'
_symmetry_Int_Tables_number	1
_symmetry_cell_setting	triclinic
loop_
_symmetry_equiv_pos_as_xyz
  x,y,z
_cell_length_a	16.120444
_cell_length_b	16.120490
_cell_length_c	16.120339
_cell_angle_alpha	90.179912
_cell_angle_beta	89.786690
_cell_angle_gamma	89.834826
loop_
_atom_site_label
_atom_site_type_symbol
_atom_site_fract_x
_atom_site_fract_y
_atom_site_fract_z
Zn1	Zn	-0.365984	-1.228134	-0.552133
Zn2	Zn	-0.512146	-1.227273	-0.420076
Zn3	Zn	-0.366798	-1.096039	-0.406082
Zn4	Zn	-0.497970	-1.082020	-0.551379
O5	O	-0.435725	-1.158367	-0.482417
O6	O	-0.390965	-1.344091	-0.540788
O7	O	-0.499138	-1.215372	-0.302145
O8	O	-0.250625	-1.119790	-0.419915
O9	O	-0.498349	-1.343459	-0.443765
O10	O	-0.250027	-1.216839	-0.527218
O11	O	-0.392352	-1.118955	-0.291864
O12	O	-0.378606	-0.978109	-0.419184
O13	O	-0.474189	-1.095895	-0.667553
O14	O	-0.474978	-0.967808	-0.525933
O15	O	-0.377219	-1.203245	-0.668107
O16	O	-0.626331	-1.201777	-0.443034
O17	O	-0.615916	-1.095060	-0.539502
C18	C	-0.651218	-1.146826	-0.492724
C19	C	-0.743409	-1.141963	-0.497165
C20	C	-0.425343	-0.942862	-0.470958
C21	C	-0.420920	-0.850667	-0.466077
C22	C	-0.424032	-1.148102	-0.698768
C23	C	-0.419049	-1.143728	-0.790964
C24	C	-0.958407	-1.183787	-0.459569
C25	C	-0.912199	-1.133100	-0.505283
C26	C	-0.818275	-1.138033	-0.500765
C27	C	-1.052338	-1.178855	-0.464086
C28	C	-0.219390	-1.169974	-0.472090
C29	C	-0.127201	-1.174921	-0.467689
C30	C	-0.446148	-1.374712	-0.493922
C31	C	-0.450589	-1.466906	-0.498824
C32	C	-0.458658	-0.635709	-0.507740
C33	C	-0.412854	-0.681869	-0.457164
C34	C	-0.417343	-0.775796	-0.462124
C35	C	-0.454170	-0.541773	-0.502780
C36	C	-0.447314	-1.168642	-0.266908
C37	C	-0.452071	-1.173190	-0.174710
C38	C	-0.410370	-1.135421	0.040228
C39	C	-0.460748	-1.181493	-0.005907
C40	C	-0.455919	-1.176872	-0.099838
C41	C	-0.415198	-1.140042	0.134167
H42	H	-0.927431	-1.230882	-0.417041
O43	O	-0.516512	-1.232615	0.031256
C44	C	-0.572177	-1.283941	0.160124
C45	C	-0.508998	-1.226005	0.118139
H46	H	-0.566111	-1.278630	0.230375
H47	H	-0.637655	-1.265450	0.140955
H48	H	-0.559496	-1.350688	0.140113
H49	H	-0.521603	-1.159241	0.138128
H50	H	-0.443541	-1.244567	0.137307
H51	H	-0.363617	-1.092510	0.009185
H52	H	-0.943177	-1.086001	-0.547813
H53	H	-0.501242	-0.666731	-0.554761
H54	H	-0.370268	-0.650845	-0.410138
