data_functionalizedCrystal
_audit_creation_method	'MofGen! by Chris Wilmer'
_symmetry_space_group_name_H-M	'P1'
_symmetry_Int_Tables_number	1
_symmetry_cell_setting	triclinic
loop_
_symmetry_equiv_pos_as_xyz
  x,y,z
_cell_length_a	12.759401
_cell_length_b	13.032721
_cell_length_c	13.034356
_cell_angle_alpha	90.866507
_cell_angle_beta	82.800107
_cell_angle_gamma	97.204304
loop_
_atom_site_label
_atom_site_type_symbol
_atom_site_fract_x
_atom_site_fract_y
_atom_site_fract_z
Zn1	Zn	1.644290	-0.335526	-0.633410
Zn2	Zn	1.600233	-0.529376	-0.483271
Zn3	Zn	1.443830	-0.357418	-0.461463
Zn4	Zn	1.449392	-0.507461	-0.655196
O5	O	1.534436	-0.432445	-0.558335
O6	O	1.785467	-0.361250	-0.613503
O7	O	1.558720	-0.524899	-0.336466
O8	O	1.486531	-0.210594	-0.466028
O9	O	1.753098	-0.503671	-0.503196
O10	O	1.633809	-0.194510	-0.592357
O11	O	1.443811	-0.398562	-0.320444
O12	O	1.297547	-0.377312	-0.487153
O13	O	1.496011	-0.466320	-0.796217
O14	O	1.301633	-0.487548	-0.629487
O15	O	1.639202	-0.340000	-0.780211
O16	O	1.564113	-0.670389	-0.524321
O17	O	1.453291	-0.654288	-0.650634
C18	C	1.261469	-0.432428	-0.558318
C19	C	1.144693	-0.432442	-0.558339
C20	C	1.091959	-0.489961	-0.632357
C21	C	0.982235	-0.489973	-0.632370
C22	C	0.977988	-0.374945	-0.484337
C23	C	1.087711	-0.374928	-0.484330
C24	C	1.094409	-0.556375	-0.717820
C25	C	0.984685	-0.556387	-0.717833
C26	C	1.504557	-0.699652	-0.592230
C27	C	1.491875	-0.813960	-0.606765
C28	C	1.541117	-0.872848	-0.550795
C29	C	1.528011	-0.990992	-0.565816
C30	C	1.808469	-0.432463	-0.558352
C31	C	1.925246	-0.432471	-0.558359
C32	C	1.573141	-0.398273	-0.826573
C33	C	1.589635	-0.383711	-0.940879
C34	C	1.564464	-0.164192	-0.524329
C35	C	1.577260	-0.049878	-0.509838
C36	C	1.543184	-0.424675	-1.117904
C37	C	1.526134	-0.439726	-0.999762
C38	C	1.495950	-0.466410	-0.291131
C39	C	1.479692	-0.480682	-0.176788
H40	H	0.931581	-0.328118	-0.424082
F41	F	1.151469	-0.515385	-0.818453
F42	F	1.122458	-0.659993	-0.692978
H43	H	1.440019	-0.851009	-0.665808
F44	F	1.143835	-0.313691	-0.405564
H45	H	1.459152	-0.498826	-0.962715
H46	H	1.476152	-1.028036	-0.624863
F47	F	0.958637	-0.506657	-0.812084
H48	H	1.412715	-0.539778	-1.139737
H49	H	0.942913	-0.638745	-0.706471
H50	H	1.592983	-0.835802	-0.491760
H51	H	1.629129	-1.012835	-0.450799
H52	H	1.610169	-0.365587	-1.154956
F53	F	1.677196	-0.306472	-0.989296
