data_functionalizedCrystal
_audit_creation_method	'MofGen! by Chris Wilmer'
_symmetry_space_group_name_H-M	'P1'
_symmetry_Int_Tables_number	1
_symmetry_cell_setting	triclinic
loop_
_symmetry_equiv_pos_as_xyz
  x,y,z
_cell_length_a	10.654550
_cell_length_b	10.654549
_cell_length_c	9.730223
_cell_angle_alpha	89.996580
_cell_angle_beta	89.999957
_cell_angle_gamma	84.484854
loop_
_atom_site_label
_atom_site_type_symbol
_atom_site_fract_x
_atom_site_fract_y
_atom_site_fract_z
O1	O	1.667839	0.176399	-0.114184
O2	O	1.302360	0.193205	-0.114209
O3	O	1.493503	0.002062	-0.114190
O4	O	1.476696	0.367541	-0.114203
O5	O	1.493490	0.002057	0.114390
O6	O	1.302348	0.193199	0.114371
O7	O	1.667826	0.176393	0.114396
Zn8	Zn	1.485085	0.184796	0.150675
Zn9	Zn	1.485102	0.184803	-0.150489
O10	O	1.476684	0.367536	0.114377
C11	C	1.255556	0.191968	0.000078
C12	C	1.116113	0.188276	0.000068
C13	C	1.036627	0.300818	0.000068
C14	C	0.905606	0.297341	0.000092
C15	C	0.933570	0.068772	0.000111
C16	C	1.064588	0.072250	0.000096
C17	C	1.714631	0.177630	0.000106
C18	C	1.854074	0.181322	0.000106
C19	C	1.492263	-0.044738	0.000098
C20	C	1.488571	-0.184181	0.000094
C21	C	1.597634	-0.394696	0.000092
C22	C	1.601113	-0.263676	0.000103
C23	C	1.372543	-0.235714	0.000087
C24	C	1.369066	-0.366732	0.000086
N25	N	1.485083	0.184790	0.356212
C26	C	1.477924	0.414336	0.000086
C27	C	1.481616	0.553780	0.000081
N28	N	1.485113	0.184798	-0.356025
C29	C	1.569750	0.100188	0.428146
C30	C	1.569763	0.100189	0.572029
C31	C	1.400437	0.269404	0.572031
C32	C	1.400420	0.269396	0.428150
H33	H	0.891602	-0.025693	0.000142
H34	H	1.695586	-0.221732	0.000114
H35	H	1.280910	-0.170979	0.000088
Br36	Br	1.750379	-0.502570	0.000088
Br37	Br	1.172472	-0.080497	0.000114
H38	H	1.274584	-0.408682	0.000084
H39	H	1.638687	0.031295	0.369577
Br40	Br	1.684666	-0.014638	0.669652
H41	H	1.331508	0.338290	0.630618
Br42	Br	1.285497	0.384211	0.330514
H43	H	0.840893	0.388984	0.000095
Br44	Br	1.106550	0.458281	0.000035
