data_functionalizedCrystal
_audit_creation_method	'MofGen! by Chris Wilmer'
_symmetry_space_group_name_H-M	'P1'
_symmetry_Int_Tables_number	1
_symmetry_cell_setting	triclinic
loop_
_symmetry_equiv_pos_as_xyz
  x,y,z
_cell_length_a	12.811457
_cell_length_b	17.019294
_cell_length_c	11.892095
_cell_angle_alpha	90.016651
_cell_angle_beta	91.498327
_cell_angle_gamma	84.088711
loop_
_atom_site_label
_atom_site_type_symbol
_atom_site_fract_x
_atom_site_fract_y
_atom_site_fract_z
O1	O	1.389788	0.108268	0.037936
O2	O	1.889788	0.608268	0.537936
O3	O	1.086481	0.118111	0.005881
O4	O	1.586481	0.618111	0.505881
O5	O	1.245809	-0.000980	0.033814
O6	O	1.745809	0.499020	0.533814
O7	O	1.230460	0.227358	0.010003
O8	O	1.730460	0.727358	0.510003
O9	O	1.232524	0.008934	0.219494
O10	O	1.732524	0.508934	0.719494
O11	O	1.073197	0.128025	0.191561
O12	O	1.573197	0.628025	0.691561
O13	O	1.376504	0.118182	0.223616
O14	O	1.876504	0.618182	0.723616
Zn15	Zn	1.222741	0.124677	0.237069
Zn16	Zn	1.722741	0.624677	0.737069
Zn17	Zn	1.240244	0.111615	-0.007572
Zn18	Zn	1.740244	0.611615	0.492428
O19	O	1.217176	0.237272	0.195683
O20	O	1.717176	0.737272	0.695683
C21	C	1.041015	0.122212	0.094824
C22	C	1.541015	0.622212	0.594824
C23	C	0.925331	0.119654	0.083213
C24	C	1.425331	0.619654	0.583213
C25	C	0.693465	0.125642	0.263847
C26	C	1.193465	0.625642	0.763847
C27	C	0.584770	0.123238	0.252943
C28	C	1.084770	0.623238	0.752943
C29	C	0.599243	0.112438	0.050503
C30	C	1.099243	0.612438	0.550503
C31	C	0.707939	0.114841	0.061407
C32	C	1.207939	0.614841	0.561407
C33	C	0.755045	0.121445	0.168082
C34	C	1.255045	0.621445	0.668082
C35	C	0.863742	0.123854	0.178985
C36	C	1.363742	0.623854	0.678985
C37	C	0.878214	0.113048	-0.023454
C38	C	1.378214	0.613048	0.476546
C39	C	0.769519	0.110644	-0.034358
C40	C	1.269519	0.610644	0.465642
C41	C	1.238323	-0.025267	0.129413
C42	C	1.738323	0.474733	0.629413
C43	C	1.235796	-0.112405	0.137633
C44	C	1.735796	0.387595	0.637633
C45	C	1.241852	-0.158742	0.040282
C46	C	1.741852	0.341258	0.540282
C47	C	1.239471	-0.240616	0.048008
C48	C	1.739471	0.259384	0.548008
C49	C	1.231040	-0.276152	0.153088
C50	C	1.731040	0.223848	0.653088
C51	C	1.224980	-0.229809	0.250446
C52	C	1.724980	0.270191	0.750446
C53	C	1.227354	-0.147935	0.242718
C54	C	1.727354	0.352065	0.742718
C55	C	1.223503	-0.523087	0.181484
C56	C	1.723503	-0.023087	0.681484
C57	C	1.221133	-0.604967	0.189206
C58	C	1.721133	-0.104967	0.689206
C59	C	1.235622	-0.615768	-0.013234
C60	C	1.735622	-0.115768	0.486766
C61	C	1.238001	-0.533893	-0.020952
C62	C	1.738001	-0.033893	0.479048
C63	C	1.231936	-0.487556	0.076406
C64	C	1.731936	0.012444	0.576406
C65	C	1.228609	-0.359841	0.160988
C66	C	1.728609	0.140159	0.660988
C67	C	1.234359	-0.403868	0.068504
C68	C	1.734359	0.096132	0.568504
C69	C	1.421970	0.114080	0.134670
C70	C	1.921970	0.614080	0.634670
C71	C	1.537654	0.116638	0.146274
C72	C	2.037654	0.616638	0.646274
C73	C	1.224662	0.261559	0.100081
C74	C	1.724662	0.761559	0.600081
C75	C	1.227190	0.348696	0.091854
C76	C	1.727190	0.848696	0.591854
N77	N	1.210803	0.133591	0.404031
N78	N	1.710803	0.633591	0.904031
N79	N	1.252190	0.102695	-0.174533
N80	N	1.752190	0.602695	0.325467
C81	C	1.335257	0.040621	0.662493
C82	C	1.835257	0.540621	1.162493
C83	C	1.326920	0.046857	0.779372
C84	C	1.826920	0.546857	1.279372
C85	C	1.185789	0.152297	0.754673
C86	C	1.685789	0.652297	1.254673
C87	C	1.194125	0.146061	0.637793
C88	C	1.694125	0.646061	1.137793
C89	C	1.268863	0.090221	0.591708
C90	C	1.768863	0.590221	1.091708
C91	C	1.277204	0.083989	0.474826
C92	C	1.777204	0.583989	0.974826
C93	C	1.136068	0.189424	0.450128
C94	C	1.636068	0.689424	0.950128
C95	C	1.127731	0.195661	0.567008
C96	C	1.627731	0.695661	1.067008
H97	H	0.534634	0.126660	0.330924
H98	H	1.034634	0.626660	0.830924
H99	H	1.248723	-0.129815	-0.045285
H100	H	1.748723	0.370185	0.454715
H101	H	1.396119	-0.004841	0.624970
H102	H	1.896119	0.495159	1.124970
H103	H	0.560872	0.107048	-0.036346
H104	H	1.060872	0.607048	0.463654
H105	H	0.731150	0.105264	-0.121210
H106	H	1.231150	0.605264	0.378790
H107	H	1.066878	0.241123	0.604544
H108	H	1.566878	0.741123	1.104544
H109	H	1.221749	-0.388785	0.246545
H110	H	1.721749	0.111215	0.746545
H111	H	1.214262	-0.633897	0.274778
H112	H	1.714262	-0.133897	0.774778
H113	H	1.240558	-0.653504	-0.092497
H114	H	1.740558	-0.153504	0.407503
H115	H	1.244407	-0.278341	-0.031266
H116	H	1.744407	0.221659	0.468734
H117	H	1.380984	0.006467	0.837004
H118	H	1.880984	0.506467	1.337004
H119	H	1.082008	0.229815	0.392481
H120	H	1.582008	0.729815	0.892481
H121	H	0.902094	0.129235	0.265845
H122	H	1.402094	0.629235	0.765845
H123	H	1.218110	-0.258748	0.336003
H124	H	1.718110	0.241252	0.836003
H125	H	1.124932	0.197755	0.792211
H126	H	1.624932	0.697755	1.292211
H127	H	1.338062	0.038524	0.437305
H128	H	1.838062	0.538524	0.937305
H129	H	0.928364	0.109635	-0.101433
H130	H	1.428364	0.609635	0.398567
H131	H	0.731818	0.131029	0.350705
H132	H	1.231818	0.631029	0.850705
H133	H	1.218585	-0.485371	0.260763
H134	H	1.718585	0.014629	0.760763
H135	H	1.244868	-0.504966	-0.106518
H136	H	1.744868	-0.004966	0.393482
H137	H	1.222408	-0.110207	0.321990
H138	H	1.722408	0.389793	0.821990
H139	H	1.241216	-0.374930	-0.017052
H140	H	1.741216	0.125070	0.482948
