data_functionalizedCrystal
_audit_creation_method	'MofGen! by Chris Wilmer'
_symmetry_space_group_name_H-M	'P1'
_symmetry_Int_Tables_number	1
_symmetry_cell_setting	triclinic
loop_
_symmetry_equiv_pos_as_xyz
  x,y,z
_cell_length_a	12.759401
_cell_length_b	25.639239
_cell_length_c	12.759393
_cell_angle_alpha	89.962948
_cell_angle_beta	89.981504
_cell_angle_gamma	90.038847
loop_
_atom_site_label
_atom_site_type_symbol
_atom_site_fract_x
_atom_site_fract_y
_atom_site_fract_z
Zn1	Zn	1.606080	-0.208118	-0.593941
Zn2	Zn	1.605901	-0.295564	-0.418245
Zn3	Zn	1.430382	-0.208145	-0.418281
Zn4	Zn	1.430297	-0.295524	-0.593886
O5	O	1.518165	-0.251838	-0.506088
O6	O	1.753078	-0.219723	-0.570643
O7	O	1.582579	-0.283996	-0.271228
O8	O	1.453799	-0.134976	-0.441621
O9	O	1.752946	-0.283970	-0.441559
O10	O	1.582884	-0.134956	-0.570678
O11	O	1.453626	-0.219770	-0.271255
O12	O	1.283350	-0.219731	-0.441567
O13	O	1.453655	-0.283901	-0.740914
O14	O	1.283288	-0.283928	-0.570584
O15	O	1.582802	-0.219684	-0.740955
O16	O	1.582496	-0.368724	-0.441505
O17	O	1.453481	-0.368695	-0.570549
C18	C	1.245198	-0.251828	-0.506074
C19	C	1.128421	-0.251837	-0.506093
C20	C	1.073554	-0.285318	-0.573160
C21	C	0.963830	-0.285324	-0.573172
C22	C	0.963850	-0.218368	-0.439039
C23	C	1.073572	-0.218359	-0.439033
C24	C	1.073542	-0.323976	-0.650598
C25	C	0.963818	-0.323983	-0.650609
C26	C	1.517989	-0.387680	-0.506040
C27	C	1.518009	-0.445795	-0.506055
C28	C	1.585519	-0.806160	-0.439010
C29	C	1.585560	-0.860765	-0.439024
O30	O	1.642775	-0.889004	-0.381967
N31	N	1.518350	-0.888077	-0.506158
C32	C	1.451103	-0.860782	-0.573289
O33	O	1.393940	-0.889027	-0.630394
C34	C	1.451068	-0.806179	-0.573280
C35	C	1.518275	-0.778869	-0.506134
C36	C	1.652721	-0.778851	-0.371870
C37	C	1.652678	-0.724250	-0.371855
C38	C	1.585434	-0.696959	-0.438980
C39	C	1.518232	-0.724269	-0.506119
C40	C	1.383827	-0.778885	-0.640416
C41	C	1.383799	-0.724278	-0.640401
C42	C	1.451005	-0.696968	-0.573256
C43	C	1.450946	-0.642377	-0.573228
N44	N	1.518155	-0.615065	-0.506094
C45	C	1.585399	-0.642356	-0.438970
C46	C	1.451182	-0.975453	-0.573306
C47	C	1.451210	-1.030055	-0.573311
C48	C	1.585669	-1.030034	-0.439046
C49	C	1.585634	-0.975430	-0.439037
C50	C	1.518391	-0.948140	-0.506172
C51	C	1.585305	-0.527691	-0.438943
C52	C	1.585253	-0.473086	-0.438930
C53	C	1.450799	-0.473111	-0.573198
C54	C	1.450846	-0.527712	-0.573207
C55	C	1.518108	-0.555000	-0.506076
O56	O	1.393762	-0.614103	-0.630258
O57	O	1.642562	-0.614104	-0.381885
C58	C	1.792198	-0.251848	-0.506103
C59	C	1.908975	-0.251852	-0.506109
C60	C	1.518239	-0.251785	-0.780122
C61	C	1.518270	-0.251763	-0.896898
C62	C	1.518371	-0.115465	-0.506159
C63	C	1.518459	-0.057351	-0.506190
C64	C	1.585526	-0.218322	-0.951783
C65	C	1.585551	-0.218303	-1.061507
C66	C	1.451061	-0.285170	-1.061452
C67	C	1.451032	-0.285186	-0.951730
C68	C	1.663176	-0.179718	-0.951816
C69	C	1.663201	-0.179699	-1.061540
C70	C	1.518152	-0.251853	-0.233121
C71	C	1.518325	-0.251728	-0.116345
H72	H	0.929832	-0.309529	-0.727964
F73	F	1.379434	-0.320771	-0.893321
F74	F	1.764160	-0.198688	-0.907319
F75	F	1.656891	-0.556726	-0.367494
H76	H	1.634120	-0.141226	-1.095595
F77	F	1.634768	-0.126794	-0.912928
F78	F	1.379668	-1.059114	-0.644764
F79	F	0.905466	-0.182739	-0.367675
H80	H	1.744563	-0.190544	-1.091316
H81	H	1.396316	-0.312382	-1.106109
H82	H	1.707485	-0.801065	-0.317210
H83	H	1.640360	-0.953198	-0.384362
H84	H	1.118241	-0.191092	-0.384427
H85	H	1.707407	-0.702018	-0.317183
F86	F	1.112521	-0.309863	-0.757003
H87	H	1.107524	-0.362421	-0.621306
F88	F	0.924823	-0.376893	-0.621905
H89	H	1.639981	-0.450852	-0.384249
F90	F	1.657235	-1.059089	-0.367605
H91	H	1.329095	-0.801111	-0.695088
H92	H	1.396416	-0.953236	-0.627972
F93	F	1.312230	-0.695237	-0.711860
H94	H	1.396125	-0.549949	-0.627886
H95	H	1.396046	-0.450883	-0.627847
