data_functionalizedCrystal
_audit_creation_method	'MofGen! by Chris Wilmer'
_symmetry_space_group_name_H-M	'P1'
_symmetry_Int_Tables_number	1
_symmetry_cell_setting	triclinic
loop_
_symmetry_equiv_pos_as_xyz
  x,y,z
_cell_length_a	12.759401
_cell_length_b	25.639239
_cell_length_c	12.759393
_cell_angle_alpha	89.962948
_cell_angle_beta	89.981504
_cell_angle_gamma	90.038847
loop_
_atom_site_label
_atom_site_type_symbol
_atom_site_fract_x
_atom_site_fract_y
_atom_site_fract_z
Zn1	Zn	1.606080	-0.208118	-0.593941
Zn2	Zn	2.106080	0.291882	-0.093941
Zn3	Zn	1.605901	-0.295564	-0.418245
Zn4	Zn	2.105901	0.204436	0.081755
Zn5	Zn	1.430382	-0.208145	-0.418281
Zn6	Zn	1.930382	0.291855	0.081719
Zn7	Zn	1.430297	-0.295524	-0.593886
Zn8	Zn	1.930297	0.204476	-0.093886
O9	O	1.518165	-0.251838	-0.506088
O10	O	2.018165	0.248162	-0.006088
O11	O	1.753078	-0.219723	-0.570643
O12	O	2.253078	0.280277	-0.070643
O13	O	1.582579	-0.283996	-0.271228
O14	O	2.082579	0.216004	0.228772
O15	O	1.453799	-0.134976	-0.441621
O16	O	1.953799	0.365024	0.058379
O17	O	1.752946	-0.283970	-0.441559
O18	O	2.252946	0.216030	0.058441
O19	O	1.582884	-0.134956	-0.570678
O20	O	2.082884	0.365044	-0.070678
O21	O	1.453626	-0.219770	-0.271255
O22	O	1.953626	0.280230	0.228745
O23	O	1.283350	-0.219731	-0.441567
O24	O	1.783350	0.280269	0.058433
O25	O	1.453655	-0.283901	-0.740914
O26	O	1.953655	0.216099	-0.240914
O27	O	1.283288	-0.283928	-0.570584
O28	O	1.783288	0.216072	-0.070584
O29	O	1.582802	-0.219684	-0.740955
O30	O	2.082802	0.280316	-0.240955
O31	O	1.582496	-0.368724	-0.441505
O32	O	2.082496	0.131276	0.058495
O33	O	1.453481	-0.368695	-0.570549
O34	O	1.953481	0.131305	-0.070549
C35	C	1.245198	-0.251828	-0.506074
C36	C	1.745198	0.248172	-0.006074
C37	C	1.128421	-0.251837	-0.506093
C38	C	1.628421	0.248163	-0.006093
C39	C	1.517989	-0.387680	-0.506040
C40	C	2.017989	0.112320	-0.006040
C41	C	1.518009	-0.445795	-0.506055
C42	C	2.018009	0.054205	-0.006055
C43	C	1.073554	-0.285318	-0.573160
C44	C	1.573554	0.214682	-0.073160
C45	C	0.963830	-0.285324	-0.573172
C46	C	1.463830	0.214676	-0.073172
C47	C	0.963850	-0.218368	-0.439039
C48	C	1.463850	0.281632	0.060961
C49	C	1.073572	-0.218359	-0.439033
C50	C	1.573572	0.281641	0.060967
C51	C	1.073542	-0.323976	-0.650598
C52	C	1.573542	0.176024	-0.150598
C53	C	0.963818	-0.323983	-0.650609
C54	C	1.463818	0.176017	-0.150609
C55	C	1.585519	-0.806160	-0.439010
C56	C	2.085519	-0.306160	0.060990
C57	C	1.585560	-0.860765	-0.439024
C58	C	2.085560	-0.360765	0.060976
O59	O	1.642775	-0.889004	-0.381967
O60	O	2.142775	-0.389004	0.118033
N61	N	1.518350	-0.888077	-0.506158
N62	N	2.018350	-0.388077	-0.006158
C63	C	1.451103	-0.860782	-0.573289
C64	C	1.951103	-0.360782	-0.073289
O65	O	1.393940	-0.889027	-0.630394
O66	O	1.893940	-0.389027	-0.130394
C67	C	1.451068	-0.806179	-0.573280
C68	C	1.951068	-0.306179	-0.073280
C69	C	1.518275	-0.778869	-0.506134
C70	C	2.018275	-0.278869	-0.006134
C71	C	1.652721	-0.778851	-0.371870
C72	C	2.152721	-0.278851	0.128130
C73	C	1.652678	-0.724250	-0.371855
C74	C	2.152678	-0.224250	0.128145
C75	C	1.585434	-0.696959	-0.438980
C76	C	2.085434	-0.196959	0.061020
C77	C	1.518232	-0.724269	-0.506119
C78	C	2.018232	-0.224269	-0.006119
C79	C	1.383827	-0.778885	-0.640416
C80	C	1.883827	-0.278885	-0.140416
C81	C	1.383799	-0.724278	-0.640401
C82	C	1.883799	-0.224278	-0.140401
C83	C	1.451005	-0.696968	-0.573256
C84	C	1.951005	-0.196968	-0.073256
C85	C	1.450946	-0.642377	-0.573228
C86	C	1.950946	-0.142377	-0.073228
N87	N	1.518155	-0.615065	-0.506094
N88	N	2.018155	-0.115065	-0.006094
C89	C	1.585399	-0.642356	-0.438970
C90	C	2.085399	-0.142356	0.061030
C91	C	1.451182	-0.975453	-0.573306
C92	C	1.951182	-0.475453	-0.073306
C93	C	1.451210	-1.030055	-0.573311
C94	C	1.951210	-0.530055	-0.073311
C95	C	1.585669	-1.030034	-0.439046
C96	C	2.085669	-0.530034	0.060954
C97	C	1.585634	-0.975430	-0.439037
C98	C	2.085634	-0.475430	0.060963
C99	C	1.518391	-0.948140	-0.506172
C100	C	2.018391	-0.448140	-0.006172
C101	C	1.585305	-0.527691	-0.438943
C102	C	2.085305	-0.027691	0.061057
C103	C	1.585253	-0.473086	-0.438930
C104	C	2.085253	0.026914	0.061070
C105	C	1.450799	-0.473111	-0.573198
C106	C	1.950799	0.026889	-0.073198
C107	C	1.450846	-0.527712	-0.573207
C108	C	1.950846	-0.027712	-0.073207
C109	C	1.518108	-0.555000	-0.506076
C110	C	2.018108	-0.055000	-0.006076
O111	O	1.393762	-0.614103	-0.630258
O112	O	1.893762	-0.114103	-0.130258
O113	O	1.642562	-0.614104	-0.381885
O114	O	2.142562	-0.114104	0.118115
C115	C	1.792198	-0.251848	-0.506103
C116	C	2.292198	0.248152	-0.006103
C117	C	1.908975	-0.251852	-0.506109
C118	C	2.408975	0.248148	-0.006109
C119	C	1.518239	-0.251785	-0.780122
C120	C	2.018239	0.248215	-0.280122
C121	C	1.518270	-0.251763	-0.896898
C122	C	2.018270	0.248237	-0.396898
C123	C	1.518371	-0.115465	-0.506159
C124	C	2.018371	0.384535	-0.006159
C125	C	1.518459	-0.057351	-0.506190
C126	C	2.018459	0.442649	-0.006190
C127	C	1.585526	-0.218322	-0.951783
C128	C	2.085526	0.281678	-0.451783
C129	C	1.585551	-0.218303	-1.061507
C130	C	2.085551	0.281697	-0.561507
C131	C	1.451061	-0.285170	-1.061452
C132	C	1.951061	0.214830	-0.561452
C133	C	1.451032	-0.285186	-0.951730
C134	C	1.951032	0.214814	-0.451730
C135	C	1.663176	-0.179718	-0.951816
C136	C	2.163176	0.320282	-0.451816
C137	C	1.663201	-0.179699	-1.061540
C138	C	2.163201	0.320301	-0.561540
C139	C	1.518152	-0.251853	-0.233121
C140	C	2.018152	0.248147	0.266879
C141	C	1.518325	-0.251728	-0.116345
C142	C	2.018325	0.248272	0.383655
H143	H	1.118241	-0.191092	-0.384427
H144	H	1.618241	0.308908	0.115573
H145	H	1.744563	-0.190544	-1.091316
H146	H	2.244563	0.309456	-0.591316
H147	H	1.396046	-0.450883	-0.627847
H148	H	1.896046	0.049117	-0.127847
C149	C	0.923514	-0.378672	-0.620961
C150	C	1.423514	0.121328	-0.120961
N151	N	0.893158	-0.419862	-0.598628
N152	N	1.393158	0.080138	-0.098628
H153	H	1.103359	-0.313178	-0.732007
H154	H	1.603359	0.186822	-0.232007
H155	H	1.639981	-0.450852	-0.384249
H156	H	2.139981	0.049148	0.115751
H157	H	1.640078	-0.549903	-0.384280
H158	H	2.140078	-0.049903	0.115720
C159	C	1.633806	-0.125018	-0.911623
C160	C	2.133806	0.374982	-0.411623
N161	N	1.611681	-0.083820	-0.881349
N162	N	2.111681	0.416180	-0.381349
H163	H	1.707407	-0.702018	-0.317183
H164	H	2.207407	-0.202018	0.182817
C165	C	1.119455	-0.375913	-0.611030
C166	C	1.619455	0.124087	-0.111030
N167	N	1.154037	-0.415032	-0.581225
N168	N	1.654037	0.084968	-0.081225
C169	C	1.377029	-0.321966	-0.891360
C170	C	1.877029	0.178034	-0.391360
N171	N	1.321285	-0.349669	-0.845890
N172	N	1.821285	0.150331	-0.345890
C173	C	1.377101	-0.321934	-1.121777
C174	C	1.877101	0.178066	-0.621777
N175	N	1.321393	-0.349625	-1.167213
N176	N	1.821393	0.150375	-0.667213
C177	C	1.767560	-0.199313	-0.905826
C178	C	2.267560	0.300687	-0.405826
N179	N	1.846186	-0.214069	-0.871186
N180	N	2.346186	0.285931	-0.371186
C181	C	1.726696	-0.808862	-0.298016
C182	C	2.226696	-0.308862	0.201984
N183	N	1.782411	-0.831463	-0.242377
N184	N	2.282411	-0.331463	0.257623
C185	C	1.623964	-0.127715	-1.107553
C186	C	2.123964	0.372285	-0.607553
N187	N	1.594422	-0.088560	-1.142211
N188	N	2.094422	0.411440	-0.642211
C189	C	1.659569	-0.945395	-0.365175
C190	C	2.159569	-0.445395	0.134825
N191	N	1.715262	-0.922775	-0.309541
N192	N	2.215262	-0.422775	0.190459
H193	H	0.919178	-0.191111	-0.384442
H194	H	1.419178	0.308889	0.115558
C195	C	1.309825	-0.694262	-0.714258
C196	C	1.809825	-0.194262	-0.214258
N197	N	1.254106	-0.671655	-0.769884
N198	N	1.754106	-0.171655	-0.269884
H199	H	1.396125	-0.549949	-0.627886
H200	H	1.896125	-0.049949	-0.127886
C201	C	0.917899	-0.304450	-0.755104
C202	C	1.417899	0.195550	-0.255104
N203	N	0.883312	-0.289734	-0.833805
N204	N	1.383312	0.210266	-0.333805
C205	C	1.659648	-1.060064	-0.365216
C206	C	2.159648	-0.560064	0.134784
N207	N	1.715366	-1.082685	-0.309612
N208	N	2.215366	-0.582685	0.190388
C209	C	1.377268	-1.060089	-0.647166
C210	C	1.877268	-0.560089	-0.147166
N211	N	1.321576	-1.082709	-0.702801
N212	N	1.821576	-0.582709	-0.202801
H213	H	1.396416	-0.953236	-0.627972
H214	H	1.896416	-0.453236	-0.127972
C215	C	1.309896	-0.808913	-0.714286
C216	C	1.809896	-0.308913	-0.214286
N217	N	1.254209	-0.831529	-0.769931
N218	N	1.754209	-0.331529	-0.269931
