data_functionalizedCrystal
_audit_creation_method	'MofGen! by Chris Wilmer'
_symmetry_space_group_name_H-M	'P1'
_symmetry_Int_Tables_number	1
_symmetry_cell_setting	triclinic
loop_
_symmetry_equiv_pos_as_xyz
  x,y,z
_cell_length_a	17.699083
_cell_length_b	9.065218
_cell_length_c	7.540329
_cell_angle_alpha	89.998312
_cell_angle_beta	90.004073
_cell_angle_gamma	95.850550
loop_
_atom_site_label
_atom_site_type_symbol
_atom_site_fract_x
_atom_site_fract_y
_atom_site_fract_z
O1	O	0.110973	-1.957107	0.147491
O2	O	0.610973	-1.457107	0.647491
O3	O	0.120075	-1.527552	0.147494
O4	O	0.620075	-1.027552	0.647494
O5	O	0.005429	-1.754466	0.147477
O6	O	0.505429	-1.254466	0.647477
O7	O	0.225618	-1.730194	0.147508
O8	O	0.725618	-1.230194	0.647508
O9	O	0.005428	-1.754458	-0.147488
O10	O	0.505428	-1.254458	0.352512
O11	O	0.120074	-1.527544	-0.147471
O12	O	0.620074	-1.027544	0.352529
O13	O	0.110972	-1.957099	-0.147474
O14	O	0.610972	-1.457099	0.352526
Cu15	Cu	0.115523	-1.742321	-0.174405
Cu16	Cu	0.615523	-1.242321	0.325595
Cu17	Cu	0.115524	-1.742330	0.174425
Cu18	Cu	0.615524	-1.242330	0.674425
O19	O	0.225617	-1.730186	-0.147457
O20	O	0.725617	-1.230186	0.352543
C21	C	0.119200	-1.472588	0.000012
C22	C	0.619200	-0.972588	0.500012
C23	C	0.116584	-1.308822	0.000012
C24	C	0.616584	-0.808822	0.500012
C25	C	-0.022775	-1.753592	-0.000006
C26	C	0.477225	-1.253592	0.499994
C27	C	-0.106813	-1.750983	-0.000007
C28	C	0.393187	-1.250983	0.499993
N29	N	0.115522	-1.742325	-0.419754
N30	N	0.615522	-1.242325	0.080246
C31	C	-0.154396	-1.884176	-0.000010
C32	C	0.345604	-1.384176	0.499990
C33	C	-0.233358	-1.881716	0.000006
C34	C	0.266642	-1.381716	0.500006
C35	C	-0.264737	-1.746060	0.000012
C36	C	0.235263	-1.246060	0.500012
C37	C	-0.217149	-1.612857	0.000021
C38	C	0.282851	-1.112857	0.500021
C39	C	-0.138188	-1.615319	0.000018
C40	C	0.361812	-1.115319	0.500018
C41	C	-0.535589	-1.602925	0.000035
C42	C	-0.035589	-1.102925	0.500035
C43	C	-0.614556	-1.600474	0.000033
C44	C	-0.114556	-1.100474	0.500033
C45	C	-0.630760	-1.869322	0.000023
C46	C	-0.130760	-1.369322	0.500023
C47	C	-0.551799	-1.871784	0.000020
C48	C	-0.051799	-1.371784	0.500020
C49	C	-0.504217	-1.738581	0.000038
C50	C	-0.004217	-1.238581	0.500038
C51	C	-0.418597	-1.741251	0.000025
C52	C	0.081403	-1.241251	0.500025
C53	C	-0.350355	-1.743390	0.000013
C54	C	0.149645	-1.243390	0.500013
C55	C	0.253822	-1.731059	0.000030
C56	C	0.753822	-1.231059	0.500030
C57	C	0.337860	-1.733669	0.000042
C58	C	0.837860	-1.233669	0.500042
C59	C	0.111847	-2.012064	0.000012
C60	C	0.611847	-1.512064	0.500012
C61	C	0.114463	-2.175829	0.000023
C62	C	0.614463	-1.675829	0.500023
N63	N	0.115519	-1.742338	0.419774
N64	N	0.615519	-1.242338	0.919774
H65	H	-0.128854	-1.994642	-0.000026
H66	H	0.371146	-1.494642	0.499974
H67	H	-0.640101	-1.490001	0.000035
H68	H	-0.140101	-0.990001	0.500035
H69	H	-0.242703	-1.502404	0.000037
H70	H	0.257297	-1.002404	0.500037
C71	C	-0.285699	-2.028224	0.000020
C72	C	0.214301	-1.528224	0.500020
H73	H	-0.337219	-2.007334	0.000051
H74	H	0.162781	-1.507334	0.500051
H75	H	-0.276098	-2.083868	-0.102838
H76	H	0.223902	-1.583868	0.397162
H77	H	-0.276077	-2.083852	0.102896
H78	H	0.223923	-1.583852	0.602896
H79	H	-0.496857	-1.494463	0.000050
H80	H	0.003143	-0.994463	0.500050
H81	H	-0.099446	-1.506859	0.000021
H82	H	0.400554	-1.006859	0.500021
H83	H	-0.526255	-1.982248	0.000006
H84	H	-0.026255	-1.482248	0.500006
H85	H	-0.669510	-1.977782	0.000018
H86	H	-0.169510	-1.477782	0.500018
