data_functionalizedCrystal
_audit_creation_method	'MofGen! by Chris Wilmer'
_symmetry_space_group_name_H-M	'P1'
_symmetry_Int_Tables_number	1
_symmetry_cell_setting	triclinic
loop_
_symmetry_equiv_pos_as_xyz
  x,y,z
_cell_length_a	6.817900
_cell_length_b	15.301126
_cell_length_c	12.908943
_cell_angle_alpha	95.514568
_cell_angle_beta	100.860631
_cell_angle_gamma	104.177575
loop_
_atom_site_label
_atom_site_type_symbol
_atom_site_fract_x
_atom_site_fract_y
_atom_site_fract_z
V1	V	-3.999628	-0.123632	-0.328999
O2	O	-3.984114	0.007099	-0.322407
O3	O	-3.954739	-0.246256	-0.327066
O4	O	-3.937838	-0.121222	-0.472343
O5	O	-4.001131	-0.118800	-0.176125
V6	V	-4.484536	-0.108055	-0.310676
O7	O	-4.257848	-0.157801	-0.369194
O8	O	-4.676513	-0.073886	-0.270482
O9	O	-4.306218	0.014568	-0.312609
O10	O	-4.617447	-0.238787	-0.317268
O11	O	-4.600429	-0.112888	-0.463550
O12	O	-4.323119	-0.110465	-0.167333
C13	C	-3.801027	-0.276165	-0.321958
C14	C	-3.845522	-0.376408	-0.321333
C15	C	-3.779468	-0.116671	-0.507271
C16	C	-3.810254	-0.115512	-0.624457
C17	C	-4.048171	-0.428077	-0.326309
C18	C	-4.089970	-0.522266	-0.325728
C19	C	-3.929114	-0.564784	-0.320163
C20	C	-3.726449	-0.513108	-0.315190
C21	C	-3.684656	-0.418922	-0.315779
C22	C	-3.813571	-0.709423	-0.313961
C23	C	-3.855365	-0.803616	-0.313370
C24	C	-4.218885	-0.812768	-0.323910
C25	C	-4.177092	-0.718581	-0.324499
C26	C	-3.974428	-0.666912	-0.319524
C27	C	-4.231613	-0.122282	-0.855421
C28	C	-4.260550	-0.121194	-0.965528
C29	C	-3.897064	-0.112240	-0.954779
C30	C	-3.868127	-0.113328	-0.844672
C31	C	-4.035411	-0.118351	-0.794997
C32	C	-4.006475	-0.119446	-0.684890
C33	C	-3.642988	-0.110486	-0.674141
C34	C	-3.671924	-0.109397	-0.784248
C35	C	-4.123272	0.044472	-0.317714
C36	C	-4.058015	0.144715	-0.318346
C37	C	-4.144832	-0.115020	-0.132399
C38	C	-4.093284	-0.116174	-0.015212
H39	H	-4.254984	-0.564332	-0.329782
H40	H	-3.648547	-0.667358	-0.309917
H41	H	-4.142689	-0.123540	-0.644447
H42	H	-4.367828	-0.126382	-0.814977
O43	O	-4.472165	-0.125429	-1.030704
H44	H	-4.583617	-0.129108	-0.977660
H45	H	-3.760876	-0.108144	-0.995243
H46	H	-3.483223	-0.107288	-0.624933
H47	H	-3.535733	-0.105305	-0.824708
O48	O	-4.350608	-0.672734	-0.330527
H49	H	-4.422182	-0.683628	-0.260748
O50	O	-4.221674	-0.382221	-0.332330
H51	H	-4.369616	-0.433980	-0.335710
H52	H	-4.383897	-0.854840	-0.327946
H53	H	-3.724390	-0.838236	-0.308870
O54	O	-3.552952	-0.558965	-0.309202
H55	H	-3.539630	-0.592271	-0.236470
O56	O	-3.466086	-0.363184	-0.310414
H57	H	-3.363299	-0.369673	-0.235562
