data_functionalizedCrystal
_audit_creation_method	'MofGen! by Chris Wilmer'
_symmetry_space_group_name_H-M	'P1'
_symmetry_Int_Tables_number	1
_symmetry_cell_setting	triclinic
loop_
_symmetry_equiv_pos_as_xyz
  x,y,z
_cell_length_a	15.944493
_cell_length_b	23.532407
_cell_length_c	14.421503
_cell_angle_alpha	89.999621
_cell_angle_beta	89.992936
_cell_angle_gamma	83.161861
loop_
_atom_site_label
_atom_site_type_symbol
_atom_site_fract_x
_atom_site_fract_y
_atom_site_fract_z
O1	O	1.113942	0.073285	-0.077109
O2	O	1.613942	0.573285	0.422891
O3	O	0.869309	0.082375	-0.077115
O4	O	1.369309	0.582375	0.422885
O5	O	0.999003	-0.005074	-0.077095
O6	O	1.499003	0.494926	0.422905
O7	O	0.984249	0.160734	-0.077129
O8	O	1.484249	0.660734	0.422871
O9	O	0.998981	-0.005061	0.077129
O10	O	1.498981	0.494939	0.577129
O11	O	0.869288	0.082388	0.077109
O12	O	1.369288	0.582388	0.577109
O13	O	1.113921	0.073298	0.077114
O14	O	1.613921	0.573298	0.577114
Cu15	Cu	0.991602	0.077844	0.091193
Cu16	Cu	1.491602	0.577844	0.591193
Cu17	Cu	0.991628	0.077829	-0.091194
Cu18	Cu	1.491628	0.577829	0.408806
O19	O	0.984227	0.160747	0.077094
O20	O	1.484227	0.660747	0.577094
C21	C	0.838007	0.082010	-0.000004
C22	C	1.338007	0.582010	0.499996
C23	C	0.744768	0.080896	-0.000005
C24	C	1.244768	0.580896	0.499995
C25	C	0.998616	-0.026285	0.000019
C26	C	1.498616	0.473715	0.500019
C27	C	0.997486	-0.089506	0.000026
C28	C	1.497486	0.410494	0.500026
C29	C	0.508574	0.132371	-0.000016
C30	C	1.008574	0.632371	0.499984
C31	C	0.458239	0.104619	0.076034
C32	C	0.958239	0.604619	0.576034
C33	C	0.574064	0.078832	-0.000003
C34	C	1.074064	0.578832	0.499997
C35	C	0.458265	0.104593	-0.076019
C36	C	0.958265	0.604593	0.423981
C37	C	0.409171	0.076843	-0.000005
C38	C	0.909171	0.576843	0.499995
C39	C	0.524957	0.051095	0.076110
C40	C	1.024957	0.551095	0.576110
C41	C	0.524986	0.051077	-0.076011
C42	C	1.024986	0.551077	0.423989
C43	C	0.474684	0.023286	0.000058
C44	C	0.974684	0.523286	0.500058
C45	C	0.669054	0.079980	-0.000001
C46	C	1.169054	0.579980	0.499999
C47	C	0.314184	0.075691	0.000000
C48	C	0.814184	0.575691	0.500000
C49	C	1.067151	-0.488350	-0.000023
C50	C	1.567151	0.011650	0.499977
C51	C	1.066102	-0.547754	-0.000030
C52	C	1.566102	-0.047754	0.499970
O53	O	1.130682	-0.584257	-0.000063
O54	O	1.630682	-0.084257	0.499937
N55	N	0.988999	-0.570668	-0.000031
N56	N	1.488999	-0.070668	0.499969
C57	C	0.912941	-0.534174	-0.000034
C58	C	1.412941	-0.034174	0.499966
O59	O	0.847263	-0.559119	-0.000037
O60	O	1.347263	-0.059119	0.499963
C61	C	0.913991	-0.474771	-0.000034
C62	C	1.413991	0.025229	0.499966
C63	C	0.991099	-0.451861	-0.000023
C64	C	1.491099	0.048139	0.499977
C65	C	1.144253	-0.465439	-0.000013
C66	C	1.644253	0.034561	0.499987
C67	C	1.145302	-0.406038	-0.000004
C68	C	1.645302	0.093962	0.499996
C69	C	1.069249	-0.369549	-0.000005
C70	C	1.569249	0.130451	0.499995
C71	C	0.992148	-0.392460	-0.000015
C72	C	1.492148	0.107540	0.499985
C73	C	0.837934	-0.438278	-0.000044
C74	C	1.337934	0.061722	0.499956
C75	C	0.838991	-0.378872	-0.000044
C76	C	1.338991	0.121128	0.499956
C77	C	0.916098	-0.355962	-0.000034
C78	C	1.416098	0.144038	0.499966
C79	C	0.917144	-0.296571	-0.000007
C80	C	1.417144	0.203429	0.499993
N81	N	0.994247	-0.273657	-0.000005
N82	N	1.494247	0.226343	0.499995
C83	C	1.070300	-0.310146	-0.000005
C84	C	1.570300	0.189854	0.499995
C85	C	0.910741	-0.658925	-0.000037
C86	C	1.410741	-0.158925	0.499963
C87	C	0.909690	-0.718327	-0.000031
C88	C	1.409690	-0.218327	0.499969
C89	C	1.062852	-0.731902	-0.000028
C90	C	1.562852	-0.231902	0.499972
C91	C	1.063902	-0.672499	-0.000027
C92	C	1.563902	-0.172499	0.499973
C93	C	0.987844	-0.636011	-0.000036
C94	C	1.487844	-0.136011	0.499964
C95	C	1.072497	-0.185401	0.000015
C96	C	1.572497	0.314599	0.500015
C97	C	1.073539	-0.125996	0.000027
C98	C	1.573539	0.374004	0.500027
C99	C	0.920378	-0.112425	0.000019
C100	C	1.420378	0.387575	0.500019
C101	C	0.919335	-0.171826	0.000012
C102	C	1.419335	0.328174	0.500012
C103	C	0.995402	-0.208313	0.000006
C104	C	1.495402	0.291687	0.500006
O105	O	0.852598	-0.260033	0.000022
O106	O	1.352598	0.239967	0.500022
O107	O	1.135967	-0.285193	-0.000014
O108	O	1.635967	0.214807	0.499986
C109	C	1.145223	0.073663	0.000001
C110	C	1.645223	0.573663	0.500001
C111	C	1.238462	0.074777	-0.000003
C112	C	1.738462	0.574777	0.499997
C113	C	0.984614	0.181958	-0.000022
C114	C	1.484614	0.681958	0.499978
C115	C	0.985743	0.245179	-0.000035
C116	C	1.485743	0.745179	0.499965
N117	N	0.991590	0.077855	0.219475
N118	N	1.491590	0.577855	0.719475
N119	N	0.991646	0.077814	-0.219475
N120	N	1.491646	0.577814	0.280525
C121	C	0.931610	0.118273	0.469119
C122	C	1.431610	0.618273	0.969119
C123	C	1.007419	0.129319	0.530921
C124	C	1.507419	0.629319	1.030921
C125	C	0.991611	0.077841	0.408636
C126	C	1.491611	0.577841	0.908636
C127	C	0.915821	0.066808	0.530928
C128	C	1.415821	0.566808	1.030928
C129	C	0.991624	0.077829	0.591357
C130	C	1.491624	0.577829	1.091357
C131	C	1.067458	0.088912	0.469077
C132	C	1.567458	0.588912	0.969077
C133	C	0.975811	0.026380	0.469079
C134	C	1.475811	0.526380	0.969079
C135	C	1.051675	0.037404	0.530853
C136	C	1.551675	0.537404	1.030853
C137	C	0.991602	0.077849	0.303375
C138	C	1.491602	0.577849	0.803375
C139	C	0.991641	0.077820	0.696616
C140	C	1.491641	0.577820	1.196616
H141	H	0.523809	0.178488	0.000045
H142	H	1.023809	0.678488	0.500045
H143	H	0.962411	-0.017121	0.441894
H144	H	1.462411	0.482879	0.941894
Cl145	Cl	0.451396	-0.047967	0.000140
Cl146	Cl	0.951396	0.452033	0.500140
H147	H	1.208091	-0.387391	0.000000
H148	H	1.708091	0.112609	0.500000
Cl149	Cl	0.816859	0.052408	0.572877
Cl150	Cl	1.316859	0.552408	1.072877
Cl151	Cl	0.413251	0.139534	0.175282
Cl152	Cl	0.913251	0.639534	0.675282
H153	H	1.102477	0.003205	0.557788
H154	H	1.602477	0.503205	1.057788
H155	H	1.131571	0.098291	0.442023
H156	H	1.631571	0.598291	0.942023
H157	H	0.846902	-0.736975	-0.000023
H158	H	1.346902	-0.236975	0.499977
Cl159	Cl	0.569739	0.016217	0.175477
Cl160	Cl	1.069739	0.516217	0.675477
Cl161	Cl	0.570000	0.016193	-0.175266
Cl162	Cl	1.070000	0.516193	0.324734
H163	H	0.429145	0.127209	-0.140304
H164	H	0.929145	0.627209	0.359696
H165	H	1.136332	-0.107346	0.000038
H166	H	1.636332	0.392654	0.500038
H167	H	1.134437	-0.215103	0.000006
H168	H	1.634437	0.284897	0.500006
Cl169	Cl	0.740992	-0.467065	-0.000064
Cl170	Cl	1.240992	0.032935	0.499936
H171	H	1.206187	-0.495143	-0.000016
H172	H	1.706187	0.004857	0.499984
H173	H	1.126690	-0.653850	-0.000020
H174	H	1.626690	-0.153850	0.499980
H175	H	1.124778	-0.761623	-0.000031
H176	H	1.624778	-0.261623	0.499969
Cl177	Cl	0.853350	0.171102	0.427263
Cl178	Cl	1.353350	0.671102	0.927263
H179	H	0.848802	-0.629218	-0.000036
H180	H	1.348802	-0.129218	0.499964
Cl181	Cl	0.743369	-0.333004	-0.000056
Cl182	Cl	1.243369	0.166996	0.499944
H183	H	0.856548	-0.190480	0.000029
H184	H	1.356548	0.309520	0.500029
H185	H	0.858458	-0.082705	0.000022
H186	H	1.358458	0.417295	0.500022
H187	H	1.020795	0.172833	0.558084
H188	H	1.520795	0.672833	1.058084
