data_functionalizedCrystal
_audit_creation_method	'MofGen! by Chris Wilmer'
_symmetry_space_group_name_H-M	'P1'
_symmetry_Int_Tables_number	1
_symmetry_cell_setting	triclinic
loop_
_symmetry_equiv_pos_as_xyz
  x,y,z
_cell_length_a	16.974885
_cell_length_b	16.992695
_cell_length_c	17.766277
_cell_angle_alpha	89.993690
_cell_angle_beta	93.642662
_cell_angle_gamma	87.023153
loop_
_atom_site_label
_atom_site_type_symbol
_atom_site_fract_x
_atom_site_fract_y
_atom_site_fract_z
O1	O	1.055447	0.099901	0.001639
O2	O	1.555447	0.599901	0.501639
O3	O	0.826049	0.112636	-0.012324
O4	O	1.326049	0.612636	0.487676
O5	O	0.939828	-0.007873	-0.005392
O6	O	1.439828	0.492127	0.494608
O7	O	0.941668	0.220410	-0.005292
O8	O	1.441668	0.720410	0.494708
O9	O	0.939807	-0.007880	0.119795
O10	O	1.439807	0.492120	0.619795
O11	O	0.826027	0.112629	0.112863
O12	O	1.326027	0.612629	0.612863
O13	O	1.055425	0.099895	0.126826
O14	O	1.555425	0.599895	0.626826
Cu15	Cu	0.940724	0.106261	0.131275
Cu16	Cu	1.440724	0.606261	0.631275
Cu17	Cu	0.940750	0.106269	-0.016773
Cu18	Cu	1.440750	0.606269	0.483227
O19	O	0.941646	0.220404	0.119895
O20	O	1.441646	0.720404	0.619895
C21	C	0.796550	0.112149	0.048475
C22	C	1.296550	0.612149	0.548475
C23	C	0.708683	0.110700	0.043127
C24	C	1.208683	0.610700	0.543127
C25	C	0.214090	0.102515	0.005647
C26	C	0.714090	0.602515	0.505647
C27	C	0.296650	0.103877	0.010682
C28	C	0.796650	0.603877	0.510682
C29	C	0.337910	0.104560	0.081440
C30	C	0.837910	0.604560	0.581440
C31	C	0.296606	0.103874	0.147167
C32	C	0.796606	0.603874	0.647167
C33	C	0.214047	0.102506	0.142131
C34	C	0.714047	0.602506	0.642131
C35	C	0.584821	0.108645	0.103818
C36	C	1.084821	0.608645	0.603818
C37	C	0.667385	0.110015	0.108849
C38	C	1.167385	0.610015	0.608849
C39	C	0.667423	0.110017	-0.027636
C40	C	1.167423	0.610017	0.472364
C41	C	0.584863	0.108654	-0.032666
C42	C	1.084863	0.608654	0.467334
C43	C	0.543566	0.107963	0.033061
C44	C	1.043566	0.607963	0.533061
N45	N	0.422299	0.105955	0.086588
N46	N	0.922299	0.605955	0.586588
N47	N	0.459179	0.106563	0.027912
N48	N	0.959179	0.606563	0.527912
C49	C	0.937451	-0.037086	0.057057
C50	C	1.437451	0.462914	0.557057
C51	C	0.930392	-0.124123	0.056627
C52	C	1.430392	0.375877	0.556627
C53	C	0.998506	-0.174439	0.060774
C54	C	1.498506	0.325561	0.560774
C55	C	0.991868	-0.256218	0.060363
C56	C	1.491868	0.243782	0.560363
C57	C	0.917116	-0.287680	0.055810
C58	C	1.417116	0.212320	0.555810
C59	C	0.848996	-0.237357	0.051661
C60	C	1.348996	0.262643	0.551661
C61	C	0.855635	-0.155580	0.052067
C62	C	1.355635	0.344420	0.552067
C63	C	0.889601	-0.531247	0.054125
C64	C	1.389601	-0.031247	0.554125
C65	C	0.882968	-0.613031	0.053722
C66	C	1.382968	-0.113031	0.553722
C67	C	1.025841	-0.631886	0.062422
C68	C	1.525841	-0.131886	0.562422
C69	C	1.032473	-0.550106	0.062832
C70	C	1.532473	-0.050106	0.562832
C71	C	0.964353	-0.499791	0.058679
C72	C	1.464353	0.000209	0.558679
N73	N	0.910329	-0.371271	0.055392
N74	N	1.410329	0.128729	0.555392
N75	N	0.971141	-0.416201	0.059092
N76	N	1.471141	0.083799	0.559092
C77	C	1.084924	0.100381	0.066026
C78	C	1.584924	0.600381	0.566026
C79	C	1.172791	0.101831	0.071369
C80	C	1.672791	0.601831	0.571369
C81	C	0.944023	0.249617	0.057444
C82	C	1.444023	0.749617	0.557444
C83	C	0.951082	0.336653	0.057869
C84	C	1.451082	0.836653	0.557869
N85	N	0.940712	0.106256	0.235405
N86	N	1.440712	0.606256	0.735405
N87	N	0.940768	0.106268	-0.120902
N88	N	1.440768	0.606268	0.379098
C89	C	0.991112	0.052921	0.277862
C90	C	1.491112	0.552921	0.777862
C91	C	0.991117	0.052917	0.356664
C92	C	1.491117	0.552917	0.856664
C93	C	0.940729	0.106262	0.393007
C94	C	1.440729	0.606262	0.893007
C95	C	0.890319	0.159601	0.350539
C96	C	1.390319	0.659601	0.850539
C97	C	0.890310	0.159598	0.271738
C98	C	1.390310	0.659598	0.771738
C99	C	0.934882	0.177680	0.517485
C100	C	1.434882	0.677680	1.017485
C101	C	0.934896	0.177684	0.596285
C102	C	1.434896	0.677684	1.096285
C103	C	0.940751	0.106272	0.636054
C104	C	1.440751	0.606272	1.136054
C105	C	0.946608	0.034852	0.597015
C106	C	1.446608	0.534852	1.097015
C107	C	0.946599	0.034849	0.518215
C108	C	1.446599	0.534849	1.018215
C109	C	0.940732	0.106271	0.478452
C110	C	1.440732	0.606271	0.978452
C111	C	0.991159	0.052928	0.763958
C112	C	1.491159	0.552928	1.263958
C113	C	0.991157	0.052923	0.842761
C114	C	1.491157	0.552923	1.342761
C115	C	0.890363	0.159615	0.836635
C116	C	1.390363	0.659615	1.336635
C117	C	0.890360	0.159612	0.757833
C118	C	1.390360	0.659612	1.257833
C119	C	0.940762	0.106270	0.721499
C120	C	1.440762	0.606270	1.221499
H121	H	0.180501	0.101964	-0.051972
H122	H	0.680501	0.601964	0.448028
H123	H	1.093344	-0.524496	0.066539
H124	H	1.593344	-0.024496	0.566539
H125	H	0.330272	0.104429	-0.042836
H126	H	0.830272	0.604429	0.457164
H127	H	1.032151	0.009484	0.248282
H128	H	1.532151	0.509484	0.748282
C129	C	0.928441	0.256244	0.473746
C130	C	1.428441	0.756244	0.973746
N131	N	0.923590	0.315416	0.440803
N132	N	1.423590	0.815416	0.940803
H133	H	1.081299	-0.672861	0.065802
H134	H	1.581299	-0.172861	0.565802
C135	C	0.834976	0.218343	0.711131
C136	C	1.334976	0.718343	1.211131
N137	N	0.793276	0.262599	0.675957
N138	N	1.293276	0.762599	1.175957
C139	C	0.539484	0.107890	-0.110505
C140	C	1.039484	0.607890	0.389495
N141	N	0.505305	0.107312	-0.169135
N142	N	1.005305	0.607312	0.330865
H143	H	0.788131	-0.262980	0.047950
H144	H	1.288131	0.237020	0.547950
H145	H	1.032160	0.009483	0.391239
H146	H	1.532160	0.509483	0.891239
C147	C	0.834888	0.218278	0.390517
C148	C	1.334888	0.718278	0.890517
N149	N	0.793133	0.262472	0.420628
N150	N	1.293133	0.762472	0.920628
C151	C	0.341992	0.104658	0.225001
C152	C	0.841992	0.604658	0.725001
N153	N	0.376175	0.105265	0.283628
N154	N	0.876175	0.605265	0.783628
C155	C	0.834900	0.218308	0.225036
C156	C	1.334900	0.718308	0.725036
N157	N	0.793177	0.262542	0.189859
N158	N	1.293177	0.762542	0.689859
H159	H	1.059378	-0.148830	0.064486
H160	H	1.559378	0.351170	0.564486
H161	H	0.701056	0.110578	-0.081147
H162	H	1.201056	0.610578	0.418853
C163	C	0.539404	0.107910	0.176120
C164	C	1.039404	0.607910	0.676120
N165	N	0.505192	0.107363	0.230582
N166	N	1.005192	0.607363	0.730582
H167	H	1.047334	-0.297183	0.063741
H168	H	1.547334	0.202817	0.563741
H169	H	0.700976	0.110577	0.166471
H170	H	1.200976	0.610577	0.666471
C171	C	0.168619	0.101757	0.214430
C172	C	0.668619	0.601757	0.714430
N173	N	0.134404	0.101191	0.268889
N174	N	0.634404	0.601191	0.768889
C175	C	0.800731	-0.647636	0.048708
C176	C	1.300731	-0.147636	0.548708
N177	N	0.738793	-0.673701	0.044931
N178	N	1.238793	-0.173701	0.544931
C179	C	0.953032	-0.043711	0.475274
C180	C	1.453032	0.456289	0.975274
N181	N	0.957872	-0.102883	0.442932
N182	N	1.457872	0.397117	0.942932
C183	C	0.814667	-0.475911	0.049552
C184	C	1.314667	0.024089	0.549552
N185	N	0.758223	-0.434228	0.046106
N186	N	1.258223	0.065772	0.546106
C187	C	0.780703	-0.100232	0.047507
C188	C	1.280703	0.399768	0.547507
N189	N	0.724263	-0.058545	0.044070
N190	N	1.224263	0.441455	0.544070
H191	H	1.032196	0.009491	0.734374
H192	H	1.532196	0.509491	1.234374
H193	H	1.032197	0.009487	0.877331
H194	H	1.532197	0.509487	1.377331
C195	C	0.953047	-0.043708	0.640756
C196	C	1.453047	0.456292	1.140756
N197	N	0.957897	-0.102877	0.673705
N198	N	1.457897	0.397123	1.173705
C199	C	0.834936	0.218296	0.876607
C200	C	1.334936	0.718296	1.376607
N201	N	0.793187	0.262496	0.906717
N202	N	1.293187	0.762496	1.406717
H203	H	0.930132	0.235837	0.628064
H204	H	1.430132	0.735837	1.128064
