data_functionalizedCrystal
_audit_creation_method	'MofGen! by Chris Wilmer'
_symmetry_space_group_name_H-M	'P1'
_symmetry_Int_Tables_number	1
_symmetry_cell_setting	triclinic
loop_
_symmetry_equiv_pos_as_xyz
  x,y,z
_cell_length_a	6.817900
_cell_length_b	14.858565
_cell_length_c	14.858572
_cell_angle_alpha	94.729590
_cell_angle_beta	104.524003
_cell_angle_gamma	104.523916
loop_
_atom_site_label
_atom_site_type_symbol
_atom_site_fract_x
_atom_site_fract_y
_atom_site_fract_z
V1	V	-4.043562	-0.129256	-0.290221
O2	O	-4.025385	0.005609	-0.284429
O3	O	-4.000128	-0.255713	-0.288492
O4	O	-4.000132	-0.127532	-0.416679
O5	O	-4.025382	-0.123460	-0.155355
V6	V	-4.525902	-0.113093	-0.274059
O7	O	-4.307414	-0.164710	-0.325674
O8	O	-4.712247	-0.077639	-0.238606
O9	O	-4.346128	0.013364	-0.275787
O10	O	-4.661475	-0.247958	-0.279850
O11	O	-4.661479	-0.118889	-0.408924
O12	O	-4.346125	-0.114817	-0.147600
C13	C	-3.846177	-0.286533	-0.283980
C14	C	-3.891985	-0.389915	-0.283410
C15	C	-3.846180	-0.123023	-0.447494
C16	C	-3.891987	-0.122450	-0.550876
C17	C	-4.059649	-0.768482	-0.281335
C18	C	-4.012991	-0.663153	-0.281912
C19	C	-3.975818	-0.579202	-0.282372
C20	C	-3.929158	-0.473866	-0.282950
C21	C	-4.059645	-0.120357	-0.929439
C22	C	-4.012989	-0.120940	-0.824111
C23	C	-3.975817	-0.121405	-0.740161
C24	C	-3.929159	-0.121985	-0.634826
C25	C	-4.163422	0.044179	-0.280296
C26	C	-4.096853	0.147560	-0.280873
C27	C	-4.163419	-0.119329	-0.116781
C28	C	-4.096850	-0.119897	-0.013398
