data_functionalizedCrystal
_audit_creation_method	'MofGen! by Chris Wilmer'
_symmetry_space_group_name_H-M	'P1'
_symmetry_Int_Tables_number	1
_symmetry_cell_setting	triclinic
loop_
_symmetry_equiv_pos_as_xyz
  x,y,z
_cell_length_a	17.917559
_cell_length_b	27.440280
_cell_length_c	17.917603
_cell_angle_alpha	90.006544
_cell_angle_beta	60.142335
_cell_angle_gamma	63.038521
loop_
_atom_site_label
_atom_site_type_symbol
_atom_site_fract_x
_atom_site_fract_y
_atom_site_fract_z
Zr1	Zr	0.806673	0.497381	-0.128860
O2	O	0.951699	0.427465	-0.249391
O3	O	0.654462	0.515462	-0.087225
O4	O	0.796294	0.524305	-0.242614
O5	O	0.820559	0.415460	0.023240
O6	O	0.796281	0.604507	-0.242598
O7	O	0.809866	0.418622	-0.094002
O8	O	0.542569	0.588688	0.035363
O9	O	1.074271	0.431278	-0.254721
O10	O	0.719720	0.587077	-0.075118
O11	O	0.727710	0.524863	0.012367
O12	O	0.894699	0.535274	-0.170583
O13	O	0.902689	0.473061	-0.083098
Zr14	Zr	0.823706	0.620251	0.058152
Zr15	Zr	0.806652	0.625294	-0.128836
Zr16	Zr	0.823727	0.492338	0.058128
Zr17	Zr	1.002162	0.503463	-0.137362
Zr18	Zr	0.628217	0.614169	0.066654
O19	O	0.975917	0.602170	0.016517
O20	O	0.951669	0.609341	-0.249356
O21	O	0.975947	0.420294	0.016483
O22	O	0.678680	0.690166	0.178683
O23	O	0.654432	0.697337	-0.087190
O24	O	0.678710	0.508291	0.178648
O25	O	0.809820	0.702171	-0.093948
O26	O	0.834085	0.593327	0.171906
O27	O	0.834098	0.513125	0.171890
O28	O	0.820513	0.699009	0.023294
O29	O	1.074255	0.532952	-0.254702
O30	O	0.556124	0.584680	0.183994
O31	O	0.556108	0.686353	0.184013
O32	O	0.542552	0.690362	0.035383
O33	O	1.087827	0.427269	-0.106091
O34	O	1.087810	0.528943	-0.106071
O35	O	0.735680	0.582357	0.099875
O36	O	0.727690	0.644571	0.012390
O37	O	0.902669	0.592768	-0.083075
O38	O	0.910659	0.530555	0.004411
C39	C	0.570662	0.551209	-0.024720
C40	C	0.487672	0.548627	-0.021110
C41	C	0.294712	0.573679	-0.056246
C42	C	0.335671	0.543954	-0.014464
C43	C	0.420252	0.546555	-0.018163
C44	C	0.210123	0.571079	-0.052548
C45	C	0.815215	0.398816	-0.035384
C46	C	0.815224	0.344514	-0.035395
C47	C	0.723837	0.034853	0.014502
C48	C	0.723832	-0.016166	0.014510
O49	O	0.646155	-0.019558	0.056917
N50	N	0.815168	-0.068723	-0.035322
C51	C	0.906516	-0.070260	-0.085158
O52	O	0.984204	-0.119649	-0.127543
C53	C	0.906520	-0.019242	-0.085161
C54	C	0.815178	0.033314	-0.035332
C55	C	0.632502	0.087407	0.064327
C56	C	0.632507	0.138423	0.064318
C57	C	0.723848	0.136884	0.014483
C58	C	0.815183	0.084329	-0.035342
C59	C	0.997868	-0.020780	-0.134991
C60	C	0.997864	0.030243	-0.134989
C61	C	0.906522	0.082800	-0.085160
C62	C	0.906529	0.133806	-0.085186
N63	N	0.815193	0.186363	-0.035354
C64	C	0.723852	0.187902	0.014481
C65	C	0.906499	-0.177400	-0.085148
C66	C	0.906496	-0.228417	-0.085152
C67	C	0.723811	-0.174319	0.014518
C68	C	0.723816	-0.123301	0.014516
C69	C	0.815163	-0.124843	-0.035316
C70	C	0.723870	0.295035	0.014457
C71	C	0.723884	0.346053	0.014440
C72	C	0.906567	0.291950	-0.085226
C73	C	0.906555	0.240937	-0.085213
C74	C	0.815198	0.242483	-0.035365
O75	O	0.984166	0.137242	-0.127568
O76	O	0.646178	0.237292	0.056868
C77	C	1.059717	0.566423	-0.045988
C78	C	1.142707	0.569005	-0.049597
C79	C	0.793858	0.565124	-0.269248
C80	C	0.786618	0.567265	-0.348629
C81	C	0.815163	0.718815	-0.035323
C82	C	0.815155	0.773118	-0.035313
C83	C	0.773394	0.571188	-0.493985
C84	C	0.856980	0.546445	-0.576725
C85	C	0.849622	0.548627	-0.657606
C86	C	0.780750	0.569006	-0.413095
C87	C	0.836521	0.552507	0.198540
C88	C	0.843761	0.550366	0.277921
C89	C	0.570636	0.711208	-0.024689
C90	C	0.487637	0.762929	-0.021069
C91	C	0.591994	0.544900	0.209174
C92	C	0.516243	0.540177	0.292165
C93	C	0.591968	0.704900	0.209205
C94	C	0.516208	0.754479	0.292206
C95	C	1.038411	0.412732	-0.279913
C96	C	1.114171	0.363152	-0.362914
C97	C	1.059743	0.406423	-0.046019
C98	C	1.142742	0.354703	-0.049638
C99	C	1.038385	0.572731	-0.279882
C100	C	1.114136	0.577454	-0.362873
C101	C	0.444499	0.757206	-0.065056
C102	C	0.366522	0.805799	-0.061673
C103	C	0.331679	0.860114	-0.014298
C104	C	0.374825	0.865835	0.029690
C105	C	0.452806	0.817243	0.026301
C106	C	0.484831	0.567971	0.376824
C107	C	0.413667	0.563531	0.454809
C108	C	0.373911	0.531301	0.448133
C109	C	0.405330	0.503505	0.363465
C110	C	0.476498	0.507941	0.285481
C111	C	0.476460	0.810243	0.285517
C112	C	0.405287	0.856833	0.363498
C113	C	0.373857	0.847659	0.448166
C114	C	0.413612	0.791890	0.454853
C115	C	0.484790	0.745301	0.376873
C116	C	1.153928	0.307389	-0.356226
C117	C	1.225126	0.260799	-0.434207
C118	C	1.256560	0.269973	-0.518876
C119	C	1.216799	0.325742	-0.525562
C120	C	1.145608	0.372331	-0.447581
C121	C	1.185887	0.360426	-0.005660
C122	C	1.263884	0.311834	-0.009065
C123	C	1.298729	0.257520	-0.056443
C124	C	1.255580	0.251798	-0.100426
C125	C	1.177589	0.300389	-0.097027
C126	C	1.153870	0.609688	-0.356168
C127	C	1.225036	0.614137	-0.434138
C128	C	1.256472	0.586348	-0.518814
C129	C	1.216730	0.554112	-0.525517
C130	C	1.145560	0.549667	-0.447547
H131	H	0.649479	0.296303	0.055049
O132	O	0.341111	0.918557	0.075729
C133	C	0.395877	0.913195	0.113859
H134	H	0.471670	0.871099	0.074595
H135	H	0.409050	0.950285	0.110844
H136	H	0.351196	0.913866	0.186970
H137	H	0.696314	0.594009	-0.483894
O138	O	1.247258	0.527204	-0.607820
C139	C	1.223995	0.567963	-0.652850
H140	H	1.216851	0.608020	-0.623917
H141	H	1.286731	0.549395	-0.727642
H142	H	1.149595	0.579431	-0.643405
H143	H	1.283962	0.207569	-0.139001
H144	H	0.934067	0.523620	-0.586817
H145	H	0.315962	0.527693	0.511640
O146	O	0.328503	0.606453	-0.102118
C147	C	0.248431	0.663969	-0.064947
H148	H	0.188436	0.671117	0.007543
H149	H	0.278253	0.693105	-0.066325
H150	H	0.213858	0.674193	-0.106001
O151	O	0.506834	0.481019	0.203272
C152	C	0.422720	0.501657	0.197373
H153	H	0.360754	0.545945	0.247495
H154	H	0.446079	0.504384	0.126316
H155	H	0.393312	0.471331	0.213538
O156	O	0.494833	0.822706	0.068966
C157	C	0.571110	0.768174	0.055852
H158	H	0.599626	0.737069	-0.007332
H159	H	0.636215	0.770928	0.047796
H160	H	0.539172	0.752428	0.116484
H161	H	1.257386	0.640385	-0.428663
O162	O	0.478246	0.704493	-0.111153
C163	C	0.423423	0.709873	-0.149229
H164	H	0.390464	0.754648	-0.156865
H165	H	0.475876	0.676890	-0.218127
H166	H	0.359600	0.702432	-0.103486
H167	H	0.502039	0.817723	0.216584
H168	H	0.331401	0.801129	-0.097493
O169	O	0.301571	0.511333	0.031589
C170	C	0.198152	0.546352	0.100442
H171	H	0.163401	0.586983	0.082695
H172	H	0.158193	0.522327	0.107680
H173	H	0.189233	0.558064	0.166625
O174	O	0.543689	0.189423	0.112809
C175	C	0.463079	0.179829	0.156773
H176	H	0.491914	0.134926	0.164590
H177	H	0.402332	0.212555	0.226031
H178	H	0.429806	0.184249	0.115252
O179	O	0.635062	0.397057	0.062929
C180	C	0.554443	0.387470	0.106899
H181	H	0.583269	0.342570	0.114726
H182	H	0.493698	0.420201	0.176153
H183	H	0.521172	0.391888	0.065376
O184	O	1.123416	0.636744	-0.273989
C185	C	1.173773	0.666136	-0.284810
H186	H	1.199831	0.675115	-0.352765
H187	H	1.120145	0.708260	-0.228765
H188	H	1.242061	0.638802	-0.281649
H189	H	0.372950	0.477263	0.358042
H190	H	0.517193	0.594215	0.382277
H191	H	0.517144	0.699897	0.382331
H192	H	1.299004	0.316504	0.026756
H193	H	0.558117	0.088670	0.104913
O194	O	0.995167	-0.178825	-0.133628
C195	C	0.995055	-0.149295	-0.197999
H196	H	0.913886	-0.117614	-0.175191
H197	H	1.034985	-0.125244	-0.205297
H198	H	1.036201	-0.181149	-0.265559
O199	O	0.383225	0.590595	0.536980
C200	C	0.433589	0.619986	0.526140
H201	H	0.459639	0.628960	0.458182
H202	H	0.379968	0.662112	0.582179
H203	H	0.501882	0.592653	0.529294
H204	H	1.257487	0.215394	-0.428746
O205	O	1.107110	0.518304	-0.454229
C206	C	1.150109	0.494743	-0.545687
H207	H	1.225509	0.492103	-0.588888
H208	H	1.162629	0.450051	-0.556694
H209	H	1.096960	0.523023	-0.565435
H210	H	0.372924	0.902239	0.358038
O211	O	0.635000	-0.072300	0.063006
C212	C	0.554385	-0.081890	0.106968
H213	H	0.583214	-0.126793	0.114785
H214	H	0.493638	-0.049163	0.176225
H215	H	0.521114	-0.077468	0.065444
H216	H	0.649436	-0.173074	0.055094
H217	H	1.242402	0.333206	-0.594508
H218	H	1.128338	0.299908	-0.287291
O219	O	1.325651	0.590705	-0.594462
C220	C	1.353955	0.625128	-0.570374
H221	H	1.338740	0.624944	-0.500591
H222	H	1.437793	0.607513	-0.621324
H223	H	1.308223	0.670761	-0.569730
O224	O	0.255885	0.907252	-0.011062
C225	C	0.225304	0.890548	-0.060065
H226	H	0.246496	0.844211	-0.064434
H227	H	0.140050	0.919181	-0.024607
H228	H	0.264634	0.894744	-0.130775
H229	H	0.315898	0.885600	0.511655
O230	O	0.383090	0.783061	0.537150
C231	C	0.406344	0.810053	0.582190
H232	H	0.413477	0.845882	0.553268
H233	H	0.343609	0.828635	0.656982
H234	H	0.480747	0.777470	0.572741
H235	H	0.980875	-0.271207	-0.125738
H236	H	1.314529	0.232033	-0.582365
O237	O	1.374464	0.210378	-0.059613
C238	C	1.405081	0.227084	-0.010650
H239	H	1.341079	0.270751	0.040621
H240	H	1.424675	0.194357	0.025828
H241	H	1.474244	0.229652	-0.058803
O242	O	1.086658	-0.071788	-0.183517
C243	C	1.136633	-0.074132	-0.275206
H244	H	1.108783	-0.028849	-0.281503
H245	H	1.221447	-0.097487	-0.306975
H246	H	1.120080	-0.097954	-0.311282
O247	O	1.086675	0.028669	-0.183339
C248	C	1.147822	-0.001889	-0.152264
H249	H	1.123705	-0.031788	-0.117626
H250	H	1.230124	-0.028011	-0.211652
H251	H	1.139082	0.029419	-0.102389
O252	O	0.995374	0.189930	-0.133652
C253	C	1.075990	0.199516	-0.177668
H254	H	1.051267	0.243207	-0.140628
H255	H	1.143020	0.164931	-0.178134
H256	H	1.098873	0.198161	-0.249833
O257	O	1.106932	0.426537	-0.453926
C258	C	1.037342	0.465697	-0.366950
H259	H	1.054631	0.444887	-0.318053
H260	H	1.043612	0.505255	-0.368054
H261	H	0.957512	0.478617	-0.344411
O262	O	1.152197	0.413143	0.040375
C263	C	1.207000	0.407761	0.078472
H264	H	1.282779	0.365657	0.039197
H265	H	1.220205	0.444840	0.075438
H266	H	1.162334	0.408436	0.151587
O267	O	0.995205	0.290563	-0.133552
C268	C	0.975609	0.346865	-0.122884
H269	H	0.899151	0.376471	-0.057626
H270	H	1.037073	0.348062	-0.120300
H271	H	0.974759	0.361590	-0.182096
H272	H	1.142462	0.295721	-0.132837
