data_functionalizedCrystal
_audit_creation_method	'MofGen! by Chris Wilmer'
_symmetry_space_group_name_H-M	'P1'
_symmetry_Int_Tables_number	1
_symmetry_cell_setting	triclinic
loop_
_symmetry_equiv_pos_as_xyz
  x,y,z
_cell_length_a	19.805407
_cell_length_b	19.076808
_cell_length_c	19.805399
_cell_angle_alpha	92.327057
_cell_angle_beta	90.019573
_cell_angle_gamma	92.323385
loop_
_atom_site_label
_atom_site_type_symbol
_atom_site_fract_x
_atom_site_fract_y
_atom_site_fract_z
Zn1	Zn	1.023914	-0.280233	0.371886
Zn2	Zn	1.523914	0.219767	0.871886
Zn3	Zn	1.019283	-0.397938	0.254147
Zn4	Zn	1.519283	0.102062	0.754147
Zn5	Zn	0.910727	-0.280252	0.258710
Zn6	Zn	1.410727	0.219748	0.758710
Zn7	Zn	0.906148	-0.397901	0.367295
Zn8	Zn	1.406148	0.102099	0.867295
O9	O	0.965018	-0.339081	0.313009
O10	O	1.465018	0.160919	0.813009
O11	O	1.118016	-0.295854	0.356279
O12	O	1.618016	0.204146	0.856279
O13	O	1.004861	-0.382351	0.160035
O14	O	1.504861	0.117649	0.660035
O15	O	0.929597	-0.181753	0.277553
O16	O	1.429597	0.318247	0.777553
O17	O	1.114613	-0.382332	0.269777
O18	O	1.614613	0.117668	0.769777
O19	O	1.012754	-0.181739	0.360703
O20	O	1.512754	0.318261	0.860703
O21	O	0.925106	-0.295887	0.163387
O22	O	1.425106	0.204113	0.663387
O23	O	0.815404	-0.295851	0.273102
O24	O	1.315404	0.204149	0.773102
O25	O	0.921791	-0.382268	0.462622
O26	O	1.421791	0.117732	0.962622
O27	O	0.812039	-0.382287	0.352879
O28	O	1.312039	0.117713	0.852879
O29	O	1.008313	-0.295818	0.465994
O30	O	1.508313	0.204182	0.965994
O31	O	1.000421	-0.496429	0.265326
O32	O	1.500421	0.003571	0.765326
O33	O	0.917301	-0.496402	0.348455
O34	O	1.417301	0.003598	0.848455
C35	C	0.789162	-0.339067	0.312988
C36	C	1.289162	0.160933	0.812988
C37	C	0.713930	-0.339079	0.312994
C38	C	1.213930	0.160921	0.812994
C39	C	0.676849	-0.384154	0.354462
C40	C	1.176849	0.115846	0.854462
C41	C	0.606160	-0.384155	0.354471
C42	C	1.106160	0.115845	0.854471
C43	C	0.572554	-0.339084	0.313009
C44	C	1.072554	0.160916	0.813009
C45	C	0.609640	-0.294004	0.271540
C46	C	1.109640	0.205996	0.771540
C47	C	0.680328	-0.294000	0.271535
C48	C	1.180328	0.206000	0.771535
C49	C	0.324567	-0.294020	0.271562
C50	C	0.824567	0.205980	0.771562
C51	C	0.253874	-0.294029	0.271569
C52	C	0.753874	0.205971	0.771569
C53	C	0.250399	-0.384175	0.354498
C54	C	0.750399	0.115825	0.854498
C55	C	0.321086	-0.384170	0.354493
C56	C	0.821086	0.115830	0.854493
C57	C	0.358167	-0.339088	0.313027
C58	C	0.858167	0.160912	0.813027
C59	C	0.434815	-0.339086	0.313018
C60	C	0.934815	0.160914	0.813018
C61	C	0.495907	-0.339089	0.313014
C62	C	0.995907	0.160911	0.813014
C63	C	0.957879	-0.521955	0.305912
C64	C	1.457879	-0.021955	0.805912
C65	C	0.954888	-0.600189	0.302898
C66	C	1.454888	-0.100189	0.802898
C67	C	0.996745	-0.636876	0.344809
C68	C	1.496745	-0.136876	0.844809
C69	C	0.993931	-0.710385	0.341979
C70	C	1.493931	-0.210385	0.841979
C71	C	0.949263	-0.747206	0.297233
C72	C	1.449263	-0.247206	0.797233
C73	C	0.907400	-0.710515	0.255321
C74	C	1.407400	-0.210515	0.755321
C75	C	0.910211	-0.637007	0.258155
C76	C	1.410211	-0.137007	0.758155
C77	C	0.936213	-0.967059	0.284114
C78	C	1.436213	-0.467059	0.784114
C79	C	0.933407	-1.040572	0.281281
C80	C	1.433407	-0.540572	0.781281
C81	C	1.019937	-1.040437	0.367940
C82	C	1.519937	-0.540437	0.867940
C83	C	1.022747	-0.966928	0.370768
C84	C	1.522747	-0.466928	0.870768
C85	C	0.980882	-0.930243	0.328858
C86	C	1.480882	-0.430243	0.828858
N87	N	0.946387	-0.822345	0.294338
N88	N	1.446387	-0.322345	0.794338
N89	N	0.983755	-0.855106	0.331757
N90	N	1.483755	-0.355106	0.831757
C91	C	1.141560	-0.339095	0.313031
C92	C	1.641560	0.160905	0.813031
C93	C	1.216792	-0.339101	0.313041
C94	C	1.716792	0.160899	0.813041
C95	C	0.965058	-0.339037	0.489554
C96	C	1.465058	0.160963	0.989554
C97	C	0.965074	-0.339018	0.564787
C98	C	1.465074	0.160982	1.064787
C99	C	0.972203	-0.155493	0.320149
C100	C	1.472203	0.344507	0.820149
C101	C	0.975264	-0.077259	0.323192
C102	C	1.475264	0.422741	0.823192
C103	C	0.965019	-0.339074	0.137154
C104	C	1.465019	0.160926	0.637154
C105	C	0.965141	-0.338895	0.061929
C106	C	1.465141	0.161105	0.561929
C107	C	1.010128	-0.294001	0.601888
C108	C	1.510128	0.205999	1.101888
C109	C	1.010135	-0.293980	0.672577
C110	C	1.510135	0.206020	1.172577
C111	C	0.965093	-0.338981	0.706164
C112	C	1.465093	0.161019	1.206164
C113	C	0.920035	-0.384000	0.669057
C114	C	1.420035	0.116000	1.169057
C115	C	0.920024	-0.384016	0.598369
C116	C	1.420024	0.115984	1.098369
C117	C	0.920075	-0.383934	0.954133
C118	C	1.420075	0.116066	1.454133
C119	C	0.920091	-0.383916	1.024826
C120	C	1.420091	0.116084	1.524826
C121	C	1.010187	-0.293899	1.028341
C122	C	1.510187	0.206101	1.528341
C123	C	1.010176	-0.293915	0.957653
C124	C	1.510176	0.206085	1.457653
C125	C	0.965116	-0.338931	0.920553
C126	C	1.465116	0.161069	1.420553
C127	C	0.965107	-0.338951	0.843904
C128	C	1.465107	0.161049	1.343904
C129	C	0.965104	-0.338964	0.782812
C130	C	1.465104	0.161036	1.282812
H131	H	0.575972	-0.420860	0.388237
H132	H	1.075972	0.079140	0.888237
H133	H	0.876126	-0.607137	0.224028
H134	H	1.376126	-0.107137	0.724028
H135	H	0.354749	-0.257317	0.237792
H136	H	0.854749	0.242683	0.737792
O137	O	0.871459	-0.432486	0.914145
O138	O	1.371459	0.067514	1.414145
H139	H	0.900321	-0.468319	0.880541
H140	H	1.400321	0.031681	1.380541
H141	H	0.582273	-0.257304	0.237784
H142	H	1.082273	0.242696	0.737784
O143	O	1.065079	-1.080003	0.413153
O144	O	1.565079	-0.580003	0.913153
H145	H	1.055617	-1.137304	0.403673
H146	H	1.555617	-0.637304	0.903673
H147	H	1.046857	-0.257273	0.930311
H148	H	1.546857	0.242727	1.430311
O149	O	0.885222	-1.080291	0.233023
O150	O	1.385222	-0.580291	0.733023
H151	H	0.856577	-1.042433	0.204361
H152	H	1.356577	-0.542433	0.704361
O153	O	0.871431	-0.432568	0.558348
O154	O	1.371431	0.067432	1.058348
H155	H	0.838223	-0.401060	0.527369
H156	H	1.338223	0.098940	1.027369
O157	O	0.871447	-0.432534	0.705277
O158	O	1.371447	0.067466	1.205277
H159	H	0.879025	-0.424964	0.760665
H160	H	1.379025	0.075036	1.260665
O161	O	1.039078	-0.749957	0.387181
O162	O	1.539078	-0.249957	0.887181
H163	H	1.070616	-0.712003	0.418766
H164	H	1.570616	-0.212003	0.918766
O165	O	0.357330	-0.432780	0.399218
O166	O	0.857330	0.067220	0.899218
H167	H	0.390777	-0.401315	0.434916
H168	H	0.890777	0.098685	0.934916
O169	O	0.210407	-0.432794	0.399234
O170	O	0.710407	0.067206	0.899234
H171	H	0.155608	-0.425221	0.392282
H172	H	0.655608	0.074779	0.892282
H173	H	0.226514	-0.257323	0.237806
H174	H	0.726514	0.242677	0.737806
H175	H	1.046809	-0.257358	0.574547
H176	H	1.546809	0.242642	1.074547
H177	H	0.902127	-0.937196	0.249987
H178	H	1.402127	-0.437196	0.749987
H179	H	0.704206	-0.420858	0.388223
H180	H	1.204206	0.079142	0.888223
H181	H	1.046874	-0.257242	1.058557
H182	H	1.546874	0.242758	1.558557
H183	H	0.871028	-0.740500	0.218891
H184	H	1.371028	-0.240500	0.718891
O185	O	0.720328	-0.245392	0.226802
O186	O	1.220328	0.254608	0.726802
H187	H	0.685085	-0.214059	0.197964
H188	H	1.185085	0.285941	0.697964
H189	H	1.033122	-0.606900	0.381243
H190	H	1.533122	-0.106900	0.881243
O191	O	1.070926	-0.927219	0.419031
O192	O	1.570926	-0.427219	0.919031
H193	H	1.065854	-0.869940	0.413956
H194	H	1.565854	-0.369940	0.913956
O195	O	1.058732	-0.245431	0.712597
O196	O	1.558732	0.254569	1.212597
H197	H	1.090058	-0.214150	0.677366
H198	H	1.590058	0.285850	1.177366
H199	H	0.883409	-0.420562	1.052170
H200	H	1.383409	0.079438	1.552170
