data_functionalizedCrystal
_audit_creation_method	'MofGen! by Chris Wilmer'
_symmetry_space_group_name_H-M	'P1'
_symmetry_Int_Tables_number	1
_symmetry_cell_setting	triclinic
loop_
_symmetry_equiv_pos_as_xyz
  x,y,z
_cell_length_a	8.559649
_cell_length_b	10.868271
_cell_length_c	8.559649
_cell_angle_alpha	90.003438
_cell_angle_beta	69.778664
_cell_angle_gamma	90.004136
loop_
_atom_site_label
_atom_site_type_symbol
_atom_site_fract_x
_atom_site_fract_y
_atom_site_fract_z
O1	O	2.126881	0.102303	-0.055034
O2	O	2.626881	0.602303	0.444966
O3	O	1.651396	0.102308	0.028747
O4	O	2.151396	0.602308	0.528747
O5	O	1.931029	0.102304	-0.250886
O6	O	2.431029	0.602304	0.249114
O7	O	1.847248	0.102307	0.224599
O8	O	2.347248	0.602307	0.724599
O9	O	1.931010	-0.102341	-0.250893
O10	O	2.431010	0.397659	0.249107
O11	O	1.651377	-0.102337	0.028740
O12	O	2.151377	0.397663	0.528740
O13	O	2.126862	-0.102342	-0.055041
O14	O	2.626862	0.397658	0.444959
Zn15	Zn	1.889116	-0.134831	-0.013152
Zn16	Zn	2.389116	0.365169	0.486848
Zn17	Zn	1.889141	0.134797	-0.013142
Zn18	Zn	2.389141	0.634797	0.486858
O19	O	1.847229	-0.102338	0.224592
O20	O	2.347229	0.397662	0.724592
C21	C	1.591077	-0.000014	0.035093
C22	C	2.091077	0.499986	0.535093
C23	C	1.411378	-0.000012	0.053992
C24	C	1.911378	0.499988	0.553992
N25	N	1.889111	-0.318845	-0.013161
N26	N	2.389111	0.181155	0.486839
C27	C	1.889133	-0.569851	-0.013145
C28	C	2.389133	-0.069851	0.486855
C29	C	1.889115	-0.430174	-0.013148
C30	C	2.389115	0.069826	0.486852
C31	C	2.187180	-0.000017	-0.061387
C32	C	2.687180	0.499983	0.438613
C33	C	2.366879	-0.000011	-0.080286
C34	C	2.866879	0.499989	0.419714
C35	C	1.937369	-0.000016	-0.311198
C36	C	2.437369	0.499984	0.188802
C37	C	1.956268	-0.000010	-0.490898
C38	C	2.456268	0.499990	0.009102
N39	N	1.889161	0.318811	-0.013148
N40	N	2.389161	0.818811	0.486852
C41	C	1.840889	-0.000015	0.284904
C42	C	2.340889	0.499985	0.784904
C43	C	1.821990	-0.000013	0.464604
C44	C	2.321990	0.499987	0.964604
H45	H	1.466258	-0.000006	-0.209705
H46	H	1.966258	0.499994	0.290295
F47	F	1.281477	0.000000	0.223166
F48	F	1.781477	0.500000	0.723166
H49	H	1.692570	-0.000016	-0.436018
H50	H	2.192570	0.499984	0.063982
H51	H	2.085696	-0.000021	-0.590286
H52	H	2.585696	0.499979	-0.090286
