data_functionalizedCrystal
_audit_creation_method	'MofGen! by Chris Wilmer'
_symmetry_space_group_name_H-M	'P1'
_symmetry_Int_Tables_number	1
_symmetry_cell_setting	triclinic
loop_
_symmetry_equiv_pos_as_xyz
  x,y,z
_cell_length_a	17.699083
_cell_length_b	14.853559
_cell_length_c	16.176319
_cell_angle_alpha	89.995393
_cell_angle_beta	89.998611
_cell_angle_gamma	83.457234
loop_
_atom_site_label
_atom_site_type_symbol
_atom_site_fract_x
_atom_site_fract_y
_atom_site_fract_z
O1	O	1.004372	0.114009	-0.068627
O2	O	1.504372	0.614009	0.431373
O3	O	0.784031	0.128842	-0.068653
O4	O	1.284031	0.628842	0.431347
O5	O	0.900091	-0.009827	-0.068638
O6	O	1.400091	0.490173	0.431362
O7	O	0.888313	0.252677	-0.068641
O8	O	1.388313	0.752677	0.431359
O9	O	0.900075	-0.009836	0.068855
O10	O	1.400075	0.490164	0.568855
O11	O	0.784015	0.128833	0.068840
O12	O	1.284015	0.628833	0.568840
O13	O	1.004356	0.114000	0.068867
O14	O	1.504356	0.614000	0.568867
Cu15	Cu	0.894184	0.121416	0.081407
Cu16	Cu	1.394184	0.621416	0.581407
Cu17	Cu	0.894203	0.121426	-0.081194
Cu18	Cu	1.394203	0.621426	0.418806
O19	O	0.888297	0.252668	0.068852
O20	O	1.388297	0.752668	0.568852
C21	C	0.755825	0.128306	0.000090
C22	C	1.255825	0.628306	0.500090
C23	C	0.671803	0.126711	0.000080
C24	C	1.171803	0.626711	0.500080
C25	C	0.899550	-0.043418	0.000107
C26	C	1.399550	0.456582	0.500107
C27	C	0.897954	-0.143496	0.000102
C28	C	1.397954	0.356504	0.500102
C29	C	0.623391	0.208107	0.000079
C30	C	1.123391	0.708107	0.500079
C31	C	0.544444	0.206603	0.000090
C32	C	1.044444	0.706603	0.500090
C33	C	0.513910	0.123703	0.000095
C34	C	1.013910	0.623703	0.500095
C35	C	0.562328	0.042301	0.000098
C36	C	1.062328	0.542301	0.500098
C37	C	0.641274	0.043806	0.000094
C38	C	1.141274	0.543806	0.500094
C39	C	0.243949	0.036232	0.000119
C40	C	0.743949	0.536232	0.500119
C41	C	0.164998	0.034734	0.000121
C42	C	0.664998	0.534734	0.500121
C43	C	0.147120	0.199029	0.000115
C44	C	0.647120	0.699029	0.500115
C45	C	0.226065	0.200534	0.000110
C46	C	0.726065	0.700534	0.500110
C47	C	0.274476	0.119133	0.000118
C48	C	0.774476	0.619133	0.500118
C49	C	0.360080	0.120764	0.000108
C50	C	0.860080	0.620764	0.500108
C51	C	0.428308	0.122071	0.000099
C52	C	0.928308	0.622071	0.500099
C53	C	0.891193	-0.566642	-0.074847
C54	C	1.391193	-0.066642	0.425153
C55	C	0.891176	-0.566646	0.075054
C56	C	1.391176	-0.066646	0.575054
C57	C	0.892681	-0.472618	0.075055
C58	C	1.392681	0.027382	0.575055
C59	C	0.893442	-0.425598	0.000104
C60	C	1.393442	0.074402	0.500104
C61	C	0.892697	-0.472605	-0.074848
C62	C	1.392697	0.027395	0.425152
C63	C	0.893419	-0.425603	0.150005
C64	C	1.393419	0.074397	0.650005
C65	C	0.894924	-0.331569	0.150009
C66	C	1.394924	0.168431	0.650009
C67	C	0.895690	-0.284548	0.075057
C68	C	1.395690	0.215452	0.575057
C69	C	0.894945	-0.331561	0.000102
C70	C	1.394945	0.168439	0.500102
C71	C	0.895706	-0.284540	-0.074849
C72	C	1.395706	0.215460	0.425151
C73	C	0.894967	-0.331553	-0.149804
C74	C	1.394967	0.168447	0.350196
C75	C	0.893463	-0.425583	-0.149800
C76	C	1.393463	0.074417	0.350200
C77	C	0.897194	-0.190517	0.075053
C78	C	1.397194	0.309483	0.575053
C79	C	0.897209	-0.190503	-0.074850
C80	C	1.397209	0.309497	0.425150
C81	C	1.032562	0.114536	0.000122
C82	C	1.532562	0.614536	0.500122
C83	C	1.116584	0.116130	0.000126
C84	C	1.616584	0.616130	0.500126
C85	C	0.888837	0.286260	0.000105
C86	C	1.388837	0.786260	0.500105
C87	C	0.890433	0.386338	0.000104
C88	C	1.390433	0.886338	0.500104
N89	N	0.894176	0.121408	0.195773
N90	N	1.394176	0.621408	0.695773
N91	N	0.894217	0.121427	-0.195559
N92	N	1.394217	0.621427	0.304441
C93	C	0.945583	0.060030	0.239043
C94	C	1.445583	0.560030	0.739043
C95	C	0.945587	0.060029	0.325591
C96	C	1.445587	0.560029	0.825591
C97	C	0.894187	0.121411	0.368865
C98	C	1.394187	0.621411	0.868865
C99	C	0.842775	0.182791	0.325588
C100	C	1.342775	0.682791	0.825588
C101	C	0.842768	0.182787	0.239043
C102	C	1.342768	0.682787	0.739043
C103	C	0.842801	0.182808	0.674617
C104	C	1.342801	0.682808	1.174617
C105	C	0.842813	0.182809	0.761168
C106	C	1.342813	0.682809	1.261168
C107	C	0.945619	0.060050	0.761164
C108	C	1.445619	0.560050	1.261164
C109	C	0.945613	0.060046	0.674619
C110	C	1.445613	0.560046	1.174619
C111	C	0.894198	0.121423	0.631350
C112	C	1.394198	0.621423	1.131350
C113	C	0.894194	0.121422	0.537505
C114	C	1.394194	0.621422	1.037505
C115	C	0.894195	0.121417	0.462708
C116	C	1.394195	0.621417	0.962708
H117	H	0.505030	0.272883	0.000088
H118	H	1.005030	0.772883	0.500088
C119	C	0.786257	0.250315	0.808769
C120	C	1.286257	0.750315	1.308769
H121	H	0.755628	0.286860	0.770605
H122	H	1.255628	0.786860	1.270605
H123	H	0.813510	0.287813	0.842528
H124	H	1.313510	0.787813	1.342528
H125	H	0.754731	0.217909	0.842533
H126	H	1.254731	0.717909	1.342533
C127	C	0.131412	-0.056460	0.000135
C128	C	0.631412	0.443540	0.500135
H129	H	0.171550	-0.104725	0.000148
H130	H	0.671550	0.395275	0.500148
H131	H	0.100986	-0.060464	-0.047809
H132	H	0.600986	0.439536	0.452191
H133	H	0.100988	-0.060454	0.048091
H134	H	0.600988	0.439546	0.548091
C135	C	0.259652	0.291721	0.000102
C136	C	0.759652	0.791721	0.500102
H137	H	0.313603	0.280958	0.000091
H138	H	0.813603	0.780958	0.500091
H139	H	0.243043	0.325228	0.048047
H140	H	0.743043	0.825228	0.548047
H141	H	0.243039	0.325228	-0.047852
H142	H	0.743039	0.825228	0.452148
C143	C	0.786224	0.250302	0.191441
C144	C	1.286224	0.750302	0.691441
H145	H	0.793576	0.241503	0.133701
H146	H	1.293576	0.741503	0.633701
H147	H	0.794501	0.310461	0.205615
H148	H	1.294501	0.810461	0.705615
H149	H	0.735704	0.240579	0.205633
H150	H	1.235704	0.740579	0.705633
H151	H	0.890595	-0.604924	-0.135874
H152	H	1.390595	-0.104924	0.364126
H153	H	0.800921	0.232766	0.360828
H154	H	1.300921	0.732766	0.860828
H155	H	0.892796	-0.463893	0.211026
H156	H	1.392796	0.036107	0.711026
C157	C	0.786269	0.250340	0.627027
C158	C	1.286269	0.750340	1.127027
H159	H	0.793621	0.241551	0.569286
H160	H	1.293621	0.741551	1.069286
H161	H	0.794563	0.310491	0.641212
H162	H	1.294563	0.810491	1.141212
H163	H	0.735743	0.240637	0.641214
H164	H	1.235743	0.740637	1.141214
C165	C	0.093866	0.288570	0.000118
C166	C	0.593866	0.788570	0.500118
H167	H	0.042475	0.275806	0.000131
H168	H	0.542475	0.775806	0.500131
H169	H	0.103127	0.322572	-0.047832
H170	H	0.603127	0.822572	0.452168
H171	H	0.103135	0.322566	0.048068
H172	H	0.603135	0.822566	0.548068
H173	H	0.987482	0.010071	0.796403
H174	H	1.487482	0.510071	1.296403
C175	C	1.002127	-0.007482	0.191445
C176	C	1.502127	0.492518	0.691445
H177	H	0.994769	0.001312	0.133704
H178	H	1.494769	0.501312	0.633704
H179	H	0.993857	-0.067641	0.205634
H180	H	1.493857	0.432359	0.705634
H181	H	1.052648	0.002247	0.205625
H182	H	1.552648	0.502247	0.705625
C183	C	0.895802	-0.279828	-0.232247
C184	C	1.395802	0.220172	0.267753
H185	H	0.895143	-0.321288	-0.276889
H186	H	1.395143	0.178712	0.223111
H187	H	0.940487	-0.250113	-0.235353
H188	H	1.440487	0.249887	0.264647
H189	H	0.852279	-0.236177	-0.235365
H190	H	1.352279	0.263823	0.264635
C191	C	0.898045	-0.138788	-0.157298
C192	C	1.398045	0.361212	0.342702
H193	H	0.897384	-0.180255	-0.201933
H194	H	1.397384	0.319745	0.298067
H195	H	0.942730	-0.109075	-0.160409
H196	H	1.442730	0.390925	0.339591
H197	H	0.854522	-0.095136	-0.160420
H198	H	1.354522	0.404864	0.339580
C199	C	0.656971	0.299298	0.000072
C200	C	1.156971	0.799298	0.500072
H201	H	0.616829	0.347558	0.000081
H202	H	1.116829	0.847558	0.500081
H203	H	0.687395	0.303305	-0.047876
H204	H	1.187395	0.803305	0.452124
H205	H	0.687397	0.303296	0.048024
H206	H	1.187397	0.803296	0.548024
C207	C	0.297195	-0.053303	0.000115
C208	C	0.797195	0.446697	0.500115
H209	H	0.348586	-0.040540	0.000119
H210	H	0.848586	0.459460	0.500119
H211	H	0.287927	-0.087296	-0.047832
H212	H	0.787927	0.412704	0.452168
H213	H	0.287930	-0.087306	0.048068
H214	H	0.787930	0.412694	0.548068
C215	C	0.528743	-0.048887	0.000103
C216	C	1.028743	0.451113	0.500103
H217	H	0.474792	-0.038127	0.000097
H218	H	0.974792	0.461873	0.500097
H219	H	0.545355	-0.082399	0.048049
H220	H	1.045355	0.417601	0.548049
H221	H	0.545355	-0.082388	-0.047851
H222	H	1.045355	0.417612	0.452149
H223	H	0.680691	-0.022475	0.000094
H224	H	1.180691	0.477525	0.500094
C225	C	0.892640	-0.477296	-0.232241
C226	C	1.392640	0.022704	0.267759
H227	H	0.891626	-0.540030	-0.221504
H228	H	1.391626	-0.040030	0.278496
H229	H	0.936989	-0.468864	-0.263037
H230	H	1.436989	0.031136	0.236963
H231	H	0.848782	-0.454906	-0.263037
H232	H	1.348782	0.045094	0.236963
H233	H	0.890552	-0.604935	0.136075
H234	H	1.390552	-0.104935	0.636075
H235	H	0.895528	-0.293300	0.211042
H236	H	1.395528	0.206700	0.711042
C237	C	1.002131	-0.007485	0.373189
C238	C	1.502131	0.492515	0.873189
H239	H	0.994769	0.001298	0.430930
H240	H	1.494769	0.501298	0.930930
H241	H	1.052650	0.002230	0.359001
H242	H	1.552650	0.502230	0.859001
H243	H	0.993848	-0.067645	0.359009
H244	H	1.493848	0.432355	0.859009
C245	C	0.898005	-0.138807	0.157493
C246	C	1.398005	0.361193	0.657493
H247	H	0.897338	-0.180278	0.202130
H248	H	1.397338	0.319722	0.702130
H249	H	0.854491	-0.095149	0.160599
H250	H	1.354491	0.404851	0.660599
H251	H	0.942699	-0.109104	0.160617
H252	H	1.442699	0.390896	0.660617
H253	H	0.987469	0.010067	0.639387
H254	H	1.487469	0.510067	1.139387
