data_functionalizedCrystal
_audit_creation_method	'MofGen! by Chris Wilmer'
_symmetry_space_group_name_H-M	'P1'
_symmetry_Int_Tables_number	1
_symmetry_cell_setting	triclinic
loop_
_symmetry_equiv_pos_as_xyz
  x,y,z
_cell_length_a	6.817900
_cell_length_b	16.418049
_cell_length_c	10.943624
_cell_angle_alpha	93.819405
_cell_angle_beta	108.838799
_cell_angle_gamma	103.389670
loop_
_atom_site_label
_atom_site_type_symbol
_atom_site_fract_x
_atom_site_fract_y
_atom_site_fract_z
V1	V	-4.087790	-0.115864	-0.403006
O2	O	-4.074541	0.005590	-0.394866
O3	O	-4.038505	-0.229761	-0.400699
O4	O	-4.066181	-0.114072	-0.578565
O5	O	-4.046673	-0.110899	-0.215769
V6	V	-4.568061	-0.101338	-0.380556
O7	O	-4.356181	-0.147728	-0.452251
O8	O	-4.749866	-0.069474	-0.331311
O9	O	-4.394139	0.012559	-0.382862
O10	O	-4.698706	-0.222792	-0.388695
O11	O	-4.726574	-0.106303	-0.567792
O12	O	-4.366463	-0.103130	-0.204997
C13	C	-3.882423	-0.257527	-0.394458
C14	C	-3.923593	-0.350638	-0.393742
C15	C	-4.201363	-0.569128	-0.398579
C16	C	-4.240036	-0.656617	-0.397918
C17	C	-3.873846	-0.648074	-0.384991
C18	C	-3.835181	-0.560587	-0.385662
C19	C	-3.998943	-0.521116	-0.392449
C20	C	-4.076282	-0.696092	-0.391118
C21	C	-4.118211	-0.790951	-0.390401
C22	C	-3.957012	-0.426250	-0.393168
C23	C	-3.917726	-0.109953	-0.621342
C24	C	-3.981336	-0.109241	-0.764865
C25	C	-3.827312	-0.104449	-0.841994
C26	C	-3.999661	-0.175581	-0.948263
C27	C	-3.922353	-0.036850	-0.914332
C28	C	-4.152880	-0.180440	-0.869258
C29	C	-4.075506	-0.041646	-0.835303
C30	C	-4.247988	-0.112798	-0.941543
C31	C	-4.213562	0.040320	-0.389100
C32	C	-4.151632	0.133431	-0.389824
C33	C	-4.178259	-0.107252	-0.162213
C34	C	-4.093887	-0.107959	-0.018688
H35	H	-4.404865	-0.695705	-0.402912
C36	C	-3.612504	-0.507769	-0.378913
H37	H	-3.520501	-0.543804	-0.374755
H38	H	-3.627066	-0.481109	-0.454574
H39	H	-3.552557	-0.465817	-0.303226
H40	H	-4.106824	0.014979	-0.786097
C41	C	-3.693712	-0.691489	-0.377511
H42	H	-3.567624	-0.650364	-0.373968
H43	H	-3.663926	-0.717793	-0.301311
H44	H	-3.738445	-0.733088	-0.452659
C45	C	-3.586345	-0.099810	-0.783263
H46	H	-3.559262	-0.147477	-0.822318
H47	H	-3.504124	-0.049304	-0.799533
H48	H	-3.547005	-0.099806	-0.691695
C49	C	-4.489072	-0.117588	-0.999997
H50	H	-4.571083	-0.168608	-0.984924
H51	H	-4.516671	-0.070488	-0.959806
H52	H	-4.528205	-0.116642	-1.091345
C53	C	-3.957248	-0.252066	-1.014706
H54	H	-3.808294	-0.249028	-0.980438
H55	H	-4.037739	-0.303009	-0.998480
H56	H	-3.999504	-0.251333	-1.106194
H57	H	-4.249735	-0.241191	-0.848952
C58	C	-3.791532	0.045138	-0.941984
H59	H	-3.642677	0.048001	-0.907732
H60	H	-3.834108	0.045266	-1.033613
H61	H	-3.817068	0.092729	-0.901635
H62	H	-4.334711	-0.536993	-0.404104
