data_functionalizedCrystal
_audit_creation_method	'MofGen! by Chris Wilmer'
_symmetry_space_group_name_H-M	'P1'
_symmetry_Int_Tables_number	1
_symmetry_cell_setting	triclinic
loop_
_symmetry_equiv_pos_as_xyz
  x,y,z
_cell_length_a	17.038272
_cell_length_b	17.038272
_cell_length_c	15.500227
_cell_angle_alpha	93.033254
_cell_angle_beta	86.956295
_cell_angle_gamma	91.111556
loop_
_atom_site_label
_atom_site_type_symbol
_atom_site_fract_x
_atom_site_fract_y
_atom_site_fract_z
O1	O	1.052160	0.167139	-0.071836
O2	O	1.385493	0.500472	0.261497
O3	O	1.718827	0.833806	0.594830
O4	O	0.824350	0.164430	-0.071862
O5	O	1.157683	0.497763	0.261472
O6	O	1.491016	0.831097	0.594805
O7	O	0.936901	0.051879	-0.071842
O8	O	1.270234	0.385212	0.261491
O9	O	1.603567	0.718546	0.594824
O10	O	0.939609	0.279690	-0.071856
O11	O	1.272942	0.613023	0.261478
O12	O	1.606276	0.946357	0.594811
O13	O	0.930069	0.058680	0.072045
O14	O	1.263402	0.392014	0.405379
O15	O	1.596735	0.725347	0.738712
O16	O	0.817518	0.171231	0.072026
O17	O	1.150851	0.504564	0.405359
O18	O	1.484185	0.837898	0.738693
O19	O	1.045328	0.173940	0.072051
O20	O	1.378662	0.507274	0.405385
O21	O	1.711995	0.840607	0.738718
Cu22	Cu	0.930799	0.173207	0.085177
Cu23	Cu	1.264133	0.506540	0.418510
Cu24	Cu	1.597466	0.839873	0.751843
Cu25	Cu	0.938879	0.165164	-0.084987
Cu26	Cu	1.272212	0.498497	0.248346
Cu27	Cu	1.605545	0.831830	0.581680
O28	O	0.932777	0.286491	0.072032
O29	O	1.266111	0.619824	0.405365
O30	O	1.599444	0.953158	0.738699
C31	C	0.791641	0.165368	0.000079
C32	C	1.124975	0.498701	0.333412
C33	C	1.458308	0.832034	0.666746
C34	C	0.704358	0.158019	0.000069
C35	C	1.037691	0.491352	0.333403
C36	C	1.371025	0.824686	0.666736
C37	C	0.658749	0.225482	0.000066
C38	C	0.992082	0.558816	0.333399
C39	C	1.325416	0.892149	0.666733
C40	C	0.576737	0.218574	0.000078
C41	C	0.910070	0.551907	0.333412
C42	C	1.243403	0.885241	0.666745
C43	C	0.540335	0.144201	0.000088
C44	C	0.873668	0.477535	0.333421
C45	C	1.207002	0.810868	0.666755
C46	C	0.585950	0.076733	0.000094
C47	C	0.919283	0.410066	0.333427
C48	C	1.252617	0.743400	0.666760
C49	C	0.667961	0.083642	0.000088
C50	C	1.001294	0.416976	0.333421
C51	C	1.334627	0.750309	0.666754
C52	C	0.292946	0.119792	0.000112
C53	C	0.626279	0.453125	0.333446
C54	C	0.959613	0.786459	0.666779
C55	C	0.210929	0.112887	0.000116
C56	C	0.544263	0.446221	0.333449
C57	C	0.877596	0.779554	0.666783
C58	C	0.201721	0.254729	0.000102
C59	C	0.535055	0.588063	0.333436
C60	C	0.868388	0.921396	0.666769
C61	C	0.283734	0.261632	0.000091
C62	C	0.617068	0.594965	0.333424
C63	C	0.950401	0.928299	0.666758
C64	C	0.329342	0.194164	0.000101
C65	C	0.662675	0.527497	0.333435
C66	C	0.996009	0.860830	0.666768
C67	C	0.456505	0.137138	0.000098
C68	C	0.789839	0.470471	0.333431
C69	C	1.123172	0.803805	0.666764
C70	C	0.413170	0.201228	0.000098
C71	C	0.746503	0.534561	0.333431
C72	C	1.079836	0.867895	0.666764
C73	C	0.931022	0.025987	0.000101
C74	C	1.264355	0.359320	0.333434
C75	C	1.597688	0.692654	0.666768
C76	C	0.923674	-0.061297	0.000100
C77	C	1.257007	0.272037	0.333433
C78	C	1.590340	0.605370	0.666767
C79	C	0.991137	-0.106906	0.000108
C80	C	1.324470	0.226428	0.333442
C81	C	1.657804	0.559761	0.666775
C82	C	0.984229	-0.188918	0.000100
C83	C	1.317562	0.144415	0.333433
C84	C	1.650895	0.477749	0.666766
C85	C	0.909856	-0.225320	0.000088
C86	C	1.243189	0.108014	0.333422
C87	C	1.576522	0.441347	0.666755
C88	C	0.842388	-0.179705	0.000077
C89	C	1.175721	0.153629	0.333411
C90	C	1.509054	0.486962	0.666744
C91	C	0.849297	-0.097694	0.000080
C92	C	1.182631	0.235639	0.333413
C93	C	1.515964	0.568972	0.666747
C94	C	0.885446	-0.472708	0.000074
C95	C	1.218779	-0.139375	0.333407
C96	C	1.552113	0.193959	0.666740
C97	C	0.878541	-0.554725	0.000074
C98	C	1.211875	-0.221391	0.333407
C99	C	1.545208	0.111942	0.666740
C100	C	1.020383	-0.563932	0.000094
C101	C	1.353716	-0.230599	0.333427
C102	C	1.687050	0.102734	0.666761
C103	C	1.027286	-0.481919	0.000102
C104	C	1.360619	-0.148586	0.333435
C105	C	1.693952	0.184747	0.666769
C106	C	0.959818	-0.436312	0.000087
C107	C	1.293151	-0.102979	0.333420
C108	C	1.626484	0.230355	0.666753
C109	C	0.902792	-0.309149	0.000082
C110	C	1.236126	0.024184	0.333415
C111	C	1.569459	0.357518	0.666749
C112	C	0.966882	-0.352484	0.000087
C113	C	1.300216	-0.019151	0.333420
C114	C	1.633549	0.314182	0.666754
C115	C	1.078037	0.173003	0.000109
C116	C	1.411370	0.506336	0.333442
C117	C	1.744703	0.839669	0.666775
C118	C	1.165320	0.180351	0.000113
C119	C	1.498654	0.513684	0.333446
C120	C	1.831987	0.847018	0.666779
C121	C	0.938656	0.312383	0.000087
C122	C	1.271990	0.645717	0.333420
C123	C	1.605323	0.979050	0.666753
C124	C	0.946004	0.399667	0.000082
C125	C	1.279338	0.733000	0.333415
C126	C	1.612671	1.066333	0.666749
N127	N	0.925122	0.178864	0.204861
N128	N	1.258456	0.512197	0.538194
N129	N	1.591789	0.845530	0.871527
N130	N	0.944561	0.159501	-0.204671
N131	N	1.277895	0.492834	0.128662
N132	N	1.611228	0.826167	0.461996
C133	C	0.972833	0.131192	0.250145
C134	C	1.306166	0.464525	0.583479
C135	C	1.639500	0.797859	0.916812
C136	C	0.968547	0.135478	0.340718
C137	C	1.301881	0.468811	0.674051
C138	C	1.635214	0.802145	1.007384
C139	C	0.916555	0.187440	0.386003
C140	C	1.249888	0.520774	0.719336
C141	C	1.583221	0.854107	1.052670
C142	C	0.868839	0.235114	0.340712
C143	C	1.202172	0.568447	0.674045
C144	C	1.535505	0.901781	1.007379
C145	C	0.873121	0.230823	0.250142
C146	C	1.206454	0.564157	0.583475
C147	C	1.539787	0.897490	0.916808
C148	C	0.901128	0.202884	0.659467
C149	C	1.234461	0.536217	0.992801
C150	C	1.567794	0.869550	1.326134
C151	C	0.896851	0.207172	0.750044
C152	C	1.230184	0.540506	1.083378
C153	C	1.563517	0.873839	1.416711
C154	C	0.996559	0.107535	0.750044
C155	C	1.329892	0.440868	1.083377
C156	C	1.663226	0.774202	1.416710
C157	C	1.000840	0.103252	0.659471
C158	C	1.334173	0.436586	0.992805
C159	C	1.667507	0.769919	1.326138
C160	C	0.953121	0.150923	0.614188
C161	C	1.286454	0.484256	0.947521
C162	C	1.619788	0.817590	1.280855
C163	C	0.912174	0.191824	0.478582
C164	C	1.245508	0.525158	0.811916
C165	C	1.578841	0.858491	1.145249
C166	C	0.957498	0.146534	0.521610
C167	C	1.290831	0.479868	0.854944
C168	C	1.624164	0.813201	1.188277
H169	H	0.556305	0.016177	0.000114
H170	H	0.889638	0.349511	0.333447
H171	H	1.222972	0.682844	0.666780
F172	F	1.056177	0.047949	0.611276
F173	F	1.389510	0.381283	0.944610
F174	F	1.722844	0.714616	1.277943
F175	F	1.028176	0.075890	0.201958
F176	F	1.361509	0.409223	0.535291
F177	F	1.694842	0.742556	0.868624
H178	H	0.688381	0.286045	0.000058
H179	H	1.021714	0.619378	0.333391
H180	H	1.355047	0.952711	0.666724
H181	H	0.705095	0.028706	0.000090
H182	H	1.038428	0.362039	0.333423
H183	H	1.371762	0.695373	0.666756
H184	H	0.817974	-0.584359	0.000078
H185	H	1.151308	-0.251026	0.333412
H186	H	1.484641	0.082308	0.666745
F187	F	0.823641	-0.347898	0.000066
F188	F	1.156975	-0.014564	0.333400
F189	F	1.490308	0.318769	0.666733
F190	F	0.451912	0.280379	0.000091
F191	F	0.785246	0.613712	0.333424
F192	F	1.118579	0.947045	0.666758
F193	F	0.417757	0.057987	0.000105
F194	F	0.751090	0.391320	0.333438
F195	F	1.084424	0.724653	0.666771
F196	F	1.092182	-0.612476	0.000110
F197	F	1.425515	-0.279143	0.333443
F198	F	1.758849	0.054190	0.666776
F199	F	0.841510	0.262483	0.798235
F200	F	1.174843	0.595816	1.131568
F201	F	1.508177	0.929150	1.464902
H202	H	0.794361	-0.060560	0.000073
H203	H	1.127695	0.272773	0.333406
H204	H	1.461028	0.606107	0.666740
H205	H	1.007397	0.096659	0.377588
H206	H	1.340730	0.429993	0.710921
H207	H	1.674063	0.763326	1.044255
F208	F	1.047340	0.056802	0.798243
F209	F	1.380673	0.390135	1.131576
F210	F	1.714006	0.723468	1.464909
H211	H	1.051699	-0.077273	0.000123
H212	H	1.385032	0.256060	0.333456
H213	H	1.718366	0.589393	0.666790
H214	H	0.862274	0.241701	0.622605
H215	H	1.195608	0.575034	0.955938
H216	H	1.528941	0.908367	1.289271
H217	H	0.869842	0.234135	0.515461
H218	H	1.203175	0.567468	0.848795
H219	H	1.536509	0.900801	1.182128
H220	H	0.826501	0.277420	0.377589
H221	H	1.159834	0.610753	0.710922
H222	H	1.493167	0.944087	1.044255
F223	F	1.012828	0.091231	0.473413
F224	F	1.346161	0.424564	0.806747
F225	F	1.679494	0.757897	1.140080
F226	F	0.813639	-0.424180	0.000055
F227	F	1.146973	-0.090846	0.333388
F228	F	1.480306	0.242487	0.666722
H229	H	0.539605	0.273510	0.000075
H230	H	0.872938	0.606844	0.333408
H231	H	1.206272	0.940177	0.666741
F232	F	0.322470	0.340789	0.000076
F233	F	0.655803	0.674123	0.333410
F234	F	0.989136	1.007456	0.666743
F235	F	0.822338	0.281560	0.201947
F236	F	1.155671	0.614894	0.535281
F237	F	1.489004	0.948227	0.868614
F238	F	0.153177	0.326529	0.000093
F239	F	0.486510	0.659862	0.333426
F240	F	0.819844	0.993195	0.666760
H241	H	1.027437	-0.322844	0.000077
H242	H	1.360770	0.010490	0.333410
H243	H	1.694104	0.343823	0.666744
H244	H	0.181294	0.052321	0.000123
H245	H	0.514628	0.385654	0.333456
H246	H	0.847961	0.718988	0.666789
H247	H	0.330070	0.064854	0.000122
H248	H	0.663403	0.398187	0.333455
H249	H	0.996737	0.731521	0.666788
F250	F	1.056033	-0.237455	0.000110
F251	F	1.389366	0.095879	0.333443
F252	F	1.722699	0.429212	0.666777
F253	F	0.763235	-0.218449	0.000056
F254	F	1.096568	0.114885	0.333389
F255	F	1.429901	0.448218	0.666722
F256	F	1.106444	-0.443185	0.000092
F257	F	1.439778	-0.109852	0.333425
F258	F	1.773111	0.223481	0.666759
