data_functionalizedCrystal
_audit_creation_method	'MofGen! by Chris Wilmer'
_symmetry_space_group_name_H-M	'P1'
_symmetry_Int_Tables_number	1
_symmetry_cell_setting	triclinic
loop_
_symmetry_equiv_pos_as_xyz
  x,y,z
_cell_length_a	16.992694
_cell_length_b	19.188930
_cell_length_c	16.053802
_cell_angle_alpha	92.551696
_cell_angle_beta	87.249047
_cell_angle_gamma	86.906503
loop_
_atom_site_label
_atom_site_type_symbol
_atom_site_fract_x
_atom_site_fract_y
_atom_site_fract_z
O1	O	1.043197	0.145267	-0.069340
O2	O	0.814918	0.143642	-0.069364
O3	O	0.935644	0.043185	-0.069335
O4	O	0.922471	0.245724	-0.069369
O5	O	0.928999	0.048690	0.069522
O6	O	0.808273	0.149147	0.069493
O7	O	1.036552	0.150772	0.069517
Zn8	Zn	0.921357	0.150834	0.091552
Zn9	Zn	0.930113	0.143581	-0.091399
O10	O	0.915826	0.251229	0.069488
C11	C	0.782390	0.144306	0.000061
C12	C	0.695368	0.138072	0.000053
C13	C	0.644922	0.198212	0.000043
C14	C	0.563155	0.192351	0.000056
C15	C	0.531836	0.126351	0.000072
C16	C	0.582288	0.066208	0.000084
C17	C	0.664054	0.072069	0.000077
C18	C	0.288320	0.102059	0.000098
C19	C	0.206548	0.096203	0.000102
C20	C	0.187420	0.222347	0.000076
C21	C	0.269188	0.228202	0.000064
C22	C	0.319633	0.168059	0.000081
N23	N	0.448257	0.120359	0.000082
N24	N	0.403210	0.174051	0.000076
C25	C	0.931895	0.019902	0.000096
C26	C	0.930614	-0.057677	0.000103
C27	C	1.001452	-0.098456	0.000114
C28	C	1.000250	-0.171350	0.000101
C29	C	0.928204	-0.203463	0.000093
C30	C	0.857356	-0.162676	0.000076
C31	C	0.858561	-0.089783	0.000081
N32	N	0.870872	-0.312817	0.047342
N33	N	0.869732	-0.382063	0.047339
C34	C	0.924569	-0.423085	0.000075
N35	N	0.980600	-0.392247	-0.047175
N36	N	0.981742	-0.322995	-0.047168
C37	C	0.926889	-0.282503	0.000086
C38	C	0.994108	-0.542905	0.000071
C39	C	0.992903	-0.615801	0.000052
C40	C	0.850007	-0.607124	0.000036
C41	C	0.851215	-0.534230	0.000046
C42	C	0.923267	-0.502125	0.000068
C43	C	1.069080	0.150109	0.000090
C44	C	1.156102	0.156342	0.000093
C45	C	0.919575	0.274513	0.000055
C46	C	0.920856	0.352091	0.000043
N47	N	0.915388	0.155784	0.216410
N48	N	0.936088	0.138625	-0.216258
C49	C	0.966776	0.113057	0.260117
C50	C	0.962607	0.116526	0.347523
C51	C	0.907054	0.162727	0.391220
C52	C	0.855661	0.205456	0.347508
C53	C	0.859826	0.201983	0.260104
C54	C	0.888860	0.177881	0.652626
C55	C	0.884700	0.181353	0.740036
C56	C	0.991646	0.092421	0.740045
C57	C	0.995810	0.088955	0.652639
C58	C	0.944414	0.131681	0.608934
N59	N	0.902794	0.166276	0.480563
N60	N	0.948671	0.128128	0.519593
H61	H	0.181053	0.042455	0.000114
H62	H	0.839460	0.218978	0.775611
C63	C	1.055856	0.038709	0.604933
C64	C	1.106165	0.076340	0.554487
C65	C	1.161336	0.029991	0.510437
H66	H	1.029083	0.006868	0.570937
H67	H	1.085942	0.013588	0.643274
H68	H	1.076083	0.101448	0.516150
H69	H	1.132957	0.108177	0.588462
H70	H	1.191422	0.004870	0.548779
H71	H	1.134556	-0.001847	0.476446
H72	H	1.195481	0.055517	0.476210
C73	C	0.795303	0.255508	0.395058
C74	C	0.745069	0.217615	0.445274
C75	C	0.689465	0.263701	0.489096
H76	H	0.765211	0.280477	0.356606
H77	H	0.821754	0.287500	0.429188
H78	H	0.718619	0.185635	0.411146
H79	H	0.775138	0.192648	0.483741
H80	H	0.715917	0.295694	0.523226
H81	H	0.659379	0.288668	0.450637
H82	H	0.655379	0.237999	0.523178
C83	C	1.072251	-0.507909	0.000126
C84	C	1.058145	-0.435343	0.000156
C85	C	1.130110	-0.403084	0.000218
H86	H	1.103785	-0.523465	-0.048283
H87	H	1.099100	-0.519687	0.048569
H88	H	1.031308	-0.423570	-0.048282
H89	H	1.026623	-0.419766	0.048561
H90	H	1.156958	-0.414862	0.048661
H91	H	1.161638	-0.418646	-0.048192
H92	H	1.120548	-0.353844	0.000246
H93	H	1.050591	-0.649002	0.000057
H94	H	0.791346	-0.633270	0.000025
H95	H	0.329383	0.053086	0.000112
C96	C	0.833022	0.224355	0.605333
C97	C	0.783499	0.265573	0.662312
C98	C	0.732056	0.308402	0.618773
H99	H	0.802025	0.196130	0.571247
H100	H	0.862723	0.253686	0.571240
H101	H	0.753801	0.236245	0.696391
H102	H	0.814475	0.293812	0.696400
H103	H	0.761757	0.337733	0.584681
H104	H	0.701064	0.280171	0.584690
H105	H	0.698453	0.336378	0.657427
H106	H	0.556782	0.012469	0.000109
H107	H	0.817980	0.236775	0.224519
C108	C	1.026999	0.062763	0.212744
C109	C	1.013475	-0.005695	0.234039
C110	C	1.068929	-0.052054	0.190421
H111	H	1.078644	0.073760	0.227030
H112	H	1.022134	0.066748	0.154417
H113	H	1.018348	-0.009678	0.292354
H114	H	0.961841	-0.016714	0.219751
H115	H	1.064064	-0.048069	0.132093
H116	H	1.120570	-0.041051	0.204711
H117	H	1.059756	-0.098508	0.204858
H118	H	0.793530	-0.501027	0.000042
H119	H	0.670415	0.251956	0.000030
H120	H	1.004451	0.081734	0.383108
H121	H	0.705127	0.023097	0.000084
H122	H	0.522084	0.241323	0.000047
C123	C	1.047401	0.045909	0.787393
C124	C	1.035946	-0.024246	0.766135
C125	C	1.087298	-0.067117	0.809728
H126	H	1.037019	0.054499	0.845718
H127	H	1.100394	0.055820	0.773044
H128	H	0.982965	-0.034153	0.780489
H129	H	1.046334	-0.032857	0.707817
H130	H	1.140291	-0.057206	0.795379
H131	H	1.076911	-0.058522	0.868051
H132	H	1.079538	-0.114722	0.795305
C133	C	0.303035	0.299925	0.000095
C134	C	0.241353	0.351341	0.000111
C135	C	0.272501	0.417421	0.000148
H136	H	0.336831	0.303013	-0.048318
H137	H	0.332200	0.306790	0.048534
H138	H	0.212200	0.344479	-0.048323
H139	H	0.207551	0.348276	0.048520
H140	H	0.301667	0.424285	0.048587
H141	H	0.306298	0.420501	-0.048265
H142	H	0.230655	0.452315	0.000167
C143	C	0.779197	-0.197636	-0.000062
C144	C	0.777761	-0.242067	-0.071492
C145	C	0.705776	-0.274290	-0.071646
H146	H	0.737113	-0.162985	-0.000111
H147	H	0.773433	-0.224019	0.048335
H148	H	0.783517	-0.215686	-0.119876
H149	H	0.819829	-0.276730	-0.071458
H150	H	0.700011	-0.300673	-0.023250
H151	H	0.663697	-0.239635	-0.071693
H152	H	0.704794	-0.304445	-0.120106
C153	C	1.077246	-0.215513	0.000159
C154	C	1.140602	-0.171793	0.000197
C155	C	1.211542	-0.212448	0.000263
H156	H	1.082178	-0.246051	-0.048250
H157	H	1.077463	-0.242202	0.048601
H158	H	1.140386	-0.145116	-0.048240
H159	H	1.135697	-0.141255	0.048603
H160	H	1.211759	-0.239137	0.048705
H161	H	1.216465	-0.242985	-0.048148
H162	H	1.254537	-0.182790	0.000296
C163	C	0.781592	-0.045596	-0.000056
C164	C	0.741606	-0.063539	-0.071492
C165	C	0.670694	-0.022854	-0.071639
H166	H	0.792519	0.002431	-0.000091
H167	H	0.749679	-0.053863	0.048337
H168	H	0.773512	-0.055266	-0.119871
H169	H	0.730659	-0.111559	-0.071472
H170	H	0.638781	-0.031122	-0.023247
H171	H	0.681628	0.025170	-0.071672
H172	H	0.643551	-0.035028	-0.120103
H173	H	0.146339	0.271312	0.000064
H174	H	1.060123	-0.072320	0.000129
