data_functionalizedCrystal
_audit_creation_method	'MofGen! by Chris Wilmer'
_symmetry_space_group_name_H-M	'P1'
_symmetry_Int_Tables_number	1
_symmetry_cell_setting	triclinic
loop_
_symmetry_equiv_pos_as_xyz
  x,y,z
_cell_length_a	10.654550
_cell_length_b	14.853567
_cell_length_c	9.730223
_cell_angle_alpha	90.002458
_cell_angle_beta	89.996251
_cell_angle_gamma	84.059917
loop_
_atom_site_label
_atom_site_type_symbol
_atom_site_fract_x
_atom_site_fract_y
_atom_site_fract_z
O1	O	1.666519	0.126622	-0.114390
O2	O	1.300915	0.138686	-0.114367
O3	O	1.493482	0.001477	-0.114383
O4	O	1.473951	0.263832	-0.114374
O5	O	1.493480	0.001480	0.114197
O6	O	1.300912	0.138690	0.114213
O7	O	1.666516	0.126625	0.114190
Zn8	Zn	1.483714	0.132658	0.150493
Zn9	Zn	1.483717	0.132654	-0.150671
O10	O	1.473949	0.263835	0.114206
C11	C	1.254125	0.137802	-0.000074
C12	C	1.114709	0.135152	-0.000066
C13	C	1.034384	0.215939	-0.000083
C14	C	0.903389	0.213443	-0.000107
C15	C	0.933057	0.049367	-0.000102
C16	C	1.064050	0.051863	-0.000068
C17	C	1.017254	0.310667	-0.000091
C18	C	0.886260	0.308171	-0.000115
C19	C	1.492596	-0.032115	-0.000097
C20	C	1.489944	-0.132213	-0.000109
C21	C	1.364344	-0.545419	-0.000075
C22	C	1.593119	-0.565475	-0.000090
C23	C	1.595613	-0.471428	-0.000098
C24	C	1.482470	-0.414372	-0.000093
C25	C	1.366834	-0.451363	-0.000079
C26	C	1.711247	-0.434430	-0.000097
C27	C	1.713745	-0.340378	-0.000104
C28	C	1.600601	-0.283320	-0.000109
C29	C	1.484961	-0.320316	-0.000097
C30	C	1.371818	-0.263260	-0.000091
C31	C	1.256176	-0.300254	-0.000089
C32	C	1.253691	-0.394305	-0.000084
C33	C	1.603087	-0.189269	-0.000114
C34	C	1.374308	-0.169204	-0.000096
C35	C	1.713306	0.127510	-0.000106
C36	C	1.852722	0.130160	-0.000123
C37	C	1.474835	0.297427	-0.000083
C38	C	1.477487	0.397525	-0.000080
N39	N	1.483721	0.132661	0.356030
N40	N	1.483720	0.132644	-0.356207
C41	C	1.569012	0.071925	0.427949
C42	C	1.569009	0.071914	0.571832
C43	C	1.398420	0.193382	0.571864
C44	C	1.398418	0.193388	0.427984
C45	C	1.667504	0.001799	0.427931
C46	C	1.667501	0.001788	0.571814
H47	H	1.129447	-0.013921	-0.000035
Br48	Br	1.282654	0.275792	0.669523
H49	H	0.844157	0.343862	-0.095782
Br50	Br	0.864296	-0.063662	-0.000101
Br51	Br	1.220749	-0.091777	-0.000105
H52	H	1.758459	0.023756	0.383300
Br53	Br	1.096763	-0.444518	-0.000089
H54	H	1.637668	-0.063695	0.616429
H55	H	1.164056	-0.253787	-0.000075
Br56	Br	1.828089	0.027521	0.636906
H57	H	1.046200	0.347716	0.095576
H58	H	1.052598	0.340828	-0.098778
Br59	Br	1.632968	-0.113693	0.362823
Br60	Br	1.207409	-0.595622	-0.000091
Br61	Br	0.809627	0.355887	0.164359
Br62	Br	1.746662	-0.642908	-0.000067
H63	H	1.803361	-0.480892	-0.000089
Br64	Br	1.870683	-0.290179	-0.000128
H65	H	1.697240	-0.159152	-0.000107
Br66	Br	1.282643	0.275801	0.330376
