data_functionalizedCrystal
_audit_creation_method	'MofGen! by Chris Wilmer'
_symmetry_space_group_name_H-M	'P1'
_symmetry_Int_Tables_number	1
_symmetry_cell_setting	triclinic
loop_
_symmetry_equiv_pos_as_xyz
  x,y,z
_cell_length_a	14.971506
_cell_length_b	11.026607
_cell_length_c	13.448316
_cell_angle_alpha	89.996104
_cell_angle_beta	89.992937
_cell_angle_gamma	96.104202
loop_
_atom_site_label
_atom_site_type_symbol
_atom_site_fract_x
_atom_site_fract_y
_atom_site_fract_z
O1	O	1.212300	0.158300	-0.082696
O2	O	0.954933	0.177217	-0.082696
O3	O	1.062286	-0.008928	-0.082693
O4	O	1.104947	0.344445	-0.082700
O5	O	1.062267	-0.008939	0.082691
O6	O	0.954914	0.177206	0.082687
O7	O	1.212281	0.158289	0.082688
Cu8	Cu	1.083596	0.167746	0.097788
Cu9	Cu	1.083618	0.167760	-0.097797
O10	O	1.104928	0.344433	0.082684
C11	C	0.921463	0.176361	-0.000004
C12	C	0.821759	0.173812	-0.000005
C13	C	0.399440	0.273444	-0.000017
C14	C	0.493122	0.275829	-0.000021
C15	C	0.532818	0.166462	-0.000014
C16	C	0.478827	0.054702	-0.000014
C17	C	0.385147	0.052319	-0.000016
C18	C	0.674087	0.059678	-0.000005
C19	C	0.767774	0.062062	-0.000001
C20	C	0.782063	0.283189	-0.000010
C21	C	0.688382	0.280805	-0.000013
C22	C	0.634397	0.169045	-0.000010
C23	C	1.054407	-0.054156	-0.000002
C24	C	1.030945	-0.188907	-0.000006
C25	C	1.095726	-0.262612	-0.000007
C26	C	1.071479	-0.401884	-0.000011
C27	C	1.245751	0.159145	-0.000006
C28	C	1.345455	0.161693	-0.000013
C29	C	1.112807	0.389662	-0.000009
C30	C	1.136269	0.524412	-0.000012
N31	N	1.083586	0.167736	0.235353
N32	N	1.083633	0.167760	-0.235361
C33	C	1.131146	0.085345	0.287395
C34	C	1.131152	0.085344	0.391498
C35	C	1.083602	0.167740	0.443557
C36	C	1.036036	0.250135	0.391508
C37	C	1.036026	0.250130	0.287407
C38	C	1.036062	0.250143	0.608488
C39	C	1.036073	0.250151	0.712597
C40	C	1.131188	0.085358	0.712579
C41	C	1.131178	0.085352	0.608478
C42	C	1.083613	0.167749	0.556436
H43	H	0.826022	0.374187	-0.000012
H44	H	0.656064	0.369861	-0.000012
C45	C	0.889197	-0.203684	-0.085030
C46	C	0.931840	-0.242900	-0.000011
H47	H	0.828013	-0.237022	-0.085035
H48	H	0.892488	-0.117184	-0.085018
H49	H	0.918162	-0.230269	-0.142696
H50	H	0.902878	-0.216307	0.057655
H51	H	0.928543	-0.329418	-0.000014
H52	H	1.169902	0.018264	0.566091
H53	H	0.800092	-0.026995	-0.000003
H54	H	0.997314	0.317220	0.433901
H55	H	0.998063	-0.441883	-0.000017
C56	C	1.237482	-0.247847	0.085003
C57	C	1.194833	-0.208628	-0.000011
H58	H	1.298670	-0.214528	0.084993
H59	H	1.208533	-0.221255	0.142666
H60	H	1.234180	-0.334359	0.084993
H61	H	1.198130	-0.122116	0.000003
H62	H	1.223791	-0.235213	-0.057689
H63	H	1.169878	0.018254	0.433870
H64	H	1.209685	-0.435590	-0.000087
C65	C	1.225155	-0.077554	0.297845
C66	C	1.183414	-0.005232	0.230176
H67	H	1.257417	-0.133480	0.262520
H68	H	1.265476	-0.026950	0.338430
H69	H	1.180876	-0.121295	0.338466
H70	H	1.227694	0.038516	0.189560
H71	H	1.143089	-0.055843	0.189573
H72	H	0.630135	-0.031328	-0.000008
C73	C	1.043224	0.415282	0.491398
C74	C	0.983780	0.340714	0.551277
H75	H	1.010948	0.471191	0.456074
H76	H	1.087490	0.459032	0.531995
H77	H	1.071535	0.366191	0.445503
H78	H	0.955474	0.389804	0.597177
H79	H	0.939498	0.296961	0.510676
C80	C	0.575908	-0.070890	-0.085018
C81	C	0.522463	-0.065515	-0.000006
H82	H	0.602849	-0.145106	-0.085006
H83	H	0.539668	-0.067232	-0.142682
H84	H	0.621463	-0.003986	-0.085008
H85	H	0.476904	-0.132415	-0.000020
H86	H	0.558706	-0.069185	0.057673
H87	H	1.169917	0.018268	0.754958
C88	C	0.892643	0.321012	0.744704
C89	C	0.983792	0.340698	0.769832
H90	H	0.860366	0.376905	0.780047
H91	H	0.885830	0.332818	0.675268
H92	H	0.869915	0.239966	0.761772
H93	H	1.006522	0.421743	0.752757
H94	H	0.990610	0.328903	0.839284
C95	C	0.422982	0.492256	-0.000040
C96	C	0.355810	0.393666	-0.000029
H97	H	0.396047	0.566476	-0.000057
H98	H	0.459212	0.488590	0.057632
H99	H	0.459234	0.488572	-0.057715
H100	H	0.319563	0.397345	0.057650
H101	H	0.319565	0.397334	-0.057707
C102	C	0.606739	0.406798	-0.085083
C103	C	0.552448	0.398680	-0.000051
H104	H	0.643355	0.482652	-0.085112
H105	H	0.643796	0.342027	-0.085068
H106	H	0.569881	0.401240	-0.142740
H107	H	0.589306	0.404229	0.057606
H108	H	0.515387	0.463469	-0.000058
H109	H	0.997296	0.317219	0.245035
H110	H	0.341193	-0.038680	-0.000015
