data_functionalizedCrystal
_audit_creation_method	'MofGen! by Chris Wilmer'
_symmetry_space_group_name_H-M	'P1'
_symmetry_Int_Tables_number	1
_symmetry_cell_setting	triclinic
loop_
_symmetry_equiv_pos_as_xyz
  x,y,z
_cell_length_a	14.519731
_cell_length_b	14.519709
_cell_length_c	7.681481
_cell_angle_alpha	95.753692
_cell_angle_beta	84.265469
_cell_angle_gamma	83.684499
loop_
_atom_site_label
_atom_site_type_symbol
_atom_site_fract_x
_atom_site_fract_y
_atom_site_fract_z
O1	O	1.215150	0.129701	0.146437
O2	O	1.465150	0.379701	0.396437
O3	O	1.715150	0.629701	0.646437
O4	O	1.965150	0.879701	0.896437
O5	O	0.946675	0.143918	0.146441
O6	O	1.196675	0.393918	0.396441
O7	O	1.446675	0.643918	0.646441
O8	O	1.696675	0.893918	0.896441
O9	O	1.088031	0.002571	0.146423
O10	O	1.338031	0.252571	0.396423
O11	O	1.588031	0.502571	0.646423
O12	O	1.838031	0.752571	0.896423
O13	O	1.073793	0.271048	0.146455
O14	O	1.323793	0.521048	0.396455
O15	O	1.573793	0.771048	0.646455
O16	O	1.823793	1.021048	0.896455
O17	O	1.105430	-0.014866	-0.146437
O18	O	1.355430	0.235134	0.103563
O19	O	1.605430	0.485134	0.353563
O20	O	1.855430	0.735134	0.603563
O21	O	0.964074	0.126481	-0.146419
O22	O	1.214074	0.376481	0.103581
O23	O	1.464074	0.626481	0.353581
O24	O	1.714074	0.876481	0.603581
O25	O	1.232548	0.112265	-0.146422
O26	O	1.482548	0.362265	0.103578
O27	O	1.732548	0.612265	0.353578
O28	O	1.982548	0.862265	0.603578
Zn29	Zn	1.101073	0.116604	-0.192919
Zn30	Zn	1.351073	0.366604	0.057081
Zn31	Zn	1.601073	0.616604	0.307081
Zn32	Zn	1.851073	0.866604	0.557081
Zn33	Zn	1.078150	0.139578	0.192937
Zn34	Zn	1.328150	0.389578	0.442937
Zn35	Zn	1.578150	0.639578	0.692937
Zn36	Zn	1.828150	0.889578	0.942937
O37	O	1.091192	0.253612	-0.146405
O38	O	1.341192	0.503612	0.103595
O39	O	1.591192	0.753612	0.353595
O40	O	1.841192	1.003612	0.603595
C41	C	0.921015	0.134533	0.000011
C42	C	1.171015	0.384533	0.250011
C43	C	1.421015	0.634533	0.500011
C44	C	1.671015	0.884533	0.750011
C45	C	0.818635	0.132537	0.000012
C46	C	1.068635	0.382537	0.250012
C47	C	1.318635	0.632537	0.500012
C48	C	1.568635	0.882537	0.750012
C49	C	1.096067	-0.040508	-0.000007
C50	C	1.346067	0.209492	0.249993
C51	C	1.596067	0.459492	0.499993
C52	C	1.846067	0.709492	0.749993
C53	C	1.094079	-0.142889	-0.000008
C54	C	1.344079	0.107111	0.249992
C55	C	1.594079	0.357111	0.499992
C56	C	1.844079	0.607111	0.749992
C57	C	0.735490	0.130916	0.000019
C58	C	0.985490	0.380916	0.250019
C59	C	1.235490	0.630916	0.500019
C60	C	1.485490	0.880916	0.750019
C61	C	0.631181	0.128889	0.000019
C62	C	0.881181	0.378889	0.250019
C63	C	1.131181	0.628889	0.500019
C64	C	1.381181	0.878889	0.750019
C65	C	0.548042	0.127281	0.000019
C66	C	0.798042	0.377281	0.250019
C67	C	1.048042	0.627281	0.500019
C68	C	1.298042	0.877281	0.750019
C69	C	0.443727	0.125254	0.000022
C70	C	0.693727	0.375254	0.250022
C71	C	0.943727	0.625254	0.500022
C72	C	1.193727	0.875254	0.750022
C73	C	1.086757	-0.517783	0.000038
C74	C	1.336757	-0.267783	0.250038
C75	C	1.586757	-0.017783	0.500038
C76	C	1.836757	0.232217	0.750038
C77	C	1.088790	-0.413475	0.000024
C78	C	1.338790	-0.163475	0.250024
C79	C	1.588790	0.086525	0.500024
C80	C	1.838790	0.336525	0.750024
C81	C	1.090418	-0.330339	0.000013
C82	C	1.340418	-0.080339	0.250013
C83	C	1.590418	0.169661	0.500013
C84	C	1.840418	0.419661	0.750013
C85	C	1.092452	-0.226025	0.000003
C86	C	1.342452	0.023975	0.250003
C87	C	1.592452	0.273975	0.500003
C88	C	1.842452	0.523975	0.750003
C89	C	1.258208	0.121649	0.000011
C90	C	1.508208	0.371649	0.250011
C91	C	1.758208	0.621649	0.500011
C92	C	2.008208	0.871649	0.750011
C93	C	1.360588	0.123646	0.000022
C94	C	1.610588	0.373646	0.250022
C95	C	1.860588	0.623646	0.500022
C96	C	2.110588	0.873646	0.750022
C97	C	1.083156	0.296690	0.000029
C98	C	1.333156	0.546690	0.250029
C99	C	1.583156	0.796690	0.500029
C100	C	1.833156	1.046690	0.750029
C101	C	1.085143	0.399072	0.000042
C102	C	1.335143	0.649072	0.250042
C103	C	1.585143	0.899072	0.500042
C104	C	1.835143	1.149072	0.750042
N105	N	1.116725	0.100925	-0.456255
N106	N	1.366725	0.350925	-0.206255
N107	N	1.616725	0.600925	0.043745
N108	N	1.866725	0.850925	0.293745
N109	N	1.062506	0.155250	0.456273
N110	N	1.312506	0.405250	0.706273
N111	N	1.562506	0.655250	0.956273
N112	N	1.812506	0.905250	1.206273
H113	H	1.172081	0.045477	-0.531468
H114	H	1.422081	0.295477	-0.281468
H115	H	1.672081	0.545477	-0.031468
H116	H	1.922081	0.795477	0.218532
H117	H	1.007160	0.210701	-0.468523
H118	H	1.257160	0.460701	-0.218523
H119	H	1.507160	0.710701	0.031477
H120	H	1.757160	0.960701	0.281477
