data_functionalizedCrystal
_audit_creation_method	'MofGen! by Chris Wilmer'
_symmetry_space_group_name_H-M	'P1'
_symmetry_Int_Tables_number	1
_symmetry_cell_setting	triclinic
loop_
_symmetry_equiv_pos_as_xyz
  x,y,z
_cell_length_a	17.699083
_cell_length_b	9.730223
_cell_length_c	17.699083
_cell_angle_alpha	90.002214
_cell_angle_beta	83.283015
_cell_angle_gamma	89.994169
loop_
_atom_site_label
_atom_site_type_symbol
_atom_site_fract_x
_atom_site_fract_y
_atom_site_fract_z
O1	O	1.004071	0.114100	0.095708
O2	O	1.504071	0.614100	0.595708
O3	O	0.783693	0.114145	0.108160
O4	O	1.283693	0.614145	0.608160
O5	O	0.900109	0.114109	-0.008255
O6	O	1.400109	0.614109	0.491745
O7	O	0.887656	0.114136	0.212123
O8	O	1.387656	0.614136	0.712123
O9	O	0.900107	-0.114471	-0.008252
O10	O	1.400107	0.385529	0.491748
O11	O	0.783692	-0.114435	0.108163
O12	O	1.283692	0.385565	0.608163
O13	O	1.004070	-0.114480	0.095711
O14	O	1.504070	0.385520	0.595711
Zn15	Zn	0.893881	-0.150749	0.101938
Zn16	Zn	1.393881	0.349251	0.601938
Zn17	Zn	0.893882	0.150415	0.101934
Zn18	Zn	1.393882	0.650415	0.601934
O19	O	0.887655	-0.114444	0.212126
O20	O	1.387655	0.385556	0.712126
C21	C	0.755495	-0.000139	0.107716
C22	C	1.255495	0.499861	0.607716
C23	C	0.671477	-0.000122	0.106377
C24	C	1.171477	0.499878	0.606377
N25	N	0.893885	-0.356286	0.101940
N26	N	1.393885	0.143714	0.601940
C27	C	0.622856	-0.000114	0.174710
C28	C	1.122856	0.499886	0.674710
C29	C	0.543913	-0.000132	0.173448
C30	C	1.043913	0.499868	0.673448
C31	C	0.513592	-0.000148	0.103852
C32	C	1.013592	0.499852	0.603852
C33	C	0.562219	-0.000160	0.035513
C34	C	1.062219	0.499840	0.535513
C35	C	0.641161	-0.000152	0.036776
C36	C	1.141161	0.499848	0.536776
C37	C	0.243856	-0.000195	0.030418
C38	C	0.743856	0.499805	0.530418
C39	C	0.164908	-0.000199	0.029160
C40	C	0.664908	0.499801	0.529160
C41	C	0.146608	-0.000175	0.167090
C42	C	0.646608	0.499825	0.667090
C43	C	0.225550	-0.000167	0.168353
C44	C	0.725550	0.499833	0.668353
C45	C	0.274170	-0.000186	0.100015
C46	C	0.774170	0.499814	0.600015
C47	C	0.359769	-0.000169	0.101384
C48	C	0.859769	0.499831	0.601384
C49	C	0.427995	-0.000155	0.102481
C50	C	0.927995	0.499845	0.602481
C51	C	0.945447	-0.428228	0.050408
C52	C	1.445447	0.071772	0.550408
C53	C	0.945445	-0.572111	0.050399
C54	C	1.445445	-0.072111	0.550399
C55	C	0.842317	-0.572097	0.153459
C56	C	1.342317	-0.072097	0.653459
C57	C	0.842316	-0.428217	0.153464
C58	C	1.342316	0.071783	0.653464
C59	C	0.997016	-0.356297	-0.001116
C60	C	1.497016	0.143703	0.498884
C61	C	1.048583	-0.428239	-0.052652
C62	C	1.548583	0.071761	0.447348
C63	C	1.048581	-0.572122	-0.052661
C64	C	1.548581	-0.072122	0.447339
C65	C	0.997012	-0.644063	-0.001135
C66	C	1.497012	-0.144063	0.498865
C67	C	1.032268	-0.000193	0.096156
C68	C	1.532268	0.499807	0.596156
C69	C	1.116286	-0.000201	0.097494
C70	C	1.616286	0.499799	0.597494
C71	C	0.899662	-0.000181	-0.036451
C72	C	1.399662	0.499819	0.463549
C73	C	0.898323	-0.000181	-0.120469
C74	C	1.398323	0.499819	0.379531
N75	N	0.893884	0.355951	0.101926
N76	N	1.393884	0.855951	0.601926
C77	C	0.966656	-0.000197	-0.169090
C78	C	1.466656	0.499803	0.330910
C79	C	0.965394	-0.000185	-0.248033
C80	C	1.465394	0.499815	0.251967
C81	C	0.895798	-0.000166	-0.278354
C82	C	1.395798	0.499834	0.221646
C83	C	0.827459	-0.000146	-0.229727
C84	C	1.327459	0.499854	0.270273
C85	C	0.828722	-0.000149	-0.150785
C86	C	1.328722	0.499851	0.349215
C87	C	0.822364	-0.000134	-0.548090
C88	C	1.322364	0.499866	-0.048090
C89	C	0.821106	-0.000135	-0.627038
C90	C	1.321106	0.499865	-0.127038
C91	C	0.959036	-0.000170	-0.645338
C92	C	1.459036	0.499830	-0.145338
C93	C	0.960299	-0.000173	-0.566396
C94	C	1.460299	0.499827	-0.066396
C95	C	0.891961	-0.000145	-0.517776
C96	C	1.391961	0.499855	-0.017776
C97	C	0.893330	-0.000156	-0.432177
C98	C	1.393330	0.499844	0.067823
C99	C	0.894427	-0.000165	-0.363951
C100	C	1.394427	0.499835	0.136049
C101	C	0.888102	-0.000151	0.240322
C102	C	1.388102	0.499849	0.740322
C103	C	0.889440	-0.000142	0.324340
C104	C	1.389440	0.499858	0.824340
H105	H	0.647537	-0.000100	0.231384
H106	H	1.147537	0.499900	0.731384
C107	C	0.997005	-0.802331	-0.001146
C108	C	1.497005	-0.302331	0.498854
H109	H	0.958908	-0.834868	0.036919
H110	H	1.458908	-0.334868	0.536919
H111	H	1.045355	-0.834898	0.009149
H112	H	1.545355	-0.334898	0.509149
H113	H	0.986733	-0.834866	-0.049513
H114	H	1.486733	-0.334866	0.450487
C115	C	0.750904	-0.000129	-0.263077
C116	C	1.250904	0.499871	0.236923
H117	H	0.759938	-0.000146	-0.317056
H118	H	1.259938	0.499854	0.182944
H119	H	0.722773	0.079586	-0.246379
H120	H	1.222773	0.579586	0.253621
H121	H	0.722777	-0.079846	-0.246380
H122	H	1.222777	0.420154	0.253620
H123	H	1.021038	-0.000201	-0.287618
H124	H	1.521038	0.499799	0.212382
C125	C	0.744546	-0.000097	-0.660389
C126	C	1.244546	0.499903	-0.160389
H127	H	0.704027	-0.000065	-0.620127
H128	H	1.204027	0.499935	-0.120127
H129	H	0.741181	-0.079804	-0.690806
H130	H	1.241181	0.420196	-0.190806
H131	H	0.741198	0.079628	-0.690802
H132	H	1.241198	0.579628	-0.190802
C133	C	0.297328	-0.000206	-0.044751
C134	C	0.797328	0.499794	0.455249
H135	H	0.267962	-0.000202	-0.086379
H136	H	0.767962	0.499798	0.413621
H137	H	0.328510	-0.079916	-0.047127
H138	H	0.828510	0.420084	0.452873
H139	H	0.328498	0.079516	-0.047129
H140	H	0.828498	0.579516	0.452871
H141	H	1.090564	-0.369657	-0.094607
H142	H	1.590564	0.130343	0.405393
H143	H	0.107012	-0.000166	0.222734
H144	H	0.607012	0.499834	0.722734
H145	H	0.773078	-0.000135	-0.111198
H146	H	1.273078	0.499865	0.388802
C147	C	0.131557	-0.000230	-0.047400
C148	C	0.631557	0.499770	0.452600
H149	H	0.171819	-0.000254	-0.087919
H150	H	0.671819	0.499746	0.412081
H151	H	0.101136	0.079477	-0.050764
H152	H	0.601136	0.579477	0.449236
H153	H	0.101148	-0.079955	-0.050749
H154	H	0.601148	0.420045	0.449251
H155	H	0.504328	-0.000124	0.229092
H156	H	1.004328	0.499876	0.729092
C157	C	0.258903	-0.000145	0.244907
C158	C	0.758903	0.499855	0.744907
H159	H	0.312881	-0.000129	0.235871
H160	H	0.812881	0.499871	0.735871
H161	H	0.242213	-0.079851	0.273040
H162	H	0.742213	0.420149	0.773040
H163	H	0.242198	0.079581	0.273033
H164	H	0.742198	0.579581	0.773033
C165	C	0.528869	-0.000175	-0.041041
C166	C	1.028869	0.499825	0.458959
H167	H	0.474890	-0.000164	-0.032008
H168	H	0.974890	0.499836	0.467992
H169	H	0.545572	-0.079888	-0.069172
H170	H	1.045572	0.420112	0.430828
H171	H	0.545562	0.079544	-0.069170
H172	H	1.045562	0.579544	0.430830
H173	H	0.680748	-0.000158	-0.018868
H174	H	1.180748	0.499842	0.481132
H175	H	0.800333	-0.630680	0.195411
H176	H	1.300333	-0.130680	0.695411
H177	H	0.800329	-0.369641	0.195425
H178	H	1.300329	0.130359	0.695425
H179	H	1.023330	-0.000221	-0.144409
H180	H	1.523330	0.499779	0.355591
C181	C	1.036854	-0.000187	-0.533047
C182	C	1.536854	0.499813	-0.033047
H183	H	1.077372	-0.000181	-0.573311
H184	H	1.577372	0.499819	-0.073311
H185	H	1.040216	-0.079896	-0.502632
H186	H	1.540216	0.420104	-0.002632
H187	H	1.040210	0.079536	-0.502632
H188	H	1.540210	0.579536	-0.002632
H189	H	1.014680	-0.000185	-0.684934
H190	H	1.514680	0.499815	-0.184934
C191	C	0.997019	-0.198031	-0.001104
C192	C	1.497019	0.301969	0.498896
H193	H	0.958928	-0.165486	0.036970
H194	H	1.458928	0.334514	0.536970
H195	H	0.986760	-0.165465	-0.049465
H196	H	1.486760	0.334535	0.450535
H197	H	1.045373	-0.165504	0.009208
H198	H	1.545373	0.334496	0.509208
C199	C	0.747195	-0.000128	-0.494618
C200	C	1.247195	0.499872	0.005382
H201	H	0.705567	-0.000135	-0.523984
H202	H	1.205567	0.499865	-0.023984
H203	H	0.744813	0.079580	-0.463437
H204	H	1.244813	0.579580	0.036563
H205	H	0.744823	-0.079852	-0.463447
H206	H	1.244823	0.420148	0.036553
C207	C	1.105299	-0.651255	-0.109347
C208	C	1.605299	-0.151255	0.390653
H209	H	1.136012	-0.587805	-0.140026
H210	H	1.636012	-0.087805	0.359974
H211	H	1.078138	-0.707376	-0.140825
H212	H	1.578138	-0.207376	0.359175
H213	H	1.136752	-0.707389	-0.082154
H214	H	1.636752	-0.207389	0.417846
