data_functionalizedCrystal
_audit_creation_method	'MofGen! by Chris Wilmer'
_symmetry_space_group_name_H-M	'P1'
_symmetry_Int_Tables_number	1
_symmetry_cell_setting	triclinic
loop_
_symmetry_equiv_pos_as_xyz
  x,y,z
_cell_length_a	11.169417
_cell_length_b	16.120444
_cell_length_c	11.169409
_cell_angle_alpha	92.861568
_cell_angle_beta	89.979747
_cell_angle_gamma	92.927659
loop_
_atom_site_label
_atom_site_type_symbol
_atom_site_fract_x
_atom_site_fract_y
_atom_site_fract_z
Zn1	Zn	1.810617	-0.331812	-0.702701
Zn2	Zn	2.143950	0.001521	-0.369368
Zn3	Zn	2.477283	0.334855	-0.036034
Zn4	Zn	1.800269	-0.471255	-0.512175
Zn5	Zn	2.133602	-0.137922	-0.178841
Zn6	Zn	2.466935	0.195411	0.154492
Zn7	Zn	1.609896	-0.331864	-0.502040
Zn8	Zn	1.943230	0.001470	-0.168707
Zn9	Zn	2.276563	0.334803	0.164626
Zn10	Zn	1.599680	-0.471189	-0.712816
Zn11	Zn	1.933013	-0.137855	-0.379482
Zn12	Zn	2.266347	0.195478	-0.046149
O13	O	1.705115	-0.401530	-0.607433
O14	O	2.038449	-0.068197	-0.274100
O15	O	2.371782	0.265137	0.059234
O16	O	1.977193	-0.350316	-0.677436
O17	O	2.310527	-0.016982	-0.344102
O18	O	2.643860	0.316351	-0.010769
O19	O	1.774960	-0.452814	-0.342884
O20	O	2.108293	-0.119481	-0.009551
O21	O	2.441627	0.213852	0.323783
O22	O	1.645128	-0.215191	-0.520184
O23	O	1.978462	0.118142	-0.186851
O24	O	2.311795	0.451476	0.146483
O25	O	1.969591	-0.452764	-0.537457
O26	O	2.302924	-0.119431	-0.204123
O27	O	2.636257	0.213902	0.129210
O28	O	1.792597	-0.215153	-0.667609
O29	O	2.125930	0.118180	-0.334275
O30	O	2.459264	0.451513	-0.000942
O31	O	1.635094	-0.350404	-0.335438
O32	O	1.968428	-0.017070	-0.002105
O33	O	2.301761	0.316263	0.331228
O34	O	1.440592	-0.350339	-0.529992
O35	O	1.773925	-0.017006	-0.196659
O36	O	2.107259	0.316328	0.136675
O37	O	1.627717	-0.452650	-0.879420
O38	O	1.961050	-0.119317	-0.546087
O39	O	2.294383	0.214016	-0.212754
O40	O	1.433086	-0.452700	-0.684848
O41	O	1.766419	-0.119367	-0.351514
O42	O	2.099753	0.213966	-0.018181
O43	O	1.782691	-0.350251	-0.871989
O44	O	2.116024	-0.016918	-0.538656
O45	O	2.449357	0.316416	-0.205322
O46	O	1.765054	-0.587912	-0.547264
O47	O	2.098387	-0.254579	-0.213931
O48	O	2.431721	0.078755	0.119402
O49	O	1.617682	-0.587863	-0.694675
O50	O	1.951016	-0.254530	-0.361341
O51	O	2.284349	0.078804	-0.028008
C52	C	1.393292	-0.401519	-0.607418
C53	C	1.726625	-0.068185	-0.274085
C54	C	2.059958	0.265148	0.059248
C55	C	1.259890	-0.401534	-0.607442
C56	C	1.593224	-0.068201	-0.274109
C57	C	1.926557	0.265133	0.059225
C58	C	1.689169	-0.618138	-0.623193
C59	C	2.022503	-0.284804	-0.289860
C60	C	2.355836	0.048529	0.043474
C61	C	1.682457	-0.710803	-0.629975
C62	C	2.015791	-0.377470	-0.296642
C63	C	2.349124	-0.044137	0.036691
C64	C	1.740228	-0.921749	-0.572507
C65	C	2.073562	-0.588416	-0.239174
C66	C	2.406895	-0.255083	0.094159
C67	C	1.670225	-0.880459	-0.642371
C68	C	2.003558	-0.547126	-0.309038
C69	C	2.336892	-0.213793	0.024296
C70	C	1.677033	-0.786054	-0.635472
C71	C	2.010366	-0.452721	-0.302139
C72	C	2.343700	-0.119387	0.031195
C73	C	1.733422	-1.016163	-0.579405
C74	C	2.066755	-0.682830	-0.246072
C75	C	2.400088	-0.349496	0.087262
C76	C	2.018157	-0.401542	-0.607448
C77	C	2.351490	-0.068208	-0.274115
C78	C	2.684824	0.265125	0.059218
C79	C	2.151556	-0.401547	-0.607455
C80	C	2.484890	-0.068213	-0.274122
C81	C	2.818223	0.265120	0.059212
C82	C	1.705218	-0.401438	-0.920469
C83	C	2.038552	-0.068104	-0.587136
C84	C	2.371885	0.265229	-0.253802
C85	C	1.705262	-0.401398	-1.053866
C86	C	2.038596	-0.068065	-0.720533
C87	C	2.371929	0.265269	-0.387199
C88	C	1.721157	-0.184076	-0.591638
C89	C	2.054490	0.149257	-0.258304
C90	C	2.387823	0.482590	0.075029
C91	C	1.727992	-0.091411	-0.584907
C92	C	2.061326	0.241923	-0.251573
C93	C	2.394659	0.575256	0.081760
C94	C	1.705086	-0.401562	-0.295611
C95	C	2.038420	-0.068228	0.037723
C96	C	2.371753	0.265105	0.371056
C97	C	1.705292	-0.401366	-0.162197
C98	C	2.038626	-0.068033	0.171136
C99	C	2.371959	0.265300	0.504470
H100	H	1.605180	-0.916011	-0.707364
H101	H	1.938513	-0.582677	-0.374031
H102	H	2.271847	-0.249344	-0.040697
N103	N	1.826379	-0.874660	-0.486421
N104	N	2.159712	-0.541327	-0.153088
N105	N	2.493046	-0.207993	0.180245
H106	H	1.780171	-0.838598	-0.428185
H107	H	2.113504	-0.505265	-0.094852
H108	H	2.446837	-0.171931	0.238482
H109	H	1.872134	-0.915416	-0.440832
H110	H	2.205467	-0.582083	-0.107499
H111	H	2.538801	-0.248750	0.225834
