data_functionalizedCrystal
_audit_creation_method	'MofGen! by Chris Wilmer'
_symmetry_space_group_name_H-M	'P1'
_symmetry_Int_Tables_number	1
_symmetry_cell_setting	triclinic
loop_
_symmetry_equiv_pos_as_xyz
  x,y,z
_cell_length_a	10.654550
_cell_length_b	11.026607
_cell_length_c	9.730223
_cell_angle_alpha	89.999947
_cell_angle_beta	89.996251
_cell_angle_gamma	96.535460
loop_
_atom_site_label
_atom_site_type_symbol
_atom_site_fract_x
_atom_site_fract_y
_atom_site_fract_z
O1	O	1.704901	0.170762	-0.114401
O2	O	1.342954	0.187032	-0.114379
O3	O	1.493930	0.001991	-0.114383
O4	O	1.553926	0.355802	-0.114397
O5	O	1.493929	0.001996	0.114196
O6	O	1.342953	0.187036	0.114201
O7	O	1.704900	0.170767	0.114179
Zn8	Zn	1.523926	0.178902	0.150482
Zn9	Zn	1.523928	0.178896	-0.150682
O10	O	1.553924	0.355807	0.114183
C11	C	1.295897	0.185839	-0.000086
C12	C	1.155677	0.182265	-0.000078
C13	C	1.099841	0.291214	-0.000102
C14	C	0.968090	0.287849	-0.000126
C15	C	0.948022	0.066576	-0.000107
C16	C	1.079771	0.069943	-0.000073
C17	C	1.111426	0.418964	-0.000119
C18	C	0.979675	0.415599	-0.000143
C19	C	1.482861	-0.043310	-0.000094
C20	C	1.449867	-0.178302	-0.000097
C21	C	1.540970	-0.251341	-0.000105
C22	C	1.506871	-0.390862	-0.000108
C23	C	1.751958	0.171959	-0.000117
C24	C	1.892177	0.175533	-0.000135
C25	C	1.564993	0.401109	-0.000109
C26	C	1.597988	0.536100	-0.000115
N27	N	1.523934	0.178906	0.356018
N28	N	1.523928	0.178883	-0.356219
C29	C	1.590814	0.096998	0.427942
C30	C	1.590808	0.096983	0.571825
C31	C	1.457040	0.260795	0.571847
C32	C	1.457040	0.260803	0.427967
C33	C	1.668049	0.002426	0.427931
C34	C	1.668043	0.002411	0.571814
H35	H	0.948391	0.463731	-0.095812
F36	F	1.675917	-0.198071	-0.000121
H37	H	1.402568	0.327488	0.369407
H38	H	0.886203	-0.024874	-0.000124
F39	F	1.732942	-0.410638	-0.000130
H40	H	1.125227	-0.018774	-0.000034
H41	H	1.769076	0.023243	0.610858
F42	F	1.385848	0.347950	0.648431
H43	H	1.765661	0.032038	0.383298
H44	H	1.155912	0.459640	-0.098808
F45	F	1.163946	0.484276	0.124914
H46	H	0.942384	0.454208	0.098540
F47	F	1.314920	-0.231572	-0.000102
H48	H	1.626321	-0.091025	0.388882
F49	F	1.371917	-0.444126	-0.000112
H50	H	1.618360	-0.085899	0.616435
