data_functionalizedCrystal
_audit_creation_method	'MofGen! by Chris Wilmer'
_symmetry_space_group_name_H-M	'P1'
_symmetry_Int_Tables_number	1
_symmetry_cell_setting	triclinic
loop_
_symmetry_equiv_pos_as_xyz
  x,y,z
_cell_length_a	16.625546
_cell_length_b	13.897449
_cell_length_c	13.897441
_cell_angle_alpha	89.978743
_cell_angle_beta	89.967525
_cell_angle_gamma	90.023294
loop_
_atom_site_label
_atom_site_type_symbol
_atom_site_fract_x
_atom_site_fract_y
_atom_site_fract_z
Zn1	Zn	-0.320966	1.474650	-0.545431
Zn2	Zn	0.179034	1.974650	-0.045431
Zn3	Zn	-0.455814	1.474537	-0.384124
Zn4	Zn	0.044186	1.974537	0.115876
Zn5	Zn	-0.321001	1.313345	-0.384141
Zn6	Zn	0.178999	1.813345	0.115859
Zn7	Zn	-0.455762	1.313308	-0.545369
Zn8	Zn	0.044238	1.813308	-0.045369
O9	O	-0.388386	1.393960	-0.464766
O10	O	0.111614	1.893960	0.035234
O11	O	-0.338861	1.609617	-0.524051
O12	O	0.161139	2.109617	-0.024051
O13	O	-0.437967	1.453123	-0.249145
O14	O	0.062033	1.953123	0.250855
O15	O	-0.208164	1.334806	-0.405570
O16	O	0.291836	1.834806	0.094430
O17	O	-0.437933	1.609534	-0.405540
O18	O	0.062067	2.109534	0.094460
O19	O	-0.208138	1.453316	-0.524068
O20	O	0.291862	1.953316	-0.024068
O21	O	-0.338920	1.334696	-0.249157
O22	O	0.161080	1.834696	0.250843
O23	O	-0.338870	1.178359	-0.405510
O24	O	0.161130	1.678359	0.094490
O25	O	-0.437845	1.334742	-0.680359
O26	O	0.062155	1.834742	-0.180359
O27	O	-0.437879	1.178331	-0.523963
O28	O	0.062121	1.678331	-0.023963
O29	O	-0.338811	1.453280	-0.680404
O30	O	0.161189	1.953280	-0.180404
O31	O	-0.568639	1.453086	-0.405480
O32	O	-0.068639	1.953086	0.094520
O33	O	-0.568601	1.334632	-0.523946
O34	O	-0.068601	1.834632	-0.023946
C35	C	-0.388373	1.143346	-0.464733
C36	C	0.111627	1.643346	0.035267
C37	C	-0.388387	1.036132	-0.464741
C38	C	0.111613	1.536132	0.035259
C39	C	-0.388390	0.949062	-0.464757
C40	C	0.111610	1.449062	0.035243
C41	C	-0.388396	0.839830	-0.464787
C42	C	0.111604	1.339830	0.035213
C43	C	-0.597877	1.393869	-0.464726
C44	C	-0.097877	1.893869	0.035274
C45	C	-0.687498	1.393918	-0.464741
C46	C	-0.187498	1.893918	0.035259
C47	C	-1.015673	1.394086	-0.464841
C48	C	-0.515673	1.894086	0.035159
C49	C	-0.924365	1.394036	-0.464816
C50	C	-0.424365	1.894036	0.035184
C51	C	-0.851588	1.394001	-0.464791
C52	C	-0.351588	1.894001	0.035209
C53	C	-0.760274	1.393953	-0.464766
C54	C	-0.260274	1.893953	0.035234
C55	C	-0.178077	1.394078	-0.464828
C56	C	0.321923	1.894078	0.035172
C57	C	-0.088456	1.394128	-0.464854
C58	C	0.411544	1.894128	0.035146
C59	C	-0.388318	1.394019	-0.716359
C60	C	0.111682	1.894019	-0.216359
C61	C	-0.388289	1.394044	-0.823573
C62	C	0.111711	1.894044	-0.323573
C63	C	-0.388399	1.645553	-0.464801
C64	C	0.111601	2.145553	0.035199
C65	C	-0.388404	1.752767	-0.464815
C66	C	0.111596	2.252767	0.035185
C67	C	-0.388266	1.394064	-0.910643
C68	C	0.111734	1.894064	-0.410643
C69	C	-0.388230	1.394092	-1.019876
C70	C	0.111770	1.894092	-0.519876
C71	C	-0.388395	1.393957	-0.214152
C72	C	0.111605	1.893957	0.285848
C73	C	-0.388197	1.394118	-0.106939
C74	C	0.111803	1.894118	0.393061
