data_functionalizedCrystal
_audit_creation_method	'MofGen! by Chris Wilmer'
_symmetry_space_group_name_H-M	'P1'
_symmetry_Int_Tables_number	1
_symmetry_cell_setting	triclinic
loop_
_symmetry_equiv_pos_as_xyz
  x,y,z
_cell_length_a	18.050589
_cell_length_b	12.827893
_cell_length_c	12.827885
_cell_angle_alpha	89.980728
_cell_angle_beta	89.970449
_cell_angle_gamma	90.028191
loop_
_atom_site_label
_atom_site_type_symbol
_atom_site_fract_x
_atom_site_fract_y
_atom_site_fract_z
Zn1	Zn	-0.295624	1.597576	-0.590850
Zn2	Zn	0.204376	2.097576	-0.090850
Zn3	Zn	-0.419832	1.597431	-0.416111
Zn4	Zn	0.080168	2.097431	0.083889
Zn5	Zn	-0.295660	1.422818	-0.416124
Zn6	Zn	0.204340	1.922818	0.083876
Zn7	Zn	-0.419777	1.422764	-0.590811
Zn8	Zn	0.080223	1.922764	-0.090811
O9	O	-0.357723	1.510147	-0.503474
O10	O	0.142277	2.010147	-0.003474
O11	O	-0.312109	1.743793	-0.567682
O12	O	0.187891	2.243793	-0.067682
O13	O	-0.403399	1.574230	-0.269877
O14	O	0.096601	2.074230	0.230123
O15	O	-0.191731	1.446083	-0.439323
O16	O	0.308269	1.946083	0.060677
O17	O	-0.403364	1.743687	-0.439302
O18	O	0.096636	2.243687	0.060698
O19	O	-0.191704	1.574478	-0.567694
O20	O	0.308296	2.074478	-0.067694
O21	O	-0.312170	1.445943	-0.269886
O22	O	0.187830	1.945943	0.230114
O23	O	-0.312117	1.276575	-0.439286
O24	O	0.187883	1.776575	0.060714
O25	O	-0.403269	1.445991	-0.737053
O26	O	0.096731	1.945991	-0.237053
O27	O	-0.403304	1.276535	-0.567628
O28	O	0.096696	1.776535	-0.067628
O29	O	-0.312055	1.574425	-0.737081
O30	O	0.187945	2.074425	-0.237081
O31	O	-0.523749	1.574178	-0.439264
O32	O	-0.023749	2.074178	0.060736
O33	O	-0.523709	1.445851	-0.567615
O34	O	-0.023709	1.945851	-0.067615
C35	C	-0.357709	1.238638	-0.503454
C36	C	0.142291	1.738638	-0.003454
C37	C	-0.357721	1.122484	-0.503471
C38	C	0.142279	1.622484	-0.003471
C39	C	-0.402914	1.070708	-0.566880
C40	C	0.097086	1.570708	-0.066880
C41	C	-0.402927	0.950657	-0.566899
C42	C	0.097073	1.450657	-0.066899
C43	C	-0.550675	1.510021	-0.503457
C44	C	-0.050675	2.010021	-0.003457
C45	C	-0.633221	1.510063	-0.503484
C46	C	-0.133221	2.010063	-0.003484
C47	C	-0.832677	1.440347	-0.573257
C48	C	-0.332677	1.940347	-0.073257
C49	C	-0.882124	1.414870	-0.477900
C50	C	-0.382124	1.914870	0.022100
C51	C	-0.784351	1.510166	-0.503498
C52	C	-0.284351	2.010166	-0.003498
C53	C	-0.881986	1.535694	-0.598866
C54	C	-0.381986	2.035694	-0.098866
C55	C	-0.930337	1.510263	-0.503520
C56	C	-0.430337	2.010263	-0.003520
C57	C	-0.832712	1.484639	-0.408091
C58	C	-0.332712	1.984639	0.091909
C59	C	-0.832569	1.605506	-0.529120
C60	C	-0.332569	2.105506	-0.029120
C61	C	-0.881994	1.580066	-0.433698
C62	C	-0.381994	2.080066	0.066302
C63	C	-0.700253	1.510107	-0.503487
C64	C	-0.200253	2.010107	-0.003487
C65	C	-1.014433	1.510322	-0.503520
C66	C	-0.514433	2.010322	-0.003520
C67	C	-0.164018	1.510303	-0.503515
C68	C	0.335982	2.010303	-0.003515
C69	C	-0.081472	1.510369	-0.503532
C70	C	0.418528	2.010369	-0.003532
C71	C	-0.357652	1.510219	-0.776045
C72	C	0.142348	2.010219	-0.276045
C73	C	-0.357622	1.510249	-0.892198
C74	C	0.142378	2.010249	-0.392198
C75	C	-0.357738	1.782718	-0.503495
C76	C	0.142262	2.282718	-0.003495
C77	C	-0.357745	1.898871	-0.503504
C78	C	0.142255	2.398871	-0.003504
C79	C	-0.312477	1.573809	-0.943997
C80	C	0.187523	2.073809	-0.443997
C81	C	-0.312444	1.573842	-1.064047
C82	C	0.187556	2.073842	-0.564047
C83	C	-0.357741	1.510137	-0.231964
C84	C	0.142259	2.010137	0.268036
C85	C	-0.357562	1.510309	-0.115812
C86	C	0.142438	2.010309	0.384188
H87	H	-0.811021	1.381217	-0.632167
H88	H	-0.311021	1.881217	-0.132167
H89	H	-0.319054	0.943391	-0.449210
H90	H	0.180946	1.443391	0.050790
H91	H	-0.903512	1.639151	-0.374645
H92	H	-0.403512	2.139151	0.125355
N93	N	-0.451471	0.894792	-0.634989
N94	N	0.048529	1.394792	-0.134989
N95	N	-0.451416	0.797350	-0.634903
N96	N	0.048584	1.297350	-0.134903
H97	H	-0.485703	0.757892	-0.682992
H98	H	0.014297	1.257892	-0.182992
N99	N	-0.309181	1.066626	-0.435382
N100	N	0.190819	1.566626	0.064618
N101	N	-0.240651	1.078776	-0.442464
N102	N	0.259349	1.578776	0.057536
H103	H	-0.206366	1.039329	-0.394374
H104	H	0.293634	1.539329	0.105626
N105	N	-0.406051	1.442022	-1.059962
N106	N	0.093949	1.942022	-0.559962
N107	N	-0.448465	1.382288	-1.108576
N108	N	0.051535	1.882288	-0.608576
H109	H	-0.482711	1.334058	-1.069127
H110	H	0.017289	1.834058	-0.569127
H111	H	-0.273848	1.628197	-0.899467
H112	H	0.226152	2.128197	-0.399467
H113	H	-0.396243	1.455850	-0.936728
H114	H	0.103757	1.955850	-0.436728
N115	N	-0.263944	1.642107	-1.119904
N116	N	0.236056	2.142107	-0.619904
N117	N	-0.221523	1.701833	-1.071289
N118	N	0.278477	2.201833	-0.571289
H119	H	-0.187266	1.750047	-1.110739
H120	H	0.312734	2.250047	-0.610739
N121	N	-0.909422	1.313773	-0.450723
N122	N	-0.409422	1.813773	0.049277
N123	N	-0.893636	1.236750	-0.506091
N124	N	-0.393636	1.736750	-0.006091
H125	H	-0.912912	1.165346	-0.486903
H126	H	-0.412912	1.665346	0.013097
H127	H	-0.811157	1.462993	-0.327426
H128	H	-0.311157	1.962993	0.172574
N129	N	-0.451442	1.126601	-0.634957
N130	N	0.048558	1.626601	-0.134957
N131	N	-0.498685	1.187491	-0.598010
N132	N	0.001315	1.687491	-0.098010
H133	H	-0.532959	1.226967	-0.646090
H134	H	-0.032959	1.726967	-0.146090
N135	N	-0.805250	1.706573	-0.556348
N136	N	-0.305250	2.206573	-0.056348
N137	N	-0.820982	1.745448	-0.642910
N138	N	-0.320982	2.245448	-0.142910
H139	H	-0.801688	1.816828	-0.662150
H140	H	-0.301688	2.316828	-0.162150
H141	H	-0.903630	1.557247	-0.679509
H142	H	-0.403630	2.057247	-0.179509
