data_functionalizedCrystal
_audit_creation_method	'MofGen! by Chris Wilmer'
_symmetry_space_group_name_H-M	'P1'
_symmetry_Int_Tables_number	1
_symmetry_cell_setting	triclinic
loop_
_symmetry_equiv_pos_as_xyz
  x,y,z
_cell_length_a	16.109301
_cell_length_b	16.053802
_cell_length_c	16.109301
_cell_angle_alpha	87.436620
_cell_angle_beta	83.461481
_cell_angle_gamma	92.577771
loop_
_atom_site_label
_atom_site_type_symbol
_atom_site_fract_x
_atom_site_fract_y
_atom_site_fract_z
O1	O	1.106638	0.069379	0.103368
O2	O	1.439971	0.402712	0.436702
O3	O	1.773304	0.736046	0.770035
O4	O	0.864576	0.069392	0.116667
O5	O	1.197910	0.402726	0.450000
O6	O	1.531243	0.736059	0.783334
O7	O	0.992256	0.069377	-0.011013
O8	O	1.325590	0.402710	0.322320
O9	O	1.658923	0.736043	0.655654
O10	O	0.978958	0.069395	0.231048
O11	O	1.312291	0.402728	0.564381
O12	O	1.645625	0.736061	0.897715
O13	O	0.985228	-0.069481	-0.004014
O14	O	1.318562	0.263852	0.329319
O15	O	1.651895	0.597185	0.662653
O16	O	0.857549	-0.069466	0.123666
O17	O	1.190882	0.263868	0.456999
O18	O	1.524215	0.597201	0.790332
O19	O	1.099610	-0.069479	0.110367
O20	O	1.432943	0.263854	0.443700
O21	O	1.766277	0.597187	0.777034
Zn22	Zn	0.977463	-0.091519	0.118128
Zn23	Zn	1.310797	0.241814	0.451461
Zn24	Zn	1.644130	0.575148	0.784794
Zn25	Zn	0.986723	0.091432	0.108906
Zn26	Zn	1.320056	0.424766	0.442240
Zn27	Zn	1.653390	0.758099	0.775573
O28	O	0.971930	-0.069464	0.238047
O29	O	1.305263	0.263870	0.571380
O30	O	1.638597	0.597203	0.904714
C31	C	0.830088	-0.000035	0.119628
C32	C	1.163421	0.333298	0.452961
C33	C	1.496754	0.666632	0.786294
C34	C	0.737793	-0.000030	0.118012
C35	C	1.071126	0.333303	0.451345
C36	C	1.404459	0.666637	0.784679
N37	N	0.971150	-0.216379	0.124420
N38	N	1.304483	0.116955	0.457754
N39	N	1.637817	0.450288	0.791087
C40	C	0.515520	-0.000034	0.190020
C41	C	0.848853	0.333299	0.523353
C42	C	1.182187	0.666632	0.856687
C43	C	0.428799	-0.000040	0.188496
C44	C	0.762133	0.333293	0.521830
C45	C	1.095466	0.666627	0.855163
C46	C	0.448673	-0.000048	0.037008
C47	C	0.782007	0.333286	0.370341
C48	C	1.115340	0.666619	0.703675
C49	C	0.535392	-0.000048	0.038533
C50	C	0.868725	0.333285	0.371866
C51	C	1.202059	0.666619	0.705200
C52	C	0.568813	-0.000037	0.115041
C53	C	0.902146	0.333296	0.448375
C54	C	1.235480	0.666629	0.781708
C55	C	0.395374	-0.000042	0.111992
C56	C	0.728707	0.333291	0.445326
C57	C	1.062040	0.666624	0.778659
C58	C	0.301347	-0.000048	0.110340
C59	C	0.634681	0.333285	0.443673
C60	C	0.968014	0.666619	0.777006
C61	C	0.662845	-0.000033	0.116694
C62	C	0.996179	0.333300	0.450028
C63	C	1.329512	0.666634	0.783361
C64	C	1.025498	-0.260079	0.070112
C65	C	1.358831	0.073254	0.403445
C66	C	1.692165	0.406587	0.736778
C67	C	1.021089	-0.347485	0.074522
C68	C	1.354423	-0.014152	0.407855
C69	C	1.687756	0.319181	0.741188
C70	C	0.962337	-0.391189	0.133245
C71	C	1.295670	-0.057856	0.466578
C72	C	1.629003	0.275477	0.799911
C73	C	0.907983	-0.347483	0.187556
C74	C	1.241316	-0.014149	0.520889
C75	C	1.574650	0.319184	0.854222
C76	C	0.912388	-0.260078	0.183141
C77	C	1.245721	0.073255	0.516475
C78	C	1.579055	0.406589	0.849808
C79	C	0.943094	-0.652597	0.152504
C80	C	1.276428	-0.319263	0.485837
C81	C	1.609761	0.014070	0.819170
C82	C	0.938695	-0.740008	0.156916
C83	C	1.272028	-0.406674	0.490249
C84	C	1.605362	-0.073341	0.823582
C85	C	1.051801	-0.740004	0.043880
C86	C	1.385134	-0.406671	0.377213
C87	C	1.718468	-0.073338	0.710547
C88	C	1.056204	-0.652598	0.039474
C89	C	1.389537	-0.319265	0.372807
C90	C	1.722871	0.014069	0.706141
C91	C	1.001848	-0.608899	0.093782
C92	C	1.335181	-0.275565	0.427115
C93	C	1.668514	0.057768	0.760449
N94	N	0.957831	-0.480533	0.137755
N95	N	1.291164	-0.147199	0.471089
N96	N	1.624497	0.186134	0.804422
N97	N	1.006350	-0.519557	0.089267
N98	N	1.339684	-0.186224	0.422600
N99	N	1.673017	0.147109	0.755934
C100	C	1.134099	-0.000050	0.107406
C101	C	1.467432	0.333283	0.440740
C102	C	1.800765	0.666617	0.774073
C103	C	1.226394	-0.000049	0.109021
C104	C	1.559727	0.333284	0.442355
C105	C	1.893061	0.666617	0.775688
C106	C	0.988204	-0.000053	-0.038488
C107	C	1.321537	0.333281	0.294845
C108	C	1.654870	0.666614	0.628178
C109	C	0.986588	-0.000054	-0.130784
C110	C	1.319922	0.333280	0.202550
C111	C	1.653255	0.666613	0.535883
N112	N	0.993043	0.216292	0.102607
N113	N	1.326376	0.549625	0.435940
N114	N	1.659709	0.882959	0.769274
C115	C	1.058597	-0.000045	-0.353057
C116	C	1.391930	0.333289	-0.019723
C117	C	1.725263	0.666622	0.313610
C118	C	1.057073	-0.000038	-0.439777
C119	C	1.390406	0.333296	-0.106444
C120	C	1.723740	0.666629	0.226889
C121	C	0.905584	-0.000032	-0.419903
C122	C	1.238918	0.333301	-0.086570
C123	C	1.572251	0.666634	0.246764
C124	C	0.907109	-0.000033	-0.333184
C125	C	1.240443	0.333300	0.000149
C126	C	1.573776	0.666633	0.333482
C127	C	0.983618	-0.000044	-0.299763
C128	C	1.316951	0.333290	0.033570
C129	C	1.650284	0.666623	0.366903
C130	C	0.980569	-0.000036	-0.473203
C131	C	1.313902	0.333298	-0.139870
C132	C	1.647236	0.666631	0.193464
C133	C	0.978916	-0.000028	-0.567229
C134	C	1.312250	0.333305	-0.233896
C135	C	1.645583	0.666638	0.099437
C136	C	0.985271	-0.000050	-0.205731
C137	C	1.318604	0.333284	0.127602
C138	C	1.651937	0.666617	0.460936
C139	C	0.975983	-0.000032	0.265522
C140	C	1.309316	0.333301	0.598856
C141	C	1.642649	0.666634	0.932189
C142	C	0.977598	-0.000026	0.357817
C143	C	1.310932	0.333308	0.691151
C144	C	1.644265	0.666641	1.024484
H145	H	0.542728	-0.000032	0.252318
H146	H	0.876061	0.333301	0.585652
H147	H	1.209395	0.666635	0.918985
Br148	Br	0.403311	-0.000059	-0.066820
Br149	Br	0.736644	0.333274	0.266513
Br150	Br	1.069977	0.666608	0.599847
H151	H	0.846049	-0.000030	-0.289791
H152	H	1.179382	0.333303	0.043543
H153	H	1.512715	0.666637	0.376876
Br154	Br	1.105244	-0.200776	-0.009582
Br155	Br	1.438578	0.132558	0.323751
Br156	Br	1.771911	0.465891	0.657085
Br157	Br	0.356475	-0.000040	0.290258
Br158	Br	0.689809	0.333293	0.623592
Br159	Br	1.023142	0.666626	0.956925
Br160	Br	1.125565	-0.799313	-0.029822
Br161	Br	1.458899	-0.465980	0.303511
Br162	Br	1.792232	-0.132646	0.636845
Br163	Br	0.858955	-0.799315	0.236622
Br164	Br	1.192288	-0.465982	0.569955
Br165	Br	1.525622	-0.132648	0.903289
Br166	Br	0.607724	-0.000062	-0.063231
Br167	Br	0.941058	0.333271	0.270102
Br168	Br	1.274391	0.666604	0.603435
H169	H	1.065343	-0.383066	0.030299
H170	H	1.398676	-0.049733	0.363632
H171	H	1.732010	0.283601	0.696965
Br172	Br	0.869329	-0.593296	0.226207
Br173	Br	1.202662	-0.259962	0.559540
Br174	Br	1.535996	0.073371	0.892873
Br175	Br	1.135944	-0.593284	-0.040218
Br176	Br	1.469277	-0.259950	0.293115
Br177	Br	1.802610	0.073383	0.626448
H178	H	0.860141	-0.383072	0.235367
H179	H	1.193474	-0.049738	0.568700
H180	H	1.526808	0.283595	0.902033
H181	H	1.120895	-0.000051	-0.325848
H182	H	1.454228	0.333282	0.007485
H183	H	1.787561	0.666615	0.340818
Br184	Br	0.838622	-0.200770	0.256844
Br185	Br	1.171955	0.132563	0.590177
Br186	Br	1.505288	0.465897	0.923511
Br187	Br	1.158835	-0.000034	-0.512102
Br188	Br	1.492168	0.333299	-0.178768
Br189	Br	1.825502	0.666633	0.154565
Br190	Br	0.801757	-0.000016	-0.465266
Br191	Br	1.135090	0.333317	-0.131933
Br192	Br	1.468424	0.666651	0.201401
