data_functionalizedCrystal
_audit_creation_method	'MofGen! by Chris Wilmer'
_symmetry_space_group_name_H-M	'P1'
_symmetry_Int_Tables_number	1
_symmetry_cell_setting	triclinic
loop_
_symmetry_equiv_pos_as_xyz
  x,y,z
_cell_length_a	15.625020
_cell_length_b	16.992695
_cell_length_c	15.455313
_cell_angle_alpha	87.152573
_cell_angle_beta	69.257468
_cell_angle_gamma	92.709904
loop_
_atom_site_label
_atom_site_type_symbol
_atom_site_fract_x
_atom_site_fract_y
_atom_site_fract_z
O1	O	1.227187	-0.080603	-0.458184
O2	O	0.961279	-0.096775	-0.374536
O3	O	1.093167	0.025438	-0.416017
O4	O	1.095299	-0.202817	-0.416702
O5	O	1.085623	0.018478	-0.269383
O6	O	0.953735	-0.103735	-0.227901
O7	O	1.219643	-0.087564	-0.311549
Cu8	Cu	1.086000	-0.096285	-0.256336
Cu9	Cu	1.094922	-0.088054	-0.429749
O10	O	1.087755	-0.209777	-0.270067
C11	C	0.923325	-0.100214	-0.290465
C12	C	0.821474	-0.100081	-0.258425
C13	C	0.673806	-0.103686	-0.133341
C14	C	0.769511	-0.103811	-0.163457
C15	C	0.777745	-0.096220	-0.323315
C16	C	0.682039	-0.096090	-0.293213
C17	C	0.630077	-0.099825	-0.198225
C18	C	0.638310	-0.092229	-0.358097
C19	C	0.542612	-0.092104	-0.327996
C20	C	0.490643	-0.095840	-0.233012
C21	C	0.534379	-0.099700	-0.168124
C22	C	0.690273	-0.088500	-0.453084
C23	C	0.646544	-0.084639	-0.517968
C24	C	0.550845	-0.084508	-0.487868
C25	C	0.498876	-0.088244	-0.392884
C26	C	0.507109	-0.080648	-0.552756
C27	C	0.411411	-0.080523	-0.522655
C28	C	0.403178	-0.088119	-0.362783
C29	C	1.086652	0.051133	-0.341837
C30	C	1.078469	0.138063	-0.339263
C31	C	1.257597	-0.084125	-0.395621
C32	C	1.359448	-0.084258	-0.427667
C33	C	1.094270	-0.235471	-0.344249
C34	C	1.102453	-0.322402	-0.346829
N35	N	1.079732	-0.102074	-0.134369
C36	C	1.157424	0.189400	-0.364100
C37	C	1.149730	0.271080	-0.361688
C38	C	1.063080	0.301422	-0.334433
C39	C	0.984120	0.250079	-0.309597
C40	C	0.991815	0.168401	-0.312016
C41	C	1.031188	0.544577	-0.324412
C42	C	1.023498	0.626262	-0.321993
C43	C	1.189110	0.647257	-0.374085
C44	C	1.196797	0.565576	-0.376496
C45	C	1.117837	0.514241	-0.351665
N46	N	1.055214	0.384912	-0.331964
N47	N	1.125704	0.430753	-0.354141
N48	N	1.101197	-0.082258	-0.551718
C49	C	1.135784	-0.050172	-0.106605
C50	C	1.131053	-0.054557	-0.014309
C51	C	1.070273	-0.110848	0.050220
C52	C	1.014214	-0.162753	0.022452
C53	C	1.018942	-0.158364	-0.069841
C54	C	1.049866	-0.129773	0.328220
C55	C	1.045144	-0.134160	0.420518
C56	C	1.161983	-0.025963	0.383752
C57	C	1.166709	-0.021582	0.291457
C58	C	1.110647	-0.073483	0.263697
N59	N	1.065437	-0.115334	0.144562
N60	N	1.115478	-0.068994	0.169359
H61	H	0.688864	-0.081601	-0.595308
H62	H	0.375805	-0.077381	-0.575490
H63	H	0.492067	-0.102750	-0.090775
H64	H	0.631494	-0.106737	-0.055992
O65	O	1.281000	0.536154	-0.403135
C66	C	1.333414	0.566116	-0.494325
H67	H	1.285584	0.584937	-0.531505
H68	H	1.379690	0.619263	-0.491990
C69	C	1.451514	0.478510	-0.501199
C70	C	1.392768	0.501620	-0.546867
H71	H	1.488129	0.438728	-0.533609
H72	H	1.416204	0.458326	-0.439761
H73	H	1.490068	0.522805	-0.499256
H74	H	1.354207	0.457328	-0.548799
H75	H	1.428073	0.521796	-0.608306
O76	O	0.899936	0.279521	-0.283274
C77	C	0.855342	0.256760	-0.343951
H78	H	0.908639	0.242967	-0.412936
H79	H	0.807293	0.201989	-0.311945
C80	C	0.734082	0.341459	-0.275548
C81	C	0.799543	0.324524	-0.360280
H82	H	0.699658	0.383257	-0.285618
H83	H	0.764123	0.356792	-0.234666
H84	H	0.694050	0.295811	-0.248885
H85	H	0.839580	0.370168	-0.386935
H86	H	0.769507	0.309201	-0.401167
H87	H	0.966892	0.502789	-0.304192
O88	O	1.225405	0.033435	0.228985
C89	C	1.175166	0.083600	0.192578
H90	H	1.106659	0.051828	0.200348
H91	H	1.162439	0.139453	0.231927
C92	C	1.314163	0.144889	0.079617
C93	C	1.230024	0.105864	0.089153
H94	H	1.348003	0.158626	0.015821
H95	H	1.348011	0.111094	0.104146
H96	H	1.303545	0.191428	0.112413
H97	H	1.240643	0.059321	0.056367
H98	H	1.196180	0.139651	0.064616
H99	H	1.253395	0.689063	-0.394303
H100	H	0.820065	-0.093182	-0.400655
O101	O	1.241670	0.160062	-0.390639
C102	C	1.309705	0.222892	-0.412024
H103	H	1.281370	0.279352	-0.430421
H104	H	1.330731	0.231472	-0.349430
C105	C	1.428698	0.134318	-0.472491
C106	C	1.393899	0.203662	-0.495094
H107	H	1.480635	0.122456	-0.523730
H108	H	1.382862	0.091988	-0.458081
H109	H	1.446213	0.141478	-0.420328
H110	H	1.376374	0.196499	-0.547249
H111	H	1.439734	0.245991	-0.509515
O112	O	0.557449	-0.077061	-0.645056
C113	C	0.498331	-0.073606	-0.695872
H114	H	0.426927	-0.099455	-0.650361
H115	H	0.494440	-0.009491	-0.718829
C116	C	0.623168	-0.089776	-0.837747
C117	C	0.535469	-0.121530	-0.781851
H118	H	0.646077	-0.119334	-0.890785
H119	H	0.662997	-0.092100	-0.803513
H120	H	0.619913	-0.036348	-0.856868
H121	H	0.538726	-0.174954	-0.762722
H122	H	0.495640	-0.119216	-0.816085
H123	H	1.207625	0.016294	0.406363
H124	H	0.995647	-0.180003	0.473056
O125	O	0.939254	0.655608	-0.295542
C126	C	0.871209	0.592783	-0.274126
H127	H	0.902396	0.538952	-0.311244
H128	H	0.842935	0.577534	-0.196025
C129	C	0.754641	0.683590	-0.260504
C130	C	0.792944	0.617476	-0.306099
H131	H	0.706361	0.698822	-0.280222
H132	H	0.800483	0.725917	-0.274929
H133	H	0.731087	0.670873	-0.195423
H134	H	0.816508	0.630197	-0.371177
H135	H	0.747104	0.575152	-0.291686
H136	H	0.805111	-0.106961	-0.110613
O137	O	0.352590	-0.091847	-0.270532
C138	C	0.291598	-0.159954	-0.246638
H139	H	0.279036	-0.179291	-0.310967
H140	H	0.322662	-0.209448	-0.217603
C141	C	0.215410	-0.117618	-0.093854
C142	C	0.199975	-0.141365	-0.172862
H143	H	0.158894	-0.106153	-0.048342
H144	H	0.256503	-0.071734	-0.109949
H145	H	0.241298	-0.158867	-0.069669
H146	H	0.174098	-0.100112	-0.197052
H147	H	0.158875	-0.187241	-0.156769
H148	H	0.768196	-0.088608	-0.477589
H149	H	1.214024	0.312875	-0.381910
O150	O	0.995552	-0.180227	0.301126
C151	C	1.050911	-0.225370	0.231186
H152	H	1.121041	-0.192548	0.195501
H153	H	1.059570	-0.284864	0.263455
C154	C	0.918816	-0.278968	0.203232
C155	C	1.004949	-0.238651	0.159397
H156	H	0.890464	-0.287163	0.158950
H157	H	0.881519	-0.248556	0.250354
H158	H	0.926044	-0.328541	0.230121
H159	H	0.997719	-0.189075	0.132519
H160	H	1.042244	-0.269055	0.112268
O161	O	0.915153	0.118505	-0.288052
C162	C	0.918571	0.074218	-0.363831
H163	H	0.965973	0.107310	-0.430962
H164	H	0.945767	0.014323	-0.355494
C165	C	0.763315	0.021407	-0.284737
C166	C	0.821529	0.062054	-0.367189
H167	H	0.703455	0.013900	-0.286807
H168	H	0.761013	0.051241	-0.233681
H169	H	0.785989	-0.028501	-0.277798
H170	H	0.798861	0.111965	-0.374120
H171	H	0.823825	0.032228	-0.418246
H172	H	1.185282	-0.004337	-0.159141
H173	H	1.176695	-0.012294	0.008295
O174	O	0.964459	-0.208866	-0.096670
C175	C	0.909783	-0.259480	-0.019921
H176	H	0.944052	-0.262992	0.034019
H177	H	0.839337	-0.235423	0.011918
C178	C	0.856836	-0.338206	-0.118211
C179	C	0.898930	-0.342526	-0.051964
H180	H	0.850137	-0.389432	-0.137975
H181	H	0.893669	-0.304105	-0.169918
H182	H	0.798136	-0.318155	-0.091669
H183	H	0.957634	-0.362567	-0.078509
H184	H	0.862107	-0.376632	-0.000262
H185	H	0.412719	-0.095742	-0.208506
H186	H	0.964721	-0.208584	0.074998
