data_functionalizedCrystal
_audit_creation_method	'MofGen! by Chris Wilmer'
_symmetry_space_group_name_H-M	'P1'
_symmetry_Int_Tables_number	1
_symmetry_cell_setting	triclinic
loop_
_symmetry_equiv_pos_as_xyz
  x,y,z
_cell_length_a	16.109301
_cell_length_b	9.130313
_cell_length_c	10.654550
_cell_angle_alpha	90.000110
_cell_angle_beta	96.026808
_cell_angle_gamma	90.002485
loop_
_atom_site_label
_atom_site_type_symbol
_atom_site_fract_x
_atom_site_fract_y
_atom_site_fract_z
O1	O	1.104087	-0.121703	-0.161415
O2	O	0.862144	-0.121726	-0.181503
O3	O	0.988678	-0.121708	0.011356
O4	O	0.977553	-0.121720	-0.354274
O5	O	0.988677	0.121890	0.011350
O6	O	0.862143	0.121873	-0.181508
O7	O	1.104085	0.121896	-0.161420
Cu8	Cu	0.983114	0.144127	-0.171465
Cu9	Cu	0.983116	-0.143957	-0.171459
O10	O	0.977551	0.121879	-0.354279
C11	C	0.831164	0.000071	-0.180692
C12	C	0.738854	0.000062	-0.178253
C13	C	0.517228	0.000075	-0.287019
C14	C	0.430494	0.000085	-0.284717
C15	C	0.449008	0.000086	-0.055896
C16	C	0.535741	0.000087	-0.058199
C17	C	0.569848	0.000074	-0.173764
C18	C	0.396382	0.000083	-0.169159
C19	C	0.302341	0.000093	-0.166662
C20	C	0.663895	0.000067	-0.176262
C21	C	0.987861	0.000089	0.058140
C22	C	0.985417	0.000084	0.197550
C23	C	1.135066	0.000096	-0.162231
C24	C	1.227376	0.000095	-0.164671
N25	N	0.983117	-0.346579	-0.171445
N26	N	0.983119	0.346750	-0.171468
C27	C	1.039162	0.423409	-0.086099
C28	C	1.039160	0.576746	-0.086084
C29	C	0.927068	0.576750	-0.256818
C30	C	0.927067	0.423416	-0.256826
C31	C	1.103881	0.423408	0.012469
C32	C	1.103878	0.576745	0.012484
C33	C	0.978369	0.000078	-0.401063
C34	C	0.980813	0.000074	-0.540473
C35	C	1.059918	0.000095	0.278046
C36	C	1.057616	0.000085	0.409036
C37	C	0.906306	0.000058	0.379020
C38	C	0.908608	0.000058	0.248033
C39	C	1.147276	0.000117	0.295377
C40	C	1.144974	0.000107	0.426367
H41	H	0.387654	0.000089	-0.376940
H42	H	1.083679	0.624293	0.103433
F43	F	1.182774	0.361245	-0.026454
F44	F	1.085327	0.369002	0.138389
F45	F	1.187386	0.631155	-0.014499
F46	F	0.412701	0.000094	0.067090
F47	F	0.829314	0.000014	0.162366
H48	H	0.881431	0.639188	-0.326314
H49	H	1.171376	-0.105070	0.472370
H50	H	0.578586	0.000091	0.034032
H51	H	0.544995	0.000076	-0.381119
H52	H	0.843771	0.000035	0.420139
F53	F	1.191937	-0.133116	0.257606
H54	H	1.177889	0.102054	0.468571
H55	H	0.881424	0.361001	-0.326330
H56	H	1.175093	0.105301	0.260125
