data_functionalizedCrystal
_audit_creation_method	'MofGen! by Chris Wilmer'
_symmetry_space_group_name_H-M	'P1'
_symmetry_Int_Tables_number	1
_symmetry_cell_setting	triclinic
loop_
_symmetry_equiv_pos_as_xyz
  x,y,z
_cell_length_a	16.109317
_cell_length_b	16.109298
_cell_length_c	14.586319
_cell_angle_alpha	90.001604
_cell_angle_beta	89.998916
_cell_angle_gamma	96.535799
loop_
_atom_site_label
_atom_site_type_symbol
_atom_site_fract_x
_atom_site_fract_y
_atom_site_fract_z
O1	O	-1.103121	0.106931	-0.076131
O2	O	-0.861061	0.120217	-0.076153
O3	O	-0.988742	-0.007457	-0.076148
O4	O	-0.975440	0.234605	-0.076137
O5	O	-0.988733	-0.007459	0.076332
O6	O	-0.861052	0.120215	0.076327
O7	O	-1.103112	0.106930	0.076349
Cu8	Cu	-0.982081	0.113572	0.090261
Cu9	Cu	-0.982092	0.113574	-0.090065
O10	O	-0.975431	0.234603	0.076344
C11	C	-0.830082	0.119675	0.000084
C12	C	-0.737787	0.118054	0.000075
C13	C	-0.438718	0.112821	-0.083032
C14	C	-0.525439	0.114339	-0.083036
C15	C	-0.525449	0.114325	0.083207
C16	C	-0.438730	0.112802	0.083210
C17	C	-0.395366	0.112054	0.000088
C18	C	-0.568806	0.115095	0.000081
C19	C	-0.662833	0.116740	0.000077
C20	C	-0.301333	0.110408	0.000091
C21	C	-0.988199	-0.038433	0.000088
C22	C	-0.986585	-0.130728	0.000077
C23	C	-0.134091	0.107472	0.000105
C24	C	-0.226385	0.109095	0.000093
C25	C	-0.981323	-0.429796	-0.083021
C26	C	-0.982850	-0.343076	-0.083028
C27	C	-0.982853	-0.343064	0.083215
C28	C	-0.981331	-0.429783	0.083221
C29	C	-0.980562	-0.473147	0.000100
C30	C	-0.983611	-0.299707	0.000088
C31	C	-0.985268	-0.205682	0.000082
C32	C	-0.978906	-0.567178	0.000106
N33	N	-0.982080	0.113570	0.217093
C34	C	-0.975974	0.265579	0.000106
C35	C	-0.977588	0.357874	0.000110
N36	N	-0.982100	0.113570	-0.216897
C37	C	-1.038636	0.057055	0.452101
C38	C	-1.038638	0.057053	0.548083
C39	C	-0.925538	0.170087	0.548088
C40	C	-0.925532	0.170085	0.452108
C41	C	-0.982086	0.113569	0.404118
C42	C	-0.982094	0.113570	0.596078
C43	C	-0.982096	0.113568	0.700145
C44	C	-0.982083	0.113570	0.300044
H45	H	-0.403414	0.112212	-0.150716
H46	H	-0.560766	0.114936	0.150882
H47	H	-0.983478	-0.307747	0.150890
N48	N	-1.099618	-0.003900	0.400326
H49	H	-1.158623	0.005689	0.417022
H50	H	-1.089986	-0.062884	0.417048
H51	H	-0.403432	0.112177	0.150900
H52	H	-0.980714	-0.465080	0.150912
H53	H	-1.084685	0.011033	0.587149
N54	N	-0.980520	-0.476572	-0.172668
H55	H	-0.981244	-0.435949	-0.225325
H56	H	-1.031406	-0.519298	-0.176267
H57	H	-0.983471	-0.307785	-0.150713
H58	H	-0.879478	0.216106	0.413037
N59	N	-0.864543	0.231041	0.599849
H60	H	-0.873128	0.222469	0.667933
H61	H	-0.874127	0.290025	0.583070
H62	H	-0.560733	0.114962	-0.150720
