data_functionalizedCrystal
_audit_creation_method	'MofGen! by Chris Wilmer'
_symmetry_space_group_name_H-M	'P1'
_symmetry_Int_Tables_number	1
_symmetry_cell_setting	triclinic
loop_
_symmetry_equiv_pos_as_xyz
  x,y,z
_cell_length_a	14.519709
_cell_length_b	19.188930
_cell_length_c	13.596369
_cell_angle_alpha	89.988893
_cell_angle_beta	90.000291
_cell_angle_gamma	83.412464
loop_
_atom_site_label
_atom_site_type_symbol
_atom_site_fract_x
_atom_site_fract_y
_atom_site_fract_z
O1	O	1.223300	0.091524	-0.081675
O2	O	1.723300	0.591524	0.418325
O3	O	0.954756	0.102302	-0.081706
O4	O	1.454756	0.602302	0.418294
O5	O	1.096778	-0.004715	-0.081670
O6	O	1.596778	0.495285	0.418330
O7	O	1.081278	0.198542	-0.081711
O8	O	1.581278	0.698542	0.418289
O9	O	1.096763	-0.004720	0.081912
O10	O	1.596763	0.495280	0.581912
O11	O	0.954742	0.102297	0.081877
O12	O	1.454742	0.602297	0.581877
O13	O	1.223286	0.091519	0.081908
O14	O	1.723286	0.591519	0.581908
Zn15	Zn	1.089012	0.096907	0.107865
Zn16	Zn	1.589012	0.596907	0.607865
Zn17	Zn	1.089030	0.096914	-0.107663
Zn18	Zn	1.589030	0.596914	0.392337
O19	O	1.081264	0.198536	0.081872
O20	O	1.581264	0.698536	0.581872
C21	C	0.920392	0.101797	0.000081
C22	C	1.420392	0.601797	0.500081
C23	C	0.818020	0.100292	0.000070
C24	C	1.318020	0.600292	0.500070
C25	C	0.443159	0.094751	0.000116
C26	C	0.943159	0.594751	0.500116
C27	C	0.547457	0.096290	0.000103
C28	C	1.047457	0.596290	0.500103
C29	C	0.630586	0.097521	0.000092
C30	C	1.130586	0.597521	0.500092
C31	C	0.734891	0.099060	0.000081
C32	C	1.234891	0.599060	0.500081
C33	C	1.096269	-0.030730	0.000124
C34	C	1.596269	0.469270	0.500124
C35	C	1.094762	-0.108240	0.000132
C36	C	1.594762	0.391760	0.500132
C37	C	1.178095	-0.152867	0.000146
C38	C	1.678095	0.347133	0.500146
C39	C	1.176680	-0.225696	0.000131
C40	C	1.676680	0.274304	0.500131
C41	C	1.091926	-0.253895	0.000120
C42	C	1.591926	0.246105	0.500120
C43	C	1.008582	-0.209257	0.000100
C44	C	1.508582	0.290743	0.500100
C45	C	1.009999	-0.136430	0.000106
C46	C	1.509999	0.363570	0.500106
N47	N	1.027137	-0.362132	0.055783
N48	N	1.527137	0.137868	0.555783
N49	N	1.025796	-0.431316	0.055779
N50	N	1.525796	0.068684	0.555779
C51	C	1.087649	-0.473318	0.000100
C52	C	1.587649	0.026682	0.500100
N53	N	1.150908	-0.443526	-0.055564
N54	N	1.650908	0.056474	0.444436
N55	N	1.152252	-0.374336	-0.055556
N56	N	1.652252	0.125664	0.444444
C57	C	1.090379	-0.332863	0.000113
C58	C	1.590379	0.167137	0.500113
C59	C	1.169454	-0.596916	0.000095
C60	C	1.669454	-0.096916	0.500095
C61	C	1.168035	-0.669745	0.000073
C62	C	1.668035	-0.169745	0.500073
C63	C	0.999934	-0.653305	0.000053
C64	C	1.499934	-0.153305	0.500053
C65	C	1.001355	-0.580477	0.000065
C66	C	1.501355	-0.080477	0.500065
C67	C	1.086118	-0.552287	0.000091
C68	C	1.586118	-0.052287	0.500091
C69	C	1.257649	0.092024	0.000118
C70	C	1.757649	0.592024	0.500118
C71	C	1.360021	0.093529	0.000123
C72	C	1.860021	0.593529	0.500123
C73	C	1.081773	0.224551	0.000076
C74	C	1.581773	0.724551	0.500076
C75	C	1.083280	0.302061	0.000061
C76	C	1.583280	0.802061	0.500061
N77	N	1.089006	0.096901	0.254956
N78	N	1.589006	0.596901	0.754956
N79	N	1.089043	0.096914	-0.254755
N80	N	1.589043	0.596914	0.245245
C81	C	1.089029	0.096915	0.656247
C82	C	1.589029	0.596915	1.156247
C83	C	1.089020	0.096914	0.544596
C84	C	1.589020	0.596914	1.044596
C85	C	1.089018	0.096909	0.455605
C86	C	1.589018	0.596909	0.955605
C87	C	1.089008	0.096906	0.343947
C88	C	1.589008	0.596906	0.843947
H89	H	1.247116	-0.129920	0.000164
H90	H	1.747116	0.370080	0.500164
H91	H	1.244542	-0.262039	0.000138
H92	H	1.744542	0.237961	0.500138
O93	O	0.929106	-0.093004	0.000228
O94	O	1.429106	0.406996	0.500228
C95	C	0.924878	-0.050416	0.084967
C96	C	1.424878	0.449584	0.584967
H97	H	0.998060	-0.046649	0.113226
H98	H	1.498060	0.453351	0.613226
H99	H	0.890309	0.004280	0.065915
H100	H	1.390309	0.504280	0.565915
H101	H	0.882847	-0.074438	0.144281
H102	H	1.382847	0.425562	0.644281
O103	O	1.251809	-0.569558	-0.000070
O104	O	1.751809	-0.069558	0.499930
C105	C	1.302604	-0.592349	-0.084779
C106	C	1.802604	-0.092349	0.415221
H107	H	1.253038	-0.607551	-0.143998
H108	H	1.753038	-0.107551	0.356002
H109	H	1.341657	-0.548176	-0.113210
H110	H	1.841657	-0.048176	0.386790
H111	H	1.354190	-0.639749	-0.065628
H112	H	1.854190	-0.139749	0.434372
O113	O	0.926310	-0.236729	-0.000040
O114	O	1.426310	0.263271	0.499960
C115	C	0.920460	-0.278337	-0.084775
C116	C	1.420460	0.221663	0.415225
H117	H	0.993224	-0.296378	-0.113010
H118	H	1.493224	0.203622	0.386990
H119	H	0.883891	-0.326074	-0.065729
H120	H	1.383891	0.173926	0.434271
H121	H	0.879537	-0.246206	-0.144106
H122	H	1.379537	0.253794	0.355894
O123	O	1.248966	-0.713126	-0.000091
O124	O	1.748966	-0.213126	0.499909
C125	C	1.253180	-0.755738	-0.084807
C126	C	1.753180	-0.255738	0.415193
H127	H	1.205921	-0.729115	-0.144027
H128	H	1.705921	-0.229115	0.355973
H129	H	1.327504	-0.763825	-0.113231
H130	H	1.827504	-0.263825	0.386769
H131	H	1.229525	-0.808729	-0.065668
H132	H	1.729525	-0.308729	0.434332
O133	O	0.917684	-0.680804	0.000081
O134	O	1.417684	-0.180804	0.500081
C135	C	0.934299	-0.754653	0.000047
C136	C	1.434299	-0.254653	0.500047
H137	H	1.006333	-0.771671	0.031029
H138	H	1.506333	-0.271671	0.531029
H139	H	0.880076	-0.777092	0.047524
H140	H	1.380076	-0.277092	0.547524
H141	H	0.929924	-0.774914	-0.078436
H142	H	1.429924	-0.274914	0.421564
O143	O	0.920319	-0.537222	0.000107
O144	O	1.420319	-0.037222	0.500107
C145	C	0.845207	-0.577724	0.000070
C146	C	1.345207	-0.077724	0.500070
H147	H	0.868833	-0.632053	0.031036
H148	H	1.368833	-0.132053	0.531036
H149	H	0.786831	-0.550942	0.047558
H150	H	1.286831	-0.050942	0.547558
H151	H	0.819219	-0.582927	-0.078413
H152	H	1.319219	-0.082927	0.421587
