data_functionalizedCrystal
_audit_creation_method	'MofGen! by Chris Wilmer'
_symmetry_space_group_name_H-M	'P1'
_symmetry_Int_Tables_number	1
_symmetry_cell_setting	triclinic
loop_
_symmetry_equiv_pos_as_xyz
  x,y,z
_cell_length_a	12.837943
_cell_length_b	27.732048
_cell_length_c	11.295483
_cell_angle_alpha	94.055952
_cell_angle_beta	85.461227
_cell_angle_gamma	88.735798
loop_
_atom_site_label
_atom_site_type_symbol
_atom_site_fract_x
_atom_site_fract_y
_atom_site_fract_z
O1	O	1.380472	0.122633	-0.099030
O2	O	1.078766	0.116430	-0.099036
O3	O	1.238988	0.049600	-0.099010
O4	O	1.220251	0.189464	-0.099056
O5	O	1.224916	0.055460	0.099039
O6	O	1.064694	0.122290	0.099013
O7	O	1.366400	0.128493	0.099019
Cu8	Cu	1.214262	0.125927	0.117099
Cu9	Cu	1.230904	0.118997	-0.117116
O10	O	1.206178	0.195323	0.098993
C11	C	1.033143	0.117265	-0.000012
C12	C	0.918166	0.111016	-0.000013
C13	C	0.676005	0.186144	-0.000020
C14	C	0.567973	0.180275	-0.000021
C15	C	0.594068	0.093407	-0.000005
C16	C	0.702100	0.099277	-0.000005
C17	C	0.743064	0.145647	-0.000014
C18	C	0.851099	0.151516	-0.000023
C19	C	0.877191	0.064649	0.000002
C20	C	0.769159	0.058780	0.000001
C21	C	1.231558	0.034504	0.000018
C22	C	1.230373	-0.019210	0.000027
C23	C	1.317601	-0.353705	-0.000032
C24	C	1.313207	-0.555583	-0.000049
O25	O	1.392971	-0.582888	-0.000099
N26	N	1.218201	-0.579414	-0.000050
C27	C	1.124288	-0.552772	-0.000054
O28	O	1.043380	-0.577674	-0.000067
C29	C	1.128684	-0.350895	-0.000046
C30	C	1.223695	-0.327067	-0.000033
C31	C	1.412605	-0.329876	-0.000021
C32	C	1.413702	-0.279410	-0.000010
C33	C	1.319795	-0.252772	-0.000011
C34	C	1.224792	-0.276600	-0.000022
C35	C	1.034772	-0.324255	-0.000058
C36	C	1.035879	-0.273783	-0.000059
C37	C	1.130890	-0.249954	-0.000047
C38	C	1.131982	-0.199496	-0.000012
N39	N	1.226988	-0.175665	-0.000012
C40	C	1.320895	-0.202303	-0.000011
C41	C	1.121987	-0.658760	-0.000056
C42	C	1.120887	-0.709229	-0.000056
C43	C	1.309807	-0.712036	-0.000053
C44	C	1.310905	-0.661566	-0.000045
C45	C	1.216993	-0.634929	-0.000055
C46	C	1.323191	-0.096319	0.000012
C47	C	1.324279	-0.045848	0.000028
C48	C	1.135361	-0.043045	0.000019
C49	C	1.134271	-0.093512	0.000010
C50	C	1.228195	-0.120148	0.000002
O51	O	1.052262	-0.172160	0.000025
O52	O	1.401793	-0.177392	-0.000024
C53	C	1.316504	-0.404172	-0.000043
C54	C	1.221501	-0.428000	-0.000054
C55	C	1.127594	-0.401362	-0.000055
C56	C	1.220401	-0.478469	-0.000054
C57	C	1.314308	-0.505107	-0.000053
C58	C	1.409314	-0.481276	-0.000053
C59	C	1.410411	-0.430810	-0.000042
C60	C	1.032588	-0.425193	-0.000056
C61	C	1.031499	-0.475660	-0.000065
C62	C	1.125405	-0.502298	-0.000064
C63	C	1.412023	0.127658	-0.000008
C64	C	1.527001	0.133908	-0.000015
C65	C	1.213608	0.210420	-0.000037
C66	C	1.214794	0.264133	-0.000055
N67	N	1.202564	0.130801	0.281834
N68	N	1.242610	0.114119	-0.281851
C69	C	1.326818	0.079005	0.531143
C70	C	1.317985	0.082692	0.655805
C71	C	1.176062	0.141860	0.655823
C72	C	1.184894	0.138173	0.531160
C73	C	1.260276	0.106745	0.468825
C74	C	1.269113	0.103060	0.344160
C75	C	1.127185	0.162225	0.344180
C76	C	1.118353	0.165912	0.468842
H77	H	1.401652	-0.026449	0.000041
H78	H	1.114681	0.167444	0.706592
O79	O	1.401110	-0.737869	-0.000219
C80	C	1.466110	-0.729432	-0.102812
H81	H	1.442484	-0.693396	-0.137000
H82	H	1.550925	-0.728316	-0.079757
H83	H	1.457482	-0.759761	-0.174638
O84	O	0.942490	-0.347412	0.000127
C85	C	0.928897	-0.373505	0.102673
H86	H	0.977728	-0.356983	0.174383
H87	H	0.842891	-0.371814	0.137079
H88	H	0.955080	-0.412818	0.079478
H89	H	1.056976	0.191499	0.519610
O90	O	1.506040	-0.256296	-0.000221
C91	C	1.570522	-0.272527	-0.102780
H92	H	1.520035	-0.287690	-0.174469
H93	H	1.616551	-0.240996	-0.137211
H94	H	1.627121	-0.302019	-0.079592
O95	O	0.729531	0.013706	0.000056
C96	C	0.811892	-0.020781	0.000023
H97	H	0.882413	-0.002757	0.037520
H98	H	0.785720	-0.051157	0.057519
H99	H	0.834143	-0.036316	-0.094992
O100	O	1.062638	0.189247	0.283701
C101	C	1.076539	0.238740	0.314181
H102	H	1.157039	0.243826	0.348430
H103	H	1.070048	0.260008	0.232200
H104	H	1.013773	0.252407	0.386555
O105	O	1.400069	0.048441	0.470768
C106	C	1.456932	0.024759	0.552505
H107	H	1.408178	0.024873	0.641380
H108	H	1.475910	-0.014147	0.516490
H109	H	1.532685	0.044400	0.565739
H110	H	1.489079	-0.351560	-0.000025
O111	O	1.382658	0.055819	0.716471
C112	C	1.441060	0.086776	0.788535
H113	H	1.397880	0.123215	0.807214
H114	H	1.451559	0.069966	0.876197
H115	H	1.520966	0.092181	0.740469
H116	H	0.884449	0.189273	-0.000028
O117	O	1.414348	-0.122236	0.000170
C118	C	1.412094	-0.148476	0.102752
H119	H	1.327489	-0.153815	0.136939
H120	H	1.452954	-0.185238	0.079683
H121	H	1.454015	-0.127595	0.174584
H122	H	0.709358	0.223900	-0.000030
H123	H	0.513376	0.213252	-0.000022
H124	H	1.045507	-0.637077	-0.000064
H125	H	0.560689	0.055658	0.000101
H126	H	0.931804	0.031673	-0.000001
O127	O	1.403144	-0.638372	-0.000201
C128	C	1.416739	-0.612305	-0.102791
H129	H	1.337323	-0.604530	-0.136990
H130	H	1.455859	-0.576730	-0.079726
H131	H	1.468027	-0.634573	-0.174612
O132	O	1.342226	0.072454	0.283685
C133	C	1.323973	0.024771	0.314226
H134	H	1.238609	0.021723	0.348497
H135	H	1.342087	-0.001356	0.232272
H136	H	1.376462	0.015387	0.386603
O137	O	1.028505	-0.732298	-0.000108
C138	C	0.945862	-0.697958	-0.000081
H139	H	0.977011	-0.663502	-0.037572
H140	H	0.883565	-0.713251	-0.057585
H141	H	0.910183	-0.689351	0.094931
O142	O	0.944551	-0.247980	-0.000017
C143	C	0.860469	-0.279840	-0.000061
H144	H	0.884716	-0.315120	0.037432
H145	H	0.790631	-0.262581	0.057431
H146	H	0.838068	-0.287581	-0.095079
H147	H	1.056903	-0.112913	0.000032
H148	H	1.058904	-0.021347	0.000023
H149	H	1.487779	-0.411413	-0.000032
H150	H	0.954123	-0.495056	-0.000065
O151	O	1.500615	-0.507110	-0.000214
C152	C	1.565623	-0.498672	-0.102800
H153	H	1.542003	-0.462635	-0.136987
H154	H	1.650436	-0.497557	-0.079736
H155	H	1.556999	-0.528999	-0.174630
O156	O	0.941263	-0.399393	0.000004
C157	C	0.857187	-0.431255	-0.000030
H158	H	0.881448	-0.466536	0.037451
H159	H	0.787354	-0.414000	0.057479
H160	H	0.834771	-0.438994	-0.095043
