data_functionalizedCrystal
_audit_creation_method	'MofGen! by Chris Wilmer'
_symmetry_space_group_name_H-M	'P1'
_symmetry_Int_Tables_number	1
_symmetry_cell_setting	triclinic
loop_
_symmetry_equiv_pos_as_xyz
  x,y,z
_cell_length_a	27.731993
_cell_length_b	26.210047
_cell_length_c	14.853567
_cell_angle_alpha	89.999214
_cell_angle_beta	96.872339
_cell_angle_gamma	90.004884
loop_
_atom_site_label
_atom_site_type_symbol
_atom_site_fract_x
_atom_site_fract_y
_atom_site_fract_z
O1	O	0.641453	0.042288	-0.107034
O2	O	0.500733	0.042318	-0.123395
O3	O	0.574852	0.042304	0.016078
O4	O	0.567334	0.042302	-0.246507
O5	O	0.574829	-0.042554	0.016078
O6	O	0.500709	-0.042540	-0.123395
O7	O	0.641430	-0.042570	-0.107034
Cu8	Cu	0.571068	-0.050303	-0.115214
Cu9	Cu	0.571095	0.050051	-0.115214
O10	O	0.567311	-0.042556	-0.246507
C11	C	0.482712	-0.000107	-0.123060
C12	C	0.429051	-0.000095	-0.122048
C13	C	0.045869	0.046137	-0.114718
C14	C	0.247545	0.046150	-0.118573
O15	O	0.273631	0.085490	-0.119035
N16	N	0.272755	-0.000105	-0.119055
C17	C	0.247543	-0.046367	-0.118568
O18	O	0.273613	-0.085709	-0.119057
C19	C	0.045869	-0.046380	-0.114706
C20	C	0.020661	-0.000122	-0.114233
C21	C	0.020662	0.092391	-0.114243
C22	C	-0.029755	0.092387	-0.113285
C23	C	-0.054963	0.046129	-0.112800
C24	C	-0.029755	-0.000126	-0.113274
C25	C	0.020658	-0.092641	-0.114212
C26	C	-0.029763	-0.092640	-0.113244
C27	C	-0.054971	-0.046382	-0.112771
C28	C	-0.105380	-0.046388	-0.111831
N29	N	-0.130590	-0.000133	-0.111348
C30	C	-0.105381	0.046126	-0.111833
C31	C	0.353424	-0.046356	-0.120597
C32	C	0.403843	-0.046353	-0.121564
C33	C	0.403841	0.046164	-0.121567
C34	C	0.353422	0.046160	-0.120606
C35	C	0.328215	-0.000101	-0.120114
C36	C	-0.211259	0.046114	-0.109820
C37	C	-0.261680	0.046106	-0.108865
C38	C	-0.261674	-0.046411	-0.108857
C39	C	-0.211257	-0.046403	-0.109817
C40	C	-0.186051	-0.000137	-0.110296
O41	O	-0.131496	-0.085707	-0.111358
O42	O	-0.131459	0.085462	-0.111323
C43	C	0.096286	0.046140	-0.115676
C44	C	0.121493	-0.000114	-0.116150
C45	C	0.096285	-0.046372	-0.115666
C46	C	0.171911	-0.000111	-0.117117
C47	C	0.197120	0.046148	-0.117602
C48	C	0.171910	0.092403	-0.117120
C49	C	0.121494	0.092399	-0.116161
C50	C	0.121495	-0.092627	-0.116148
C51	C	0.171911	-0.092620	-0.117108
C52	C	0.197119	-0.046361	-0.117593
N53	N	0.571052	-0.120887	-0.115214
C54	C	0.600442	-0.473408	-0.169496
C55	C	0.600456	-0.687067	-0.169495
O56	O	0.625434	-0.714695	-0.215637
N57	N	0.571107	-0.713781	-0.115205
C58	C	0.541754	-0.687077	-0.060907
O59	O	0.516795	-0.714702	-0.014724
C60	C	0.541743	-0.473420	-0.060904
C61	C	0.571090	-0.446708	-0.115204
C62	C	0.629788	-0.446697	-0.223791
C63	C	0.629782	-0.393285	-0.223794
C64	C	0.600430	-0.366585	-0.169502
C65	C	0.571084	-0.393297	-0.115207
C66	C	0.512393	-0.446717	-0.006602
C67	C	0.512393	-0.393299	-0.006604
C68	C	0.541741	-0.366588	-0.060904
C69	C	0.541727	-0.313185	-0.060919
N70	N	0.571076	-0.286471	-0.115209
C71	C	0.600428	-0.313171	-0.169501
C72	C	0.541761	-0.799251	-0.060914
C73	C	0.541763	-0.852665	-0.060916
C74	C	0.600466	-0.852651	-0.169503
C75	C	0.600461	-0.799236	-0.169505
C76	C	0.571111	-0.772536	-0.115204
C77	C	0.600413	-0.201003	-0.169504
C78	C	0.600403	-0.147587	-0.169506
C79	C	0.541702	-0.147606	-0.060916
C80	C	0.541710	-0.201017	-0.060918
C81	C	0.571069	-0.227715	-0.115214
O82	O	0.516767	-0.285524	-0.014793
O83	O	0.625392	-0.285537	-0.215662
C84	C	0.600448	-0.526820	-0.169492
C85	C	0.571102	-0.553531	-0.115197
C86	C	0.541750	-0.526831	-0.060906
C87	C	0.571104	-0.606945	-0.115199
C88	C	0.600456	-0.633645	-0.169491
C89	C	0.629805	-0.606931	-0.223781
C90	C	0.629799	-0.553520	-0.223784
C91	C	0.512401	-0.553545	-0.006616
C92	C	0.512409	-0.606957	-0.006618
C93	C	0.541760	-0.633657	-0.060909
C94	C	0.659451	-0.000144	-0.107369
C95	C	0.713112	-0.000153	-0.108381
C96	C	0.574500	-0.000124	0.049661
C97	C	0.573479	-0.000119	0.149728
N98	N	0.571115	0.120635	-0.115208
C99	C	0.567663	-0.000127	-0.280090
C100	C	0.568684	-0.000128	-0.380156
C101	C	0.525136	-0.000118	0.561457
C102	C	0.613191	-0.000137	0.584203
C103	C	0.614151	-0.000134	0.490185
C104	C	0.570602	-0.000124	0.431799
C105	C	0.526094	-0.000117	0.467431
C106	C	0.658658	-0.000147	0.454546
C107	C	0.659620	-0.000145	0.360523
C108	C	0.616071	-0.000131	0.302135
C109	C	0.571561	-0.000123	0.337772
C110	C	0.528012	-0.000113	0.279386
C111	C	0.483502	-0.000101	0.315021
C112	C	0.482545	-0.000103	0.409043
C113	C	0.617027	-0.000129	0.208114
C114	C	0.528971	-0.000112	0.185359
H115	H	0.041181	0.130062	-0.114635
H116	H	0.488495	-0.468456	0.037616
H117	H	0.695863	-0.000154	0.331518
O118	O	0.328904	0.091081	-0.120301
C119	C	0.266535	0.144761	-0.197312
C120	C	0.294267	0.093873	-0.197784
H121	H	0.238517	0.147031	-0.259941
H122	H	0.293191	0.177842	-0.197886
H123	H	0.247342	0.147070	-0.133715
H124	H	0.313461	0.091515	-0.261371
H125	H	0.267588	0.060817	-0.197163
O126	O	0.196370	0.137352	-0.117751
C127	C	0.206364	0.216437	-0.196149
C128	C	0.178630	0.165550	-0.195562
H129	H	0.192025	0.239254	-0.259043
H130	H	0.246730	0.208517	-0.196976
H131	H	0.200848	0.239228	-0.132816
H132	H	0.184107	0.142734	-0.258883
H133	H	0.138274	0.173506	-0.194689
H134	H	-0.282202	0.083776	-0.108483
H135	H	0.488896	-0.000107	0.590476
H136	H	0.517859	-0.777517	-0.016693
H137	H	0.488492	-0.371563	0.037616
H138	H	0.653267	-0.000142	0.179104
O139	O	0.196323	-0.137604	-0.117527
C140	C	0.190986	-0.229368	-0.117458
C141	C	0.163283	-0.178463	-0.116971
H142	H	0.164285	-0.262415	-0.117028
H143	H	0.218961	-0.231712	-0.054773
H144	H	0.210223	-0.231659	-0.181004
H145	H	0.144017	-0.176137	-0.053467
H146	H	0.135336	-0.176139	-0.179698
O147	O	0.655478	-0.000058	0.640953
C148	C	0.705494	0.043873	0.760361
C149	C	0.657590	0.043852	0.696123
H150	H	0.707213	0.079366	0.804995
H151	H	0.737489	0.043901	0.718789
H152	H	0.707230	0.008341	0.804900
H153	H	0.655807	0.079378	0.651570
H154	H	0.625617	0.043797	0.737748
O155	O	0.658332	-0.632794	-0.276602
C156	C	0.716584	-0.627160	-0.384256
C157	C	0.684292	-0.597805	-0.324506
H158	H	0.737588	-0.598885	-0.422987
H159	H	0.692867	-0.652160	-0.434417
H160	H	0.743228	-0.652176	-0.339540
H161	H	0.657642	-0.572762	-0.369150
H162	H	0.708038	-0.572838	-0.274339
O163	O	-0.054177	-0.137626	-0.112810
C164	C	-0.048845	-0.229389	-0.112841
C165	C	-0.021140	-0.178481	-0.113353
H166	H	-0.022145	-0.262434	-0.113261
H167	H	-0.076822	-0.231744	-0.175521
H168	H	-0.068079	-0.231674	-0.049290
H169	H	-0.001876	-0.176162	-0.176862
H170	H	0.006810	-0.176148	-0.050631
O171	O	0.701003	-0.000178	0.511132
C172	C	0.788444	-0.000163	0.523783
C173	C	0.740523	-0.000143	0.459592
H174	H	0.820409	-0.000124	0.482138
H175	H	0.790221	-0.035683	0.568357
H176	H	0.790177	0.035343	0.568384
H177	H	0.738759	-0.035625	0.414933
H178	H	0.738767	0.035400	0.415079
O179	O	0.096966	0.137302	-0.115574
C180	C	0.045506	0.191016	-0.036329
C181	C	0.073247	0.140137	-0.036892
H182	H	0.026330	0.193329	0.027288
H183	H	0.017486	0.193338	-0.098950
H184	H	0.072196	0.224065	-0.036884
H185	H	0.046593	0.107059	-0.036306
H186	H	0.101273	0.137859	0.025723
H187	H	0.517804	-0.125857	-0.016716
O188	O	-0.186856	0.091102	-0.110332
C189	C	-0.192190	0.182865	-0.110203
C190	C	-0.219886	0.131954	-0.109633
H191	H	-0.218881	0.215906	-0.109618
H192	H	-0.172987	0.185213	-0.173785
H193	H	-0.164187	0.185161	-0.047555
H194	H	-0.247912	0.129623	-0.172237
H195	H	-0.239056	0.129627	-0.046009
H196	H	0.488500	-0.531812	0.037597
O197	O	0.628959	-0.121719	-0.222277
C198	C	0.687162	-0.127353	-0.330020
C199	C	0.654856	-0.156708	-0.270289
H200	H	0.708101	-0.155628	-0.368868
H201	H	0.713859	-0.102354	-0.285371
H202	H	0.663414	-0.102337	-0.380093
H203	H	0.678565	-0.181752	-0.220208
H204	H	0.628156	-0.181675	-0.314995
H205	H	-0.050274	0.130055	-0.112895
H206	H	0.424374	0.083829	-0.121964
H207	H	0.041174	-0.130310	-0.114595
O208	O	0.628986	-0.226955	-0.222114
C209	C	0.694244	-0.287264	-0.226486
C210	C	0.661930	-0.257896	-0.166792
H211	H	0.720881	-0.312295	-0.181784
H212	H	0.715250	-0.259013	-0.265269
H213	H	0.670496	-0.312251	-0.276613
H214	H	0.685643	-0.232908	-0.116614
H215	H	0.640921	-0.286175	-0.128073
O216	O	0.513186	-0.226888	-0.008094
C217	C	0.454940	-0.221254	0.099569
C218	C	0.487225	-0.191899	0.039796
H219	H	0.433934	-0.192979	0.138289
H220	H	0.478662	-0.246239	0.149740
H221	H	0.428296	-0.246284	0.054871
H222	H	0.513873	-0.166841	0.084422
H223	H	0.463472	-0.166946	-0.010381
O224	O	0.439269	-0.000072	0.443508
C225	C	0.352030	-0.000082	0.411029
C226	C	0.401004	-0.000105	0.371872
H227	H	0.321080	-0.000120	0.353131
H228	H	0.349358	0.035438	0.454452
H229	H	0.349398	-0.035588	0.454506
H230	H	0.403670	0.035377	0.328355
H231	H	0.403655	-0.035649	0.328501
H232	H	0.424362	-0.084021	-0.121964
O233	O	0.658340	-0.367421	-0.276556
C234	C	0.716549	-0.373064	-0.384288
C235	C	0.684234	-0.402414	-0.324563
H236	H	0.737485	-0.401344	-0.423132
H237	H	0.743247	-0.348070	-0.339634
H238	H	0.692806	-0.348045	-0.434364
H239	H	0.707938	-0.427461	-0.274479
H240	H	0.657533	-0.427377	-0.369274
H241	H	0.653697	-0.531776	-0.268001
H242	H	0.624359	-0.777491	-0.213722
O243	O	0.329013	-0.091344	-0.120168
C244	C	0.334352	-0.183106	-0.120222
C245	C	0.362053	-0.132196	-0.120724
H246	H	0.361054	-0.216148	-0.120653
H247	H	0.306374	-0.185459	-0.182901
H248	H	0.315120	-0.185399	-0.056670
H249	H	0.381315	-0.129869	-0.184234
H250	H	0.390004	-0.129865	-0.058003
H251	H	-0.282208	-0.084073	-0.108466
O252	O	-0.186777	-0.091350	-0.110121
C253	C	-0.165951	-0.170432	-0.032294
C254	C	-0.193685	-0.119544	-0.031839
H255	H	-0.171534	-0.193245	0.030980
H256	H	-0.125575	-0.162513	-0.032997
H257	H	-0.180241	-0.193225	-0.095248
H258	H	-0.179436	-0.096724	0.031105
H259	H	-0.234057	-0.127498	-0.031183
O260	O	0.513238	-0.878531	-0.008094
C261	C	0.454994	-0.872896	0.099572
C262	C	0.487281	-0.843541	0.039803
H263	H	0.433991	-0.844619	0.138297
H264	H	0.478713	-0.897886	0.149738
H265	H	0.428347	-0.897920	0.054870
H266	H	0.513933	-0.818489	0.084433
H267	H	0.463532	-0.818583	-0.010369
H268	H	0.653692	-0.468430	-0.268002
O269	O	0.483885	-0.632823	0.046216
C270	C	0.425646	-0.627188	0.153891
C271	C	0.457927	-0.597833	0.094112
H272	H	0.404643	-0.598912	0.192616
H273	H	0.449369	-0.652174	0.204058
H274	H	0.398999	-0.652217	0.109197
H275	H	0.484578	-0.572777	0.138733
H276	H	0.434173	-0.572880	0.043939
H277	H	0.493508	-0.000101	0.137826
O278	O	0.441245	-0.000070	0.258173
C279	C	0.403706	-0.000096	0.103238
C280	C	0.451595	-0.000120	0.167519
H281	H	0.412057	-0.000148	0.029931
H282	H	0.381809	0.035431	0.116039
H283	H	0.381793	-0.035595	0.116166
H284	H	0.473546	0.035355	0.154629
H285	H	0.473455	-0.035670	0.154705
H286	H	0.100975	-0.130297	-0.115749
H287	H	0.624364	-0.874399	-0.213713
