data_functionalizedCrystal
_audit_creation_method	'MofGen! by Chris Wilmer'
_symmetry_space_group_name_H-M	'P1'
_symmetry_Int_Tables_number	1
_symmetry_cell_setting	triclinic
loop_
_symmetry_equiv_pos_as_xyz
  x,y,z
_cell_length_a	19.121073
_cell_length_b	13.033290
_cell_length_c	13.032268
_cell_angle_alpha	90.922343
_cell_angle_beta	99.245087
_cell_angle_gamma	80.078727
loop_
_atom_site_label
_atom_site_type_symbol
_atom_site_fract_x
_atom_site_fract_y
_atom_site_fract_z
Zn1	Zn	-0.220901	-1.482845	-0.793518
Zn2	Zn	-0.322920	-1.497377	-0.627083
Zn3	Zn	-0.217148	-1.332971	-0.599485
Zn4	Zn	-0.352509	-1.301537	-0.778723
O5	O	-0.278369	-1.403682	-0.699702
O6	O	-0.223621	-1.629455	-0.789181
O7	O	-0.294935	-1.494805	-0.478756
O8	O	-0.118301	-1.359925	-0.619866
O9	O	-0.298574	-1.640132	-0.666902
O10	O	-0.121058	-1.470036	-0.762421
O11	O	-0.217225	-1.374016	-0.458481
O12	O	-0.245917	-1.184119	-0.605520
O13	O	-0.349005	-1.306351	-0.925350
O14	O	-0.345366	-1.161025	-0.737205
O15	O	-0.252312	-1.439557	-0.936220
O16	O	-0.426189	-1.464326	-0.652556
O17	O	-0.447929	-1.320443	-0.763965
C18	C	-0.298446	-1.135057	-0.666763
C19	C	-0.307054	-1.020133	-0.652697
C20	C	-0.282773	-0.844819	-0.692498
C21	C	-0.273878	-0.963598	-0.707035
C22	C	-0.462818	-1.390575	-0.709675
C23	C	-0.541722	-1.385058	-0.713988
C24	C	-0.988562	-1.350117	-0.741373
C25	C	-0.914423	-1.355303	-0.737310
C26	C	-0.866014	-1.432851	-0.677327
C27	C	-0.891749	-1.505224	-0.621412
C28	C	-0.965888	-1.500043	-0.625482
C29	C	-0.641596	-1.452250	-0.662143
C30	C	-0.567452	-1.457425	-0.658075
C31	C	-0.590131	-1.307503	-0.773975
C32	C	-0.664270	-1.302325	-0.778035
C33	C	-0.689999	-1.374702	-0.722125
C34	C	-0.790231	-1.438151	-0.673169
C35	C	-0.765781	-1.369405	-0.726289
C36	C	-0.093201	-1.416866	-0.689716
C37	C	-0.014293	-1.422484	-0.685460
C38	C	-0.304378	-1.367827	-0.969344
C39	C	-0.315461	-1.352547	-1.084250
C40	C	-0.258209	-0.673358	-0.732762
C41	C	-0.249602	-0.788282	-0.746829
C42	C	-0.272561	-1.411643	-1.140857
C43	C	-0.284015	-1.395852	-1.259617
C44	C	-0.252407	-1.439462	-0.431113
C45	C	-0.241109	-1.454956	-0.316222
H46	H	-0.893474	-1.296377	-0.782839
C47	C	-0.375826	-1.269656	-1.136931
C48	C	-0.422898	-1.316781	-1.208537
C49	C	-0.478522	-1.240456	-1.257072
H50	H	-0.356165	-1.220939	-1.172154
H51	H	-0.401300	-1.234642	-1.086051
H52	H	-0.397428	-1.351779	-1.259409
H53	H	-0.442577	-1.365491	-1.173340
H54	H	-0.503996	-1.205441	-1.206192
H55	H	-0.458855	-1.191744	-1.292289
H56	H	-0.510471	-1.272420	-1.305655
H57	H	-0.852330	-1.568371	-0.572576
C58	C	-0.227166	-1.016108	-0.783430
C59	C	-0.198274	-0.940932	-0.830720
C60	C	-0.155235	-0.989268	-0.901089
H61	H	-0.255506	-1.050337	-0.835087
H62	H	-0.189218	-1.065653	-0.747420
H63	H	-0.236217	-0.891406	-0.866729
H64	H	-0.169923	-0.906698	-0.779089
H65	H	-0.117287	-1.038813	-0.865079
H66	H	-0.183580	-1.023496	-0.952739
H67	H	-0.135621	-0.938270	-0.933176
H68	H	-0.986835	-1.558973	-0.579954
C69	C	-0.329535	-0.792232	-0.616205
C70	C	-0.400003	-0.810499	-0.645520
C71	C	-0.443099	-0.762087	-0.575256
H72	H	-0.329405	-0.719390	-0.616524
H73	H	-0.311104	-0.819862	-0.548334
H74	H	-0.418429	-0.782865	-0.713374
H75	H	-0.400156	-0.883331	-0.645195
H76	H	-0.424668	-0.789716	-0.507384
H77	H	-0.442962	-0.689247	-0.575579
H78	H	-0.490914	-0.774482	-0.595130
C79	C	-0.212319	-1.494844	-1.088412
C80	C	-0.222632	-1.592578	-1.128000
C81	C	-0.167146	-1.669248	-1.079727
H82	H	-0.212574	-1.494567	-1.015581
H83	H	-0.167426	-1.480839	-1.101661
H84	H	-0.267513	-1.606579	-1.114743
H85	H	-0.222370	-1.592889	-1.200825
H86	H	-0.122253	-1.655244	-1.092976
H87	H	-0.167405	-1.668961	-1.006898
H88	H	-0.174132	-1.735568	-1.106588
C89	C	-1.041087	-1.266029	-0.806688
C90	C	-1.031201	-1.276147	-0.910750
C91	C	-1.079579	-1.198713	-0.970954
H92	H	-1.032762	-1.199378	-0.782461
H93	H	-1.088940	-1.273303	-0.801176
H94	H	-0.983359	-1.268864	-0.916257
H95	H	-1.039532	-1.342781	-0.935007
H96	H	-1.127432	-1.205987	-0.965443
H97	H	-1.071249	-1.132068	-0.946719
H98	H	-1.072882	-1.205574	-1.041568
C99	C	-0.180713	-1.537885	-1.263669
C100	C	-0.114668	-1.516888	-1.283305
C101	C	-0.059014	-1.593250	-1.234904
H102	H	-0.187499	-1.604332	-1.290352
H103	H	-0.180969	-1.537464	-1.190824
H104	H	-0.114413	-1.517319	-1.356135
H105	H	-0.107859	-1.450455	-1.256620
H106	H	-0.059270	-1.592829	-1.162059
H107	H	-0.065807	-1.659692	-1.261590
H108	H	-0.014196	-1.579009	-1.248212
C109	C	-0.716712	-1.218083	-0.843262
C110	C	-0.678310	-1.155831	-0.891380
C111	C	-0.726595	-1.078221	-0.951481
H112	H	-0.745244	-1.176199	-0.799852
H113	H	-0.746978	-1.249556	-0.894819
H114	H	-0.648056	-1.124359	-0.839830
H115	H	-0.649781	-1.197685	-0.934808
H116	H	-0.756861	-1.109694	-1.003038
H117	H	-0.755125	-1.036345	-0.908064
H118	H	-0.700547	-1.035979	-0.984144
H119	H	-0.329222	-1.333557	-1.299071
H120	H	-0.342041	-0.980607	-0.595416
H121	H	-0.214613	-0.827815	-0.804101
H122	H	-0.805198	-1.306270	-0.775131
H123	H	-0.569176	-1.248579	-0.819496
C124	C	-0.515008	-1.541730	-0.592923
C125	C	-0.553407	-1.604021	-0.544848
C126	C	-0.505120	-1.681692	-0.484831
H127	H	-0.484720	-1.510345	-0.541341
H128	H	-0.486498	-1.583565	-0.636414
H129	H	-0.581904	-1.562193	-0.501360
H130	H	-0.583692	-1.635431	-0.596405
H131	H	-0.476610	-1.723527	-0.528322
H132	H	-0.474835	-1.650297	-0.433255
H133	H	-0.531167	-1.723972	-0.452213
H134	H	-0.662534	-1.511182	-0.616613
H135	H	-0.750810	-1.501290	-0.624327
