data_functionalizedCrystal
_audit_creation_method	'MofGen! by Chris Wilmer'
_symmetry_space_group_name_H-M	'P1'
_symmetry_Int_Tables_number	1
_symmetry_cell_setting	triclinic
loop_
_symmetry_equiv_pos_as_xyz
  x,y,z
_cell_length_a	6.817900
_cell_length_b	15.300992
_cell_length_c	14.858572
_cell_angle_alpha	94.836158
_cell_angle_beta	104.524003
_cell_angle_gamma	104.175078
loop_
_atom_site_label
_atom_site_type_symbol
_atom_site_fract_x
_atom_site_fract_y
_atom_site_fract_z
V1	V	-4.041806	-0.125326	-0.290242
V2	V	-3.541806	0.374674	0.209758
O3	O	-4.025461	0.005438	-0.284428
O4	O	-3.525461	0.505438	0.215572
O5	O	-3.996655	-0.247939	-0.288534
O6	O	-3.496655	0.252061	0.211466
O7	O	-3.998399	-0.123655	-0.416699
O8	O	-3.498399	0.376345	0.083301
O9	O	-4.023705	-0.119706	-0.155375
O10	O	-3.523705	0.380294	0.344625
V11	V	-4.524366	-0.109655	-0.274077
V12	V	-4.024366	0.390345	0.225923
O13	O	-4.305177	-0.159702	-0.325700
O14	O	-3.805177	0.340298	0.174300
O15	O	-4.711192	-0.075279	-0.238618
O16	O	-4.211192	0.424721	0.261382
O17	O	-4.346310	0.012958	-0.275785
O18	O	-3.846310	0.512958	0.224215
O19	O	-4.658107	-0.240420	-0.279890
O20	O	-4.158107	0.259580	0.220110
O21	O	-4.659864	-0.115275	-0.408943
O22	O	-4.159864	0.384725	0.091057
O23	O	-4.344566	-0.111326	-0.147619
O24	O	-3.844566	0.388674	0.352381
C25	C	-3.842285	-0.277821	-0.284026
C26	C	-3.342285	0.222179	0.215974
C27	C	-3.886688	-0.378061	-0.283473
C28	C	-3.386688	0.121939	0.216527
C29	C	-3.863544	-0.412109	-0.198019
C30	C	-3.363544	0.087891	0.301981
C31	C	-3.905287	-0.506296	-0.197502
C32	C	-3.405287	-0.006296	0.302498
C33	C	-3.970158	-0.566432	-0.282440
C34	C	-3.470158	-0.066432	0.217560
C35	C	-3.993309	-0.532378	-0.367900
C36	C	-3.493309	-0.032378	0.132100
C37	C	-3.951581	-0.438193	-0.368417
C38	C	-3.451581	0.061807	0.131583
C39	C	-4.080274	-0.728687	-0.366818
C40	C	-3.580274	-0.228687	0.133182
C41	C	-4.122001	-0.822877	-0.366302
C42	C	-3.622001	-0.322877	0.133698
C43	C	-4.033980	-0.796789	-0.195904
C44	C	-3.533980	-0.296789	0.304096
C45	C	-3.992252	-0.702605	-0.196420
C46	C	-3.492252	-0.202605	0.303580
C47	C	-4.015402	-0.668557	-0.281881
C48	C	-3.515402	-0.168557	0.218119
C49	C	-3.844509	-0.119283	-0.447513
C50	C	-3.344509	0.380717	0.052487
C51	C	-3.890324	-0.118728	-0.550895
C52	C	-3.390324	0.381272	-0.050895
C53	C	-4.058010	-0.116698	-0.929459
C54	C	-3.558010	0.383302	-0.429459
C55	C	-4.011346	-0.117263	-0.824131
C56	C	-3.511346	0.382737	-0.324131
C57	C	-3.974168	-0.117714	-0.740180
C58	C	-3.474168	0.382286	-0.240180
C59	C	-3.927502	-0.118277	-0.634845
C60	C	-3.427502	0.381723	-0.134845
C61	C	-4.164022	0.042836	-0.280289
C62	C	-3.664022	0.542836	0.219711
C63	C	-4.098857	0.143074	-0.280849
C64	C	-3.598857	0.643074	0.219151
C65	C	-4.161798	-0.115701	-0.116800
C66	C	-3.661798	0.384299	0.383200
C67	C	-4.095221	-0.116252	-0.013417
C68	C	-3.595221	0.383748	0.486583
H69	H	-4.099162	-0.700970	-0.436410
H70	H	-3.599162	-0.200970	0.063590
O71	O	-4.009024	-0.833503	-0.103725
O72	O	-3.509024	-0.333503	0.396275
H73	H	-4.048964	-0.909098	-0.117633
H74	H	-3.548964	-0.409098	0.382367
H75	H	-3.810706	-0.363151	-0.128853
H76	H	-3.310706	0.136849	0.371147
O77	O	-4.192007	-0.887736	-0.457917
O78	O	-3.692007	-0.387736	0.042083
H79	H	-4.349517	-0.934707	-0.465214
H80	H	-3.849517	-0.434707	0.034786
O81	O	-4.063301	-0.597235	-0.459515
O82	O	-3.563301	-0.097235	0.040485
H83	H	-3.948012	-0.637328	-0.459888
H84	H	-3.448012	-0.137328	0.040112
H85	H	-3.939419	-0.653643	-0.127256
H86	H	-3.439419	-0.153643	0.372744
O87	O	-3.880296	-0.543023	-0.105335
O88	O	-3.380296	-0.043023	0.394665
H89	H	-3.828142	-0.485382	-0.046359
H90	H	-3.328142	0.014618	0.453641
O91	O	-3.976524	-0.401461	-0.460583
O92	O	-3.476524	0.098539	0.039417
H93	H	-4.028622	-0.459098	-0.519559
H94	H	-3.528622	0.040902	-0.019559
