data_functionalizedCrystal
_audit_creation_method	'MofGen! by Chris Wilmer'
_symmetry_space_group_name_H-M	'P1'
_symmetry_Int_Tables_number	1
_symmetry_cell_setting	triclinic
loop_
_symmetry_equiv_pos_as_xyz
  x,y,z
_cell_length_a	10.654550
_cell_length_b	15.538191
_cell_length_c	9.730223
_cell_angle_alpha	90.002740
_cell_angle_beta	89.996251
_cell_angle_gamma	65.878499
loop_
_atom_site_label
_atom_site_type_symbol
_atom_site_fract_x
_atom_site_fract_y
_atom_site_fract_z
O1	O	1.606168	0.131911	-0.114384
O2	O	1.234815	0.144479	-0.114360
O3	O	1.492779	0.001538	-0.114383
O4	O	1.348204	0.274853	-0.114361
O5	O	1.492775	0.001542	0.114197
O6	O	1.234811	0.144483	0.114220
O7	O	1.606165	0.131915	0.114196
Zn8	Zn	1.420487	0.138200	0.150500
Zn9	Zn	1.420492	0.138195	-0.150664
O10	O	1.348201	0.274856	0.114219
C11	C	1.188446	0.143559	-0.000068
C12	C	1.050294	0.140798	-0.000059
C13	C	0.931464	0.224959	-0.000072
C14	C	0.801659	0.222359	-0.000096
C15	C	0.909528	0.051429	-0.000100
C16	C	1.039331	0.054030	-0.000066
C17	C	0.869186	0.323644	-0.000077
C18	C	0.739380	0.321045	-0.000100
C19	C	1.507903	-0.033457	-0.000099
C20	C	1.552959	-0.137736	-0.000115
C21	C	1.105338	-0.428451	-0.000057
C22	C	1.147707	-0.526440	-0.000057
C23	C	1.386021	-0.547326	-0.000073
C24	C	1.343672	-0.449337	-0.000080
C25	C	1.203329	-0.389906	-0.000071
C26	C	1.441663	-0.410792	-0.000093
C27	C	1.399317	-0.312812	-0.000093
C28	C	1.258980	-0.253375	-0.000080
C29	C	1.160983	-0.291926	-0.000070
C30	C	1.582005	-0.470224	-0.000093
C31	C	1.679996	-0.431680	-0.000106
C32	C	1.637651	-0.333697	-0.000116
C33	C	1.497314	-0.274261	-0.000102
C34	C	1.735648	-0.295147	-0.000125
C35	C	1.693302	-0.197166	-0.000125
C36	C	1.454968	-0.176280	-0.000102
C37	C	1.652533	0.132836	-0.000100
C38	C	1.790686	0.135597	-0.000117
C39	C	1.333076	0.309851	-0.000069
C40	C	1.288020	0.414130	-0.000061
N41	N	1.420493	0.138202	0.356036
N42	N	1.420500	0.138185	-0.356201
C43	C	1.534731	0.074930	0.427952
C44	C	1.534733	0.074918	0.571835
C45	C	1.306251	0.201461	0.571874
C46	C	1.306246	0.201467	0.427993
C47	C	1.666646	0.001874	0.427931
C48	C	1.666648	0.001863	0.571814
H49	H	0.680267	0.358226	-0.095765
O50	O	1.627677	-0.575904	-0.000079
H51	H	1.741726	-0.610754	-0.000063
O52	O	1.303595	-0.112173	-0.000089
H53	H	1.278605	-0.067041	-0.093257
H54	H	1.747137	0.024749	0.383301
H55	H	1.678950	-0.070315	0.388873
O56	O	0.897692	-0.042150	-0.000113
H57	H	0.948433	-0.082622	0.093065
O58	O	1.668540	-0.088513	0.630929
H59	H	1.669540	-0.136419	0.545913
H60	H	1.224505	-0.173594	-0.000072
H61	H	1.755637	0.017955	0.610860
H62	H	1.136082	-0.014503	-0.000036
O63	O	0.884209	0.374686	0.126708
H64	H	0.788621	0.397615	0.188754
O65	O	1.009612	-0.227813	-0.000062
H66	H	0.948579	-0.271073	-0.000048
O67	O	0.953965	-0.364343	-0.000056
H68	H	0.928975	-0.319196	0.093107
H69	H	1.067900	-0.557817	-0.000026
H70	H	0.890153	0.355066	-0.098761
O71	O	1.537387	-0.611426	-0.000079
H72	H	1.550373	-0.686034	-0.000082
H73	H	1.794264	-0.480081	-0.000108
O74	O	0.660403	0.360545	0.130617
H75	H	0.563155	0.421720	0.105487
O76	O	1.798988	-0.155586	-0.000157
H77	H	1.864270	-0.179398	0.092994
H78	H	1.213218	0.252980	0.369441
O79	O	1.183036	0.269702	0.649482
H80	H	1.202232	0.259073	0.761614
H81	H	1.849915	-0.343549	-0.000119
