data_functionalizedCrystal
_audit_creation_method	'MofGen! by Chris Wilmer'
_symmetry_space_group_name_H-M	'P1'
_symmetry_Int_Tables_number	1
_symmetry_cell_setting	triclinic
loop_
_symmetry_equiv_pos_as_xyz
  x,y,z
_cell_length_a	21.395362
_cell_length_b	17.637651
_cell_length_c	21.395355
_cell_angle_alpha	78.767767
_cell_angle_beta	89.956060
_cell_angle_gamma	101.230465
loop_
_atom_site_label
_atom_site_type_symbol
_atom_site_fract_x
_atom_site_fract_y
_atom_site_fract_z
Zn1	Zn	0.907526	-0.314524	-0.304123
Zn2	Zn	0.886274	-0.446721	-0.178135
Zn3	Zn	0.802736	-0.314561	-0.199318
Zn4	Zn	0.781553	-0.446737	-0.282837
O5	O	0.844522	-0.380636	-0.241103
O6	O	0.992389	-0.332038	-0.287453
O7	O	0.875163	-0.429198	-0.093266
O8	O	0.834396	-0.203915	-0.230994
O9	O	0.976774	-0.429162	-0.194891
O10	O	0.911385	-0.203888	-0.307993
O11	O	0.813788	-0.332101	-0.108829
O12	O	0.712244	-0.332116	-0.210354
O13	O	0.798293	-0.429190	-0.373340
O14	O	0.696681	-0.429226	-0.271715
O15	O	0.890845	-0.332054	-0.388978
O16	O	0.854623	-0.557364	-0.174251
O17	O	0.777685	-0.557376	-0.251175
C18	C	0.681728	-0.380677	-0.241024
C19	C	0.612080	-0.380714	-0.241002
C20	C	0.811566	-0.586058	-0.208119
C21	C	0.797524	-0.673938	-0.194028
C22	C	0.571269	-0.431346	-0.272882
C23	C	0.505837	-0.431327	-0.272913
C24	C	0.481217	-0.380684	-0.241051
C25	C	0.522038	-0.330042	-0.209170
C26	C	0.587469	-0.330057	-0.209145
C27	C	0.378512	-0.374314	-0.185668
C28	C	0.313080	-0.374305	-0.185691
C29	C	0.279405	-0.380632	-0.241129
C30	C	0.311166	-0.386986	-0.296543
C31	C	0.376598	-0.387001	-0.296518
C32	C	0.410268	-0.380661	-0.241075
C33	C	0.167644	-0.431246	-0.273045
C34	C	0.102211	-0.431221	-0.273078
C35	C	0.118413	-0.329940	-0.209329
C36	C	0.183845	-0.329961	-0.209303
C37	C	0.208456	-0.380618	-0.241159
C38	C	0.951601	-0.962602	-0.348342
C39	C	0.938387	-1.045179	-0.335091
C40	C	0.858271	-1.045314	-0.254834
C41	C	0.871481	-0.962736	-0.268076
C42	C	0.918146	-0.921386	-0.314831
C43	C	0.838026	-0.921520	-0.234565
C44	C	0.851232	-0.838948	-0.247808
C45	C	0.897893	-0.797592	-0.294562
C46	C	0.931352	-0.838814	-0.328074
C47	C	0.791358	-0.962871	-0.187813
C48	C	0.757902	-0.921655	-0.154302
C49	C	0.771112	-0.839082	-0.167542
C50	C	0.817773	-0.797726	-0.214296
C51	C	0.737653	-0.797860	-0.134030
C52	C	0.750859	-0.715288	-0.147274
C53	C	0.830979	-0.715154	-0.227539
C54	C	1.007952	-0.380594	-0.241183
C55	C	1.077596	-0.380577	-0.241217
C56	C	0.844577	-0.380620	-0.404529
C57	C	0.844600	-0.380613	-0.474172
C58	C	0.877624	-0.174411	-0.274231
C59	C	0.891730	-0.086530	-0.288348
C60	C	0.892791	-0.330032	-0.515029
C61	C	0.892795	-0.329998	-0.580470
C62	C	0.844613	-0.380559	-0.605049
C63	C	0.796414	-0.431143	-0.564183
C64	C	0.796408	-0.431170	-0.498744
C65	C	0.828245	-0.451751	-0.697290
C66	C	0.828256	-0.451726	-0.762727
C67	C	0.844631	-0.380475	-0.806883
C68	C	0.861008	-0.309248	-0.785594
C69	C	0.861002	-0.309275	-0.720155
C70	C	0.844615	-0.380535	-0.676005
C71	C	0.892829	-0.329853	-0.918699
C72	C	0.892830	-0.329818	-0.984142
C73	C	0.796451	-0.430971	-0.967852
C74	C	0.796448	-0.430999	-0.902413
C75	C	0.844641	-0.380441	-0.877840
C76	C	0.844513	-0.380594	-0.078322
C77	C	0.844647	-0.380379	-0.008716
H78	H	0.591303	-0.472594	-0.298823
Br79	Br	0.794936	-1.101439	-0.191389
Br80	Br	0.983799	-1.101114	-0.380573
Br81	Br	0.694567	-0.977779	-0.090858
H82	H	0.989605	-0.928933	-0.386410
H83	H	0.908645	-0.730357	-0.305343
H84	H	0.932032	-0.288863	-0.495027
Br85	Br	0.806038	-0.548390	-0.791613
H86	H	0.780601	-1.030106	-0.177038
Br87	Br	0.731044	-0.499650	-0.846959
Br88	Br	0.731054	-0.499581	-1.001204
Br89	Br	0.674312	-0.853987	-0.070592
H90	H	0.969356	-0.805146	-0.366142
Br91	Br	0.806038	-0.548459	-0.637370
H92	H	0.723616	-0.681730	-0.119986
Br93	Br	0.958189	-0.261327	-0.635933
Br94	Br	0.424208	-0.365727	-0.110424
Br95	Br	0.958245	-0.261178	-1.039592
H96	H	0.283749	-0.392137	-0.341686
H97	H	0.874335	-0.251280	-0.702825
H98	H	0.874344	-0.251229	-0.821545
H99	H	0.932067	-0.288682	-0.898692
H100	H	0.472603	-0.472557	-0.298876
Br101	Br	0.731021	-0.499757	-0.597539
H102	H	0.757162	-0.472359	-0.465478
H103	H	0.402455	-0.392173	-0.341639
H104	H	0.187684	-0.472490	-0.298989
H105	H	0.068983	-0.472450	-0.299043
H106	H	0.098368	-0.288702	-0.183390
H107	H	0.501988	-0.288807	-0.183230
H108	H	0.217073	-0.288735	-0.183339
H109	H	0.287225	-0.369136	-0.140568
H110	H	0.868984	-0.681486	-0.265607
Br111	Br	0.642860	-0.261336	-0.165878
