data_functionalizedCrystal
_audit_creation_method	'MofGen! by Chris Wilmer'
_symmetry_space_group_name_H-M	'P1'
_symmetry_Int_Tables_number	1
_symmetry_cell_setting	triclinic
loop_
_symmetry_equiv_pos_as_xyz
  x,y,z
_cell_length_a	19.077105
_cell_length_b	15.297510
_cell_length_c	19.077174
_cell_angle_alpha	77.696628
_cell_angle_beta	85.483752
_cell_angle_gamma	82.180037
loop_
_atom_site_label
_atom_site_type_symbol
_atom_site_fract_x
_atom_site_fract_y
_atom_site_fract_z
Zn1	Zn	1.036782	0.438342	-0.498720
Zn2	Zn	1.370116	0.771676	-0.165387
Zn3	Zn	1.703449	1.105009	0.167946
Zn4	Zn	1.013196	0.582892	-0.399588
Zn5	Zn	1.346529	0.916225	-0.066255
Zn6	Zn	1.679863	1.249558	0.267078
Zn7	Zn	0.915805	0.425731	-0.374481
Zn8	Zn	1.249138	0.759065	-0.041148
Zn9	Zn	1.582472	1.092398	0.292185
Zn10	Zn	0.900097	0.582833	-0.512699
Zn11	Zn	1.233431	0.916166	-0.179365
Zn12	Zn	1.566764	1.249499	0.153968
O13	O	0.966470	0.507450	-0.446372
O14	O	1.299803	0.840783	-0.113039
O15	O	1.633137	1.174116	0.220294
O16	O	1.131615	0.462820	-0.490228
O17	O	1.464948	0.796153	-0.156894
O18	O	1.798282	1.129486	0.176439
O19	O	0.996979	0.556791	-0.296927
O20	O	1.330313	0.890124	0.036407
O21	O	1.663646	1.223458	0.369740
O22	O	0.948297	0.301162	-0.374605
O23	O	1.281631	0.634496	-0.041271
O24	O	1.614964	0.967829	0.292062
O25	O	1.114286	0.569020	-0.417396
O26	O	1.447620	0.902353	-0.084063
O27	O	1.780953	1.235686	0.249271
O28	O	1.037179	0.310428	-0.465882
O29	O	1.370512	0.643761	-0.132549
O30	O	1.703846	0.977094	0.200784
O31	O	0.925427	0.441326	-0.278481
O32	O	1.258760	0.774659	0.054853
O33	O	1.592093	1.107993	0.388186
O34	O	0.815760	0.441269	-0.388159
O35	O	1.149093	0.774602	-0.054826
O36	O	1.482426	1.107935	0.278508
O37	O	0.921526	0.568919	-0.610176
O38	O	1.254860	0.902252	-0.276842
O39	O	1.588193	1.235586	0.056491
O40	O	0.804220	0.556690	-0.489706
O41	O	1.137553	0.890024	-0.156373
O42	O	1.470886	1.223357	0.176960
O43	O	1.021948	0.462763	-0.599906
O44	O	1.355281	0.796096	-0.266573
O45	O	1.688615	1.129429	0.066761
O46	O	0.981748	0.709126	-0.430950
O47	O	1.315082	1.042459	-0.097617
O48	O	1.648415	1.375793	0.235717
O49	O	0.898656	0.709082	-0.514052
O50	O	1.231989	1.042416	-0.180718
O51	O	1.565322	1.375749	0.152615
C52	C	0.784589	0.497605	-0.437726
C53	C	1.117923	0.830939	-0.104392
C54	C	1.451256	1.164272	0.228941
C55	C	0.706778	0.493417	-0.434046
C56	C	1.040111	0.826750	-0.100713
C57	C	1.373444	1.160083	0.232621
C58	C	0.664218	0.551626	-0.485128
C59	C	0.997551	0.884959	-0.151794
C60	C	1.330884	1.218292	0.181539
C61	C	0.591107	0.547678	-0.481672
C62	C	0.924440	0.881012	-0.148339
C63	C	1.257774	1.214345	0.184994
C64	C	0.560557	0.485525	-0.427132
C65	C	0.893890	0.818859	-0.093799
C66	C	1.227223	1.152192	0.239535
C67	C	0.603122	0.427310	-0.376048
C68	C	0.936456	0.760643	-0.042714
C69	C	1.269789	1.093977	0.290619
C70	C	0.676232	0.431254	-0.379507
C71	C	1.009566	0.764587	-0.046173
C72	C	1.342899	1.097920	0.287160
C73	C	0.342546	0.467273	-0.411127
C74	C	0.675879	0.800606	-0.077794
C75	C	1.009213	1.133940	0.255540
C76	C	0.269430	0.463335	-0.407671
C77	C	0.602764	0.796669	-0.074337
C78	C	0.936097	1.130002	0.258996
C79	C	0.257420	0.583703	-0.513297
C80	C	0.590753	0.917037	-0.179963
C81	C	0.924087	1.250370	0.153370
C82	C	0.330531	0.587645	-0.516748
C83	C	0.663865	0.920978	-0.183415
C84	C	0.997198	1.254312	0.149918
C85	C	0.373091	0.529427	-0.465666
C86	C	0.706425	0.862760	-0.132333
C87	C	1.039758	1.196093	0.201000
N88	N	0.485826	0.481491	-0.423597
N89	N	0.819159	0.814824	-0.090264
N90	N	1.152492	1.148157	0.243069
N91	N	0.447822	0.533458	-0.469204
N92	N	0.781155	0.866791	-0.135871
N93	N	1.114488	1.200124	0.197462
C94	C	0.935958	0.741839	-0.476759
C95	C	1.269291	1.075172	-0.143425
C96	C	1.602624	1.408506	0.189908
C97	C	0.922969	0.842117	-0.489785
C98	C	1.256302	1.175450	-0.156451
C99	C	1.589636	1.508783	0.176882
C100	C	1.059564	1.124762	-0.353567
C101	C	1.392897	1.458096	-0.020234
C102	C	1.726231	1.791429	0.313099
C103	C	1.071767	1.030546	-0.341325
C104	C	1.405100	1.363880	-0.007991
C105	C	1.738434	1.697213	0.325342
C106	C	1.034569	0.983434	-0.378439
C107	C	1.367902	1.316768	-0.045106
C108	C	1.701235	1.650101	0.288228
C109	C	0.985165	1.030547	-0.427797
C110	C	1.318498	1.363881	-0.094464
C111	C	1.651832	1.697214	0.238870
C112	C	0.972957	1.124772	-0.440037
C113	C	1.306290	1.458105	-0.106703
C114	C	1.639624	1.791439	0.226630
C115	C	0.947962	0.983444	-0.464908
C116	C	1.281295	1.316777	-0.131575
C117	C	1.614628	1.650111	0.201758
C118	C	0.898558	1.030557	-0.514266
C119	C	1.231891	1.363891	-0.180933
C120	C	1.565225	1.697224	0.152400
C121	C	0.886353	1.124773	-0.526504
C122	C	1.219686	1.458106	-0.193171
C123	C	1.553019	1.791439	0.140163
C124	C	0.923551	1.171885	-0.489390
C125	C	1.256884	1.505218	-0.156057
C126	C	1.590217	1.838551	0.177277
C127	C	0.960170	0.889219	-0.452669
C128	C	1.293503	1.222553	-0.119335
C129	C	1.626837	1.555886	0.213998
C130	C	0.873563	0.889229	-0.539138
C131	C	1.206896	1.222563	-0.205805
C132	C	1.540229	1.555896	0.127529
C133	C	0.861360	0.983445	-0.551381
C134	C	1.194693	1.316779	-0.218047
C135	C	1.528027	1.650112	0.115286
C136	C	1.149061	0.517333	-0.455053
C137	C	1.482394	0.850666	-0.121720
C138	C	1.815728	1.184000	0.211614
C139	C	1.226871	0.521545	-0.458752
C140	C	1.560204	0.854878	-0.125419
C141	C	1.893537	1.188211	0.207914
C142	C	0.972616	0.517241	-0.631516
C143	C	1.305949	0.850574	-0.298183
C144	C	1.639283	1.183908	0.035150
C145	C	0.975235	0.521413	-0.710414
C146	C	1.308568	0.854747	-0.377081
C147	C	1.641902	1.188080	-0.043747
C148	C	0.997115	1.272147	-0.415891
C149	C	1.330448	1.605480	-0.082558
C150	C	1.663782	1.938813	0.250776
C151	C	1.010158	1.171875	-0.402921
C152	C	1.343491	1.505208	-0.069587
C153	C	1.676824	1.838542	0.263746
C154	C	0.939214	0.463258	-0.737876
C155	C	1.272547	0.796592	-0.404543
C156	C	1.605880	1.129925	-0.071209
C157	C	0.941671	0.467186	-0.812009
C158	C	1.275004	0.800519	-0.478676
C159	C	1.608337	1.133853	-0.145343
C160	C	0.980154	0.529265	-0.858679
C161	C	1.313487	0.862598	-0.525346
C162	C	1.646821	1.195932	-0.192012
C163	C	1.016176	0.587426	-0.831213
C164	C	1.349510	0.920760	-0.497879
C165	C	1.682843	1.254093	-0.164546
C166	C	1.013715	0.583502	-0.757081
C167	C	1.347048	0.916836	-0.423748
C168	C	1.680381	1.250169	-0.090414
C169	C	0.991507	0.547452	-1.081420
C170	C	1.324841	0.880785	-0.748087
C171	C	1.658174	1.214118	-0.414753
C172	C	0.993968	0.551369	-1.155556
C173	C	1.327301	0.884703	-0.822223
C174	C	1.660635	1.218036	-0.488889
C175	C	0.919461	0.431130	-1.136348
C176	C	1.252794	0.764463	-0.803014
C177	C	1.586128	1.097796	-0.469681
C178	C	0.917006	0.427207	-1.062215
C179	C	1.250339	0.760541	-0.728882
C180	C	1.583673	1.093874	-0.395548
C181	C	0.953025	0.485372	-1.034755
C182	C	1.286359	0.818705	-0.701422
C183	C	1.619692	1.152038	-0.368089
N184	N	0.982668	0.533280	-0.934455
N185	N	1.316002	0.866613	-0.601122
N186	N	1.649335	1.199946	-0.267789
N187	N	0.950507	0.481361	-0.958981
N188	N	1.283840	0.814694	-0.625648
N189	N	1.617173	1.148028	-0.292314
C190	C	0.960397	0.497634	-0.261942
C191	C	1.293730	0.830967	0.071392
C192	C	1.627064	1.164300	0.404725
C193	C	0.957947	0.493214	-0.183018
C194	C	1.291280	0.826548	0.150315
C195	C	1.624613	1.159881	0.483649
H196	H	1.000394	0.850868	-0.412481
H197	H	1.333728	1.184202	-0.079147
H198	H	1.667061	1.517535	0.254186
O199	O	1.099676	1.175592	-0.313552
O200	O	1.433010	1.508925	0.019781
O201	O	1.766343	1.842259	0.353114
H202	H	1.088200	1.153973	-0.254919
H203	H	1.421534	1.487306	0.078415
H204	H	1.754867	1.820639	0.411748
O205	O	0.363485	0.654688	-0.575567
O206	O	0.696818	0.988021	-0.242234
O207	O	1.030152	1.321354	0.091100
H208	H	0.403257	0.618097	-0.608080
H209	H	0.736590	0.951431	-0.274747
H210	H	1.069923	1.284764	0.058587
H211	H	0.907881	0.412702	-0.699881
H212	H	1.241214	0.746035	-0.366548
H213	H	1.574548	1.079368	-0.033215
O214	O	0.236461	0.396307	-0.348845
O215	O	0.569794	0.729641	-0.015512
O216	O	0.903128	1.062974	0.317822
H217	H	0.260094	0.326925	-0.352596
H218	H	0.593427	0.660258	-0.019262
H219	H	0.926760	0.993592	0.314071
H220	H	0.890135	0.383776	-1.158714
H221	H	1.223469	0.717110	-0.825380
H222	H	1.556802	1.050443	-0.492047
H223	H	0.846116	1.163129	-0.566686
H224	H	1.179450	1.496462	-0.233353
H225	H	1.512783	1.829796	0.099980
H226	H	0.821135	1.021818	-0.591568
H227	H	1.154468	1.355151	-0.258235
H228	H	1.487801	1.688485	0.075098
H229	H	0.843271	0.850871	-0.569358
H230	H	1.176605	1.184205	-0.236025
H231	H	1.509938	1.517538	0.097308
H232	H	0.912335	0.419833	-0.834365
H233	H	1.245669	0.753167	-0.501032
H234	H	1.579002	1.086500	-0.167698
H235	H	0.913619	1.248603	-0.499357
H236	H	1.246953	1.581937	-0.166024
H237	H	1.580286	1.915270	0.167310
H238	H	0.885667	0.376658	-1.024221
H239	H	1.219000	0.709992	-0.690887
H240	H	1.552334	1.043325	-0.357554
H241	H	1.020828	0.594823	-1.059073
H242	H	1.354161	0.928156	-0.725740
H243	H	1.687494	1.261489	-0.392406
H244	H	1.025308	0.601923	-1.193554
H245	H	1.358642	0.935256	-0.860221
H246	H	1.691975	1.268590	-0.526887
H247	H	1.047506	0.637977	-0.869218
H248	H	1.380839	0.971310	-0.535884
H249	H	1.714173	1.304644	-0.202551
H250	H	1.043053	0.630852	-0.734723
H251	H	1.376387	0.964185	-0.401389
H252	H	1.709720	1.297519	-0.068056
O253	O	0.545131	0.610459	-0.536705
O254	O	0.878465	0.943792	-0.203372
O255	O	1.211798	1.277126	0.129962
H256	H	0.504810	0.652739	-0.509159
H257	H	0.838143	0.986072	-0.175826
H258	H	1.171476	1.319406	0.157507
O259	O	0.697169	0.618659	-0.543956
O260	O	1.030502	0.951992	-0.210623
O261	O	1.363835	1.285326	0.122710
H262	H	0.655289	0.658464	-0.578901
H263	H	0.988623	0.991798	-0.245567
H264	H	1.321956	1.325131	0.087766
O265	O	0.211520	0.646485	-0.568397
O266	O	0.544854	0.979818	-0.235064
O267	O	0.878187	1.313152	0.098269
H268	H	0.155550	0.633298	-0.556837
H269	H	0.488884	0.966631	-0.223503
H270	H	0.822217	1.299965	0.109830
H271	H	1.044507	0.906719	-0.368467
H272	H	1.377840	1.240053	-0.035134
H273	H	1.711173	1.573386	0.298199
O274	O	0.388442	0.404511	-0.356016
O275	O	0.721775	0.737844	-0.022682
O276	O	1.055108	1.071177	0.310651
H277	H	0.354911	0.360647	-0.317501
H278	H	0.688244	0.693980	0.015833
H279	H	1.021577	1.027313	0.349166
O280	O	0.570174	0.360293	-0.317204
O281	O	0.903507	0.693626	0.016129
O282	O	1.236841	1.026959	0.349462
H283	H	0.512183	0.367342	-0.323370
H284	H	0.845516	0.700676	0.009964
H285	H	1.178850	1.034009	0.343297
O286	O	0.722140	0.368482	-0.324405
O287	O	1.055473	0.701815	0.008928
O288	O	1.388807	1.035149	0.342261
H289	H	0.688614	0.324608	-0.285892
H290	H	1.021948	0.657942	0.047441
H291	H	1.355281	0.991275	0.380774
H292	H	1.111990	0.992190	-0.301137
H293	H	1.445324	1.325523	0.032196
H294	H	1.778657	1.658857	0.365530
