data_functionalizedCrystal
_audit_creation_method	'MofGen! by Chris Wilmer'
_symmetry_space_group_name_H-M	'P1'
_symmetry_Int_Tables_number	1
_symmetry_cell_setting	triclinic
loop_
_symmetry_equiv_pos_as_xyz
  x,y,z
_cell_length_a	10.654562
_cell_length_b	16.109301
_cell_length_c	9.730223
_cell_angle_alpha	89.998659
_cell_angle_beta	89.996961
_cell_angle_gamma	83.975844
loop_
_atom_site_label
_atom_site_type_symbol
_atom_site_fract_x
_atom_site_fract_y
_atom_site_fract_z
O1	O	1.666240	0.116821	-0.114380
O2	O	1.300613	0.127935	-0.114363
O3	O	1.493470	0.001407	-0.114363
O4	O	1.473382	0.243349	-0.114380
O5	O	1.493468	0.001410	0.114217
O6	O	1.300611	0.127938	0.114217
O7	O	1.666238	0.116824	0.114200
Zn8	Zn	1.483424	0.122381	0.150500
Zn9	Zn	1.483427	0.122377	-0.150664
O10	O	1.473380	0.243352	0.114200
C11	C	1.253825	0.127118	-0.000071
C12	C	1.114416	0.124670	-0.000064
C13	C	1.048899	0.123530	0.124524
C14	C	0.917908	0.121236	0.124501
C15	C	0.917961	0.121226	-0.124709
C16	C	1.048951	0.123514	-0.124685
C17	C	1.048867	0.123539	0.268404
C18	C	0.917876	0.121245	0.268381
C19	C	1.492656	-0.029571	-0.000074
C20	C	1.490216	-0.121881	-0.000075
C21	C	1.596678	-0.430243	-0.000104
C22	C	1.598982	-0.343509	-0.000096
C23	C	1.370163	-0.325003	-0.000067
C24	C	1.367861	-0.411736	-0.000065
C25	C	1.481122	-0.464354	-0.000091
C26	C	1.485729	-0.290887	-0.000085
C27	C	1.488226	-0.196846	-0.000077
C28	C	1.478625	-0.558401	-0.000097
C29	C	1.713026	0.117640	-0.000096
C30	C	1.852435	0.120089	-0.000111
C31	C	1.474195	0.274330	-0.000093
C32	C	1.476635	0.366640	-0.000100
N33	N	1.483431	0.122384	0.356036
N34	N	1.483430	0.122368	-0.356200
C35	C	1.568850	0.066376	0.427963
C36	C	1.568847	0.066366	0.571846
C37	C	1.398001	0.178378	0.571864
C38	C	1.398000	0.178384	0.427983
C39	C	1.667490	0.001709	0.427953
C40	C	1.667487	0.001699	0.571836
H41	H	1.077619	0.184175	0.313043
Cl42	Cl	0.873435	0.027717	0.337611
Cl43	Cl	1.121501	0.034835	0.353714
H44	H	1.646914	-0.062195	0.388905
Cl45	Cl	0.845201	0.209954	0.353650
Cl46	Cl	1.621632	-0.091530	0.640740
H47	H	0.864643	0.120285	-0.226171
Cl48	Cl	1.290597	0.248784	0.337561
H49	H	1.273755	-0.439508	-0.000048
Cl50	Cl	1.816191	0.023689	0.632130
H51	H	1.102292	0.124430	-0.226137
Cl52	Cl	1.739064	-0.496389	-0.000129
H53	H	1.758399	0.021961	0.383321
H54	H	1.277950	-0.282152	-0.000050
Cl55	Cl	1.744260	-0.300632	-0.000118
H56	H	1.328445	0.223972	0.630458
