data_functionalizedCrystal
_audit_creation_method	'MofGen! by Chris Wilmer'
_symmetry_space_group_name_H-M	'P1'
_symmetry_Int_Tables_number	1
_symmetry_cell_setting	triclinic
loop_
_symmetry_equiv_pos_as_xyz
  x,y,z
_cell_length_a	17.038272
_cell_length_b	17.699077
_cell_length_c	16.776229
_cell_angle_alpha	89.993415
_cell_angle_beta	90.000135
_cell_angle_gamma	92.803934
loop_
_atom_site_label
_atom_site_type_symbol
_atom_site_fract_x
_atom_site_fract_y
_atom_site_fract_z
O1	O	-0.098839	1.010621	-0.066267
O2	O	-0.111705	0.791094	-0.066269
O3	O	0.008541	0.899553	-0.066275
O4	O	-0.219085	0.902162	-0.066261
O5	O	0.008549	0.899537	0.066301
O6	O	-0.111698	0.791078	0.066307
O7	O	-0.098831	1.010606	0.066310
Zn8	Zn	-0.105263	0.900839	0.087358
Zn9	Zn	-0.105273	0.900860	-0.087318
O10	O	-0.219078	0.902146	0.066315
C11	C	-0.111241	0.762858	0.000018
C12	C	-0.109861	0.678749	0.000017
C13	C	-0.109206	0.639230	0.072285
C14	C	-0.107896	0.560200	0.072286
C15	C	-0.107247	0.520691	0.000017
C16	C	-0.107899	0.560216	-0.072256
C17	C	-0.109203	0.639244	-0.072256
C18	C	-0.102638	0.241505	-0.072258
C19	C	-0.101336	0.162471	-0.072253
C20	C	-0.101331	0.162461	0.072284
C21	C	-0.102635	0.241489	0.072284
C22	C	-0.103283	0.281007	0.000011
C23	C	-0.104702	0.366700	0.000011
C24	C	-0.105833	0.435000	0.000017
C25	C	-0.248206	0.904528	0.000029
C26	C	-0.334987	0.911609	0.000034
C27	C	-0.385209	0.846598	0.000033
C28	C	-0.466748	0.853256	0.000023
C29	C	-0.498065	0.924925	0.000020
C30	C	-0.447837	0.989940	0.000019
C31	C	-0.366299	0.983282	0.000023
C32	C	-0.743784	0.948448	0.000002
C33	C	-0.825328	0.955101	0.000000
C34	C	-0.844234	0.818416	0.000003
C35	C	-0.762694	0.811764	0.000012
C36	C	-0.712473	0.876780	0.000007
C37	C	-0.581411	0.931732	0.000012
C38	C	-0.629128	0.869972	0.000009
C39	C	0.037669	0.897172	0.000010
C40	C	0.124450	0.890091	-0.000001
C41	C	-0.099295	1.038841	0.000020
C42	C	-0.100676	1.122951	0.000016
N43	N	-0.105256	0.900830	0.206569
N44	N	-0.105274	0.900875	-0.206529
C45	C	-0.052033	0.948873	0.248283
C46	C	-0.052032	0.948877	0.331736
C47	C	-0.105259	0.900842	0.373472
C48	C	-0.158485	0.852794	0.331751
C49	C	-0.158482	0.852786	0.248301
C50	C	-0.158501	0.852822	0.668299
C51	C	-0.158502	0.852835	0.751755
C52	C	-0.052051	0.948913	0.751734
C53	C	-0.052048	0.948906	0.668283
C54	C	-0.105270	0.900855	0.626570
C55	C	-0.105270	0.900850	0.536081
C56	C	-0.105265	0.900850	0.463959
H57	H	-0.100800	0.130276	0.131132
H58	H	-0.107350	0.528028	0.131134
C59	C	0.005873	1.001005	0.376919
C60	C	0.082682	0.983814	0.356609
C61	C	0.136046	1.031830	0.398205
H62	H	-0.001636	0.994182	0.432609
H63	H	-0.002515	1.052064	0.363208
H64	H	0.091067	0.932767	0.370325
H65	H	0.090216	0.990642	0.300925
H66	H	0.127658	1.082889	0.384494
H67	H	0.128530	1.025003	0.453893
H68	H	0.188167	1.020178	0.384425
H69	H	-0.702903	1.001388	0.000002
C70	C	-0.595282	0.792094	-0.000029
C71	C	-0.656712	0.736579	-0.000048
C72	C	-0.625556	0.664830	-0.000090
H73	H	-0.563879	0.786550	0.046192
H74	H	-0.563888	0.786623	-0.046279
H75	H	-0.688093	0.742048	0.046198
H76	H	-0.688121	0.742099	-0.046265
H77	H	-0.594162	0.659358	-0.046340
H78	H	-0.594153	0.659293	0.046131
H79	H	-0.667231	0.627154	-0.000110
H80	H	-0.103168	0.273653	0.131132
H81	H	-0.100807	0.130305	-0.131106
C82	C	-0.898721	0.747805	0.000163
C83	C	-0.884610	0.704954	0.068379
C84	C	-0.934795	0.639904	0.068554
H85	H	-0.889284	0.718555	-0.046016
H86	H	-0.951780	0.762000	0.000201
H87	H	-0.831563	0.690758	0.068333
H88	H	-0.894052	0.734181	0.114569
H89	H	-0.987854	0.654099	0.068593
H90	H	-0.925353	0.610660	0.022372
H91	H	-0.925232	0.610825	0.114841
C92	C	-0.109747	0.682092	0.150774
C93	C	-0.042185	0.667069	0.194359
C94	C	-0.042648	0.706547	0.266664
H95	H	-0.155048	0.666333	0.180569
H96	H	-0.110576	0.734829	0.140460
H97	H	-0.041364	0.614344	0.204676
H98	H	0.003126	0.682832	0.164589
H99	H	-0.043478	0.759283	0.256350
H100	H	-0.087952	0.690784	0.296451
H101	H	0.003194	0.696365	0.296242
H102	H	-0.008693	0.987992	0.214307
H103	H	-0.107365	0.528042	-0.131099
C104	C	-0.109756	0.682202	-0.150697
C105	C	-0.043263	0.731748	-0.154933
C106	C	-0.043738	0.771324	-0.227187
H107	H	-0.155782	0.710257	-0.153777
H108	H	-0.109142	0.647380	-0.193760
H109	H	-0.043885	0.766566	-0.111882
H110	H	0.002773	0.703713	-0.151866
H111	H	-0.043124	0.736502	-0.270251
H112	H	-0.089766	0.799374	-0.230262
H113	H	0.001380	0.804941	-0.230075
H114	H	-0.201838	0.813699	0.634342
C115	C	-0.351060	0.768851	0.000076
C116	C	-0.268903	0.776931	0.000101
C117	C	-0.237422	0.705325	0.000148
H118	H	-0.368220	0.741805	-0.046146
H119	H	-0.368267	0.741847	0.046325
H120	H	-0.251703	0.803924	-0.046144
H121	H	-0.251722	0.803964	0.046319
H122	H	-0.254629	0.678321	0.046397
H123	H	-0.254587	0.678285	-0.046074
H124	H	-0.181676	0.710798	0.000173
H125	H	-0.507636	0.800317	0.000020
H126	H	-0.103163	0.273671	-0.131108
C127	C	-0.216241	0.800723	0.377206
C128	C	-0.204870	0.811027	0.459218
C129	C	-0.258071	0.763080	0.501113
H130	H	-0.207869	0.749638	0.363640
H131	H	-0.268422	0.812305	0.363569
H132	H	-0.152703	0.799439	0.472850
H133	H	-0.213249	0.862101	0.472808
H134	H	-0.310251	0.774662	0.487476
H135	H	-0.249694	0.711999	0.487541
H136	H	-0.250368	0.770070	0.556762
H137	H	-0.737202	0.753404	0.000005
C138	C	-0.311731	1.053839	-0.000139
C139	C	-0.264380	1.054024	-0.068356
C140	C	-0.214111	1.119016	-0.068541
H141	H	-0.279456	1.054147	0.046040
H142	H	-0.342030	1.097496	-0.000183
H143	H	-0.234084	1.010378	-0.068304
H144	H	-0.296634	1.053727	-0.114545
H145	H	-0.244411	1.162673	-0.068586
H146	H	-0.181842	1.119318	-0.022360
H147	H	-0.181983	1.119153	-0.114829
H148	H	-0.606918	0.990085	0.000037
C149	C	-0.859370	1.032900	0.000156
C150	C	-0.905612	1.040722	0.068373
C151	C	-0.936974	1.112380	0.068551
H152	H	-0.890839	1.038419	-0.046023
H153	H	-0.817801	1.070689	0.000194
H154	H	-0.947174	1.002944	0.068327
H155	H	-0.874160	1.035218	0.114563
H156	H	-0.895405	1.150168	0.068589
H157	H	-0.968439	1.117891	0.022369
H158	H	-0.968346	1.117698	0.114839
C159	C	-0.481986	1.067686	0.000056
C160	C	-0.564143	1.059605	0.000076
C161	C	-0.595626	1.131210	0.000123
H162	H	-0.464824	1.094745	-0.046163
H163	H	-0.464783	1.094679	0.046307
H164	H	-0.581339	1.032624	-0.046171
H165	H	-0.581327	1.032560	0.046291
H166	H	-0.578423	1.158203	0.046375
H167	H	-0.578458	1.158262	-0.046096
H168	H	-0.651372	1.125736	0.000144
H169	H	-0.008708	0.988023	0.634304
H170	H	-0.008712	0.988036	0.785705
C171	C	-0.216324	0.800591	0.796927
C172	C	-0.262919	0.758491	0.742536
C173	C	-0.316182	0.710352	0.784119
H174	H	-0.248911	0.829823	0.829475
H175	H	-0.188257	0.767248	0.829473
H176	H	-0.290984	0.791830	0.710003
H177	H	-0.230354	0.729243	0.709986
H178	H	-0.288115	0.677010	0.816665
H179	H	-0.348763	0.739591	0.816666
H180	H	-0.347798	0.681777	0.747221
C181	C	-0.216358	0.800599	0.203151
C182	C	-0.262988	0.758548	0.257561
C183	C	-0.316318	0.710469	0.216000
H184	H	-0.188366	0.767219	0.170604
H185	H	-0.248907	0.829896	0.170606
H186	H	-0.230443	0.729253	0.290093
H187	H	-0.290997	0.791908	0.290111
H188	H	-0.348867	0.739766	0.183454
H189	H	-0.288319	0.677094	0.183454
H190	H	-0.347967	0.681936	0.252911
