data_functionalizedCrystal
_audit_creation_method	'MofGen! by Chris Wilmer'
_symmetry_space_group_name_H-M	'P1'
_symmetry_Int_Tables_number	1
_symmetry_cell_setting	triclinic
loop_
_symmetry_equiv_pos_as_xyz
  x,y,z
_cell_length_a	17.000373
_cell_length_b	15.500373
_cell_length_c	16.109301
_cell_angle_alpha	86.826937
_cell_angle_beta	100.469750
_cell_angle_gamma	93.353116
loop_
_atom_site_label
_atom_site_type_symbol
_atom_site_fract_x
_atom_site_fract_y
_atom_site_fract_z
O1	O	-1.052802	0.071972	0.026748
O2	O	-0.552802	0.571972	0.526748
O3	O	-0.821062	0.071968	0.056924
O4	O	-0.321062	0.571968	0.556924
O5	O	-0.943299	0.071962	-0.079659
O6	O	-0.443299	0.571962	0.420341
O7	O	-0.930566	0.071979	0.163330
O8	O	-0.430566	0.571979	0.663330
O9	O	-0.949871	-0.071923	-0.073246
O10	O	-0.449871	0.428077	0.426754
O11	O	-0.827634	-0.071916	0.063336
O12	O	-0.327634	0.428084	0.563336
O13	O	-1.059375	-0.071912	0.033160
O14	O	-0.559375	0.428088	0.533160
Cu15	Cu	-0.944104	-0.085052	0.048834
Cu16	Cu	-0.444104	0.414948	0.548834
Cu17	Cu	-0.936332	0.085108	0.041250
Cu18	Cu	-0.436332	0.585108	0.541250
O19	O	-0.937138	-0.071905	0.169743
O20	O	-0.437138	0.428095	0.669743
C21	C	-0.794694	0.000026	0.061751
C22	C	-0.294694	0.500026	0.561751
C23	C	-0.706334	0.000024	0.066571
C24	C	-0.206334	0.500024	0.566571
N25	N	-0.949577	-0.204733	0.054167
N26	N	-0.449577	0.295267	0.554167
C27	C	-0.674328	0.000016	-0.007596
C28	C	-0.174328	0.500016	0.492404
C29	C	-0.591304	0.000021	-0.003062
C30	C	-0.091304	0.500021	0.496938
C31	C	-0.540287	0.000027	0.075639
C32	C	-0.040287	0.500027	0.575639
C33	C	-0.572298	0.000037	0.149810
C34	C	-0.072298	0.500037	0.649810
C35	C	-0.655321	0.000039	0.145276
C36	C	-0.155321	0.500039	0.645276
C37	C	-0.289136	0.000028	0.093153
C38	C	0.210864	0.500028	0.593153
C39	C	-0.206109	0.000023	0.097682
C40	C	0.293891	0.500023	0.597682
C41	C	-0.225120	0.000009	-0.055191
C42	C	0.274880	0.500009	0.444809
C43	C	-0.308144	0.000005	-0.059718
C44	C	0.191856	0.500005	0.440282
C45	C	-0.340147	0.000020	0.014453
C46	C	0.159853	0.500020	0.514453
C47	C	-0.455423	0.000029	0.080274
C48	C	0.044577	0.500029	0.580274
C49	C	-0.425010	0.000024	0.009816
C50	C	0.074990	0.500024	0.509816
C51	C	-0.903404	-0.250039	0.009258
C52	C	-0.403404	0.249961	0.509258
C53	C	-0.907562	-0.340610	0.013299
C54	C	-0.407562	0.159390	0.513299
C55	C	-0.957898	-0.385872	0.062246
C56	C	-0.457898	0.114128	0.562246
C57	C	-1.004072	-0.340560	0.107160
C58	C	-0.504072	0.159440	0.607160
C59	C	-0.999909	-0.249991	0.103123
C60	C	-0.499909	0.250009	0.603123
C61	C	-0.972877	-0.659330	0.076787
C62	C	-0.472877	-0.159330	0.576787
C63	C	-0.977038	-0.749904	0.080819
C64	C	-0.477038	-0.249904	0.580819
C65	C	-0.880527	-0.749948	-0.013041
C66	C	-0.380527	-0.249948	0.486959
C67	C	-0.876372	-0.659378	-0.017078
C68	C	-0.376372	-0.159378	0.482922
C69	C	-0.922543	-0.614073	0.027840
C70	C	-0.422543	-0.114073	0.527840
C71	C	-0.962151	-0.478449	0.066376
C72	C	-0.462151	0.021551	0.566376
C73	C	-0.918285	-0.521498	0.023714
C74	C	-0.418285	-0.021498	0.523714
C75	C	-0.085743	0.000026	0.028334
C76	C	0.414257	0.500026	0.528334
C77	C	-0.174103	0.000016	0.023516
C78	C	0.325897	0.500016	0.523516
C79	C	-0.946069	0.000019	-0.107390
C80	C	-0.446069	0.500019	0.392610
C81	C	-0.944523	0.000018	-0.199572
C82	C	-0.444523	0.500018	0.300428
N83	N	-0.930866	0.204790	0.035910
N84	N	-0.430866	0.704790	0.535910
C85	C	-1.013460	0.000033	-0.426866
C86	C	-0.513460	0.500033	0.073134
C87	C	-1.012000	0.000040	-0.513480
C88	C	-0.512000	0.500040	-0.013480
C89	C	-0.866971	0.000034	-0.483044
C90	C	-0.366971	0.500034	0.016956
C91	C	-0.868431	0.000033	-0.396431
C92	C	-0.368431	0.500033	0.103569
C93	C	-0.941678	0.000028	-0.368345
C94	C	-0.441678	0.500028	0.131655
C95	C	-0.938758	0.000036	-0.541572
C96	C	-0.438758	0.500036	-0.041572
C97	C	-0.937176	0.000044	-0.635483
C98	C	-0.437176	0.500044	-0.135483
C99	C	-0.943261	0.000022	-0.274428
C100	C	-0.443261	0.500022	0.225572
C101	C	-0.934367	0.000039	0.197473
C102	C	-0.434367	0.500039	0.697473
C103	C	-0.935913	0.000046	0.289656
C104	C	-0.435913	0.500046	0.789656
H105	H	-0.565249	0.000015	-0.063456
H106	H	-0.065249	0.500015	0.436544
C107	C	-0.789318	-0.073933	-0.278070
C108	C	-0.289318	0.426067	0.221930
C109	C	-0.789524	0.000029	-0.332094
C110	C	-0.289524	0.500029	0.167906
H111	H	-0.740609	-0.073927	-0.238348
H112	H	-0.240609	0.426073	0.261652
H113	H	-0.794047	-0.124100	-0.310256
H114	H	-0.294047	0.375900	0.189744
H115	H	-0.833154	-0.073922	-0.248955
H116	H	-0.333154	0.426078	0.251045
H117	H	-0.745691	0.000015	-0.361214
H118	H	-0.245691	0.500015	0.138786
H119	H	-0.784787	0.050210	-0.299904
H120	H	-0.284787	0.550210	0.200096
H121	H	-1.073102	0.000030	-0.404001
H122	H	-0.573102	0.500030	0.095999
H123	H	-0.715861	0.000007	-0.071682
H124	H	-0.215861	0.500007	0.428318
C125	C	-0.806564	-0.419684	0.021745
C126	C	-0.306564	0.080316	0.521745
C127	C	-0.862957	-0.471747	-0.030086
C128	C	-0.362957	0.028253	0.469914
H129	H	-0.772412	-0.388962	-0.011474
H130	H	-0.272412	0.111038	0.488526
H131	H	-0.775561	-0.455025	0.063934
H132	H	-0.275561	0.044975	0.563934
H133	H	-0.833477	-0.379746	0.047914
H134	H	-0.333477	0.120254	0.547914
H135	H	-0.836044	-0.511689	-0.056250
H136	H	-0.336044	-0.011689	0.443750
H137	H	-0.893964	-0.436403	-0.072290
H138	H	-0.393964	0.063597	0.427710
C139	C	-0.808419	-0.259189	-0.083104
C140	C	-0.308419	0.240811	0.416896
C141	C	-0.848071	-0.200291	-0.044544
C142	C	-0.348071	0.299709	0.455456
H143	H	-0.774254	-0.228476	-0.116313
H144	H	-0.274254	0.271524	0.383687
H145	H	-0.846681	-0.294502	-0.118254
H146	H	-0.346681	0.205498	0.381746
H147	H	-0.777421	-0.294523	-0.040891
H148	H	-0.277421	0.205477	0.459109
H149	H	-0.879075	-0.164961	-0.086758
H150	H	-0.379075	0.335039	0.413242
H151	H	-0.809804	-0.164963	-0.009391
H152	H	-0.309804	0.335037	0.490609
C153	C	-1.068702	-0.668397	0.169955
C154	C	-0.568702	-0.168397	0.669955
C155	C	-1.023638	-0.609539	0.126150
C156	C	-0.523638	-0.109539	0.626150
H157	H	-1.100046	-0.637653	0.200424
H158	H	-0.600046	-0.137653	0.700424
H159	H	-1.033688	-0.703727	0.208254
H160	H	-0.533688	-0.203727	0.708254
H161	H	-1.102946	-0.703717	0.130889
H162	H	-0.602946	-0.203717	0.630889
H163	H	-0.989390	-0.574222	0.165216
H164	H	-0.489390	-0.074222	0.665216
H165	H	-1.058656	-0.574193	0.087847
H166	H	-0.558656	-0.074193	0.587847
H167	H	-0.164572	0.000024	0.161774
H168	H	0.335428	0.500024	0.661774
C169	C	-0.746284	-0.073932	-0.480470
C170	C	-0.246284	0.426068	0.019530
C171	C	-0.786459	0.000033	-0.513915
C172	C	-0.286459	0.500033	-0.013915
H173	H	-0.696576	-0.073929	-0.499523
H174	H	-0.196576	0.426071	0.000477
H175	H	-0.778130	-0.124097	-0.498691
H176	H	-0.278130	0.375903	0.001309
H177	H	-0.736889	-0.073923	-0.420511
H178	H	-0.236889	0.426077	0.079489
H179	H	-0.795859	0.000020	-0.573874
H180	H	-0.295859	0.500020	-0.073874
H181	H	-0.754606	0.050211	-0.495699
H182	H	-0.254606	0.550211	0.004301
C183	C	-0.781385	-0.668522	-0.109440
C184	C	-0.281385	-0.168522	0.390560
C185	C	-0.821037	-0.609628	-0.070876
C186	C	-0.321037	-0.109628	0.429124
H187	H	-0.747221	-0.637806	-0.142650
H188	H	-0.247221	-0.137806	0.357350
H189	H	-0.819646	-0.703836	-0.144590
H190	H	-0.319646	-0.203836	0.355410
H191	H	-0.750383	-0.703855	-0.067229
H192	H	-0.250383	-0.203855	0.432771
H193	H	-0.852044	-0.574298	-0.113088
H194	H	-0.352044	-0.074298	0.386912
H195	H	-0.782771	-0.574299	-0.035724
H196	H	-0.282771	-0.074299	0.464276
H197	H	-0.349677	-0.000004	-0.123804
H198	H	0.150323	0.499996	0.376196
H199	H	-1.070452	0.000045	-0.561126
H200	H	-0.570452	0.500045	-0.061126
H201	H	-0.466551	0.000024	-0.054261
H202	H	0.033449	0.500024	0.445739
C203	C	-0.106294	0.000008	-0.116122
C204	C	0.393706	0.500008	0.383878
C205	C	-0.189939	0.000005	-0.136717
C206	C	0.310061	0.500005	0.363283
H207	H	-0.084577	0.000014	-0.166457
H208	H	0.415423	0.500014	0.333543
H209	H	-0.091079	-0.050164	-0.081747
H210	H	0.408921	0.449836	0.418253
H211	H	-0.086500	0.050188	-0.086207
H212	H	0.413500	0.550188	0.413793
H213	H	-0.209734	-0.050179	-0.166627
H214	H	0.290266	0.449821	0.333373
H215	H	-0.205161	0.050182	-0.171106
H216	H	0.294839	0.550182	0.328894
C217	C	-0.261994	0.000027	0.244715
C218	C	0.238006	0.500027	0.744715
C219	C	-0.324308	0.000031	0.174682
C220	C	0.175692	0.500031	0.674682
H221	H	-0.283713	0.000022	0.295049
H222	H	0.216287	0.500022	0.795049
H223	H	-0.227718	0.050199	0.241069
H224	H	0.272282	0.550199	0.741069
H225	H	-0.232300	-0.050153	0.245528
H226	H	0.267700	0.449847	0.745528
H227	H	-0.353999	0.050214	0.173866
H228	H	0.146001	0.550214	0.673866
H229	H	-0.358598	-0.050146	0.178330
H230	H	0.141402	0.449854	0.678330
H231	H	-1.018028	-0.786755	0.120680
H232	H	-0.518028	-0.286755	0.620680
C233	C	-0.464520	0.074004	0.240296
C234	C	0.035480	0.574004	0.740296
C235	C	-0.516219	0.000043	0.236319
C236	C	-0.016219	0.500043	0.736319
H237	H	-0.429898	0.074001	0.293702
H238	H	0.070102	0.574001	0.793702
H239	H	-0.495010	0.124172	0.233119
H240	H	0.004990	0.624172	0.733119
H241	H	-0.433581	0.073989	0.196768
H242	H	0.066419	0.573989	0.696768
H243	H	-0.547163	0.000061	0.279843
H244	H	-0.047163	0.500061	0.779843
H245	H	-0.485726	-0.050138	0.243505
H246	H	0.014274	0.449862	0.743505
C247	C	-0.628195	0.000044	0.296839
C248	C	-0.128195	0.500044	0.796839
C249	C	-0.690505	0.000043	0.226802
C250	C	-0.190505	0.500043	0.726802
H251	H	-0.649918	0.000044	0.347170
H252	H	-0.149918	0.500044	0.847170
H253	H	-0.593919	0.050215	0.293191
H254	H	-0.093919	0.550215	0.793191
H255	H	-0.598501	-0.050137	0.297659
H256	H	-0.098501	0.449863	0.797659
H257	H	-0.720196	0.050227	0.225978
H258	H	-0.220196	0.550227	0.725978
H259	H	-0.724795	-0.050133	0.230450
H260	H	-0.224795	0.449867	0.730450
H261	H	-0.413876	0.000033	0.144353
H262	H	0.086124	0.500033	0.644353
C263	C	-1.115801	-0.442367	0.109130
C264	C	-0.615801	0.057633	0.609130
C265	C	-1.059404	-0.390310	0.160962
C266	C	-0.559404	0.109690	0.660962
H267	H	-1.149965	-0.473074	0.142345
H268	H	-0.649965	0.026926	0.642345
H269	H	-1.088897	-0.482309	0.082970
H270	H	-0.588897	0.017691	0.582970
H271	H	-1.146798	-0.407017	0.066931
H272	H	-0.646798	0.092983	0.566931
H273	H	-1.028403	-0.425661	0.203157
H274	H	-0.528403	0.074339	0.703157
H275	H	-1.086310	-0.350363	0.187136
H276	H	-0.586310	0.149637	0.687136
C277	C	-1.095729	-0.259040	0.196297
C278	C	-0.595729	0.240960	0.696297
C279	C	-1.050666	-0.200187	0.152485
C280	C	-0.550666	0.299813	0.652485
H281	H	-1.127066	-0.228291	0.226770
H282	H	-0.627066	0.271709	0.726770
H283	H	-1.060715	-0.294372	0.234594
H284	H	-0.560715	0.205628	0.734594
H285	H	-1.129979	-0.294359	0.157235
H286	H	-0.629979	0.205641	0.657235
H287	H	-1.016412	-0.164872	0.191548
H288	H	-0.516412	0.335128	0.691548
H289	H	-1.085685	-0.164840	0.114185
H290	H	-0.585685	0.335160	0.614185
H291	H	-0.869964	-0.377494	-0.023271
H292	H	-0.369964	0.122506	0.476729
H293	H	-0.842936	-0.786844	-0.049609
H294	H	-0.342936	-0.286844	0.450391
H295	H	-1.003137	-0.515312	0.106225
H296	H	-0.503137	-0.015312	0.606225
