data_functionalizedCrystal
_audit_creation_method	'MofGen! by Chris Wilmer'
_symmetry_space_group_name_H-M	'P1'
_symmetry_Int_Tables_number	1
_symmetry_cell_setting	triclinic
loop_
_symmetry_equiv_pos_as_xyz
  x,y,z
_cell_length_a	16.992694
_cell_length_b	23.532407
_cell_length_c	16.053802
_cell_angle_alpha	92.544672
_cell_angle_beta	87.249047
_cell_angle_gamma	86.758451
loop_
_atom_site_label
_atom_site_type_symbol
_atom_site_fract_x
_atom_site_fract_y
_atom_site_fract_z
O1	O	1.042772	0.118472	-0.069339
O2	O	1.542772	0.618472	0.430661
O3	O	0.814498	0.117146	-0.069363
O4	O	1.314498	0.617146	0.430637
O5	O	0.935518	0.035219	-0.069335
O6	O	1.435518	0.535219	0.430665
O7	O	0.921752	0.200399	-0.069367
O8	O	1.421752	0.700399	0.430633
O9	O	0.928857	0.039709	0.069523
O10	O	1.428857	0.539709	0.569523
O11	O	0.807837	0.121636	0.069494
O12	O	1.307837	0.621636	0.569494
O13	O	1.036111	0.122961	0.069519
O14	O	1.536111	0.622961	0.569519
Zn15	Zn	0.920917	0.123011	0.091553
Zn16	Zn	1.420917	0.623011	0.591553
Zn17	Zn	0.929693	0.117096	-0.091397
Zn18	Zn	1.429693	0.617096	0.408603
O19	O	0.915091	0.204888	0.069490
O20	O	1.415091	0.704888	0.569490
C21	C	0.781969	0.117687	0.000063
C22	C	1.281969	0.617687	0.500063
C23	C	0.694964	0.112604	0.000054
C24	C	1.194964	0.612604	0.500054
C25	C	0.644342	0.161650	0.000045
C26	C	1.144342	0.661650	0.500045
C27	C	0.562592	0.156871	0.000058
C28	C	1.062592	0.656871	0.500058
C29	C	0.531466	0.103045	0.000073
C30	C	1.031466	0.603045	0.500073
C31	C	0.582095	0.053995	0.000084
C32	C	1.082095	0.553995	0.500084
C33	C	0.663843	0.058775	0.000078
C34	C	1.163843	0.558775	0.500078
C35	C	0.288022	0.083234	0.000099
C36	C	0.788022	0.583234	0.500099
C37	C	0.206267	0.078457	0.000103
C38	C	0.706267	0.578457	0.500103
C39	C	0.186770	0.181334	0.000078
C40	C	0.686770	0.681334	0.500078
C41	C	0.268521	0.186109	0.000066
C42	C	0.768521	0.686109	0.500066
C43	C	0.319142	0.137059	0.000082
C44	C	0.819142	0.637059	0.500082
N45	N	0.447905	0.098158	0.000083
N46	N	0.947905	0.598158	0.500083
N47	N	0.402702	0.141946	0.000078
N48	N	0.902702	0.641946	0.500078
C49	C	0.931837	0.016231	0.000096
C50	C	1.431837	0.516231	0.500096
C51	C	0.930783	-0.047038	0.000102
C52	C	1.430783	0.452962	0.500102
C53	C	0.995791	-0.442917	0.000063
C54	C	1.495791	0.057083	0.500063
C55	C	0.994812	-0.502366	0.000057
C56	C	1.494812	-0.002366	0.500057
O57	O	1.055075	-0.536121	0.000033
O58	O	1.555075	-0.036121	0.500033
N59	N	0.922865	-0.528562	0.000050
N60	N	1.422865	-0.028562	0.500050
C61	C	0.851893	-0.495307	0.000041
C62	C	1.351893	0.004693	0.500041
O63	O	0.790607	-0.523048	0.000033
O64	O	1.290607	-0.023048	0.500033
C65	C	0.852873	-0.435859	0.000041
C66	C	1.352873	0.064141	0.500041
C67	C	0.924824	-0.409666	0.000057
C68	C	1.424824	0.090334	0.500057
C69	C	1.067736	-0.416723	0.000078
C70	C	1.567736	0.083277	0.500078
C71	C	1.068715	-0.357278	0.000086
C72	C	1.568715	0.142722	0.500086
C73	C	0.997748	-0.324027	0.000079
C74	C	1.497748	0.175973	0.500079
C75	C	0.925803	-0.350221	0.000065
C76	C	1.425803	0.149779	0.500065
C77	C	0.781902	-0.402605	0.000026
C78	C	1.281902	0.097395	0.500026
C79	C	0.782889	-0.343154	0.000026
C80	C	1.282889	0.156846	0.500026
C81	C	0.854840	-0.316960	0.000042
C82	C	1.354840	0.183040	0.500042
C83	C	0.855814	-0.257525	0.000066
C84	C	1.355814	0.242475	0.500066
N85	N	0.927761	-0.231328	0.000073
N86	N	1.427761	0.268672	0.500073
C87	C	0.998728	-0.264579	0.000080
C88	C	1.498728	0.235421	0.500080
C89	C	0.849841	-0.620151	0.000038
C90	C	1.349841	-0.120151	0.500038
C91	C	0.848860	-0.679598	0.000044
C92	C	1.348860	-0.179598	0.500044
C93	C	0.991779	-0.686653	0.000058
C94	C	1.491779	-0.186653	0.500058
C95	C	0.992759	-0.627205	0.000059
C96	C	1.492759	-0.127205	0.500059
C97	C	0.921788	-0.593955	0.000045
C98	C	1.421788	-0.093955	0.500045
C99	C	1.000777	-0.139740	0.000097
C100	C	1.500777	0.360260	0.500097
C101	C	1.001749	-0.080289	0.000109
C102	C	1.501749	0.419711	0.500109
C103	C	0.858831	-0.073240	0.000090
C104	C	1.358831	0.426760	0.500090
C105	C	0.857858	-0.132685	0.000083
C106	C	1.357858	0.367315	0.500083
C107	C	0.928838	-0.165934	0.000084
C108	C	1.428838	0.334066	0.500084
O109	O	0.795583	-0.223734	0.000087
O110	O	1.295583	0.276266	0.500087
O111	O	1.060004	-0.236831	0.000076
O112	O	1.560004	0.263169	0.500076
C113	C	1.068641	0.122420	0.000091
C114	C	1.568641	0.622420	0.500091
C115	C	1.155645	0.127503	0.000094
C116	C	1.655645	0.627503	0.500094
C117	C	0.918773	0.223877	0.000058
C118	C	1.418773	0.723877	0.500058
C119	C	0.919827	0.287146	0.000046
C120	C	1.419827	0.787146	0.500046
N121	N	0.914933	0.127048	0.216412
N122	N	1.414933	0.627048	0.716412
N123	N	0.935683	0.113055	-0.216256
N124	N	1.435683	0.613055	0.283744
C125	C	0.966445	0.092202	0.260118
C126	C	1.466445	0.592202	0.760118
C127	C	0.962267	0.095032	0.347524
C128	C	1.462267	0.595032	0.847524
C129	C	0.906579	0.132711	0.391222
C130	C	1.406579	0.632711	0.891222
C131	C	0.855061	0.167558	0.347510
C132	C	1.355061	0.667558	0.847510
C133	C	0.859236	0.164725	0.260106
C134	C	1.359236	0.664725	0.760106
C135	C	0.888340	0.145069	0.652627
C136	C	1.388340	0.645069	1.152627
C137	C	0.884170	0.147901	0.740038
C138	C	1.384170	0.647901	1.240038
C139	C	0.991376	0.075374	0.740045
C140	C	1.491376	0.575374	1.240045
C141	C	0.995550	0.072546	0.652640
C142	C	1.495550	0.572546	1.152640
C143	C	0.944029	0.107392	0.608935
C144	C	1.444029	0.607392	1.108935
N145	N	0.902308	0.135606	0.480565
N146	N	1.402308	0.635606	0.980565
N147	N	0.948296	0.104494	0.519594
N148	N	1.448296	0.604494	1.019594
H149	H	1.060343	-0.058966	0.000124
H150	H	1.560343	0.441034	0.500124
C151	C	1.073362	-0.562150	0.071449
C152	C	1.573362	-0.062150	0.571449
C153	C	1.071850	-0.598418	0.000069
C154	C	1.571850	-0.098418	0.500069
H155	H	1.122195	-0.544384	0.071455
H156	H	1.622195	-0.044384	0.571455
H157	H	1.031248	-0.533837	0.071437
H158	H	1.531248	-0.033837	0.571437
H159	H	1.067682	-0.583638	0.119867
H160	H	1.567682	-0.083638	0.619867
H161	H	1.077525	-0.576929	-0.048349
H162	H	1.577525	-0.076929	0.451651
H163	H	1.113976	-0.626735	0.000074
H164	H	1.613976	-0.126735	0.500074
H165	H	0.792043	-0.593082	0.000034
H166	H	1.292043	-0.093082	0.500034
H167	H	0.145546	0.221267	0.000067
H168	H	0.645546	0.721267	0.500067
H169	H	0.329228	0.043294	0.000113
H170	H	0.829228	0.543294	0.500113
H171	H	0.817288	0.193100	0.224521
H172	H	1.317288	0.693100	0.724521
C173	C	0.640739	-0.389636	-0.000013
C174	C	1.140739	0.110364	0.499987
C175	C	0.702811	-0.431387	0.000001
C176	C	1.202811	0.068613	0.500001
H177	H	0.591909	-0.407405	-0.000035
H178	H	1.091909	0.092595	0.499965
H179	H	0.641770	-0.365040	0.048410
H180	H	1.141770	0.134960	0.548410
H181	H	0.646436	-0.368155	-0.048435
H182	H	1.146436	0.131845	0.451565
H183	H	0.697117	-0.452865	0.048427
H184	H	1.197117	0.047135	0.548427
H185	H	0.701778	-0.455993	-0.048427
H186	H	1.201778	0.044007	0.451573
H187	H	0.293858	0.229939	0.000044
H188	H	0.793858	0.729939	0.500044
C189	C	1.077881	0.081522	0.161770
C190	C	1.577881	0.581522	0.661770
C191	C	1.027625	0.050768	0.212067
C192	C	1.527625	0.550768	0.712067
H193	H	1.115642	0.055935	0.132105
H194	H	1.615642	0.555935	0.632105
H195	H	1.047798	0.101879	0.123249
H196	H	1.547798	0.601879	0.623249
H197	H	1.104296	0.107604	0.195848
H198	H	1.604296	0.607604	0.695848
H199	H	1.001205	0.024689	0.177988
H200	H	1.501205	0.524689	0.677988
H201	H	1.057711	0.030402	0.250592
H202	H	1.557711	0.530402	0.750592
C203	C	1.007811	-0.000532	0.374449
C204	C	1.507811	0.499468	0.874449
C205	C	1.018903	0.056733	0.395558
C206	C	1.518903	0.556733	0.895558
H207	H	1.042784	-0.024176	0.404099
H208	H	1.542784	0.475824	0.904099
H209	H	0.954877	-0.008658	0.388793
H210	H	1.454877	0.491342	0.888793
H211	H	1.018263	-0.007601	0.316138
H212	H	1.518263	0.492399	0.816138
H213	H	1.008445	0.063802	0.453869
H214	H	1.508445	0.563802	0.953869
H215	H	1.071850	0.064861	0.381220
H216	H	1.571850	0.564861	0.881220
C217	C	0.616851	0.262857	0.000030
C218	C	1.116851	0.762857	0.500030
C219	C	0.678552	0.220818	0.000030
C220	C	1.178552	0.720818	0.500030
H221	H	0.637970	0.299386	0.000028
H222	H	1.137970	0.799386	0.500028
H223	H	0.587689	0.257288	-0.048387
H224	H	1.087689	0.757288	0.451613
H225	H	0.583055	0.260413	0.048459
H226	H	1.083055	0.760413	0.548459
H227	H	0.712344	0.223259	-0.048402
H228	H	1.212344	0.723259	0.451598
H229	H	0.707726	0.226389	0.048452
H230	H	1.207726	0.726389	0.548452
H231	H	1.127305	-0.335957	0.000095
H232	H	1.627305	0.164043	0.500095
C233	C	0.462763	0.208863	-0.071338
C234	C	0.962763	0.708863	0.428662
C235	C	0.506950	0.210784	0.000039
C236	C	1.006950	0.710784	0.500039
H237	H	0.428410	0.242148	-0.071346
H238	H	0.928410	0.742148	0.428654
H239	H	0.497376	0.207020	-0.119753
H240	H	0.997376	0.707020	0.380247
H241	H	0.432527	0.176122	-0.071313
H242	H	0.932527	0.676122	0.428687
H243	H	0.537191	0.243523	0.000011
H244	H	1.037191	0.743523	0.500011
H245	H	0.472333	0.212633	0.048467
H246	H	0.972333	0.712633	0.548467
C247	C	0.704495	-0.274510	-0.071368
C248	C	1.204495	0.225490	0.428632
C249	C	0.704872	-0.306606	0.000012
C250	C	1.204872	0.193394	0.500012
H251	H	0.656329	-0.251951	-0.071376
H252	H	1.156329	0.248049	0.428624
H253	H	0.747475	-0.250400	-0.071351
H254	H	1.247475	0.249600	0.428649
H255	H	0.709412	-0.299413	-0.119786
H256	H	1.209412	0.200587	0.380214
H257	H	0.699961	-0.281702	0.048431
H258	H	1.199961	0.218298	0.548431
H259	H	0.661880	-0.330718	0.000003
H260	H	1.161880	0.169282	0.500003
C261	C	0.801064	0.204110	0.481489
C262	C	1.301064	0.704110	0.981489
C263	C	0.793848	0.208978	0.395541
C264	C	1.293848	0.708978	0.895541
H265	H	0.763277	0.229685	0.511138
H266	H	1.263277	0.729685	1.011138
H267	H	0.792163	0.166193	0.495826
H268	H	1.292163	0.666193	0.995826
H269	H	0.852644	0.213160	0.495792
H270	H	1.352644	0.713160	0.995792
H271	H	0.742270	0.199923	0.381237
H272	H	1.242270	0.699923	0.881237
H273	H	0.802743	0.246903	0.381199
H274	H	1.302743	0.746903	0.881199
H275	H	0.180928	0.034624	0.000115
H276	H	0.680928	0.534624	0.500115
H277	H	0.705059	0.018836	0.000085
H278	H	1.205059	0.518836	0.500085
H279	H	0.556745	0.010169	0.000109
H280	H	1.056745	0.510169	0.500109
H281	H	1.058576	-0.166805	0.000095
H282	H	1.558576	0.333195	0.500095
C283	C	1.209097	-0.417709	0.000108
C284	C	1.709097	0.082291	0.500108
C285	C	1.145752	-0.453266	0.000093
C286	C	1.645752	0.046734	0.500093
H287	H	1.257263	-0.440267	0.000127
H288	H	1.757263	0.059733	0.500127
H289	H	1.208828	-0.395941	-0.048315
H290	H	1.708828	0.104059	0.451685
H291	H	1.204165	-0.392810	0.048531
H292	H	1.704165	0.107190	0.548531
H293	H	1.150681	-0.478162	-0.048334
H294	H	1.650681	0.021838	0.451666
H295	H	1.146022	-0.475044	0.048520
H296	H	1.646022	0.024956	0.548520
H297	H	1.049564	-0.713737	0.000061
H298	H	1.549564	-0.213737	0.500061
C299	C	0.716688	-0.119738	0.000060
C300	C	1.216688	0.380262	0.500060
C301	C	0.778770	-0.161481	0.000064
C302	C	1.278770	0.338519	0.500064
H303	H	0.667863	-0.137514	0.000036
H304	H	1.167863	0.362486	0.500036
H305	H	0.717714	-0.095145	0.048489
H306	H	1.217714	0.404855	0.548489
H307	H	0.722377	-0.098251	-0.048357
H308	H	1.222377	0.401749	0.451643
H309	H	0.773083	-0.182965	0.048485
H310	H	1.273083	0.317035	0.548485
H311	H	0.777742	-0.186083	-0.048369
H312	H	1.277742	0.313917	0.451631
H313	H	0.790270	-0.700919	0.000046
H314	H	1.290270	-0.200919	0.500046
H315	H	0.801051	-0.046156	0.000087
H316	H	1.301051	0.453844	0.500087
H317	H	1.040895	0.041865	0.617062
H318	H	1.540895	0.541865	1.117062
H319	H	1.033321	0.047004	0.775638
H320	H	1.533321	0.547004	1.275638
C321	C	0.778596	0.219295	0.731255
C322	C	1.278596	0.719295	1.231255
C323	C	0.822942	0.189312	0.788073
C324	C	1.322942	0.689312	1.288073
H325	H	0.740795	0.244854	0.760913
H326	H	1.240795	0.744854	1.260913
H327	H	0.812679	0.240174	0.697156
H328	H	1.312679	0.740174	1.197156
H329	H	0.752227	0.193187	0.697173
H330	H	1.252227	0.693187	1.197173
H331	H	0.849316	0.215419	0.822151
H332	H	1.349316	0.715419	1.322151
H333	H	0.788854	0.168432	0.822186
H334	H	1.288854	0.668432	1.322186
H335	H	0.846391	0.173443	0.617050
H336	H	1.346391	0.673443	1.117050
