data_functionalizedCrystal
_audit_creation_method	'MofGen! by Chris Wilmer'
_symmetry_space_group_name_H-M	'P1'
_symmetry_Int_Tables_number	1
_symmetry_cell_setting	triclinic
loop_
_symmetry_equiv_pos_as_xyz
  x,y,z
_cell_length_a	14.908558
_cell_length_b	19.077391
_cell_length_c	19.076919
_cell_angle_alpha	89.937326
_cell_angle_beta	89.120201
_cell_angle_gamma	95.698727
loop_
_atom_site_label
_atom_site_type_symbol
_atom_site_fract_x
_atom_site_fract_y
_atom_site_fract_z
Zn1	Zn	1.374718	0.360102	-0.445240
Zn2	Zn	1.386701	0.473450	-0.323529
Zn3	Zn	1.229644	0.348608	-0.321503
Zn4	Zn	1.230062	0.470796	-0.434253
O5	O	1.305281	0.413239	-0.381131
O6	O	1.502576	0.381059	-0.434541
O7	O	1.370707	0.453190	-0.225137
O8	O	1.243699	0.251560	-0.341668
O9	O	1.511379	0.464336	-0.345120
O10	O	1.350284	0.260005	-0.432577
O11	O	1.255318	0.361469	-0.223649
O12	O	1.103431	0.358895	-0.331014
O13	O	1.244411	0.459812	-0.533833
O14	O	1.103739	0.448666	-0.413851
O15	O	1.350690	0.378486	-0.541906
O16	O	1.371112	0.571671	-0.334466
O17	O	1.256030	0.569721	-0.415815
C18	C	1.070845	0.402246	-0.371021
C19	C	0.970552	0.397560	-0.366711
C20	C	1.314941	0.596256	-0.374184
C21	C	1.319154	0.674557	-0.371239
C22	C	0.829001	0.344154	-0.317585
C23	C	0.923235	0.348553	-0.321631
C24	C	0.923629	0.442171	-0.407750
C25	C	0.829395	0.437772	-0.403703
C26	C	0.782084	0.388763	-0.358619
C27	C	0.687849	0.384368	-0.354569
C28	C	0.688245	0.477982	-0.440691
C29	C	0.782479	0.482381	-0.444737
C30	C	1.261179	0.710350	-0.412171
C31	C	1.265142	0.783921	-0.409401
C32	C	1.327086	0.821699	-0.365703
C33	C	1.385063	0.785901	-0.324767
C34	C	1.381095	0.712330	-0.327533
C35	C	1.345379	1.041838	-0.352888
C36	C	1.349345	1.115414	-0.350126
C37	C	1.229422	1.113429	-0.434760
C38	C	1.225463	1.039857	-0.437526
C39	C	1.283437	1.004065	-0.396587
N40	N	1.331140	0.896901	-0.362872
N41	N	1.279378	0.928864	-0.399414
C42	C	1.540633	0.424276	-0.391282
C43	C	1.640926	0.428979	-0.395607
C44	C	1.296260	0.420135	-0.564023
C45	C	1.292416	0.423074	-0.641961
C46	C	1.295579	1.229507	-0.388111
C47	C	1.291370	1.151207	-0.391058
C48	C	1.345941	0.382114	-0.682780
C49	C	1.342318	0.384872	-0.756010
C50	C	1.285174	0.428594	-0.788420
C51	C	1.231644	0.469555	-0.747595
C52	C	1.235263	0.466793	-0.674367
C53	C	1.268413	0.441392	-1.006980
C54	C	1.264800	0.444152	-1.080214
C55	C	1.375473	0.359468	-1.088624
C56	C	1.379091	0.356713	-1.015393
C57	C	1.325557	0.397671	-0.974575
N58	N	1.281472	0.431416	-0.863273
N59	N	1.329256	0.394845	-0.899723
C60	C	1.314316	0.406321	-0.198955
C61	C	1.318325	0.403193	-0.121033
H62	H	0.649330	0.344462	-0.317859
H63	H	0.821012	0.522281	-0.481445
H64	H	1.419057	0.326121	-1.121865
H65	H	0.790480	0.304250	-0.280874
H66	H	1.385906	0.351520	-0.789242
H67	H	1.224835	0.474754	-0.973755
H68	H	1.399792	1.146171	-0.314543
H69	H	1.175024	1.009100	-0.473108
H70	H	1.435495	0.816665	-0.289183
H71	H	1.185113	0.505152	-0.773989
C72	C	1.441944	0.308608	-0.979748
N73	N	1.489285	0.272373	-0.952900
H74	H	1.218264	0.479758	-1.106600
H75	H	1.191668	0.500139	-0.641132
H76	H	0.962165	0.482068	-0.444459
H77	H	0.961430	0.312226	-0.288220
H78	H	1.210742	0.679596	-0.447758
C79	C	0.636629	0.527055	-0.485831
N80	N	0.597751	0.564016	-0.519829
H81	H	1.217925	0.813060	-0.442725
H82	H	1.182222	1.142579	-0.468089
C83	C	1.409138	1.002475	-0.307840
N84	N	1.457157	0.972825	-0.273903
H85	H	1.428303	0.683189	-0.294202
H86	H	1.392476	0.346513	-0.656397
