data_functionalizedCrystal
_audit_creation_method	'MofGen! by Chris Wilmer'
_symmetry_space_group_name_H-M	'P1'
_symmetry_Int_Tables_number	1
_symmetry_cell_setting	triclinic
loop_
_symmetry_equiv_pos_as_xyz
  x,y,z
_cell_length_a	18.215407
_cell_length_b	16.625546
_cell_length_c	18.215398
_cell_angle_alpha	90.026650
_cell_angle_beta	90.019464
_cell_angle_gamma	90.022916
loop_
_atom_site_label
_atom_site_type_symbol
_atom_site_fract_x
_atom_site_fract_y
_atom_site_fract_z
Zn1	Zn	1.125082	-0.321020	0.416110
Zn2	Zn	1.375082	-0.071020	0.666110
Zn3	Zn	1.625082	0.178980	0.916110
Zn4	Zn	1.875082	0.428980	1.166110
Zn5	Zn	1.124996	-0.455855	0.293041
Zn6	Zn	1.374996	-0.205855	0.543041
Zn7	Zn	1.624996	0.044145	0.793041
Zn8	Zn	1.874996	0.294145	1.043041
Zn9	Zn	1.002015	-0.321041	0.293057
Zn10	Zn	1.252015	-0.071041	0.543057
Zn11	Zn	1.502015	0.178959	0.793057
Zn12	Zn	1.752015	0.428959	1.043057
Zn13	Zn	1.001985	-0.455816	0.416066
Zn14	Zn	1.251985	-0.205816	0.666066
Zn15	Zn	1.501985	0.044184	0.916066
Zn16	Zn	1.751985	0.294184	1.166066
O17	O	1.063519	-0.388433	0.354568
O18	O	1.313519	-0.138433	0.604568
O19	O	1.563519	0.111567	0.854568
O20	O	1.813519	0.361567	1.104568
O21	O	1.228055	-0.338914	0.399796
O22	O	1.478055	-0.088914	0.649796
O23	O	1.728055	0.161086	0.899796
O24	O	1.978055	0.411086	1.149796
O25	O	1.108659	-0.437996	0.190059
O26	O	1.358659	-0.187996	0.440059
O27	O	1.608659	0.062004	0.690059
O28	O	1.858659	0.312004	0.940059
O29	O	1.018388	-0.208206	0.309405
O30	O	1.268388	0.041794	0.559405
O31	O	1.518388	0.291794	0.809405
O32	O	1.768388	0.541794	1.059405
O33	O	1.227992	-0.437976	0.309378
O34	O	1.477992	-0.187976	0.559378
O35	O	1.727992	0.062024	0.809378
O36	O	1.977992	0.312024	1.059378
O37	O	1.108805	-0.208191	0.399812
O38	O	1.358805	0.041809	0.649812
O39	O	1.608805	0.291809	0.899812
O40	O	1.858805	0.541809	1.149812
O41	O	1.018305	-0.338949	0.190070
O42	O	1.268305	-0.088949	0.440070
O43	O	1.518305	0.161051	0.690070
O44	O	1.768305	0.411051	0.940070
O45	O	0.899027	-0.338911	0.309363
O46	O	1.149027	-0.088911	0.559363
O47	O	1.399027	0.161089	0.809363
O48	O	1.649027	0.411089	1.059363
O49	O	1.018338	-0.437910	0.519056
O50	O	1.268338	-0.187910	0.769056
O51	O	1.518338	0.062090	1.019056
O52	O	1.768338	0.312090	1.269056
O53	O	0.899005	-0.437930	0.399737
O54	O	1.149005	-0.187930	0.649737
O55	O	1.399005	0.062070	0.899737
O56	O	1.649005	0.312070	1.149737
O57	O	1.108776	-0.338876	0.519088
O58	O	1.358776	-0.088876	0.769088
O59	O	1.608776	0.161124	1.019088
O60	O	1.858776	0.411124	1.269088
O61	O	1.108630	-0.568682	0.309335
O62	O	1.358630	-0.318682	0.559335
O63	O	1.608630	-0.068682	0.809335
O64	O	1.858630	0.181318	1.059335
O65	O	1.018255	-0.568653	0.399721
O66	O	1.268255	-0.318653	0.649721
O67	O	1.518255	-0.068653	0.899721
O68	O	1.768255	0.181347	1.149721
C69	C	0.872313	-0.388419	0.354547
C70	C	1.122313	-0.138419	0.604547
C71	C	1.372313	0.111581	0.854547
C72	C	1.622313	0.361581	1.104547
C73	C	0.790514	-0.388433	0.354556
C74	C	1.040514	-0.138433	0.604556
C75	C	1.290514	0.111567	0.854556
C76	C	1.540514	0.361567	1.104556
C77	C	0.602328	-0.440073	0.401554
C78	C	0.852328	-0.190073	0.651554
C79	C	1.102328	0.059927	0.901554
C80	C	1.352328	0.309927	1.151554
C81	C	0.525470	-0.440075	0.401563
C82	C	0.775470	-0.190075	0.651563
C83	C	1.025470	0.059925	0.901563
C84	C	1.275470	0.309925	1.151563
C85	C	0.525463	-0.336808	0.307598
C86	C	0.775463	-0.086808	0.557598
C87	C	1.025463	0.163192	0.807598
C88	C	1.275463	0.413192	1.057598
C89	C	0.602320	-0.336802	0.307593
C90	C	0.852320	-0.086802	0.557593
C91	C	1.102320	0.163198	0.807593
C92	C	1.352320	0.413198	1.057593
C93	C	0.640751	-0.388439	0.354570
C94	C	0.890751	-0.138439	0.604570
C95	C	1.140751	0.111561	0.854570
C96	C	1.390751	0.361561	1.104570
C97	C	0.487035	-0.388447	0.354584
C98	C	0.737035	-0.138447	0.604584
C99	C	0.987035	0.111553	0.854584
C100	C	1.237035	0.361553	1.104584
C101	C	0.403701	-0.388450	0.354594
C102	C	0.653701	-0.138450	0.604594
C103	C	0.903701	0.111550	0.854594
C104	C	1.153701	0.361550	1.104594
C105	C	0.724090	-0.388436	0.354562
C106	C	0.974090	-0.138436	0.604562
C107	C	1.224090	0.111564	0.854562
C108	C	1.474090	0.361564	1.104562
C109	C	1.063450	-0.597924	0.354537
C110	C	1.313450	-0.347924	0.604537
C111	C	1.563450	-0.097924	0.854537
C112	C	1.813450	0.152076	1.104537
C113	C	1.063487	-0.687545	0.354549
C114	C	1.313487	-0.437545	0.604549
C115	C	1.563487	-0.187545	0.854549
C116	C	1.813487	0.062455	1.104549
C117	C	1.063616	-1.015720	0.354625
C118	C	1.313616	-0.765720	0.604625
C119	C	1.563616	-0.515720	0.854625
C120	C	1.813616	-0.265720	1.104625
C121	C	1.063578	-0.924412	0.354606
C122	C	1.313578	-0.674412	0.604606
C123	C	1.563578	-0.424412	0.854606
C124	C	1.813578	-0.174412	1.104606
C125	C	1.063551	-0.851636	0.354587
C126	C	1.313551	-0.601636	0.604587
C127	C	1.563551	-0.351636	0.854587
C128	C	1.813551	-0.101636	1.104587
C129	C	1.063514	-0.760321	0.354568
C130	C	1.313514	-0.510321	0.604568
C131	C	1.563514	-0.260321	0.854568
C132	C	1.813514	-0.010321	1.104568
C133	C	1.255472	-0.388447	0.354590
C134	C	1.505472	-0.138447	0.604590
C135	C	1.755472	0.111553	0.854590
C136	C	2.005472	0.361553	1.104590
C137	C	1.337271	-0.388453	0.354599
C138	C	1.587271	-0.138453	0.604599
C139	C	1.837271	0.111547	0.854599
C140	C	2.087271	0.361547	1.104599
C141	C	1.063563	-0.388387	0.546521
C142	C	1.313563	-0.138387	0.796521
C143	C	1.563563	0.111613	1.046521
C144	C	1.813563	0.361613	1.296521
C145	C	1.063582	-0.388367	0.628320
C146	C	1.313582	-0.138367	0.878320
C147	C	1.563582	0.111633	1.128320
C148	C	1.813582	0.361633	1.378320
C149	C	1.063609	-0.178124	0.354615
C150	C	1.313609	0.071876	0.604615
C151	C	1.563609	0.321876	0.854615
C152	C	1.813609	0.571876	1.104615
C153	C	1.063648	-0.088503	0.354635
C154	C	1.313648	0.161497	0.604635
C155	C	1.563648	0.411497	0.854635
C156	C	1.813648	0.661497	1.104635
C157	C	1.063518	-0.388421	0.163362
C158	C	1.313518	-0.138421	0.413362
C159	C	1.563518	0.111579	0.663362
C160	C	1.813518	0.361579	0.913362
C161	C	1.063642	-0.388213	0.081563
C162	C	1.313642	-0.138213	0.331563
C163	C	1.563642	0.111787	0.581563
C164	C	1.813642	0.361787	0.831563
C165	C	1.110662	-0.439841	0.893376
C166	C	1.360662	-0.189841	1.143376
C167	C	1.610662	0.060159	1.393376
C168	C	1.860662	0.310159	1.643376
C169	C	1.110651	-0.439869	0.816517
C170	C	1.360651	-0.189869	1.066517
C171	C	1.610651	0.060131	1.316517
C172	C	1.860651	0.310131	1.566517
C173	C	1.016556	-0.336737	0.816513
C174	C	1.266556	-0.086737	1.066513
C175	C	1.516556	0.163263	1.316513
C176	C	1.766556	0.413263	1.566513
C177	C	1.016565	-0.336714	0.893370
C178	C	1.266565	-0.086714	1.143370
C179	C	1.516565	0.163286	1.393370
C180	C	1.766565	0.413286	1.643370
C181	C	1.063622	-0.388264	0.931800
C182	C	1.313622	-0.138264	1.181800
C183	C	1.563622	0.111736	1.431800
C184	C	1.813622	0.361736	1.681800
C185	C	1.063602	-0.388316	0.778084
C186	C	1.313602	-0.138316	1.028084
C187	C	1.563602	0.111684	1.278084
C188	C	1.813602	0.361684	1.528084
C189	C	1.063590	-0.388346	0.694750
C190	C	1.313590	-0.138346	0.944750
C191	C	1.563590	0.111654	1.194750
C192	C	1.813590	0.361654	1.444750
C193	C	1.063633	-0.388236	1.015139
C194	C	1.313633	-0.138236	1.265139
C195	C	1.563633	0.111764	1.515139
C196	C	1.813633	0.361764	1.765139
H197	H	0.494189	-0.482119	0.439823
H198	H	0.744189	-0.232119	0.689823
H199	H	0.994189	0.017881	0.939823
H200	H	1.244189	0.267881	1.189823
H201	H	0.978245	-0.294765	0.785214
H202	H	1.228245	-0.044765	1.035214
H203	H	1.478245	0.205235	1.285214
H204	H	1.728245	0.455235	1.535214
H205	H	0.494163	-0.294768	0.269350
H206	H	0.744163	-0.044768	0.519350
H207	H	0.994163	0.205232	0.769350
H208	H	1.244163	0.455232	1.019350
F209	F	0.643215	-0.281839	0.257588
F210	F	0.893215	-0.031839	0.507588
F211	F	1.143215	0.218161	0.757588
F212	F	1.393215	0.468161	1.007588
F213	F	0.966486	-0.281825	0.934266
F214	F	1.216486	-0.031825	1.184266
F215	F	1.466486	0.218175	1.434266
F216	F	1.716486	0.468175	1.684266
H217	H	1.148979	-0.481818	0.924663
H218	H	1.398979	-0.231818	1.174663
H219	H	1.648979	0.018182	1.424663
H220	H	1.898979	0.268182	1.674663
F221	F	1.160717	-0.494765	0.775627
F222	F	1.410717	-0.244765	1.025627
F223	F	1.660717	0.005235	1.275627
F224	F	1.910717	0.255235	1.525627
H225	H	0.633616	-0.482117	0.439808
H226	H	0.883616	-0.232117	0.689808
H227	H	1.133616	0.017883	0.939808
H228	H	1.383616	0.267883	1.189808
