data_functionalizedCrystal
_audit_creation_method	'MofGen! by Chris Wilmer'
_symmetry_space_group_name_H-M	'P1'
_symmetry_Int_Tables_number	1
_symmetry_cell_setting	triclinic
loop_
_symmetry_equiv_pos_as_xyz
  x,y,z
_cell_length_a	19.077236
_cell_length_b	19.076808
_cell_length_c	19.076919
_cell_angle_alpha	90.121640
_cell_angle_beta	90.112677
_cell_angle_gamma	94.519737
loop_
_atom_site_label
_atom_site_type_symbol
_atom_site_fract_x
_atom_site_fract_y
_atom_site_fract_z
Zn1	Zn	1.048453	-0.255469	0.429870
Zn2	Zn	1.381786	0.077865	0.763203
Zn3	Zn	1.715119	0.411198	1.096536
Zn4	Zn	1.048749	-0.368252	0.307652
Zn5	Zn	1.382082	-0.034919	0.640985
Zn6	Zn	1.715416	0.298415	0.974318
Zn7	Zn	0.935682	-0.255100	0.307665
Zn8	Zn	1.269016	0.078234	0.640998
Zn9	Zn	1.602349	0.411567	0.974332
Zn10	Zn	0.926207	-0.377641	0.419997
Zn11	Zn	1.259540	-0.044308	0.753331
Zn12	Zn	1.592873	0.289026	1.086664
O13	O	0.989773	-0.314115	0.366296
O14	O	1.323106	0.019218	0.699629
O15	O	1.656439	0.352551	1.032963
O16	O	1.146971	-0.266655	0.417783
O17	O	1.480304	0.066679	0.751116
O18	O	1.813638	0.400012	1.084450
O19	O	1.037840	-0.349158	0.209493
O20	O	1.371174	-0.015825	0.542826
O21	O	1.704507	0.317508	0.876160
O22	O	0.954483	-0.156664	0.328013
O23	O	1.287816	0.176669	0.661346
O24	O	1.621150	0.510002	0.994680
O25	O	1.147189	-0.349516	0.327990
O26	O	1.480522	-0.016183	0.661323
O27	O	1.813856	0.317151	0.994657
O28	O	1.037335	-0.156935	0.417796
O29	O	1.370668	0.176398	0.751130
O30	O	1.704002	0.509731	1.084463
O31	O	0.954771	-0.266026	0.209503
O32	O	1.288104	0.067308	0.542836
O33	O	1.621437	0.400641	0.876170
O34	O	0.835946	-0.275130	0.318440
O35	O	1.169280	0.058203	0.651774
O36	O	1.502613	0.391537	0.985107
O37	O	0.938333	-0.365518	0.519467
O38	O	1.271667	-0.032185	0.852801
O39	O	1.605000	0.301148	1.186134
O40	O	0.828985	-0.365160	0.400970
O41	O	1.162318	-0.031827	0.734304
O42	O	1.495651	0.301506	1.067637
O43	O	1.028147	-0.275759	0.526720
O44	O	1.361480	0.057575	0.860054
O45	O	1.694813	0.390908	1.193387
O46	O	1.028652	-0.467982	0.318417
O47	O	1.361985	-0.134648	0.651751
O48	O	1.695319	0.198685	0.985084
O49	O	0.938621	-0.474880	0.400957
O50	O	1.271954	-0.141546	0.734291
O51	O	1.605287	0.191787	1.067624
C52	C	0.806931	-0.321124	0.358636
C53	C	1.140264	0.012209	0.691969
C54	C	1.473598	0.345542	1.025303
C55	C	0.728709	-0.324141	0.355375
C56	C	1.062042	0.009193	0.688708
C57	C	1.395376	0.342526	1.022042
C58	C	0.691842	-0.282491	0.400659
C59	C	1.025175	0.050843	0.733992
C60	C	1.358509	0.384176	1.067326
C61	C	0.618344	-0.285321	0.397589
C62	C	0.951678	0.048012	0.730922
C63	C	1.285011	0.381346	1.064256
C64	C	0.581715	-0.329806	0.349238
C65	C	0.915049	0.003528	0.682571
C66	C	1.248382	0.336861	1.015905
C67	C	0.618588	-0.371457	0.303949
C68	C	0.951921	-0.038124	0.637283
C69	C	1.285254	0.295209	0.970616
C70	C	0.692084	-0.368623	0.307016
C71	C	1.025417	-0.035290	0.640350
C72	C	1.358751	0.298044	0.973683
C73	C	0.361918	-0.342898	0.335042
C74	C	0.695251	-0.009565	0.668375
C75	C	1.028584	0.323769	1.001708
C76	C	0.288416	-0.345731	0.331979
C77	C	0.621749	-0.012398	0.665313
C78	C	0.955083	0.320936	0.998646
C79	C	0.288178	-0.259593	0.425619
C80	C	0.621511	0.073740	0.758952
C81	C	0.954845	0.407073	1.092285
C82	C	0.361676	-0.256766	0.428684
C83	C	0.695009	0.076568	0.762018
C84	C	1.028342	0.409901	1.095351
C85	C	0.398542	-0.298415	0.383393
C86	C	0.731875	0.034919	0.716726
C87	C	1.065208	0.368252	1.050060
N88	N	0.506589	-0.332702	0.346100
N89	N	0.839922	0.000632	0.679434
N90	N	1.173256	0.333965	1.012767
N91	N	0.473667	-0.295515	0.386528
N92	N	0.807000	0.037819	0.719861
N93	N	1.140334	0.371152	1.053195
C94	C	0.982659	-0.496966	0.358631
C95	C	1.315992	-0.163633	0.691964
C96	C	1.649325	0.169700	1.025297
C97	C	0.979679	-0.575189	0.355377
C98	C	1.313012	-0.241856	0.688711
C99	C	1.646345	0.091477	1.022044
C100	C	1.021380	-0.612022	0.400629
C101	C	1.354713	-0.278689	0.733963
C102	C	1.688047	0.054645	1.067296
C103	C	1.018577	-0.685521	0.397574
C104	C	1.351911	-0.352188	0.730907
C105	C	1.685244	-0.018854	1.064240
C106	C	0.974076	-0.722186	0.349263
C107	C	1.307410	-0.388852	0.682596
C108	C	1.640743	-0.055519	1.015929
C109	C	0.932370	-0.685348	0.304009
C110	C	1.265704	-0.352014	0.637342
C111	C	1.599037	-0.018681	0.970675
C112	C	0.935170	-0.611851	0.307068
C113	C	1.268503	-0.278517	0.640401
C114	C	1.601837	0.054816	0.973735
C115	C	0.961078	-0.941990	0.335099
C116	C	1.294411	-0.608657	0.668432
C117	C	1.627745	-0.275324	1.001766
C118	C	0.958283	-1.015493	0.332042
C119	C	1.291616	-0.682159	0.665375
C120	C	1.624950	-0.348826	0.998708
C121	C	1.044489	-1.015661	0.425608
C122	C	1.377823	-0.682328	0.758941
C123	C	1.711156	-0.348994	1.092275
C124	C	1.047288	-0.942162	0.428660
C125	C	1.380621	-0.608829	0.761994
C126	C	1.713955	-0.275495	1.095327
C127	C	1.005579	-0.905331	0.383409
C128	C	1.338913	-0.571998	0.716742
C129	C	1.672246	-0.238664	1.050076
N130	N	0.971212	-0.797313	0.346137
N131	N	1.304545	-0.463980	0.679470
N132	N	1.637878	-0.130647	1.012803
N133	N	1.008441	-0.830205	0.386539
N134	N	1.341774	-0.496872	0.719872
N135	N	1.675107	-0.163538	1.053206
C136	C	1.173328	-0.307079	0.373986
C137	C	1.506662	0.026254	0.707319
C138	C	1.839995	0.359587	1.040653
C139	C	1.251549	-0.304081	0.377263
C140	C	1.584882	0.029252	0.710597
C141	C	1.918216	0.362586	1.043930
C142	C	0.982150	-0.321727	0.549257
C143	C	1.315483	0.011606	0.882591
C144	C	1.648817	0.344940	1.215924
C145	C	0.978902	-0.324971	0.627224
C146	C	1.312235	0.008363	0.960558
C147	C	1.645568	0.341696	1.293891
C148	C	0.996933	-0.130550	0.374007
C149	C	1.330266	0.202783	0.707341
C150	C	1.663600	0.536117	1.040674
C151	C	0.999984	-0.052326	0.377294
C152	C	1.333318	0.281008	0.710627
C153	C	1.666651	0.614341	1.043960
C154	C	0.997408	-0.306481	0.184050
C155	C	1.330742	0.026853	0.517384
C156	C	1.664075	0.360186	0.850717
C157	C	1.000801	-0.303034	0.106097
C158	C	1.334134	0.030300	0.439431
C159	C	1.667467	0.363633	0.772764
C160	C	1.024134	-0.279764	0.667631
C161	C	1.357468	0.053570	1.000964
C162	C	1.690801	0.386903	1.334298
C163	C	1.021074	-0.282809	0.740889
C164	C	1.354407	0.050524	1.074222
C165	C	1.687740	0.383857	1.407556
C166	C	0.972783	-0.331065	0.773740
C167	C	1.306117	0.002268	1.107073
C168	C	1.639450	0.335601	1.440406
C169	C	0.927546	-0.376274	0.733328
C170	C	1.260879	-0.042941	1.066661
C171	C	1.594212	0.290392	1.399994
C172	C	0.930604	-0.373225	0.660071
C173	C	1.263937	-0.039892	0.993404
C174	C	1.597270	0.293442	1.326738
C175	C	0.958621	-0.345193	0.992429
C176	C	1.291954	-0.011860	1.325762
C177	C	1.625288	0.321473	1.659095
C178	C	0.955568	-0.348241	1.065691
C179	C	1.288901	-0.014907	1.399024
C180	C	1.622235	0.318426	1.732358
C181	C	1.049095	-0.254774	1.073247
C182	C	1.382429	0.078559	1.406581
C183	C	1.715762	0.411893	1.739914
C184	C	1.052152	-0.251732	0.999989
C185	C	1.385485	0.081601	1.333322
C186	C	1.718818	0.414935	1.666655
C187	C	1.006912	-0.296938	0.959583
C188	C	1.340245	0.036395	1.292917
C189	C	1.673578	0.369728	1.626250
N190	N	0.969655	-0.334181	0.848621
N191	N	1.302988	-0.000848	1.181954
N192	N	1.636322	0.332486	1.515288
N193	N	1.010037	-0.293819	0.884703
N194	N	1.343370	0.039515	1.218036
N195	N	1.676704	0.372848	1.551370
H196	H	0.391925	-0.376812	0.298163
H197	H	0.725259	-0.043479	0.631496
H198	H	1.058592	0.289854	0.964830
F199	F	0.248937	-0.215270	0.473816
F200	F	0.582271	0.118064	0.807150
F201	F	0.915604	0.451397	1.140483
H202	H	0.927118	-0.912008	0.298252
H203	H	1.260452	-0.578675	0.631586
H204	H	1.593785	-0.245341	0.964919
H205	H	0.722100	-0.402538	0.270141
H206	H	1.055434	-0.069205	0.603474
H207	H	1.388767	0.264128	0.936807
H208	H	1.078445	-1.045657	0.462450
H209	H	1.411778	-0.712324	0.795783
H210	H	1.745112	-0.378990	1.129117
H211	H	0.258595	-0.381959	0.292605
H212	H	0.591928	-0.048626	0.625939
H213	H	0.925261	0.284707	0.959272
H214	H	0.888224	-0.415563	0.760080
H215	H	1.221558	-0.082230	1.093414
H216	H	1.554891	0.251103	1.426747
F217	F	0.910919	-1.054512	0.280618
F218	F	1.244252	-0.721179	0.613951
F219	F	1.577586	-0.387846	0.947284
H220	H	1.057621	-0.582174	0.439967
H221	H	1.390954	-0.248841	0.773300
H222	H	1.724287	0.084492	1.106633
H223	H	1.052540	-0.715507	0.434417
H224	H	1.385874	-0.382173	0.767751
H225	H	1.719207	-0.048840	1.101084
H226	H	0.391494	-0.220544	0.468059
H227	H	0.724827	0.112789	0.801393
H228	H	1.058160	0.446123	1.134726
F229	F	1.097238	-0.206664	1.116255
F230	F	1.430571	0.126669	1.449588
F231	F	1.763904	0.460002	1.782921
H232	H	0.893763	-0.410031	0.627173
H233	H	1.227097	-0.076697	0.960506
H234	H	1.560430	0.256636	1.293839
F235	F	0.579111	-0.240992	0.445788
F236	F	0.912444	0.092341	0.779121
F237	F	1.245777	0.425674	1.112455
F238	F	0.579603	-0.418798	0.252486
F239	F	0.912936	-0.085464	0.585820
F240	F	1.246269	0.247869	0.919153
F241	F	0.904166	-0.399601	1.100651
F242	F	1.237499	-0.066268	1.433984
F243	F	1.570832	0.267066	1.767318
H244	H	1.083524	-0.912311	0.467999
H245	H	1.416858	-0.578978	0.801333
H246	H	1.750191	-0.245645	1.134666
F247	F	1.069240	-0.234717	0.783890
F248	F	1.402573	0.098617	1.117223
F249	F	1.735907	0.431950	1.450556
H250	H	0.921793	-0.382013	0.959539
H251	H	1.255127	-0.048680	1.292873
H252	H	1.588460	0.284653	1.626206
H253	H	0.896134	-0.715206	0.264675
H254	H	1.229467	-0.381873	0.598009
H255	H	1.562800	-0.048540	0.931342
F256	F	0.890785	-0.572651	0.258906
F257	F	1.224118	-0.239317	0.592239
F258	F	1.557452	0.094016	0.925572
H259	H	1.091477	-0.212438	0.973247
H260	H	1.424810	0.120895	1.306581
H261	H	1.758143	0.454228	1.639914
F262	F	1.075535	-0.228406	0.632676
F263	F	1.408869	0.104928	0.966009
F264	F	1.742202	0.438261	1.299342
H265	H	0.721660	-0.246268	0.440033
H266	H	1.054993	0.087065	0.773367
H267	H	1.388327	0.420399	1.106700
