data_functionalizedCrystal
_audit_creation_method	'MofGen! by Chris Wilmer'
_symmetry_space_group_name_H-M	'P1'
_symmetry_Int_Tables_number	1
_symmetry_cell_setting	triclinic
loop_
_symmetry_equiv_pos_as_xyz
  x,y,z
_cell_length_a	19.188930
_cell_length_b	19.188924
_cell_length_c	10.268362
_cell_angle_alpha	89.992651
_cell_angle_beta	89.981535
_cell_angle_gamma	83.143372
loop_
_atom_site_label
_atom_site_type_symbol
_atom_site_fract_x
_atom_site_fract_y
_atom_site_fract_z
O1	O	0.926143	0.087168	-0.108725
O2	O	0.722831	0.098903	-0.108636
O3	O	0.830357	-0.008620	-0.108668
O4	O	0.818617	0.194692	-0.108693
O5	O	0.830347	-0.008625	0.107933
O6	O	0.722822	0.098898	0.107964
O7	O	0.926133	0.087164	0.107876
Cu8	Cu	0.824477	0.093031	0.127698
Cu9	Cu	0.824488	0.093036	-0.128458
O10	O	0.818608	0.194687	0.107907
C11	C	0.696815	0.098521	-0.000324
C12	C	0.619311	0.097380	-0.000290
C13	C	0.574385	0.160471	-0.000318
C14	C	0.501562	0.159399	-0.000333
C15	C	0.473667	0.095233	-0.000345
C16	C	0.518602	0.032134	-0.000309
C17	C	0.591424	0.033207	-0.000282
N18	N	0.365691	0.046187	-0.074110
N19	N	0.296512	0.045172	-0.074138
C20	C	0.254258	0.091995	-0.000424
N21	N	0.283795	0.139882	0.073304
N22	N	0.352979	0.140900	0.073327
C23	C	0.394704	0.094062	-0.000373
C24	C	0.130368	0.153928	-0.000466
C25	C	0.057543	0.152854	-0.000472
C26	C	0.074585	0.025586	-0.000461
C27	C	0.147409	0.026663	-0.000442
C28	C	0.175295	0.090835	-0.000450
C29	C	0.829973	-0.034634	-0.000366
C30	C	0.828834	-0.112138	-0.000362
C31	C	0.828307	-0.148535	-0.118431
C32	C	0.827227	-0.221358	-0.118441
C33	C	0.826688	-0.257783	-0.000374
C34	C	0.827211	-0.221377	0.117710
C35	C	0.828283	-0.148555	0.117717
N36	N	0.864732	-0.377448	0.087483
N37	N	0.863714	-0.446626	0.087469
C38	C	0.823454	-0.477192	-0.000385
N39	N	0.784258	-0.435967	-0.088246
N40	N	0.785279	-0.366783	-0.088235
C41	C	0.825524	-0.336746	-0.000368
C42	C	0.821756	-0.592551	-0.118473
C43	C	0.820671	-0.665375	-0.118477
C44	C	0.820661	-0.665394	0.117677
C45	C	0.821739	-0.592571	0.117678
C46	C	0.822289	-0.556154	-0.000400
C47	C	0.952149	0.087546	-0.000439
C48	C	1.029654	0.088687	-0.000482
C49	C	0.818992	0.220700	-0.000397
C50	C	0.820131	0.298205	-0.000410
N51	N	0.824474	0.093027	0.307863
N52	N	0.824496	0.093035	-0.308624
C53	C	0.824484	0.093035	0.573534
C54	C	0.824476	0.093032	0.425696
H55	H	0.020965	0.204232	-0.000487
C56	C	0.043910	-0.044995	-0.000482
H57	H	-0.005895	-0.036600	-0.000512
H58	H	0.059324	-0.070970	0.075054
H59	H	0.059366	-0.070958	-0.076023
H60	H	0.183988	-0.024713	-0.000426
C61	C	0.452132	0.228800	-0.000370
H62	H	0.404768	0.218968	-0.000378
H63	H	0.460586	0.255120	-0.075905
H64	H	0.460541	0.255123	0.075172
C65	C	0.822322	-0.552530	0.247552
H66	H	0.823032	-0.503942	0.230647
H67	H	0.862849	-0.569917	0.296055
H68	H	0.781431	-0.559019	0.296075
C69	C	0.820089	-0.705411	-0.248360
H70	H	0.820576	-0.673291	-0.318677
H71	H	0.778963	-0.728366	-0.253260
H72	H	0.860380	-0.739270	-0.253282
C73	C	0.828900	-0.108479	-0.248312
H74	H	0.828425	-0.140589	-0.318632
H75	H	0.870023	-0.085516	-0.253242
H76	H	0.788605	-0.074624	-0.253197
C77	C	0.161047	0.224514	-0.000462
H78	H	0.123858	0.261936	-0.000462
H79	H	0.189119	0.227580	-0.075988
H80	H	0.189082	0.227575	0.075089
H81	H	0.826794	-0.250997	-0.214590
H82	H	0.828709	-0.118921	0.213866
C83	C	0.605058	0.231058	-0.000304
H84	H	0.567867	0.268479	-0.000309
H85	H	0.633135	0.234128	-0.075821
H86	H	0.633086	0.234118	0.075255
H87	H	0.826769	-0.251039	0.213841
C88	C	0.820062	-0.705452	0.247548
H89	H	0.819350	-0.754036	0.230637
H90	H	0.779529	-0.688069	0.296076
H91	H	0.860947	-0.698975	0.296049
C92	C	0.640844	-0.036196	-0.000266
H93	H	0.613804	-0.074567	-0.000282
H94	H	0.669590	-0.038426	0.075272
H95	H	0.669622	-0.038418	-0.075804
H96	H	0.495885	-0.020111	-0.000336
H97	H	0.822200	-0.562899	-0.214619
