data_functionalizedCrystal
_audit_creation_method	'MofGen! by Chris Wilmer'
_symmetry_space_group_name_H-M	'P1'
_symmetry_Int_Tables_number	1
_symmetry_cell_setting	triclinic
loop_
_symmetry_equiv_pos_as_xyz
  x,y,z
_cell_length_a	17.019284
_cell_length_b	16.109301
_cell_length_c	14.586319
_cell_angle_alpha	89.999213
_cell_angle_beta	86.121193
_cell_angle_gamma	96.574324
loop_
_atom_site_label
_atom_site_type_symbol
_atom_site_fract_x
_atom_site_fract_y
_atom_site_fract_z
O1	O	-0.101395	1.103035	-0.068172
O2	O	-0.114013	0.860961	-0.067189
O3	O	0.007130	0.988756	-0.076747
O4	O	-0.222539	0.975240	-0.058614
O5	O	0.007132	0.988747	0.075734
O6	O	-0.114011	0.860952	0.085292
O7	O	-0.101393	1.103026	0.084309
Cu8	Cu	-0.107702	0.981988	0.098723
Cu9	Cu	-0.107704	0.981999	-0.081603
O10	O	-0.222537	0.975231	0.093867
C11	C	-0.113501	0.829982	0.009009
C12	C	-0.111969	0.737688	0.008882
C13	C	-0.180290	0.515351	0.014287
C14	C	-0.178844	0.428632	0.014179
C15	C	-0.035111	0.448643	0.002827
C16	C	-0.036558	0.535360	0.002942
C17	C	-0.109150	0.568712	0.008668
C18	C	-0.106257	0.395275	0.008444
C19	C	-0.104688	0.301251	0.008327
C20	C	-0.110718	0.662742	0.008787
C21	C	-0.251927	0.975746	0.019947
C22	C	-0.339497	0.977279	0.026860
C23	C	-0.380635	0.978004	-0.053009
C24	C	-0.462915	0.979455	-0.046513
C25	C	-0.504056	0.980174	0.039854
C26	C	-0.462911	0.979451	0.119730
C27	C	-0.380632	0.978006	0.113232
C28	C	-0.752486	0.984541	0.063630
C29	C	-0.834771	0.985983	0.070121
C30	C	-0.834769	0.985988	-0.096122
C31	C	-0.752489	0.984539	-0.102612
C32	C	-0.711351	0.983820	-0.022736
C33	C	-0.588160	0.981654	0.046496
C34	C	-0.627248	0.982346	-0.029380
C35	C	0.036520	0.988241	-0.002829
C36	C	0.124090	0.986708	-0.009749
C37	C	-0.101905	1.134005	0.008109
C38	C	-0.103437	1.226299	0.008229
N39	N	-0.107700	0.981987	0.225555
N40	N	-0.107700	0.982007	-0.208435
C41	C	-0.054076	1.038593	0.456330
C42	C	-0.054074	1.038596	0.552312
C43	C	-0.161327	0.925394	0.560783
C44	C	-0.161324	0.925389	0.464803
C45	C	-0.107700	0.981993	0.412579
C46	C	-0.107700	0.982001	0.604540
C47	C	-0.107699	0.982003	0.708607
C48	C	-0.107700	0.981990	0.308506
H49	H	0.021377	0.578809	-0.001632
H50	H	-0.236774	0.385189	0.018757
O51	O	-0.340652	0.977153	-0.136881
C52	C	-0.302001	0.904355	-0.144892
H53	H	-0.333061	0.854487	-0.095275
H54	H	-0.304068	0.880181	-0.218244
H55	H	-0.237620	0.919529	-0.127636
H56	H	-0.239399	0.542503	0.018956
H57	H	-0.010410	1.084683	0.413812
O58	O	0.035332	0.416104	-0.002777
C59	C	0.021357	0.328123	-0.001653
H60	H	-0.040209	0.307681	-0.025658
H61	H	0.067801	0.301557	-0.049592
H62	H	0.025177	0.303986	0.071197
O63	O	-0.502940	0.979936	-0.124069
C64	C	-0.559412	0.908731	-0.124520
H65	H	-0.574761	0.885058	-0.051111
H66	H	-0.615251	0.925816	-0.155402
H67	H	-0.533890	0.857743	-0.167411
H68	H	-0.718997	0.983959	-0.172941
H69	H	-0.204992	0.879294	0.429179
H70	H	-0.204988	0.879310	0.603312
O71	O	-0.874829	0.986579	-0.173644
C72	C	-0.931362	0.915432	-0.174170
H73	H	-0.946678	0.891652	-0.100795
H74	H	-0.987206	0.932633	-0.204946
H75	H	-0.905920	0.864480	-0.217195
O76	O	-0.502932	0.979998	0.203605
C77	C	-0.559491	0.908870	0.213019
H78	H	-0.540947	0.858138	0.164384
H79	H	-0.563437	0.884720	0.286843
H80	H	-0.619824	0.926234	0.195445
H81	H	-0.010407	1.084684	0.587931
O82	O	-0.874676	0.986552	0.154070
C83	C	-0.863538	0.914208	0.203730
H84	H	-0.806770	0.889188	0.175627
H85	H	-0.858734	0.930325	0.279397
H86	H	-0.916104	0.864615	0.196324
O87	O	-0.712468	0.983951	0.141180
C88	C	-0.655888	1.055059	0.141708
H89	H	-0.674418	1.105830	0.096043
H90	H	-0.651929	1.079160	0.214926
H91	H	-0.595565	1.037687	0.114585
H92	H	-0.347138	0.977415	0.178271
O93	O	-0.587313	0.981781	-0.113300
C94	C	-0.598475	1.054085	-0.163016
H95	H	-0.614823	1.104801	-0.113106
H96	H	-0.541360	1.077276	-0.205239
H97	H	-0.648265	1.038646	-0.210906
O98	O	-0.628188	0.982193	0.130368
C99	C	-0.684751	0.911066	0.139766
H100	H	-0.666202	0.860337	0.091130
H101	H	-0.688709	0.886911	0.213588
H102	H	-0.745079	0.928435	0.122180
