data_functionalizedCrystal
_audit_creation_method	'MofGen! by Chris Wilmer'
_symmetry_space_group_name_H-M	'P1'
_symmetry_Int_Tables_number	1
_symmetry_cell_setting	triclinic
loop_
_symmetry_equiv_pos_as_xyz
  x,y,z
_cell_length_a	19.805407
_cell_length_b	14.908520
_cell_length_c	19.805399
_cell_angle_alpha	93.269050
_cell_angle_beta	89.983114
_cell_angle_gamma	93.320773
loop_
_atom_site_label
_atom_site_type_symbol
_atom_site_fract_x
_atom_site_fract_y
_atom_site_fract_z
Zn1	Zn	1.019185	-0.359168	-0.398269
Zn2	Zn	1.012581	-0.510037	-0.291612
Zn3	Zn	0.906004	-0.359197	-0.285095
Zn4	Zn	0.899441	-0.509986	-0.404757
O5	O	0.959303	-0.434597	-0.344933
O6	O	1.113026	-0.379191	-0.384133
O7	O	0.998426	-0.490062	-0.196032
O8	O	0.926528	-0.232948	-0.294665
O9	O	1.108173	-0.490034	-0.305773
O10	O	1.009682	-0.232927	-0.377813
O11	O	0.920124	-0.379240	-0.191244
O12	O	0.810417	-0.379190	-0.300956
O13	O	0.915343	-0.489946	-0.498611
O14	O	0.805596	-0.489974	-0.388871
O15	O	1.003319	-0.379141	-0.493845
O16	O	0.992063	-0.636275	-0.312064
O17	O	0.908939	-0.636238	-0.395190
C18	C	0.783448	-0.434580	-0.344910
C19	C	0.708215	-0.434594	-0.344918
C20	C	0.670374	-0.492366	-0.390629
C21	C	0.599686	-0.492368	-0.390638
C22	C	0.566839	-0.434601	-0.344933
C23	C	0.604685	-0.376823	-0.299220
C24	C	0.675373	-0.376817	-0.299214
C25	C	0.319611	-0.376843	-0.299243
C26	C	0.248919	-0.376854	-0.299251
C27	C	0.243924	-0.492393	-0.390667
C28	C	0.314612	-0.492388	-0.390662
C29	C	0.352452	-0.434606	-0.344951
C30	C	0.429100	-0.434604	-0.344942
C31	C	0.490192	-0.434607	-0.344938
C32	C	0.949091	-0.668990	-0.355053
C33	C	0.944783	-0.769265	-0.359405
C34	C	1.023335	-0.957670	-0.281093
C35	C	1.019291	-1.051887	-0.285180
C36	C	0.932654	-1.051917	-0.371669
C37	C	0.936698	-0.957700	-0.367582
C38	C	0.982040	-0.910580	-0.322292
C39	C	0.986081	-0.816361	-0.318202
C40	C	0.899447	-0.816394	-0.404694
C41	C	0.895403	-0.910610	-0.408781
C42	C	1.135845	-0.434615	-0.344956
C43	C	1.211077	-0.434623	-0.344966
C44	C	0.959335	-0.434534	-0.521473
C45	C	0.959349	-0.434508	-0.596704
C46	C	0.969574	-0.199288	-0.334788
C47	C	0.973951	-0.099014	-0.330465
C48	C	0.918590	-0.376797	-0.629554
C49	C	0.918600	-0.376780	-0.700242
C50	C	0.959374	-0.434469	-0.738078
C51	C	1.000134	-0.492185	-0.705223
C52	C	1.000120	-0.492207	-0.634537
C53	C	1.000192	-0.492101	-0.990293
C54	C	1.000204	-0.492073	-1.060984
C55	C	0.918672	-0.376674	-1.055998
C56	C	0.918658	-0.376695	-0.985312
C57	C	0.959415	-0.434415	-0.952463
C58	C	0.959403	-0.434435	-0.875816
C59	C	0.959390	-0.434445	-0.814724
C60	C	0.959313	-0.434594	-0.169077
C61	C	0.959441	-0.434367	-0.093835
H62	H	0.341352	-0.539430	-0.427877
O63	O	0.851270	-0.956286	-0.452735
C64	C	0.734867	-0.985263	-0.486702
C65	C	0.784776	-0.933468	-0.436889
H66	H	0.681094	-0.966848	-0.473900
H67	H	0.747455	-0.966658	-0.540496
H68	H	0.739104	-1.060687	-0.482561
H69	H	0.780566	-0.858031	-0.440970
H70	H	0.772173	-0.952147	-0.383117
H71	H	1.033408	-0.539054	-1.091789
O72	O	0.356325	-0.320812	-0.254746
C73	C	0.379784	-0.276770	-0.137766
C74	C	0.338171	-0.340300	-0.188086
H75	H	0.365112	-0.292491	-0.083861
H76	H	0.435958	-0.286678	-0.145549
H77	H	0.369056	-0.204057	-0.146642
H78	H	0.348841	-0.413038	-0.179241
H79	H	0.282010	-0.330314	-0.180291
O80	O	1.039818	-0.548097	-0.742001
C81	C	1.130659	-0.560222	-0.822372
C82	C	1.085773	-0.496800	-0.780749
H83	H	1.167815	-0.518775	-0.853721
H84	H	1.159838	-0.601460	-0.786779
H85	H	1.097516	-0.607397	-0.857466
H86	H	1.118866	-0.449571	-0.745652
H87	H	1.056589	-0.455626	-0.816381
H88	H	0.577936	-0.329784	-0.262009
O89	O	0.878919	-0.320730	-0.592906
C90	C	0.798072	-0.206233	-0.595429
C91	C	0.842960	-0.269696	-0.637012
H92	H	0.768998	-0.164942	-0.631069
H93	H	0.760823	-0.247617	-0.564133
H94	H	0.831206	-0.159110	-0.560289
H95	H	0.809880	-0.316831	-0.672189
H96	H	0.880213	-0.228255	-0.668262
O97	O	0.878921	-0.320853	-0.732182
C98	C	0.788090	-0.308695	-0.811464
C99	C	0.832979	-0.372132	-0.775331
H100	H	0.750944	-0.350128	-0.846369
H101	H	0.758899	-0.267489	-0.772304
H102	H	0.821233	-0.261492	-0.842505
H103	H	0.799886	-0.419390	-0.744292
H104	H	0.862174	-0.413275	-0.814525
H105	H	0.568879	-0.539412	-0.427860
O106	O	0.712030	-0.320674	-0.254741
C107	C	0.709529	-0.206040	-0.164088
C108	C	0.667934	-0.269594	-0.214407
H109	H	0.673896	-0.164712	-0.131474
H110	H	0.740792	-0.247355	-0.130383
H111	H	0.744705	-0.158956	-0.193195
H112	H	0.632721	-0.316691	-0.185355
H113	H	0.636717	-0.228223	-0.248111
O114	O	0.879150	-0.320482	-1.087873
C115	C	0.852971	-0.167015	-1.102853
C116	C	0.897783	-0.230548	-1.066723
H117	H	0.868010	-0.094292	-1.085756
H118	H	0.859986	-0.176831	-1.159878
H119	H	0.797703	-0.182901	-1.089638
H120	H	0.953068	-0.214702	-1.079883
H121	H	0.890710	-0.220721	-1.009706
O122	O	1.030181	-0.770726	-0.274193
C123	C	1.115658	-0.780644	-0.188812
C124	C	1.065754	-0.832435	-0.238633
H125	H	1.144422	-0.830513	-0.160038
H126	H	1.152968	-0.736490	-0.217974
H127	H	1.086489	-0.736577	-0.151505
H128	H	1.094866	-0.876550	-0.275951
H129	H	1.028444	-0.876532	-0.209427
H130	H	1.060250	-0.919304	-0.244211
H131	H	0.213107	-0.539438	-0.427890
H132	H	1.033316	-0.539194	-0.607791
O133	O	0.216979	-0.320866	-0.254779
C134	C	0.137650	-0.308591	-0.162906
C135	C	0.173785	-0.372091	-0.213222
H136	H	0.102709	-0.349980	-0.129303
H137	H	0.176811	-0.267313	-0.130187
H138	H	0.106644	-0.261458	-0.192015
H139	H	0.204789	-0.419279	-0.184168
H140	H	0.134591	-0.413306	-0.245941
H141	H	1.033371	-0.539110	-0.963557
O142	O	0.878948	-0.320753	-0.948593
C143	C	0.765725	-0.276926	-0.925095
C144	C	0.810618	-0.340347	-0.966709
H145	H	0.710472	-0.292732	-0.939736
H146	H	0.772657	-0.286857	-0.868923
H147	H	0.780821	-0.204183	-0.935851
H148	H	0.795550	-0.413115	-0.956011
H149	H	0.803680	-0.330338	-1.022869
H150	H	0.697113	-0.539409	-0.427845
O151	O	1.059431	-1.097491	-0.245088
C152	C	1.145819	-1.087514	-0.158901
C153	C	1.100386	-1.035756	-0.204255
H154	H	1.178953	-1.037624	-0.125886
H155	H	1.112907	-1.131664	-0.125347
H156	H	1.179268	-1.131582	-0.191933
H157	H	1.066930	-0.991639	-0.171274
H158	H	1.133338	-0.991662	-0.237813
H159	H	0.865820	-0.778042	-0.438239
O160	O	0.888629	-1.097837	-0.415603
C161	C	0.844041	-1.243003	-0.460257
C162	C	0.893917	-1.191111	-0.410462
H163	H	0.848309	-1.318424	-0.456127
H164	H	0.790244	-1.224627	-0.447517
H165	H	0.856678	-1.224365	-0.514031
H166	H	0.881342	-1.209721	-0.356671
H167	H	0.947699	-1.209491	-0.423259
