data_functionalizedCrystal
_audit_creation_method	'MofGen! by Chris Wilmer'
_symmetry_space_group_name_H-M	'P1'
_symmetry_Int_Tables_number	1
_symmetry_cell_setting	triclinic
loop_
_symmetry_equiv_pos_as_xyz
  x,y,z
_cell_length_a	10.723024
_cell_length_b	13.101039
_cell_length_c	14.044220
_cell_angle_alpha	86.332523
_cell_angle_beta	88.828373
_cell_angle_gamma	93.389393
loop_
_atom_site_label
_atom_site_type_symbol
_atom_site_fract_x
_atom_site_fract_y
_atom_site_fract_z
O1	O	1.676785	0.085211	0.127851
O2	O	2.176785	0.585211	0.627851
O3	O	1.314907	0.085215	0.140586
O4	O	1.814907	0.585215	0.640586
O5	O	1.490414	0.085203	-0.003801
O6	O	1.990414	0.585203	0.496199
O7	O	1.501279	0.085223	0.272238
O8	O	2.001279	0.585223	0.772238
O9	O	1.477823	-0.085226	0.006576
O10	O	1.977823	0.414774	0.506576
O11	O	1.302317	-0.085214	0.150963
O12	O	1.802317	0.414786	0.650963
O13	O	1.664195	-0.085218	0.138228
O14	O	2.164195	0.414782	0.638228
Zn15	Zn	1.481257	-0.112275	0.146243
Zn16	Zn	1.981257	0.387725	0.646243
Zn17	Zn	1.497845	0.112272	0.132571
Zn18	Zn	1.997845	0.612272	0.632571
O19	O	1.488688	-0.085206	0.282615
O20	O	1.988688	0.414794	0.782615
C21	C	1.262020	0.000001	0.144847
C22	C	1.762020	0.500001	0.644847
C23	C	1.123188	0.000002	0.142075
C24	C	1.623188	0.500002	0.642075
N25	N	1.469945	-0.265523	0.155573
N26	N	1.969945	0.234477	0.655573
C27	C	1.056289	0.000008	0.222866
C28	C	1.556289	0.500008	0.722866
C29	C	0.912799	0.000010	0.220002
C30	C	1.412799	0.500010	0.720002
C31	C	1.454555	-0.474565	0.168276
C32	C	1.954555	0.025435	0.668276
C33	C	1.524552	-0.525445	0.110534
C34	C	2.024552	-0.025445	0.610534
C35	C	1.515989	-0.641763	0.117602
C36	C	2.015989	-0.141763	0.617602
C37	C	1.463117	-0.358236	0.161209
C38	C	1.963117	0.141764	0.661209
C39	C	1.717083	-0.000002	0.133966
C40	C	2.217083	0.499998	0.633966
C41	C	1.855915	0.000004	0.136739
C42	C	2.355915	0.500004	0.636739
C43	C	1.479363	-0.000012	-0.033958
C44	C	1.979363	0.499988	0.466042
C45	C	1.465179	-0.000013	-0.139276
C46	C	1.965179	0.499987	0.360724
N47	N	1.509167	0.265520	0.123233
N48	N	2.009167	0.765520	0.623233
C49	C	1.439248	0.000002	-0.332107
C50	C	1.939248	0.500002	0.167893
C51	C	1.539850	0.000004	-0.389086
C52	C	2.039850	0.500004	0.110914
C53	C	1.525421	0.000012	-0.496383
C54	C	2.025421	0.500012	0.003617
C55	C	1.453674	-0.000007	-0.224799
C56	C	1.953674	0.499993	0.275201
C57	C	1.499739	0.000011	0.312772
C58	C	1.999739	0.500011	0.812772
C59	C	1.513924	0.000019	0.418089
C60	C	2.013924	0.500019	0.918089
H61	H	1.105243	0.000008	0.294154
H62	H	1.605243	0.500008	0.794154
C63	C	1.614206	-0.466291	0.036584
C64	C	2.114206	0.033709	0.536584
H65	H	1.656994	-0.513513	0.001282
H66	H	2.156994	-0.013513	0.501282
H67	H	1.673090	-0.424430	0.068495
H68	H	2.173090	0.075570	0.568495
H69	H	1.567832	-0.424442	-0.005658
H70	H	2.067832	0.075558	0.494342
C71	C	0.933586	0.000002	0.043294
C72	C	1.433586	0.500002	0.543294
H73	H	0.879284	0.000007	-0.009316
H74	H	1.379284	0.500007	0.490684
H75	H	0.980310	-0.059428	0.044386
H76	H	1.480310	0.440572	0.544386
H77	H	0.989079	0.059444	0.037155
H78	H	1.489079	0.559444	0.537155
C79	C	1.308265	-0.000005	-0.375061
C80	C	1.808265	0.499995	0.124939
H81	H	1.315630	-0.000011	-0.442588
H82	H	1.815630	0.499989	0.057412
H83	H	1.268560	0.059421	-0.358170
H84	H	1.768560	0.559421	0.141830
H85	H	1.259804	-0.059451	-0.350943
H86	H	1.759804	0.440549	0.149057
H87	H	1.388203	-0.518357	0.223016
H88	H	1.888203	-0.018357	0.723016
C89	C	1.670839	-0.000020	-0.346130
C90	C	2.170839	0.499980	0.153870
H91	H	1.663481	-0.000037	-0.278602
H92	H	2.163481	0.499963	0.221398
H93	H	1.719328	0.059405	-0.370244
H94	H	2.219328	0.559405	0.129756
H95	H	1.710508	-0.059467	-0.363029
H96	H	2.210508	0.440533	0.136971
H97	H	0.855287	0.000019	0.289165
H98	H	1.355287	0.500019	0.789165
H99	H	1.074235	0.000023	0.070785
H100	H	1.574235	0.500023	0.570785
