data_functionalizedCrystal
_audit_creation_method	'MofGen! by Chris Wilmer'
_symmetry_space_group_name_H-M	'P1'
_symmetry_Int_Tables_number	1
_symmetry_cell_setting	triclinic
loop_
_symmetry_equiv_pos_as_xyz
  x,y,z
_cell_length_a	10.489741
_cell_length_b	10.540539
_cell_length_c	9.016244
_cell_angle_alpha	89.995353
_cell_angle_beta	89.999666
_cell_angle_gamma	95.467667
loop_
_atom_site_label
_atom_site_type_symbol
_atom_site_fract_x
_atom_site_fract_y
_atom_site_fract_z
O1	O	1.694028	-0.179107	0.123241
O2	O	1.322830	-0.195918	0.123263
O3	O	1.516898	-0.002807	0.123250
O4	O	1.499960	-0.372218	0.123254
O5	O	1.516889	-0.002793	-0.123431
O6	O	1.322822	-0.195904	-0.123417
O7	O	1.694020	-0.179092	-0.123440
Cu8	Cu	1.508420	-0.187497	-0.145953
Cu9	Cu	1.508430	-0.187514	0.145776
O10	O	1.499952	-0.372204	-0.123426
C11	C	1.275294	-0.194641	-0.000074
C12	C	1.133665	-0.190843	-0.000065
N13	N	1.508422	-0.187484	-0.351139
C14	C	1.515623	0.044503	-0.000088
C15	C	1.511823	0.185452	-0.000080
C16	C	1.065540	-0.067971	-0.000081
C17	C	0.973410	-0.126022	0.121543
C18	C	0.973436	-0.126037	-0.121665
C19	C	1.043401	-0.248943	0.121659
C20	C	1.043436	-0.248941	-0.121658
C21	C	0.951334	-0.307081	-0.000004
C22	C	1.741555	-0.180369	-0.000099
C23	C	1.883184	-0.184168	-0.000098
C24	C	1.501226	-0.419514	-0.000085
C25	C	1.505026	-0.560463	-0.000084
C26	C	1.366206	0.368896	0.000483
C27	C	1.370058	0.222277	-0.000073
C28	C	1.580042	0.247110	-0.140951
C29	C	1.575204	0.393655	-0.141069
C30	C	1.578096	0.394156	0.139453
C31	C	1.579402	0.247174	0.141315
C32	C	1.612623	-0.084538	-0.586132
C33	C	1.612342	-0.084146	-0.414241
C34	C	1.375076	-0.157337	-0.413556
C35	C	1.375696	-0.156615	-0.585501
C36	C	1.536399	-0.320935	-0.585643
C37	C	1.539409	-0.320064	-0.413687
N38	N	1.508437	-0.187517	0.350962
H39	H	1.115242	0.033036	0.000070
H40	H	1.712038	-0.102398	-0.627478
H41	H	1.532218	0.425708	0.246224
H42	H	1.074473	-0.300882	-0.224488
O43	O	0.932315	-0.057172	0.257739
H44	H	0.978465	0.042064	0.257489
O45	O	1.669347	-0.350350	-0.359648
H46	H	1.711691	-0.271319	-0.288530
H47	H	1.295776	-0.228704	-0.627115
H48	H	1.074226	-0.300898	0.224599
H49	H	1.680493	0.441370	0.140394
H50	H	1.524780	0.421866	-0.246367
H51	H	1.468533	-0.400375	-0.370729
O52	O	0.932411	-0.057140	-0.257872
H53	H	0.866174	-0.122676	-0.324736
H54	H	1.684150	0.224743	-0.146194
O55	O	1.341915	-0.029844	-0.356570
H56	H	1.420189	0.012244	-0.283810
O57	O	1.435794	-0.422476	-0.639538
H58	H	1.366206	-0.378217	-0.711128
O59	O	1.589139	0.045843	-0.643368
H60	H	1.503582	0.037621	-0.716420
O61	O	1.343336	-0.027664	-0.638640
H62	H	1.247085	-0.009707	-0.597091
O63	O	1.292311	0.408912	-0.132570
H64	H	1.262565	0.324022	-0.201575
O65	O	1.513379	0.192953	0.279367
H66	H	1.582850	0.145635	0.348003
H67	H	1.631623	-0.349612	-0.629002
H68	H	1.682760	0.222940	0.149816
O69	O	1.743588	-0.108165	-0.358334
H70	H	1.743519	-0.107913	-0.235229
H71	H	0.901898	-0.408195	0.000063
O72	O	1.298932	0.165825	0.133666
H73	H	1.261464	0.243243	0.199320
H74	H	1.310209	0.397497	0.101504
H75	H	1.677159	0.441611	-0.147466
H76	H	1.315997	0.180534	-0.101217
O77	O	1.517276	0.190706	-0.279816
H78	H	1.437504	0.118779	-0.248857
O79	O	1.588501	0.046969	-0.359750
H80	H	1.494400	0.071611	-0.401444
O81	O	1.269825	-0.253966	-0.359433
H82	H	1.311539	-0.324666	-0.287291
