data_functionalizedCrystal
_audit_creation_method	'MofGen! by Chris Wilmer'
_symmetry_space_group_name_H-M	'P1'
_symmetry_Int_Tables_number	1
_symmetry_cell_setting	triclinic
loop_
_symmetry_equiv_pos_as_xyz
  x,y,z
_cell_length_a	19.188905
_cell_length_b	19.188930
_cell_length_c	15.021413
_cell_angle_alpha	89.998889
_cell_angle_beta	89.985589
_cell_angle_gamma	83.139668
loop_
_atom_site_label
_atom_site_type_symbol
_atom_site_fract_x
_atom_site_fract_y
_atom_site_fract_z
O1	O	0.926160	0.087075	-0.074189
O2	O	0.722846	0.098828	-0.074160
O3	O	0.830370	-0.008705	-0.074158
O4	O	0.818636	0.194607	-0.074191
O5	O	0.830353	-0.008690	0.073907
O6	O	0.722829	0.098843	0.073905
O7	O	0.926143	0.087090	0.073876
Zn8	Zn	0.824483	0.092969	0.097398
Zn9	Zn	0.824506	0.092949	-0.097683
O10	O	0.818619	0.194623	0.073874
C11	C	0.696826	0.098458	-0.000124
C12	C	0.619321	0.097324	-0.000112
C13	C	0.582938	0.096771	-0.080824
C14	C	0.510115	0.095698	-0.080835
C15	C	0.473678	0.095164	-0.000129
C16	C	0.510069	0.095721	0.080594
C17	C	0.582890	0.096801	0.080602
N18	N	0.364651	0.053741	0.059939
N19	N	0.295474	0.052714	0.059926
C20	C	0.254272	0.091911	-0.000150
N21	N	0.284861	0.132166	-0.060225
N22	N	0.354044	0.133190	-0.060214
C23	C	0.394716	0.093993	-0.000129
C24	C	0.138925	0.090196	-0.080879
C25	C	0.066100	0.089127	-0.080887
C26	C	0.066056	0.089143	0.080544
C27	C	0.138879	0.090219	0.080549
C28	C	0.175310	0.090742	-0.000165
C29	C	0.829982	-0.034708	-0.000123
C30	C	0.828841	-0.112213	-0.000115
C31	C	0.891933	-0.157142	-0.000120
C32	C	0.890861	-0.229966	-0.000134
C33	C	0.826694	-0.257857	-0.000125
C34	C	0.763594	-0.212917	-0.000126
C35	C	0.764668	-0.140095	-0.000120
N36	N	0.777640	-0.365852	0.050271
N37	N	0.776625	-0.435031	0.050268
C38	C	0.823456	-0.477265	-0.000143
N39	N	0.871351	-0.447709	-0.050539
N40	N	0.872369	-0.378524	-0.050532
C41	C	0.825523	-0.336819	-0.000132
C42	C	0.885390	-0.601159	-0.000164
C43	C	0.884315	-0.673984	-0.000184
C44	C	0.757047	-0.656933	-0.000167
C45	C	0.758123	-0.584110	-0.000156
C46	C	0.822296	-0.556228	-0.000151
C47	C	0.952163	0.087460	-0.000162
C48	C	1.029668	0.088594	-0.000180
C49	C	0.819007	0.220626	-0.000163
C50	C	0.820148	0.298131	-0.000177
N51	N	0.824473	0.092982	0.230536
N52	N	0.824522	0.092930	-0.230820
C53	C	0.774746	0.142682	0.470218
C54	C	0.837795	0.156035	0.529541
C55	C	0.824491	0.092965	0.412143
C56	C	0.761459	0.079627	0.529562
C57	C	0.824502	0.092950	0.587567
C58	C	0.887572	0.106349	0.470159
C59	C	0.811194	0.029914	0.470175
C60	C	0.874288	0.043240	0.529471
C61	C	0.824483	0.092976	0.311086
C62	C	0.824517	0.092938	0.688622
H63	H	0.612512	0.097252	0.146330
C64	C	0.997068	0.000602	0.534233
C65	C	0.931142	-0.013528	0.564384
H66	H	1.032168	-0.034440	0.555794
H67	H	0.997620	0.000554	0.471005
H68	H	1.006131	0.045273	0.555465
H69	H	0.922077	-0.058198	0.543147
H70	H	0.930589	-0.013487	0.627625
C71	C	0.169306	0.030550	0.218146
C72	C	0.178878	0.090815	0.169272
H73	H	0.194003	0.030919	0.272920
H74	H	0.120728	0.029837	0.229689
H75	H	0.186709	-0.009977	0.184979
H76	H	0.161470	0.131342	0.202436
H77	H	0.227466	0.091534	0.157731
C78	C	0.729895	-0.055885	0.464866
C79	C	0.795970	-0.042032	0.434933
H80	H	0.720491	-0.100300	0.443102
H81	H	0.729363	-0.056287	0.528091
H82	H	0.695018	-0.020468	0.443691
H83	H	0.830848	-0.077447	0.456114
H84	H	0.796508	-0.041636	0.371695
H85	H	0.732721	0.184760	0.444202
C86	C	0.637484	0.116538	0.534863
C87	C	0.689493	0.064398	0.564780
H88	H	0.593055	0.107136	0.556599
H89	H	0.647274	0.160975	0.556069
H90	H	0.636845	0.116855	0.471630
H91	H	0.690136	0.064084	0.628014
H92	H	0.679701	0.019949	0.543579
H93	H	0.480397	0.095288	0.146305
H94	H	0.944187	-0.134445	-0.000118
H95	H	0.612596	0.097197	-0.146548
H96	H	0.480486	0.095249	-0.146562
H97	H	0.942239	-0.266555	-0.000141
C98	C	-0.045509	0.087473	-0.152578
C99	C	0.026103	0.088524	-0.169612
H100	H	-0.070201	0.087105	-0.207356
H101	H	-0.051996	0.046598	-0.119414
H102	H	-0.062899	0.128011	-0.119425
H103	H	0.043495	0.047982	-0.202760
H104	H	0.032595	0.129403	-0.202791
H105	H	0.168588	0.090629	-0.146601
H106	H	0.036390	0.088712	0.146256
H107	H	0.711349	-0.235631	-0.000121
H108	H	0.937644	-0.578456	-0.000164
C109	C	0.638762	-0.130558	-0.000103
C110	C	0.695312	-0.090703	-0.000106
H111	H	0.595945	-0.100063	-0.000088
H112	H	0.640995	-0.159309	-0.051739
H113	H	0.640988	-0.159323	0.051528
H114	H	0.693088	-0.061942	-0.051742
H115	H	0.693078	-0.061941	0.051534
C116	C	1.010221	-0.683518	-0.000176
C117	C	0.953672	-0.723374	-0.000187
H118	H	1.053038	-0.714011	-0.000171
H119	H	1.008004	-0.654758	-0.051802
H120	H	1.007976	-0.654761	0.051465
H121	H	0.955914	-0.752127	-0.051831
H122	H	0.955889	-0.752146	0.051445
C123	C	0.800833	0.279999	0.534852
C124	C	0.852993	0.228003	0.564754
H125	H	0.810211	0.324429	0.556594
H126	H	0.800518	0.280656	0.471628
H127	H	0.756397	0.270181	0.556071
H128	H	0.897429	0.237819	0.543530
H129	H	0.853316	0.227348	0.627992
H130	H	0.704801	-0.679641	-0.000164
C131	C	0.632220	-0.574575	-0.000127
C132	C	0.688770	-0.534719	-0.000135
H133	H	0.589403	-0.544080	-0.000109
H134	H	0.634452	-0.603326	-0.051760
H135	H	0.634449	-0.603339	0.051507
H136	H	0.686543	-0.505958	-0.051772
H137	H	0.686537	-0.505955	0.051504
H138	H	0.940893	0.117687	0.444176
