data_functionalizedCrystal
_audit_creation_method	'MofGen! by Chris Wilmer'
_symmetry_space_group_name_H-M	'P1'
_symmetry_Int_Tables_number	1
_symmetry_cell_setting	triclinic
loop_
_symmetry_equiv_pos_as_xyz
  x,y,z
_cell_length_a	19.077105
_cell_length_b	16.959453
_cell_length_c	19.076919
_cell_angle_alpha	92.270942
_cell_angle_beta	90.076224
_cell_angle_gamma	87.721155
loop_
_atom_site_label
_atom_site_type_symbol
_atom_site_fract_x
_atom_site_fract_y
_atom_site_fract_z
Zn1	Zn	1.058268	-0.382396	-0.440413
Zn2	Zn	1.062908	-0.509487	-0.322904
Zn3	Zn	0.945486	-0.371808	-0.318206
Zn4	Zn	0.940729	-0.509010	-0.435657
O5	O	1.001848	-0.443175	-0.379295
O6	O	1.157216	-0.403886	-0.428782
O7	O	1.051264	-0.486992	-0.223950
O8	O	0.960496	-0.262605	-0.334441
O9	O	1.160624	-0.497259	-0.342449
O10	O	1.043357	-0.270384	-0.424226
O11	O	0.964995	-0.385839	-0.220498
O12	O	0.846523	-0.385377	-0.329830
O13	O	0.952389	-0.496447	-0.534619
O14	O	0.843029	-0.486179	-0.416120
O15	O	1.038744	-0.403424	-0.538113
O16	O	1.046651	-0.620031	-0.337837
O17	O	0.956887	-0.619681	-0.420676
C18	C	0.819280	-0.434578	-0.371950
C19	C	0.741176	-0.430920	-0.368824
C20	C	0.702684	-0.481756	-0.412212
C21	C	0.629296	-0.478309	-0.409278
C22	C	0.594402	-0.424028	-0.362953
C23	C	0.632900	-0.373186	-0.319563
C24	C	0.706285	-0.376630	-0.322501
C25	C	0.375115	-0.408087	-0.349360
C26	C	0.301724	-0.404648	-0.346425
C27	C	0.298126	-0.509771	-0.436141
C28	C	0.371514	-0.513214	-0.439071
C29	C	0.410004	-0.462369	-0.395684
N30	N	0.519389	-0.420504	-0.359952
N31	N	0.485016	-0.465889	-0.398690
C32	C	1.001775	-0.648537	-0.379266
C33	C	1.001807	-0.736396	-0.379280
C34	C	0.955050	-0.777514	-0.422378
C35	C	1.048598	-0.777833	-0.336199
C36	C	1.048632	-0.860381	-0.336214
C37	C	1.001876	-0.901500	-0.379311
C38	C	0.955085	-0.860070	-0.422395
C39	C	1.095428	-0.901818	-0.293136
C40	C	1.095464	-0.984371	-0.293149
C41	C	1.048704	-1.025490	-0.336244
C42	C	1.001910	-0.984055	-0.379328
C43	C	0.955153	-1.025174	-0.422426
C44	C	0.908356	-0.983740	-0.465508
C45	C	0.908324	-0.901189	-0.465489
C46	C	1.048735	-1.108041	-0.336262
C47	C	0.955188	-1.107729	-0.422443
C48	C	1.185129	-0.451807	-0.386670
C49	C	1.263232	-0.455485	-0.389812
C50	C	0.994518	-0.451063	-0.562575
C51	C	0.991395	-0.454425	-0.640678
C52	C	1.001940	-0.237013	-0.379340
C53	C	1.001979	-0.149159	-0.379359
C54	C	1.034886	-0.407574	-0.679191
C55	C	1.031943	-0.410729	-0.752577
C56	C	0.985511	-0.460739	-0.787449
C57	C	0.942016	-0.507591	-0.748930
C58	C	0.944956	-0.504432	-0.675545
C59	C	0.971893	-0.475378	-1.006729
C60	C	0.968958	-0.478536	-1.080119
C61	C	1.058884	-0.381672	-1.083761
C62	C	1.061823	-0.378520	-1.010375
C63	C	1.018325	-0.425369	-0.971863
N64	N	0.982503	-0.463967	-0.862461
N65	N	1.021330	-0.422137	-0.896852
C66	C	1.009189	-0.435263	-0.196730
C67	C	1.012449	-0.431685	-0.118633
H68	H	0.604483	-0.328985	-0.281847
H69	H	1.133499	-0.868337	-0.258051
Br70	Br	1.124842	-0.310649	-0.963055
H71	H	0.399919	-0.557417	-0.476793
Br72	Br	0.758525	-0.307630	-0.263619
H73	H	0.904208	-0.548308	-0.777328
H74	H	0.870224	-0.867449	-0.500565
H75	H	0.597959	-0.519706	-0.444608
Br76	Br	0.891541	-0.721286	-0.480841
H77	H	0.266779	-0.551165	-0.471465
Br78	Br	0.254369	-0.330985	-0.283543
H79	H	1.067359	-0.372580	-0.783932
Br80	Br	0.750033	-0.555433	-0.475080
H81	H	1.072698	-0.366853	-0.650805
H82	H	0.917112	-1.141202	-0.457539
H83	H	1.133569	-1.018099	-0.258068
Br84	Br	0.427343	-0.339079	-0.290482
H85	H	1.086670	-0.744352	-0.301114
Br86	Br	0.844910	-1.039554	-0.524003
H87	H	1.086841	-1.141773	-0.301190
H88	H	1.094297	-0.343529	-1.115126
Br89	Br	0.905937	-0.546409	-1.127445
H90	H	0.936484	-0.513538	-0.975382
Br91	Br	0.885926	-0.568012	-0.623276
