data_functionalizedCrystal
_audit_creation_method	'MofGen! by Chris Wilmer'
_symmetry_space_group_name_H-M	'P1'
_symmetry_Int_Tables_number	1
_symmetry_cell_setting	triclinic
loop_
_symmetry_equiv_pos_as_xyz
  x,y,z
_cell_length_a	15.995292
_cell_length_b	15.072220
_cell_length_c	14.519709
_cell_angle_alpha	90.002063
_cell_angle_beta	83.574380
_cell_angle_gamma	90.013670
loop_
_atom_site_label
_atom_site_type_symbol
_atom_site_fract_x
_atom_site_fract_y
_atom_site_fract_z
O1	O	1.111204	0.073808	0.118612
O2	O	0.867444	0.073805	0.133347
O3	O	0.995787	0.073799	-0.008272
O4	O	0.982861	0.073815	0.260231
O5	O	0.995755	-0.073766	-0.008265
O6	O	0.867412	-0.073760	0.133355
O7	O	1.111172	-0.073757	0.118619
Zn8	Zn	0.989287	-0.097187	0.125988
Zn9	Zn	0.989329	0.097236	0.125978
O10	O	0.982829	-0.073750	0.260239
C11	C	0.836232	0.000022	0.132751
C12	C	0.743276	0.000021	0.130953
C13	C	0.405528	0.000030	0.124343
C14	C	0.428993	0.000366	0.226560
C15	C	0.525671	0.000029	0.228503
C16	C	0.573088	0.000026	0.127623
C17	C	0.543892	-0.084241	0.076524
C18	C	0.447100	-0.084308	0.075293
C19	C	0.447277	0.083501	0.073197
C20	C	0.543776	0.084611	0.076985
C21	C	0.667787	0.000021	0.129471
C22	C	0.310829	0.000030	0.122492
N23	N	0.989265	-0.229876	0.125995
C24	C	0.989327	-0.589078	0.125974
C25	C	0.920422	-0.551467	0.201498
C26	C	0.920581	-0.448642	0.201774
C27	C	0.989295	-0.410874	0.125985
C28	C	1.076694	-0.448162	0.146982
C29	C	1.076308	-0.551020	0.147518
C30	C	0.971612	-0.551184	0.029230
C31	C	0.969609	-0.448321	0.029876
C32	C	0.989283	-0.310160	0.125989
C33	C	0.989345	-0.689791	0.125972
C34	C	1.142384	0.000028	0.119215
C35	C	1.235340	0.000036	0.121013
N36	N	0.989358	0.229925	0.125964
C37	C	0.995168	0.000016	-0.042627
C38	C	0.993363	0.000016	-0.145005
C39	C	0.986718	0.000039	-0.519887
C40	C	0.988563	0.000032	-0.415583
C41	C	0.990040	0.000026	-0.332449
C42	C	0.991886	0.000021	-0.228138
C43	C	0.983447	0.000034	0.294593
C44	C	0.985253	0.000041	0.396971
H45	H	0.432436	-0.088138	0.000348
O46	O	1.096959	-0.582786	0.240973
H47	H	1.043958	-0.623206	0.274300
H48	H	0.855252	-0.576231	0.189197
H49	H	1.129191	-0.575897	0.094678
O50	O	0.550979	0.080025	0.281536
H51	H	0.595075	0.121647	0.235509
H52	H	0.420322	-0.147296	0.110689
O53	O	0.585970	-0.088409	-0.021801
H54	H	0.569265	-0.028387	-0.060072
O55	O	0.889000	-0.585588	0.002498
H56	H	0.900400	-0.623018	-0.063547
H57	H	0.931908	-0.424023	0.273567
H58	H	0.563991	-0.146950	0.112016
O59	O	1.038135	-0.583407	-0.045249
H60	H	1.100907	-0.560497	-0.029389
O61	O	0.568452	0.167191	0.126272
H62	H	0.637848	0.168958	0.126042
O63	O	0.390638	-0.079236	0.278468
H64	H	0.354936	-0.119038	0.231781
H65	H	0.576636	0.089698	0.003353
O66	O	0.428595	0.084246	-0.026465
H67	H	0.488556	0.082069	-0.072971
O68	O	0.550137	-0.080181	0.281726
H69	H	0.492882	-0.118880	0.306179
O70	O	0.834529	-0.415245	0.185225
H71	H	0.808188	-0.374479	0.245226
H72	H	0.905316	-0.423951	0.013940
O73	O	0.935213	-0.585683	0.296065
H74	H	0.945679	-0.528847	0.342020
O75	O	0.391993	0.080402	0.278763
H76	H	0.356478	0.120798	0.232418
O77	O	1.146252	-0.415759	0.076062
H78	H	1.119203	-0.372626	0.024979
H79	H	0.419012	0.147370	0.105143
H80	H	1.016525	-0.422615	-0.028957
H81	H	1.092651	-0.422389	0.216732
