data_functionalizedCrystal
_audit_creation_method	'MofGen! by Chris Wilmer'
_symmetry_space_group_name_H-M	'P1'
_symmetry_Int_Tables_number	1
_symmetry_cell_setting	triclinic
loop_
_symmetry_equiv_pos_as_xyz
  x,y,z
_cell_length_a	25.639239
_cell_length_b	25.639242
_cell_length_c	25.639233
_cell_angle_alpha	90.022166
_cell_angle_beta	89.981253
_cell_angle_gamma	89.965787
loop_
_atom_site_label
_atom_site_type_symbol
_atom_site_fract_x
_atom_site_fract_y
_atom_site_fract_z
Zn1	Zn	-0.208277	-0.799225	-0.295742
Zn2	Zn	0.125057	-0.465892	0.037591
Zn3	Zn	0.458390	-0.132558	0.370924
Zn4	Zn	-0.295696	-0.799149	-0.208307
Zn5	Zn	0.037638	-0.465815	0.125027
Zn6	Zn	0.370971	-0.132482	0.458360
Zn7	Zn	-0.208269	-0.711801	-0.208306
Zn8	Zn	0.125064	-0.378468	0.125027
Zn9	Zn	0.458398	-0.045135	0.458360
Zn10	Zn	-0.295676	-0.711746	-0.295696
Zn11	Zn	0.037657	-0.378413	0.037637
Zn12	Zn	0.370990	-0.045080	0.370970
O13	O	-0.251979	-0.755480	-0.252013
O14	O	0.081354	-0.422147	0.081320
O15	O	0.414687	-0.088814	0.414654
O16	O	-0.219884	-0.872380	-0.284163
O17	O	0.113449	-0.539047	0.049170
O18	O	0.446782	-0.205713	0.382504
O19	O	-0.284103	-0.787553	-0.135141
O20	O	0.049230	-0.454219	0.198192
O21	O	0.382563	-0.120886	0.531525
O22	O	-0.135105	-0.723453	-0.219924
O23	O	0.198228	-0.390120	0.113409
O24	O	0.531562	-0.056787	0.446743
O25	O	-0.284111	-0.872324	-0.219924
O26	O	0.049223	-0.538991	0.113409
O27	O	0.382556	-0.205657	0.446742
O28	O	-0.135111	-0.787683	-0.284163
O29	O	0.198223	-0.454350	0.049171
O30	O	0.531556	-0.121016	0.382504
O31	O	-0.219871	-0.723379	-0.135141
O32	O	0.113462	-0.390046	0.198192
O33	O	0.446795	-0.056712	0.531526
O34	O	-0.219853	-0.638629	-0.219880
O35	O	0.113481	-0.305296	0.113454
O36	O	0.446814	0.028038	0.446787
O37	O	-0.284078	-0.723360	-0.368868
O38	O	0.049256	-0.390026	-0.035534
O39	O	0.382589	-0.056693	0.297799
O40	O	-0.284070	-0.638589	-0.284085
O41	O	0.049263	-0.305255	0.049249
O42	O	0.382597	0.028078	0.382582
O43	O	-0.219866	-0.787630	-0.368901
O44	O	0.113468	-0.454297	-0.035568
O45	O	0.446801	-0.120963	0.297765
O46	O	-0.368858	-0.787499	-0.219880
O47	O	-0.035525	-0.454166	0.113453
O48	O	0.297808	-0.120833	0.446787
O49	O	-0.368844	-0.723286	-0.284085
O50	O	-0.035511	-0.389952	0.049248
O51	O	0.297823	-0.056619	0.382582
C52	C	-0.251959	-0.619638	-0.251977
C53	C	0.081375	-0.286304	0.081356
C54	C	0.414708	0.047029	0.414689
C55	C	-0.251963	-0.561524	-0.251975
C56	C	0.081371	-0.228190	0.081359
C57	C	0.414704	0.105143	0.414692
C58	C	-0.387822	-0.755392	-0.251989
C59	C	-0.054489	-0.422059	0.081344
C60	C	0.278845	-0.088726	0.414678
C61	C	-0.445936	-0.755403	-0.251996
C62	C	-0.112603	-0.422069	0.081337
C63	C	0.220731	-0.088736	0.414670
C64	C	-0.251970	-0.755497	-0.388386
C65	C	0.081363	-0.422164	-0.055053
C66	C	0.414696	-0.088831	0.278281
C67	C	-0.251966	-0.755504	-0.446500
C68	C	0.081367	-0.422171	-0.113167
C69	C	0.414700	-0.088838	0.220167
C70	C	-0.806294	-0.789004	-0.218638
C71	C	-0.472961	-0.455670	0.114695
C72	C	-0.139627	-0.122337	0.448028
C73	C	-0.860898	-0.789024	-0.218645
C74	C	-0.527565	-0.455691	0.114688
C75	C	-0.194232	-0.122357	0.448021
O76	O	-0.889131	-0.817502	-0.190257
O77	O	-0.555797	-0.484168	0.143076
O78	O	-0.222464	-0.150835	0.476410
N79	N	-0.888218	-0.755572	-0.252048
N80	N	-0.554885	-0.422239	0.081286
N81	N	-0.221552	-0.088906	0.414619
C82	C	-0.860932	-0.722102	-0.285449
C83	C	-0.527598	-0.388768	0.047885
C84	C	-0.194265	-0.055435	0.381218
O85	O	-0.889184	-0.693651	-0.313861
O86	O	-0.555850	-0.360317	0.019472
O87	O	-0.222517	-0.026984	0.352806
C88	C	-0.806328	-0.722085	-0.285444
C89	C	-0.472995	-0.388751	0.047889
C90	C	-0.139662	-0.055418	0.381223
C91	C	-0.779011	-0.755535	-0.252036
C92	C	-0.445678	-0.422201	0.081298
C93	C	-0.112344	-0.088868	0.414631
C94	C	-0.778976	-0.822452	-0.185233
C95	C	-0.445643	-0.489118	0.148100
C96	C	-0.112310	-0.155785	0.481433
C97	C	-0.724376	-0.822431	-0.185226
C98	C	-0.391043	-0.489097	0.148108
C99	C	-0.057709	-0.155764	0.481441
C100	C	-0.697093	-0.788962	-0.218623
C101	C	-0.363760	-0.455628	0.114710
C102	C	-0.030426	-0.122295	0.448043
C103	C	-0.724410	-0.755514	-0.252028
C104	C	-0.391077	-0.422180	0.081305
C105	C	-0.057744	-0.088847	0.414638
C106	C	-0.779042	-0.688617	-0.318847
C107	C	-0.445709	-0.355284	0.014486
C108	C	-0.112376	-0.021950	0.347819
C109	C	-0.724435	-0.688603	-0.318840
C110	C	-0.391102	-0.355270	0.014493
C111	C	-0.057769	-0.021936	0.347827
C112	C	-0.697118	-0.722053	-0.285432
C113	C	-0.363785	-0.388720	0.047901
C114	C	-0.030451	-0.055387	0.381235
C115	C	-0.642527	-0.722024	-0.285418
C116	C	-0.309193	-0.388690	0.047915
C117	C	0.024140	-0.055357	0.381249
N118	N	-0.615206	-0.755475	-0.252016
N119	N	-0.281873	-0.422142	0.081317
N120	N	0.051460	-0.088809	0.414651
C121	C	-0.642490	-0.788944	-0.218618
C122	C	-0.309156	-0.455611	0.114715
C123	C	0.024177	-0.122278	0.448048
C124	C	-0.975602	-0.722141	-0.285457
C125	C	-0.642269	-0.388808	0.047877
C126	C	-0.308936	-0.055474	0.381210
C127	C	-1.030204	-0.722155	-0.285459
C128	C	-0.696871	-0.388822	0.047874
C129	C	-0.363538	-0.055489	0.381207
C130	C	-1.030167	-0.789078	-0.218656
C131	C	-0.696834	-0.455745	0.114677
C132	C	-0.363501	-0.122412	0.448010
C133	C	-0.975564	-0.789061	-0.218652
C134	C	-0.642231	-0.455728	0.114682
C135	C	-0.308897	-0.122395	0.448015
C136	C	-0.948282	-0.755593	-0.252055
C137	C	-0.614949	-0.422260	0.081279
C138	C	-0.281615	-0.088926	0.414612
C139	C	-0.527824	-0.788897	-0.218605
C140	C	-0.194491	-0.455564	0.114728
C141	C	0.138842	-0.122231	0.448062
C142	C	-0.473219	-0.788872	-0.218599
C143	C	-0.139886	-0.455538	0.114735
C144	C	0.193448	-0.122205	0.448068
C145	C	-0.473261	-0.721951	-0.285403
C146	C	-0.139928	-0.388617	0.047930
C147	C	0.193406	-0.055284	0.381263
C148	C	-0.527862	-0.721974	-0.285408
C149	C	-0.194528	-0.388641	0.047926
C150	C	0.138805	-0.055307	0.381259
C151	C	-0.555142	-0.755452	-0.252007
C152	C	-0.221809	-0.422118	0.081327
C153	C	0.111525	-0.088785	0.414660
O154	O	-0.614260	-0.693562	-0.313793
O155	O	-0.280926	-0.360229	0.019540
O156	O	0.052407	-0.026895	0.352873
O157	O	-0.614231	-0.817396	-0.190216
O158	O	-0.280898	-0.484062	0.143117
O159	O	0.052436	-0.150729	0.476451
C160	C	-0.115606	-0.755583	-0.252048
C161	C	0.217727	-0.422250	0.081285
C162	C	0.551060	-0.088916	0.414618
C163	C	-0.057492	-0.755627	-0.252064
C164	C	0.275841	-0.422293	0.081270
C165	C	0.609174	-0.088960	0.414603
C166	C	-0.252000	-0.891853	-0.252049
C167	C	0.081333	-0.558520	0.081285
C168	C	0.414666	-0.225187	0.414618
C169	C	-0.252009	-0.949967	-0.252064
C170	C	0.081324	-0.616634	0.081269
C171	C	0.414657	-0.283301	0.414603
C172	C	-0.285473	-0.201149	-0.285413
C173	C	0.047860	0.132185	0.047920
C174	C	0.381193	0.465518	0.381254
C175	C	-0.285477	-0.146544	-0.285421
C176	C	0.047857	0.186789	0.047912
C177	C	0.381190	0.520122	0.381246
O178	O	-0.313943	-0.118297	-0.313821
O179	O	0.019390	0.215036	0.019512
O180	O	0.352724	0.548369	0.352845
N181	N	-0.251994	-0.119241	-0.252047
N182	N	0.081340	0.214092	0.081286
N183	N	0.414673	0.547425	0.414620
C184	C	-0.218502	-0.146545	-0.218666
C185	C	0.114831	0.186788	0.114667
C186	C	0.448165	0.520121	0.448000
O187	O	-0.190022	-0.118308	-0.190280
O188	O	0.143311	0.215025	0.143053
O189	O	0.476644	0.548359	0.476387
C190	C	-0.218496	-0.201149	-0.218661
C191	C	0.114837	0.132185	0.114672
C192	C	0.448170	0.465518	0.448006
C193	C	-0.251985	-0.228449	-0.252034
C194	C	0.081348	0.104884	0.081300
C195	C	0.414681	0.438218	0.414633
C196	C	-0.318959	-0.228449	-0.318783
C197	C	0.014374	0.104885	0.014550
C198	C	0.347708	0.438218	0.347884
C199	C	-0.318956	-0.283049	-0.318774
C200	C	0.014377	0.050284	0.014559
C201	C	0.347710	0.383617	0.347893
C202	C	-0.285468	-0.310350	-0.285395
C203	C	0.047865	0.022984	0.047939
C204	C	0.381199	0.356317	0.381272
C205	C	-0.251983	-0.283049	-0.252024
C206	C	0.081351	0.050284	0.081309
C207	C	0.414684	0.383617	0.414642
C208	C	-0.185002	-0.228452	-0.185283
C209	C	0.148331	0.104881	0.148050
C210	C	0.481664	0.438215	0.481383
C211	C	-0.185000	-0.283059	-0.185281
C212	C	0.148334	0.050274	0.148052
C213	C	0.481667	0.383608	0.481385
C214	C	-0.218488	-0.310359	-0.218654
C215	C	0.114845	0.022974	0.114680
C216	C	0.448178	0.356308	0.448013
C217	C	-0.218492	-0.364950	-0.218636
C218	C	0.114842	-0.031617	0.114697
C219	C	0.448175	0.301716	0.448031
N220	N	-0.251974	-0.392253	-0.252010
N221	N	0.081359	-0.058920	0.081323
N222	N	0.414692	0.274413	0.414656
C223	C	-0.285463	-0.364953	-0.285389
C224	C	0.047871	-0.031620	0.047944
C225	C	0.381204	0.301714	0.381277
C226	C	-0.218515	-0.031875	-0.218680
C227	C	0.114818	0.301459	0.114653
C228	C	0.448151	0.634792	0.447986
C229	C	-0.218523	0.022728	-0.218683
C230	C	0.114810	0.356061	0.114651
C231	C	0.448144	0.689394	0.447984
C232	C	-0.285497	0.022725	-0.285438
C233	C	0.047836	0.356058	0.047895
C234	C	0.381170	0.689392	0.381228
C235	C	-0.285492	-0.031878	-0.285433
C236	C	0.047842	0.301455	0.047900
C237	C	0.381175	0.634788	0.381234
C238	C	-0.251998	-0.059178	-0.252054
C239	C	0.081335	0.274156	0.081279
C240	C	0.414669	0.607489	0.414612
C241	C	-0.285455	-0.479618	-0.285368
C242	C	0.047878	-0.146285	0.047966
C243	C	0.381212	0.187049	0.381299
C244	C	-0.285451	-0.534223	-0.285354
C245	C	0.047883	-0.200890	0.047979
C246	C	0.381216	0.132443	0.381313
C247	C	-0.218475	-0.534216	-0.218601
C248	C	0.114858	-0.200883	0.114733
C249	C	0.448192	0.132451	0.448066
C250	C	-0.218481	-0.479615	-0.218612
C251	C	0.114853	-0.146282	0.114721
C252	C	0.448186	0.187051	0.448055
C253	C	-0.251972	-0.452318	-0.252000
C254	C	0.081361	-0.118984	0.081334
C255	C	0.414694	0.214349	0.414667
O256	O	-0.190038	-0.393232	-0.190252
O257	O	0.143295	-0.059899	0.143082
O258	O	0.476628	0.273435	0.476415
O259	O	-0.313933	-0.393197	-0.313776
O260	O	0.019401	-0.059864	0.019558
O261	O	0.352734	0.273470	0.352891
C262	C	-0.218432	-0.789012	-0.806886
C263	C	0.114902	-0.455679	-0.473553
C264	C	0.448235	-0.122346	-0.140220
C265	C	-0.218417	-0.789019	-0.861491
C266	C	0.114916	-0.455685	-0.528157
C267	C	0.448249	-0.122352	-0.194824
O268	O	-0.189967	-0.817466	-0.889747
O269	O	0.143367	-0.484133	-0.556414
O270	O	0.476700	-0.150799	-0.223080
N271	N	-0.251844	-0.755562	-0.888783
N272	N	0.081490	-0.422229	-0.555449
N273	N	0.414823	-0.088895	-0.222116
C274	C	-0.285283	-0.722093	-0.861468
C275	C	0.048050	-0.388760	-0.528134
C276	C	0.381384	-0.055426	-0.194801
O277	O	-0.313713	-0.693636	-0.889695
O278	O	0.019620	-0.360302	-0.556362
O279	O	0.352954	-0.026969	-0.223029
C280	C	-0.285294	-0.722084	-0.806864
C281	C	0.048039	-0.388751	-0.473531
C282	C	0.381372	-0.055418	-0.140198
C283	C	-0.251870	-0.755547	-0.779575
C284	C	0.081464	-0.422214	-0.446242
C285	C	0.414797	-0.088880	-0.112908
C286	C	-0.185009	-0.822472	-0.779597
C287	C	0.148324	-0.489138	-0.446264
C288	C	0.481657	-0.155805	-0.112930
C289	C	-0.185025	-0.822466	-0.724997
C290	C	0.148309	-0.489133	-0.391663
C291	C	0.481642	-0.155799	-0.058330
C292	C	-0.218462	-0.789000	-0.697685
C293	C	0.114871	-0.455667	-0.364352
C294	C	0.448204	-0.122334	-0.031019
C295	C	-0.251885	-0.755541	-0.724974
C296	C	0.081448	-0.422208	-0.391641
C297	C	0.414782	-0.088874	-0.058308
C298	C	-0.318731	-0.688613	-0.779550
C299	C	0.014603	-0.355280	-0.446217
C300	C	0.347936	-0.021946	-0.112883
C301	C	-0.318739	-0.688607	-0.724943
C302	C	0.014594	-0.355273	-0.391610
C303	C	0.347928	-0.021940	-0.058276
C304	C	-0.285314	-0.722069	-0.697654
C305	C	0.048019	-0.388736	-0.364320
C306	C	0.381352	-0.055403	-0.030987
C307	C	-0.285338	-0.722070	-0.643063
C308	C	0.047995	-0.388736	-0.309729
C309	C	0.381329	-0.055403	0.023604
N310	N	-0.251912	-0.755526	-0.615771
N311	N	0.081422	-0.422193	-0.282437
N312	N	0.414755	-0.088860	0.050896
C313	C	-0.218474	-0.788992	-0.643082
C314	C	0.114860	-0.455658	-0.309749
C315	C	0.448193	-0.122325	0.023585
C316	C	-0.285256	-0.722113	-0.976138
C317	C	0.048077	-0.388780	-0.642805
C318	C	0.381411	-0.055446	-0.309472
C319	C	-0.285247	-0.722124	-1.030741
C320	C	0.048086	-0.388791	-0.697407
C321	C	0.381419	-0.055457	-0.364074
C322	C	-0.218381	-0.789049	-1.030760
C323	C	0.114952	-0.455716	-0.697427
C324	C	0.448286	-0.122383	-0.364093
C325	C	-0.218392	-0.789041	-0.976157
C326	C	0.114941	-0.455707	-0.642823
C327	C	0.448274	-0.122374	-0.309490
C328	C	-0.251829	-0.755570	-0.948846
C329	C	0.081504	-0.422237	-0.615513
C330	C	0.414837	-0.088903	-0.282180
C331	C	-0.218509	-0.788977	-0.528417
C332	C	0.114825	-0.455644	-0.195083
C333	C	0.448158	-0.122311	0.138250
C334	C	-0.218529	-0.788970	-0.473811
C335	C	0.114805	-0.455636	-0.140478
C336	C	0.448138	-0.122303	0.192855
C337	C	-0.285393	-0.722043	-0.473797
C338	C	0.047940	-0.388710	-0.140463
C339	C	0.381274	-0.055376	0.192870
C340	C	-0.285375	-0.722052	-0.528397
C341	C	0.047958	-0.388719	-0.195064
C342	C	0.381291	-0.055385	0.138269
C343	C	-0.251929	-0.755521	-0.555706
C344	C	0.081404	-0.422187	-0.222373
C345	C	0.414738	-0.088854	0.110961
O346	O	-0.313773	-0.693635	-0.614771
O347	O	0.019561	-0.360302	-0.281438
O348	O	0.352894	-0.026969	0.051895
O349	O	-0.190044	-0.817439	-0.614847
O350	O	0.143290	-0.484106	-0.281514
O351	O	0.476623	-0.150773	0.051819
C352	C	-0.251951	-0.755494	-0.116170
C353	C	0.081383	-0.422160	0.217163
C354	C	0.414716	-0.088827	0.550496
C355	C	-0.251807	-0.755588	-0.058057
C356	C	0.081526	-0.422254	0.275277
C357	C	0.414859	-0.088921	0.608610
H358	H	-0.450979	-0.816111	-0.191392
H359	H	-0.117646	-0.482777	0.141941
H360	H	0.215688	-0.149444	0.475275
H361	H	-0.157721	-0.305283	-0.158103
H362	H	0.175612	0.028050	0.175230
H363	H	0.508945	0.361383	0.508564
C364	C	-0.148134	-0.418257	-0.211498
C365	C	0.185200	-0.084924	0.121835
C366	C	0.518533	0.248410	0.455169
C367	C	-0.181663	-0.449608	-0.181932
C368	C	0.151670	-0.116275	0.151401
C369	C	0.485004	0.217058	0.484734
H370	H	-0.125401	-0.399735	-0.188856
H371	H	0.207933	-0.066401	0.144477
H372	H	0.541266	0.266932	0.477810
H373	H	-0.128181	-0.439589	-0.234310
H374	H	0.205152	-0.106256	0.099023
H375	H	0.538486	0.227078	0.432357
H376	H	-0.168082	-0.394179	-0.231373
H377	H	0.165251	-0.060846	0.101961
H378	H	0.498585	0.272488	0.435294
H379	H	-0.161715	-0.473689	-0.162061
H380	H	0.171618	-0.140356	0.171273
H381	H	0.504952	0.192977	0.504606
H382	H	-0.201618	-0.428275	-0.159111
H383	H	0.131716	-0.094941	0.174222
H384	H	0.465049	0.238392	0.507556
C385	C	-0.211233	-0.859324	-0.589834
C386	C	0.122101	-0.525991	-0.256501
C387	C	0.455434	-0.192657	0.076832
C388	C	-0.181747	-0.825767	-0.558431
C389	C	0.151586	-0.492434	-0.225098
C390	C	0.484920	-0.159101	0.108236
H391	H	-0.188538	-0.882035	-0.608366
H392	H	0.144795	-0.548702	-0.275032
H393	H	0.478128	-0.215368	0.058301
H394	H	-0.234019	-0.879299	-0.568536
H395	H	0.099314	-0.545965	-0.235203
H396	H	0.432647	-0.212632	0.098130
H397	H	-0.231131	-0.839394	-0.613905
H398	H	0.102202	-0.506060	-0.280571
H399	H	0.435536	-0.172727	0.052762
H400	H	-0.161852	-0.845697	-0.534358
H401	H	0.171482	-0.512364	-0.201025
H402	H	0.504815	-0.179031	0.132309
H403	H	-0.158951	-0.805791	-0.579731
H404	H	0.174382	-0.472457	-0.246397
H405	H	0.507715	-0.139124	0.086936
C406	C	-0.351472	-0.655899	-0.522891
C407	C	-0.018139	-0.322566	-0.189557
C408	C	0.315195	0.010767	0.143776
C409	C	-0.322118	-0.685273	-0.558397
C410	C	0.011215	-0.351939	-0.225063
C411	C	0.344548	-0.018606	0.108270
H412	H	-0.374151	-0.633189	-0.541409
H413	H	-0.040817	-0.299856	-0.208076
H414	H	0.292516	0.033478	0.125257
H415	H	-0.371481	-0.678664	-0.501603
H416	H	-0.038148	-0.345330	-0.168270
H417	H	0.295186	-0.011997	0.165064
H418	H	-0.328690	-0.635918	-0.501585
H419	H	0.004644	-0.302585	-0.168252
H420	H	0.337977	0.030748	0.165082
H421	H	-0.344901	-0.705257	-0.579700
H422	H	-0.011567	-0.371923	-0.246367
H423	H	0.321766	-0.038590	0.086967
H424	H	-0.302108	-0.662506	-0.579693
H425	H	0.031225	-0.329172	-0.246360
H426	H	0.364559	0.004161	0.086973
C427	C	-0.589258	-0.796251	-0.148295
C428	C	-0.255925	-0.462917	0.185038
C429	C	0.077408	-0.129584	0.518371
C430	C	-0.557813	-0.825698	-0.181898
C431	C	-0.224479	-0.492365	0.151435
C432	C	0.108854	-0.159031	0.484768
H433	H	-0.607775	-0.818971	-0.125638
H434	H	-0.274442	-0.485637	0.207695
H435	H	0.058891	-0.152304	0.541028
H436	H	-0.567991	-0.773483	-0.128265
H437	H	-0.234658	-0.440150	0.205068
H438	H	0.098675	-0.106817	0.538402
H439	H	-0.613341	-0.776333	-0.168195
H440	H	-0.280008	-0.443000	0.165138
H441	H	0.053325	-0.109667	0.498471
H442	H	-0.533727	-0.845613	-0.161998
H443	H	-0.200394	-0.512279	0.171335
H444	H	0.132940	-0.178946	0.504668
H445	H	-0.579082	-0.848475	-0.201931
H446	H	-0.245748	-0.515141	0.131403
H447	H	0.087585	-0.181808	0.464736
H448	H	-0.312723	-0.556449	-0.312530
H449	H	0.020610	-0.223115	0.020803
H450	H	0.353943	0.110218	0.354136
C451	C	-0.355604	-0.714788	-0.914726
C452	C	-0.022271	-0.381455	-0.581393
C453	C	0.311062	-0.048121	-0.248060
C454	C	-0.322019	-0.685327	-0.946118
C455	C	0.011314	-0.351993	-0.612785
C456	C	0.344647	-0.018660	-0.279452
H457	H	-0.378297	-0.692077	-0.896193
H458	H	-0.044964	-0.358743	-0.562860
H459	H	0.288370	-0.025410	-0.229526
H460	H	-0.375597	-0.737553	-0.936032
H461	H	-0.042264	-0.404220	-0.602699
H462	H	0.291069	-0.070887	-0.269365
H463	H	-0.335694	-0.734708	-0.890658
H464	H	-0.002360	-0.401374	-0.557324
H465	H	0.330973	-0.068041	-0.223991
H466	H	-0.341930	-0.665410	-0.970190
H467	H	-0.008596	-0.332076	-0.636856
H468	H	0.324737	0.001257	-0.303523
H469	H	-0.302024	-0.662552	-0.924811
H470	H	0.031309	-0.329219	-0.591477
H471	H	0.364642	0.004115	-0.258144
C472	C	-0.351690	-0.026384	-0.351419
C473	C	-0.018357	0.306950	-0.018085
C474	C	0.314977	0.640283	0.315248
C475	C	-0.322298	-0.061884	-0.322122
C476	C	0.011035	0.271449	0.011211
C477	C	0.344369	0.604783	0.344545
H478	H	-0.374410	-0.044907	-0.374072
H479	H	-0.041077	0.288426	-0.040739
H480	H	0.292256	0.621760	0.292594
H481	H	-0.371657	-0.005069	-0.328603
H482	H	-0.038324	0.328264	0.004731
H483	H	0.295010	0.661598	0.338064
H484	H	-0.328935	-0.005104	-0.371456
H485	H	0.004399	0.328229	-0.038123
H486	H	0.337732	0.661562	0.295210
H487	H	-0.345053	-0.083161	-0.302081
H488	H	-0.011720	0.250173	0.031252
H489	H	0.321613	0.583506	0.364586
H490	H	-0.302330	-0.083208	-0.344941
H491	H	0.031004	0.250126	-0.011607
H492	H	0.364337	0.583459	0.321726
H493	H	-0.702137	-0.849670	-0.158024
H494	H	-0.368804	-0.516337	0.175310
H495	H	-0.035471	-0.183003	0.508643
C496	C	-0.188733	-0.617923	-0.188962
C497	C	0.144600	-0.284590	0.144372
C498	C	0.477934	0.048744	0.477705
C499	C	-0.181663	-0.564232	-0.181914
C500	C	0.151670	-0.230899	0.151419
C501	C	0.485004	0.102435	0.484753
H502	H	-0.166002	-0.636453	-0.166317
H503	H	0.167332	-0.303120	0.167017
H504	H	0.500665	0.030213	0.500350
H505	H	-0.223846	-0.626845	-0.181240
H506	H	0.109488	-0.293511	0.152094
H507	H	0.442821	0.039822	0.485427
H508	H	-0.181137	-0.626884	-0.224108
H509	H	0.152196	-0.293551	0.109226
H510	H	0.485529	0.039782	0.442559
H511	H	-0.189262	-0.555270	-0.146769
H512	H	0.144071	-0.221937	0.186565
H513	H	0.477405	0.111397	0.519898
H514	H	-0.146542	-0.555307	-0.189632
H515	H	0.186791	-0.221973	0.143701
H516	H	0.520124	0.111360	0.477034
H517	H	-0.346225	-0.305272	-0.345950
H518	H	-0.012892	0.028061	-0.012617
H519	H	0.320441	0.361394	0.320716
C520	C	-0.385163	-0.233950	-0.384758
C521	C	-0.051830	0.099383	-0.051425
C522	C	0.281504	0.432716	0.281909
C523	C	-0.355777	-0.198446	-0.355475
C524	C	-0.022444	0.134887	-0.022141
C525	C	0.310890	0.468220	0.311192
H526	H	-0.407899	-0.215430	-0.407406
H527	H	-0.074565	0.117903	-0.074073
H528	H	0.258768	0.451237	0.259260
H529	H	-0.362409	-0.255265	-0.404796
H530	H	-0.029075	0.078069	-0.071463
H531	H	0.304258	0.411402	0.261871
H532	H	-0.405118	-0.255229	-0.361929
H533	H	-0.071785	0.078104	-0.028596
H534	H	0.261549	0.411437	0.304738
H535	H	-0.335819	-0.177170	-0.378304
H536	H	-0.002485	0.156163	-0.044970
H537	H	0.330848	0.489497	0.288363
H538	H	-0.378534	-0.177123	-0.335435
H539	H	-0.045201	0.156210	-0.002102
H540	H	0.288133	0.489544	0.331231
C541	C	-0.152428	-0.855123	-0.479324
C542	C	0.180905	-0.521789	-0.145990
C543	C	0.514238	-0.188456	0.187343
C544	C	-0.181783	-0.825752	-0.443816
C545	C	0.151551	-0.492419	-0.110483
C546	C	0.484884	-0.159085	0.222851
H547	H	-0.129742	-0.877826	-0.460806
H548	H	0.203592	-0.544493	-0.127473
H549	H	0.536925	-0.211159	0.205861
H550	H	-0.175206	-0.875106	-0.500623
H551	H	0.158127	-0.541773	-0.167290
H552	H	0.491461	-0.208440	0.166043
H553	H	-0.132423	-0.832353	-0.500617
H554	H	0.200910	-0.499019	-0.167284
H555	H	0.534244	-0.165686	0.166050
H556	H	-0.201791	-0.848522	-0.422525
H557	H	0.131542	-0.515188	-0.089192
H558	H	0.464876	-0.181855	0.244142
H559	H	-0.159002	-0.805767	-0.422507
H560	H	0.174331	-0.472433	-0.089174
H561	H	0.507665	-0.139100	0.244159
H562	H	-0.801185	-0.849709	-0.158037
H563	H	-0.467851	-0.516376	0.175296
H564	H	-0.134518	-0.183042	0.508630
C565	C	-0.663009	-0.681270	-0.389160
C566	C	-0.329676	-0.347937	-0.055827
C567	C	0.003657	-0.014603	0.277506
C568	C	-0.694447	-0.651813	-0.355558
C569	C	-0.361113	-0.318480	-0.022225
C570	C	-0.027780	0.014854	0.311108
H571	H	-0.644499	-0.658556	-0.411829
H572	H	-0.311166	-0.325223	-0.078496
H573	H	0.022168	0.008110	0.254837
H574	H	-0.638926	-0.701181	-0.369264
H575	H	-0.305592	-0.367848	-0.035931
H576	H	0.027741	-0.034514	0.297402
H577	H	-0.684285	-0.704044	-0.409183
H578	H	-0.350952	-0.370711	-0.075849
H579	H	-0.017619	-0.037377	0.257484
H580	H	-0.673170	-0.629041	-0.335533
H581	H	-0.339837	-0.295708	-0.002200
H582	H	-0.006503	0.037625	0.331134
H583	H	-0.718533	-0.631893	-0.375456
H584	H	-0.385200	-0.298560	-0.042123
H585	H	-0.051867	0.034774	0.291210
C586	C	-0.981025	-0.855211	-0.152621
C587	C	-0.647691	-0.521878	0.180712
C588	C	-0.314358	-0.188544	0.514046
C589	C	-0.945539	-0.825834	-0.181932
C590	C	-0.612206	-0.492500	0.151401
C591	C	-0.278873	-0.159167	0.484735
H592	H	-0.962490	-0.877916	-0.129954
H593	H	-0.629156	-0.544582	0.203379
H594	H	-0.295823	-0.211249	0.536713
H595	H	-1.002348	-0.832449	-0.132601
H596	H	-0.669015	-0.499116	0.200732
H597	H	-0.335682	-0.165782	0.534065
H598	H	-1.002296	-0.875198	-0.175431
H599	H	-0.668963	-0.541865	0.157902
H600	H	-0.335630	-0.208531	0.491236
H601	H	-0.924270	-0.805843	-0.159122
H602	H	-0.590937	-0.472510	0.174211
H603	H	-0.257604	-0.139177	0.507545
H604	H	-0.924207	-0.848598	-0.201953
H605	H	-0.590874	-0.515265	0.131380
H606	H	-0.257540	-0.181932	0.464713
H607	H	-1.052391	-0.816333	-0.191464
H608	H	-0.719058	-0.482999	0.141869
H609	H	-0.385724	-0.149666	0.475203
C610	C	-0.118925	-0.888611	-0.730517
C611	C	0.214408	-0.555278	-0.397184
C612	C	0.547742	-0.221945	-0.063851
C613	C	-0.148276	-0.859243	-0.695005
C614	C	0.185057	-0.525910	-0.361672
C615	C	0.518390	-0.192577	-0.028338
H616	H	-0.096234	-0.911313	-0.712003
H617	H	0.237100	-0.577980	-0.378670
H618	H	0.570433	-0.244647	-0.045337
H619	H	-0.141704	-0.908596	-0.751814
H620	H	0.191629	-0.575263	-0.418481
H621	H	0.524962	-0.241930	-0.085147
H622	H	-0.098924	-0.865839	-0.751813
H623	H	0.234409	-0.532506	-0.418480
H624	H	0.567742	-0.199173	-0.085147
H625	H	-0.168280	-0.882015	-0.673711
H626	H	0.165053	-0.548682	-0.340378
H627	H	0.498387	-0.215348	-0.007045
H628	H	-0.125494	-0.839257	-0.673699
H629	H	0.207839	-0.505923	-0.340366
H630	H	0.541173	-0.172590	-0.007033
C631	C	-0.384840	-0.622461	-0.730413
C632	C	-0.051507	-0.289128	-0.397079
C633	C	0.281826	0.044205	-0.063746
C634	C	-0.355505	-0.651823	-0.694924
C635	C	-0.022171	-0.318489	-0.361591
C636	C	0.311162	0.014844	-0.028258
H637	H	-0.407542	-0.599758	-0.711880
H638	H	-0.074209	-0.266425	-0.378547
H639	H	0.259125	0.066908	-0.045213
H640	H	-0.362052	-0.602477	-0.751700
H641	H	-0.028719	-0.269144	-0.418367
H642	H	0.304614	0.064189	-0.085034
H643	H	-0.404829	-0.645237	-0.751720
H644	H	-0.071496	-0.311904	-0.418387
H645	H	0.261837	0.021430	-0.085053
H646	H	-0.335513	-0.629047	-0.673619
H647	H	-0.002179	-0.295714	-0.340286
H648	H	0.331154	0.037620	-0.006953
H649	H	-0.378296	-0.671808	-0.673628
H650	H	-0.044962	-0.338475	-0.340294
H651	H	0.288371	-0.005141	-0.006961
C652	C	-1.024743	-0.656005	-0.351490
C653	C	-0.691410	-0.322672	-0.018157
C654	C	-0.358076	0.010662	0.315177
C655	C	-1.060228	-0.685383	-0.322180
C656	C	-0.726895	-0.352049	0.011154
C657	C	-0.393561	-0.018716	0.344487
H658	H	-1.043278	-0.633307	-0.374164
H659	H	-0.709945	-0.299973	-0.040830
H660	H	-0.376611	0.033360	0.292503
H661	H	-1.003478	-0.636015	-0.328684
H662	H	-0.670144	-0.302682	0.004649
H663	H	-0.336811	0.030651	0.337983
H664	H	-1.003413	-0.678771	-0.371507
H665	H	-0.670079	-0.345437	-0.038174
H666	H	-0.336746	-0.012104	0.295159
H667	H	-1.081556	-0.662617	-0.302159
H668	H	-0.748222	-0.329284	0.031174
H669	H	-0.414889	0.004050	0.364507
H670	H	-1.081502	-0.705374	-0.344989
H671	H	-0.748169	-0.372040	-0.011655
H672	H	-0.414835	-0.038707	0.321678
C673	C	-0.795819	-0.663108	-0.407360
C674	C	-0.462486	-0.329774	-0.074027
C675	C	-0.129153	0.003559	0.259306
C676	C	-0.809059	-0.651851	-0.355576
C677	C	-0.475726	-0.318517	-0.022242
C678	C	-0.142393	0.014816	0.311091
H679	H	-0.814353	-0.640410	-0.430037
H680	H	-0.481019	-0.307077	-0.096703
H681	H	-0.147686	0.026256	0.236630
H682	H	-0.759398	-0.658310	-0.412126
H683	H	-0.426065	-0.324977	-0.078792
H684	H	-0.092731	0.008356	0.254541
H685	H	-0.804738	-0.698236	-0.415040
H686	H	-0.471404	-0.364903	-0.081707
H687	H	-0.138071	-0.031570	0.251626
H688	H	-0.800138	-0.616723	-0.347895
H689	H	-0.466804	-0.283390	-0.014561
H690	H	-0.133471	0.049944	0.318772
H691	H	-0.845489	-0.656644	-0.350808
H692	H	-0.512156	-0.323310	-0.017475
H693	H	-0.178823	0.010023	0.315858
H694	H	-0.191241	-0.054099	-0.191496
H695	H	0.142092	0.279235	0.141838
H696	H	0.475425	0.612568	0.475171
H697	H	-0.312619	-0.694798	-0.451550
H698	H	0.020715	-0.361464	-0.118217
H699	H	0.354048	-0.028131	0.215117
C700	C	-0.914180	-0.714795	-0.355780
C701	C	-0.580847	-0.381462	-0.022447
C702	C	-0.247514	-0.048129	0.310886
C703	C	-0.945616	-0.685344	-0.322172
C704	C	-0.612283	-0.352011	0.011162
C705	C	-0.278950	-0.018677	0.344495
H706	H	-0.895673	-0.692078	-0.378448
H707	H	-0.562340	-0.358745	-0.045115
H708	H	-0.229007	-0.025411	0.288218
H709	H	-0.890094	-0.734708	-0.335889
H710	H	-0.556761	-0.401374	-0.002556
H711	H	-0.223427	-0.068041	0.330778
H712	H	-0.935457	-0.737568	-0.375804
H713	H	-0.602124	-0.404235	-0.042470
H714	H	-0.268791	-0.070901	0.290863
H715	H	-0.924339	-0.662574	-0.302146
H716	H	-0.591005	-0.329240	0.031188
H717	H	-0.257672	0.004093	0.364521
H718	H	-0.969706	-0.665423	-0.342065
H719	H	-0.636372	-0.332089	-0.008732
H720	H	-0.303039	0.001244	0.324602
H721	H	-0.312763	0.044963	-0.312619
H722	H	0.020570	0.378296	0.020714
H723	H	0.353903	0.711629	0.354047
H724	H	-0.191258	0.044951	-0.191502
H725	H	0.142075	0.378284	0.141831
H726	H	0.475408	0.711617	0.475165
C727	C	-0.522411	-0.655825	-0.351442
C728	C	-0.189077	-0.322491	-0.018108
C729	C	0.144256	0.010842	0.315225
C730	C	-0.557892	-0.685206	-0.322130
C731	C	-0.224559	-0.351872	0.011204
C732	C	0.108775	-0.018539	0.344537
H733	H	-0.540949	-0.633131	-0.374118
H734	H	-0.207615	-0.299798	-0.040784
H735	H	0.125718	0.033536	0.292549
H736	H	-0.501149	-0.635830	-0.328637
H737	H	-0.167816	-0.302497	0.004697
H738	H	0.165517	0.030836	0.338030
H739	H	-0.501077	-0.678589	-0.371457
H740	H	-0.167743	-0.345256	-0.038123
H741	H	0.165590	-0.011922	0.295210
H742	H	-0.579224	-0.662442	-0.302112
H743	H	-0.245891	-0.329108	0.031222
H744	H	0.087443	0.004225	0.364555
H745	H	-0.579162	-0.705202	-0.344938
H746	H	-0.245829	-0.371868	-0.011604
H747	H	0.087504	-0.038535	0.321729
C748	C	-0.389569	-0.692219	-0.315053
C749	C	-0.056236	-0.358885	0.018280
C750	C	0.277097	-0.025552	0.351614
C751	C	-0.443264	-0.685165	-0.322115
C752	C	-0.109931	-0.351832	0.011218
C753	C	0.223403	-0.018499	0.344551
H754	H	-0.371051	-0.669513	-0.337723
H755	H	-0.037717	-0.336179	-0.004389
H756	H	0.295616	-0.002846	0.328944
H757	H	-0.380648	-0.684583	-0.279919
H758	H	-0.047315	-0.351250	0.053414
H759	H	0.286019	-0.017916	0.386748
H760	H	-0.380594	-0.727343	-0.322737
H761	H	-0.047260	-0.394010	0.010596
H762	H	0.286073	-0.060677	0.343929
H763	H	-0.452241	-0.650041	-0.314427
H764	H	-0.118907	-0.316708	0.018906
H765	H	0.214426	0.016626	0.352239
H766	H	-0.452189	-0.692797	-0.357257
H767	H	-0.118856	-0.359464	-0.023924
H768	H	0.214478	-0.026131	0.309409
C769	C	-0.292837	-0.418257	-0.355704
C770	C	0.040497	-0.084923	-0.022371
C771	C	0.373830	0.248410	0.310963
C772	C	-0.322270	-0.449617	-0.322066
C773	C	0.011063	-0.116284	0.011267
C774	C	0.344397	0.217050	0.344601
H775	H	-0.315567	-0.399738	-0.378360
H776	H	0.017767	-0.066405	-0.045026
H777	H	0.351100	0.266929	0.288307
H778	H	-0.272902	-0.394180	-0.335833
H779	H	0.060432	-0.060847	-0.002500
H780	H	0.393765	0.272486	0.330833
H781	H	-0.270086	-0.439586	-0.375739
H782	H	0.063247	-0.106253	-0.042406
H783	H	0.396581	0.227080	0.290928
H784	H	-0.345018	-0.428287	-0.302028
H785	H	-0.011685	-0.094953	0.031305
H786	H	0.321648	0.238380	0.364638
H787	H	-0.342214	-0.473696	-0.341939
H788	H	-0.008880	-0.140363	-0.008605
H789	H	0.324453	0.192971	0.324728
C790	C	-0.118791	-0.233957	-0.119313
C791	C	0.214543	0.099376	0.214020
C792	C	0.547876	0.432709	0.547353
C793	C	-0.148185	-0.198453	-0.148603
C794	C	0.185148	0.134880	0.184730
C795	C	0.518482	0.468213	0.518064
H796	H	-0.096057	-0.215437	-0.096671
H797	H	0.237276	0.117896	0.236663
H798	H	0.570610	0.451230	0.569996
H799	H	-0.141540	-0.255229	-0.099269
H800	H	0.191794	0.078105	0.234064
H801	H	0.525127	0.411438	0.567398
H802	H	-0.098833	-0.255280	-0.142138
H803	H	0.234500	0.078054	0.191195
H804	H	0.567833	0.411387	0.524528
H805	H	-0.168146	-0.177133	-0.125778
H806	H	0.165188	0.156200	0.207555
H807	H	0.498521	0.489533	0.540889
H808	H	-0.125433	-0.177173	-0.168649
H809	H	0.207900	0.156160	0.164684
H810	H	0.541234	0.489493	0.498018
C811	C	-0.211143	-0.859368	-0.914768
C812	C	0.122191	-0.526035	-0.581435
C813	C	0.455524	-0.192702	-0.248102
C814	C	-0.181647	-0.825818	-0.946162
C815	C	0.151687	-0.492485	-0.612829
C816	C	0.485020	-0.159151	-0.279495
H817	H	-0.188454	-0.882074	-0.896256
H818	H	0.144879	-0.548741	-0.562922
H819	H	0.478213	-0.215407	-0.229589
H820	H	-0.231051	-0.839437	-0.890687
H821	H	0.102282	-0.506104	-0.557354
H822	H	0.435615	-0.172770	-0.224020
H823	H	-0.233920	-0.879354	-0.936075
H824	H	0.099413	-0.546020	-0.602741
H825	H	0.432746	-0.212687	-0.269408
H826	H	-0.158871	-0.805830	-0.924855
H827	H	0.174462	-0.472496	-0.591522
H828	H	0.507795	-0.139163	-0.258188
H829	H	-0.161729	-0.845751	-0.970246
H830	H	0.171604	-0.512418	-0.636913
H831	H	0.504938	-0.179085	-0.303580
H832	H	-0.157777	-0.849723	-0.801828
H833	H	0.175556	-0.516390	-0.468495
H834	H	0.508889	-0.183057	-0.135162
H835	H	-0.191153	-0.816298	-1.053007
H836	H	0.142181	-0.482964	-0.719673
H837	H	0.475514	-0.149631	-0.386340
C838	C	-0.373777	-0.696592	-1.047525
C839	C	-0.040444	-0.363259	-0.714191
C840	C	0.292890	-0.029925	-0.380858
C841	C	-0.321995	-0.685345	-1.060730
C842	C	0.011338	-0.352011	-0.727397
C843	C	0.344671	-0.018678	-0.394063
H844	H	-0.396462	-0.673881	-1.066035
H845	H	-0.063129	-0.340547	-0.732702
H846	H	0.270205	-0.007214	-0.399368
H847	H	-0.381428	-0.731711	-1.056489
H848	H	-0.048095	-0.398378	-0.723156
H849	H	0.285238	-0.065044	-0.389822
H850	H	-0.378559	-0.691803	-1.011094
H851	H	-0.045226	-0.358469	-0.677760
H852	H	0.288107	-0.025136	-0.344427
H853	H	-0.317212	-0.690138	-1.097161
H854	H	0.016121	-0.356804	-0.763827
H855	H	0.349455	-0.023471	-0.430494
H856	H	-0.314341	-0.650217	-1.051769
H857	H	0.018992	-0.316884	-0.718436
H858	H	0.352325	0.016450	-0.385103
C859	C	-0.325975	-0.618287	-0.840936
C860	C	0.007359	-0.284954	-0.507603
C861	C	0.340692	0.048380	-0.174270
C862	C	-0.355474	-0.651835	-0.809543
C863	C	-0.022140	-0.318501	-0.476210
C864	C	0.311193	0.014832	-0.142876
H865	H	-0.348662	-0.595585	-0.859455
H866	H	-0.015328	-0.262251	-0.526122
H867	H	0.318005	0.071082	-0.192789
H868	H	-0.303201	-0.598302	-0.819634
H869	H	0.030132	-0.264969	-0.486300
H870	H	0.363466	0.068364	-0.152967
H871	H	-0.306062	-0.638224	-0.865018
H872	H	0.027271	-0.304891	-0.531684
H873	H	0.360605	0.028443	-0.198351
H874	H	-0.375384	-0.631898	-0.785459
H875	H	-0.042050	-0.298564	-0.452126
H876	H	0.291283	0.034769	-0.118792
H877	H	-0.378257	-0.671821	-0.830848
H878	H	-0.044923	-0.338488	-0.497514
H879	H	0.288410	-0.005155	-0.164181
