data_functionalizedCrystal
_audit_creation_method	'MofGen! by Chris Wilmer'
_symmetry_space_group_name_H-M	'P1'
_symmetry_Int_Tables_number	1
_symmetry_cell_setting	triclinic
loop_
_symmetry_equiv_pos_as_xyz
  x,y,z
_cell_length_a	14.044191
_cell_length_b	12.503572
_cell_length_c	11.792241
_cell_angle_alpha	93.547243
_cell_angle_beta	91.307404
_cell_angle_gamma	93.837835
loop_
_atom_site_label
_atom_site_type_symbol
_atom_site_fract_x
_atom_site_fract_y
_atom_site_fract_z
O1	O	1.264548	0.089269	-0.267796
O2	O	0.988528	0.089283	-0.257907
O3	O	1.133235	0.089268	-0.098311
O4	O	1.119840	0.089284	-0.427393
O5	O	1.122353	-0.089373	-0.110335
O6	O	0.977645	-0.089358	-0.269932
O7	O	1.253665	-0.089372	-0.279820
Cu8	Cu	1.114661	-0.105676	-0.275974
Cu9	Cu	1.127531	0.105587	-0.261754
O10	O	1.108957	-0.089357	-0.439417
C11	C	0.947750	-0.000036	-0.259594
C12	C	0.842458	-0.000031	-0.246692
C13	C	0.592520	-0.000039	-0.314609
C14	C	0.649679	-0.000041	-0.223123
C15	C	0.756951	-0.000036	-0.236240
C16	C	0.485238	-0.000044	-0.301494
N17	N	1.105616	-0.254268	-0.285976
C18	C	1.092310	-0.473382	-0.300698
C19	C	1.149887	-0.526715	-0.237025
C20	C	1.142483	-0.648637	-0.245217
C21	C	1.099713	-0.351448	-0.292508
C22	C	1.294443	-0.000051	-0.278133
C23	C	1.399735	-0.000049	-0.291035
C24	C	1.126953	-0.000052	-0.061953
C25	C	1.124434	-0.000051	0.064297
N26	N	1.136584	0.254178	-0.251744
C27	C	1.115240	-0.000035	-0.475775
C28	C	1.117759	-0.000029	-0.602024
C29	C	1.119804	-0.000033	0.295446
C30	C	1.122376	-0.000043	0.166818
H31	H	0.618055	0.000030	-0.134942
C32	C	1.018192	-0.535385	-0.382622
H33	H	0.983027	-0.485892	-0.421486
H34	H	1.049979	-0.579267	-0.436206
H35	H	0.975825	-0.579246	-0.340698
C36	C	0.635243	-0.000017	-0.433718
H37	H	0.702784	-0.000003	-0.427017
H38	H	0.610872	-0.062305	-0.478012
H39	H	0.618449	0.062294	-0.469599
C40	C	1.223996	-0.464711	-0.155076
H41	H	1.259145	-0.514209	-0.116200
H42	H	1.266366	-0.420835	-0.196970
H43	H	1.192189	-0.420844	-0.101488
