data_functionalizedCrystal
_audit_creation_method	'MofGen! by Chris Wilmer'
_symmetry_space_group_name_H-M	'P1'
_symmetry_Int_Tables_number	1
_symmetry_cell_setting	triclinic
loop_
_symmetry_equiv_pos_as_xyz
  x,y,z
_cell_length_a	16.109302
_cell_length_b	23.532357
_cell_length_c	22.610064
_cell_angle_alpha	90.016169
_cell_angle_beta	89.994664
_cell_angle_gamma	83.145036
loop_
_atom_site_label
_atom_site_type_symbol
_atom_site_fract_x
_atom_site_fract_y
_atom_site_fract_z
O1	O	1.102521	0.073212	0.049218
O2	O	1.602521	0.573212	0.549218
O3	O	0.860386	0.082322	0.049215
O4	O	1.360386	0.582322	0.549215
O5	O	0.988777	-0.005139	0.049205
O6	O	1.488777	0.494861	0.549205
O7	O	0.974130	0.160674	0.049229
O8	O	1.474130	0.660674	0.549229
O9	O	0.988796	-0.005154	-0.049165
O10	O	1.488796	0.494846	0.450835
O11	O	0.860405	0.082307	-0.049155
O12	O	1.360405	0.582307	0.450845
O13	O	1.102541	0.073198	-0.049151
O14	O	1.602541	0.573198	0.450849
Zn15	Zn	0.981476	0.077750	-0.064771
Zn16	Zn	1.481476	0.577750	0.435229
Zn17	Zn	0.981450	0.077770	0.064835
Zn18	Zn	1.481450	0.577770	0.564835
O19	O	0.974150	0.160659	-0.049141
O20	O	1.474150	0.660659	0.450859
C21	C	0.829423	0.081946	0.000029
C22	C	1.329423	0.581946	0.500029
C23	C	0.737137	0.080839	0.000027
C24	C	1.237137	0.580839	0.500027
C25	C	0.524828	0.078272	-0.053588
C26	C	1.024828	0.578272	0.446412
C27	C	0.438116	0.077227	-0.053586
C28	C	0.938116	0.577227	0.446414
C29	C	0.438105	0.077246	0.053661
C30	C	0.938105	0.577246	0.553661
C31	C	0.524816	0.078287	0.053659
C32	C	1.024816	0.578287	0.553659
C33	C	0.568174	0.078804	0.000032
C34	C	1.068174	0.578804	0.500032
C35	C	0.394752	0.076716	0.000037
C36	C	0.894752	0.576716	0.500037
C37	C	0.300736	0.075582	0.000039
C38	C	0.800736	0.575582	0.500039
C39	C	0.662197	0.079937	0.000030
C40	C	1.162197	0.579937	0.500030
C41	C	0.988420	-0.026365	0.000018
C42	C	1.488420	0.473635	0.500018
C43	C	0.987319	-0.089587	0.000012
C44	C	1.487319	0.410413	0.500012
C45	C	0.980393	-0.481616	0.053665
C46	C	1.480393	0.018384	0.553665
C47	C	0.979346	-0.541019	0.053669
C48	C	1.479346	-0.041019	0.553669
O49	O	0.978767	-0.571731	0.099271
O50	O	1.478767	-0.071731	0.599271
N51	N	0.978838	-0.570741	0.000048
N52	N	1.478838	-0.070741	0.500048
C53	C	0.979368	-0.541055	-0.053579
C54	C	1.479368	-0.041055	0.446421
O55	O	0.978838	-0.571790	-0.099187
O56	O	1.478838	-0.071790	0.400813
C57	C	0.980409	-0.481652	-0.053582
C58	C	1.480409	0.018348	0.446418
C59	C	0.980926	-0.451935	0.000042
C60	C	1.480926	0.048065	0.500042
C61	C	0.980909	-0.451899	0.107285
C62	C	1.480909	0.048101	0.607285
C63	C	0.981958	-0.392499	0.107281
C64	C	1.481958	0.107501	0.607281
C65	C	0.982490	-0.362818	0.053658
C66	C	1.482490	0.137182	0.553658
C67	C	0.981974	-0.392535	0.000039
C68	C	1.481974	0.107465	0.500039
C69	C	0.980933	-0.451967	-0.107208
C70	C	1.480933	0.048033	0.392792
C71	C	0.981973	-0.392560	-0.107206
C72	C	1.481973	0.107440	0.392794
C73	C	0.982490	-0.362842	-0.053582
C74	C	1.482490	0.137158	0.446418
C75	C	0.983555	-0.303455	-0.053588
C76	C	1.483555	0.196545	0.446412
N77	N	0.984064	-0.273734	0.000032
N78	N	1.484064	0.226266	0.500032
C79	C	0.983531	-0.303415	0.053655
C80	C	1.483531	0.196585	0.553655
C81	C	0.977180	-0.665804	-0.053569
C82	C	1.477180	-0.165804	0.446431
C83	C	0.976145	-0.725207	-0.053567
C84	C	1.476145	-0.225207	0.446433
C85	C	0.976122	-0.725167	0.053681
C86	C	1.476122	-0.225167	0.553681
C87	C	0.977163	-0.665764	0.053678
C88	C	1.477163	-0.165764	0.553678
C89	C	0.977688	-0.636083	0.000051
C90	C	1.477688	-0.136083	0.500051
C91	C	0.985734	-0.178673	0.053644
C92	C	1.485734	0.321327	0.553644
C93	C	0.986786	-0.119269	0.053636
C94	C	1.486786	0.380731	0.553636
C95	C	0.986805	-0.119313	-0.053612
C96	C	1.486805	0.380687	0.446388
C97	C	0.985757	-0.178712	-0.053604
C98	C	1.485757	0.321288	0.446396
C99	C	0.985219	-0.208391	0.000029
C100	C	1.485219	0.291609	0.500029
O101	O	0.984131	-0.272705	-0.099167
O102	O	1.484131	0.227295	0.400833
O103	O	0.984050	-0.272672	0.099256
O104	O	1.484050	0.227328	0.599256
C105	C	1.133503	0.073574	0.000036
C106	C	1.633503	0.573574	0.500036
C107	C	1.225789	0.074681	0.000042
C108	C	1.725789	0.574681	0.500042
C109	C	0.974506	0.181884	0.000047
C110	C	1.474506	0.681884	0.500047
C111	C	0.975608	0.245107	0.000057
C112	C	1.475608	0.745107	0.500057
N113	N	0.981500	0.077736	-0.153223
N114	N	1.481500	0.577736	0.346777
N115	N	0.981433	0.077779	0.153287
N116	N	1.481433	0.577779	0.653287
C117	C	1.038445	0.039107	0.561924
C118	C	1.538445	0.539107	1.061924
C119	C	1.038451	0.039105	0.623844
C120	C	1.538451	0.539105	1.123844
O121	O	1.086911	0.006248	0.655859
O122	O	1.586911	0.506248	1.155859
N123	N	0.981493	0.077751	0.654824
N124	N	1.481493	0.577751	1.154824
C125	C	0.924531	0.116406	0.623882
C126	C	1.424531	0.616406	1.123882
O127	O	0.876085	0.149277	0.655918
O128	O	1.376085	0.649277	1.155918
C129	C	0.924529	0.116411	0.561963
C130	C	1.424529	0.616411	1.061963
C131	C	0.981485	0.077758	0.530986
C132	C	1.481485	0.577758	1.030986
C133	C	1.095397	0.000459	0.530947
C134	C	1.595397	0.500459	1.030947
C135	C	1.095390	0.000461	0.469031
C136	C	1.595390	0.500461	0.969031
C137	C	1.038430	0.039112	0.438093
C138	C	1.538430	0.539112	0.938093
C139	C	0.981478	0.077761	0.469070
C140	C	1.481478	0.577761	0.969070
C141	C	0.867572	0.155068	0.531021
C142	C	1.367572	0.655068	1.031021
C143	C	0.867575	0.155070	0.469098
C144	C	1.367575	0.655070	0.969098
C145	C	0.924531	0.116418	0.438121
C146	C	1.424531	0.616418	0.938121
C147	C	0.924511	0.116414	0.376216
C148	C	1.424511	0.616414	0.876216
N149	N	0.981469	0.077768	0.345236
N150	N	1.481469	0.577768	0.845236
C151	C	1.038428	0.039117	0.376174
C152	C	1.538428	0.539117	0.876174
C153	C	0.924540	0.116393	0.753915
C154	C	1.424540	0.616393	1.253915
C155	C	0.924537	0.116385	0.815833
C156	C	1.424537	0.616385	1.315833
C157	C	1.038458	0.039085	0.815791
C158	C	1.538458	0.539085	1.315791
C159	C	1.038457	0.039090	0.753872
C160	C	1.538457	0.539090	1.253872
C161	C	0.981498	0.077747	0.722935
C162	C	1.481498	0.577747	1.222935
C163	C	1.038408	0.039124	0.246147
C164	C	1.538408	0.539124	0.746147
C165	C	1.038393	0.039128	0.184226
C166	C	1.538393	0.539128	0.684226
C167	C	0.924475	0.116430	0.184273
C168	C	1.424475	0.616430	0.684273
C169	C	0.924486	0.116424	0.246189
C170	C	1.424486	0.616424	0.746189
C171	C	0.981460	0.077769	0.277124
C172	C	1.481460	0.577769	0.777124
O173	O	0.876078	0.149255	0.344162
O174	O	1.376078	0.649255	0.844162
O175	O	1.086874	0.006256	0.344130
O176	O	1.586874	0.506256	0.844130
H177	H	0.560127	0.078693	-0.097254
H178	H	1.060127	0.578693	0.402746
H179	H	0.982389	-0.368395	-0.150877
H180	H	1.482389	0.131605	0.349123
O181	O	0.395851	0.076773	0.105698
O182	O	0.895851	0.576773	0.605698
C183	C	0.310025	0.075727	0.094204
C184	C	0.810025	0.575727	0.594204
H185	H	0.294591	0.093595	0.048122
H186	H	0.794591	0.593595	0.548122
H187	H	0.271553	0.102972	0.128454
H188	H	0.771553	0.602972	0.628454
H189	H	0.294529	0.029770	0.096743
H190	H	0.794529	0.529770	0.596743
O191	O	0.869115	0.153896	0.154146
O192	O	1.369115	0.653896	0.654146
C193	C	0.818170	0.123313	0.118333
C194	C	1.318170	0.623313	0.618333
H195	H	0.851775	0.078785	0.109047
H196	H	1.351775	0.578785	0.609047
H197	H	0.804762	0.147068	0.074798
H198	H	1.304762	0.647068	0.574798
H199	H	0.756780	0.119356	0.142195
H200	H	1.256780	0.619356	0.642195
H201	H	0.402827	0.076794	-0.097249
H202	H	0.902827	0.576794	0.402751
O203	O	0.987453	-0.090517	-0.105717
O204	O	1.487453	0.409483	0.394283
C205	C	1.059196	-0.111512	-0.138362
C206	C	1.559196	0.388488	0.361638
H207	H	1.109256	-0.132349	-0.106997
H208	H	1.609256	0.367651	0.393003
H209	H	1.084039	-0.074622	-0.162693
H210	H	1.584039	0.425378	0.337307
H211	H	1.042306	-0.144543	-0.171791
H212	H	1.542306	0.355457	0.328209
O213	O	0.977620	-0.636983	0.105821
O214	O	1.477620	-0.136983	0.605821
C215	C	0.976952	-0.675929	0.153146
C216	C	1.476952	-0.175929	0.653146
H217	H	0.949890	-0.715914	0.137423
H218	H	1.449890	-0.215914	0.637423
H219	H	0.936875	-0.655134	0.190651
H220	H	1.436875	-0.155134	0.690651
H221	H	1.043548	-0.688231	0.169634
H222	H	1.543548	-0.188231	0.669634
H223	H	0.560110	0.078719	0.097326
H224	H	1.060110	0.578719	0.597326
H225	H	0.987209	-0.095076	0.097304
H226	H	1.487209	0.404924	0.597304
O227	O	1.150762	-0.037147	0.560903
O228	O	1.650762	0.462853	1.060903
C229	C	1.201036	-0.071242	0.520272
C230	C	1.701036	0.428758	1.020272
H231	H	1.166956	-0.071922	0.476139
H232	H	1.666956	0.428078	0.976139
H233	H	1.214230	-0.116720	0.538134
H234	H	1.714230	0.383280	1.038134
H235	H	1.262572	-0.052654	0.513688
H236	H	1.762572	0.447346	1.013688
O237	O	0.985236	-0.207411	0.105795
O238	O	1.485236	0.292589	0.605795
C239	C	0.985887	-0.168431	0.153113
C240	C	1.485887	0.331569	0.653113
H241	H	1.012975	-0.128464	0.137387
H242	H	1.512975	0.371536	0.637387
H243	H	1.025931	-0.189204	0.190628
H244	H	1.525931	0.310796	0.690628
H245	H	0.919282	-0.156105	0.169589
H246	H	1.419282	0.343895	0.669589
H247	H	0.982376	-0.368309	0.150947
H248	H	1.482376	0.131691	0.650947
O249	O	0.980433	-0.480641	0.159432
O250	O	1.480433	0.019359	0.659432
C251	C	0.981090	-0.441660	0.206749
C252	C	1.481090	0.058340	0.706749
H253	H	1.008155	-0.401687	0.191015
H254	H	1.508155	0.098313	0.691015
H255	H	1.021158	-0.462427	0.244255
H256	H	1.521158	0.037573	0.744255
H257	H	0.914490	-0.429346	0.223239
H258	H	1.414490	0.070654	0.723239
H259	H	1.084774	0.007651	0.159006
H260	H	1.584774	0.507651	0.659006
H261	H	0.975685	-0.749344	0.097344
H262	H	1.475685	-0.249344	0.597344
H263	H	0.975736	-0.749399	-0.097233
H264	H	1.475736	-0.249399	0.402767
O265	O	0.977735	-0.637066	-0.105719
O266	O	1.477735	-0.137066	0.394281
C267	C	0.977040	-0.676041	-0.153039
C268	C	1.477040	-0.176041	0.346961
H269	H	1.002620	-0.720741	-0.137310
H270	H	1.502620	-0.220741	0.362690
H271	H	1.017718	-0.662520	-0.190546
H272	H	1.517718	-0.162520	0.309454
H273	H	0.910224	-0.676376	-0.169526
H274	H	1.410224	-0.176376	0.330474
O275	O	1.150757	-0.037003	0.438878
O276	O	1.650757	0.462997	0.938878
C277	C	1.201700	-0.006413	0.403082
C278	C	1.701700	0.493587	0.903082
H279	H	1.168085	0.038110	0.393820
H280	H	1.668085	0.538110	0.893820
H281	H	1.215128	-0.030169	0.359533
H282	H	1.715128	0.469831	0.859533
H283	H	1.263081	-0.002446	0.426946
H284	H	1.763081	0.497554	0.926946
H285	H	0.878150	0.147870	0.728729
H286	H	1.378150	0.647870	1.228729
H287	H	0.980513	-0.476152	-0.150874
H288	H	1.480513	0.023848	0.349126
O289	O	1.093821	0.001623	0.723720
O290	O	1.593821	0.501623	1.223720
C291	C	1.144773	0.032207	0.687924
C292	C	1.644773	0.532207	1.187924
H293	H	1.111166	0.076733	0.678661
H294	H	1.611166	0.576733	1.178661
H295	H	1.158198	0.008450	0.644376
H296	H	1.658198	0.508450	1.144376
H297	H	1.206154	0.036169	0.711790
H298	H	1.706154	0.536169	1.211790
H299	H	0.878099	0.147893	0.271411
H300	H	1.378099	0.647893	0.771411
O301	O	1.093780	0.001518	0.276100
O302	O	1.593780	0.501518	0.776100
C303	C	1.144052	-0.032581	0.235471
C304	C	1.644052	0.467419	0.735471
H305	H	1.109970	-0.033265	0.191339
H306	H	1.609970	0.466735	0.691339
H307	H	1.157249	-0.078058	0.253337
H308	H	1.657249	0.421942	0.753337
H309	H	1.205588	-0.013993	0.228883
H310	H	1.705588	0.486007	0.728883
H311	H	0.985344	-0.202910	-0.097269
H312	H	1.485344	0.297090	0.402731
H313	H	0.821193	0.186551	0.443912
H314	H	1.321193	0.686551	0.943912
O315	O	1.093828	0.001487	0.845759
O316	O	1.593828	0.501487	1.345759
C317	C	1.144120	-0.032617	0.805145
C318	C	1.644120	0.467383	1.305145
H319	H	1.110053	-0.033317	0.761009
H320	H	1.610053	0.466683	1.261009
H321	H	1.157322	-0.078089	0.823025
H322	H	1.657322	0.421911	1.323025
H323	H	1.205652	-0.014024	0.798562
H324	H	1.705652	0.485976	1.298562
O325	O	0.869172	0.153983	0.845829
O326	O	1.369172	0.653983	1.345829
C327	C	0.818886	0.188084	0.805236
C328	C	1.318886	0.688084	1.305236
H329	H	0.852956	0.188777	0.761096
H330	H	1.352956	0.688777	1.261096
H331	H	0.805687	0.233558	0.823138
H332	H	1.305687	0.733558	1.323138
H333	H	0.757352	0.169493	0.798650
H334	H	1.257352	0.669493	1.298650
H335	H	0.821193	0.186542	0.556234
H336	H	1.321193	0.686542	1.056234
