data_functionalizedCrystal
_audit_creation_method	'MofGen! by Chris Wilmer'
_symmetry_space_group_name_H-M	'P1'
_symmetry_Int_Tables_number	1
_symmetry_cell_setting	triclinic
loop_
_symmetry_equiv_pos_as_xyz
  x,y,z
_cell_length_a	14.395555
_cell_length_b	14.560438
_cell_length_c	14.560438
_cell_angle_alpha	90.000844
_cell_angle_beta	60.002332
_cell_angle_gamma	59.999763
loop_
_atom_site_label
_atom_site_type_symbol
_atom_site_fract_x
_atom_site_fract_y
_atom_site_fract_z
Zr1	Zr	1.016805	-0.120546	0.884782
O2	O	1.210596	-0.267194	0.738141
O3	O	0.823011	-0.075588	0.929732
O4	O	1.016803	-0.267192	0.929736
O5	O	1.016806	0.075549	0.738137
O6	O	1.016806	-0.267193	1.080875
O7	O	1.016803	-0.075590	0.738136
O8	O	0.670146	0.075551	1.080866
O9	O	1.363465	-0.267196	0.738146
O10	O	0.902724	-0.056418	1.061700
O11	O	0.902724	0.056376	0.948907
O12	O	1.130890	-0.169213	0.948913
O13	O	1.130890	-0.056419	0.836121
Zr14	Zr	1.016813	0.120501	1.125832
Zr15	Zr	1.016809	-0.120548	1.125830
Zr16	Zr	1.016809	0.120502	0.884784
Zr17	Zr	1.260614	-0.120549	0.884790
Zr18	Zr	0.773004	0.120504	1.125824
O19	O	1.210607	0.075543	1.080882
O20	O	1.210602	-0.267196	1.080880
O21	O	1.210602	0.075546	0.738143
O22	O	0.823022	0.267149	1.272473
O23	O	0.823016	-0.075591	1.272471
O24	O	0.823016	0.267151	0.929733
O25	O	1.016812	-0.075594	1.272477
O26	O	1.016815	0.267147	1.080877
O27	O	1.016812	0.267148	0.929739
O28	O	1.016815	0.075545	1.272478
O29	O	1.363469	-0.267197	0.929747
O30	O	0.670150	0.267152	1.080867
O31	O	0.670153	0.267151	1.272468
O32	O	0.670150	0.075550	1.272467
O33	O	1.363469	-0.075595	0.738147
O34	O	1.363472	-0.075596	0.929748
O35	O	0.902728	0.169168	1.061701
O36	O	0.902728	0.056374	1.174493
O37	O	1.130894	-0.056421	1.061706
O38	O	1.130894	0.056373	0.948914
C39	C	0.711841	-0.000018	1.005298
C40	C	0.608337	-0.000016	1.005295
C41	C	1.016804	-0.000020	0.703793
C42	C	1.016802	-0.000020	0.601461
C43	C	1.016814	0.301492	1.005309
C44	C	1.016816	0.403823	1.005309
C45	C	0.547745	0.061487	0.943799
C46	C	0.561999	-0.044574	0.899228
C47	C	0.409688	0.106013	1.049839
C48	C	0.624018	-0.106140	0.960662
C49	C	0.471643	0.044523	1.111331
C50	C	0.485944	-0.061602	1.066787
C51	C	1.321777	-0.000027	1.005316
C52	C	1.425281	-0.000029	1.005319
C53	C	1.016804	-0.301537	1.005305
C54	C	1.016802	-0.403868	1.005305
C55	C	1.135914	0.393023	0.946437
C56	C	1.135908	0.489178	0.946432
C57	C	0.897695	0.606929	1.064178
C58	C	0.897703	0.510775	1.064177
C59	C	0.897704	0.058854	0.612256
C60	C	0.897710	0.058855	0.516101
C61	C	1.135923	-0.058901	0.398360
C62	C	1.135916	-0.058895	0.494514
C63	C	1.016814	-0.000025	1.306821
C64	C	1.016816	-0.000026	1.409153
C65	C	0.711846	-0.000020	1.306812
C66	C	0.608344	-0.000019	1.409140
C67	C	0.711846	0.301496	1.005299
C68	C	0.608344	0.403829	1.005297
C69	C	0.711851	0.301494	1.306814
C70	C	0.608351	0.403826	1.409143
C71	C	1.321767	-0.301539	0.703800
C72	C	1.425267	-0.403871	0.601471
C73	C	1.321772	-0.000025	0.703802
C74	C	1.425274	-0.000026	0.601473
C75	C	1.321772	-0.301542	1.005314
C76	C	1.425274	-0.403874	1.005317
C77	C	0.559714	-0.058893	1.398340
C78	C	0.462472	-0.058896	1.494492
C79	C	0.462493	0.058857	1.612241
C80	C	0.559741	0.058852	1.516090
C81	C	0.559719	0.510782	1.064172
C82	C	0.462477	0.606930	1.064156
C83	C	0.462491	0.489160	0.946390
C84	C	0.559738	0.393014	0.946400
C85	C	0.559724	0.393028	1.516093
C86	C	0.462484	0.489183	1.612238
C87	C	0.462501	0.606933	1.494468
C88	C	0.559747	0.510778	1.398325
H89	H	0.599182	-0.082257	0.809563
H90	H	0.422914	0.694022	1.485674
H91	H	0.800717	0.694019	1.112109
N92	N	0.410031	0.722282	1.127668
H93	H	0.312408	0.764799	1.186908
H94	H	0.427052	0.764709	1.073595
N95	N	0.745295	-0.224983	0.910622
H96	H	0.722529	-0.271573	0.956693
H97	H	0.814895	-0.224152	0.910887
N98	N	1.264387	-0.122417	0.283009
H99	H	1.339835	-0.159711	0.290764
H100	H	1.269582	-0.068361	0.240544
H101	H	0.800713	0.519577	1.112117
N102	N	0.769239	0.122351	0.727606
H103	H	0.693793	0.159648	0.719850
H104	H	0.764044	0.181546	0.770068
N105	N	0.769255	0.122357	0.527743
H106	H	0.693802	0.159653	0.610085
H107	H	0.764072	0.068293	0.490410
N108	N	0.612166	0.522435	1.127677
H109	H	0.595237	0.485173	1.186931
H110	H	0.566585	0.604801	1.164899
H111	H	0.422907	0.106790	1.699329
H112	H	0.599343	0.519579	1.311235
H113	H	1.232889	0.480375	0.898490
H114	H	0.459001	-0.113691	1.118790
H115	H	0.574971	0.113421	0.891724
N116	N	0.612140	-0.122388	1.282989
H117	H	0.566575	-0.159686	1.290741
H118	H	0.709764	-0.181582	1.240528
H119	H	0.422902	0.480369	0.898440
H120	H	0.599339	0.106794	1.524893
H121	H	0.599332	0.305922	0.898451
H122	H	0.599298	0.305946	1.524906
N123	N	1.264382	0.277671	0.882928
H124	H	1.246319	0.218394	0.891859
H125	H	1.316396	0.268769	0.913842
H126	H	1.232905	-0.106834	0.485715
H127	H	0.422896	0.480384	1.699320
H128	H	0.318082	0.195685	1.087500
N129	N	0.410033	-0.122403	1.482834
H130	H	0.369676	-0.091515	1.440365
H131	H	0.341108	-0.113460	1.560006
N132	N	0.422418	0.094460	1.230078
H133	H	0.342413	0.174600	1.263662
H134	H	0.493610	0.093328	1.229150
