data_functionalizedCrystal
_audit_creation_method	'MofGen! by Chris Wilmer'
_symmetry_space_group_name_H-M	'P1'
_symmetry_Int_Tables_number	1
_symmetry_cell_setting	triclinic
loop_
_symmetry_equiv_pos_as_xyz
  x,y,z
_cell_length_a	34.571875
_cell_length_b	34.571051
_cell_length_c	34.567439
_cell_angle_alpha	60.004367
_cell_angle_beta	60.008842
_cell_angle_gamma	59.994195
loop_
_atom_site_label
_atom_site_type_symbol
_atom_site_fract_x
_atom_site_fract_y
_atom_site_fract_z
O1	O	0.053721	-0.565181	0.472559
O2	O	0.020283	-0.440038	0.380761
O3	O	0.099534	-0.519209	0.380676
O4	O	-0.025530	-0.486010	0.472643
O5	O	0.125831	-0.492917	0.406885
O6	O	0.046580	-0.413746	0.406969
O7	O	0.080018	-0.538889	0.498767
Zn8	Zn	0.067475	-0.472143	0.457030
Zn9	Zn	0.032827	-0.506784	0.422498
O10	O	0.000767	-0.459718	0.498852
N11	N	0.091122	-0.448505	0.480598
N12	N	0.009184	-0.530426	0.398930
C13	C	0.124402	-0.415465	0.717633
C14	C	0.328327	-0.415388	0.513477
C15	C	0.124221	-0.415437	0.513630
C16	C	0.124201	-0.211364	0.513624
C17	C	0.157075	-0.309853	0.546423
C18	C	0.157084	-0.382601	0.546423
C19	C	0.175289	-0.364414	0.564591
C20	C	0.254624	-0.350722	0.522790
C21	C	0.304220	-0.367243	0.506229
C22	C	0.304249	-0.447494	0.536832
C23	C	0.254655	-0.430972	0.553394
C24	C	0.169014	-0.285043	0.497667
C25	C	0.152454	-0.235444	0.481153
C26	C	0.112020	-0.235469	0.562154
C27	C	0.128580	-0.285068	0.578668
C28	C	0.108321	-0.370634	0.558439
C29	C	0.091776	-0.387168	0.541918
C30	C	0.172754	-0.427637	0.501375
C31	C	0.189301	-0.411103	0.517891
C32	C	0.108399	-0.370649	0.643978
C33	C	0.091911	-0.387197	0.693575
C34	C	0.172928	-0.427676	0.693511
C35	C	0.189415	-0.411128	0.643912
C36	C	0.157149	-0.382613	0.619147
C37	C	0.229844	-0.382585	0.546371
C38	C	0.105624	-0.433333	0.772186
C39	C	0.382878	-0.432925	0.495007
C40	C	0.105380	-0.433313	0.495792
C41	C	0.105683	-0.156808	0.496094
C42	C	-0.023527	-0.563458	0.161535
C43	C	-0.023851	-0.767445	0.365663
C44	C	-0.023821	-0.563448	0.365756
C45	C	-0.227785	-0.563229	0.365355
C46	C	-0.129302	-0.596153	0.332678
C47	C	-0.056593	-0.596234	0.332823
C48	C	-0.074746	-0.614396	0.314578
C49	C	-0.088477	-0.693710	0.356299
C50	C	-0.071982	-0.743310	0.372851
C51	C	0.008266	-0.743392	0.342376
C52	C	-0.008230	-0.693794	0.325823
C53	C	-0.154162	-0.608103	0.381422
C54	C	-0.203757	-0.591517	0.397874
C55	C	-0.203630	-0.551037	0.316836
C56	C	-0.154034	-0.567623	0.300384
C57	C	-0.068543	-0.547475	0.320829
C58	C	-0.052041	-0.530969	0.337421
C59	C	-0.011639	-0.611977	0.377990
C60	C	-0.028141	-0.628485	0.361404
C61	C	-0.068417	-0.547482	0.235199
C62	C	-0.051814	-0.530977	0.185602
C63	C	-0.011349	-0.611990	0.185649
C64	C	-0.027951	-0.628493	0.235248
C65	C	-0.056486	-0.596238	0.260022
C66	C	-0.056602	-0.668955	0.332787
C67	C	-0.005599	-0.544662	0.106983
C68	C	-0.006342	-0.821999	0.384121
C69	C	-0.005979	-0.544649	0.383673
C70	C	-0.282336	-0.544682	0.382817
N71	N	0.427518	-0.448428	0.480350
O72	O	0.589573	-0.456297	0.363634
O73	O	0.589761	-0.548399	0.488643
O74	O	0.589681	-0.548188	0.409364
O75	O	0.589654	-0.456508	0.442913
O76	O	0.510890	-0.521988	0.435708
O77	O	0.510970	-0.522199	0.514987
O78	O	0.510782	-0.430098	0.389978
Zn79	Zn	0.498366	-0.471989	0.456665
Zn80	Zn	0.602177	-0.506508	0.421956
O81	O	0.510862	-0.430308	0.469257
N82	N	0.673025	-0.530068	0.398267
N83	N	0.091092	-0.112167	0.480590
O84	O	-0.025539	0.049976	0.472612
O85	O	0.099472	0.050011	0.380491
O86	O	0.020155	0.049979	0.380751
O87	O	0.053778	0.050009	0.472352
O88	O	0.046458	-0.028818	0.407008
O89	O	0.125775	-0.028785	0.406748
O90	O	0.000764	-0.028821	0.498869
Zn91	Zn	0.067445	-0.041314	0.456977
Zn92	Zn	0.032791	0.062504	0.422382
O93	O	0.080081	-0.028788	0.498609
N94	N	0.009138	0.133358	0.398771
N95	N	0.091421	-0.448552	0.816827
O96	O	0.083469	-0.565164	0.978960
O97	O	-0.008614	-0.440110	0.979002
O98	O	-0.008399	-0.519410	0.978978
O99	O	0.083253	-0.485863	0.978984
O100	O	0.017837	-0.493128	0.900185
O101	O	0.017621	-0.413827	0.900208
O102	O	0.109704	-0.538881	0.900167
Zn103	Zn	0.067828	-0.472181	0.887677
Zn104	Zn	0.033262	-0.506810	0.991491
O105	O	0.109489	-0.459581	0.900191
N106	N	0.009668	-0.530444	1.062341
C107	C	0.030297	-0.411123	0.381218
C108	C	0.128439	-0.509167	0.381113
C109	C	0.070004	-0.567805	0.498310
C110	C	-0.028138	-0.469761	0.498415
C111	C	0.550388	-0.547982	0.517564
C112	C	0.550290	-0.547721	0.419387
C113	C	0.550153	-0.430514	0.361058
C114	C	0.550253	-0.430775	0.459234
C115	C	0.128339	0.010714	0.380902
C116	C	0.030148	0.010577	0.381256
C117	C	-0.028136	0.010574	0.498426
C118	C	0.070089	0.010613	0.498104
C119	C	-0.008178	-0.411214	0.939610
C120	C	-0.007906	-0.509413	0.939566
C121	C	0.109268	-0.567777	0.939558
C122	C	0.109002	-0.469572	0.939586
H123	H	0.052212	-0.377448	0.713786
O124	O	-0.042727	-0.368408	0.939687
C125	C	-0.121724	-0.326100	0.980539
C126	C	-0.082643	-0.374609	0.980507
H127	H	-0.154002	-0.331096	1.013544
H128	H	-0.132106	-0.309077	0.947589
H129	H	-0.107980	-0.302210	0.980522
H130	H	-0.096353	-0.398536	0.980541
H131	H	-0.072266	-0.391594	1.013454
O132	O	0.171288	-0.517680	0.346674
C133	C	0.228308	-0.565575	0.296665
C134	C	0.179779	-0.555993	0.335676
H135	H	0.235185	-0.596545	0.287754
H136	H	0.257258	-0.574599	0.309693
H137	H	0.228393	-0.532648	0.263641
H138	H	0.179648	-0.588903	0.368713
H139	H	0.150851	-0.546949	0.322609
O140	O	0.078726	0.010531	0.532456
C141	C	0.126868	-0.030272	0.582216
C142	C	0.117132	-0.030240	0.543317
H143	H	0.157926	-0.063226	0.591002
H144	H	0.094047	-0.030313	0.615339
H145	H	0.135860	0.002725	0.569076
H146	H	0.108152	-0.063231	0.556412
H147	H	0.149961	-0.030174	0.510201
O148	O	0.171121	0.010925	0.346372
C149	C	0.255469	-0.029504	0.323168
C150	C	0.207050	-0.029794	0.362314
H151	H	0.284530	-0.062427	0.336039
H152	H	0.262253	0.003529	0.314320
H153	H	0.255463	-0.029414	0.290146
H154	H	0.207021	-0.029902	0.395360
H155	H	0.200285	-0.062825	0.371121
O156	O	0.143343	-0.461062	0.939664
C157	C	0.195069	-0.483869	0.980452
C158	C	0.156172	-0.493552	0.980429
H159	H	0.205460	-0.510138	1.013403
H160	H	0.181191	-0.446236	0.980493
H161	H	0.227379	-0.488086	0.947454
H162	H	0.123849	-0.489362	1.013421
H163	H	0.170088	-0.531181	0.980364
O164	O	0.021494	0.010534	0.346985
C165	C	-0.034819	0.010505	0.325360
C166	C	-0.025081	0.010553	0.364214
H167	H	-0.072477	0.010530	0.339272
H168	H	-0.008615	-0.022483	0.315016
H169	H	-0.030579	0.043470	0.293012
H170	H	-0.029327	-0.022390	0.396587
H171	H	-0.051283	0.043562	0.374518
H172	H	-0.036687	-0.516580	0.939532
H173	H	0.138179	-0.603691	0.939539
H174	H	0.077150	-0.603753	0.527142
O175	O	0.077036	-0.343019	0.619941
C176	C	0.012819	-0.336677	0.604841
C177	C	0.048315	-0.368019	0.632084
H178	H	-0.010417	-0.356873	0.614657
H179	H	0.032954	-0.326916	0.565123
H180	H	-0.010378	-0.303018	0.614602
H181	H	0.071522	-0.401697	0.622364
H182	H	0.028152	-0.377741	0.671796
H183	H	-0.064060	-0.462687	0.527292
H184	H	0.023152	-0.375173	0.352387
O185	O	0.550470	-0.582433	0.560414
C186	C	0.550527	-0.604452	0.638450
C187	C	0.550445	-0.565398	0.589940
H188	H	0.550496	-0.590691	0.662338
H189	H	0.583528	-0.636749	0.633471
H190	H	0.517580	-0.614821	0.655464
H191	H	0.583369	-0.554989	0.572900
H192	H	0.517422	-0.533127	0.594950
H193	H	0.199204	-0.450885	0.713670
O194	O	0.550219	-0.582039	0.410832
C195	C	0.509401	-0.604671	0.389993
C196	C	0.509418	-0.565770	0.399679
H197	H	0.476422	-0.591528	0.380964
H198	H	0.509425	-0.637775	0.422840
H199	H	0.542369	-0.613499	0.358968
H200	H	0.476456	-0.556901	0.430688
H201	H	0.509419	-0.532690	0.366809
O202	O	0.236785	-0.422836	0.619845
C203	C	0.311072	-0.485701	0.604595
C204	C	0.257436	-0.472509	0.631888
H205	H	0.327783	-0.525861	0.614314
H206	H	0.327831	-0.472046	0.614340
H207	H	0.317304	-0.468955	0.564895
H208	H	0.251161	-0.489250	0.671594
H209	H	0.240703	-0.486155	0.622103
O210	O	0.077070	-0.342889	0.586101
C211	C	0.048701	-0.267382	0.594941
C212	C	0.084127	-0.298758	0.563572
H213	H	0.054388	-0.231692	0.576734
H214	H	0.054450	-0.285526	0.630603
H215	H	0.011012	-0.261693	0.600697
H216	H	0.121830	-0.304457	0.557778
H217	H	0.078337	-0.280600	0.527930
H218	H	-0.134026	-0.631339	0.407719
O219	O	0.550020	-0.396030	0.318232
C220	C	0.509083	-0.345937	0.261252
C221	C	0.509181	-0.384999	0.309755
H222	H	0.476064	-0.336999	0.254387
H223	H	0.542016	-0.358930	0.232273
H224	H	0.509083	-0.312936	0.261204
H225	H	0.509165	-0.418012	0.309849
H226	H	0.476251	-0.371967	0.338712
O227	O	0.044403	-0.375605	0.553671
C228	C	-0.029840	-0.379403	0.616594
C229	C	0.023803	-0.392536	0.603350
H230	H	-0.046513	-0.393077	0.656760
H231	H	-0.036156	-0.396132	0.599921
H232	H	-0.046571	-0.339242	0.602902
H233	H	0.040569	-0.432689	0.617039
H234	H	0.030085	-0.375773	0.620016
H235	H	0.550247	-0.401977	0.466412
O236	O	-0.071000	0.010592	0.532867
C237	C	-0.149043	0.010553	0.554936
C238	C	-0.100524	0.010539	0.515888
H239	H	-0.172923	0.010501	0.541227
H240	H	-0.166082	0.043543	0.565255
H241	H	-0.144032	-0.022410	0.587251
H242	H	-0.105494	0.043480	0.483548
H243	H	-0.083502	-0.022472	0.505609
H244	H	0.229008	-0.420842	0.508101
O245	O	0.204076	-0.455251	0.473592
C246	C	0.268223	-0.461556	0.400579
C247	C	0.232765	-0.430233	0.431996
H248	H	0.291434	-0.441345	0.366946
H249	H	0.248058	-0.471314	0.390787
H250	H	0.291451	-0.495216	0.420768
H251	H	0.209528	-0.396553	0.411836
H252	H	0.252959	-0.420513	0.441790
O253	O	0.230655	-0.461987	0.576272
C254	C	0.235920	-0.543333	0.604899
C255	C	0.263158	-0.508259	0.578972
H256	H	0.262187	-0.580753	0.607099
H257	H	0.212689	-0.533415	0.584642
H258	H	0.212715	-0.541798	0.642184
H259	H	0.286389	-0.509776	0.541687
H260	H	0.286360	-0.518189	0.599265
H261	H	0.324395	-0.341295	0.487026
O262	O	0.328377	-0.494482	0.543564
C263	C	0.384385	-0.554478	0.506999
C264	C	0.357082	-0.501254	0.499306
H265	H	0.407607	-0.559969	0.471223
H266	H	0.358177	-0.574438	0.526671
H267	H	0.407609	-0.568428	0.528804
H268	H	0.333857	-0.487261	0.477490
H269	H	0.383315	-0.481326	0.479655
H270	H	0.192214	-0.305222	0.471410
O271	O	0.230577	-0.303701	0.515886
C272	C	0.215325	-0.224832	0.459171
C273	C	0.242598	-0.278069	0.466924
H274	H	0.225027	-0.204095	0.419587
H275	H	0.225104	-0.212484	0.477111
H276	H	0.175623	-0.218509	0.475082
H277	H	0.282306	-0.284432	0.451012
H278	H	0.232780	-0.290391	0.448995
O279	O	0.164110	-0.211413	0.433773
C280	C	0.205935	-0.216619	0.355172
C281	C	0.192780	-0.243892	0.408815
H282	H	0.229109	-0.242866	0.334977
H283	H	0.226150	-0.193403	0.345368
H284	H	0.172253	-0.193392	0.345456
H285	H	0.226437	-0.267145	0.418569
H286	H	0.172547	-0.267078	0.418589
H287	H	-0.061536	-0.491273	0.165398
O288	O	0.084332	-0.211463	0.593539
C289	C	0.046012	-0.216721	0.675624
C290	C	0.077363	-0.243965	0.640133
H291	H	0.040376	-0.242987	0.713304
H292	H	0.010299	-0.193524	0.669979
H293	H	0.064182	-0.193477	0.669861
H294	H	0.059235	-0.267234	0.645875
H295	H	0.113074	-0.267132	0.645788
H296	H	-0.091654	-0.521212	0.255368
O297	O	0.016307	-0.643370	0.161640
C298	C	0.022634	-0.707507	0.146425
C299	C	-0.008733	-0.672000	0.173652
H300	H	0.002399	-0.730656	0.156120
H301	H	0.056251	-0.730793	0.156253
H302	H	0.032465	-0.687330	0.106715
H303	H	-0.018600	-0.692138	0.213369
H304	H	-0.042327	-0.648715	0.163785
O305	O	-0.096195	-0.516082	0.293091
C306	C	-0.134507	-0.433988	0.254581
C307	C	-0.103197	-0.469489	0.286009
H308	H	-0.140170	-0.396310	0.248837
H309	H	-0.170211	-0.439627	0.272686
H310	H	-0.116290	-0.439749	0.218922
H311	H	-0.121373	-0.463749	0.321673
H312	H	-0.067495	-0.463841	0.267866
H313	H	-0.018232	-0.668197	0.255455
O314	O	-0.063619	-0.483620	0.325834
C315	C	-0.056075	-0.422289	0.333388
C316	C	-0.042936	-0.475923	0.346555
H317	H	-0.039350	-0.416049	0.350127
H318	H	-0.096230	-0.405509	0.347028
H319	H	-0.042343	-0.405602	0.293228
H320	H	-0.056636	-0.492651	0.386710
H321	H	-0.002779	-0.492668	0.332881
O322	O	0.015980	-0.643371	0.405762
C323	C	0.054337	-0.725467	0.444223
C324	C	0.023047	-0.689963	0.412776
H325	H	0.060069	-0.763144	0.449895
H326	H	0.036127	-0.719770	0.479914
H327	H	0.090010	-0.719765	0.426111
H328	H	-0.012631	-0.695644	0.430846
H329	H	0.041294	-0.695668	0.377086
H330	H	-0.018411	-0.668189	0.371171
O331	O	0.022788	-0.669796	0.302935
C332	C	0.091583	-0.654677	0.236158
C333	C	0.056495	-0.681891	0.262038
H334	H	0.118837	-0.664438	0.203082
H335	H	0.110391	-0.664452	0.260670
H336	H	0.071471	-0.614963	0.225546
H337	H	0.076570	-0.721611	0.272653
H338	H	0.037686	-0.672076	0.237510
O339	O	0.055253	-0.767577	0.335589
C340	C	0.125724	-0.823612	0.300918
C341	C	0.072513	-0.796260	0.308579
H342	H	0.139697	-0.846801	0.279072
H343	H	0.131215	-0.846862	0.336694
H344	H	0.145662	-0.797390	0.281289
H345	H	0.052541	-0.822448	0.328192
H346	H	0.067058	-0.773003	0.272788
H347	H	-0.097938	-0.763465	0.391989
O348	O	-0.135476	-0.669657	0.363069
C349	C	-0.213328	-0.674814	0.395036
C350	C	-0.160114	-0.702114	0.387401
H351	H	-0.233264	-0.701043	0.414718
H352	H	-0.218808	-0.651618	0.359250
H353	H	-0.227310	-0.651563	0.416823
H354	H	-0.146096	-0.725390	0.365631
H355	H	-0.154665	-0.725279	0.423203
H356	H	-0.223999	-0.601245	0.437568
O357	O	-0.227608	-0.523381	0.285424
C358	C	-0.242715	-0.517046	0.221209
C359	C	-0.215522	-0.548414	0.256749
H360	H	-0.232961	-0.537277	0.198023
H361	H	-0.232917	-0.483418	0.197965
H362	H	-0.282430	-0.507231	0.241356
H363	H	-0.175802	-0.558265	0.236641
H364	H	-0.225360	-0.582020	0.279992
H365	H	0.118851	-0.305270	0.618371
H366	H	-0.133793	-0.557888	0.260690
