data_functionalizedCrystal
_audit_creation_method	'MofGen! by Chris Wilmer'
_symmetry_space_group_name_H-M	'P1'
_symmetry_Int_Tables_number	1
_symmetry_cell_setting	triclinic
loop_
_symmetry_equiv_pos_as_xyz
  x,y,z
_cell_length_a	15.500227
_cell_length_b	15.944551
_cell_length_c	15.944499
_cell_angle_alpha	96.511826
_cell_angle_beta	87.172703
_cell_angle_gamma	87.159793
loop_
_atom_site_label
_atom_site_type_symbol
_atom_site_fract_x
_atom_site_fract_y
_atom_site_fract_z
O1	O	0.071854	-1.118407	0.104440
O2	O	0.071876	-0.873856	0.117796
O3	O	0.071858	-1.002832	-0.011159
O4	O	0.071873	-0.989431	0.233395
O5	O	-0.072030	-0.995005	-0.003365
O6	O	-0.072012	-0.866029	0.125590
O7	O	-0.072033	-1.110580	0.112235
Cu8	Cu	-0.085160	-0.987590	0.119624
Cu9	Cu	0.085003	-0.996846	0.110406
O10	O	-0.072015	-0.981604	0.241190
C11	C	-0.000065	-0.838649	0.121138
C12	C	-0.000057	-0.745404	0.119475
N13	N	-0.204844	-0.981086	0.126107
C14	C	-0.250129	-1.035757	0.071485
C15	C	-0.340701	-1.030846	0.076395
C16	C	-0.385987	-0.971268	0.135933
C17	C	-0.340696	-0.916591	0.190558
C18	C	-0.250126	-0.921499	0.185643
C19	C	-0.659452	-0.953588	0.153626
C20	C	-0.750028	-0.948686	0.158539
C21	C	-0.750027	-1.062940	0.044375
C22	C	-0.659454	-1.067846	0.039468
C23	C	-0.614172	-1.013167	0.094090
C24	C	-0.478566	-0.966248	0.140956
C25	C	-0.521594	-1.018183	0.089063
C26	C	-0.000086	-0.998370	-0.038557
C27	C	-0.000085	-0.996725	-0.131805
N28	N	0.204687	-1.003357	0.103917
C29	C	-0.000090	-1.145787	0.108892
C30	C	-0.000093	-1.239033	0.110555
C31	C	-0.000079	-0.530561	0.035570
C32	C	0.070868	-0.473393	0.070690
C33	C	-0.000067	-0.574678	0.116469
C34	C	-0.070994	-0.465699	0.078394
C35	C	-0.000081	-0.409765	0.113559
C36	C	0.070938	-0.518741	0.151608
C37	C	-0.070988	-0.511050	0.159304
C38	C	-0.000024	-0.453900	0.194482
C39	C	-0.000059	-0.669680	0.118143
C40	C	-0.000084	-0.314764	0.111890
C41	C	-0.000070	-0.986067	0.268587
C42	C	-0.000064	-0.987712	0.361835
C43	C	-0.000066	-0.912779	0.653371
C44	C	-0.071016	-0.947872	0.596186
C45	C	-0.000080	-0.993687	0.697473
C46	C	0.070846	-0.955610	0.588515
C47	C	-0.000071	-0.990747	0.532563
C48	C	-0.071088	-1.028799	0.641518
C49	C	0.070837	-1.036529	0.633850
C50	C	-0.000130	-1.071679	0.576683
C51	C	-0.000086	-0.995378	0.792473
C52	C	-0.000071	-0.989062	0.437564
H53	H	-0.377571	-1.075362	0.031917
N54	N	-0.150454	-0.898221	0.573859
H55	H	-0.185993	-0.936055	0.535712
H56	H	-0.186176	-0.876344	0.627252
N57	N	-0.150643	-1.069739	0.672288
H58	H	-0.186649	-1.087174	0.622814
H59	H	-0.132604	-1.121243	0.700028
H60	H	-0.000178	-1.138881	0.543503
N61	N	-0.610610	-0.894629	0.212544
H62	H	-0.573044	-0.859480	0.178383
H63	H	-0.653092	-0.856198	0.251000
N64	N	-0.150447	-0.533383	0.208883
H65	H	-0.149562	-0.596613	0.210099
H66	H	-0.150973	-0.504275	0.268576
N67	N	-0.150442	-0.434774	0.037362
H68	H	-0.150378	-0.462955	-0.022660
H69	H	-0.203980	-0.449173	0.070275
H70	H	0.000005	-0.563911	-0.031574
H71	H	-0.000130	-0.845631	0.686706
N72	N	0.150300	-0.914592	0.557623
H73	H	0.185846	-0.956284	0.515633
H74	H	0.132137	-0.863394	0.529465
N75	N	0.000036	-0.409954	0.283499
H76	H	-0.000473	-0.346786	0.281922
H77	H	-0.053028	-0.424361	0.317132
N78	N	0.150280	-1.086150	0.656194
H79	H	0.203848	-1.058448	0.637000
H80	H	0.149307	-1.087364	0.719426
N81	N	-0.610610	-1.132112	-0.024741
H82	H	-0.573036	-1.102066	-0.063993
H83	H	-0.573078	-1.171305	0.005423
N84	N	0.150482	-0.549519	0.192585
H85	H	0.132498	-0.577245	0.244110
H86	H	0.185730	-0.591853	0.150997
H87	H	-0.213263	-1.084275	0.023006
H88	H	-0.786904	-1.107457	-0.000097
H89	H	-0.213256	-0.876979	0.230121
N90	N	-0.798873	-0.884414	0.222750
H91	H	-0.863120	-0.889606	0.217575
H92	H	-0.783030	-0.894954	0.281490
H93	H	-0.484719	-1.066689	0.040584
N94	N	-0.389536	-0.852325	0.254770
H95	H	-0.453784	-0.857512	0.249598
H96	H	-0.373691	-0.862872	0.313507
N97	N	-0.527422	-0.902002	0.205176
H98	H	-0.511653	-0.912523	0.263944
H99	H	-0.511659	-0.843269	0.194544
N100	N	0.150315	-0.451080	0.021070
H101	H	0.150261	-0.479248	-0.038947
H102	H	0.149963	-0.387748	0.020849
