data_functionalizedCrystal
_audit_creation_method	'MofGen! by Chris Wilmer'
_symmetry_space_group_name_H-M	'P1'
_symmetry_Int_Tables_number	1
_symmetry_cell_setting	triclinic
loop_
_symmetry_equiv_pos_as_xyz
  x,y,z
_cell_length_a	16.956995
_cell_length_b	14.853559
_cell_length_c	15.455313
_cell_angle_alpha	92.670929
_cell_angle_beta	87.515363
_cell_angle_gamma	79.842963
loop_
_atom_site_label
_atom_site_type_symbol
_atom_site_fract_x
_atom_site_fract_y
_atom_site_fract_z
O1	O	1.061571	0.033155	-0.072189
O2	O	1.561571	0.533155	0.427811
O3	O	0.829447	0.064803	-0.072177
O4	O	1.329447	0.564803	0.427823
O5	O	0.951713	-0.082723	-0.072183
O6	O	1.451713	0.417277	0.427817
O7	O	0.939305	0.180680	-0.072184
O8	O	1.439305	0.680680	0.427816
O9	O	0.944721	-0.074319	0.072080
O10	O	1.444721	0.425681	0.572080
O11	O	0.822455	0.073206	0.072086
O12	O	1.322455	0.573206	0.572086
O13	O	1.054579	0.041558	0.072073
O14	O	1.554579	0.541558	0.572073
Cu15	Cu	0.937879	0.058149	0.085252
Cu16	Cu	1.437879	0.558149	0.585252
Cu17	Cu	0.946147	0.048211	-0.085355
Cu18	Cu	1.446147	0.548211	0.414645
O19	O	0.932313	0.189083	0.072079
O20	O	1.432313	0.689083	0.572079
C21	C	0.796245	0.070625	-0.000044
C22	C	1.296245	0.570625	0.499956
C23	C	0.707729	0.075443	-0.000040
C24	C	1.207729	0.575443	0.499960
C25	C	0.208470	0.111480	-0.000072
C26	C	0.708470	0.611480	0.499928
C27	C	0.291640	0.106947	-0.000071
C28	C	0.791640	0.606947	0.499929
C29	C	0.342636	0.021850	-0.000064
C30	C	0.842636	0.521850	0.499936
C31	C	0.310458	-0.058718	-0.000067
C32	C	0.810458	0.441282	0.499933
C33	C	0.227290	-0.054184	-0.000074
C34	C	0.727290	0.445816	0.499926
C35	C	0.592383	-0.000592	-0.000049
C36	C	1.092383	0.499408	0.499951
C37	C	0.675557	-0.005120	-0.000039
C38	C	1.175557	0.494880	0.499961
C39	C	0.656733	0.160546	-0.000045
C40	C	1.156733	0.660546	0.499955
C41	C	0.573563	0.165072	-0.000047
C42	C	1.073563	0.665072	0.499953
C43	C	0.541393	0.084504	-0.000054
C44	C	1.041393	0.584504	0.499946
N45	N	0.427649	0.017214	-0.000061
N46	N	0.927649	0.517214	0.499939
N47	N	0.456381	0.089140	-0.000064
N48	N	0.956381	0.589140	0.499936
C49	C	0.947656	-0.112067	-0.000053
C50	C	1.447656	0.387933	0.499947
C51	C	0.945975	-0.212024	-0.000058
C52	C	1.445975	0.287976	0.499942
C53	C	0.942655	-0.639238	-0.078695
C54	C	1.442655	-0.139238	0.421305
C55	C	0.935032	-0.630071	0.078586
C56	C	1.435032	-0.130071	0.578586
C57	C	0.936618	-0.536158	0.078586
C58	C	1.436618	-0.036158	0.578586
C59	C	0.941221	-0.493781	-0.000055
C60	C	1.441221	0.006219	0.499945
C61	C	0.944239	-0.545316	-0.078697
C62	C	1.444239	-0.045316	0.421303
C63	C	0.933593	-0.484614	0.157227
C64	C	1.433593	0.015386	0.657227
C65	C	0.935178	-0.390695	0.157230
C66	C	1.435178	0.109305	0.657230
C67	C	0.939787	-0.348317	0.078588
C68	C	1.439787	0.151683	0.578588
C69	C	0.942805	-0.399859	-0.000057
C70	C	1.442805	0.100141	0.499943
C71	C	0.947409	-0.357481	-0.078698
C72	C	1.447409	0.142519	0.421302
C73	C	0.950433	-0.409023	-0.157344
C74	C	1.450433	0.090977	0.342656
C75	C	0.948848	-0.502939	-0.157339
C76	C	1.448848	-0.002939	0.342661
C77	C	0.941372	-0.254401	0.078583
C78	C	1.441372	0.245599	0.578583
C79	C	0.948992	-0.263559	-0.078699
C80	C	1.448992	0.236441	0.421301
C81	C	1.087781	0.035736	-0.000062
C82	C	1.587781	0.535736	0.499938
C83	C	1.176297	0.030918	-0.000072
C84	C	1.676297	0.530918	0.499928
C85	C	0.936370	0.218428	-0.000053
C86	C	1.436370	0.718428	0.499947
C87	C	0.938051	0.318384	-0.000054
C88	C	1.438051	0.818384	0.499946
N89	N	0.932069	0.065138	0.205247
N90	N	1.432069	0.565138	0.705247
N91	N	0.951963	0.041215	-0.205351
N92	N	1.451963	0.541215	0.294649
C93	C	0.984030	0.002485	0.250639
C94	C	1.484030	0.502485	0.750639
C95	C	0.979643	0.007778	0.341447
C96	C	1.479643	0.507778	0.841447
C97	C	0.923299	0.075730	0.386862
C98	C	1.423299	0.575730	0.886862
C99	C	0.871333	0.138386	0.341464
C100	C	1.371333	0.638386	0.841464
C101	C	0.875716	0.133088	0.250657
C102	C	1.375716	0.633088	0.750657
C103	C	0.904380	0.098573	0.658444
C104	C	1.404380	0.598573	1.158444
C105	C	0.900003	0.103868	0.749257
C106	C	1.400003	0.603868	1.249257
C107	C	1.008312	-0.026742	0.749234
C108	C	1.508312	0.473258	1.249234
C109	C	1.012694	-0.032030	0.658426
C110	C	1.512694	0.467970	1.158426
C111	C	0.960725	0.030623	0.613036
C112	C	1.460725	0.530623	1.113036
N113	N	0.918816	0.081144	0.479682
N114	N	1.418816	0.581144	0.979682
N115	N	0.965205	0.025205	0.520217
N116	N	1.465205	0.525205	1.020217
H117	H	0.717077	-0.074419	-0.000038
H118	H	1.217077	0.425581	0.499962
H119	H	0.951309	-0.544911	-0.221368
H120	H	1.451309	-0.044911	0.278632
N121	N	0.848344	0.166153	0.609486
N122	N	1.348344	0.666153	1.109486
H123	H	0.814823	0.132115	0.571827
H124	H	1.314823	0.632115	1.071827
H125	H	0.812039	0.209992	0.652086
H126	H	1.312039	0.709992	1.152086
H127	H	1.029914	-0.052845	0.213668
H128	H	1.529914	0.447155	0.713668
H129	H	0.929841	-0.519124	0.221252
H130	H	1.429841	-0.019124	0.721252
H131	H	0.945120	-0.681208	-0.142726
H132	H	1.445120	-0.181208	0.357274
H133	H	0.201097	-0.119787	-0.000075
H134	H	0.701097	0.380213	0.499925
N135	N	0.931922	-0.335109	0.242050
N136	N	1.431922	0.164891	0.742050
H137	H	0.928766	-0.376207	0.291867
H138	H	1.428766	0.123793	0.791867
H139	H	0.981806	-0.306940	0.245469
H140	H	1.481806	0.193060	0.745469
H141	H	0.833403	0.184107	0.213700
H142	H	1.333403	0.684107	0.713700
N143	N	0.810555	0.211673	0.390442
N144	N	1.310555	0.711673	0.890442
H145	H	0.815663	0.205524	0.454856
H146	H	1.315663	0.705524	0.954856
H147	H	0.820596	0.274019	0.374557
H148	H	1.320596	0.774019	0.874557
N149	N	0.938103	-0.198808	0.163396
N150	N	1.438103	0.301192	0.663396
H151	H	0.934941	-0.239904	0.213215
H152	H	1.434941	0.260096	0.713215
H153	H	0.987983	-0.170634	0.166825
H154	H	1.487983	0.329366	0.666825
N155	N	0.930076	-0.675779	0.163399
N156	N	1.430076	-0.175779	0.663399
H157	H	0.879300	-0.646447	0.197790
H158	H	1.379300	-0.146447	0.697790
H159	H	0.929565	-0.743089	0.151390
H160	H	1.429565	-0.243089	0.651390
N161	N	1.073466	-0.105320	0.609444
N162	N	1.573466	0.394680	1.109444
H163	H	1.105718	-0.144209	0.651980
H164	H	1.605718	0.355791	1.151980
H165	H	1.044719	-0.145116	0.571782
H166	H	1.544719	0.354884	1.071782
N167	N	0.557691	-0.087486	-0.000050
N168	N	1.057691	0.412514	0.499950
H169	H	0.602618	-0.142079	-0.000039
H170	H	1.102618	0.357921	0.499961
H171	H	0.520995	-0.086093	0.053428
H172	H	1.020995	0.413907	0.553428
H173	H	1.021953	-0.043240	0.378405
H174	H	1.521953	0.456760	0.878405
H175	H	0.166953	0.180775	-0.000071
H176	H	0.666953	0.680775	0.499929
N177	N	0.365454	-0.150505	-0.000059
N178	N	0.865454	0.349495	0.499941
H179	H	0.402981	-0.159199	-0.053531
H180	H	0.902981	0.340801	0.446469
H181	H	0.397724	-0.152900	0.053461
H182	H	0.897724	0.347100	0.553461
N183	N	1.064362	-0.094315	0.798189
N184	N	1.564362	0.405685	1.298189
H185	H	1.053038	-0.080652	0.862606
H186	H	1.553038	0.419348	1.362606
H187	H	1.055850	-0.158512	0.782327
H188	H	1.555850	0.341488	1.282327
N189	N	0.839237	0.177170	0.798243
N190	N	1.339237	0.677170	1.298243
H191	H	0.806980	0.216059	0.755711
H192	H	1.306980	0.716059	1.255711
H193	H	0.802138	0.147464	0.835943
H194	H	1.302138	0.647464	1.335943
H195	H	0.317831	0.172549	-0.000079
H196	H	0.817831	0.672549	0.499921
H197	H	0.532047	0.234367	-0.000055
H198	H	1.032047	0.734367	0.499945
N199	N	0.953965	-0.217856	-0.163521
N200	N	1.453965	0.282144	0.336479
H201	H	0.955641	-0.264760	-0.213337
H202	H	1.455641	0.235240	0.286663
H203	H	0.905398	-0.168100	-0.166949
H204	H	1.405398	0.331900	0.333051
H205	H	0.682935	0.226140	-0.000041
H206	H	1.182935	0.726140	0.499959
H207	H	0.954175	-0.374505	-0.221373
H208	H	1.454175	0.125495	0.278627
