data_functionalizedCrystal
_audit_creation_method	'MofGen! by Chris Wilmer'
_symmetry_space_group_name_H-M	'P1'
_symmetry_Int_Tables_number	1
_symmetry_cell_setting	triclinic
loop_
_symmetry_equiv_pos_as_xyz
  x,y,z
_cell_length_a	10.723023
_cell_length_b	14.519709
_cell_length_c	9.798715
_cell_angle_alpha	90.004331
_cell_angle_beta	90.002993
_cell_angle_gamma	84.073846
loop_
_atom_site_label
_atom_site_type_symbol
_atom_site_fract_x
_atom_site_fract_y
_atom_site_fract_z
O1	O	1.655978	0.129344	0.113480
O2	O	1.292710	0.141726	0.113486
O3	O	1.483975	0.001346	0.113471
O4	O	1.464712	0.269724	0.113496
O5	O	1.483962	0.001345	-0.113511
O6	O	1.292696	0.141725	-0.113496
O7	O	1.655965	0.129343	-0.113502
Zn8	Zn	1.474328	0.135534	-0.149537
Zn9	Zn	1.474346	0.135535	0.149522
O10	O	1.464699	0.269723	-0.113486
C11	C	1.246212	0.140825	-0.000004
C12	C	1.107683	0.138129	-0.000002
C13	C	0.902759	0.134142	0.117581
C14	C	1.045936	0.136928	0.117582
C15	C	1.483071	-0.033019	-0.000020
C16	C	1.480381	-0.135414	-0.000021
C17	C	1.470477	-0.510360	0.000015
C18	C	1.473227	-0.406038	0.000004
C19	C	1.475428	-0.322890	-0.000005
C20	C	1.478179	-0.218562	-0.000012
C21	C	1.702462	0.130245	-0.000008
C22	C	1.840992	0.132940	-0.000001
C23	C	1.465603	0.304088	0.000008
C24	C	1.468293	0.406483	0.000018
N25	N	1.474325	0.135532	-0.353637
C26	C	1.554831	0.076463	-0.578575
C27	C	1.554814	0.076464	-0.421412
N28	N	1.474359	0.135530	0.353621
H29	H	1.054571	0.137101	-0.100674
H30	H	1.623706	0.025891	-0.363104
H31	H	1.405421	0.186101	-0.411936
H32	H	1.405454	0.186103	-0.588077
H33	H	0.894109	0.133969	-0.100667
H34	H	0.849644	0.133103	0.218247
O35	O	1.637154	0.016088	-0.647905
C36	C	1.711946	-0.038853	-0.554347
H37	H	1.713545	-0.001096	-0.452453
H38	H	1.811526	-0.052259	-0.595728
H39	H	1.671248	-0.107629	-0.539209
H40	H	1.099054	0.137968	0.218249
