data_functionalizedCrystal
_audit_creation_method	'MofGen! by Chris Wilmer'
_symmetry_space_group_name_H-M	'P1'
_symmetry_Int_Tables_number	1
_symmetry_cell_setting	triclinic
loop_
_symmetry_equiv_pos_as_xyz
  x,y,z
_cell_length_a	27.732064
_cell_length_b	27.731996
_cell_length_c	12.376457
_cell_angle_alpha	101.172962
_cell_angle_beta	78.808732
_cell_angle_gamma	82.635407
loop_
_atom_site_label
_atom_site_type_symbol
_atom_site_fract_x
_atom_site_fract_y
_atom_site_fract_z
O1	O	0.650233	0.048242	-0.093812
O2	O	0.509444	0.056974	-0.093861
O3	O	0.584222	-0.017788	-0.093811
O4	O	0.575455	0.123003	-0.093863
O5	O	0.565534	0.000877	0.094189
O6	O	0.490756	0.075639	0.094138
O7	O	0.631545	0.066907	0.094187
Zn8	Zn	0.558184	0.074236	0.124012
Zn9	Zn	0.582806	0.049644	-0.123686
O10	O	0.556768	0.141669	0.094137
C11	C	0.482094	0.066121	0.000133
C12	C	0.428441	0.065564	0.000115
C13	C	0.051369	0.017603	0.000198
C14	C	0.253032	0.019647	0.000167
O15	O	0.284286	-0.017570	0.000223
N16	N	0.272154	0.063980	0.000146
C17	C	0.240855	0.107806	0.000140
O18	O	0.261745	0.145563	0.000132
C19	C	0.039192	0.105763	0.000178
C20	C	0.020075	0.061426	0.000188
C21	C	0.032252	-0.026730	0.000209
C22	C	-0.018161	-0.027241	0.000210
C23	C	-0.049455	0.016581	0.000200
C24	C	-0.030337	0.060915	0.000189
C25	C	0.007894	0.149590	0.000179
C26	C	-0.042525	0.149076	0.000192
C27	C	-0.061642	0.104738	0.000202
C28	C	-0.112043	0.104227	0.000181
N29	N	-0.131165	0.059893	0.000202
C30	C	-0.099870	0.016071	0.000212
C31	C	0.346731	0.108876	0.000117
C32	C	0.397147	0.109386	0.000106
C33	C	0.409321	0.021227	0.000136
C34	C	0.358905	0.020716	0.000139
C35	C	0.327610	0.064542	0.000139
C36	C	-0.205740	0.015001	0.000214
C37	C	-0.256157	0.014493	0.000210
C38	C	-0.268326	0.102653	0.000186
C39	C	-0.217914	0.103161	0.000184
C40	C	-0.186621	0.059331	0.000201
O41	O	-0.143327	0.141425	0.000137
O42	O	-0.120772	-0.021677	0.000244
C43	C	0.101782	0.018114	0.000196
C44	C	0.120899	0.062448	0.000185
C45	C	0.089605	0.106271	0.000175
C46	C	0.171315	0.062959	0.000173
C47	C	0.202609	0.019136	0.000183
C48	C	0.183488	-0.025197	0.000205
C49	C	0.133076	-0.025708	0.000206
C50	C	0.108726	0.150604	0.000154
C51	C	0.159139	0.151111	0.000151
C52	C	0.190434	0.107289	0.000161
C53	C	0.574697	-0.026462	0.000193
C54	C	0.574154	-0.080118	0.000204
C55	C	0.580931	-0.423014	-0.102331
C56	C	0.578872	-0.624674	-0.102351
O57	O	0.587248	-0.659398	-0.189506
N58	N	0.568430	-0.639717	0.000126
C59	C	0.558498	-0.604341	0.102616
O60	O	0.549564	-0.621762	0.189779
C61	C	0.560554	-0.402681	0.102635
C62	C	0.571002	-0.387642	0.000151
C63	C	0.591378	-0.407974	-0.204807
C64	C	0.591895	-0.357562	-0.204801
C65	C	0.581966	-0.322190	-0.102319
C66	C	0.571519	-0.337230	0.000157
C67	C	0.550619	-0.367305	0.205124
C68	C	0.551132	-0.316888	0.205120
C69	C	0.561580	-0.301849	0.102636
C70	C	0.562107	-0.251446	0.102646
N71	N	0.572549	-0.236404	0.000168
C72	C	0.582479	-0.271776	-0.102314
C73	C	0.557420	-0.710216	0.102599
C74	C	0.556907	-0.760631	0.102594
C75	C	0.577281	-0.780961	-0.102374
C76	C	0.577797	-0.730545	-0.102368
C77	C	0.567863	-0.695173	0.000121
C78	C	0.583565	-0.165906	-0.102293
C79	C	0.584083	-0.115489	-0.102278
C80	C	0.563707	-0.095164	0.102689
C81	C	0.563191	-0.145576	0.102675
C82	C	0.573119	-0.180947	0.000174
O83	O	0.553730	-0.216695	0.189755
O84	O	0.591401	-0.254343	-0.189464
C85	C	0.580414	-0.473426	-0.102337
C86	C	0.569967	-0.488466	0.000139
C87	C	0.560038	-0.453094	0.102621
C88	C	0.569454	-0.538880	0.000134
C89	C	0.579384	-0.574252	-0.102348
C90	C	0.589826	-0.559210	-0.204825
C91	C	0.590343	-0.508798	-0.204819
C92	C	0.549595	-0.468137	0.205098
C93	C	0.549079	-0.518549	0.205084
C94	C	0.559009	-0.553921	0.102602
C95	C	0.658896	0.057759	0.000191
C96	C	0.712549	0.058316	0.000201
C97	C	0.566292	0.150343	0.000131
C98	C	0.566837	0.203997	0.000112
N99	N	0.541384	0.091020	0.293059
N100	N	0.599610	0.032857	-0.292733
C101	C	0.638608	-0.006111	0.648109
C102	C	0.650364	-0.017858	0.529777
C103	C	0.623120	0.009360	0.470592
C104	C	0.584118	0.048327	0.529750
C105	C	0.572364	0.060078	0.648093
C106	C	0.556875	0.075549	0.470576
C107	C	0.517873	0.114517	0.529734
C108	C	0.506121	0.126265	0.648066
C109	C	0.533365	0.099046	0.707252
C110	C	0.568630	0.063799	0.352233
C111	C	0.502385	0.129988	0.352217
C112	C	0.490629	0.141735	0.470549
H113	H	-0.293815	0.138332	0.000173
N114	N	0.540982	-0.280749	0.309803
N115	N	0.504912	-0.245637	0.332655
H116	H	0.497744	-0.220114	0.406586
N117	N	-0.037686	-0.072528	0.000265
N118	N	-0.072325	-0.074781	0.079532
H119	H	-0.086112	-0.106766	0.079580
H120	H	0.555625	-0.066355	0.186127
H121	H	0.660790	-0.028267	0.696306
N122	N	-0.198374	0.148443	0.000153
N123	N	-0.163727	0.150699	-0.079091
H124	H	-0.149930	0.182682	-0.079105
H125	H	0.541510	-0.439341	0.288553
H126	H	0.523792	0.108609	0.803607
H127	H	0.434810	-0.014456	0.000139
N128	N	0.539947	-0.382669	0.309799
N129	N	0.571467	-0.413241	0.332695
H130	H	0.563929	-0.424092	0.406626
H131	H	0.598851	-0.496559	-0.288272
H132	H	0.474367	0.157998	0.696233
H133	H	0.458873	0.173463	0.518730
N134	N	0.474561	0.157793	0.291756
N135	N	0.485061	0.147298	0.186100
H136	H	0.465414	0.166935	0.143391
H137	H	0.321255	0.144567	0.000115
H138	H	0.554688	-0.157822	0.186126
N139	N	0.416679	0.154672	0.000098
N140	N	0.461692	0.155128	0.000095
H141	H	0.475485	0.187113	0.000097
N142	N	-0.275674	-0.030803	0.000212
N143	N	-0.247724	-0.069926	0.000222
H144	H	-0.261506	-0.101917	0.000224
N145	N	0.608443	0.023977	0.291801
N146	N	0.606783	-0.019382	0.305046
H147	H	0.634896	-0.047515	0.262357
N148	N	-0.173788	-0.029773	0.000240
N149	N	-0.190873	-0.069350	0.000252
H150	H	-0.168308	-0.100972	0.000266
N151	N	0.064206	-0.071502	0.000226
N152	N	0.047119	-0.111078	0.000240
H153	H	0.069685	-0.142702	0.000246
H154	H	0.632693	-0.000206	0.374241
N155	N	0.215468	-0.069958	0.000205
N156	N	0.260479	-0.069489	0.000201
H157	H	0.283067	-0.101099	0.000205
H158	H	0.682119	-0.049584	0.481615
N159	N	0.602567	-0.342213	-0.309497
N160	N	0.611429	-0.373807	-0.400983
H161	H	0.618965	-0.362970	-0.474931
N162	N	0.593720	-0.202033	-0.206994
N163	N	0.629794	-0.237140	-0.229854
H164	H	0.636971	-0.262655	-0.303799
H165	H	0.540574	-0.530788	0.288545
N166	N	0.339388	-0.024578	0.000147
N167	N	0.367341	-0.063700	0.000149
H168	H	0.353560	-0.095691	0.000156
N169	N	0.027401	0.194887	0.000188
N170	N	0.009812	0.232205	0.079437
H171	H	0.023587	0.264200	0.079446
N172	N	-0.074485	0.193850	0.000201
N173	N	-0.057405	0.233430	0.000196
H174	H	-0.079976	0.265053	0.000201
H175	H	0.174700	0.187218	0.000135
N176	N	0.599980	-0.595347	-0.309511
N177	N	0.636050	-0.630458	-0.332359
H178	H	0.643220	-0.655981	-0.406290
N179	N	0.113561	-0.071003	0.000212
N180	N	0.141516	-0.110123	0.000219
H181	H	0.127737	-0.142115	0.000224
H182	H	0.592593	-0.103249	-0.185737
N183	N	0.076770	0.195375	0.000149
N184	N	0.093855	0.234952	0.000133
H185	H	0.071288	0.266575	0.000126
N186	N	0.601531	-0.444094	-0.309513
N187	N	0.642497	-0.449966	-0.378103
H188	H	0.649673	-0.475473	-0.452060
N189	N	0.588476	-0.715186	-0.207052
N190	N	0.629327	-0.732335	-0.275652
H191	H	0.636870	-0.721489	-0.349589
N192	N	0.587430	-0.817105	-0.207049
N193	N	0.586972	-0.862115	-0.207024
H194	H	0.594138	-0.887644	-0.280946
N195	N	0.546245	-0.775982	0.207289
N196	N	0.537380	-0.744389	0.298778
H197	H	0.529848	-0.755229	0.372724
N198	N	0.547271	-0.674093	0.207307
N199	N	0.537949	-0.687538	0.298788
H200	H	0.530782	-0.662029	0.372740
