data_functionalizedCrystal
_audit_creation_method	'MofGen! by Chris Wilmer'
_symmetry_space_group_name_H-M	'P1'
_symmetry_Int_Tables_number	1
_symmetry_cell_setting	triclinic
loop_
_symmetry_equiv_pos_as_xyz
  x,y,z
_cell_length_a	10.654562
_cell_length_b	16.974813
_cell_length_c	9.730223
_cell_angle_alpha	86.344112
_cell_angle_beta	89.996961
_cell_angle_gamma	83.941369
loop_
_atom_site_label
_atom_site_type_symbol
_atom_site_fract_x
_atom_site_fract_y
_atom_site_fract_z
O1	O	1.666095	0.111100	-0.126734
O2	O	1.300454	0.121670	-0.127893
O3	O	1.493469	0.001338	-0.114512
O4	O	1.473081	0.231432	-0.140115
O5	O	1.493466	0.001341	0.114068
O6	O	1.300452	0.121673	0.100687
O7	O	1.666093	0.111103	0.101845
Zn8	Zn	1.483272	0.116388	0.137558
Zn9	Zn	1.483275	0.116384	-0.163606
O10	O	1.473079	0.231435	0.088464
C11	C	1.253668	0.120893	-0.013514
C12	C	1.114261	0.118565	-0.013249
C13	C	1.048746	0.117481	0.111460
C14	C	0.917758	0.115299	0.111680
C15	C	0.917811	0.115290	-0.137529
C16	C	1.048798	0.117466	-0.137747
C17	C	1.048714	0.117489	0.255339
C18	C	0.917726	0.115308	0.255559
C19	C	1.492692	-0.028123	0.003053
C20	C	1.490367	-0.115913	0.012814
C21	C	1.489278	-0.157153	-0.107199
C22	C	1.487085	-0.239640	-0.098023
C23	C	1.485990	-0.280885	0.031166
C24	C	1.487074	-0.239639	0.151187
C25	C	1.489258	-0.157153	0.142010
C26	C	1.479449	-0.527582	0.071971
C27	C	1.477269	-0.610074	0.081139
C28	C	1.477278	-0.610070	-0.168073
C29	C	1.479469	-0.527583	-0.177238
C30	C	1.480547	-0.486342	-0.057216
N31	N	1.483752	-0.365201	0.040547
N32	N	1.482776	-0.402028	-0.066599
C33	C	1.712880	0.111879	-0.012536
C34	C	1.852286	0.114208	-0.012811
C35	C	1.473855	0.260896	-0.029104
C36	C	1.476181	0.348685	-0.038874
N37	N	1.483279	0.116391	0.343094
N38	N	1.483278	0.116376	-0.369141
C39	C	1.568768	0.063126	0.420943
C40	C	1.568765	0.063116	0.564827
C41	C	1.397780	0.169643	0.553000
C42	C	1.397779	0.169648	0.409119
C43	C	1.667488	0.001626	0.427773
C44	C	1.667485	0.001616	0.571657
H45	H	1.490177	-0.123578	-0.212398
O46	O	0.861423	0.180539	0.314024
C47	C	0.827221	0.323394	0.304531
C48	C	0.891094	0.249620	0.238138
H49	H	0.851208	0.379265	0.243223
H50	H	0.720562	0.321591	0.304627
H51	H	0.862679	0.323937	0.414972
H52	H	0.855738	0.249029	0.127673
H53	H	0.997746	0.251452	0.238151
H54	H	1.486204	-0.273215	-0.195750
H55	H	1.077391	0.175156	0.293566
O56	O	1.112241	0.118540	-0.259014
C57	C	1.098479	0.118232	-0.506165
C58	C	1.026470	0.117035	-0.368926
H59	H	1.029169	0.116999	-0.595062
H60	H	1.148197	0.174498	-0.518758
H61	H	1.171408	0.064025	-0.506258
H62	H	0.953481	0.171203	-0.368736
H63	H	0.976839	0.060734	-0.356386
O64	O	1.480359	-0.487612	0.188659
C65	C	1.372301	-0.454002	0.397929
C66	C	1.371110	-0.499318	0.265838
H67	H	1.283970	-0.463437	0.460351
H68	H	1.459665	-0.476997	0.461992
H69	H	1.374117	-0.387969	0.369175
H70	H	1.369249	-0.565358	0.294467
H71	H	1.283756	-0.476258	0.201810
H72	H	1.095824	0.062847	0.316672
H73	H	0.864494	0.114395	-0.238892
O74	O	0.883699	0.046489	0.316579
C75	C	0.953948	-0.080644	0.430835
C76	C	0.992660	-0.002739	0.361801
H77	H	1.042022	-0.120473	0.467390
H78	H	0.890838	-0.066846	0.522718
H79	H	0.900313	-0.112309	0.353405
H80	H	1.046343	0.028966	0.439127
H81	H	1.055709	-0.016588	0.269895
H82	H	1.486175	-0.273226	0.256375
O83	O	1.480321	-0.487381	-0.302625
C84	C	1.482993	-0.360253	-0.427208
C85	C	1.482229	-0.405697	-0.285119
H86	H	1.484509	-0.294202	-0.413103
H87	H	1.570313	-0.383065	-0.486410
H88	H	1.394622	-0.369848	-0.487313
H89	H	1.570539	-0.396122	-0.224901
H90	H	1.394851	-0.382876	-0.226021
H91	H	1.476398	-0.643656	-0.265787
O92	O	1.314610	0.221405	0.616923
C93	C	1.145063	0.327095	0.590000
C94	C	1.239168	0.268504	0.517438
H95	H	1.084062	0.365201	0.509599
H96	H	1.082309	0.292621	0.661152
H97	H	1.199223	0.366878	0.652982
H98	H	1.185112	0.228707	0.454384
H99	H	1.301922	0.303028	0.446369
O100	O	1.476443	-0.650187	0.206617
C101	C	1.582726	-0.751691	0.362493
C102	C	1.583815	-0.706314	0.220367
H103	H	1.669513	-0.797091	0.373644
H104	H	1.583959	-0.708082	0.446747
H105	H	1.493835	-0.783531	0.372270
H106	H	1.672691	-0.674472	0.210456
H107	H	1.582515	-0.749961	0.136183
O108	O	1.490355	-0.117214	0.258727
C109	C	1.489998	-0.125909	0.506877
C110	C	1.488803	-0.171240	0.374803
H111	H	1.488717	-0.169567	0.600757
H112	H	1.578873	-0.094058	0.509675
H113	H	1.403190	-0.080527	0.507965
H114	H	1.575550	-0.216660	0.373626
H115	H	1.399871	-0.203037	0.372057
H116	H	1.328157	0.213014	0.345736
O117	O	1.632346	-0.066902	0.632702
C118	C	1.691159	-0.181466	0.787276
C119	C	1.731099	-0.103886	0.718248
H120	H	1.770989	-0.211398	0.856433
H121	H	1.603217	-0.167561	0.851777
H122	H	1.669726	-0.222904	0.704631
H123	H	1.752599	-0.062411	0.800801
H124	H	1.819002	-0.117850	0.653718
H125	H	1.646991	-0.059149	0.395482
H126	H	1.758371	0.020886	0.380999
H127	H	1.763785	0.015166	0.609195
