data_functionalizedCrystal
_audit_creation_method	'MofGen! by Chris Wilmer'
_symmetry_space_group_name_H-M	'P1'
_symmetry_Int_Tables_number	1
_symmetry_cell_setting	triclinic
loop_
_symmetry_equiv_pos_as_xyz
  x,y,z
_cell_length_a	10.654550
_cell_length_b	10.654550
_cell_length_c	9.730223
_cell_angle_alpha	89.995747
_cell_angle_beta	89.999957
_cell_angle_gamma	84.484931
loop_
_atom_site_label
_atom_site_type_symbol
_atom_site_fract_x
_atom_site_fract_y
_atom_site_fract_z
O1	O	1.667839	0.176399	-0.114187
O2	O	1.302361	0.193205	-0.114212
O3	O	1.493503	0.002062	-0.114190
O4	O	1.476697	0.367541	-0.114209
O5	O	1.493490	0.002057	0.114390
O6	O	1.302348	0.193199	0.114368
O7	O	1.667827	0.176393	0.114393
Zn8	Zn	1.485085	0.184796	0.150672
Zn9	Zn	1.485102	0.184802	-0.150492
O10	O	1.476684	0.367536	0.114371
C11	C	1.255556	0.191968	0.000075
C12	C	1.116113	0.188276	0.000065
C13	C	1.036628	0.300818	0.000064
C14	C	0.905607	0.297341	0.000088
C15	C	0.933570	0.068772	0.000109
C16	C	1.064588	0.072250	0.000095
C17	C	1.492263	-0.044738	0.000099
C18	C	1.488571	-0.184181	0.000096
C19	C	1.601112	-0.263667	0.000104
C20	C	1.597636	-0.394688	0.000087
C21	C	1.369066	-0.366725	0.000061
C22	C	1.372544	-0.235706	0.000068
C23	C	1.714631	0.177630	0.000103
C24	C	1.854074	0.181322	0.000104
C25	C	1.477925	0.414336	0.000079
C26	C	1.481617	0.553779	0.000072
N27	N	1.485083	0.184790	0.356209
N28	N	1.485114	0.184798	-0.356028
C29	C	1.569750	0.100188	0.428144
C30	C	1.569763	0.100189	0.572027
C31	C	1.400438	0.269404	0.572026
C32	C	1.400420	0.269396	0.428146
H33	H	0.840894	0.388984	0.000089
O34	O	1.243933	-0.422311	0.000052
H35	H	1.189807	-0.390466	-0.093122
O36	O	0.877997	-0.056368	0.000139
H37	H	0.818975	-0.063430	-0.093026
O38	O	1.150335	-0.049139	0.000100
H39	H	1.092498	-0.130404	0.000104
H40	H	1.331508	0.338290	0.630612
O41	O	1.719026	-0.480413	0.000109
H42	H	1.722933	-0.540755	-0.093066
O43	O	1.726255	-0.208100	0.000111
H44	H	1.733316	-0.149096	0.093285
O45	O	1.251154	-0.149962	0.000058
H46	H	1.247274	-0.089603	0.093220
O47	O	1.092205	0.425955	0.000043
H48	H	1.151245	0.432997	0.093197
O49	O	1.309101	0.360653	0.350542
H50	H	1.250246	0.419500	0.424734
H51	H	1.638687	0.031295	0.369576
H52	H	1.638705	0.031297	0.630593
