data_functionalizedCrystal
_audit_creation_method	'MofGen! by Chris Wilmer'
_symmetry_space_group_name_H-M	'P1'
_symmetry_Int_Tables_number	1
_symmetry_cell_setting	triclinic
loop_
_symmetry_equiv_pos_as_xyz
  x,y,z
_cell_length_a	29.019771
_cell_length_b	29.019011
_cell_length_c	29.015668
_cell_angle_alpha	60.004890
_cell_angle_beta	60.009825
_cell_angle_gamma	59.993818
loop_
_atom_site_label
_atom_site_type_symbol
_atom_site_fract_x
_atom_site_fract_y
_atom_site_fract_z
O1	O	0.063866	-0.673289	0.563007
O2	O	0.024059	-0.524205	0.453633
O3	O	0.118464	-0.618532	0.453552
O4	O	-0.030540	-0.578962	0.563088
O5	O	0.149785	-0.587215	0.484789
O6	O	0.055379	-0.492888	0.484869
O7	O	0.095186	-0.641972	0.594244
Cu8	Cu	0.078143	-0.564571	0.542409
Cu9	Cu	0.041102	-0.601606	0.505468
O10	O	0.000781	-0.547645	0.594325
N11	N	0.104196	-0.538525	0.568394
N12	N	0.015054	-0.627656	0.479483
C13	C	0.143783	-0.499167	0.850823
C14	C	0.386758	-0.499111	0.607645
C15	C	0.143618	-0.499136	0.607763
C16	C	0.143598	-0.256029	0.607770
C17	C	0.182748	-0.373362	0.646852
C18	C	0.182758	-0.460025	0.646847
C19	C	0.204440	-0.438361	0.668500
C20	C	0.298958	-0.422064	0.618723
C21	C	0.358043	-0.441753	0.599006
C22	C	0.358069	-0.537354	0.635461
C23	C	0.298985	-0.517664	0.655180
C24	C	0.196983	-0.343808	0.588767
C25	C	0.177262	-0.284720	0.569090
C26	C	0.129075	-0.284743	0.665586
C27	C	0.148797	-0.343831	0.685263
C28	C	0.124666	-0.445760	0.661149
C29	C	0.104961	-0.465454	0.641458
C30	C	0.201435	-0.513678	0.593176
C31	C	0.221143	-0.493984	0.612860
C32	C	0.124738	-0.445777	0.763064
C33	C	0.105085	-0.465488	0.822151
C34	C	0.201594	-0.513722	0.822097
C35	C	0.221247	-0.494012	0.763009
C36	C	0.182817	-0.460038	0.733494
C37	C	0.269432	-0.460018	0.646809
C38	C	0.121399	-0.520450	0.915812
C39	C	0.451745	-0.520012	0.585655
C40	C	0.121177	-0.520429	0.586502
C41	C	0.121544	-0.191035	0.586883
C42	C	-0.110592	-0.666601	0.440035
C43	C	-0.023978	-0.666709	0.440231
C44	C	-0.045598	-0.688342	0.418486
C45	C	-0.061967	-0.782825	0.468184
C46	C	-0.042323	-0.841914	0.487907
C47	C	0.053280	-0.842025	0.451623
C48	C	0.033634	-0.782937	0.431899
C49	C	-0.140218	-0.680832	0.498102
C50	C	-0.199302	-0.661065	0.517690
C51	C	-0.199129	-0.612843	0.421140
C52	C	-0.140045	-0.632610	0.401552
C53	C	-0.038209	-0.608622	0.425941
C54	C	-0.018555	-0.588961	0.445716
C55	C	0.029562	-0.685470	0.494059
C56	C	0.009908	-0.705133	0.474291
C57	C	-0.038037	-0.608631	0.323917
C58	C	-0.018247	-0.588973	0.264830
C59	C	0.029955	-0.685489	0.264893
C60	C	0.010165	-0.705145	0.323981
C61	C	-0.023833	-0.666715	0.353492
C62	C	-0.023990	-0.753339	0.440182
N63	N	0.504925	-0.538487	0.568205
O64	O	0.685342	-0.543679	0.433426
O65	O	0.685533	-0.653395	0.582361
O66	O	0.685457	-0.653145	0.487904
O67	O	0.685418	-0.543929	0.527882
O68	O	0.591592	-0.621921	0.519268
O69	O	0.591667	-0.622171	0.613725
O70	O	0.591477	-0.512455	0.464790
Cu71	Cu	0.583001	-0.564462	0.542121
Cu72	Cu	0.694008	-0.601388	0.505029
O73	O	0.591553	-0.512705	0.559246
N74	N	0.772084	-0.627363	0.478939
N75	N	0.104168	-0.137853	0.568408
O76	O	-0.030538	0.042663	0.563097
O77	O	0.118403	0.042683	0.453379
O78	O	0.023918	0.042657	0.453664
O79	O	0.063947	0.042689	0.562813
O80	O	0.055242	-0.051215	0.484950
O81	O	0.149727	-0.051189	0.484666
O82	O	0.000787	-0.051210	0.594384
Cu83	Cu	0.078117	-0.059771	0.542381
Cu84	Cu	0.041072	0.051244	0.505382
O85	O	0.095272	-0.051184	0.594099
N86	N	0.015015	0.129326	0.479356
N87	N	0.104469	-0.538576	0.968995
O88	O	0.099171	-0.673268	1.149499
O89	O	-0.010519	-0.524279	1.149527
O90	O	-0.010265	-0.618748	1.149494
O91	O	0.098916	-0.578799	1.149533
O92	O	0.021008	-0.587443	1.055625
O93	O	0.020753	-0.492974	1.055659
O94	O	0.130444	-0.641963	1.055630
Cu95	Cu	0.078454	-0.564610	1.047074
Cu96	Cu	0.041470	-0.601632	1.158084
O97	O	0.130189	-0.547494	1.055664
N98	N	0.015455	-0.627672	1.236163
C99	C	0.035988	-0.489761	0.454182
C100	C	0.152897	-0.606574	0.454082
C101	C	0.083257	-0.676417	0.593694
C102	C	-0.033653	-0.559604	0.593794
C103	C	0.638623	-0.652892	0.616806
C104	C	0.638531	-0.652583	0.499833
C105	C	0.638384	-0.512957	0.430345
C106	C	0.638480	-0.513267	0.547317
C107	C	0.152789	-0.004135	0.453875
C108	C	0.035820	-0.004282	0.454266
C109	C	-0.033639	-0.004275	0.593849
C110	C	0.083370	-0.004245	0.593498
C111	C	-0.009989	-0.489856	1.102597
C112	C	-0.009667	-0.606839	1.102536
C113	C	0.129914	-0.676386	1.102561
C114	C	0.129599	-0.559396	1.102601
H115	H	0.057789	-0.453866	0.846219
O116	O	0.203911	-0.616546	0.412973
C117	C	0.203960	-0.567999	0.364348
H118	H	0.158701	-0.541120	0.364965
H119	H	0.229056	-0.581138	0.325105
H120	H	0.224162	-0.542486	0.363653
H121	H	0.638471	-0.478960	0.555871
O122	O	-0.071142	-0.571220	0.392886
C123	C	-0.079479	-0.515735	0.384507
H124	H	-0.072943	-0.515847	0.420179
H125	H	-0.124262	-0.487639	0.384111
H126	H	-0.047975	-0.498852	0.342458
O127	O	-0.051145	-0.438857	1.102680
C128	C	-0.098690	-0.446293	1.151298
H129	H	-0.098049	-0.491329	1.167495
H130	H	-0.138779	-0.415362	1.140363
H131	H	-0.097689	-0.438199	1.185349
O132	O	-0.084626	-0.004378	0.634992
C133	C	-0.077164	-0.052982	0.682555
H134	H	-0.035837	-0.086963	0.668954
H135	H	-0.113771	-0.069307	0.702769
H136	H	-0.075852	-0.041980	0.714404
O137	O	0.025949	-0.438695	0.413143
C138	C	0.074435	-0.438566	0.364467
H139	H	0.113211	-0.471945	0.376847
H140	H	0.079422	-0.395254	0.343393
H141	H	0.069878	-0.448393	0.333799
O142	O	0.203691	-0.003850	0.412626
C143	C	0.203612	-0.003741	0.364019
H144	H	0.170332	-0.021698	0.376540
H145	H	0.246931	-0.030786	0.342724
H146	H	0.193510	0.041347	0.333489
H147	H	0.638547	-0.686893	0.491276
O148	O	-0.050501	-0.617098	1.102450
C149	C	-0.029942	-0.672580	1.102433
H150	H	0.018133	-0.687446	1.084693
H151	H	-0.047099	-0.673374	1.075138
H152	H	-0.044234	-0.701786	1.147453
H153	H	0.163899	-0.550848	1.102605
O154	O	0.638336	-0.471929	0.379280
C155	C	0.638303	-0.492246	0.344164
H156	H	0.656122	-0.540323	0.359424
H157	H	0.665504	-0.474912	0.298942
H158	H	0.593259	-0.477931	0.345731
O159	O	0.025520	-0.004333	0.413431
C160	C	-0.029961	-0.004338	0.434001
H161	H	-0.044794	-0.022092	0.482077
H162	H	-0.030775	-0.031617	0.416842
H163	H	-0.059176	0.040689	0.419718
H164	H	0.091761	-0.719242	0.628046
H165	H	0.091941	-0.004235	0.627787
O166	O	-0.084730	-0.549445	0.634779
C167	C	-0.119809	-0.493990	0.614373
H168	H	-0.092633	-0.467187	0.578123
H169	H	-0.146845	-0.475092	0.649792
H170	H	-0.148317	-0.494850	0.598704
H171	H	0.382132	-0.584293	0.642268
H172	H	0.638671	-0.687334	0.659583
O173	O	0.170931	-0.727471	1.102574
C174	C	0.150622	-0.762585	1.102539
H175	H	0.102547	-0.747297	1.120311
H176	H	0.167934	-0.807803	1.129781
H177	H	0.164962	-0.761050	1.057500
H178	H	0.093440	-0.418108	0.739036
O179	O	0.239002	-0.546728	0.850676
C180	C	0.294478	-0.555071	0.811904
H181	H	0.294342	-0.548466	0.769794
H182	H	0.322556	-0.599882	0.828953
H183	H	0.311396	-0.523614	0.805611
H184	H	0.268542	-0.505632	0.738936
H185	H	0.057658	-0.453826	0.653091
O186	O	0.087356	-0.412691	0.694076
C187	C	0.053158	-0.363139	0.664268
H188	H	0.075946	-0.354912	0.616993
H189	H	0.044225	-0.325923	0.674845
H190	H	0.011648	-0.368512	0.676862
O191	O	0.238753	-0.546579	0.560082
C192	C	0.272889	-0.516728	0.510535
H193	H	0.250050	-0.469457	0.502340
H194	H	0.281813	-0.527288	0.473309
H195	H	0.314406	-0.529298	0.515891
O196	O	0.277566	-0.507734	0.598908
C197	C	0.291806	-0.458075	0.569184
H198	H	0.258472	-0.422584	0.549210
H199	H	0.334686	-0.465842	0.534738
H200	H	0.293774	-0.445642	0.599569
H201	H	0.274946	-0.548573	0.678050
H202	H	0.382082	-0.410845	0.576135
H203	H	-0.223112	-0.585171	0.389803
O204	O	0.270315	-0.366045	0.610493
C205	C	0.284706	-0.335557	0.552155
H206	H	0.327599	-0.361372	0.528876
H207	H	0.286723	-0.293902	0.544346
H208	H	0.251435	-0.326743	0.536068
O209	O	0.229877	-0.372472	0.551437
C210	C	0.200016	-0.358023	0.517291
H211	H	0.152751	-0.341790	0.540127
H212	H	0.210584	-0.396879	0.508356
H213	H	0.212566	-0.323717	0.475778
O214	O	0.190990	-0.255981	0.512669
C215	C	0.141324	-0.221795	0.498420
H216	H	0.105847	-0.239613	0.531741
H217	H	0.149083	-0.221112	0.455528
H218	H	0.128882	-0.177016	0.496468
H219	H	0.137197	-0.367895	0.732563
O220	O	0.096085	-0.256140	0.702972
C221	C	0.087772	-0.294896	0.758462
H222	H	0.094378	-0.337017	0.758357
H223	H	0.042972	-0.277836	0.786536
H224	H	0.119242	-0.301174	0.775363
H225	H	-0.029822	-0.541673	0.240758
H226	H	0.057627	-0.716785	0.240872
O227	O	0.023996	-0.761590	0.352621
C228	C	0.058254	-0.791290	0.313902
H229	H	0.050793	-0.763111	0.271742
H230	H	0.047150	-0.830692	0.330944
H231	H	0.104519	-0.804085	0.307712
H232	H	-0.065723	-0.577332	0.347941
H233	H	-0.030145	-0.541661	0.434082
H234	H	0.021495	-0.752433	0.485928
O235	O	0.062455	-0.722873	0.527154
C236	C	0.070812	-0.778357	0.535508
H237	H	0.035221	-0.778207	0.528818
H238	H	0.071042	-0.806399	0.580347
H239	H	0.112931	-0.795331	0.504116
H240	H	0.100203	-0.866125	0.444882
O241	O	0.070591	-0.754355	0.404641
C242	C	0.110749	-0.768828	0.355955
H243	H	0.113517	-0.811718	0.361279
H244	H	0.153736	-0.770898	0.349585
H245	H	0.097467	-0.735572	0.317636
O246	O	-0.079289	-0.870468	0.515082
C247	C	-0.106927	-0.856025	0.478884
H248	H	-0.105478	-0.813167	0.445206
H249	H	-0.152750	-0.853903	0.504389
H250	H	-0.084905	-0.889327	0.457787
O251	O	-0.117918	-0.754006	0.476122
C252	C	-0.125847	-0.719846	0.423331
H253	H	-0.085187	-0.711056	0.390474
H254	H	-0.161301	-0.678265	0.426680
H255	H	-0.137466	-0.742595	0.410150
H256	H	-0.116238	-0.708516	0.529438
H257	H	-0.223425	-0.672650	0.564976
H258	H	-0.115923	-0.621016	0.354266
