data_functionalizedCrystal
_audit_creation_method	'MofGen! by Chris Wilmer'
_symmetry_space_group_name_H-M	'P1'
_symmetry_Int_Tables_number	1
_symmetry_cell_setting	triclinic
loop_
_symmetry_equiv_pos_as_xyz
  x,y,z
_cell_length_a	17.639181
_cell_length_b	25.639240
_cell_length_c	17.640968
_cell_angle_alpha	78.760674
_cell_angle_beta	87.836484
_cell_angle_gamma	78.841892
loop_
_atom_site_label
_atom_site_type_symbol
_atom_site_fract_x
_atom_site_fract_y
_atom_site_fract_z
Zn1	Zn	1.247402	-0.348839	-0.194173
Zn2	Zn	1.747402	0.151161	0.305827
Zn3	Zn	1.221607	-0.449813	-0.067187
Zn4	Zn	1.721607	0.050187	0.432813
Zn5	Zn	1.094769	-0.342006	-0.092922
Zn6	Zn	1.594769	0.157994	0.407078
Zn7	Zn	1.120380	-0.415841	-0.219844
Zn8	Zn	1.620380	0.084159	0.280156
O9	O	1.171039	-0.389125	-0.143531
O10	O	1.671039	0.110875	0.356469
O11	O	1.350221	-0.379310	-0.155814
O12	O	1.850221	0.120690	0.344186
O13	O	1.183268	-0.446870	0.035660
O14	O	1.683268	0.053130	0.535660
O15	O	1.115093	-0.269753	-0.106380
O16	O	1.615093	0.230247	0.393620
O17	O	1.331270	-0.453495	-0.062518
O18	O	1.831270	0.046505	0.437482
O19	O	1.227232	-0.274774	-0.180769
O20	O	1.727232	0.225226	0.319231
O21	O	1.090081	-0.367664	0.016753
O22	O	1.590081	0.132336	0.516753
O23	O	0.991925	-0.334723	-0.131273
O24	O	1.491925	0.165277	0.368727
O25	O	1.158743	-0.395595	-0.322699
O26	O	1.658743	0.104405	0.177301
O27	O	1.010741	-0.388970	-0.224521
O28	O	1.510741	0.111030	0.275479
O29	O	1.252066	-0.346369	-0.303839
O30	O	1.752066	0.153631	0.196161
O31	O	1.208101	-0.518465	-0.087410
O32	O	1.708101	-0.018465	0.412590
O33	O	1.133731	-0.493506	-0.199566
O34	O	1.633731	0.006494	0.300434
C35	C	0.973786	-0.357419	-0.183475
C36	C	1.473786	0.142581	0.316525
C37	C	0.889404	-0.343866	-0.200582
C38	C	1.389404	0.156134	0.299418
C39	C	0.562497	-0.492202	-0.013586
C40	C	1.062497	0.007798	0.486414
C41	C	0.483209	-0.479459	-0.029666
C42	C	0.983209	0.020541	0.470334
C43	C	0.502971	-0.402302	-0.126960
C44	C	1.002971	0.097698	0.373040
C45	C	0.582263	-0.415037	-0.110885
C46	C	1.082263	0.084963	0.389115
C47	C	0.612019	-0.459988	-0.054198
C48	C	1.112019	0.040012	0.445802
C49	C	0.631784	-0.382823	-0.151496
C50	C	1.131784	0.117177	0.348504
C51	C	0.711069	-0.395559	-0.135425
C52	C	1.211069	0.104441	0.364575
C53	C	0.740832	-0.440508	-0.078742
C54	C	1.240832	0.059492	0.421258
C55	C	0.691304	-0.472724	-0.038126
C56	C	1.191304	0.027276	0.461874
C57	C	0.602027	-0.337874	-0.208187
C58	C	1.102027	0.162126	0.291813
C59	C	0.651549	-0.305660	-0.248799
C60	C	1.151549	0.194340	0.251201
C61	C	0.730834	-0.318394	-0.232724
C62	C	1.230834	0.181606	0.267276
C63	C	0.760597	-0.363344	-0.176041
C64	C	1.260597	0.136656	0.323959
C65	C	0.780363	-0.286179	-0.273340
C66	C	1.280363	0.213821	0.226660
C67	C	0.859648	-0.298915	-0.257269
C68	C	1.359648	0.201085	0.242731
C69	C	0.839882	-0.376080	-0.159970
C70	C	1.339882	0.123920	0.340030
C71	C	1.170920	-0.524956	-0.143494
C72	C	1.670920	-0.024956	0.356506
C73	C	1.170944	-0.583074	-0.143489
C74	C	1.670944	-0.083074	0.356511
C75	C	1.229472	-0.946014	-0.182348
C76	C	1.729472	-0.446014	0.317652
C77	C	1.229497	-1.000620	-0.182359
C78	C	1.729497	-0.500620	0.317641
O79	O	1.279120	-1.031034	-0.215363
O80	O	1.779120	-0.531034	0.284637
N81	N	1.171159	-1.025373	-0.143583
N82	N	1.671159	-0.525373	0.356417
C83	C	1.112788	-0.995514	-0.104801
C84	C	1.612788	-0.495514	0.395199
O85	O	1.063169	-1.021582	-0.071821
O86	O	1.563169	-0.521582	0.428179
C87	C	1.112760	-0.940908	-0.104795
C88	C	1.612760	-0.440908	0.395205
C89	C	1.171106	-0.916160	-0.143567
C90	C	1.671106	-0.416160	0.356433
C91	C	1.287812	-0.921266	-0.221117
C92	C	1.787812	-0.421266	0.278883
C93	C	1.287788	-0.866664	-0.221105
C94	C	1.787788	-0.366664	0.278895
C95	C	1.229422	-0.836810	-0.182323
C96	C	1.729422	-0.336810	0.317677
C97	C	1.171081	-0.861558	-0.143554
C98	C	1.671081	-0.361558	0.356446
C99	C	1.054386	-0.911049	-0.066018
C100	C	1.554386	-0.411049	0.433982
C101	C	1.054363	-0.856440	-0.066016
C102	C	1.554363	-0.356440	0.433984
C103	C	1.112709	-0.831692	-0.104787
C104	C	1.612709	-0.331692	0.395213
C105	C	1.112691	-0.777102	-0.104761
C106	C	1.612691	-0.277102	0.395239
N107	N	1.171028	-0.752349	-0.143536
N108	N	1.671028	-0.252349	0.356464
C109	C	1.229394	-0.782203	-0.182318
C110	C	1.729394	-0.282203	0.317682
C111	C	1.112850	-1.110191	-0.104817
C112	C	1.612850	-0.610191	0.395183
C113	C	1.112881	-1.164797	-0.104818
C114	C	1.612881	-0.664797	0.395182
C115	C	1.229589	-1.169899	-0.182377
C116	C	1.729589	-0.669899	0.317623
C117	C	1.229561	-1.115293	-0.182372
C118	C	1.729561	-0.615293	0.317628
C119	C	1.171188	-1.085439	-0.143593
C120	C	1.671188	-0.585439	0.356407
C121	C	1.229338	-0.667535	-0.182288
C122	C	1.729338	-0.167535	0.317712
C123	C	1.229309	-0.612928	-0.182270
C124	C	1.729309	-0.112928	0.317730
C125	C	1.112599	-0.607830	-0.104714
C126	C	1.612599	-0.107830	0.395286
C127	C	1.112629	-0.662432	-0.104729
C128	C	1.612629	-0.162432	0.395271
C129	C	1.171002	-0.692283	-0.143522
C130	C	1.671002	-0.192283	0.356478
O131	O	1.063091	-0.746654	-0.071776
O132	O	1.563091	-0.246654	0.428224
O133	O	1.278999	-0.756127	-0.215300
O134	O	1.778999	-0.256127	0.284700
C135	C	1.369063	-0.420954	-0.103432
C136	C	1.869063	0.079046	0.396568
C137	C	1.453449	-0.434518	-0.086344
C138	C	1.953449	0.065482	0.413656
C139	C	1.211139	-0.367955	-0.341592
C140	C	1.711139	0.132045	0.158408
C141	C	1.228227	-0.358933	-0.425993
C142	C	1.728227	0.141067	0.074007
C143	C	1.171183	-0.252764	-0.143582
C144	C	1.671183	0.247236	0.356418
C145	C	1.171244	-0.194655	-0.143603
C146	C	1.671244	0.305345	0.356397
C147	C	1.041515	-0.457421	-0.752671
C148	C	1.541515	0.042579	-0.252671
C149	C	1.057588	-0.448940	-0.831976
C150	C	1.557588	0.051060	-0.331976
C151	C	1.154757	-0.397685	-0.812328
C152	C	1.654757	0.102315	-0.312328
C153	C	1.138689	-0.406159	-0.733020
C154	C	1.638689	0.093841	-0.233020
C155	C	1.082069	-0.436028	-0.703199
C156	C	1.582069	0.063972	-0.203199
C157	C	1.179243	-0.384766	-0.683548
C158	C	1.679243	0.115234	-0.183548
C159	C	1.163179	-0.393243	-0.604246
C160	C	1.663179	0.106757	-0.104246
C161	C	1.106563	-0.423112	-0.574418
C162	C	1.606563	0.076888	-0.074418
C163	C	1.066005	-0.444504	-0.623897
C164	C	1.566005	0.055496	-0.123897
C165	C	1.235867	-0.354901	-0.713370
C166	C	1.735867	0.145099	-0.213370
C167	C	1.276420	-0.333508	-0.663898
C168	C	1.776420	0.166492	-0.163898
C169	C	1.260353	-0.341981	-0.584596
C170	C	1.760353	0.158019	-0.084596
C171	C	1.203737	-0.371850	-0.554767
C172	C	1.703737	0.128150	-0.054767
C173	C	1.300911	-0.320588	-0.535116
C174	C	1.800911	0.179412	-0.035116
C175	C	1.284847	-0.329064	-0.455815
C176	C	1.784847	0.170936	0.044185
C177	C	1.187673	-0.380326	-0.475466
C178	C	1.687673	0.119674	0.024534
C179	C	1.131140	-0.410181	0.053767
C180	C	1.631140	0.089819	0.553767
C181	C	1.114199	-0.419079	0.138198
C182	C	1.614199	0.080921	0.638198
H183	H	0.478733	-0.365704	-0.173117
H184	H	0.978733	0.134296	0.326883
H185	H	1.006875	-0.931189	-0.034446
H186	H	1.506875	-0.431189	0.465554
Br187	Br	0.611159	-0.244661	-0.325735
Br188	Br	1.111159	0.255339	0.174265
Br189	Br	0.880274	-0.437087	-0.083039
Br190	Br	1.380274	0.062913	0.416961
Br191	Br	0.731696	-0.533731	0.038805
Br192	Br	1.231696	-0.033731	0.538805
H193	H	0.586725	-0.528802	0.032579
H194	H	1.086725	-0.028802	0.532579
H195	H	0.805390	-0.450873	-0.065652
H196	H	1.305390	0.049127	0.434348
H197	H	1.277113	-1.194216	-0.213957
H198	H	1.777113	-0.694216	0.286043
H199	H	1.006826	-0.832134	-0.034439
H200	H	1.506826	-0.332134	0.465561
Br201	Br	1.353264	-0.292976	-0.704377
Br202	Br	1.853264	0.207024	-0.204377
Br203	Br	0.739971	-0.225184	-0.350282
Br204	Br	1.239971	0.274816	0.149718
Br205	Br	1.033625	-1.069680	-0.052179
Br206	Br	1.533625	-0.569680	0.447821
Br207	Br	1.002544	-0.477976	-0.899118
Br208	Br	1.502544	0.022024	-0.399118
H209	H	0.537468	-0.327508	-0.221273
H210	H	1.037468	0.172492	0.278727
H211	H	0.899969	-0.272682	-0.290337
H212	H	1.399969	0.227318	0.209663
H213	H	1.276824	-0.592781	-0.213842
H214	H	1.776824	-0.092781	0.286158
H215	H	1.335296	-0.846517	-0.252678
H216	H	1.835296	-0.346517	0.247322
H217	H	1.276866	-0.691832	-0.213883
H218	H	1.776866	-0.191832	0.286117
H219	H	1.347016	-0.296274	-0.559409
H220	H	1.847016	0.203726	-0.059409
H221	H	1.335342	-0.945567	-0.252702
H222	H	1.835342	-0.445567	0.247298
Br223	Br	0.416005	-0.523194	0.025438
Br224	Br	0.916005	-0.023194	0.525438
H225	H	1.277071	-1.095147	-0.213943
H226	H	1.777071	-0.595147	0.286057
H227	H	0.995391	-0.481727	-0.728393
H228	H	1.495391	0.018273	-0.228393
Br229	Br	1.033704	-1.198380	-0.052182
Br230	Br	1.533704	-0.698380	0.447818
H231	H	1.317869	-0.311643	-0.415533
H232	H	1.817869	0.188357	0.084467
H233	H	1.065124	-0.682585	-0.073151
H234	H	1.565124	-0.182585	0.426849
H235	H	1.200859	-0.373367	-0.836620
H236	H	1.700859	0.126633	-0.336620
H237	H	1.065080	-0.583515	-0.073136
H238	H	1.565080	-0.083515	0.426864
Br239	Br	1.110821	-0.420856	-0.434988
Br240	Br	1.610821	0.079144	0.065012
Br241	Br	1.257672	-0.343401	-0.820994
Br242	Br	1.757672	0.156599	-0.320994
Br243	Br	0.989153	-0.485034	-0.583419
Br244	Br	1.489153	0.014966	-0.083419
H245	H	1.093488	-0.430015	-0.509845
H246	H	1.593488	0.069985	-0.009845
