data_functionalizedCrystal
_audit_creation_method	'MofGen! by Chris Wilmer'
_symmetry_space_group_name_H-M	'P1'
_symmetry_Int_Tables_number	1
_symmetry_cell_setting	triclinic
loop_
_symmetry_equiv_pos_as_xyz
  x,y,z
_cell_length_a	14.519731
_cell_length_b	10.489741
_cell_length_c	12.996460
_cell_angle_alpha	89.994152
_cell_angle_beta	89.994327
_cell_angle_gamma	84.114013
loop_
_atom_site_label
_atom_site_type_symbol
_atom_site_fract_x
_atom_site_fract_y
_atom_site_fract_z
O1	O	1.224768	0.167333	-0.085568
O2	O	1.474768	0.417333	0.164432
O3	O	1.724768	0.667333	0.414432
O4	O	1.974768	0.917333	0.664432
O5	O	0.956401	0.186995	-0.085570
O6	O	1.206401	0.436995	0.164430
O7	O	1.456401	0.686995	0.414430
O8	O	1.706401	0.936995	0.664430
O9	O	1.096691	-0.008497	-0.085563
O10	O	1.346691	0.241503	0.164437
O11	O	1.596691	0.491503	0.414437
O12	O	1.846691	0.741503	0.664437
O13	O	1.084478	0.362825	-0.085575
O14	O	1.334478	0.612825	0.164425
O15	O	1.584478	0.862825	0.414425
O16	O	1.834478	1.112825	0.664425
O17	O	1.096677	-0.008508	0.085571
O18	O	1.346677	0.241492	0.335571
O19	O	1.596677	0.491492	0.585571
O20	O	1.846677	0.741492	0.835571
O21	O	0.956386	0.186984	0.085564
O22	O	1.206386	0.436984	0.335564
O23	O	1.456386	0.686984	0.585564
O24	O	1.706386	0.936984	0.835564
O25	O	1.224754	0.167322	0.085565
O26	O	1.474754	0.417322	0.335565
O27	O	1.724754	0.667322	0.585565
O28	O	1.974754	0.917322	0.835565
Cu29	Cu	1.090569	0.177152	0.101190
Cu30	Cu	1.340569	0.427152	0.351190
Cu31	Cu	1.590569	0.677152	0.601190
Cu32	Cu	1.840569	0.927152	0.851190
Cu33	Cu	1.090586	0.177165	-0.101195
Cu34	Cu	1.340586	0.427165	0.148805
Cu35	Cu	1.590586	0.677165	0.398805
Cu36	Cu	1.840586	0.927165	0.648805
O37	O	1.084463	0.362814	0.085558
O38	O	1.334463	0.612814	0.335558
O39	O	1.584463	0.862814	0.585558
O40	O	1.834463	1.112814	0.835558
C41	C	0.922029	0.186068	-0.000003
C42	C	1.172029	0.436068	0.249997
C43	C	1.422029	0.686068	0.499997
C44	C	1.672029	0.936068	0.749997
C45	C	0.819634	0.183308	-0.000004
C46	C	1.069634	0.433308	0.249996
C47	C	1.319634	0.683308	0.499996
C48	C	1.569634	0.933308	0.749996
C49	C	0.736478	0.181064	-0.000008
C50	C	0.986478	0.431064	0.249992
C51	C	1.236478	0.681064	0.499992
C52	C	1.486478	0.931064	0.749992
C53	C	0.632154	0.178261	-0.000008
C54	C	0.882154	0.428261	0.249992
C55	C	1.132154	0.678261	0.499992
C56	C	1.382154	0.928261	0.749992
C57	C	0.549003	0.176037	-0.000008
C58	C	0.799003	0.426037	0.249992
C59	C	1.049003	0.676037	0.499992
C60	C	1.299003	0.926037	0.749992
C61	C	0.444672	0.173234	-0.000010
C62	C	0.694672	0.423234	0.249990
C63	C	0.944672	0.673234	0.499990
C64	C	1.194672	0.923234	0.749990
C65	C	1.095762	-0.056024	0.000003
C66	C	1.345762	0.193976	0.250003
C67	C	1.595762	0.443976	0.500003
C68	C	1.845762	0.693976	0.750003
C69	C	1.093002	-0.197625	0.000001
C70	C	1.343002	0.052375	0.250001
C71	C	1.593002	0.302375	0.500001
C72	C	1.843002	0.552375	0.750001
C73	C	1.003739	-0.264844	-0.000007
C74	C	1.253739	-0.014844	0.249993
C75	C	1.503739	0.235156	0.499993
C76	C	1.753739	0.485156	0.749993
C77	C	1.045899	-0.357407	0.084371
C78	C	1.295899	-0.107407	0.334371
C79	C	1.545899	0.142593	0.584371
C80	C	1.795899	0.392593	0.834371
C81	C	1.045935	-0.357371	-0.084353
C82	C	1.295935	-0.107371	0.165647
C83	C	1.545935	0.142629	0.415647
C84	C	1.795935	0.392629	0.665647
C85	C	1.135198	-0.288323	0.084449
C86	C	1.385198	-0.038323	0.334449
C87	C	1.635198	0.211677	0.584449
C88	C	1.885198	0.461677	0.834449
C89	C	1.135221	-0.288278	-0.084351
C90	C	1.385221	-0.038278	0.165649
C91	C	1.635221	0.211722	0.415649
C92	C	1.885221	0.461722	0.665649
C93	C	1.177446	-0.380814	0.000047
C94	C	1.427446	-0.130814	0.250047
C95	C	1.677446	0.119186	0.500047
C96	C	1.927446	0.369186	0.750047
C97	C	1.259125	0.168249	-0.000004
C98	C	1.509125	0.418249	0.249996
C99	C	1.759125	0.668249	0.499996
C100	C	2.009125	0.918249	0.749996
C101	C	1.361521	0.171010	-0.000010
C102	C	1.611521	0.421010	0.249990
C103	C	1.861521	0.671010	0.499990
C104	C	2.111521	0.921010	0.749990
C105	C	1.085393	0.410342	-0.000010
C106	C	1.335393	0.660342	0.249990
C107	C	1.585393	0.910342	0.499990
C108	C	1.835393	1.160342	0.749990
C109	C	1.088153	0.551943	-0.000015
C110	C	1.338153	0.801943	0.249985
C111	C	1.588153	1.051943	0.499985
C112	C	1.838153	1.301943	0.749985
N113	N	1.090563	0.177142	0.243538
N114	N	1.340563	0.427142	0.493538
N115	N	1.590563	0.677142	0.743538
N116	N	1.840563	0.927142	0.993538
N117	N	1.090599	0.177165	-0.243542
N118	N	1.340599	0.427165	0.006458
N119	N	1.590599	0.677165	0.256458
N120	N	1.840599	0.927165	0.506458
C121	C	1.090585	0.177166	0.663352
C122	C	1.340585	0.427166	0.913352
C123	C	1.590585	0.677166	1.163352
C124	C	1.840585	0.927166	1.413352
C125	C	1.090576	0.177164	0.546547
C126	C	1.340576	0.427164	0.796547
C127	C	1.590576	0.677164	1.046547
C128	C	1.840576	0.927164	1.296547
C129	C	1.090574	0.177155	0.453448
C130	C	1.340574	0.427155	0.703448
C131	C	1.590574	0.677155	0.953448
C132	C	1.840574	0.927155	1.203448
C133	C	1.090565	0.177151	0.336636
C134	C	1.340565	0.427151	0.586636
C135	C	1.590565	0.677151	0.836636
C136	C	1.840565	0.927151	1.086636
H137	H	0.930348	-0.214436	0.000078
H138	H	1.180348	0.035564	0.250078
H139	H	1.430348	0.285564	0.500078
H140	H	1.680348	0.535564	0.750078
F141	F	1.184517	-0.248544	0.177793
F142	F	1.434517	0.001456	0.427793
F143	F	1.684517	0.251456	0.677793
F144	F	1.934517	0.501456	0.927793
H145	H	1.250903	-0.430996	0.000095
H146	H	1.500903	-0.180996	0.250095
H147	H	1.750903	0.069004	0.500095
H148	H	2.000903	0.319004	0.750095
F149	F	0.996526	-0.397439	0.177613
F150	F	1.246526	-0.147439	0.427613
F151	F	1.496526	0.102561	0.677613
F152	F	1.746526	0.352561	0.927613
F153	F	0.996556	-0.397356	-0.177588
F154	F	1.246556	-0.147356	0.072412
F155	F	1.496556	0.102644	0.322412
F156	F	1.746556	0.352644	0.572412
F157	F	1.184556	-0.248200	-0.177596
F158	F	1.434556	0.001800	0.072404
F159	F	1.684556	0.251800	0.322404
F160	F	1.934556	0.501800	0.572404
