data_functionalizedCrystal
_audit_creation_method	'MofGen! by Chris Wilmer'
_symmetry_space_group_name_H-M	'P1'
_symmetry_Int_Tables_number	1
_symmetry_cell_setting	triclinic
loop_
_symmetry_equiv_pos_as_xyz
  x,y,z
_cell_length_a	17.699104
_cell_length_b	17.699083
_cell_length_c	9.730223
_cell_angle_alpha	89.996898
_cell_angle_beta	89.995236
_cell_angle_gamma	83.287266
loop_
_atom_site_label
_atom_site_type_symbol
_atom_site_fract_x
_atom_site_fract_y
_atom_site_fract_z
O1	O	1.004065	0.095783	-0.114320
O2	O	0.783689	0.108219	-0.114317
O3	O	0.900104	-0.008187	-0.114307
O4	O	0.887651	0.212190	-0.114331
O5	O	0.900094	-0.008185	0.114273
O6	O	0.783680	0.108221	0.114263
O7	O	1.004056	0.095785	0.114260
Zn8	Zn	0.893867	0.102004	0.150553
Zn9	Zn	0.893879	0.102001	-0.150611
O10	O	0.887642	0.212192	0.114249
C11	C	0.755488	0.107772	-0.000027
C12	C	0.671471	0.106427	-0.000025
C13	C	0.146600	0.167171	-0.000047
C14	C	0.225543	0.168430	-0.000051
C15	C	0.274161	0.100095	-0.000043
C16	C	0.243831	0.030496	-0.000045
C17	C	0.164889	0.029238	-0.000051
C18	C	0.562197	0.035569	-0.000023
C19	C	0.641144	0.036833	-0.000014
C20	C	0.622852	0.174762	-0.000023
C21	C	0.543909	0.173503	-0.000029
C22	C	0.513587	0.103905	-0.000038
C23	C	0.427987	0.102541	-0.000037
C24	C	0.359759	0.101459	-0.000035
C25	C	0.899653	-0.036383	-0.000017
C26	C	0.898314	-0.120402	-0.000016
C27	C	0.966647	-0.169017	-0.000015
C28	C	0.965385	-0.247961	-0.000027
C29	C	0.895789	-0.278287	-0.000031
C30	C	0.827451	-0.229665	-0.000036
C31	C	0.828714	-0.150723	-0.000033
C32	C	0.822356	-0.548028	-0.000047
C33	C	0.821098	-0.626976	-0.000045
C34	C	0.959026	-0.645266	-0.000041
C35	C	0.960289	-0.566324	-0.000038
C36	C	0.891952	-0.517709	-0.000051
C37	C	0.893321	-0.432110	-0.000040
C38	C	0.894419	-0.363885	-0.000031
C39	C	1.032258	0.096233	-0.000034
C40	C	1.116275	0.097578	-0.000044
C41	C	0.888093	0.240388	-0.000044
C42	C	0.889431	0.324406	-0.000054
N43	N	0.893864	0.102005	0.356089
C44	C	0.939680	0.147857	0.428004
C45	C	0.939692	0.147853	0.571887
C46	C	0.848065	0.056145	0.571928
C47	C	0.848058	0.056144	0.428047
N48	N	0.893883	0.102002	0.643853
H49	H	0.680728	-0.018817	-0.000011
H50	H	0.766711	-0.508455	-0.000056
C51	C	1.041488	0.152465	0.733638
C52	C	0.990056	0.198256	0.650933
H53	H	1.072585	0.183583	0.782428
H54	H	1.014209	0.125165	0.797085
H55	H	1.072558	0.117601	0.677483
H56	H	0.958981	0.233117	0.707089
H57	H	1.017337	0.225569	0.587478
H58	H	0.647550	0.231432	-0.000022
C59	C	0.051995	-0.033936	-0.000065
C60	C	0.131552	-0.047261	-0.000049
H61	H	0.031417	-0.081165	-0.000078
H62	H	0.035299	-0.005812	0.079639
H63	H	0.035316	-0.005802	-0.079784
H64	H	0.148231	-0.075390	0.079675
H65	H	0.148255	-0.075396	-0.079761
C66	C	1.041448	0.152469	0.266158
C67	C	0.990033	0.198260	0.348902
H68	H	1.072532	0.183588	0.217321
H69	H	1.072527	0.117608	0.322281
H70	H	1.014151	0.125166	0.202738
H71	H	1.017331	0.225558	0.412329
H72	H	0.958951	0.233134	0.292774
C73	C	0.750122	-0.051333	-0.117543
C74	C	0.753600	-0.097281	-0.000035
H75	H	0.703746	-0.018345	-0.117551
H76	H	0.791746	-0.021979	-0.117531
H77	H	0.752502	-0.082518	-0.197243
H78	H	0.751226	-0.066097	0.079665
H79	H	0.711965	-0.126638	-0.000035
H80	H	0.810770	0.018808	0.630533
C81	C	0.721325	0.026574	0.383790
C82	C	0.797687	0.005743	0.348993
H83	H	0.690232	-0.004539	0.334979
H84	H	0.714780	0.020010	0.479767
H85	H	0.707174	0.078379	0.360201
H86	H	0.811839	-0.046060	0.372592
H87	H	0.804236	0.012301	0.252995
C88	C	0.136455	0.303638	-0.000074
C89	C	0.093163	0.242289	-0.000062
H90	H	0.103465	0.350013	-0.000096
H91	H	0.167617	0.301263	0.079636
H92	H	0.167635	0.301250	-0.079786
H93	H	0.061987	0.244674	0.079656
H94	H	0.061988	0.244665	-0.079780
H95	H	0.770785	-0.254362	-0.000047
C96	C	0.553514	-0.082392	-0.117507
C97	C	0.528878	-0.040935	-0.000016
H98	H	0.532947	-0.129627	-0.117493
H99	H	0.536817	-0.054267	-0.197210
H100	H	0.607488	-0.091407	-0.117485
H101	H	0.474905	-0.031915	-0.000044
H102	H	0.545571	-0.069066	0.079707
C103	C	0.303686	0.249868	-0.117612
C104	C	0.258863	0.244937	-0.000088
H105	H	0.324247	0.297106	-0.117649
H106	H	0.343942	0.209365	-0.117591
H107	H	0.273260	0.246490	-0.197301
H108	H	0.289290	0.248309	0.079601
H109	H	0.218601	0.285451	-0.000097
H110	H	1.023320	-0.144333	-0.000004
H111	H	1.021028	-0.287541	-0.000023
H112	H	0.283422	-0.025143	-0.000047
H113	H	1.016961	-0.541638	-0.000029
H114	H	0.764421	-0.651664	-0.000045
C115	C	0.533759	0.309972	-0.000055
C116	C	0.490470	0.248619	-0.000045
H117	H	0.500766	0.356345	-0.000078
H118	H	0.564920	0.307598	0.079655
H119	H	0.564939	0.307586	-0.079767
H120	H	0.459293	0.251002	0.079673
H121	H	0.459295	0.250994	-0.079763
C122	C	1.018347	-0.774402	-0.000064
C123	C	1.034147	-0.698707	-0.000049
H124	H	1.064723	-0.807391	-0.000075
H125	H	0.989806	-0.783583	0.079639
H126	H	0.989808	-0.783569	-0.079783
H127	H	1.062682	-0.689538	0.079675
H128	H	1.062700	-0.689522	-0.079761
