data_functionalizedCrystal
_audit_creation_method	'MofGen! by Chris Wilmer'
_symmetry_space_group_name_H-M	'P1'
_symmetry_Int_Tables_number	1
_symmetry_cell_setting	triclinic
loop_
_symmetry_equiv_pos_as_xyz
  x,y,z
_cell_length_a	16.120490
_cell_length_b	12.645330
_cell_length_c	16.120297
_cell_angle_alpha	87.122770
_cell_angle_beta	90.129683
_cell_angle_gamma	92.881193
loop_
_atom_site_label
_atom_site_type_symbol
_atom_site_fract_x
_atom_site_fract_y
_atom_site_fract_z
Zn1	Zn	1.247425	0.537163	-0.534569
Zn2	Zn	1.747425	1.037163	-0.034569
Zn3	Zn	1.254369	0.705924	-0.395521
Zn4	Zn	1.754369	1.205924	0.104479
Zn5	Zn	1.115416	0.519240	-0.388489
Zn6	Zn	1.615416	1.019240	0.111511
Zn7	Zn	1.108325	0.704938	-0.527494
Zn8	Zn	1.608325	1.204938	-0.027494
O9	O	1.181384	0.616816	-0.461518
O10	O	1.681384	1.116816	0.038482
O11	O	1.364713	0.567463	-0.522028
O12	O	1.864713	1.067463	-0.022028
O13	O	1.241810	0.674072	-0.278222
O14	O	1.741810	1.174072	0.221778
O15	O	1.132988	0.373276	-0.407884
O16	O	1.632988	0.873276	0.092116
O17	O	1.369815	0.691451	-0.419870
O18	O	1.869815	1.191451	0.080130
O19	O	1.229975	0.386443	-0.515208
O20	O	1.729975	0.886443	-0.015208
O21	O	1.139722	0.536916	-0.273055
O22	O	1.639722	1.036916	0.226945
O23	O	0.998109	0.535960	-0.401024
O24	O	1.498109	1.035960	0.098976
O25	O	1.120903	0.689770	-0.644799
O26	O	1.620903	1.189770	-0.144799
O27	O	0.992899	0.672391	-0.503151
O28	O	1.492899	1.172391	-0.003151
O29	O	1.223100	0.566507	-0.649996
O30	O	1.723100	1.066507	-0.149996
O31	O	1.234935	0.854136	-0.413011
O32	O	1.734935	1.354136	0.086989
O33	O	1.127637	0.853411	-0.509970
O34	O	1.627637	1.353411	-0.009970
C35	C	0.965331	0.602124	-0.450557
C36	C	1.465331	1.102124	0.049443
C37	C	0.872902	0.595866	-0.445888
C38	C	1.372902	1.095866	0.054112
C39	C	0.659938	0.649272	-0.485741
C40	C	1.159938	1.149272	0.014259
C41	C	0.703678	0.584449	-0.437361
C42	C	1.203678	1.084449	0.062639
C43	C	0.797843	0.590803	-0.442107
C44	C	1.297843	1.090803	0.057893
C45	C	0.565764	0.642920	-0.480996
C46	C	1.065764	1.142920	0.019004
C47	C	1.181292	0.892239	-0.461505
C48	C	1.681292	1.392239	0.038495
C49	C	1.181327	1.010073	-0.461531
C50	C	1.681327	1.510073	0.038469
C51	C	1.114061	1.177254	-0.522741
C52	C	1.614061	1.677254	-0.022741
C53	C	1.113758	1.054661	-0.522517
C54	C	1.613758	1.554661	-0.022517
C55	C	1.162045	1.047687	-0.372695
C56	C	1.662045	1.547687	0.127305
C57	C	1.161620	1.170282	-0.373068
C58	C	1.661620	1.670282	0.126932
C59	C	1.268258	1.184520	-0.488469
C60	C	1.768258	1.684520	0.011531
C61	C	1.267635	1.061995	-0.490357
C62	C	1.767635	1.561995	0.009643
C63	C	1.398280	0.631567	-0.472522
C64	C	1.898280	1.131567	0.027478
C65	C	1.490708	0.637852	-0.477212
C66	C	1.990708	1.137852	0.022788
C67	C	1.170436	0.630028	-0.678413
C68	C	1.670436	1.130028	-0.178413
C69	C	1.165771	0.635658	-0.770841
C70	C	1.665771	1.135658	-0.270841
C71	C	1.181469	1.340319	-0.461552
C72	C	1.681469	1.840319	0.038448
C73	C	1.181430	1.222487	-0.461571
C74	C	1.681430	1.722487	0.038429
C75	C	1.157223	0.645911	-0.940067
C76	C	1.657223	1.145911	-0.440067
C77	C	1.205709	0.587416	-0.983830
C78	C	1.705709	1.087416	-0.483830
C79	C	1.200953	0.593120	-1.077993
C80	C	1.700953	1.093120	-0.577993
C81	C	1.161978	0.640207	-0.845895
C82	C	1.661978	1.140207	-0.345895
C83	C	1.192337	0.603583	-0.245469
C84	C	1.692337	1.103583	0.254531
C85	C	1.197163	0.597666	-0.153050
C86	C	1.697163	1.097666	0.346950
H87	H	0.693209	0.709538	-0.530719
H88	H	1.193209	1.209538	-0.030719
F89	F	1.078832	1.200557	-0.343960
F90	F	1.578832	1.700557	0.156040
F91	F	1.264650	0.516376	-0.940370
F92	F	1.764650	1.016376	-0.440370
F93	F	1.029513	1.009466	-0.498769
F94	F	1.529513	1.509466	0.001231
F95	F	1.223281	1.209037	-0.311146
F96	F	1.723281	1.709037	0.188854
H97	H	1.209761	1.018577	-0.325677
H98	H	1.709761	1.518577	0.174323
F99	F	1.128951	1.222226	-0.608930
F100	F	1.628951	1.722226	-0.108930
F101	F	0.660190	0.505675	-0.378562
F102	F	1.160190	1.005675	0.121438
H103	H	1.099400	1.011569	-0.350116
H104	H	1.599400	1.511569	0.149884
F105	F	1.336245	1.022905	-0.436830
F106	F	1.836245	1.522905	0.063170
F107	F	1.333795	1.222908	-0.430316
F108	F	1.833795	1.722908	0.069684
F109	F	1.128852	1.021766	-0.608434
F110	F	1.628852	1.521766	-0.108434
H111	H	1.049999	1.202855	-0.504781
H112	H	1.549999	1.702855	-0.004781
F113	F	1.292375	1.231785	-0.572008
F114	F	1.792375	1.731785	-0.072008
F115	F	1.286750	1.030648	-0.575841
F116	F	1.786750	1.530648	-0.075841
H117	H	1.112145	0.700271	-0.973317
H118	H	1.612145	1.200271	-0.473317
