data_functionalizedCrystal
_audit_creation_method	'MofGen! by Chris Wilmer'
_symmetry_space_group_name_H-M	'P1'
_symmetry_Int_Tables_number	1
_symmetry_cell_setting	triclinic
loop_
_symmetry_equiv_pos_as_xyz
  x,y,z
_cell_length_a	10.654550
_cell_length_b	9.065218
_cell_length_c	7.540329
_cell_angle_alpha	90.001757
_cell_angle_beta	89.999719
_cell_angle_gamma	84.750408
loop_
_atom_site_label
_atom_site_type_symbol
_atom_site_fract_x
_atom_site_fract_y
_atom_site_fract_z
O1	O	-1.668659	-0.207233	-0.147342
O2	O	-1.303259	-0.226977	-0.147374
O3	O	-1.493512	-0.002421	-0.147354
O4	O	-1.478406	-0.431789	-0.147362
O5	O	-1.493500	-0.002418	0.147611
O6	O	-1.303248	-0.226974	0.147591
O7	O	-1.668648	-0.207230	0.147623
Cu8	Cu	-1.485947	-0.217102	0.174540
Cu9	Cu	-1.485960	-0.217105	-0.174291
O10	O	-1.478395	-0.431786	0.147603
C11	C	-1.256450	-0.225526	0.000104
C12	C	-1.116989	-0.221188	0.000092
C13	C	-1.492055	0.052559	0.000126
C14	C	-1.487714	0.216378	0.000117
C15	C	-1.715457	-0.208681	0.000141
C16	C	-1.854918	-0.213019	0.000141
C17	C	-1.038027	-0.353403	0.000095
C18	C	-0.906990	-0.349319	0.000125
C19	C	-0.933890	-0.080794	0.000144
C20	C	-1.064924	-0.084879	0.000126
C21	C	-0.711763	-0.505036	0.103484
C22	C	-0.632796	-0.637258	0.103456
C23	C	-0.663442	-0.757121	0.000083
C24	C	-0.773052	-0.744769	-0.103305
C25	C	-0.852013	-0.612544	-0.103293
C26	C	-0.821368	-0.492686	0.000122
C27	C	-1.260153	0.070828	-0.103248
C28	C	-1.339116	0.203053	-0.103248
C29	C	-1.308474	0.322930	0.000114
C30	C	-1.198861	0.310592	0.103476
C31	C	-1.119898	0.178366	0.103476
C32	C	-1.150549	0.058489	0.000117
C33	C	-1.479852	-0.486766	0.000119
C34	C	-1.484193	-0.650585	0.000116
N35	N	-1.485946	-0.217099	0.419888
N36	N	-1.485970	-0.217097	-0.419639
H37	H	-1.080414	-0.464395	0.000080
H38	H	-0.599138	-0.864779	0.000064
C39	C	-1.165152	0.442460	0.217184
N40	N	-1.139766	0.541789	0.302827
H41	H	-0.941246	-0.602480	-0.187488
C42	C	-0.806751	-0.876631	-0.217026
N43	N	-0.832139	-0.975957	-0.302674
C44	C	-1.459685	0.216628	-0.216973
N45	N	-1.550496	0.226853	-0.302630
H46	H	-0.543552	-0.647306	0.187646
H47	H	-0.686811	-0.407450	0.187689
H48	H	-0.891482	0.030185	0.000182
H49	H	-1.372770	0.430600	0.000085
H50	H	-1.285118	-0.026785	-0.187410
C51	C	-0.999341	0.164780	0.217227
N52	N	-0.908547	0.154542	0.302918
