data_functionalizedCrystal
_audit_creation_method	'MofGen! by Chris Wilmer'
_symmetry_space_group_name_H-M	'P1'
_symmetry_Int_Tables_number	1
_symmetry_cell_setting	triclinic
loop_
_symmetry_equiv_pos_as_xyz
  x,y,z
_cell_length_a	18.101398
_cell_length_b	18.101395
_cell_length_c	18.101389
_cell_angle_alpha	90.016841
_cell_angle_beta	90.024327
_cell_angle_gamma	90.026371
loop_
_atom_site_label
_atom_site_type_symbol
_atom_site_fract_x
_atom_site_fract_y
_atom_site_fract_z
Zn1	Zn	1.132121	-0.295001	0.418847
Zn2	Zn	1.382121	-0.045001	0.668847
Zn3	Zn	1.632121	0.204999	0.918847
Zn4	Zn	1.882121	0.454999	1.168847
Zn5	Zn	1.132017	-0.418826	0.295009
Zn6	Zn	1.382017	-0.168826	0.545009
Zn7	Zn	1.632017	0.081174	0.795009
Zn8	Zn	1.882017	0.331174	1.045009
Zn9	Zn	1.008280	-0.294993	0.295008
Zn10	Zn	1.258280	-0.044993	0.545008
Zn11	Zn	1.508280	0.205007	0.795008
Zn12	Zn	1.758280	0.455007	1.045008
Zn13	Zn	1.008231	-0.418795	0.418797
Zn14	Zn	1.258231	-0.168795	0.668797
Zn15	Zn	1.508231	0.081205	0.918797
Zn16	Zn	1.758231	0.331205	1.168797
O17	O	1.070162	-0.356904	0.356915
O18	O	1.320162	-0.106904	0.606915
O19	O	1.570162	0.143096	0.856915
O20	O	1.820162	0.393096	1.106915
O21	O	1.235740	-0.311443	0.402440
O22	O	1.485740	-0.061443	0.652440
O23	O	1.735740	0.188557	0.902440
O24	O	1.985740	0.438557	1.152440
O25	O	1.115580	-0.402410	0.191376
O26	O	1.365580	-0.152410	0.441376
O27	O	1.615580	0.097590	0.691376
O28	O	1.865580	0.347590	0.941376
O29	O	1.024772	-0.191361	0.311456
O30	O	1.274772	0.058639	0.561456
O31	O	1.524772	0.308639	0.811456
O32	O	1.774772	0.558639	1.061456
O33	O	1.235664	-0.402417	0.311457
O34	O	1.485664	-0.152417	0.561457
O35	O	1.735664	0.097583	0.811457
O36	O	1.985664	0.347583	1.061457
O37	O	1.115757	-0.191367	0.402440
O38	O	1.365757	0.058633	0.652440
O39	O	1.615757	0.308633	0.902440
O40	O	1.865757	0.558633	1.152440
O41	O	1.024671	-0.311430	0.191375
O42	O	1.274671	-0.061430	0.441375
O43	O	1.524671	0.188570	0.691375
O44	O	1.774671	0.438570	0.941375
O45	O	0.904641	-0.311399	0.311408
O46	O	1.154641	-0.061399	0.561408
O47	O	1.404641	0.188601	0.811408
O48	O	1.654641	0.438601	1.061408
O49	O	1.024688	-0.402363	0.522437
O50	O	1.274688	-0.152363	0.772437
O51	O	1.524688	0.097637	1.022437
O52	O	1.774688	0.347637	1.272437
O53	O	0.904604	-0.402356	0.402355
O54	O	1.154604	-0.152356	0.652355
O55	O	1.404604	0.097644	0.902355
O56	O	1.654604	0.347644	1.152355
O57	O	1.115710	-0.311412	0.522473
O58	O	1.365710	-0.061412	0.772473
O59	O	1.615710	0.188588	1.022473
O60	O	1.865710	0.438588	1.272473
O61	O	1.115532	-0.522455	0.311409
O62	O	1.365532	-0.272455	0.561409
O63	O	1.615532	-0.022455	0.811409
O64	O	1.865532	0.227545	1.061409
O65	O	1.024587	-0.522432	0.402356
O66	O	1.274587	-0.272432	0.652356
O67	O	1.524587	-0.022432	0.902356
O68	O	1.774587	0.227568	1.152356
C69	C	0.877752	-0.356874	0.356877
C70	C	1.127752	-0.106874	0.606877
C71	C	1.377752	0.143126	0.856877
C72	C	1.627752	0.393126	1.106877
C73	C	0.795437	-0.356879	0.356878
C74	C	1.045437	-0.106879	0.606878
C75	C	1.295437	0.143121	0.856878
C76	C	1.545437	0.393121	1.106878
C77	C	0.496347	-0.356925	0.356940
C78	C	0.746347	-0.106925	0.606940
C79	C	0.996347	0.143075	0.856940
C80	C	1.246347	0.393075	1.106940
C81	C	0.527670	-0.299412	0.299997
C82	C	0.777670	-0.049412	0.549997
C83	C	1.027670	0.200588	0.799997
C84	C	1.277670	0.450588	1.049997
C85	C	0.613288	-0.299566	0.299754
C86	C	0.863288	-0.049566	0.549754
C87	C	1.113288	0.200434	0.799754
C88	C	1.363288	0.450434	1.049754
C89	C	0.644729	-0.356901	0.356909
C90	C	0.894729	-0.106901	0.606909
C91	C	1.144729	0.143099	0.856909
C92	C	1.394729	0.393099	1.106909
C93	C	0.613611	-0.434909	0.335587
C94	C	0.863611	-0.184909	0.585587
C95	C	1.113611	0.065091	0.835587
C96	C	1.363611	0.315091	1.085587
C97	C	0.527966	-0.434590	0.335191
C98	C	0.777966	-0.184590	0.585191
C99	C	1.027966	0.065410	0.835191
C100	C	1.277966	0.315410	1.085191
C101	C	0.527961	-0.337109	0.435339
C102	C	0.777961	-0.087109	0.685339
C103	C	1.027961	0.162891	0.935339
C104	C	1.277961	0.412891	1.185339
C105	C	0.613612	-0.335371	0.434911
C106	C	0.863612	-0.085371	0.684911
C107	C	1.113612	0.164629	0.934911
C108	C	1.363612	0.414629	1.184911
C109	C	0.728589	-0.356893	0.356893
C110	C	0.978589	-0.106893	0.606893
C111	C	1.228589	0.143107	0.856893
C112	C	1.478589	0.393107	1.106893
C113	C	0.412487	-0.356939	0.356954
C114	C	0.662487	-0.106939	0.606954
C115	C	0.912487	0.143061	0.856954
C116	C	1.162487	0.393061	1.106954
C117	C	1.070063	-0.549314	0.356893
C118	C	1.320063	-0.299314	0.606893
C119	C	1.570063	-0.049314	0.856893
C120	C	1.820063	0.200686	1.106893
C121	C	1.070088	-0.631628	0.356909
C122	C	1.320088	-0.381628	0.606909
C123	C	1.570088	-0.131628	0.856909
C124	C	1.820088	0.118372	1.106909
C125	C	1.070251	-0.930719	0.356949
C126	C	1.320251	-0.680719	0.606949
C127	C	1.570251	-0.430719	0.856949
C128	C	1.820251	-0.180719	1.106949
C129	C	1.013163	-0.899410	0.414312
C130	C	1.263163	-0.649410	0.664312
C131	C	1.513163	-0.399410	0.914312
C132	C	1.763163	-0.149410	1.164312
C133	C	1.012892	-0.813792	0.414133
C134	C	1.262892	-0.563792	0.664133
C135	C	1.512892	-0.313792	0.914133
C136	C	1.762892	-0.063792	1.164133
C137	C	1.070170	-0.782337	0.356930
C138	C	1.320170	-0.532337	0.606930
C139	C	1.570170	-0.282337	0.856930
C140	C	1.820170	-0.032337	1.106930
C141	C	1.049041	-0.813472	0.278878
C142	C	1.299041	-0.563472	0.528878
C143	C	1.549041	-0.313472	0.778878
C144	C	1.799041	-0.063472	1.028878
C145	C	1.048673	-0.899117	0.279221
C146	C	1.298673	-0.649117	0.529221
C147	C	1.548673	-0.399117	0.779221
C148	C	1.798673	-0.149117	1.029221
C149	C	1.148593	-0.899073	0.376950
C150	C	1.398593	-0.649073	0.626950
C151	C	1.648593	-0.399073	0.876950
C152	C	1.898593	-0.149073	1.126950
C153	C	1.148132	-0.813422	0.378661
C154	C	1.398132	-0.563422	0.628661
C155	C	1.648132	-0.313422	0.878661
C156	C	1.898132	-0.063422	1.128661
C157	C	1.070126	-0.698477	0.356914
C158	C	1.320126	-0.448477	0.606914
C159	C	1.570126	-0.198477	0.856914
C160	C	1.820126	0.051523	1.106914
C161	C	1.070293	-1.014579	0.356959
C162	C	1.320293	-0.764579	0.606959
C163	C	1.570293	-0.514579	0.856959
C164	C	1.820293	-0.264579	1.106959
C165	C	1.263324	-0.356934	0.356954
C166	C	1.513324	-0.106934	0.606954
C167	C	1.763324	0.143066	0.856954
C168	C	2.013324	0.393066	1.106954
C169	C	1.345638	-0.356948	0.356971
C170	C	1.595638	-0.106948	0.606971
C171	C	1.845638	0.143052	0.856971
C172	C	2.095638	0.393052	1.106971
C173	C	1.070205	-0.356885	0.550077
C174	C	1.320205	-0.106885	0.800077
C175	C	1.570205	0.143115	1.050077
C176	C	1.820205	0.393115	1.300077
C177	C	1.070223	-0.356877	0.632391
C178	C	1.320223	-0.106877	0.882391
C179	C	1.570223	0.143123	1.132391
C180	C	1.820223	0.393123	1.382391
C181	C	1.070282	-0.163742	0.356953
C182	C	1.320282	0.086258	0.606953
C183	C	1.570282	0.336258	0.856953
C184	C	1.820282	0.586258	1.106953
C185	C	1.070333	-0.081428	0.356970
C186	C	1.320333	0.168572	0.606970
C187	C	1.570333	0.418572	0.856970
C188	C	1.820333	0.668572	1.106970
C189	C	1.070162	-0.356869	0.164505
C190	C	1.320162	-0.106869	0.414505
C191	C	1.570162	0.143131	0.664505
C192	C	1.820162	0.393131	0.914505
C193	C	1.070287	-0.356668	0.082191
C194	C	1.320287	-0.106668	0.332191
C195	C	1.570287	0.143332	0.582191
C196	C	1.820287	0.393332	0.832191
C197	C	1.070266	-0.356738	0.931482
C198	C	1.320266	-0.106738	1.181482
C199	C	1.570266	0.143262	1.431482
C200	C	1.820266	0.393262	1.681482
C201	C	1.012801	-0.413780	0.900134
C202	C	1.262801	-0.163780	1.150134
C203	C	1.512801	0.086220	1.400134
C204	C	1.762801	0.336220	1.650134
C205	C	1.012956	-0.414045	0.814516
C206	C	1.262956	-0.164045	1.064516
C207	C	1.512956	0.085955	1.314516
C208	C	1.762956	0.335955	1.564516
C209	C	1.070244	-0.356807	0.783100
C210	C	1.320244	-0.106807	1.033100
C211	C	1.570244	0.143193	1.283100
C212	C	1.820244	0.393193	1.533100
C213	C	1.148270	-0.377998	0.814206
C214	C	1.398270	-0.127998	1.064206
C215	C	1.648270	0.122002	1.314206
C216	C	1.898270	0.372002	1.564206
C217	C	1.147949	-0.378372	0.899851
C218	C	1.397949	-0.128372	1.149851
C219	C	1.647949	0.121628	1.399851
C220	C	1.897949	0.371628	1.649851
C221	C	1.050385	-0.278379	0.899905
C222	C	1.300385	-0.028379	1.149905
C223	C	1.550385	0.221621	1.399905
C224	C	1.800385	0.471621	1.649905
C225	C	1.048649	-0.278832	0.814254
C226	C	1.298649	-0.028832	1.064254
C227	C	1.548649	0.221168	1.314254
C228	C	1.798649	0.471168	1.564254
C229	C	1.070237	-0.356845	0.699240
C230	C	1.320237	-0.106845	0.949240
C231	C	1.570237	0.143155	1.199240
C232	C	1.820237	0.393155	1.449240
C233	C	1.070279	-0.356702	1.015342
C234	C	1.320279	-0.106702	1.265342
C235	C	1.570279	0.143298	1.515342
C236	C	1.820279	0.393298	1.765342
H237	H	0.635026	-0.452008	0.278892
H238	H	0.885026	-0.202008	0.528892
H239	H	1.135026	0.047992	0.778892
H240	H	1.385026	0.297992	1.028892
O241	O	1.030385	-0.785924	0.490805
O242	O	1.280385	-0.535924	0.740805
O243	O	1.530385	-0.285924	0.990805
O244	O	1.780385	-0.035924	1.240805
H245	H	1.081251	-0.751707	0.489004
H246	H	1.331251	-0.501707	0.739004
H247	H	1.581251	-0.251707	0.989004
H248	H	1.831251	-0.001707	1.239004
H249	H	1.191125	-0.919319	0.335170
H250	H	1.441125	-0.669319	0.585170
H251	H	1.691125	-0.419319	0.835170
H252	H	1.941125	-0.169319	1.085170
H253	H	0.633975	-0.478909	0.375763
H254	H	0.883975	-0.228909	0.625763
H255	H	1.133975	0.021091	0.875763
H256	H	1.383975	0.271091	1.125763
O257	O	0.501126	-0.392587	0.491547
O258	O	0.751126	-0.142587	0.741547
O259	O	1.001126	0.107413	0.991547
O260	O	1.251126	0.357413	1.241547
H261	H	0.465446	-0.434076	0.463827
H262	H	0.715446	-0.184076	0.713827
H263	H	0.965446	0.065924	0.963827
H264	H	1.215446	0.315924	1.213827
O265	O	0.499397	-0.263070	0.461023
O266	O	0.749397	-0.013070	0.711023
O267	O	0.999397	0.236930	0.961023
O268	O	1.249397	0.486930	1.211023
H269	H	0.462344	-0.239569	0.418191
H270	H	0.712344	0.010431	0.668191
H271	H	0.962344	0.260431	0.918191
H272	H	1.212344	0.510431	1.168191
H273	H	0.635017	-0.374209	0.479611
H274	H	0.885017	-0.124209	0.729611
H275	H	1.135017	0.125791	0.979611
H276	H	1.385017	0.375791	1.229611
O277	O	0.976324	-0.252814	0.928489
O278	O	1.226324	-0.002814	1.178489
O279	O	1.476324	0.247186	1.428489
O280	O	1.726324	0.497186	1.678489
H281	H	0.983468	-0.200477	0.959653
H282	H	1.233468	0.049523	1.209653
H283	H	1.483468	0.299523	1.459653
H284	H	1.733468	0.549523	1.709653
O285	O	1.174107	-0.927623	0.451060
O286	O	1.424107	-0.677623	0.701060
O287	O	1.674107	-0.427623	0.951060
O288	O	1.924107	-0.177623	1.201060
H289	H	1.229454	-0.904515	0.463892
H290	H	1.479454	-0.654515	0.713892
H291	H	1.729454	-0.404515	0.963892
H292	H	1.979454	-0.154515	1.213892
H293	H	0.506120	-0.312363	0.242242
H294	H	0.756120	-0.062363	0.492242
H295	H	1.006120	0.187637	0.742242
H296	H	1.256120	0.437637	0.992242
O297	O	0.972597	-0.257648	0.787312
O298	O	1.222597	-0.007648	1.037312
O299	O	1.472597	0.242352	1.287312
O300	O	1.722597	0.492352	1.537312
H301	H	0.950266	-0.302461	0.751878
H302	H	1.200266	-0.052461	1.001878
H303	H	1.450266	0.197539	1.251878
H304	H	1.700266	0.447539	1.501878
H305	H	0.633741	-0.312665	0.241661
H306	H	0.883741	-0.062665	0.491661
H307	H	1.133741	0.187335	0.741661
H308	H	1.383741	0.437335	0.991661
H309	H	0.954768	-0.400655	0.920720
H310	H	1.204768	-0.150655	1.170720
H311	H	1.454768	0.099345	1.420720
H312	H	1.704768	0.349345	1.670720
O313	O	0.936711	-0.927988	0.396979
O314	O	1.186711	-0.677988	0.646979
O315	O	1.436711	-0.427988	0.896979
O316	O	1.686711	-0.177988	1.146979
H317	H	0.915501	-0.959825	0.444889
H318	H	1.165501	-0.709825	0.694889
H319	H	1.415501	-0.459825	0.944889
H320	H	1.665501	-0.209825	1.194889
O321	O	0.640558	-0.259334	0.456219
O322	O	0.890558	-0.009334	0.706219
O323	O	1.140558	0.240666	0.956219
O324	O	1.390558	0.490666	1.206219
H325	H	0.675970	-0.236964	0.411449
H326	H	0.925970	0.013036	0.661449
H327	H	1.175970	0.263036	0.911449
H328	H	1.425970	0.513036	1.161449
H329	H	1.026252	-0.919970	0.472374
H330	H	1.276252	-0.669970	0.722374
H331	H	1.526252	-0.419970	0.972374
H332	H	1.776252	-0.169970	1.222374
H333	H	1.164065	-0.793071	0.436103
H334	H	1.414065	-0.543071	0.686103
H335	H	1.664065	-0.293071	0.936103
H336	H	1.914065	-0.043071	1.186103
O337	O	1.207455	-0.785090	0.327335
O338	O	1.457455	-0.535090	0.577335
O339	O	1.707455	-0.285090	0.827335
O340	O	1.957455	-0.035090	1.077335
H341	H	1.182185	-0.748246	0.285347
H342	H	1.432185	-0.498246	0.535347
H343	H	1.682185	-0.248246	0.785347
H344	H	1.932185	0.001754	1.035347
H345	H	1.087450	-0.234076	0.792868
H346	H	1.337450	0.015924	1.042868
H347	H	1.587450	0.265924	1.292868
H348	H	1.837450	0.515924	1.542868
H349	H	0.507954	-0.451397	0.277877
H350	H	0.757954	-0.201397	0.527877
H351	H	1.007954	0.048603	0.777877
H352	H	1.257954	0.298603	1.027877
O353	O	1.030000	-0.490238	0.928681
O354	O	1.280000	-0.240238	1.178681
O355	O	1.530000	0.009762	1.428681
O356	O	1.780000	0.259762	1.678681
H357	H	1.086355	-0.506467	0.910817
H358	H	1.336355	-0.256467	1.160817
H359	H	1.586355	-0.006467	1.410817
H360	H	1.836355	0.243533	1.660817
H361	H	1.192236	-0.337757	0.793859
H362	H	1.442236	-0.087757	1.043859
H363	H	1.692236	0.162243	1.293859
H364	H	1.942236	0.412243	1.543859
O365	O	0.936319	-0.396458	0.786657
O366	O	1.186319	-0.146458	1.036657
O367	O	1.436319	0.103542	1.286657
O368	O	1.686319	0.353542	1.536657
H369	H	0.896935	-0.438728	0.807208
H370	H	1.146935	-0.188728	1.057208
H371	H	1.396935	0.061272	1.307208
H372	H	1.646935	0.311272	1.557208
O373	O	1.030247	-0.491000	0.787376
O374	O	1.280247	-0.241000	1.037376
O375	O	1.530247	0.009000	1.287376
O376	O	1.780247	0.259000	1.537376
H377	H	1.038553	-0.528166	0.835424
H378	H	1.288553	-0.278166	1.085424
H379	H	1.538553	-0.028166	1.335424
H380	H	1.788553	0.221834	1.585424
O381	O	0.500507	-0.493265	0.387734
O382	O	0.750507	-0.243265	0.637734
O383	O	1.000507	0.006735	0.887734
O384	O	1.250507	0.256735	1.137734
H385	H	0.548402	-0.521748	0.413308
H386	H	0.798402	-0.271748	0.663308
H387	H	1.048402	-0.021748	0.913308
H388	H	1.298402	0.228252	1.163308
O389	O	1.170262	-0.454249	0.926333
O390	O	1.420262	-0.204249	1.176333
O391	O	1.670262	0.045751	1.426333
O392	O	1.920262	0.295751	1.676333
H393	H	1.181176	-0.490330	0.877968
H394	H	1.431176	-0.240330	1.127968
H395	H	1.681176	0.009670	1.377968
H396	H	1.931176	0.259670	1.627968
H397	H	0.954823	-0.793362	0.400884
H398	H	1.204823	-0.543362	0.650884
H399	H	1.454823	-0.293362	0.900884
H400	H	1.704823	-0.043362	1.150884
O401	O	0.972817	-0.925666	0.256787
O402	O	1.222817	-0.675666	0.506787
O403	O	1.472817	-0.425666	0.756787
O404	O	1.722817	-0.175666	1.006787
H405	H	0.936741	-0.877333	0.245799
H406	H	1.186741	-0.627333	0.495799
H407	H	1.436741	-0.377333	0.745799
H408	H	1.686741	-0.127333	0.995799
H409	H	1.192217	-0.338629	0.920590
H410	H	1.442217	-0.088629	1.170590
H411	H	1.692217	0.161371	1.420590
H412	H	1.942217	0.411371	1.670590
H413	H	0.992380	-0.792080	0.261633
H414	H	1.242380	-0.542080	0.511633
H415	H	1.492380	-0.292080	0.761633
H416	H	1.742380	-0.042080	1.011633
H417	H	1.088449	-0.919830	0.235023
H418	H	1.338449	-0.669830	0.485023
H419	H	1.588449	-0.419830	0.735023
H420	H	1.838449	-0.169830	0.985023
O421	O	1.170987	-0.453070	0.785818
O422	O	1.420987	-0.203070	1.035818
O423	O	1.670987	0.046930	1.285818
O424	O	1.920987	0.296930	1.535818
H425	H	1.126836	-0.475409	0.749563
H426	H	1.376836	-0.225409	0.999563
H427	H	1.626836	0.024591	1.249563
H428	H	1.876836	0.274591	1.499563
H429	H	0.507099	-0.241388	0.313215
H430	H	0.757099	0.008612	0.563215
H431	H	1.007099	0.258612	0.813215
H432	H	1.257099	0.508612	1.063215
O433	O	0.641168	-0.222939	0.317433
O434	O	0.891168	0.027061	0.567433
O435	O	1.141168	0.277061	0.817433
O436	O	1.391168	0.527061	1.067433
H437	H	0.593479	-0.185437	0.326232
H438	H	0.843479	0.064563	0.576232
H439	H	1.093479	0.314563	0.826232
H440	H	1.343479	0.564563	1.076232
O441	O	1.102379	-0.786489	0.220711
O442	O	1.352379	-0.536489	0.470711
O443	O	1.602379	-0.286489	0.720711
O444	O	1.852379	-0.036489	0.970711
H445	H	1.100975	-0.725225	0.218592
H446	H	1.350975	-0.475225	0.468592
H447	H	1.600975	-0.225225	0.718592
H448	H	1.850975	0.024775	0.968592
O449	O	1.105826	-0.222083	0.926759
O450	O	1.355826	0.027917	1.176759
O451	O	1.605826	0.277917	1.426759
O452	O	1.855826	0.527917	1.676759
H453	H	1.091421	-0.166916	0.904226
H454	H	1.341421	0.083084	1.154226
H455	H	1.591421	0.333084	1.404226
H456	H	1.841421	0.583084	1.654226
