data_functionalizedCrystal
_audit_creation_method	'MofGen! by Chris Wilmer'
_symmetry_space_group_name_H-M	'P1'
_symmetry_Int_Tables_number	1
_symmetry_cell_setting	triclinic
loop_
_symmetry_equiv_pos_as_xyz
  x,y,z
_cell_length_a	27.732048
_cell_length_b	13.101039
_cell_length_c	27.732048
_cell_angle_alpha	86.670590
_cell_angle_beta	97.357345
_cell_angle_gamma	86.675896
loop_
_atom_site_label
_atom_site_type_symbol
_atom_site_fract_x
_atom_site_fract_y
_atom_site_fract_z
O1	O	0.643602	-0.085092	-0.054833
O2	O	0.893602	0.164908	0.195167
O3	O	1.143602	0.414908	0.445167
O4	O	1.393602	0.664908	0.695167
O5	O	0.502810	-0.085125	-0.063577
O6	O	0.752810	0.164875	0.186423
O7	O	1.002810	0.414875	0.436423
O8	O	1.252810	0.664875	0.686423
O9	O	0.577578	-0.085088	0.011191
O10	O	0.827578	0.164912	0.261191
O11	O	1.077578	0.414912	0.511191
O12	O	1.327578	0.664912	0.761191
O13	O	0.568834	-0.085129	-0.129601
O14	O	0.818834	0.164871	0.120399
O15	O	1.068834	0.414871	0.370399
O16	O	1.318834	0.664871	0.620399
O17	O	0.572214	0.085339	0.005818
O18	O	0.822214	0.335339	0.255818
O19	O	1.072214	0.585339	0.505818
O20	O	1.322214	0.835339	0.755818
O21	O	0.497445	0.085302	-0.068951
O22	O	0.747445	0.335302	0.181049
O23	O	0.997445	0.585302	0.431049
O24	O	1.247445	0.835302	0.681049
O25	O	0.638238	0.085335	-0.060206
O26	O	0.888238	0.335335	0.189794
O27	O	1.138238	0.585335	0.439794
O28	O	1.388238	0.835335	0.689794
Zn29	Zn	0.566990	0.112378	-0.065432
Zn30	Zn	0.816990	0.362378	0.184568
Zn31	Zn	1.066990	0.612378	0.434568
Zn32	Zn	1.316990	0.862378	0.684568
Zn33	Zn	0.574058	-0.112168	-0.058352
Zn34	Zn	0.824058	0.137832	0.191648
Zn35	Zn	1.074058	0.387832	0.441648
Zn36	Zn	1.324058	0.637832	0.691648
O37	O	0.563470	0.085298	-0.134975
O38	O	0.813470	0.335298	0.115025
O39	O	1.063470	0.585298	0.365025
O40	O	1.313470	0.835298	0.615025
C41	C	0.482121	0.000085	-0.066080
C42	C	0.732121	0.250085	0.183920
C43	C	0.982121	0.500085	0.433920
C44	C	1.232121	0.750085	0.683920
C45	C	0.428466	0.000073	-0.065527
C46	C	0.678466	0.250073	0.184473
C47	C	0.928466	0.500073	0.434473
C48	C	1.178466	0.750073	0.684473
N49	N	0.562170	0.265624	-0.070263
N50	N	0.812170	0.515624	0.179737
N51	N	1.062170	0.765624	0.429737
N52	N	1.312170	1.015624	0.679737
N53	N	0.578882	-0.265414	-0.053517
N54	N	0.828882	-0.015414	0.196483
N55	N	1.078882	0.234586	0.446483
N56	N	1.328882	0.484586	0.696483
C57	C	0.089650	0.000106	-0.106232
C58	C	0.339650	0.250106	0.143768
C59	C	0.589650	0.500106	0.393768
C60	C	0.839650	0.750106	0.643768
C61	C	-0.112010	0.000115	-0.104181
C62	C	0.137990	0.250115	0.145819
C63	C	0.387990	0.500115	0.395819
C64	C	0.637990	0.750115	0.645819
O65	O	-0.143266	0.000149	-0.141403
O66	O	0.106734	0.250149	0.108597
O67	O	0.356734	0.500149	0.358597
O68	O	0.606734	0.750149	0.608597
N69	N	-0.131134	0.000127	-0.059847
N70	N	0.118866	0.250127	0.190153
N71	N	0.368866	0.500127	0.440153
N72	N	0.618866	0.750127	0.690153
C73	C	-0.099840	0.000142	-0.016021
C74	C	0.150160	0.250142	0.233979
C75	C	0.400160	0.500142	0.483979
C76	C	0.650160	0.750142	0.733979
O77	O	-0.120733	0.000162	0.021735
O78	O	0.129267	0.250162	0.271735
O79	O	0.379267	0.500162	0.521735
O80	O	0.629267	0.750162	0.771735
C81	C	0.101819	0.000140	-0.018073
C82	C	0.351819	0.250140	0.231927
C83	C	0.601819	0.500140	0.481927
C84	C	0.851819	0.750140	0.731927
C85	C	0.120941	0.000118	-0.062410
C86	C	0.370941	0.250118	0.187590
C87	C	0.620941	0.500118	0.437590
C88	C	0.870941	0.750118	0.687590
C89	C	0.108772	0.000085	-0.150566
C90	C	0.358772	0.250085	0.099434
C91	C	0.608772	0.500085	0.349434
C92	C	0.858772	0.750085	0.599434
C93	C	0.159184	0.000077	-0.151078
C94	C	0.409184	0.250077	0.098922
C95	C	0.659184	0.500077	0.348922
C96	C	0.909184	0.750077	0.598922
C97	C	0.190475	0.000090	-0.107256
C98	C	0.440475	0.250090	0.142744
C99	C	0.690475	0.500090	0.392744
C100	C	0.940475	0.750090	0.642744
C101	C	0.171353	0.000110	-0.062922
C102	C	0.421353	0.250110	0.187078
C103	C	0.671353	0.500110	0.437078
C104	C	0.921353	0.750110	0.687078
C105	C	0.133112	0.000162	0.025751
C106	C	0.383112	0.250162	0.275751
C107	C	0.633112	0.500162	0.525751
C108	C	0.883112	0.750162	0.775751
C109	C	0.183529	0.000164	0.025235
C110	C	0.433529	0.250164	0.275235
C111	C	0.683529	0.500164	0.525235
C112	C	0.933529	0.750164	0.775235
C113	C	0.202651	0.000143	-0.019103
C114	C	0.452651	0.250143	0.230897
C115	C	0.702651	0.500143	0.480897
C116	C	0.952651	0.750143	0.730897
C117	C	0.253055	0.000114	-0.019612
C118	C	0.503055	0.250114	0.230388
C119	C	0.753055	0.500114	0.480388
C120	C	1.003055	0.750114	0.730388
N121	N	0.272179	0.000103	-0.063947
N122	N	0.522179	0.250103	0.186053
N123	N	0.772179	0.500103	0.436053
N124	N	1.022179	0.750103	0.686053
C125	C	0.240889	0.000091	-0.107769
C126	C	0.490889	0.250091	0.142231
C127	C	0.740889	0.500091	0.392231
C128	C	0.990889	0.750091	0.642231
C129	C	-0.205714	0.000141	-0.014947
C130	C	0.044286	0.250141	0.235053
C131	C	0.294286	0.500141	0.485053
C132	C	0.544286	0.750141	0.735053
C133	C	-0.256128	0.000140	-0.014434
C134	C	-0.006128	0.250140	0.235566
C135	C	0.243872	0.500140	0.485566
C136	C	0.493872	0.750140	0.735566
C137	C	-0.268295	0.000115	-0.102595
C138	C	-0.018295	0.250115	0.147405
C139	C	0.231705	0.500115	0.397405
C140	C	0.481705	0.750115	0.647405
C141	C	-0.217879	0.000109	-0.103107
C142	C	0.032121	0.250109	0.146893
C143	C	0.282121	0.500109	0.396893
C144	C	0.532121	0.750109	0.646893
C145	C	-0.186590	0.000130	-0.059282
C146	C	0.063410	0.250130	0.190718
C147	C	0.313410	0.500130	0.440718
C148	C	0.563410	0.750130	0.690718
C149	C	0.346759	0.000073	-0.108841
C150	C	0.596759	0.250073	0.141159
C151	C	0.846759	0.500073	0.391159
C152	C	1.096759	0.750073	0.641159
C153	C	0.397176	0.000061	-0.109349
C154	C	0.647176	0.250061	0.140651
C155	C	0.897176	0.500061	0.390651
C156	C	1.147176	0.750061	0.640651
C157	C	0.409338	0.000091	-0.021189
C158	C	0.659338	0.250091	0.228811
C159	C	0.909338	0.500091	0.478811
C160	C	1.159338	0.750091	0.728811
C161	C	0.358925	0.000098	-0.020681
C162	C	0.608925	0.250098	0.229319
C163	C	0.858925	0.500098	0.479319
C164	C	1.108925	0.750098	0.729319
C165	C	0.327636	0.000092	-0.064511
C166	C	0.577636	0.250092	0.185489
C167	C	0.827636	0.500092	0.435489
C168	C	1.077636	0.750092	0.685489
O169	O	0.284340	0.000092	0.017589
O170	O	0.534340	0.250092	0.267589
O171	O	0.784340	0.500092	0.517589
O172	O	1.034340	0.750092	0.767589
O173	O	0.261792	0.000093	-0.145521
O174	O	0.511792	0.250093	0.104479
O175	O	0.761792	0.500093	0.354479
O176	O	1.011792	0.750093	0.604479
C177	C	0.039238	0.000114	-0.105720
C178	C	0.289238	0.250114	0.144280
C179	C	0.539238	0.500114	0.394280
C180	C	0.789238	0.750114	0.644280
C181	C	0.020116	0.000134	-0.061386
C182	C	0.270116	0.250134	0.188614
C183	C	0.520116	0.500134	0.438614
C184	C	0.770116	0.750134	0.688614
C185	C	0.051406	0.000146	-0.017564
C186	C	0.301406	0.250146	0.232436
C187	C	0.551406	0.500146	0.482436
C188	C	0.801406	0.750146	0.732436
C189	C	-0.030298	0.000133	-0.060873
C190	C	0.219702	0.250133	0.189127
C191	C	0.469702	0.500133	0.439127
C192	C	0.719702	0.750133	0.689127
C193	C	-0.061588	0.000121	-0.104695
C194	C	0.188412	0.250121	0.145305
C195	C	0.438412	0.500121	0.395305
C196	C	0.688412	0.750121	0.645305
C197	C	-0.042464	0.000109	-0.149030
C198	C	0.207536	0.250109	0.100970
C199	C	0.457536	0.500109	0.350970
C200	C	0.707536	0.750109	0.600970
C201	C	0.007948	0.000101	-0.149542
C202	C	0.257948	0.250101	0.100458
C203	C	0.507948	0.500101	0.350458
C204	C	0.757948	0.750101	0.600458
C205	C	0.032282	0.000157	0.026770
C206	C	0.282282	0.250157	0.276770
C207	C	0.532282	0.500157	0.526770
C208	C	0.782282	0.750157	0.776770
C209	C	-0.018130	0.000164	0.027279
C210	C	0.231870	0.250164	0.277279
C211	C	0.481870	0.500164	0.527279
C212	C	0.731870	0.750164	0.777279
C213	C	-0.049421	0.000152	-0.016543
C214	C	0.200579	0.250152	0.233457
C215	C	0.450579	0.500152	0.483457
C216	C	0.700579	0.750152	0.733457
C217	C	0.658927	0.000123	-0.057703
C218	C	0.908927	0.250123	0.192297
C219	C	1.158927	0.500123	0.442297
C220	C	1.408927	0.750123	0.692297
C221	C	0.712582	0.000128	-0.058256
C222	C	0.962582	0.250128	0.191744
C223	C	1.212582	0.500128	0.441744
C224	C	1.462582	0.750128	0.691744
C225	C	0.574712	0.000128	0.026511
C226	C	0.824712	0.250128	0.276511
C227	C	1.074712	0.500128	0.526511
C228	C	1.324712	0.750128	0.776511
C229	C	0.574159	0.000137	0.080166
C230	C	0.824159	0.250137	0.330166
C231	C	1.074159	0.500137	0.580166
C232	C	1.324159	0.750137	0.830166
C233	C	0.555611	0.474663	-0.076841
C234	C	0.805611	0.724663	0.173159
C235	C	1.055611	0.974663	0.423159
C236	C	1.305611	1.224663	0.673159
C237	C	0.585439	0.525553	-0.046941
C238	C	0.835439	0.775553	0.203059
C239	C	1.085439	1.025553	0.453059
C240	C	1.335439	1.275553	0.703059
C241	C	0.581790	0.641870	-0.050601
C242	C	0.831790	0.891870	0.199399
C243	C	1.081790	1.141870	0.449399
C244	C	1.331790	1.391870	0.699399
C245	C	0.559260	0.358336	-0.073181
C246	C	0.809260	0.608336	0.176819
C247	C	1.059260	0.858336	0.426819
C248	C	1.309260	1.108336	0.676819
C249	C	0.566336	0.000079	-0.150295
C250	C	0.816336	0.250079	0.099705
C251	C	1.066336	0.500079	0.349705
C252	C	1.316336	0.750079	0.599705
C253	C	0.566889	0.000064	-0.203949
C254	C	0.816889	0.250064	0.046051
C255	C	1.066889	0.500064	0.296051
C256	C	1.316889	0.750064	0.546051
C257	C	0.614864	0.000093	0.418982
C258	C	0.864864	0.250093	0.668982
C259	C	1.114864	0.500093	0.918982
C260	C	1.364864	0.750093	1.168982
C261	C	0.612814	0.000079	0.620642
C262	C	0.862814	0.250079	0.870642
C263	C	1.112814	0.500079	1.120642
C264	C	1.362814	0.750079	1.370642
O265	O	0.650036	0.000042	0.651899
O266	O	0.900036	0.250042	0.901899
O267	O	1.150036	0.500042	1.151899
O268	O	1.400036	0.750042	1.401899
N269	N	0.568479	0.000069	0.639766
N270	N	0.818479	0.250069	0.889766
N271	N	1.068479	0.500069	1.139766
N272	N	1.318479	0.750069	1.389766
C273	C	0.524654	0.000057	0.608472
C274	C	0.774654	0.250057	0.858472
C275	C	1.024654	0.500057	1.108472
C276	C	1.274654	0.750057	1.358472
O277	O	0.486898	0.000038	0.629366
O278	O	0.736898	0.250038	0.879366
O279	O	0.986898	0.500038	1.129366
O280	O	1.236898	0.750038	1.379366
C281	C	0.526705	0.000064	0.406813
C282	C	0.776705	0.250064	0.656813
C283	C	1.026705	0.500064	0.906813
C284	C	1.276705	0.750064	1.156813
C285	C	0.571043	0.000084	0.387692
C286	C	0.821043	0.250084	0.637692
C287	C	1.071043	0.500084	0.887692
C288	C	1.321043	0.750084	1.137692
C289	C	0.659198	0.000112	0.399860
C290	C	0.909198	0.250112	0.649860
C291	C	1.159198	0.500112	0.899860
C292	C	1.409198	0.750112	1.149860
C293	C	0.659710	0.000121	0.349448
C294	C	0.909710	0.250121	0.599448
C295	C	1.159710	0.500121	0.849448
C296	C	1.409710	0.750121	1.099448
C297	C	0.615888	0.000112	0.318158
C298	C	0.865888	0.250112	0.568158
C299	C	1.115888	0.500112	0.818158
C300	C	1.365888	0.750112	1.068158
C301	C	0.571554	0.000093	0.337279
C302	C	0.821554	0.250093	0.587279
C303	C	1.071554	0.500093	0.837279
C304	C	1.321554	0.750093	1.087279
C305	C	0.482881	0.000045	0.375520
C306	C	0.732881	0.250045	0.625520
C307	C	0.982881	0.500045	0.875520
C308	C	1.232881	0.750045	1.125520
C309	C	0.483397	0.000044	0.325103
C310	C	0.733397	0.250044	0.575103
C311	C	0.983397	0.500044	0.825103
C312	C	1.233397	0.750044	1.075103
C313	C	0.527735	0.000064	0.305981
C314	C	0.777735	0.250064	0.555981
C315	C	1.027735	0.500064	0.805981
C316	C	1.277735	0.750064	1.055981
C317	C	0.528245	0.000093	0.255577
C318	C	0.778245	0.250093	0.505577
C319	C	1.028245	0.500093	0.755577
C320	C	1.278245	0.750093	1.005577
N321	N	0.572579	0.000103	0.236453
N322	N	0.822579	0.250103	0.486453
N323	N	1.072579	0.500103	0.736453
N324	N	1.322579	0.750103	0.986453
C325	C	0.616401	0.000112	0.267743
C326	C	0.866401	0.250112	0.517743
C327	C	1.116401	0.500112	0.767743
C328	C	1.366401	0.750112	1.017743
C329	C	0.523580	0.000055	0.714346
C330	C	0.773580	0.250055	0.964346
C331	C	1.023580	0.500055	1.214346
C332	C	1.273580	0.750055	1.464346
C333	C	0.523067	0.000055	0.764760
C334	C	0.773067	0.250055	1.014760
C335	C	1.023067	0.500055	1.264760
C336	C	1.273067	0.750055	1.514760
C337	C	0.611227	0.000075	0.776927
C338	C	0.861227	0.250075	1.026927
C339	C	1.111227	0.500075	1.276927
C340	C	1.361227	0.750075	1.526927
C341	C	0.611740	0.000082	0.726512
C342	C	0.861740	0.250082	0.976512
C343	C	1.111740	0.500082	1.226512
C344	C	1.361740	0.750082	1.476512
C345	C	0.567915	0.000064	0.695222
C346	C	0.817915	0.250064	0.945222
C347	C	1.067915	0.500064	1.195222
C348	C	1.317915	0.750064	1.445222
C349	C	0.617473	0.000132	0.161873
C350	C	0.867473	0.250132	0.411873
C351	C	1.117473	0.500132	0.661873
C352	C	1.367473	0.750132	0.911873
C353	C	0.617981	0.000146	0.111456
C354	C	0.867981	0.250146	0.361456
C355	C	1.117981	0.500146	0.611456
C356	C	1.367981	0.750146	0.861456
C357	C	0.529821	0.000121	0.099294
C358	C	0.779821	0.250121	0.349294
C359	C	1.029821	0.500121	0.599294
C360	C	1.279821	0.750121	0.849294
C361	C	0.529313	0.000113	0.149707
C362	C	0.779313	0.250113	0.399707
C363	C	1.029313	0.500113	0.649707
C364	C	1.279313	0.750113	0.899707
C365	C	0.573143	0.000115	0.180996
C366	C	0.823143	0.250115	0.430996
C367	C	1.073143	0.500115	0.680996
C368	C	1.323143	0.750115	0.930996
O369	O	0.491043	0.000118	0.224292
O370	O	0.741043	0.250118	0.474292
O371	O	0.991043	0.500118	0.724292
O372	O	1.241043	0.750118	0.974292
O373	O	0.654153	0.000108	0.246841
O374	O	0.904153	0.250108	0.496841
O375	O	1.154153	0.500108	0.746841
O376	O	1.404153	0.750108	0.996841
C377	C	0.614352	0.000084	0.469394
C378	C	0.864352	0.250084	0.719394
C379	C	1.114352	0.500084	0.969394
C380	C	1.364352	0.750084	1.219394
C381	C	0.570019	0.000066	0.488516
C382	C	0.820019	0.250066	0.738516
C383	C	1.070019	0.500066	0.988516
C384	C	1.320019	0.750066	1.238516
C385	C	0.526197	0.000056	0.457226
C386	C	0.776197	0.250056	0.707226
C387	C	1.026197	0.500056	0.957226
C388	C	1.276197	0.750056	1.207226
C389	C	0.569506	0.000065	0.538931
C390	C	0.819506	0.250065	0.788931
C391	C	1.069506	0.500065	1.038931
C392	C	1.319506	0.750065	1.288931
C393	C	0.613327	0.000075	0.570221
C394	C	0.863327	0.250075	0.820221
C395	C	1.113327	0.500075	1.070221
C396	C	1.363327	0.750075	1.320221
C397	C	0.657662	0.000084	0.551097
C398	C	0.907662	0.250084	0.801097
C399	C	1.157662	0.500084	1.051097
C400	C	1.407662	0.750084	1.301097
C401	C	0.658174	0.000093	0.500685
C402	C	0.908174	0.250093	0.750685
C403	C	1.158174	0.500093	1.000685
C404	C	1.408174	0.750093	1.250685
C405	C	0.481862	0.000047	0.476350
C406	C	0.731862	0.250047	0.726350
C407	C	0.981862	0.500047	0.976350
C408	C	1.231862	0.750047	1.226350
C409	C	0.481353	0.000039	0.526763
C410	C	0.731353	0.250039	0.776763
C411	C	0.981353	0.500039	1.026763
C412	C	1.231353	0.750039	1.276763
C413	C	0.525175	0.000048	0.558053
C414	C	0.775175	0.250048	0.808053
C415	C	1.025175	0.500048	1.058053
C416	C	1.275175	0.750048	1.308053
H417	H	0.321288	0.000072	-0.144532
H418	H	0.571288	0.250072	0.105468
H419	H	0.821288	0.500072	0.355468
H420	H	1.071288	0.750072	0.605468
H421	H	-0.202315	0.000098	-0.139211
H422	H	0.047685	0.250098	0.110789
H423	H	0.297685	0.500098	0.360789
H424	H	0.547685	0.750098	0.610789
O425	O	0.518162	0.532652	-0.114393
O426	O	0.768162	0.782652	0.135607
O427	O	1.018162	1.032652	0.385607
O428	O	1.268162	1.282652	0.635607
H429	H	0.521143	0.616234	-0.111414
H430	H	0.771143	0.866234	0.138586
H431	H	1.021143	1.116234	0.388586
H432	H	1.271143	1.366234	0.638586
O433	O	0.482559	0.000113	0.065537
O434	O	0.732559	0.250113	0.315537
O435	O	0.982559	0.500113	0.565537
O436	O	1.232559	0.750113	0.815537
H437	H	0.451640	0.000107	0.087300
H438	H	0.701640	0.250107	0.337300
H439	H	0.951640	0.500107	0.587300
H440	H	1.201640	0.750107	0.837300
H441	H	0.412742	0.000043	-0.145455
H442	H	0.662742	0.250043	0.104545
H443	H	0.912742	0.500043	0.354545
H444	H	1.162742	0.750043	0.604545
H445	H	0.613715	0.481765	-0.018595
H446	H	0.863715	0.731765	0.231405
H447	H	1.113715	0.981765	0.481405
H448	H	1.363715	1.231765	0.731405
O449	O	0.433527	0.000019	0.547380
O450	O	0.683527	0.250019	0.797380
O451	O	0.933527	0.500019	1.047380
O452	O	1.183527	0.750019	1.297380
H453	H	0.428991	0.069481	0.567872
H454	H	0.678991	0.319481	0.817872
H455	H	0.928991	0.569481	1.067872
H456	H	1.178991	0.819481	1.317872
H457	H	0.446777	0.000022	0.391080
H458	H	0.696777	0.250022	0.641080
H459	H	0.946777	0.500022	0.891080
H460	H	1.196777	0.750022	1.141080
O461	O	0.476309	0.000042	0.680600
O462	O	0.726309	0.250042	0.930600
O463	O	0.976309	0.500042	1.180600
O464	O	1.226309	0.750042	1.430600
H465	H	0.472249	0.069503	0.655152
H466	H	0.722249	0.319503	0.905152
H467	H	0.972249	0.569503	1.155152
H468	H	1.222249	0.819503	1.405152
O469	O	-0.276748	0.000163	0.033388
O470	O	-0.026748	0.250163	0.283388
O471	O	0.223252	0.500163	0.533388
O472	O	0.473252	0.750163	0.783388
H473	H	-0.261966	-0.069287	0.056619
H474	H	-0.011966	0.180713	0.306619
H475	H	0.238034	0.430713	0.556619
H476	H	0.488034	0.680713	0.806619
H477	H	0.693344	0.000096	0.576582
H478	H	0.943344	0.250096	0.826582
H479	H	1.193344	0.500096	1.076582
H480	H	1.443344	0.750096	1.326582
O481	O	0.665804	0.000151	0.090832
O482	O	0.915804	0.250151	0.340832
O483	O	1.165804	0.500151	0.590832
O484	O	1.415804	0.750151	0.840832
H485	H	0.696189	0.000141	0.121063
H486	H	0.946189	0.250141	0.371063
H487	H	1.196189	0.500141	0.621063
H488	H	1.446189	0.750141	0.871063
H489	H	0.174748	0.000059	-0.187182
H490	H	0.424748	0.250059	0.062818
H491	H	0.674748	0.500059	0.312818
H492	H	0.924748	0.750059	0.562818
H493	H	0.653164	0.000130	0.187344
H494	H	0.903164	0.250130	0.437344
H495	H	1.153164	0.500130	0.687344
H496	H	1.403164	0.750130	0.937344
O497	O	0.434594	0.000056	0.442603
O498	O	0.684594	0.250056	0.692603
O499	O	0.934594	0.500056	0.942603
O500	O	1.184594	0.750056	1.192603
H501	H	0.403683	0.000060	0.464375
H502	H	0.653683	0.250060	0.714375
H503	H	0.903683	0.500060	0.964375
H504	H	1.153683	0.750060	1.214375
H505	H	-0.067950	0.000095	-0.184711
H506	H	0.182050	0.250095	0.065289
H507	H	0.432050	0.500095	0.315289
H508	H	0.682050	0.750095	0.565289
H509	H	0.695815	0.000133	0.333885
H510	H	0.945815	0.250133	0.583885
H511	H	1.195815	0.500133	0.833885
H512	H	1.445815	0.750133	1.083885
H513	H	0.083300	0.000079	-0.186253
H514	H	0.333300	0.250079	0.063747
H515	H	0.583300	0.500079	0.313747
H516	H	0.833300	0.750079	0.563747
O517	O	0.217277	0.000193	0.072504
O518	O	0.467277	0.250193	0.322504
O519	O	0.717277	0.500193	0.572504
O520	O	0.967277	0.750193	0.822504
H521	H	0.242723	-0.069266	0.076573
H522	H	0.492723	0.180734	0.326573
H523	H	0.742723	0.430734	0.576573
H524	H	0.992723	0.680734	0.826573
H525	H	0.694278	0.000109	0.485121
H526	H	0.944278	0.250109	0.735121
H527	H	1.194278	0.500109	0.985121
H528	H	1.444278	0.750109	1.235121
H529	H	0.694886	0.000116	0.425333
H530	H	0.944886	0.250116	0.675333
H531	H	1.194886	0.500116	0.925333
H532	H	1.444886	0.750116	1.175333
O533	O	-0.302048	0.000118	-0.149862
O534	O	-0.052048	0.250118	0.100138
O535	O	0.197952	0.500118	0.350138
O536	O	0.447952	0.750118	0.600138
H537	H	-0.340315	0.000132	-0.142053
H538	H	-0.090315	0.250132	0.107947
H539	H	0.159685	0.500132	0.357947
H540	H	0.409685	0.750132	0.607947
O541	O	0.659562	0.000083	0.705892
O542	O	0.909562	0.250083	0.955892
O543	O	1.159562	0.500083	1.205892
O544	O	1.409562	0.750083	1.455892
H545	H	0.678417	0.069545	0.716304
H546	H	0.928417	0.319545	0.966304
H547	H	1.178417	0.569545	1.216304
H548	H	1.428417	0.819545	1.466304
O549	O	-0.171967	0.000159	0.032323
O550	O	0.078033	0.250159	0.282323
O551	O	0.328033	0.500159	0.532323
O552	O	0.578033	0.750159	0.782323
H553	H	-0.193740	0.000158	0.063234
H554	H	0.056260	0.250158	0.313234
H555	H	0.306260	0.500158	0.563234
H556	H	0.556260	0.750158	0.813234
H557	H	0.646909	0.000083	0.802413
H558	H	0.896909	0.250083	1.052413
H559	H	1.146909	0.500083	1.302413
H560	H	1.396909	0.750083	1.552413
H561	H	0.486962	0.000057	0.780324
H562	H	0.736962	0.250057	1.030324
H563	H	0.986962	0.500057	1.280324
H564	H	1.236962	0.750057	1.530324
H565	H	0.447709	0.000028	0.299628
H566	H	0.697709	0.250028	0.549628
H567	H	0.947709	0.500028	0.799628
H568	H	1.197709	0.750028	1.049628
H569	H	0.117553	0.000181	0.061856
H570	H	0.367553	0.250181	0.311856
H571	H	0.617553	0.500181	0.561856
H572	H	0.867553	0.750181	0.811856
H573	H	0.343357	0.000100	0.015423
H574	H	0.593357	0.250100	0.265423
H575	H	0.843357	0.500100	0.515423
H576	H	1.093357	0.750100	0.765423
H577	H	0.493209	0.000125	0.165275
H578	H	0.743209	0.250125	0.415275
H579	H	0.993209	0.500125	0.665275
H580	H	1.243209	0.750125	0.915275
H581	H	0.434824	0.000097	0.014489
H582	H	0.684824	0.250097	0.264489
H583	H	0.934824	0.500097	0.514489
H584	H	1.184824	0.750097	0.764489
H585	H	0.023511	0.000085	-0.185646
H586	H	0.273511	0.250085	0.064354
H587	H	0.523511	0.500085	0.314354
H588	H	0.773511	0.750085	0.564354
H589	H	0.057755	0.000170	0.062456
H590	H	0.307755	0.250170	0.312456
H591	H	0.557755	0.500170	0.562456
H592	H	0.807755	0.750170	0.812456
O593	O	-0.038753	0.000197	0.075103
O594	O	0.211247	0.250197	0.325103
O595	O	0.461247	0.500197	0.575103
O596	O	0.711247	0.750197	0.825103
H597	H	-0.008521	0.000218	0.105485
H598	H	0.241479	0.250218	0.355485
H599	H	0.491479	0.500218	0.605485
H600	H	0.741479	0.750218	0.855485
