data_functionalizedCrystal
_audit_creation_method	'MofGen! by Chris Wilmer'
_symmetry_space_group_name_H-M	'P1'
_symmetry_Int_Tables_number	1
_symmetry_cell_setting	triclinic
loop_
_symmetry_equiv_pos_as_xyz
  x,y,z
_cell_length_a	10.967926
_cell_length_b	10.654551
_cell_length_c	9.482900
_cell_angle_alpha	99.428019
_cell_angle_beta	92.549900
_cell_angle_gamma	84.600089
loop_
_atom_site_label
_atom_site_type_symbol
_atom_site_fract_x
_atom_site_fract_y
_atom_site_fract_z
O1	O	1.612052	0.221773	0.282989
O2	O	1.262861	0.224528	0.195502
O3	O	1.445484	0.040734	0.241256
O4	O	1.429428	0.405566	0.237235
O5	O	1.408391	0.078224	0.473755
O6	O	1.225767	0.262017	0.428002
O7	O	1.574958	0.259263	0.515488
Cu8	Cu	1.396976	0.264063	0.492974
Cu9	Cu	1.440843	0.219727	0.218016
O10	O	1.392335	0.443056	0.469734
C11	C	1.199602	0.240239	0.300550
C12	C	1.066373	0.231186	0.267170
C13	C	0.987760	0.246571	0.372730
C14	C	0.850060	0.237215	0.338233
C15	C	1.425759	0.012633	0.357207
C16	C	1.422232	-0.126954	0.356314
C17	C	1.440797	-0.212968	0.229166
C18	C	1.437471	-0.344121	0.228340
C19	C	1.397019	-0.303233	0.481821
C20	C	1.400337	-0.172082	0.482644
C21	C	1.462692	-0.167839	0.102837
C22	C	1.481260	-0.253855	-0.024321
C23	C	1.477933	-0.385008	-0.025148
C24	C	1.456040	-0.430146	0.101183
C25	C	1.638218	0.243550	0.410438
C26	C	1.771448	0.252602	0.443808
C27	C	1.412061	0.471157	0.353780
C28	C	1.415589	0.610742	0.354664
N29	N	1.366130	0.295246	0.686366
N30	N	1.471698	0.188534	0.024627
C31	C	1.431737	0.228918	0.775002
C32	C	1.406082	0.254873	0.935992
H33	H	1.465406	-0.061051	0.103496
H34	H	1.379195	-0.339995	0.584673
O35	O	0.812552	0.276534	0.582184
C36	C	0.712715	0.289057	0.673631
H37	H	0.633985	0.237517	0.615404
H38	H	0.741956	0.245227	0.773087
H39	H	0.681476	0.394549	0.706349
O40	O	1.025273	0.207150	0.128806
C41	C	1.125099	0.194698	0.037353
H42	H	1.213104	0.167227	0.097898
H43	H	1.110075	0.117373	-0.058542
H44	H	1.132838	0.289421	-0.001250
H45	H	1.385195	-0.102044	0.586172
O46	O	1.502537	-0.209802	-0.146899
C47	C	1.501451	-0.075597	-0.118920
H48	H	1.522470	-0.043443	-0.000390
H49	H	1.573762	-0.043908	-0.185000
H50	H	1.407246	-0.030919	-0.148746
O51	O	1.028904	0.270718	0.511069
C52	C	0.973433	0.389168	0.577391
H53	H	0.884005	0.413235	0.517650
H54	H	0.953630	0.383275	0.693014
H55	H	1.037808	0.466776	0.575141
H56	H	1.453316	-0.536940	0.100495
O57	O	1.521294	0.138206	0.723140
C58	C	1.469634	0.044082	0.622149
H59	H	1.379683	0.086160	0.577014
H60	H	1.535847	0.010122	0.531616
H61	H	1.451600	-0.040147	0.676151
O62	O	1.495742	-0.468596	-0.148679
C63	C	1.391305	-0.536599	-0.182723
H64	H	1.308320	-0.479110	-0.128727
H65	H	1.374338	-0.553110	-0.303552
H66	H	1.406806	-0.632563	-0.143422
H67	H	1.546860	0.112523	0.981333
H68	H	1.290965	0.371244	0.729664
O69	O	0.808669	0.213462	0.199955
C70	C	0.724734	0.315388	0.171172
H71	H	0.742207	0.405078	0.250288
H72	H	0.736813	0.333485	0.057627
H73	H	0.627314	0.290023	0.182326
H74	H	1.330911	0.330875	0.979283
