data_functionalizedCrystal
_audit_creation_method	'MofGen! by Chris Wilmer'
_symmetry_space_group_name_H-M	'P1'
_symmetry_Int_Tables_number	1
_symmetry_cell_setting	triclinic
loop_
_symmetry_equiv_pos_as_xyz
  x,y,z
_cell_length_a	17.699083
_cell_length_b	16.176319
_cell_length_c	17.699083
_cell_angle_alpha	89.992304
_cell_angle_beta	83.283015
_cell_angle_gamma	89.998611
loop_
_atom_site_label
_atom_site_type_symbol
_atom_site_fract_x
_atom_site_fract_y
_atom_site_fract_z
O1	O	1.004079	-0.068632	0.095713
O2	O	1.504079	0.431368	0.595713
O3	O	0.783700	-0.068660	0.108166
O4	O	1.283700	0.431340	0.608166
O5	O	0.900116	-0.068638	-0.008250
O6	O	1.400116	0.431362	0.491750
O7	O	0.887663	-0.068654	0.212129
O8	O	1.387663	0.431346	0.712129
O9	O	0.900100	0.068855	-0.008257
O10	O	1.400100	0.568855	0.491743
O11	O	0.783684	0.068834	0.108158
O12	O	1.283684	0.568834	0.608158
O13	O	1.004063	0.068861	0.095706
O14	O	1.504063	0.568861	0.595706
Cu15	Cu	0.893872	0.081401	0.101931
Cu16	Cu	1.393872	0.581401	0.601931
Cu17	Cu	0.893891	-0.081200	0.101940
Cu18	Cu	1.393891	0.418800	0.601940
O19	O	0.887647	0.068839	0.212121
O20	O	1.387647	0.568839	0.712121
C21	C	0.755495	0.000084	0.107716
C22	C	1.255495	0.500084	0.607716
C23	C	0.671477	0.000073	0.106377
C24	C	1.171477	0.500073	0.606377
N25	N	0.893864	0.195767	0.101925
N26	N	1.393864	0.695767	0.601925
C27	C	0.899662	0.000109	-0.036451
C28	C	1.399662	0.500109	0.463549
C29	C	0.898323	0.000109	-0.120469
C30	C	1.398323	0.500109	0.379531
C31	C	0.622856	0.000069	0.174710
C32	C	1.122856	0.500069	0.674710
C33	C	0.543913	0.000079	0.173448
C34	C	1.043913	0.500079	0.673448
C35	C	0.513592	0.000089	0.103852
C36	C	1.013592	0.500089	0.603852
C37	C	0.562219	0.000096	0.035513
C38	C	1.062219	0.500096	0.535513
C39	C	0.641161	0.000091	0.036776
C40	C	1.141161	0.500091	0.536776
C41	C	0.243856	0.000117	0.030418
C42	C	0.743856	0.500117	0.530418
C43	C	0.164908	0.000120	0.029160
C44	C	0.664908	0.500120	0.529160
C45	C	0.146608	0.000105	0.167090
C46	C	0.646608	0.500105	0.667090
C47	C	0.225550	0.000100	0.168353
C48	C	0.725550	0.500100	0.668353
C49	C	0.274170	0.000112	0.100015
C50	C	0.774170	0.500112	0.600015
C51	C	0.359769	0.000102	0.101384
C52	C	0.859769	0.500102	0.601384
C53	C	0.427995	0.000093	0.102481
C54	C	0.927995	0.500093	0.602481
C55	C	1.032268	0.000116	0.096156
C56	C	1.532268	0.500116	0.596156
C57	C	1.116286	0.000121	0.097494
C58	C	1.616286	0.500121	0.597494
N59	N	0.893905	-0.195565	0.101941
N60	N	1.393905	0.304435	0.601941
C61	C	0.945429	0.239040	0.050397
C62	C	1.445429	0.739040	0.550397
C63	C	0.945432	0.325588	0.050396
C64	C	1.445432	0.825588	0.550396
C65	C	0.893875	0.368859	0.101927
C66	C	1.393875	0.868859	0.601927
C67	C	0.842305	0.325579	0.153457
C68	C	1.342305	0.825579	0.653457
C69	C	0.842299	0.239034	0.153454
C70	C	1.342299	0.739034	0.653454
C71	C	0.842331	0.674608	0.153472
C72	C	1.342331	1.174608	0.653472
C73	C	0.842344	0.761159	0.153473
C74	C	1.342344	1.261159	0.653473
C75	C	0.945465	0.761161	0.050414
C76	C	1.445465	1.261161	0.550414
C77	C	0.945458	0.674616	0.050410
C78	C	1.445458	1.174616	0.550410
C79	C	0.893886	0.631344	0.101937
C80	C	1.393886	1.131344	0.601937
C81	C	0.893882	0.537499	0.101937
C82	C	1.393882	1.037499	0.601937
C83	C	0.893883	0.462702	0.101932
C84	C	1.393883	0.962702	0.601932
C85	C	0.966656	0.000119	-0.169090
C86	C	1.466656	0.500119	0.330910
C87	C	0.965394	0.000111	-0.248033
C88	C	1.465394	0.500111	0.251967
C89	C	0.895798	0.000100	-0.278354
C90	C	1.395798	0.500100	0.221646
C91	C	0.827459	0.000088	-0.229727
C92	C	1.327459	0.500088	0.270273
C93	C	0.828722	0.000089	-0.150785
C94	C	1.328722	0.500089	0.349215
C95	C	0.822364	0.000080	-0.548090
C96	C	1.322364	0.500080	-0.048090
C97	C	0.821106	0.000081	-0.627038
C98	C	1.321106	0.500081	-0.127038
C99	C	0.959036	0.000102	-0.645338
C100	C	1.459036	0.500102	-0.145338
C101	C	0.960299	0.000104	-0.566396
C102	C	1.460299	0.500104	-0.066396
C103	C	0.891961	0.000087	-0.517776
C104	C	1.391961	0.500087	-0.017776
C105	C	0.893330	0.000094	-0.432177
C106	C	1.393330	0.500094	0.067823
C107	C	0.894427	0.000099	-0.363951
C108	C	1.394427	0.500099	0.136049
C109	C	0.888102	0.000091	0.240322
C110	C	1.388102	0.500091	0.740322
C111	C	0.889440	0.000085	0.324340
C112	C	1.389440	0.500085	0.824340
H113	H	0.647537	0.000060	0.231384
H114	H	1.147537	0.500060	0.731384
H115	H	0.764429	0.000074	-0.651721
H116	H	1.264429	0.500074	-0.151721
F117	F	1.000308	0.192996	-0.004447
F118	F	1.500308	0.692996	0.495553
F119	F	0.755992	0.000077	-0.099039
F120	F	1.255992	0.500077	0.400961
F121	F	0.257815	0.000085	0.242427
F122	F	0.757815	0.500085	0.742427
F123	F	1.031768	0.000117	-0.697089
F124	F	1.531768	0.500117	-0.197089
F125	F	0.492170	0.000071	0.246178
F126	F	0.992170	0.500071	0.746178
H127	H	0.800341	0.639382	0.195428
H128	H	1.300341	1.139382	0.695428
F129	F	1.000335	0.628566	-0.004433
F130	F	1.500335	1.128566	0.495567
F131	F	0.529948	0.000112	-0.038557
F132	F	1.029948	0.500112	0.461443
F133	F	0.749632	0.000061	-0.496354
F134	F	1.249632	0.500061	0.003646
H135	H	0.800323	0.360816	0.195413
H136	H	1.300323	0.860816	0.695413
H137	H	0.800309	0.203801	0.195412
H138	H	1.300309	0.703801	0.695412
F139	F	1.034373	0.000115	-0.534131
F140	F	1.534373	0.500115	-0.034131
H141	H	0.770792	0.000073	-0.254420
H142	H	1.270792	0.500073	0.245580
F143	F	1.040732	0.000138	-0.136828
F144	F	1.540732	0.500138	0.363172
F145	F	0.132641	0.000130	-0.044918
F146	F	0.632641	0.500130	0.455082
F147	F	1.038124	0.000123	-0.299776
F148	F	1.538124	0.500123	0.200224
H149	H	0.107012	0.000100	0.222734
H150	H	0.607012	0.500100	0.722734
H151	H	0.680748	0.000095	-0.018868
H152	H	1.180748	0.500095	0.481132
F153	F	0.295592	0.000129	-0.042314
F154	F	0.795592	0.500129	0.457686
H155	H	0.987456	0.796403	0.008455
H156	H	1.487456	1.296403	0.508455
F157	F	1.000312	0.371643	-0.004446
F158	F	1.500312	0.871643	0.495554
F159	F	0.787466	0.807211	0.208321
F160	F	1.287466	1.307211	0.708321
