data_functionalizedCrystal
_audit_creation_method	'MofGen! by Chris Wilmer'
_symmetry_space_group_name_H-M	'P1'
_symmetry_Int_Tables_number	1
_symmetry_cell_setting	triclinic
loop_
_symmetry_equiv_pos_as_xyz
  x,y,z
_cell_length_a	14.446369
_cell_length_b	20.875650
_cell_length_c	14.446369
_cell_angle_alpha	122.403212
_cell_angle_beta	89.999182
_cell_angle_gamma	62.447856
loop_
_atom_site_label
_atom_site_type_symbol
_atom_site_fract_x
_atom_site_fract_y
_atom_site_fract_z
Zr1	Zr	0.929237	0.701875	0.158302
O2	O	0.788561	0.835672	0.313146
O3	O	0.967408	0.568091	0.105963
O4	O	0.974539	0.701886	0.306115
O5	O	0.781440	0.701864	-0.039349
O6	O	1.126876	0.701880	0.306109
O7	O	0.781430	0.701877	0.112994
O8	O	1.114120	0.462545	-0.051926
O9	O	0.794195	0.941199	0.318687
O10	O	1.103359	0.623109	0.089521
O11	O	0.989679	0.623104	-0.024166
O12	O	0.998075	0.780631	0.211487
O13	O	0.884394	0.780625	0.097800
Zr14	Zr	1.172211	0.701845	-0.084677
Zr15	Zr	1.172196	0.701866	0.158292
Zr16	Zr	0.929252	0.701854	-0.084668
Zr17	Zr	0.938223	0.870179	0.167138
Zr18	Zr	1.163225	0.533542	-0.093514
O19	O	1.134040	0.835629	-0.032338
O20	O	1.134018	0.835659	0.313133
O21	O	0.788582	0.835643	-0.032325
O22	O	1.312887	0.568048	-0.239522
O23	O	1.312866	0.568078	0.105950
O24	O	0.967430	0.568061	-0.239508
O25	O	1.320008	0.701857	0.112973
O26	O	1.126909	0.701834	-0.232491
O27	O	0.974572	0.701840	-0.232485
O28	O	1.320018	0.701843	-0.039370
O29	O	0.987316	0.941192	0.318679
O30	O	1.114132	0.462529	-0.245055
O31	O	1.307253	0.462521	-0.245062
O32	O	1.307241	0.462538	-0.051934
O33	O	0.794207	0.941183	0.125558
O34	O	0.987328	0.941175	0.125551
O35	O	1.103374	0.623090	-0.137863
O36	O	1.217054	0.623095	-0.024175
O37	O	1.111769	0.780617	0.097791
O38	O	0.998089	0.780611	-0.015897
C39	C	0.746819	0.701872	0.036824
C40	C	0.643676	0.701876	0.036828
C41	C	1.039484	0.491339	0.025759
C42	C	1.035669	0.419889	0.022008
C43	C	1.050705	0.701886	0.340730
C44	C	1.050699	0.701895	0.443877
C45	C	0.430606	0.801214	0.113390
C46	C	0.537841	0.801281	0.113795
C47	C	0.637714	0.652536	0.086541
C48	C	0.529979	0.653167	0.087097
C49	C	0.531245	0.651106	-0.089578
C50	C	0.637314	0.652978	-0.089285
C51	C	1.354629	0.701849	0.036801
C52	C	1.457772	0.701845	0.036797
C53	C	1.008203	0.017419	-0.005930
C54	C	1.011730	0.084598	-0.002334
C55	C	1.072828	0.118191	0.058817
C56	C	1.130412	0.084597	0.116364
C57	C	1.126890	0.017415	0.112761
C58	C	1.089730	0.319113	0.075952
C59	C	1.093245	0.386301	0.079554
C60	C	0.974565	0.386296	-0.039146
C61	C	0.971044	0.319117	-0.042738
C62	C	1.028631	0.285525	0.014804
N63	N	1.076433	0.186861	0.062497
N64	N	1.025032	0.216852	0.011116
C65	C	1.061964	0.912382	0.047865
C66	C	1.065779	0.983831	0.051617
C67	C	0.983942	0.801240	0.667472
C68	C	0.984255	0.801302	0.560240
C69	C	1.171597	0.652547	0.444605
C70	C	1.171239	0.653182	0.552411
C71	C	0.997523	0.651143	0.550947
C72	C	0.995120	0.653010	0.445072
C73	C	1.050731	0.701846	0.732904
C74	C	1.050703	0.701873	0.629784
C75	C	1.343389	0.491327	0.025748
C76	C	1.442717	0.419874	0.021992
C77	C	1.039503	0.491312	-0.278159
C78	C	1.035695	0.419855	-0.385057
C79	C	1.343408	0.491301	-0.278170
C80	C	1.442743	0.419839	-0.385073
C81	C	0.758040	0.912420	0.351795
C82	C	0.658705	0.983881	0.458697
C83	C	0.758059	0.912394	0.047877
C84	C	0.658731	0.983847	0.051632
C85	C	1.061945	0.912408	0.351783
C86	C	1.065754	0.983866	0.458681
C87	C	1.430016	0.386326	0.079587
C88	C	1.523336	0.319198	0.076082
C89	C	1.629357	0.285614	0.014974
C90	C	1.642057	0.319168	-0.042622
C91	C	1.548738	0.386300	-0.039109
C92	C	1.093253	0.386290	-0.494616
C93	C	1.089671	0.319157	-0.595067
C94	C	1.028536	0.285585	-0.585957
C95	C	0.970970	0.319157	-0.476386
C96	C	0.974547	0.386293	-0.375937
C97	C	1.548741	0.386283	-0.375931
C98	C	1.642086	0.319146	-0.476368
C99	C	1.629430	0.285562	-0.585944
C100	C	1.523421	0.319125	-0.595083
C101	C	1.430078	0.386265	-0.494648
C102	C	0.552707	1.017446	0.449556
C103	C	0.459363	1.084604	0.549994
C104	C	0.472020	1.118191	0.659570
C105	C	0.578029	1.084623	0.668709
C106	C	0.671371	1.017472	0.568273
C107	C	0.671433	1.017401	-0.005952
C108	C	0.578113	1.084548	-0.002419
C109	C	0.472093	1.118135	0.058692
C110	C	0.459393	1.084577	0.116284
C111	C	0.552711	1.017436	0.112757
C112	C	1.126899	1.017416	0.449534
C113	C	1.130499	1.084550	0.549966
C114	C	1.072946	1.118136	0.659545
C115	C	1.011799	1.084579	0.668691
C116	C	1.008206	1.017443	0.568259
H117	H	0.538161	0.840190	0.081027
C118	C	1.698376	0.189461	0.074564
C119	C	1.731928	0.211813	0.011109
H120	H	1.761697	0.143894	0.072170
H121	H	1.657336	0.241849	0.152914
H122	H	1.653353	0.167466	0.041627
H123	H	1.776944	0.233814	0.044051
H124	H	1.772986	0.159415	-0.067257
C125	C	1.174117	0.914489	0.242853
C126	C	1.190172	0.980504	0.329091
H127	H	1.213180	0.891707	0.168501
H128	H	1.200842	0.866302	0.248826
H129	H	1.097437	0.940696	0.252740
H130	H	1.266851	0.954295	0.319209
H131	H	1.163452	1.028700	0.323115
C132	C	0.833487	0.516608	-0.191226
C133	C	0.911284	0.423174	-0.255511
H134	H	0.794426	0.539370	-0.116885
H135	H	0.870403	0.546208	-0.182265
H136	H	0.782857	0.527608	-0.230925
H137	H	0.961919	0.412174	-0.215815
H138	H	0.874366	0.393564	-0.264468
C139	C	0.351461	1.077804	0.422537
C140	C	0.342846	1.121483	0.539929
H141	H	0.279529	1.100567	0.416325
H142	H	0.392321	1.088801	0.387779
H143	H	0.388360	1.014421	0.383899
H144	H	0.305954	1.184865	0.578566
H145	H	0.301969	1.110493	0.574702
H146	H	0.641674	0.686817	0.178511
C147	C	1.113563	0.353322	-0.724254
C148	C	1.152963	0.282260	-0.715496
H149	H	1.152643	0.330543	-0.798597
H150	H	1.036899	0.379506	-0.714394
H151	H	1.124443	0.398103	-0.665719
H152	H	1.142076	0.237481	-0.774026
H153	H	1.229645	0.256061	-0.725368
H154	H	1.214120	0.686815	0.444262
C155	C	1.089902	0.516628	-0.447617
C156	C	1.160448	0.423193	-0.504640
H157	H	1.131385	0.539410	-0.453806
H158	H	1.034342	0.527623	-0.482376
H159	H	1.056148	0.546217	-0.367988
H160	H	1.194196	0.393603	-0.584271
H161	H	1.216028	0.412191	-0.469885
C162	C	0.914900	0.244230	-0.694682
C163	C	1.024617	0.211784	-0.696380
H164	H	0.912489	0.198668	-0.762860
H165	H	0.871877	0.259404	-0.628142
H166	H	0.885931	0.296616	-0.691911
H167	H	1.053583	0.159401	-0.699142
H168	H	1.067655	0.196598	-0.762938
C169	C	0.340931	0.797663	-0.027688
C170	C	0.360567	0.853865	0.069049
H171	H	0.297681	0.830171	-0.055058
H172	H	0.409472	0.746072	-0.087395
H173	H	0.302303	0.778641	-0.006209
H174	H	0.399202	0.872882	0.047567
H175	H	0.292014	0.905472	0.128768
H176	H	0.964941	1.111936	0.757924
C177	C	0.542199	0.732908	-0.166064
C178	C	0.639204	0.701546	-0.139480
H179	H	0.543366	0.762900	-0.197039
H180	H	0.537561	0.683033	-0.221695
H181	H	0.479883	0.774072	-0.097477
H182	H	0.701520	0.660377	-0.208069
H183	H	0.643853	0.751428	-0.083844
C184	C	0.522728	0.536433	-0.260065
C185	C	0.563030	0.552285	-0.166906
H186	H	0.542354	0.475426	-0.307799
H187	H	0.444474	0.576311	-0.231112
H188	H	0.554043	0.546798	-0.304476
H189	H	0.531709	0.541927	-0.122490
H190	H	0.641300	0.512394	-0.195860
C191	C	1.156527	1.160039	0.482578
C192	C	1.197702	1.121438	0.539899
H193	H	1.198010	1.182817	0.476369
H194	H	1.162623	1.115250	0.407096
H195	H	1.081027	1.208242	0.525408
H196	H	1.273201	1.073231	0.497065
H197	H	1.191617	1.166231	0.615394
H198	H	0.373058	1.111934	0.166039
C199	C	1.812997	0.188825	-0.523340
C200	C	1.758610	0.282260	-0.466320
H201	H	1.884935	0.166057	-0.517144
H202	H	1.772148	0.177820	-0.488584
H203	H	1.818808	0.159229	-0.602970
H204	H	1.752792	0.311857	-0.386688
H205	H	1.799469	0.293273	-0.501073
C206	C	0.806337	0.942033	0.775263
C207	C	0.863632	0.853904	0.743094
H208	H	0.732059	0.974542	0.821947
H209	H	0.841130	0.971949	0.818142
H210	H	0.806951	0.939373	0.707514
H211	H	0.863025	0.856563	0.810844
H212	H	0.828830	0.823981	0.700215
H213	H	0.482921	0.682894	-0.131602
H214	H	0.377687	0.840029	0.206135
H215	H	0.396006	1.172870	0.741343
H216	H	1.136618	0.291769	0.122808
C217	C	0.891216	1.024249	0.695721
C218	C	0.940973	0.980580	0.578327
H219	H	0.849702	1.001496	0.701940
H220	H	0.946788	1.013232	0.730459
H221	H	0.843397	1.087635	0.734374
H222	H	0.988799	0.917194	0.539677
H223	H	0.885394	0.991589	0.543574
C224	C	1.396770	0.325838	-0.702368
C225	C	1.509519	0.282209	-0.715536
H226	H	1.388193	0.303047	-0.776733
H227	H	1.360845	0.314830	-0.662690
H228	H	1.364811	0.389224	-0.658764
H229	H	1.541476	0.218822	-0.759132
H230	H	1.545457	0.293208	-0.755231
C231	C	0.440338	0.885450	0.315138
C232	C	0.537345	0.853880	0.239749
H233	H	0.440037	0.917917	0.392899
H234	H	0.377922	0.924419	0.307656
H235	H	0.437278	0.835420	0.295998
H236	H	0.540402	0.903910	0.258884
H237	H	0.599777	0.814909	0.247237
C238	C	0.545003	1.214848	0.014669
C239	C	0.592088	1.121416	-0.065744
H240	H	0.553638	1.237602	-0.024429
H241	H	0.468514	1.244461	0.051566
H242	H	0.580939	1.225840	0.071394
H243	H	0.556145	1.110424	-0.122464
H244	H	0.668591	1.091793	-0.102659
H245	H	1.728391	0.291814	-0.092374
C246	C	0.303163	1.159501	0.014035
C247	C	0.369515	1.191940	0.062572
H248	H	0.239835	1.205070	0.016437
H249	H	0.344210	1.107123	-0.064319
H250	H	0.280429	1.144327	0.057086
H251	H	0.392256	1.207109	0.019515
H252	H	0.328460	1.244335	0.140939
C253	C	0.944942	0.243643	-0.409049
C254	C	0.903781	0.282246	-0.466371
H255	H	0.903462	0.220857	-0.402861
H256	H	1.020439	0.195456	-0.451855
H257	H	0.938822	0.288442	-0.333546
H258	H	0.909909	0.237445	-0.541877
H259	H	0.828266	0.330438	-0.423565
C260	C	0.585839	0.887113	0.095604
C261	C	0.538737	0.980544	0.176042
H262	H	0.577210	0.864341	0.134678
H263	H	0.549919	0.876124	0.038875
H264	H	0.662338	0.857508	0.058719
H265	H	0.462236	1.010150	0.212921
H266	H	0.574654	0.991540	0.232792
C267	C	1.234293	0.489166	-0.393421
C268	C	1.313564	0.423142	-0.504707
H269	H	1.162364	0.511932	-0.399640
H270	H	1.241391	0.462981	-0.354535
H271	H	1.245354	0.537371	-0.350622
H272	H	1.302507	0.374934	-0.547503
H273	H	1.306462	0.449326	-0.543609
H274	H	0.909631	0.682942	0.602645
H275	H	0.542381	0.990103	0.360342
C276	C	0.522535	0.728061	0.286382
C277	C	0.464524	0.700524	0.212475
H278	H	0.482122	0.757303	0.363787
H279	H	0.593033	0.676554	0.262562
H280	H	0.531775	0.769013	0.282933
H281	H	0.455291	0.659566	0.215917
H282	H	0.394005	0.752038	0.236302
C283	C	0.675983	0.495483	-0.026435
C284	C	0.560700	0.554751	0.016294
H285	H	0.694947	0.434728	-0.070135
H286	H	0.707420	0.502943	-0.074864
H287	H	0.703762	0.508575	0.036721
H288	H	0.532922	0.541664	-0.046863
H289	H	0.529251	0.547287	0.064725
H290	H	1.075881	1.172804	0.741314
C291	C	1.177396	0.536150	0.263231
C292	C	1.241973	0.553878	0.333757
H293	H	1.220846	0.475238	0.194795
H294	H	1.116091	0.545005	0.304346
H295	H	1.151470	0.576177	0.242706
H296	H	1.267893	0.513856	0.354289
H297	H	1.303298	0.545014	0.292635
H298	H	0.757677	0.990144	0.575729
C299	C	0.982308	-0.058131	-0.190280
C300	C	0.941102	-0.019559	-0.073193
H301	H	0.940904	-0.080980	-0.231821
H302	H	0.976128	-0.013307	-0.196364
H303	H	1.057837	-0.106278	-0.222067
H304	H	0.865575	0.028592	-0.041404
H305	H	0.947272	-0.064388	-0.067103
C306	C	1.618295	0.352070	-0.221252
C307	C	1.562713	0.423158	-0.102443
H308	H	1.626923	0.374824	-0.260354
H309	H	1.689030	0.307295	-0.232067
H310	H	1.576615	0.325892	-0.251913
H311	H	1.604397	0.449332	-0.071781
H312	H	1.491967	0.467949	-0.091621
H313	H	1.559067	0.413617	-0.286718
H314	H	1.343697	0.413670	0.129362
C315	C	1.727925	0.134547	-0.765021
C316	C	1.732036	0.211761	-0.696344
H317	H	1.791268	0.088989	-0.833178
H318	H	1.726744	0.112551	-0.722334
H319	H	1.662980	0.149735	-0.786144
H320	H	1.796977	0.196574	-0.675213
H321	H	1.733228	0.233760	-0.739039
C322	C	0.853871	0.326019	-0.159474
C323	C	0.903732	0.282302	-0.109794
H324	H	0.812272	0.303320	-0.200824
H325	H	0.806129	0.389398	-0.099936
H326	H	0.909403	0.314973	-0.211371
H327	H	0.848199	0.293353	-0.057891
H328	H	0.951478	0.218908	-0.169339
C329	C	0.964428	0.187583	-0.049513
C330	C	0.948432	0.121525	-0.065580
H331	H	0.925352	0.210376	-0.088566
H332	H	0.937683	0.235756	0.031099
H333	H	1.041100	0.161410	-0.080193
H334	H	0.871761	0.147700	-0.034892
H335	H	0.975173	0.073343	-0.146208
C336	C	0.927273	0.489273	-0.086338
C337	C	0.911280	0.423214	-0.102407
H338	H	0.888209	0.512057	-0.125405
H339	H	0.900514	0.537452	-0.005728
H340	H	1.003946	0.463104	-0.117005
H341	H	0.834607	0.449385	-0.071732
H342	H	0.938034	0.375027	-0.183034
H343	H	1.512974	0.291886	0.122984
C344	C	0.487607	1.187562	0.875374
C345	C	0.591929	1.121541	0.789163
H346	H	0.496188	1.210346	0.949737
H347	H	0.449938	1.235747	0.869395
H348	H	0.445951	1.161360	0.865468
H349	H	0.633581	1.147744	0.799064
H350	H	0.629614	1.073347	0.795145
C351	C	1.247376	0.077842	0.233321
C352	C	1.197578	0.121517	0.183578
H353	H	1.288846	0.100632	0.274811
H354	H	1.191828	0.088809	0.285088
H355	H	1.295242	0.014463	0.173793
H356	H	1.149705	0.184896	0.243107
H357	H	1.253133	0.110557	0.131807
H358	H	0.757752	0.990060	-0.055723
H359	H	1.045856	0.577942	0.519653
C360	C	1.210231	0.379545	0.196503
C361	C	1.160421	0.423221	0.146764
H362	H	1.251704	0.402335	0.237986
H363	H	1.154689	0.390512	0.248277
H364	H	1.258096	0.316166	0.136973
H365	H	1.112549	0.486599	0.206294
H366	H	1.215969	0.412261	0.094986
H367	H	0.712084	0.579447	0.033219
H368	H	0.712604	0.580455	-0.150747
H369	H	1.173776	-0.009933	0.159619
H370	H	1.020697	0.840048	0.724490
C371	C	1.262492	0.728055	0.567768
C372	C	1.228303	0.700529	0.622873
H373	H	1.297714	0.757292	0.611272
H374	H	1.312982	0.676545	0.491812
H375	H	1.199961	0.769011	0.562869
H376	H	1.290836	0.659568	0.627765
H377	H	1.177811	0.752047	0.698850
C378	C	0.861046	0.641260	0.350229
C379	C	0.874839	0.701764	0.448460
H380	H	0.786783	0.671417	0.352365
H381	H	0.909792	0.619928	0.282141
H382	H	0.877190	0.591410	0.349577
H383	H	0.858703	0.751611	0.449108
H384	H	0.826077	0.723110	0.516567
H385	H	0.895355	0.840030	0.563900
H386	H	1.021346	0.840262	0.564737
H387	H	1.223958	0.580278	0.521927
H388	H	1.038285	0.580486	0.362103
