data_functionalizedCrystal
_audit_creation_method	'MofGen! by Chris Wilmer'
_symmetry_space_group_name_H-M	'P1'
_symmetry_Int_Tables_number	1
_symmetry_cell_setting	triclinic
loop_
_symmetry_equiv_pos_as_xyz
  x,y,z
_cell_length_a	16.625547
_cell_length_b	16.625545
_cell_length_c	12.759387
_cell_angle_alpha	90.033270
_cell_angle_beta	90.027132
_cell_angle_gamma	90.025495
loop_
_atom_site_label
_atom_site_type_symbol
_atom_site_fract_x
_atom_site_fract_y
_atom_site_fract_z
Zn1	Zn	1.232682	-0.320960	0.594173
Zn2	Zn	1.232572	-0.455816	0.418486
Zn3	Zn	1.097838	-0.321001	0.418489
Zn4	Zn	1.097807	-0.455755	0.594104
O5	O	1.165225	-0.388383	0.506313
O6	O	1.345499	-0.338858	0.570894
O7	O	1.214667	-0.437975	0.271465
O8	O	1.115784	-0.208163	0.441824
O9	O	1.345419	-0.437936	0.441818
O10	O	1.214853	-0.208133	0.570898
O11	O	1.115678	-0.338927	0.271468
O12	O	0.985001	-0.338867	0.441758
O13	O	1.115731	-0.437831	0.741135
O14	O	0.984978	-0.437870	0.570782
O15	O	1.214823	-0.338799	0.741185
O16	O	1.214636	-0.568640	0.441752
O17	O	1.115625	-0.568595	0.570778
C18	C	0.955734	-0.388367	0.506263
C19	C	0.866113	-0.388380	0.506267
C20	C	0.793330	-0.388381	0.506280
C21	C	0.702022	-0.388386	0.506306
C22	C	0.629245	-0.388393	0.506333
C23	C	0.537931	-0.388399	0.506358
C24	C	1.165137	-0.597874	0.506280
C25	C	1.165173	-0.687495	0.506301
C26	C	1.165205	-0.760277	0.506322
C27	C	1.165251	-0.851586	0.506345
C28	C	1.165293	-0.924362	0.506358
C29	C	1.165339	-1.015676	0.506380
C30	C	1.375533	-0.388399	0.506363
C31	C	1.465155	-0.388406	0.506385
C32	C	1.165285	-0.388304	0.780347
C33	C	1.165311	-0.388270	0.897123
C34	C	1.165334	-0.178074	0.506369
C35	C	1.165381	-0.088453	0.506393
C36	C	1.165210	-0.388403	0.233345
C37	C	1.165341	-0.388210	0.116569
C38	C	1.268503	-0.285154	0.897195
C39	C	1.320110	-0.233584	0.952092
C40	C	1.320130	-0.233555	1.061814
C41	C	1.268535	-0.285099	1.116641
C42	C	1.216928	-0.336669	1.061744
C43	C	1.216916	-0.336695	0.952020
C44	C	1.113734	-0.439780	1.061672
C45	C	1.113717	-0.439815	0.951951
C46	C	1.062139	-0.491324	1.116500
C47	C	1.010535	-0.542900	1.061603
C48	C	1.010518	-0.542928	0.951875
C49	C	1.062110	-0.491385	0.897054
H50	H	1.362116	-0.191616	0.907440
O51	O	0.960460	-0.593076	1.114745
C52	C	0.978044	-0.673451	1.087945
H53	H	1.009028	-0.675154	1.008291
H54	H	0.919830	-0.709599	1.084162
H55	H	1.019491	-0.700593	1.149709
O56	O	1.370335	-0.183434	1.114984
C57	C	1.415852	-0.137929	1.043071
H58	H	1.418615	-0.170970	0.964844
H59	H	1.479389	-0.129331	1.074804
H60	H	1.386361	-0.076689	1.031416
O61	O	1.268340	-0.285178	0.790612
C62	C	1.191077	-0.264441	0.753932
H63	H	1.144633	-0.278193	0.817139
H64	H	1.176711	-0.300823	0.680507
H65	H	1.189411	-0.197543	0.734490
O66	O	1.268675	-0.284989	1.223224
C67	C	1.325267	-0.228400	1.259921
H68	H	1.372377	-0.217134	1.196714
H69	H	1.355857	-0.252712	1.333334
H70	H	1.293332	-0.169596	1.279388
O71	O	1.062248	-0.491412	0.790471
C72	C	1.139504	-0.512162	0.753844
H73	H	1.185960	-0.498385	0.817105
H74	H	1.153855	-0.475810	0.680462
H75	H	1.141167	-0.579068	0.734346
O76	O	1.062160	-0.491446	1.223083
C77	C	1.082843	-0.568714	1.259717
H78	H	1.069025	-0.615168	1.196464
H79	H	1.046478	-0.583022	1.333106
H80	H	1.149747	-0.570432	1.279205
H81	H	0.968484	-0.584914	0.907184
