data_functionalizedCrystal
_audit_creation_method	'MofGen! by Chris Wilmer'
_symmetry_space_group_name_H-M	'P1'
_symmetry_Int_Tables_number	1
_symmetry_cell_setting	triclinic
loop_
_symmetry_equiv_pos_as_xyz
  x,y,z
_cell_length_a	14.519710
_cell_length_b	16.109301
_cell_length_c	14.586319
_cell_angle_alpha	90.005214
_cell_angle_beta	89.997436
_cell_angle_gamma	96.429187
loop_
_atom_site_label
_atom_site_type_symbol
_atom_site_fract_x
_atom_site_fract_y
_atom_site_fract_z
O1	O	1.223634	-0.108984	-0.076223
O2	O	0.955130	-0.121819	-0.076230
O3	O	1.096758	0.005617	-0.076217
O4	O	1.082006	-0.236420	-0.076236
O5	O	1.096748	0.005618	0.076264
O6	O	0.955120	-0.121817	0.076251
O7	O	1.223624	-0.108983	0.076257
Cu8	Cu	1.089371	-0.115400	0.090177
Cu9	Cu	1.089383	-0.115402	-0.090149
O10	O	1.081996	-0.236418	0.076245
C11	C	0.920766	-0.121220	0.000010
C12	C	0.818389	-0.119427	0.000008
C13	C	1.096156	0.036593	0.000024
C14	C	1.094364	0.128892	0.000025
C15	C	1.257988	-0.109582	0.000016
C16	C	1.360365	-0.111374	0.000012
C17	C	1.735247	-0.117973	0.000011
C18	C	1.630943	-0.116140	0.000011
C19	C	1.547809	-0.114674	0.000011
C20	C	1.443499	-0.112841	0.000012
C21	C	1.082599	-0.267395	0.000002
C22	C	1.084390	-0.359693	-0.000005
N23	N	1.089370	-0.115397	0.217009
C24	C	1.174238	0.351026	0.000012
C25	C	1.172547	0.437749	0.000005
C26	C	1.004510	0.418166	0.000004
C27	C	1.006202	0.331444	0.000005
C28	C	1.091068	0.297877	0.000014
C29	C	1.087686	0.471322	0.000005
C30	C	1.085852	0.565351	-0.000003
C31	C	1.092902	0.203842	0.000021
N32	N	1.089392	-0.115397	-0.216981
C33	C	1.152104	-0.058988	0.452021
C34	C	1.152106	-0.058986	0.548002
C35	C	1.026651	-0.171809	0.548000
C36	C	1.026645	-0.171807	0.452021
C37	C	1.089376	-0.115397	0.404033
C38	C	1.089385	-0.115398	0.595994
C39	C	1.089388	-0.115396	0.700061
C40	C	1.089373	-0.115398	0.299960
H41	H	1.243341	0.323699	0.000018
O42	O	0.959009	-0.232662	0.599760
H43	H	0.887119	-0.221929	0.581359
O44	O	1.262256	0.495070	0.000013
H45	H	1.265519	0.535038	-0.062141
H46	H	0.935415	0.445507	-0.000001
O47	O	0.958989	-0.232653	0.400252
H48	H	0.915379	-0.271888	0.449743
O49	O	1.219740	0.001863	0.400252
H50	H	1.291633	-0.008857	0.418659
O51	O	0.916494	0.274109	0.000017
H52	H	0.857197	0.312018	0.000028
O53	O	1.219773	0.001844	0.599764
H54	H	1.263397	0.041060	0.550267
