data_functionalizedCrystal
_audit_creation_method	'MofGen! by Chris Wilmer'
_symmetry_space_group_name_H-M	'P1'
_symmetry_Int_Tables_number	1
_symmetry_cell_setting	triclinic
loop_
_symmetry_equiv_pos_as_xyz
  x,y,z
_cell_length_a	16.625546
_cell_length_b	16.625547
_cell_length_c	14.908858
_cell_angle_alpha	93.273493
_cell_angle_beta	86.668924
_cell_angle_gamma	90.022405
loop_
_atom_site_label
_atom_site_type_symbol
_atom_site_fract_x
_atom_site_fract_y
_atom_site_fract_z
Zn1	Zn	-0.294670	1.206369	-0.510189
Zn2	Zn	-0.437299	1.214052	-0.359324
Zn3	Zn	-0.302484	1.079310	-0.359333
Zn4	Zn	-0.429467	1.071504	-0.510124
O5	O	-0.365980	1.142809	-0.434743
O6	O	-0.313598	1.320219	-0.490200
O7	O	-0.425964	1.202661	-0.233081
O8	O	-0.188613	1.096216	-0.379376
O9	O	-0.418387	1.325864	-0.379360
O10	O	-0.182872	1.189565	-0.490209
O11	O	-0.326915	1.103667	-0.233088
O12	O	-0.319321	0.965444	-0.379313
O13	O	-0.405038	1.082911	-0.636377
O14	O	-0.412615	0.959708	-0.490098
O15	O	-0.306003	1.181996	-0.636424
O16	O	-0.549094	1.195092	-0.379297
O17	O	-0.543340	1.090362	-0.490089
C18	C	-0.365967	0.933320	-0.434700
C19	C	-0.365979	0.843699	-0.434703
C20	C	-0.365980	0.770916	-0.434715
C21	C	-0.365983	0.679606	-0.434737
C22	C	-0.365990	0.606829	-0.434760
C23	C	-0.365994	0.515513	-0.434782
C24	C	-0.575473	1.142734	-0.434705
C25	C	-0.665093	1.142775	-0.434719
C26	C	-0.993264	1.142911	-0.434813
C27	C	-0.901957	1.142870	-0.434789
C28	C	-0.829182	1.142842	-0.434766
C29	C	-0.737869	1.142803	-0.434743
C30	C	-0.155668	1.142904	-0.434800
C31	C	-0.066046	1.142945	-0.434825
C32	C	-0.353776	1.130726	-0.670050
C33	C	-0.348575	1.125577	-0.770323
C34	C	-0.365994	1.353115	-0.434786
C35	C	-0.366000	1.442736	-0.434805
C36	C	-0.289677	1.066784	-0.911658
C37	C	-0.294562	1.071619	-0.817441
C38	C	-0.397704	1.174705	-0.817428
C39	C	-0.392819	1.169870	-0.911644
C40	C	-0.338804	1.115907	-0.958756
C41	C	-0.333924	1.111068	-1.052973
C42	C	-0.437061	1.214158	-1.052958
C43	C	-0.441946	1.218993	-0.958742
C44	C	-0.378079	1.154891	-0.200351
C45	C	-0.383053	1.160197	-0.100078
H46	H	-0.289943	1.067128	-1.091330
C47	C	-0.230269	1.007427	-0.963483
H48	H	-0.201707	0.978864	-0.921938
H49	H	-0.259207	0.970399	-1.000223
H50	H	-0.193228	1.036404	-1.000249
C51	C	-0.240530	1.017577	-0.765636
H52	H	-0.207669	0.984743	-0.807191
H53	H	-0.207304	1.050316	-0.728893
H54	H	-0.273287	0.984315	-0.728873
H55	H	-0.441674	1.218644	-0.779054
C56	C	-0.501359	1.278344	-0.906915
H57	H	-0.497238	1.274185	-0.844058
H58	H	-0.488768	1.331732	-0.922369
H59	H	-0.554736	1.265716	-0.922338
C60	C	-0.491100	1.268197	-1.104768
H61	H	-0.480453	1.257594	-1.167628
H62	H	-0.546076	1.257168	-1.089307
H63	H	-0.480097	1.323173	-1.089341
