data_functionalizedCrystal
_audit_creation_method	'MofGen! by Chris Wilmer'
_symmetry_space_group_name_H-M	'P1'
_symmetry_Int_Tables_number	1
_symmetry_cell_setting	triclinic
loop_
_symmetry_equiv_pos_as_xyz
  x,y,z
_cell_length_a	27.732048
_cell_length_b	10.540539
_cell_length_c	9.616153
_cell_angle_alpha	90.000094
_cell_angle_beta	89.990673
_cell_angle_gamma	96.415927
loop_
_atom_site_label
_atom_site_type_symbol
_atom_site_fract_x
_atom_site_fract_y
_atom_site_fract_z
O1	O	0.641880	-0.151021	-0.115719
O2	O	0.501231	-0.173985	-0.115703
O3	O	0.574764	0.022343	-0.115709
O4	O	0.568347	-0.347349	-0.115712
O5	O	0.574754	0.022338	0.115582
O6	O	0.501221	-0.173989	0.115588
O7	O	0.641870	-0.151026	0.115573
Zn8	Zn	0.571544	-0.162508	0.152303
Zn9	Zn	0.571557	-0.162502	-0.152433
O10	O	0.568337	-0.347354	0.115579
C11	C	0.483216	-0.173505	-0.000055
C12	C	0.429552	-0.172054	-0.000050
C13	C	0.659885	-0.151506	-0.000078
C14	C	0.713549	-0.152957	-0.000093
C15	C	0.574278	0.069623	-0.000066
C16	C	0.572838	0.210508	-0.000074
C17	C	1.051691	-0.046078	-0.000044
C18	C	1.253384	-0.051464	-0.000040
O19	O	1.284025	0.046269	0.000021
N20	N	1.273241	-0.167878	-0.000045
C21	C	1.242671	-0.282954	-0.000041
O22	O	1.264189	-0.382095	-0.000031
C23	C	1.040979	-0.277567	-0.000036
C24	C	1.021125	-0.161145	-0.000045
C25	C	1.031837	0.070334	-0.000052
C26	C	0.981416	0.071679	-0.000060
C27	C	0.950850	-0.043388	-0.000061
C28	C	0.970704	-0.159800	-0.000054
C29	C	1.010410	-0.392642	-0.000023
C30	C	0.959984	-0.391285	-0.000018
C31	C	0.940130	-0.274863	-0.000027
C32	C	0.889718	-0.273522	-0.000064
N33	N	0.869861	-0.157108	-0.000059
C34	C	0.900427	-0.042041	-0.000058
C35	C	1.348563	-0.285774	-0.000047
C36	C	1.398986	-0.287121	-0.000051
C37	C	1.409696	-0.055630	-0.000046
C38	C	1.359272	-0.054284	-0.000053
C39	C	1.328706	-0.169360	-0.000042
C40	C	0.794540	-0.039225	-0.000077
C41	C	0.744115	-0.037890	-0.000092
C42	C	0.733410	-0.269380	-0.000089
C43	C	0.783830	-0.270716	-0.000082
C44	C	0.814395	-0.155628	-0.000071
O45	O	0.859049	-0.371203	-0.000108
O46	O	0.878900	0.057086	-0.000037
C47	C	1.102111	-0.047423	-0.000035
C48	C	1.121966	-0.163836	-0.000028
C49	C	1.091400	-0.278903	-0.000029
C50	C	1.172389	-0.165183	-0.000032
C51	C	1.202955	-0.050116	-0.000030
C52	C	1.183098	0.066299	-0.000026
C53	C	1.132677	0.067644	-0.000034
C54	C	1.111256	-0.395317	-0.000034
C55	C	1.161677	-0.396653	-0.000027
C56	C	1.192243	-0.281586	-0.000026
C57	C	0.568823	-0.394633	-0.000067
C58	C	0.570263	-0.535519	-0.000069
N59	N	0.571538	-0.162512	0.360278
C60	C	0.517663	0.391539	-0.000587
C61	C	0.519123	0.244984	-0.000066
C62	C	0.598683	0.273286	0.132002
C63	C	0.596849	0.419751	0.132114
C64	C	0.597953	0.420321	-0.130908
C65	C	0.598448	0.273361	-0.132654
N66	N	0.571567	-0.162489	-0.360408
C67	C	0.532083	-0.267192	0.580651
C68	C	0.532169	-0.267574	0.419483
C69	C	0.622071	-0.190451	0.418721
C70	C	0.621856	-0.191189	0.579939
C71	C	0.560964	-0.029532	0.580191
C72	C	0.559804	-0.030447	0.418965
H73	H	0.727953	0.056919	-0.000103
C74	C	0.481443	-0.245305	0.366103
N75	N	0.443232	-0.228540	0.325904
C76	C	0.574471	0.461924	-0.266147
N77	N	0.556779	0.493256	-0.368002
H78	H	0.708514	-0.363065	-0.000096
C79	C	0.599853	0.075716	0.631691
N80	N	0.629145	0.154979	0.670490
H81	H	0.631550	-0.286277	0.378329
C82	C	1.420819	-0.415194	-0.000052
N83	N	1.437262	-0.511663	-0.000042
H84	H	0.631128	-0.288124	0.617525
C85	C	0.571029	0.456725	0.265490
N86	N	0.551578	0.484566	0.365949
H87	H	0.637611	0.250840	-0.140634
H88	H	0.652179	-0.117882	0.618925
H89	H	0.496526	0.420827	0.093601
H90	H	1.177837	-0.491464	-0.000029
C91	C	0.572926	0.216984	-0.264656
N92	N	0.553698	0.174524	-0.364078
C93	C	0.650367	0.486405	-0.132120
N94	N	0.689843	0.536187	-0.133025
C95	C	0.481200	-0.245308	0.633120
N96	N	0.442874	-0.228829	0.672659
H97	H	1.207994	0.159990	-0.000033
C98	C	1.443328	0.070945	-0.000034
N99	N	1.468662	0.166275	-0.000012
H100	H	1.086374	-0.489021	-0.000033
C101	C	1.065452	0.196929	-0.000056
N102	N	1.090769	0.292289	-0.000072
C103	C	1.337438	0.073787	-0.000047
N104	N	1.320995	0.170256	-0.000036
H105	H	0.652170	-0.116180	0.380366
C106	C	0.512225	0.007070	0.635180
N107	N	0.475512	0.034623	0.676596
C108	C	0.509581	-0.001773	0.367374
N109	N	0.471753	0.019820	0.328509
H110	H	1.323680	-0.379488	-0.000040
C111	C	0.596088	0.079638	0.364555
N112	N	0.623424	0.162551	0.323586
H113	H	0.819421	0.054491	-0.000069
H114	H	1.116518	0.162446	-0.000041
C115	C	1.032237	-0.520717	0.000010
N116	N	1.048676	-0.617191	0.000044
C117	C	0.926364	-0.517880	-0.000011
N118	N	0.901043	-0.613232	-0.000010
H119	H	0.965256	0.166482	-0.000062
H120	H	0.498635	0.202337	0.094773
C121	C	0.491645	0.186234	-0.127964
N122	N	0.470946	0.141988	-0.224298
H123	H	0.538809	-0.365324	0.621148
C124	C	0.805670	-0.398785	-0.000087
N125	N	0.822116	-0.495249	-0.000079
H126	H	0.496448	0.419219	-0.095300
C127	C	0.649037	0.486823	0.140225
N128	N	0.688344	0.537336	0.146343
H129	H	0.638130	0.252645	0.136909
H130	H	0.538984	-0.366262	0.380902
H131	H	0.580721	0.229905	0.230293
