data_functionalizedCrystal
_audit_creation_method	'MofGen! by Chris Wilmer'
_symmetry_space_group_name_H-M	'P1'
_symmetry_Int_Tables_number	1
_symmetry_cell_setting	triclinic
loop_
_symmetry_equiv_pos_as_xyz
  x,y,z
_cell_length_a	8.497374
_cell_length_b	8.497374
_cell_length_c	12.759401
_cell_angle_alpha	90.000368
_cell_angle_beta	89.998747
_cell_angle_gamma	90.005237
loop_
_atom_site_label
_atom_site_type_symbol
_atom_site_fract_x
_atom_site_fract_y
_atom_site_fract_z
Zn1	Zn	0.628323	0.892049	1.606167
Zn2	Zn	0.892068	0.628315	1.606158
Zn3	Zn	0.628297	0.628283	1.430524
Zn4	Zn	0.892055	0.892053	1.430499
O5	O	0.760186	0.760175	1.518337
O6	O	0.663325	0.857076	1.753187
O7	O	0.857073	0.407548	1.582867
O8	O	0.407538	0.663257	1.453838
O9	O	0.857098	0.663312	1.753181
O10	O	0.407557	0.857045	1.582881
O11	O	0.663281	0.407525	1.453830
O12	O	0.663269	0.663260	1.283500
O13	O	0.857076	1.112814	1.453795
O14	O	0.857051	0.857051	1.283481
O15	O	0.663313	1.112812	1.582857
O16	O	1.112829	0.663315	1.582843
O17	O	1.112819	0.857082	1.453787
C18	C	0.760157	0.760153	1.245370
C19	C	0.760182	0.760182	1.128593
C20	C	0.861246	0.860922	1.073749
C21	C	0.861266	0.860939	0.964025
C22	C	0.659154	0.659462	0.963999
C23	C	0.659127	0.659454	1.073721
C24	C	0.977939	0.977238	1.073763
C25	C	0.977959	0.977255	0.964039
C26	C	1.170066	0.760198	1.518324
C27	C	1.348710	0.760172	1.518352
C28	C	0.760188	1.171655	1.518329
C29	C	0.760205	1.350299	1.518332
C30	C	0.760216	0.760197	1.792370
C31	C	0.760229	0.760207	1.909147
H32	H	0.934395	1.093394	0.930010
F33	F	0.551609	0.552269	0.905591
F34	F	0.935419	1.136998	1.112690
F35	F	1.129577	0.919916	1.118264
H36	H	1.100097	0.944350	0.934270
H37	H	0.576821	0.577433	1.118371
