data_functionalizedCrystal
_audit_creation_method	'MofGen! by Chris Wilmer'
_symmetry_space_group_name_H-M	'P1'
_symmetry_Int_Tables_number	1
_symmetry_cell_setting	triclinic
loop_
_symmetry_equiv_pos_as_xyz
  x,y,z
_cell_length_a	11.792241
_cell_length_b	10.654550
_cell_length_c	9.730223
_cell_angle_alpha	90.004253
_cell_angle_beta	89.999084
_cell_angle_gamma	84.339173
loop_
_atom_site_label
_atom_site_type_symbol
_atom_site_fract_x
_atom_site_fract_y
_atom_site_fract_z
O1	O	-1.507304	-0.172135	-0.114156
O2	O	-1.007304	0.327865	0.385844
O3	O	-1.177004	-0.189875	-0.114188
O4	O	-0.677004	0.310125	0.385812
O5	O	-1.349749	0.001756	-0.114163
O6	O	-0.849749	0.501756	0.385837
O7	O	-1.334560	-0.363766	-0.114181
O8	O	-0.834560	0.136234	0.385819
O9	O	-1.349737	0.001761	0.114417
O10	O	-0.849737	0.501761	0.614417
O11	O	-1.176993	-0.189870	0.114392
O12	O	-0.676993	0.310130	0.614392
O13	O	-1.507293	-0.172130	0.114424
O14	O	-1.007293	0.327870	0.614424
Zn15	Zn	-1.342141	-0.180999	0.150700
Zn16	Zn	-0.842141	0.319001	0.650700
Zn17	Zn	-1.342156	-0.181006	-0.150464
Zn18	Zn	-0.842156	0.318994	0.349536
O19	O	-1.334549	-0.363761	0.114399
O20	O	-0.834549	0.136239	0.614399
C21	C	-1.348628	0.048553	0.000127
C22	C	-0.848628	0.548553	0.500127
C23	C	-1.345291	0.187987	0.000124
C24	C	-0.845291	0.687987	0.500124
C25	C	-1.134705	-0.188758	0.000098
C26	C	-0.634705	0.311242	0.500098
C27	C	-1.008684	-0.185423	0.000086
C28	C	-0.508684	0.314577	0.500086
C29	C	-1.549592	-0.173247	0.000135
C30	C	-1.049592	0.326753	0.500135
C31	C	-1.675614	-0.176582	0.000138
C32	C	-1.175614	0.323418	0.500138
C33	C	-0.777958	-0.179290	0.000126
C34	C	-0.277958	0.320710	0.500126
C35	C	-0.906351	-0.182697	0.000104
C36	C	-0.406351	0.317303	0.500104
C37	C	-1.335670	-0.410558	0.000106
C38	C	-0.835670	0.089442	0.500106
C39	C	-1.339006	-0.549992	0.000100
C40	C	-0.839006	-0.049992	0.500100
N41	N	-1.342140	-0.180994	0.356236
N42	N	-0.842140	0.319006	0.856236
C43	C	-1.447000	0.267760	0.000133
C44	C	-0.947000	0.767760	0.500133
C45	C	-1.443859	0.398772	0.000116
C46	C	-0.943859	0.898772	0.500116
C47	C	-1.237290	0.370225	0.000086
C48	C	-0.737290	0.870225	0.500086
C49	C	-1.240433	0.239215	0.000094
C50	C	-0.740433	0.739215	0.500094
N51	N	-1.342167	-0.181002	-0.356000
N52	N	-0.842167	0.318998	0.144000
C53	C	-1.418657	-0.096175	0.428173
C54	C	-0.918657	0.403825	0.928173
C55	C	-1.418668	-0.096176	0.572056
C56	C	-0.918668	0.403824	1.072056
C57	C	-1.265641	-0.265824	0.572052
C58	C	-0.765641	0.234176	1.072052
C59	C	-1.265625	-0.265816	0.428172
C60	C	-0.765625	0.234184	0.928172
H61	H	-1.532383	0.226055	0.000155
H62	H	-1.032383	0.726055	0.500155
H63	H	-1.480974	-0.027108	0.630624
H64	H	-0.980974	0.472892	1.130624
C65	C	-1.555739	0.486518	0.000135
C66	C	-1.055739	0.986518	0.500135
H67	H	-1.618634	0.437240	0.000165
H68	H	-1.118634	0.937240	0.500165
H69	H	-1.558819	0.538210	-0.079578
H70	H	-1.058819	1.038210	0.420422
H71	H	-1.558796	0.538225	0.079854
H72	H	-1.058796	1.038225	0.579854
C73	C	-1.181455	-0.359124	0.349036
C74	C	-0.681455	0.140876	0.849036
H75	H	-1.135899	-0.409655	0.412483
H76	H	-0.635899	0.090345	0.912483
H77	H	-1.133853	-0.313588	0.292921
H78	H	-0.633853	0.186412	0.792921
H79	H	-1.222694	-0.411709	0.292896
H80	H	-0.722694	0.088291	0.792896
H81	H	-1.151917	0.411951	0.000064
H82	H	-0.651917	0.911951	0.500064
C83	C	-1.128550	0.151453	0.000076
C84	C	-0.628550	0.651453	0.500076
H85	H	-1.145443	0.066093	0.000068
H86	H	-0.645443	0.566093	0.500068
H87	H	-1.085584	0.167058	0.079776
H88	H	-0.585584	0.667058	0.579776
H89	H	-1.085611	0.167054	-0.079655
H90	H	-0.585611	0.667054	0.420345
C91	C	-1.502809	-0.002864	0.349048
C92	C	-1.002809	0.497136	0.849048
H93	H	-1.548373	0.047658	0.412504
H94	H	-1.048373	0.547658	0.912504
H95	H	-1.550403	-0.048387	0.292904
H96	H	-1.050403	0.451613	0.792904
H97	H	-1.461556	0.049728	0.292939
H98	H	-0.961556	0.549728	0.792939
C99	C	-1.181493	-0.359132	0.651186
C100	C	-0.681493	0.140868	1.151186
H101	H	-1.192469	-0.347000	0.747179
H102	H	-0.692469	0.153000	1.247179
H103	H	-1.105635	-0.344930	0.627624
H104	H	-0.605635	0.155070	1.127624
H105	H	-1.194482	-0.443045	0.627586
H106	H	-0.694482	0.056955	1.127586
