data_functionalizedCrystal
_audit_creation_method	'MofGen! by Chris Wilmer'
_symmetry_space_group_name_H-M	'P1'
_symmetry_Int_Tables_number	1
_symmetry_cell_setting	triclinic
loop_
_symmetry_equiv_pos_as_xyz
  x,y,z
_cell_length_a	23.532407
_cell_length_b	23.532407
_cell_length_c	22.610064
_cell_angle_alpha	89.994072
_cell_angle_beta	89.999018
_cell_angle_gamma	82.848712
loop_
_atom_site_label
_atom_site_type_symbol
_atom_site_fract_x
_atom_site_fract_y
_atom_site_fract_z
O1	O	0.755259	0.069123	0.049153
O2	O	1.255259	0.569123	0.549153
O3	O	0.589395	0.079126	0.049163
O4	O	1.089395	0.579126	0.549163
O5	O	0.677329	-0.008807	0.049147
O6	O	1.177329	0.491193	0.549147
O7	O	0.667325	0.157056	0.049169
O8	O	1.167325	0.657056	0.549169
O9	O	0.677323	-0.008785	-0.049222
O10	O	1.177323	0.491215	0.450778
O11	O	0.589389	0.079148	-0.049206
O12	O	1.089389	0.579148	0.450794
O13	O	0.755253	0.069145	-0.049216
O14	O	1.255253	0.569145	0.450784
Zn15	Zn	0.672320	0.074150	-0.064829
Zn16	Zn	1.172320	0.574150	0.435171
Zn17	Zn	0.672328	0.074121	0.064777
Zn18	Zn	1.172328	0.574121	0.564777
O19	O	0.667319	0.157078	-0.049200
O20	O	1.167319	0.657078	0.450800
C21	C	0.568176	0.078882	-0.000020
C22	C	1.068176	0.578882	0.499980
C23	C	0.504959	0.078116	-0.000017
C24	C	1.004959	0.578116	0.499983
C25	C	0.238792	0.022921	-0.000040
C26	C	0.738792	0.522921	0.499960
C27	C	0.298192	0.023632	-0.000040
C28	C	0.798192	0.523632	0.499960
O29	O	0.334937	-0.020153	-0.000066
O30	O	0.834937	0.479847	0.499934
N31	N	0.320818	0.075909	-0.000029
N32	N	0.820818	0.575909	0.499971
C33	C	0.284041	0.127477	-0.000024
C34	C	0.784041	0.627477	0.499976
O35	O	0.308740	0.172007	-0.000015
O36	O	0.808740	0.672007	0.499985
C37	C	0.224642	0.126765	-0.000029
C38	C	0.724642	0.626765	0.499971
C39	C	0.202019	0.074485	-0.000034
C40	C	0.702019	0.574485	0.499966
C41	C	0.216169	-0.029354	-0.000046
C42	C	0.716169	0.470646	0.499954
C43	C	0.156772	-0.030066	-0.000045
C44	C	0.656772	0.469934	0.499955
C45	C	0.119999	0.021499	-0.000038
C46	C	0.619999	0.521499	0.499962
C47	C	0.142623	0.073774	-0.000033
C48	C	0.642623	0.573774	0.499967
C49	C	0.187865	0.178333	-0.000028
C50	C	0.687865	0.678333	0.499972
C51	C	0.128463	0.177616	-0.000033
C52	C	0.628463	0.677616	0.499967
C53	C	0.105840	0.125336	-0.000038
C54	C	0.605840	0.625336	0.499962
C55	C	0.046454	0.124627	-0.000025
C56	C	0.546454	0.624627	0.499975
N57	N	0.023828	0.072351	-0.000036
N58	N	0.523828	0.572351	0.499964
C59	C	0.060600	0.020787	-0.000043
C60	C	0.560600	0.520787	0.499957
C61	C	0.408783	0.128968	-0.000016
C62	C	0.908783	0.628968	0.499984
C63	C	0.468181	0.129681	-0.000007
C64	C	0.968181	0.629681	0.499993
C65	C	0.482328	0.025836	-0.000024
C66	C	0.982328	0.525836	0.499976
C67	C	0.422929	0.025124	-0.000028
C68	C	0.922929	0.525124	0.499972
C69	C	0.386157	0.076692	-0.000027
C70	C	0.886157	0.576692	0.499973
C71	C	-0.064136	0.019297	-0.000041
C72	C	0.435864	0.519297	0.499959
C73	C	-0.123538	0.018590	-0.000037
C74	C	0.376462	0.518590	0.499963
C75	C	-0.137680	0.122435	-0.000024
C76	C	0.362320	0.622435	0.499976
C77	C	-0.078284	0.123142	-0.000024
C78	C	0.421716	0.623142	0.499976
C79	C	-0.041512	0.071568	-0.000034
C80	C	0.458488	0.571568	0.499966
O81	O	0.009675	0.168390	-0.000001
O82	O	0.509675	0.668390	0.499999
O83	O	0.035892	-0.023736	-0.000060
O84	O	0.535892	0.476264	0.499940
C85	C	0.677071	-0.030012	-0.000039
C86	C	1.177071	0.469988	0.499961
C87	C	0.676305	-0.093229	-0.000043
C88	C	1.176305	0.406771	0.499957
C89	C	0.723538	-0.492332	-0.000014
C90	C	1.223538	0.007668	0.499986
C91	C	0.722827	-0.551733	-0.000009
C92	C	1.222827	-0.051733	0.499991
O93	O	0.766613	-0.588477	0.000010
O94	O	1.266613	-0.088477	0.500010
N95	N	0.670551	-0.574359	-0.000007
N96	N	1.170551	-0.074359	0.499993
C97	C	0.618982	-0.537581	-0.000002
C98	C	1.118982	-0.037581	0.499998
O99	O	0.574452	-0.562281	0.000001
O100	O	1.074452	-0.062281	0.500001
C101	C	0.619695	-0.478182	-0.000003
C102	C	1.119695	0.021818	0.499997
C103	C	0.671974	-0.455559	-0.000011
C104	C	1.171974	0.044441	0.499989
C105	C	0.775814	-0.469709	-0.000022
C106	C	1.275814	0.030291	0.499978
C107	C	0.776525	-0.410313	-0.000028
C108	C	1.276525	0.089687	0.499972
C109	C	0.724961	-0.373540	-0.000025
C110	C	1.224961	0.126460	0.499975
C111	C	0.672685	-0.396163	-0.000017
C112	C	1.172685	0.103837	0.499983
C113	C	0.568127	-0.441406	0.000006
C114	C	1.068127	0.058594	0.500006
C115	C	0.568843	-0.382003	0.000006
C116	C	1.068843	0.117997	0.500006
C117	C	0.621123	-0.359381	-0.000003
C118	C	1.121123	0.140619	0.499997
C119	C	0.621832	-0.299994	-0.000020
C120	C	1.121832	0.200006	0.499980
N121	N	0.674109	-0.277368	-0.000023
N122	N	1.174109	0.222632	0.499977
C123	C	0.725673	-0.314141	-0.000025
C124	C	1.225673	0.185859	0.499975
C125	C	0.617491	-0.662324	-0.000001
C126	C	1.117491	-0.162324	0.499999
C127	C	0.616778	-0.721722	-0.000005
C128	C	1.116778	-0.221722	0.499995
C129	C	0.720623	-0.735869	-0.000011
C130	C	1.220623	-0.235869	0.499989
C131	C	0.721335	-0.676470	-0.000011
C132	C	1.221335	-0.176470	0.499989
C133	C	0.669767	-0.639698	-0.000003
C134	C	1.169767	-0.139698	0.499997
C135	C	0.727163	-0.189404	-0.000038
C136	C	1.227163	0.310596	0.499962
C137	C	0.727869	-0.130002	-0.000046
C138	C	1.227869	0.369998	0.499954
C139	C	0.624025	-0.115860	-0.000037
C140	C	1.124025	0.384140	0.499963
C141	C	0.623318	-0.175257	-0.000032
C142	C	1.123318	0.324743	0.499968
C143	C	0.674891	-0.212028	-0.000030
C144	C	1.174891	0.287972	0.499970
O145	O	0.578069	-0.263215	-0.000037
O146	O	1.078069	0.236785	0.499963
O147	O	0.770196	-0.289433	-0.000021
O148	O	1.270196	0.210567	0.499979
C149	C	0.776472	0.069389	-0.000031
C150	C	1.276472	0.569389	0.499969
C151	C	0.839689	0.070155	-0.000031
C152	C	1.339689	0.570155	0.499969
C153	C	0.667577	0.178283	-0.000012
C154	C	1.167577	0.678283	0.499988
C155	C	0.668343	0.241500	-0.000004
C156	C	1.168343	0.741500	0.499996
N157	N	0.672319	0.074170	-0.153282
N158	N	1.172319	0.574170	0.346718
C159	C	0.633369	0.113060	-0.438122
C160	C	1.133369	0.613060	0.061878
C161	C	0.633368	0.113065	-0.376203
C162	C	1.133368	0.613065	0.123797
O163	O	0.600234	0.146156	-0.344178
O164	O	1.100234	0.646156	0.155822
N165	N	0.672315	0.074147	-0.345234
N166	N	1.172315	0.574147	0.154766
C167	C	0.711262	0.035217	-0.376188
C168	C	1.211262	0.535217	0.123812
O169	O	0.744389	0.002114	-0.344161
O170	O	1.244389	0.502114	0.155839
C171	C	0.711260	0.035209	-0.438107
C172	C	1.211260	0.535209	0.061893
C173	C	0.672315	0.074134	-0.469073
C174	C	1.172315	0.574134	0.030927
C175	C	0.594426	0.151981	-0.469088
C176	C	1.094426	0.651981	0.030912
C177	C	0.594429	0.151976	-0.531004
C178	C	1.094429	0.651976	-0.031004
C179	C	0.633374	0.113050	-0.561954
C180	C	1.133374	0.613050	-0.061954
C181	C	0.672317	0.074129	-0.530988
C182	C	1.172317	0.574129	-0.030988
C183	C	0.750204	-0.003723	-0.469060
C184	C	1.250204	0.496277	0.030940
C185	C	0.750199	-0.003728	-0.530983
C186	C	1.250199	0.496272	-0.030983
C187	C	0.711254	0.035197	-0.561949
C188	C	1.211254	0.535197	-0.061949
C189	C	0.711265	0.035198	-0.623854
C190	C	1.211265	0.535198	-0.123854
N191	N	0.672318	0.074116	-0.654823
N192	N	1.172318	0.574116	-0.154823
C193	C	0.633373	0.113042	-0.623873
C194	C	1.133373	0.613042	-0.123873
C195	C	0.711262	0.035236	-0.246155
C196	C	1.211262	0.535236	0.253845
C197	C	0.711266	0.035246	-0.184237
C198	C	1.211266	0.535246	0.315763
C199	C	0.633371	0.113093	-0.184256
C200	C	1.133371	0.613093	0.315744
C201	C	0.633370	0.113086	-0.246174
C202	C	1.133370	0.613086	0.253826
C203	C	0.672315	0.074154	-0.277123
C204	C	1.172315	0.574154	0.222877
C205	C	0.633381	0.113029	-0.753900
C206	C	1.133381	0.613029	-0.253900
C207	C	0.633388	0.113022	-0.815821
C208	C	1.133388	0.613022	-0.315821
C209	C	0.711281	0.035173	-0.815797
C210	C	1.211281	0.535173	-0.315797
C211	C	0.711276	0.035182	-0.753881
C212	C	1.211276	0.535182	-0.253881
C213	C	0.672321	0.074112	-0.722934
C214	C	1.172321	0.574112	-0.222934
O215	O	0.744380	0.002123	-0.655918
O216	O	1.244380	0.502123	-0.155918
O217	O	0.600246	0.146134	-0.655907
O218	O	1.100246	0.646134	-0.155907
N219	N	0.672334	0.074096	0.153229
N220	N	1.172334	0.574096	0.653229
H221	H	0.378846	0.170964	-0.000010
H222	H	0.878846	0.670964	0.499990
F223	F	0.513956	-0.342870	0.000015
F224	F	1.013956	0.157130	0.500015
F225	F	0.591921	0.154521	-0.151304
F226	F	1.091921	0.654521	0.348696
F227	F	0.567676	-0.199334	-0.000033
F228	F	1.067676	0.300666	0.499967
F229	F	0.552971	0.193414	-0.436157
F230	F	1.052971	0.693414	0.063843
F231	F	0.775503	-0.775016	-0.000010
F232	F	1.275503	-0.275016	0.499990
F233	F	0.561135	-0.745792	-0.000006
F234	F	1.061135	-0.245792	0.499994
F235	F	0.752725	-0.006176	-0.151287
F236	F	1.252725	0.493824	0.348713
F237	F	0.569149	-0.076714	-0.000034
F238	F	1.069149	0.423286	0.499966
H239	H	0.601674	0.144721	-0.841031
H240	H	1.101674	0.644721	-0.341031
H241	H	0.486595	0.172252	0.000005
H242	H	0.986595	0.672252	0.500005
H243	H	0.769159	-0.219337	-0.000034
H244	H	1.269159	0.280663	0.499966
F245	F	0.791655	-0.045152	-0.436116
F246	F	1.291655	0.454848	0.063884
H247	H	0.246104	-0.071347	-0.000053
H248	H	0.746104	0.428653	0.499947
F249	F	0.591921	0.154463	-0.720973
F250	F	1.091921	0.654463	-0.220973
H251	H	0.404515	-0.017447	-0.000033
H252	H	0.904515	0.482553	0.499967
F253	F	-0.176827	0.177310	-0.000013
F254	F	0.323173	0.677310	0.499987
F255	F	-0.054206	0.178783	-0.000010
F256	F	0.445794	0.678783	0.499990
F257	F	0.830701	-0.508838	-0.000024
F258	F	1.330701	-0.008838	0.499976
F259	F	0.521475	-0.029043	-0.000031
F260	F	1.021475	0.470957	0.499969
H261	H	0.601657	0.144781	-0.271383
H262	H	1.101657	0.644781	0.228617
F263	F	0.752719	-0.006200	-0.279088
F264	F	1.252719	0.493800	0.220912
F265	F	0.211929	0.233977	-0.000022
F266	F	0.711929	0.733977	0.499978
F267	F	0.791650	-0.045167	-0.563917
F268	F	1.291650	0.454833	-0.063917
H269	H	0.742995	0.003491	-0.728669
H270	H	1.242995	0.503491	-0.228669
H271	H	0.575496	-0.632386	0.000000
H272	H	1.075496	-0.132386	0.500000
F273	F	-0.147611	-0.037055	-0.000039
F274	F	0.352389	0.462945	0.499961
H275	H	0.525555	-0.459814	0.000017
H276	H	1.025555	0.040186	0.500017
F277	F	0.552975	0.193402	-0.563954
F278	F	1.052975	0.693402	-0.063954
H279	H	0.098525	0.219610	-0.000034
H280	H	0.598525	0.719610	0.499966
H281	H	0.770443	-0.111587	-0.000055
H282	H	1.270443	0.388413	0.499945
H283	H	0.742992	0.003481	-0.841006
H284	H	1.242992	0.503481	-0.341006
H285	H	0.819097	-0.391900	-0.000032
H286	H	1.319097	0.108100	0.499968
F287	F	0.132703	-0.085709	-0.000046
F288	F	0.632703	0.414291	0.499954
H289	H	-0.034204	-0.022699	-0.000049
H290	H	0.465796	0.477301	0.499951
H291	H	0.763906	-0.658055	-0.000018
H292	H	1.263906	-0.158055	0.499982
