data_functionalizedCrystal
_audit_creation_method	'MofGen! by Chris Wilmer'
_symmetry_space_group_name_H-M	'P1'
_symmetry_Int_Tables_number	1
_symmetry_cell_setting	triclinic
loop_
_symmetry_equiv_pos_as_xyz
  x,y,z
_cell_length_a	19.188937
_cell_length_b	19.188928
_cell_length_c	11.295663
_cell_angle_alpha	85.934455
_cell_angle_beta	94.088236
_cell_angle_gamma	83.145620
loop_
_atom_site_label
_atom_site_type_symbol
_atom_site_fract_x
_atom_site_fract_y
_atom_site_fract_z
O1	O	-0.091894	-0.921409	-0.099484
O2	O	-0.103625	-0.718103	-0.099386
O3	O	0.003896	-0.825621	-0.099427
O4	O	-0.199415	-0.813891	-0.099443
O5	O	0.013324	-0.835045	0.098615
O6	O	-0.094197	-0.727526	0.098656
O7	O	-0.082466	-0.930833	0.098557
Cu8	Cu	-0.087470	-0.830040	0.116689
Cu9	Cu	-0.098621	-0.818896	-0.117518
O10	O	-0.189987	-0.823315	0.098598
C11	C	-0.098531	-0.696804	-0.000352
C12	C	-0.097389	-0.619301	-0.000314
C13	C	0.034621	-0.829953	-0.000406
C14	C	0.112126	-0.828810	-0.000404
C15	C	-0.160481	-0.574378	-0.000335
C16	C	-0.159410	-0.501554	-0.000342
C17	C	-0.095245	-0.473655	-0.000352
C18	C	-0.032144	-0.518589	-0.000325
C19	C	-0.033216	-0.591412	-0.000306
N20	N	-0.049410	-0.362465	-0.067789
N21	N	-0.048396	-0.293285	-0.067809
C22	C	-0.092011	-0.254244	-0.000406
N23	N	-0.136690	-0.286993	0.067003
N24	N	-0.137707	-0.356179	0.067018
C25	C	-0.094076	-0.394691	-0.000372
C26	C	-0.153947	-0.130355	-0.000432
C27	C	-0.152873	-0.057530	-0.000432
C28	C	-0.025606	-0.074566	-0.000427
C29	C	-0.026681	-0.147390	-0.000416
C30	C	-0.090853	-0.175280	-0.000424
C31	C	0.670524	-0.825818	0.107535
C32	C	0.597700	-0.826884	0.107539
C33	C	0.556141	-0.822283	-0.000413
C34	C	0.587410	-0.816598	-0.108377
C35	C	0.660232	-0.815525	-0.108379
N36	N	0.443291	-0.859874	-0.080785
N37	N	0.374113	-0.860895	-0.080776
C38	C	0.336731	-0.825515	-0.000414
N39	N	0.371142	-0.789084	0.079957
N40	N	0.440327	-0.788066	0.079951
C41	C	0.477177	-0.823446	-0.000423
C42	C	0.226506	-0.832350	0.107549
C43	C	0.153680	-0.833412	0.107549
C44	C	0.143391	-0.823133	-0.108371
C45	C	0.216216	-0.822065	-0.108368
C46	C	0.257769	-0.826677	-0.000405
C47	C	0.779288	-0.818986	-0.000421
C48	C	0.701785	-0.820137	-0.000416
C49	C	-0.087562	0.047868	-0.000458
C50	C	-0.088707	-0.029637	-0.000440
N51	N	-0.079627	-0.837884	0.281418
N52	N	-0.106458	-0.811058	-0.282246
C53	C	-0.023136	-0.894418	0.468382
C54	C	-0.029068	-0.888475	0.343724
C55	C	-0.124259	-0.793233	0.343778
C56	C	-0.118326	-0.799176	0.468436
C57	C	-0.067762	-0.849769	0.530734
C58	C	-0.061827	-0.855708	0.655394
C59	C	-0.157020	-0.760470	0.655445
C60	C	-0.162952	-0.754528	0.530787
H61	H	-0.212735	-0.597080	-0.000344
O62	O	0.102961	-0.818524	-0.213185
C63	C	0.052486	-0.758348	-0.219574
H64	H	0.043331	-0.742863	-0.125811
H65	H	0.000918	-0.770465	-0.265347
H66	H	0.072395	-0.713057	-0.272728
H67	H	-0.204122	-0.713337	0.480050
O68	O	0.028065	-0.635093	-0.000086
C69	C	0.036127	-0.682597	0.102472
H70	H	0.003756	-0.659213	0.174158
H71	H	0.094033	-0.692589	0.136900
H72	H	0.017113	-0.734400	0.079289
O73	O	0.036752	-0.047517	-0.000226
C74	C	0.080091	-0.075362	0.102332
H75	H	0.045979	-0.093793	0.174023
H76	H	0.111298	-0.032963	0.136751
H77	H	0.118041	-0.121844	0.079153
O78	O	0.266920	-0.836948	0.212389
C79	C	0.317447	-0.897083	0.218804
H80	H	0.298233	-0.936740	0.157515
H81	H	0.325534	-0.921911	0.314273
H82	H	0.369429	-0.881227	0.189813
O83	O	0.710940	-0.830392	0.212366
C84	C	0.761489	-0.890511	0.218803
H85	H	0.742285	-0.930193	0.157555
H86	H	0.769596	-0.915315	0.314286
H87	H	0.813458	-0.874640	0.189776
H88	H	0.128229	-0.838036	0.195459
O89	O	0.014362	-0.931718	0.283076
C90	C	0.053925	-0.890980	0.211103
H91	H	0.025043	-0.835398	0.192413
H92	H	0.060957	-0.915974	0.123444
H93	H	0.107765	-0.888626	0.259250
H94	H	-0.193356	-0.724113	0.706226
H95	H	-0.165431	-0.752046	0.293039
H96	H	-0.210789	-0.464970	-0.000355
O97	O	-0.214194	-0.013909	-0.000661
C98	C	-0.258050	-0.021679	-0.103219
H99	H	-0.224521	-0.043286	-0.174897
H100	H	-0.287847	0.031705	-0.137661
H101	H	-0.297244	-0.059739	-0.080032
O102	O	0.030249	-0.491610	-0.000288
C103	C	0.085707	-0.546880	-0.000300
H104	H	0.068075	-0.598067	0.037212
H105	H	0.133258	-0.534514	0.057191
H106	H	0.100634	-0.552749	-0.095307
H107	H	-0.020654	-0.896901	0.706115
O108	O	-0.216271	-0.157479	-0.000631
C109	C	-0.225578	-0.194252	-0.103174
H110	H	-0.192565	-0.173743	-0.174873
H111	H	-0.283510	-0.185919	-0.137594
H112	H	-0.208188	-0.252829	-0.079974
H113	H	0.024695	-0.183968	-0.000406
H114	H	0.018040	-0.935608	0.519106
H115	H	0.553567	-0.812850	-0.196273
O116	O	0.567439	-0.832426	0.212514
C117	C	0.619727	-0.836239	0.307802
H118	H	0.673087	-0.856076	0.276152
H119	H	0.606812	-0.874024	0.383294
H120	H	0.621564	-0.781703	0.341013
H121	H	0.685683	-0.810899	-0.196288
H122	H	0.241669	-0.817444	-0.196273
