data_functionalizedCrystal
_audit_creation_method	'MofGen! by Chris Wilmer'
_symmetry_space_group_name_H-M	'P1'
_symmetry_Int_Tables_number	1
_symmetry_cell_setting	triclinic
loop_
_symmetry_equiv_pos_as_xyz
  x,y,z
_cell_length_a	16.109318
_cell_length_b	16.109304
_cell_length_c	14.586319
_cell_angle_alpha	89.999019
_cell_angle_beta	90.000075
_cell_angle_gamma	83.465600
loop_
_atom_site_label
_atom_site_type_symbol
_atom_site_fract_x
_atom_site_fract_y
_atom_site_fract_z
O1	O	1.103123	0.106935	-0.076158
O2	O	1.603123	0.606935	0.423842
O3	O	0.861063	0.120219	-0.076176
O4	O	1.361063	0.620219	0.423824
O5	O	0.988741	-0.007454	-0.076167
O6	O	1.488741	0.492546	0.423833
O7	O	0.975445	0.234607	-0.076167
O8	O	1.475445	0.734607	0.423833
O9	O	0.988732	-0.007456	0.076314
O10	O	1.488732	0.492544	0.576314
O11	O	0.861054	0.120217	0.076305
O12	O	1.361054	0.620217	0.576305
O13	O	1.103114	0.106933	0.076323
O14	O	1.603114	0.606933	0.576323
Cu15	Cu	0.982083	0.113575	0.090236
Cu16	Cu	1.482083	0.613575	0.590236
Cu17	Cu	0.982094	0.113577	-0.090090
Cu18	Cu	1.482094	0.613577	0.409910
O19	O	0.975436	0.234605	0.076314
O20	O	1.475436	0.734605	0.576314
C21	C	0.830084	0.119677	0.000062
C22	C	1.330084	0.619677	0.500062
C23	C	0.737789	0.118056	0.000055
C24	C	1.237789	0.618056	0.500055
C25	C	0.438720	0.112822	-0.083046
C26	C	0.938720	0.612822	0.416954
C27	C	0.525442	0.114340	-0.083052
C28	C	1.025442	0.614340	0.416948
C29	C	0.525451	0.114326	0.083191
C30	C	1.025451	0.614326	0.583191
C31	C	0.438732	0.112803	0.083196
C32	C	0.938732	0.612803	0.583196
C33	C	0.395368	0.112055	0.000074
C34	C	0.895368	0.612055	0.500074
C35	C	0.568809	0.115096	0.000064
C36	C	1.068809	0.615096	0.500064
C37	C	0.662836	0.116741	0.000059
C38	C	1.162836	0.616741	0.500059
C39	C	0.301336	0.110408	0.000079
C40	C	0.801336	0.610408	0.500079
C41	C	0.988198	-0.038430	0.000071
C42	C	1.488198	0.461570	0.500071
C43	C	0.986582	-0.130725	0.000065
C44	C	1.486582	0.369275	0.500065
C45	C	0.982853	-0.343061	-0.083049
C46	C	1.482853	0.156939	0.416951
C47	C	0.981327	-0.429782	-0.083049
C48	C	1.481327	0.070218	0.416951
C49	C	0.981322	-0.429781	0.083194
C50	C	1.481322	0.070219	0.583194
C51	C	0.982842	-0.343061	0.083193
C52	C	1.482842	0.156939	0.583193
C53	C	0.983612	-0.299704	0.000068
C54	C	1.483612	0.200296	0.500068
C55	C	0.980565	-0.473144	0.000070
C56	C	1.480565	0.026856	0.500070
C57	C	0.978911	-0.567170	0.000072
C58	C	1.478911	-0.067170	0.500072
C59	C	0.985265	-0.205672	0.000066
C60	C	1.485265	0.294328	0.500066
C61	C	1.134093	0.107474	0.000082
C62	C	1.634093	0.607474	0.500082
C63	C	1.226388	0.109095	0.000084
C64	C	1.726388	0.609095	0.500084
C65	C	0.975979	0.265581	0.000073
C66	C	1.475979	0.765581	0.500073
C67	C	0.977595	0.357876	0.000074
C68	C	1.477595	0.857876	0.500074
N69	N	0.982082	0.113573	0.217068
N70	N	1.482082	0.613573	0.717068
N71	N	0.982102	0.113572	-0.216922
N72	N	1.482102	0.613572	0.283078
C73	C	1.038637	0.057058	0.452078
C74	C	1.538637	0.557058	0.952078
C75	C	1.038639	0.057056	0.548060
C76	C	1.538639	0.557056	1.048060
C77	C	0.925541	0.170090	0.548061
C78	C	1.425541	0.670090	1.048061
C79	C	0.925535	0.170087	0.452082
C80	C	1.425535	0.670087	0.952082
C81	C	0.982088	0.113572	0.404093
C82	C	1.482088	0.613572	0.904093
C83	C	0.982096	0.113573	0.596054
C84	C	1.482096	0.613573	1.096054
C85	C	0.982098	0.113571	0.700121
C86	C	1.482098	0.613571	1.200121
C87	C	0.982085	0.113573	0.300019
C88	C	1.482085	0.613573	0.800019
H89	H	0.560735	0.114963	-0.150737
H90	H	1.060735	0.614963	0.349263
H91	H	0.983455	-0.307758	0.150881
H92	H	1.483455	0.192242	0.650881
F93	F	0.983669	-0.296920	-0.171518
F94	F	1.483669	0.203080	0.328482
F95	F	1.098823	-0.003092	0.401009
F96	F	1.598823	0.496908	0.901009
F97	F	0.392573	0.112024	-0.171511
F98	F	0.892573	0.612024	0.328489
F99	F	1.098824	-0.003095	0.599126
F100	F	1.598824	0.496905	1.099126
H101	H	0.560768	0.114937	0.150866
H102	H	1.060768	0.614937	0.650866
H103	H	0.403434	0.112178	0.150887
H104	H	0.903434	0.612178	0.650887
F105	F	0.980518	-0.475921	-0.171514
F106	F	1.480518	0.024079	0.328486
F107	F	0.980502	-0.475931	0.171656
F108	F	1.480502	0.024069	0.671656
F109	F	0.865359	0.230236	0.599141
F110	F	1.365359	0.730236	1.099141
H111	H	0.879482	0.216108	0.413009
H112	H	1.379482	0.716108	0.913009
