data_functionalizedCrystal
_audit_creation_method	'MofGen! by Chris Wilmer'
_symmetry_space_group_name_H-M	'P1'
_symmetry_Int_Tables_number	1
_symmetry_cell_setting	triclinic
loop_
_symmetry_equiv_pos_as_xyz
  x,y,z
_cell_length_a	10.654550
_cell_length_b	11.026607
_cell_length_c	9.730223
_cell_angle_alpha	89.997552
_cell_angle_beta	89.999957
_cell_angle_gamma	96.535474
loop_
_atom_site_label
_atom_site_type_symbol
_atom_site_fract_x
_atom_site_fract_y
_atom_site_fract_z
O1	O	1.704907	0.170767	-0.114181
O2	O	1.342961	0.187037	-0.114206
O3	O	1.493936	0.001997	-0.114190
O4	O	1.553932	0.355808	-0.114196
O5	O	1.493923	0.001991	0.114390
O6	O	1.342947	0.187032	0.114374
O7	O	1.704894	0.170762	0.114399
Zn8	Zn	1.523918	0.178896	0.150679
Zn9	Zn	1.523936	0.178903	-0.150485
O10	O	1.553918	0.355803	0.114384
C11	C	1.295897	0.185840	0.000081
C12	C	1.155678	0.182266	0.000072
C13	C	1.099841	0.291214	0.000074
C14	C	0.968090	0.287849	0.000098
C15	C	0.948022	0.066576	0.000112
C16	C	1.079771	0.069943	0.000098
C17	C	1.482861	-0.043310	0.000097
C18	C	1.449867	-0.178302	0.000090
C19	C	1.540970	-0.251341	0.000094
C20	C	1.506871	-0.390862	0.000087
C21	C	1.751958	0.171959	0.000109
C22	C	1.892177	0.175533	0.000110
C23	C	1.564993	0.401109	0.000093
C24	C	1.597988	0.536101	0.000091
N25	N	1.523915	0.178891	0.356215
N26	N	1.523947	0.178899	-0.356022
C27	C	1.590804	0.096990	0.428148
C28	C	1.590817	0.096990	0.572031
C29	C	1.457050	0.260803	0.572036
C30	C	1.457031	0.260796	0.428155
H31	H	1.125232	-0.018782	0.000100
H32	H	1.645263	0.030296	0.369577
O33	O	1.721210	-0.415434	0.000286
C34	C	1.781418	-0.454558	0.118691
H35	H	1.727356	-0.542860	0.158154
H36	H	1.882259	-0.471142	0.092075
H37	H	1.783325	-0.381310	0.201589
O38	O	0.914056	0.393796	0.000034
C39	C	1.009310	0.493649	0.000045
H40	H	1.100277	0.463611	-0.043241
H41	H	0.978255	0.570052	-0.066319
H42	H	1.026423	0.528029	0.109701
H43	H	1.402556	0.327490	0.369584
H44	H	1.403623	-0.431617	0.000071
H45	H	1.346625	-0.219062	0.000074
O46	O	1.655907	0.017389	0.641693
C47	C	1.714903	-0.054921	0.547337
H48	H	1.727577	-0.005059	0.444770
H49	H	1.811207	-0.072561	0.588897
H50	H	1.653636	-0.145612	0.532047
H51	H	1.161641	0.382675	0.000063
H52	H	0.886203	-0.024873	0.000141
O53	O	1.664076	-0.202525	0.000166
C54	C	1.670716	-0.074087	0.000133
H55	H	1.579201	-0.045260	0.043401
H56	H	1.753563	-0.034427	0.066503
H57	H	1.684754	-0.038717	-0.109527
O58	O	1.392203	0.340325	0.642134
C59	C	1.406539	0.322754	0.784553
H60	H	1.496313	0.278212	0.804193
H61	H	1.413358	0.414708	0.839222
H62	H	1.321541	0.261136	0.825405
