data_functionalizedCrystal
_audit_creation_method	'MofGen! by Chris Wilmer'
_symmetry_space_group_name_H-M	'P1'
_symmetry_Int_Tables_number	1
_symmetry_cell_setting	triclinic
loop_
_symmetry_equiv_pos_as_xyz
  x,y,z
_cell_length_a	12.645330
_cell_length_b	12.645331
_cell_length_c	12.645323
_cell_angle_alpha	90.013185
_cell_angle_beta	89.973156
_cell_angle_gamma	89.984155
loop_
_atom_site_label
_atom_site_type_symbol
_atom_site_fract_x
_atom_site_fract_y
_atom_site_fract_z
Zn1	Zn	-0.422063	-1.620722	-0.599203
Zn2	Zn	-0.599357	-1.620606	-0.421943
Zn3	Zn	-0.422102	-1.443439	-0.421974
Zn4	Zn	-0.599279	-1.443418	-0.599185
O5	O	-0.510700	-1.532046	-0.510576
O6	O	-0.445597	-1.769054	-0.575683
O7	O	-0.575893	-1.597065	-0.273600
O8	O	-0.273750	-1.467013	-0.445504
O9	O	-0.575854	-1.768969	-0.445451
O10	O	-0.273721	-1.597262	-0.575713
O11	O	-0.445664	-1.466901	-0.273622
O12	O	-0.445589	-1.295089	-0.445487
O13	O	-0.575722	-1.466978	-0.747535
O14	O	-0.575760	-1.295074	-0.575683
O15	O	-0.445522	-1.597242	-0.747548
O16	O	-0.747694	-1.597045	-0.445434
O17	O	-0.747636	-1.466865	-0.575653
C18	C	-0.510671	-1.256617	-0.510587
C19	C	-0.510684	-1.138787	-0.510617
C20	C	-0.593020	-0.971248	-0.592101
C21	C	-0.592757	-1.093808	-0.592438
C22	C	-0.399027	-1.094308	-0.541139
C23	C	-0.399527	-0.971710	-0.541717
C24	C	-0.539098	-0.971543	-0.398362
C25	C	-0.541542	-1.094149	-0.398964
C26	C	-0.786130	-1.531969	-0.510561
C27	C	-0.903960	-1.532033	-0.510590
C28	C	-1.071532	-1.450475	-0.592764
C29	C	-0.948972	-1.450058	-0.592500
C30	C	-0.948557	-1.501789	-0.398873
C31	C	-1.071155	-1.501291	-0.399372
C32	C	-1.071052	-1.644334	-0.539228
C33	C	-0.948445	-1.643645	-0.541671
C34	C	-0.234195	-1.532153	-0.510614
C35	C	-0.116365	-1.532198	-0.510630
C36	C	-0.510609	-1.532120	-0.787081
C37	C	-0.510570	-1.532152	-0.904912
C38	C	-0.510725	-0.808552	-0.510573
C39	C	-0.510724	-0.926382	-0.510591
C40	C	-0.592462	-1.450207	-0.949785
C41	C	-0.592154	-1.449919	-1.072345
C42	C	-0.398670	-1.502282	-1.072818
C43	C	-0.399210	-1.501655	-0.950220
C44	C	-0.539461	-1.644240	-0.950086
C45	C	-0.541859	-1.643672	-1.072692
C46	C	-0.510715	-1.532034	-0.235146
C47	C	-0.510455	-1.532208	-0.117317
H48	H	-0.675556	-1.123881	-0.573309
H49	H	-0.335952	-1.560154	-1.101946
H50	H	-0.479154	-0.942527	-0.337630
H51	H	-0.375461	-0.943134	-0.623761
H52	H	-0.919736	-1.366926	-0.573554
H53	H	-0.336090	-1.558765	-0.920534
H54	H	-0.919292	-1.666453	-0.623889
H55	H	-0.373771	-1.421277	-1.103532
H56	H	-0.336013	-0.942030	-0.485071
H57	H	-0.918816	-1.468980	-0.675338
H58	H	-1.099845	-1.419320	-0.375143
H59	H	-0.574485	-0.940456	-0.674774
H60	H	-1.100816	-1.558232	-0.336090
H61	H	-0.919402	-1.559426	-0.336006
H62	H	-0.573543	-1.367625	-0.918985
H63	H	-0.572971	-1.366879	-1.101684
H64	H	-0.619626	-1.671535	-0.919166
H65	H	-0.486564	-1.707980	-1.103308
H66	H	-0.573980	-1.123156	-0.675593
H67	H	-0.374764	-1.419734	-0.921634
H68	H	-0.485951	-1.124766	-0.334973
H69	H	-1.100942	-1.469223	-0.675874
H70	H	-1.101894	-1.671922	-0.619307
H71	H	-1.102431	-1.367863	-0.574061
H72	H	-0.917944	-1.420672	-0.374206
H73	H	-0.624129	-1.666242	-1.101772
H74	H	-0.917798	-1.707740	-0.486205
H75	H	-0.479811	-1.705289	-0.921072
H76	H	-0.336045	-1.123442	-0.483624
H77	H	-1.100044	-1.705220	-0.479407
H78	H	-0.374524	-1.125032	-0.622292
H79	H	-0.619128	-0.940621	-0.370621
H80	H	-0.623705	-1.123232	-0.375944
H81	H	-0.676093	-0.941757	-0.573184
H82	H	-0.675633	-1.468654	-0.920306
H83	H	-0.675033	-1.468602	-1.102433
