data_functionalizedCrystal
_audit_creation_method	'MofGen! by Chris Wilmer'
_symmetry_space_group_name_H-M	'P1'
_symmetry_Int_Tables_number	1
_symmetry_cell_setting	triclinic
loop_
_symmetry_equiv_pos_as_xyz
  x,y,z
_cell_length_a	14.971486
_cell_length_b	14.519709
_cell_length_c	13.448316
_cell_angle_alpha	89.992453
_cell_angle_beta	89.998199
_cell_angle_gamma	83.647137
loop_
_atom_site_label
_atom_site_type_symbol
_atom_site_fract_x
_atom_site_fract_y
_atom_site_fract_z
O1	O	1.187015	0.120184	-0.082580
O2	O	0.926623	0.134576	-0.082607
O3	O	1.063723	-0.006863	-0.082584
O4	O	1.049915	0.261623	-0.082603
O5	O	1.063706	-0.006871	0.082800
O6	O	0.926606	0.134567	0.082777
O7	O	1.186998	0.120175	0.082804
Cu8	Cu	1.056800	0.127371	0.097891
Cu9	Cu	1.056820	0.127381	-0.097694
O10	O	1.049898	0.261614	0.082781
C11	C	0.893289	0.133928	0.000082
C12	C	0.793991	0.131999	0.000071
C13	C	1.063071	-0.041226	0.000108
C14	C	1.061142	-0.143606	0.000109
C15	C	0.736812	0.215091	0.000067
C16	C	0.643512	0.213273	0.000082
C17	C	0.607392	0.128363	0.000094
C18	C	0.664578	0.045265	0.000102
C19	C	0.757876	0.047084	0.000094
C20	C	0.470113	0.041480	0.000116
C21	C	0.376808	0.039661	0.000122
C22	C	0.355749	0.207669	0.000104
C23	C	0.449047	0.209488	0.000096
C24	C	0.506227	0.126390	0.000101
C25	C	1.054043	-0.518498	0.000082
C26	C	1.056015	-0.414191	0.000090
C27	C	1.057593	-0.331055	0.000096
C28	C	1.059564	-0.226742	0.000102
C29	C	1.220331	0.120823	0.000113
C30	C	1.319630	0.122752	0.000117
C31	C	1.050550	0.295978	0.000087
C32	C	1.052478	0.398358	0.000080
N33	N	1.056792	0.127363	0.235456
N34	N	1.056835	0.127381	-0.235258
C35	C	1.117519	0.064759	0.287506
C36	C	1.117525	0.064759	0.391610
C37	C	1.056807	0.127366	0.443660
C38	C	0.996074	0.189973	0.391602
C39	C	0.996065	0.189968	0.287501
C40	C	0.996099	0.189979	0.608582
C41	C	0.996109	0.189985	0.712691
C42	C	1.117559	0.064769	0.712691
C43	C	1.117549	0.064765	0.608590
C44	C	1.056817	0.127373	0.556539
H45	H	0.766213	0.284234	0.000056
C46	C	1.184361	-0.004103	0.769945
C47	C	1.251157	-0.072967	0.712698
C48	C	1.317959	-0.141832	0.769959
C49	C	1.317967	-0.141833	0.884466
C50	C	1.251169	-0.072967	0.941719
C51	C	1.184366	-0.004102	0.884459
H52	H	1.251153	-0.072968	0.627927
H53	H	1.367407	-0.192811	0.727575
H54	H	1.367418	-0.192812	0.926854
H55	H	1.251172	-0.072966	1.026490
H56	H	1.134918	0.046877	0.926842
H57	H	0.946632	0.240946	0.433988
H58	H	1.166994	0.013790	0.566210
H59	H	0.478453	0.278629	0.000076
H60	H	1.166966	0.013781	0.245134
H61	H	0.946641	0.240958	0.566206
C62	C	0.820778	-0.044318	0.000095
C63	C	0.887816	-0.066173	0.085974
C64	C	0.950716	-0.157577	0.085981
C65	C	0.946579	-0.227126	0.000109
C66	C	0.879538	-0.205272	-0.085777
C67	C	0.816638	-0.113868	-0.085783
H68	H	0.890881	-0.014688	0.149548
H69	H	1.000344	-0.173755	0.149560
H70	H	0.993142	-0.294789	0.000114
H71	H	0.876473	-0.256758	-0.149350
H72	H	0.767010	-0.097691	-0.149362
C73	C	0.929312	0.258849	0.769944
C74	C	0.862503	0.327703	0.712687
C75	C	0.795705	0.396568	0.769937
C76	C	0.795714	0.396579	0.884445
C77	C	0.862525	0.327722	0.941708
C78	C	0.929324	0.258857	0.884458
H79	H	0.862494	0.327697	0.627916
H80	H	0.746247	0.447540	0.727547
H81	H	0.746265	0.447557	0.926825
H82	H	0.862534	0.327728	1.026479
H83	H	0.978782	0.207885	0.926848
H84	H	0.596960	0.280934	0.000077
C85	C	0.292853	0.299078	0.000107
C86	C	0.297000	0.368628	0.085976
C87	C	0.234100	0.460032	0.085975
C88	C	0.167051	0.481886	0.000106
C89	C	0.162901	0.412334	-0.085770
C90	C	0.225802	0.320930	-0.085769
H91	H	0.346636	0.352452	0.149548
H92	H	0.237172	0.511519	0.149547
H93	H	0.120488	0.549548	0.000105
H94	H	0.113265	0.428510	-0.149341
H95	H	0.222729	0.269443	-0.149340
H96	H	0.347403	-0.029481	0.000133
H97	H	0.946614	0.240945	0.245122
C98	C	0.533014	-0.049927	0.000120
C99	C	0.528882	-0.119487	0.086002
C100	C	0.591783	-0.210890	0.086001
C101	C	0.658818	-0.232734	0.000118
C102	C	0.662953	-0.163172	-0.085771
C103	C	0.600051	-0.071768	-0.085770
H104	H	0.479256	-0.103319	0.149584
H105	H	0.588722	-0.262385	0.149582
H106	H	0.705382	-0.300396	0.000117
H107	H	0.712578	-0.179340	-0.149353
H108	H	0.603113	-0.020274	-0.149351
H109	H	0.635162	-0.023871	0.000126
H110	H	1.166972	0.013782	0.433989
