data_functionalizedCrystal
_audit_creation_method	'MofGen! by Chris Wilmer'
_symmetry_space_group_name_H-M	'P1'
_symmetry_Int_Tables_number	1
_symmetry_cell_setting	triclinic
loop_
_symmetry_equiv_pos_as_xyz
  x,y,z
_cell_length_a	15.297476
_cell_length_b	15.299383
_cell_length_c	18.215399
_cell_angle_alpha	99.659102
_cell_angle_beta	99.685030
_cell_angle_gamma	107.337227
loop_
_atom_site_label
_atom_site_type_symbol
_atom_site_fract_x
_atom_site_fract_y
_atom_site_fract_z
Zn1	Zn	1.485789	0.616512	0.712668
Zn2	Zn	1.985789	1.116512	1.212668
Zn3	Zn	1.512554	0.771978	0.615352
Zn4	Zn	2.012554	1.271978	1.115352
Zn5	Zn	1.330269	0.589594	0.563892
Zn6	Zn	1.830269	1.089594	1.063892
Zn7	Zn	1.357092	0.744990	0.712653
Zn8	Zn	1.857092	1.244990	1.212653
O9	O	1.421426	0.680769	0.651141
O10	O	1.921426	1.180769	1.151141
O11	O	1.619486	0.659695	0.721302
O12	O	2.119486	1.159695	1.221302
O13	O	1.488349	0.747814	0.505543
O14	O	1.988349	1.247814	1.005543
O15	O	1.328472	0.463068	0.562098
O16	O	1.828472	0.963068	1.062098
O17	O	1.639150	0.773915	0.649804
O18	O	2.139150	1.273915	1.149804
O19	O	1.442732	0.482845	0.671403
O20	O	1.942732	0.982845	1.171403
O21	O	1.354425	0.613817	0.467735
O22	O	1.854425	1.113817	0.967735
O23	O	1.203680	0.587648	0.562083
O24	O	1.703680	1.087648	1.062083
O25	O	1.374189	0.727918	0.815638
O26	O	1.874189	1.227918	1.315638
O27	O	1.223387	0.701816	0.671377
O28	O	1.723387	1.201816	1.171377
O29	O	1.468741	0.633526	0.815650
O30	O	1.968741	1.133526	1.315650
O31	O	1.514358	0.898495	0.649789
O32	O	2.014358	1.398495	1.149789
O33	O	1.400141	0.878667	0.721275
O34	O	1.900141	1.378667	1.221275
C35	C	1.463090	0.922318	0.691135
C36	C	1.963090	1.422318	1.191135
C37	C	1.480999	1.025668	0.708283
C38	C	1.980999	1.525668	1.208283
C39	C	1.179788	0.638883	0.611145
C40	C	1.679788	1.138883	1.111145
C41	C	1.076419	0.620987	0.594055
C42	C	1.576419	1.120987	1.094055
C43	C	1.293763	1.276148	0.528915
C44	C	1.793763	1.776148	1.028915
C45	C	1.276931	1.179045	0.512805
C46	C	1.776931	1.679045	1.012805
C47	C	1.327947	1.140696	0.561673
C48	C	1.827947	1.640696	1.061673
C49	C	1.395796	1.199460	0.626654
C50	C	1.895796	1.699460	1.126654
C51	C	1.412624	1.296572	0.642770
C52	C	1.912624	1.796572	1.142770
C53	C	1.446809	1.161120	0.675527
C54	C	1.946809	1.661120	1.175527
C55	C	1.514658	1.219884	0.740509
C56	C	2.014658	1.719884	1.240509
C57	C	1.531483	1.316987	0.756621
C58	C	2.031483	1.816987	1.256621
C59	C	1.480468	1.355336	0.707753
C60	C	1.980468	1.855336	1.207753
C61	C	1.429981	1.064007	0.659412
C62	C	1.929981	1.564007	1.159412
C63	C	1.548843	1.084431	0.773266
C64	C	2.048843	1.584431	1.273266
C65	C	1.565674	1.181535	0.789377
C66	C	2.065674	1.681535	1.289377
C67	C	1.017555	0.553035	0.529177
C68	C	1.517555	1.053035	1.029177
C69	C	0.920434	0.536218	0.513119
C70	C	1.420434	1.036218	1.013119
C71	C	0.882166	0.587346	0.561939
C72	C	1.382166	1.087346	1.061939
C73	C	0.941029	0.655295	0.626821
C74	C	1.441029	1.155295	1.126821
C75	C	1.038160	0.672118	0.642878
C76	C	1.538160	1.172118	1.142878
C77	C	0.902771	0.706430	0.675640
C78	C	1.402771	1.206430	1.175640
C79	C	0.961634	0.774378	0.740522
C80	C	1.461634	1.274378	1.240522
C81	C	1.058756	0.791198	0.756576
C82	C	1.558756	1.291198	1.256576
C83	C	1.097024	0.740070	0.707756
C84	C	1.597024	1.240070	1.207756
C85	C	0.805639	0.689606	0.659583
C86	C	1.305639	1.189606	1.159583
C87	C	0.826244	0.808689	0.773284
C88	C	1.326244	1.308689	1.273284
C89	C	0.923366	0.825506	0.789342
C90	C	1.423366	1.325506	1.289342
C91	C	1.664007	0.722818	0.691295
C92	C	2.164007	1.222818	1.191295
C93	C	1.767381	0.740738	0.708406
C94	C	2.267381	1.240738	1.208406
C95	C	1.379573	1.438272	0.611009
C96	C	1.879573	1.938272	1.111009
C97	C	1.361606	1.334912	0.593898
C98	C	1.861606	1.834912	1.093898
C99	C	1.421471	0.680714	0.843093
C100	C	1.921471	1.180714	1.343093
C101	C	1.421491	0.680691	0.924892
C102	C	1.921491	1.180691	1.424892
C103	C	1.421422	0.680765	0.459934
C104	C	1.921422	1.180765	0.959934
C105	C	1.421538	0.680557	0.378123
C106	C	1.921538	1.180557	0.878123
C107	C	1.470736	0.631489	1.113087
C108	C	1.970736	1.131489	1.613087
C109	C	1.470743	0.631464	1.189943
C110	C	1.970743	1.131464	1.689943
C111	C	1.372286	0.729761	1.189921
C112	C	1.872286	1.229761	1.689921
C113	C	1.372275	0.729780	1.113065
C114	C	1.872275	1.229780	1.613065
C115	C	1.421505	0.680646	1.074651
C116	C	1.921505	1.180646	1.574651
C117	C	1.421523	0.680602	1.228363
C118	C	1.921523	1.180602	1.728363
C119	C	1.421530	0.680575	1.311694
C120	C	1.921530	1.180575	1.811694
C121	C	1.421498	0.680672	0.991314
C122	C	1.921498	1.180672	1.491314
H123	H	1.314240	1.061629	0.548551
H124	H	1.814240	1.561629	1.048551
O125	O	0.863136	0.470317	0.450090
O126	O	1.363136	0.970317	0.950090
C127	C	0.769206	0.466437	0.446383
C128	C	1.269206	0.966437	0.946383
H129	H	0.768351	0.535913	0.480127
H130	H	1.268351	1.035913	0.980127
H131	H	0.731188	0.453711	0.384100
H132	H	1.231188	0.953711	0.884100
H133	H	0.732124	0.406552	0.471921
H134	H	1.232124	0.906552	0.971921
H135	H	1.048724	0.511419	0.489432
H136	H	1.548724	1.011419	0.989432
O137	O	1.597450	1.374184	0.819666
O138	O	2.097450	1.874184	1.319666
C139	C	1.667286	1.440737	0.797064
C140	C	2.167286	1.940737	1.297064
H141	H	1.637054	1.449676	0.738275
H142	H	2.137054	1.949676	1.238275
H143	H	1.691553	1.511145	0.840429
H144	H	2.191553	2.011145	1.340429
H145	H	1.729722	1.415208	0.794212
H146	H	2.229722	1.915208	1.294212
O147	O	1.211030	1.122105	0.449632
O148	O	1.711030	1.622105	0.949632
C149	C	1.169597	1.176769	0.409964
C150	C	1.669597	1.676769	0.909964
H151	H	1.219681	1.252562	0.425229
H152	H	1.719681	1.752562	0.925229
H153	H	1.154871	1.147060	0.345693
H154	H	1.654871	1.647060	0.845693
H155	H	1.100738	1.174890	0.426890
H156	H	1.600738	1.674890	0.926890
H157	H	1.494171	1.434405	0.720864
H158	H	1.994171	1.934405	1.220864
O159	O	1.631447	1.238645	0.852564
O160	O	2.131447	1.738645	1.352564
C161	C	1.588193	1.285656	0.900598
C162	C	2.088193	1.785656	1.400598
H163	H	1.509882	1.243750	0.888127
H164	H	2.009882	1.743750	1.388127
H165	H	1.621967	1.292515	0.962988
H166	H	2.121967	1.792515	1.462988
H167	H	1.597753	1.358716	0.889521
H168	H	2.097753	1.858716	1.389521
O169	O	1.244185	1.313497	0.481564
O170	O	1.744185	1.813497	0.981564
C171	C	1.193808	1.359248	0.522803
C172	C	1.693808	1.859248	1.022803
H173	H	1.229078	1.379388	0.586418
H174	H	1.729078	1.879388	1.086418
H175	H	1.193208	1.425419	0.502104
H176	H	1.693208	1.925419	1.002104
H177	H	1.118404	1.309934	0.513233
H178	H	1.618404	1.809934	1.013233
H179	H	1.590382	1.053209	0.813060
H180	H	2.090382	1.553209	1.313060
H181	H	0.971305	0.880830	0.842170
H182	H	1.471305	1.380830	1.342170
H183	H	0.757721	0.634279	0.606757
H184	H	1.257721	1.134279	1.106757
O185	O	0.787818	0.570985	0.546481
O186	O	1.287818	1.070985	1.046481
C187	C	0.751326	0.541577	0.607747
C188	C	1.251326	1.041577	1.107747
H189	H	0.810079	0.567248	0.662013
H190	H	1.310079	1.067248	1.162013
H191	H	0.693576	0.572253	0.616982
H192	H	1.193576	1.072253	1.116982
H193	H	0.720813	0.461452	0.593789
H194	H	1.220813	0.961452	1.093789
O195	O	1.191384	0.756487	0.723244
O196	O	1.691384	1.256487	1.223244
C197	C	1.227880	0.785826	0.661958
C198	C	1.727880	1.285826	1.161958
H199	H	1.178876	0.816613	0.628930
H200	H	1.678876	1.316613	1.128930
H201	H	1.300558	0.841662	0.685287
H202	H	1.800558	1.341662	1.185287
H203	H	1.233717	0.722928	0.622100
H204	H	1.733717	1.222928	1.122100
O205	O	1.324437	0.777619	1.075847
O206	O	1.824437	1.277619	1.575847
C207	C	1.280975	0.820969	1.126227
C208	C	1.780975	1.320969	1.626227
H209	H	1.319630	0.830779	1.187855
H210	H	1.819630	1.330779	1.687855
H211	H	1.283681	0.892503	1.114495
H212	H	1.783681	1.392503	1.614495
H213	H	1.204472	0.774681	1.117072
H214	H	1.704472	1.274681	1.617072
H215	H	1.106682	0.846534	0.809402
H216	H	1.606682	1.346534	1.309402
O217	O	0.788923	0.858246	0.820652
O218	O	1.288923	1.358246	1.320652
C219	C	0.690577	0.828842	0.792559
C220	C	1.190577	1.328842	1.292559
H221	H	0.664914	0.754753	0.754471
H222	H	1.164914	1.254753	1.254471
H223	H	0.654800	0.828851	0.842638
H224	H	1.154800	1.328851	1.342638
H225	H	0.672492	0.879142	0.757855
H226	H	1.172492	1.379142	1.257855
H227	H	1.510830	0.591434	1.221234
H228	H	2.010830	1.091434	1.721234
O229	O	1.363968	1.007010	0.596324
O230	O	1.863968	1.507010	1.096324
C231	C	1.275385	1.014726	0.600966
C232	C	1.775385	1.514726	1.100966
H233	H	1.285654	1.084872	0.640631
H234	H	1.785654	1.584872	1.140631
H235	H	1.234308	1.010913	0.541496
H236	H	1.734308	1.510913	1.041496
H237	H	1.234562	0.954635	0.624522
H238	H	1.734562	1.454635	1.124522
O239	O	1.518564	0.583674	1.075873
O240	O	2.018564	1.083674	1.575873
C241	C	1.562035	0.540300	1.126288
C242	C	2.062035	1.040300	1.626288
H243	H	1.523393	0.530468	1.174233
H244	H	2.023393	1.030468	1.674233
H245	H	1.559320	0.468774	1.093605
H246	H	2.059320	0.968774	1.593605
H247	H	1.638541	0.586581	1.151791
H248	H	2.138541	1.086581	1.651791
H249	H	1.332207	0.769766	1.221208
H250	H	1.832207	1.269766	1.721208
