data_functionalizedCrystal
_audit_creation_method	'MofGen! by Chris Wilmer'
_symmetry_space_group_name_H-M	'P1'
_symmetry_Int_Tables_number	1
_symmetry_cell_setting	triclinic
loop_
_symmetry_equiv_pos_as_xyz
  x,y,z
_cell_length_a	18.101398
_cell_length_b	18.101397
_cell_length_c	16.959447
_cell_angle_alpha	90.033674
_cell_angle_beta	90.010791
_cell_angle_gamma	90.018618
loop_
_atom_site_label
_atom_site_type_symbol
_atom_site_fract_x
_atom_site_fract_y
_atom_site_fract_z
Zn1	Zn	1.132150	-0.294852	0.446816
Zn2	Zn	1.465483	0.038482	0.780149
Zn3	Zn	1.798816	0.371815	1.113482
Zn4	Zn	1.132076	-0.418704	0.314630
Zn5	Zn	1.465410	-0.085371	0.647963
Zn6	Zn	1.798743	0.247962	0.981296
Zn7	Zn	1.008316	-0.294877	0.314661
Zn8	Zn	1.341650	0.038456	0.647995
Zn9	Zn	1.674983	0.371789	0.981328
Zn10	Zn	1.008282	-0.418652	0.446776
Zn11	Zn	1.341616	-0.085318	0.780110
Zn12	Zn	1.674949	0.248015	1.113443
O13	O	1.070206	-0.356771	0.380721
O14	O	1.403540	-0.023438	0.714054
O15	O	1.736873	0.309895	1.047387
O16	O	1.235773	-0.311292	0.429284
O17	O	1.569106	0.022041	0.762618
O18	O	1.902440	0.355374	1.095951
O19	O	1.115643	-0.402311	0.204023
O20	O	1.448976	-0.068978	0.537356
O21	O	1.782309	0.264355	0.870689
O22	O	1.024788	-0.191241	0.332222
O23	O	1.358121	0.142092	0.665555
O24	O	1.691455	0.475426	0.998889
O25	O	1.235719	-0.402286	0.332168
O26	O	1.569052	-0.068953	0.665501
O27	O	1.902386	0.264380	0.998834
O28	O	1.115768	-0.191222	0.429315
O29	O	1.449101	0.142111	0.762648
O30	O	1.782435	0.475445	1.095982
O31	O	1.024717	-0.311336	0.204046
O32	O	1.358050	0.021997	0.537380
O33	O	1.691384	0.355330	0.870713
O34	O	0.904679	-0.311285	0.332184
O35	O	1.238012	0.022048	0.665517
O36	O	1.571346	0.355382	0.998850
O37	O	1.024730	-0.402196	0.557392
O38	O	1.358064	-0.068863	0.890726
O39	O	1.691397	0.264470	1.224059
O40	O	0.904654	-0.402222	0.429248
O41	O	1.237987	-0.068888	0.762581
O42	O	1.571321	0.264445	1.095914
O43	O	1.115735	-0.311241	0.557422
O44	O	1.449068	0.022092	0.890755
O45	O	1.782402	0.355426	1.224088
O46	O	1.115610	-0.522330	0.332129
O47	O	1.448943	-0.188997	0.665462
O48	O	1.782276	0.144336	0.998796
O49	O	1.024659	-0.522292	0.429217
O50	O	1.357992	-0.188958	0.762550
O51	O	1.691326	0.144375	1.095883
C52	C	0.877796	-0.356751	0.380715
C53	C	1.211129	-0.023418	0.714049
C54	C	1.544462	0.309916	1.047382
C55	C	0.795482	-0.356760	0.380732
C56	C	1.128815	-0.023427	0.714065
C57	C	1.462148	0.309907	1.047398
C58	C	0.644773	-0.356774	0.380730
C59	C	0.978106	-0.023440	0.714064
C60	C	1.311440	0.309893	1.047397
C61	C	0.613429	-0.414077	0.441706
C62	C	0.946762	-0.080743	0.775039
C63	C	1.280095	0.252590	1.108373
C64	C	0.527810	-0.414309	0.441525
C65	C	0.861144	-0.080975	0.774859
C66	C	1.194477	0.252358	1.108192
C67	C	0.496391	-0.356787	0.380731
C68	C	0.829724	-0.023454	0.714064
C69	C	1.163057	0.309879	1.047397
C70	C	0.527452	-0.377618	0.297326
C71	C	0.860785	-0.044284	0.630659
C72	C	1.194119	0.289049	0.963993
C73	C	0.613097	-0.378026	0.297679
C74	C	0.946430	-0.044692	0.631012
C75	C	1.279764	0.288641	0.964345
C76	C	0.613236	-0.278498	0.402431
C77	C	0.946569	0.054835	0.735764
C78	C	1.279903	0.388168	1.069098
C79	C	0.527586	-0.278927	0.404268
C80	C	0.860919	0.054406	0.737601
C81	C	1.194253	0.387739	1.070935
C82	C	0.412531	-0.356794	0.380725
C83	C	0.745864	-0.023461	0.714059
C84	C	1.079198	0.309873	1.047392
C85	C	0.728633	-0.356769	0.380730
C86	C	1.061966	-0.023436	0.714063
C87	C	1.395299	0.309897	1.047397
C88	C	1.070143	-0.549182	0.380682
C89	C	1.403476	-0.215849	0.714016
C90	C	1.736810	0.117485	1.047349
C91	C	1.070183	-0.631496	0.380692
C92	C	1.403517	-0.298163	0.714026
C93	C	1.736850	0.035171	1.047359
C94	C	1.070278	-0.930587	0.380765
C95	C	1.403611	-0.597254	0.714098
C96	C	1.736945	-0.263920	1.047431
C97	C	1.127342	-0.899255	0.319516
C98	C	1.460676	-0.565922	0.652849
C99	C	1.794009	-0.232589	0.986183
C100	C	1.127540	-0.813637	0.319675
C101	C	1.460873	-0.480303	0.653008
C102	C	1.794207	-0.146970	0.986341
C103	C	1.070231	-0.782204	0.380728
C104	C	1.403564	-0.448871	0.714061
C105	C	1.736898	-0.115538	1.047395
C106	C	1.091382	-0.813208	0.464043
C107	C	1.424716	-0.479875	0.797376
C108	C	1.758049	-0.146541	1.130710
C109	C	1.091824	-0.898853	0.463710
C110	C	1.425157	-0.565520	0.797043
C111	C	1.758490	-0.232186	1.130376
C112	C	0.991910	-0.899094	0.359419
C113	C	1.325244	-0.565761	0.692753
C114	C	1.658577	-0.232428	1.026086
C115	C	0.992298	-0.813445	0.357559
C116	C	1.325631	-0.480112	0.690893
C117	C	1.658964	-0.146778	1.024226
C118	C	1.070203	-0.698345	0.380713
C119	C	1.403537	-0.365012	0.714046
C120	C	1.736870	-0.031678	1.047379
C121	C	1.070308	-1.014446	0.380786
C122	C	1.403641	-0.681113	0.714119
C123	C	1.736974	-0.347780	1.047452
C124	C	1.263368	-0.356792	0.380727
C125	C	1.596701	-0.023459	0.714060
C126	C	1.930035	0.309874	1.047393
C127	C	1.345682	-0.356801	0.380729
C128	C	1.679015	-0.023468	0.714063
C129	C	2.012349	0.309865	1.047396
C130	C	1.070237	-0.356710	0.586889
C131	C	1.403570	-0.023377	0.920222
C132	C	1.736904	0.309957	1.253556
C133	C	1.070250	-0.356684	0.674746
C134	C	1.403583	-0.023351	1.008079
C135	C	1.736917	0.309983	1.341412
C136	C	1.070290	-0.163609	0.380777
C137	C	1.403623	0.169724	0.714110
C138	C	1.736957	0.503057	1.047443
C139	C	1.070326	-0.081295	0.380800
C140	C	1.403659	0.252038	0.714134
C141	C	1.736992	0.585371	1.047467
C142	C	1.070218	-0.356779	0.175355
C143	C	1.403551	-0.023446	0.508688
C144	C	1.736885	0.309888	0.842021
C145	C	1.070348	-0.356596	0.087498
C146	C	1.403682	-0.023263	0.420832
C147	C	1.737015	0.310070	0.754165
C148	C	1.022957	-0.403962	1.046209
C149	C	1.356290	-0.070629	1.379542
C150	C	1.689623	0.262705	1.712876
C151	C	1.117721	-0.309249	1.046234
C152	C	1.451054	0.024084	1.379568
C153	C	1.784387	0.357417	1.712901
C154	C	1.117701	-0.309265	0.963688
C155	C	1.451034	0.024068	1.297022
C156	C	1.784368	0.357402	1.630355
C157	C	1.070309	-0.356631	0.922399
C158	C	1.403642	-0.023297	1.255732
C159	C	1.736976	0.310036	1.589065
C160	C	1.022937	-0.403981	0.963655
C161	C	1.356270	-0.070647	1.296989
C162	C	1.689604	0.262686	1.630322
C163	C	1.165078	-0.261921	0.922426
C164	C	1.498411	0.071412	1.255759
C165	C	1.831744	0.404745	1.589092
C166	C	1.165060	-0.261936	0.839875
C167	C	1.498394	0.071398	1.173208
C168	C	1.831727	0.404731	1.506541
C169	C	1.117664	-0.309298	0.798584
C170	C	1.450997	0.024035	1.131917
C171	C	1.784331	0.357368	1.465250
C172	C	1.070289	-0.356649	0.839845
C173	C	1.403623	-0.023316	1.173179
C174	C	1.736956	0.310017	1.506512
C175	C	1.022898	-0.404015	0.798556
C176	C	1.356231	-0.070682	1.131889
C177	C	1.689564	0.262652	1.465222
C178	C	0.975519	-0.451363	0.839816
C179	C	1.308852	-0.118030	1.173149
C180	C	1.642185	0.215303	1.506483
C181	C	0.975541	-0.451343	0.922364
C182	C	1.308874	-0.118010	1.255698
C183	C	1.642207	0.215323	1.589031
C184	C	1.117642	-0.309318	0.716035
C185	C	1.450975	0.024015	1.049369
C186	C	1.784309	0.357348	1.382702
C187	C	1.022878	-0.404034	0.716002
C188	C	1.356211	-0.070701	1.049336
C189	C	1.689545	0.262633	1.382669
H190	H	0.507300	-0.472315	0.427128
H191	H	0.840633	-0.138981	0.760461
H192	H	1.173967	0.194352	1.093794
F193	F	0.640201	-0.325825	0.236241
F194	F	0.973535	0.007508	0.569574
F195	F	1.306868	0.340841	0.902907
F196	F	1.215517	-0.211520	0.966372
F197	F	1.548850	0.121813	1.299706
F198	F	1.882183	0.455146	1.633039
H199	H	1.185075	-0.920724	0.333476
H200	H	1.518409	-0.587391	0.666809
H201	H	1.851742	-0.254058	1.000143
H202	H	0.634043	-0.401233	0.503731
H203	H	0.967376	-0.067900	0.837064
H204	H	1.300710	0.265434	1.170398
H205	H	1.149107	-0.918773	0.481791
H206	H	1.482440	-0.585440	0.815125
H207	H	1.815773	-0.252106	1.148458
H208	H	0.633508	-0.235808	0.358024
H209	H	0.966841	0.097525	0.691357
H210	H	1.300175	0.430858	1.024691
H211	H	0.976349	-0.793189	0.296246
H212	H	1.309682	-0.459856	0.629580
H213	H	1.643016	-0.126522	0.962913
H214	H	0.505984	-0.434202	0.278673
H215	H	0.839318	-0.100869	0.612007
H216	H	1.172651	0.232464	0.945340
H217	H	0.634855	-0.259468	0.462225
H218	H	0.968188	0.073865	0.795558
H219	H	1.301522	0.407199	1.128892
H220	H	1.156309	-0.270691	1.079857
H221	H	1.489642	0.062643	1.413190
H222	H	1.822976	0.395976	1.746524
H223	H	0.947494	-0.792056	0.398903
H224	H	1.280827	-0.458723	0.732237
H225	H	1.614161	-0.125389	1.065570
H226	H	0.949393	-0.919356	0.404029
H227	H	1.282727	-0.586023	0.737363
H228	H	1.616060	-0.252690	1.070696
F229	F	1.110261	-0.926244	0.238525
F230	F	1.443594	-0.592911	0.571859
F231	F	1.776928	-0.259577	0.905192
H232	H	0.507287	-0.263214	0.465649
H233	H	0.840620	0.070120	0.798983
H234	H	1.173954	0.403453	1.132316
F235	F	1.215483	-0.211543	0.795970
F236	F	1.548816	0.121791	1.129303
F237	F	1.882149	0.455124	1.462637
H238	H	0.506199	-0.233979	0.363130
H239	H	0.839533	0.099354	0.696463
H240	H	1.172866	0.432688	1.029797
F241	F	1.203415	-0.786783	0.338137
F242	F	1.536749	-0.453450	0.671471
F243	F	1.870082	-0.120116	1.004804
F244	F	1.038714	-0.786601	0.525296
F245	F	1.372047	-0.453268	0.858629
F246	F	1.705380	-0.119934	1.191963
H247	H	1.156219	-0.270770	0.682445
H248	H	1.489553	0.062563	1.015778
H249	H	1.822886	0.395897	1.349112
H250	H	0.984279	-0.442599	0.682390
H251	H	1.317612	-0.109265	1.015723
H252	H	1.650945	0.224068	1.349057
H253	H	1.114308	-0.792678	0.257898
H254	H	1.447641	-0.459344	0.591231
H255	H	1.780975	-0.126011	0.924564
H256	H	0.506809	-0.401314	0.503358
H257	H	0.840143	-0.067981	0.836691
H258	H	1.173476	0.265353	1.170025
H259	H	1.052081	-0.919576	0.510917
H260	H	1.385414	-0.586243	0.844250
H261	H	1.718748	-0.252909	1.177583
F262	F	1.165417	-0.785100	0.488079
F263	F	1.498751	-0.451766	0.821412
F264	F	1.832084	-0.118433	1.154746
F265	F	0.925124	-0.501732	0.966281
F266	F	1.258457	-0.168399	1.299615
F267	F	1.591791	0.164934	1.632948
F268	F	0.641531	-0.489460	0.423119
F269	F	0.974864	-0.156127	0.756453
F270	F	1.308198	0.177207	1.089786
H271	H	0.972668	-0.920757	0.299720
H272	H	1.306001	-0.587424	0.633053
H273	H	1.639334	-0.254091	0.966387
H274	H	0.936936	-0.489932	0.806187
H275	H	1.270269	-0.156598	1.139521
H276	H	1.603602	0.176735	1.472854
F277	F	0.639180	-0.452804	0.273720
F278	F	0.972514	-0.119471	0.607054
F279	F	1.305847	0.213862	0.940387
H280	H	0.984380	-0.442510	1.079806
H281	H	1.317713	-0.109176	1.413140
H282	H	1.651046	0.224157	1.746473
H283	H	0.507101	-0.337161	0.250647
H284	H	0.840434	-0.003827	0.583980
H285	H	1.173767	0.329506	0.917313
