data_functionalizedCrystal
_audit_creation_method	'MofGen! by Chris Wilmer'
_symmetry_space_group_name_H-M	'P1'
_symmetry_Int_Tables_number	1
_symmetry_cell_setting	triclinic
loop_
_symmetry_equiv_pos_as_xyz
  x,y,z
_cell_length_a	19.805405
_cell_length_b	18.215407
_cell_length_c	18.215399
_cell_angle_alpha	90.017368
_cell_angle_beta	90.030610
_cell_angle_gamma	90.023854
loop_
_atom_site_label
_atom_site_type_symbol
_atom_site_fract_x
_atom_site_fract_y
_atom_site_fract_z
Zn1	Zn	-0.269516	1.125064	0.416054
Zn2	Zn	-0.019516	1.375064	0.666054
Zn3	Zn	0.230484	1.625064	0.916054
Zn4	Zn	0.480484	1.875064	1.166054
Zn5	Zn	-0.382707	1.124969	0.292982
Zn6	Zn	-0.132707	1.374969	0.542982
Zn7	Zn	0.117293	1.624969	0.792982
Zn8	Zn	0.367293	1.874969	1.042982
Zn9	Zn	-0.269533	1.001997	0.293006
Zn10	Zn	-0.019533	1.251997	0.543006
Zn11	Zn	0.230467	1.501997	0.793006
Zn12	Zn	0.480467	1.751997	1.043006
Zn13	Zn	-0.382664	1.001959	0.416012
Zn14	Zn	-0.132664	1.251959	0.666012
Zn15	Zn	0.117336	1.501959	0.916012
Zn16	Zn	0.367336	1.751959	1.166012
O17	O	-0.326105	1.063497	0.354514
O18	O	-0.076105	1.313497	0.604514
O19	O	0.173895	1.563497	0.854514
O20	O	0.423895	1.813497	1.104514
O21	O	-0.284543	1.228036	0.399735
O22	O	-0.034543	1.478036	0.649735
O23	O	0.215457	1.728036	0.899735
O24	O	0.465457	1.978036	1.149735
O25	O	-0.367719	1.108633	0.190001
O26	O	-0.117719	1.358633	0.440001
O27	O	0.132281	1.608633	0.690001
O28	O	0.382281	1.858633	0.940001
O29	O	-0.174814	1.018377	0.309357
O30	O	0.075186	1.268377	0.559357
O31	O	0.325186	1.518377	0.809357
O32	O	0.575186	1.768377	1.059357
O33	O	-0.367704	1.227966	0.309315
O34	O	-0.117704	1.477966	0.559315
O35	O	0.132296	1.727966	0.809315
O36	O	0.382296	1.977966	1.059315
O37	O	-0.174802	1.108794	0.399759
O38	O	0.075198	1.358794	0.649759
O39	O	0.325198	1.608794	0.899759
O40	O	0.575198	1.858794	1.149759
O41	O	-0.284570	1.018285	0.190019
O42	O	-0.034570	1.268285	0.440019
O43	O	0.215430	1.518285	0.690019
O44	O	0.465430	1.768285	0.940019
O45	O	-0.284528	0.899007	0.309316
O46	O	-0.034528	1.149007	0.559316
O47	O	0.215472	1.399007	0.809316
O48	O	0.465472	1.649007	1.059316
O49	O	-0.367629	1.018313	0.519002
O50	O	-0.117629	1.268313	0.769002
O51	O	0.132371	1.518313	1.019002
O52	O	0.382371	1.768313	1.269002
O53	O	-0.367645	0.898980	0.399688
O54	O	-0.117645	1.148980	0.649688
O55	O	0.132355	1.398980	0.899688
O56	O	0.382355	1.648980	1.149688
O57	O	-0.284501	1.108758	0.519033
O58	O	-0.034501	1.358758	0.769033
O59	O	0.215499	1.608758	1.019033
O60	O	0.465499	1.858758	1.269033
O61	O	-0.477418	1.108596	0.309274
O62	O	-0.227418	1.358596	0.559274
O63	O	0.022582	1.608596	0.809274
O64	O	0.272582	1.858596	1.059274
O65	O	-0.477386	1.018221	0.399664
O66	O	-0.227386	1.268221	0.649664
O67	O	0.022614	1.518221	0.899664
O68	O	0.272614	1.768221	1.149664
C69	C	-0.326084	0.872291	0.354501
C70	C	-0.076084	1.122291	0.604501
C71	C	0.173916	1.372291	0.854501
C72	C	0.423916	1.622291	1.104501
C73	C	-0.326092	0.790492	0.354513
C74	C	-0.076092	1.040492	0.604513
C75	C	0.173908	1.290492	0.854513
C76	C	0.423908	1.540492	1.104513
C77	C	-0.282879	0.602334	0.401669
C78	C	-0.032879	0.852334	0.651669
C79	C	0.217121	1.102334	0.901669
C80	C	0.467121	1.352334	1.151669
C81	C	-0.282885	0.525475	0.401671
C82	C	-0.032885	0.775475	0.651671
C83	C	0.217115	1.025475	0.901671
C84	C	0.467115	1.275475	1.151671
C85	C	-0.369350	0.525413	0.307371
C86	C	-0.119350	0.775413	0.557371
C87	C	0.130650	1.025413	0.807371
C88	C	0.380650	1.275413	1.057371
C89	C	-0.369340	0.602270	0.307365
C90	C	-0.119340	0.852270	0.557365
C91	C	0.130660	1.102270	0.807365
C92	C	0.380660	1.352270	1.057365
C93	C	-0.326106	0.640729	0.354519
C94	C	-0.076106	0.890729	0.604519
C95	C	0.173894	1.140729	0.854519
C96	C	0.423894	1.390729	1.104519
C97	C	-0.326121	0.487013	0.354527
C98	C	-0.076121	0.737013	0.604527
C99	C	0.173879	0.987013	0.854527
C100	C	0.423879	1.237013	1.104527
C101	C	-0.326128	0.403679	0.354529
C102	C	-0.076128	0.653679	0.604529
C103	C	0.173872	0.903679	0.854529
C104	C	0.423872	1.153679	1.104529
C105	C	-0.326098	0.724068	0.354515
C106	C	-0.076098	0.974068	0.604515
C107	C	0.173902	1.224068	0.854515
C108	C	0.423902	1.474068	1.104515
C109	C	-0.501961	1.063415	0.354478
C110	C	-0.251961	1.313415	0.604478
C111	C	-0.001961	1.563415	0.854478
C112	C	0.248039	1.813415	1.104478
C113	C	-0.577193	1.063446	0.354487
C114	C	-0.327193	1.313446	0.604487
C115	C	-0.077193	1.563446	0.854487
C116	C	0.172807	1.813446	1.104487
C117	C	-0.612531	1.110550	0.307471
C118	C	-0.362531	1.360550	0.557471
C119	C	-0.112531	1.610550	0.807471
C120	C	0.137469	1.860550	1.057471
C121	C	-0.683220	1.110582	0.307487
C122	C	-0.433220	1.360582	0.557487
C123	C	-0.183220	1.610582	0.807487
C124	C	0.066780	1.860582	1.057487
C125	C	-0.718569	1.063505	0.354517
C126	C	-0.468569	1.313505	0.604517
C127	C	-0.218569	1.563505	0.854517
C128	C	0.031431	1.813505	1.104517
C129	C	-0.683225	1.016399	0.401539
C130	C	-0.433225	1.266399	0.651539
C131	C	-0.183225	1.516399	0.901539
C132	C	0.066775	1.766399	1.151539
C133	C	-0.612538	1.016372	0.401525
C134	C	-0.362538	1.266372	0.651525
C135	C	-0.112538	1.516372	0.901525
C136	C	0.137462	1.766372	1.151525
C137	C	-0.968298	1.016507	0.401593
C138	C	-0.718298	1.266507	0.651593
C139	C	-0.468298	1.516507	0.901593
C140	C	-0.218298	1.766507	1.151593
C141	C	-1.038991	1.016536	0.401601
C142	C	-0.788991	1.266536	0.651601
C143	C	-0.538991	1.516536	0.901601
C144	C	-0.288991	1.766536	1.151601
C145	C	-1.038980	1.110717	0.307555
C146	C	-0.788980	1.360717	0.557555
C147	C	-0.538980	1.610717	0.807555
C148	C	-0.288980	1.860717	1.057555
C149	C	-0.968293	1.110690	0.307541
C150	C	-0.718293	1.360690	0.557541
C151	C	-0.468293	1.610690	0.807541
C152	C	-0.218293	1.860690	1.057541
C153	C	-0.932956	1.063587	0.354566
C154	C	-0.682956	1.313587	0.604566
C155	C	-0.432956	1.563587	0.854566
C156	C	-0.182956	1.813587	1.104566
C157	C	-0.856307	1.063555	0.354548
C158	C	-0.606307	1.313555	0.604548
C159	C	-0.356307	1.563555	0.854548
C160	C	-0.106307	1.813555	1.104548
C161	C	-0.795216	1.063533	0.354531
C162	C	-0.545216	1.313533	0.604531
C163	C	-0.295216	1.563533	0.854531
C164	C	-0.045216	1.813533	1.104531
C165	C	-0.149562	1.063601	0.354565
C166	C	0.100438	1.313601	0.604565
C167	C	0.350438	1.563601	0.854565
C168	C	0.600438	1.813601	1.104565
C169	C	-0.074330	1.063644	0.354587
C170	C	0.175670	1.313644	0.604587
C171	C	0.425670	1.563644	0.854587
C172	C	0.675670	1.813644	1.104587
C173	C	-0.326058	1.063542	0.546467
C174	C	-0.076058	1.313542	0.796467
C175	C	0.173942	1.563542	1.046467
C176	C	0.423942	1.813542	1.296467
C177	C	-0.326038	1.063561	0.628265
C178	C	-0.076038	1.313561	0.878265
C179	C	0.173962	1.563561	1.128265
C180	C	0.423962	1.813561	1.378265
C181	C	-0.326126	1.255450	0.354527
C182	C	-0.076126	1.505450	0.604527
C183	C	0.173874	1.755450	0.854527
C184	C	0.423874	2.005450	1.104527
C185	C	-0.326135	1.337249	0.354533
C186	C	-0.076135	1.587249	0.604533
C187	C	0.173865	1.837249	0.854533
C188	C	0.423865	2.087249	1.104533
C189	C	-0.326103	1.063495	0.163307
C190	C	-0.076103	1.313495	0.413307
C191	C	0.173897	1.563495	0.663307
C192	C	0.423897	1.813495	0.913307
C193	C	-0.325932	1.063619	0.081509
C194	C	-0.075932	1.313619	0.331509
C195	C	0.174068	1.563619	0.581509
C196	C	0.424068	1.813619	0.831509
C197	C	-0.282713	1.110673	0.816477
C198	C	-0.032713	1.360673	1.066477
C199	C	0.217287	1.610673	1.316477
C200	C	0.467287	1.860673	1.566477
C201	C	-0.282693	1.110681	0.893335
C202	C	-0.032693	1.360681	1.143335
C203	C	0.217307	1.610681	1.393335
C204	C	0.467307	1.860681	1.643335
C205	C	-0.369259	1.016502	0.893292
C206	C	-0.119259	1.266502	1.143292
C207	C	0.130741	1.516502	1.393292
C208	C	0.380741	1.766502	1.643292
C209	C	-0.369275	1.016490	0.816435
C210	C	-0.119275	1.266490	1.066435
C211	C	0.130725	1.516490	1.316435
C212	C	0.380725	1.766490	1.566435
C213	C	-0.326003	1.063580	0.778029
C214	C	-0.076003	1.313580	1.028029
C215	C	0.173997	1.563580	1.278029
C216	C	0.423997	1.813580	1.528029
C217	C	-0.325967	1.063600	0.931745
C218	C	-0.075967	1.313600	1.181745
C219	C	0.174033	1.563600	1.431745
C220	C	0.424033	1.813600	1.681745
C221	C	-0.325946	1.063609	1.015079
C222	C	-0.075946	1.313609	1.265079
C223	C	0.174054	1.563609	1.515079
C224	C	0.424054	1.813609	1.765079
C225	C	-0.326023	1.063570	0.694690
C226	C	-0.076023	1.313570	0.944690
C227	C	0.173977	1.563570	1.194690
C228	C	0.423977	1.813570	1.444690
H229	H	-0.404542	0.633533	0.268966
H230	H	-0.154542	0.883533	0.518966
H231	H	0.095458	1.133533	0.768966
H232	H	0.345458	1.383533	1.018966
Br233	Br	-0.223944	1.174602	0.945512
Br234	Br	0.026056	1.424602	1.195512
Br235	Br	0.276056	1.674602	1.445512
Br236	Br	0.526056	1.924602	1.695512
Br237	Br	-0.564578	0.952447	0.465341
Br238	Br	-0.314578	1.202447	0.715341
Br239	Br	-0.064578	1.452447	0.965341
Br240	Br	0.185422	1.702447	1.215341
H241	H	-0.404551	0.494091	0.268982
H242	H	-0.154551	0.744091	0.518982
H243	H	0.095449	0.994091	0.768982
H244	H	0.345449	1.244091	1.018982
Br245	Br	-0.224202	0.654525	0.465660
Br246	Br	0.025798	0.904525	0.715660
Br247	Br	0.275798	1.154525	0.965660
Br248	Br	0.525798	1.404525	1.215660
Br249	Br	-0.920350	0.952582	0.465412
Br250	Br	-0.670350	1.202582	0.715412
Br251	Br	-0.420350	1.452582	0.965412
Br252	Br	-0.170350	1.702582	1.215412
Br253	Br	-0.427986	0.952600	0.945419
Br254	Br	-0.177986	1.202600	1.195419
Br255	Br	0.072014	1.452600	1.445419
Br256	Br	0.322014	1.702600	1.695419
H257	H	-0.583755	1.148882	0.269170
H258	H	-0.333755	1.398882	0.519170
H259	H	-0.083755	1.648882	0.769170
H260	H	0.166245	1.898882	1.019170
H261	H	-0.404527	0.978136	0.785130
H262	H	-0.154527	1.228136	1.035130
H263	H	0.095473	1.478136	1.285130
H264	H	0.345473	1.728136	1.535130
H265	H	-1.067760	1.149073	0.269268
H266	H	-0.817760	1.399073	0.519268
H267	H	-0.567760	1.649073	0.769268
H268	H	-0.317760	1.899073	1.019268
H269	H	-0.247684	0.494217	0.440065
H270	H	0.002316	0.744217	0.690065
H271	H	0.252316	0.994217	0.940065
H272	H	0.502316	1.244217	1.190065
H273	H	-0.711989	1.148938	0.269201
H274	H	-0.461989	1.398938	0.519201
H275	H	-0.211989	1.648938	0.769201
H276	H	0.038011	1.898938	1.019201
H277	H	-1.067770	0.978201	0.439904
H278	H	-0.817770	1.228201	0.689904
H279	H	-0.567770	1.478201	0.939904
H280	H	-0.317770	1.728201	1.189904
Br281	Br	-0.920323	1.174581	0.243712
Br282	Br	-0.670323	1.424581	0.493712
Br283	Br	-0.420323	1.674581	0.743712
Br284	Br	-0.170323	1.924581	0.993712
Br285	Br	-0.731198	0.952514	0.465372
Br286	Br	-0.481198	1.202514	0.715372
Br287	Br	-0.231198	1.452514	0.965372
Br288	Br	0.018802	1.702514	1.215372
H289	H	-0.247476	1.149014	0.785209
H290	H	0.002524	1.399014	1.035209
H291	H	0.252524	1.649014	1.285209
H292	H	0.502524	1.899014	1.535209
