data_functionalizedCrystal
_audit_creation_method	'MofGen! by Chris Wilmer'
_symmetry_space_group_name_H-M	'P1'
_symmetry_Int_Tables_number	1
_symmetry_cell_setting	triclinic
loop_
_symmetry_equiv_pos_as_xyz
  x,y,z
_cell_length_a	23.532407
_cell_length_b	23.532407
_cell_length_c	12.503572
_cell_angle_alpha	93.496478
_cell_angle_beta	86.509276
_cell_angle_gamma	82.848678
loop_
_atom_site_label
_atom_site_type_symbol
_atom_site_fract_x
_atom_site_fract_y
_atom_site_fract_z
O1	O	0.758558	0.065826	-0.089196
O2	O	1.258558	0.565826	0.410804
O3	O	0.592696	0.075828	-0.089229
O4	O	1.092696	0.575828	0.410771
O5	O	0.680627	-0.012104	-0.089192
O6	O	1.180627	0.487896	0.410808
O7	O	0.670626	0.153758	-0.089233
O8	O	1.170626	0.653758	0.410767
O9	O	0.674014	-0.005480	0.089447
O10	O	1.174014	0.494520	0.589447
O11	O	0.586082	0.082452	0.089410
O12	O	1.086082	0.582452	0.589410
O13	O	0.751945	0.072450	0.089443
O14	O	1.251945	0.572450	0.589443
Cu15	Cu	0.668410	0.078056	0.105738
Cu16	Cu	1.168410	0.578056	0.605738
Cu17	Cu	0.676230	0.070222	-0.105524
Cu18	Cu	1.176230	0.570222	0.394476
O19	O	0.664013	0.160382	0.089406
O20	O	1.164013	0.660382	0.589406
C21	C	0.568173	0.078885	0.000086
C22	C	1.068173	0.578885	0.500086
C23	C	0.504957	0.078119	0.000075
C24	C	1.004957	0.578119	0.500075
C25	C	0.105852	0.125354	0.000111
C26	C	0.605852	0.625354	0.500111
C27	C	0.046452	0.124642	0.000118
C28	C	0.546452	0.624642	0.500118
O29	O	0.009706	0.168429	0.000146
O30	O	0.509706	0.668429	0.500146
N31	N	0.023825	0.072367	0.000129
N32	N	0.523825	0.572367	0.500129
C33	C	0.060602	0.020799	0.000145
C34	C	0.560602	0.520799	0.500145
O35	O	0.035902	-0.023731	0.000156
O36	O	0.535902	0.476269	0.500156
C37	C	0.120001	0.021511	0.000146
C38	C	0.620001	0.521511	0.500146
C39	C	0.142625	0.073790	0.000124
C40	C	0.642625	0.573790	0.500124
C41	C	0.128476	0.177628	0.000090
C42	C	0.628476	0.677628	0.500090
C43	C	0.187873	0.178339	0.000082
C44	C	0.687873	0.678339	0.500082
C45	C	0.224645	0.126775	0.000094
C46	C	0.724645	0.626775	0.500094
C47	C	0.202021	0.074501	0.000115
C48	C	0.702021	0.574501	0.500115
C49	C	0.156777	-0.030056	0.000169
C50	C	0.656777	0.469944	0.500169
C51	C	0.216179	-0.029339	0.000171
C52	C	0.716179	0.470661	0.500171
C53	C	0.238803	0.022940	0.000148
C54	C	0.738803	0.522940	0.500148
C55	C	0.298190	0.023648	0.000118
C56	C	0.798190	0.523648	0.500118
N57	N	0.320817	0.075924	0.000107
N58	N	0.820817	0.575924	0.500107
C59	C	0.284044	0.127488	0.000095
C60	C	0.784044	0.627488	0.500095
C61	C	-0.064140	0.019307	0.000145
C62	C	0.435860	0.519307	0.500145
C63	C	-0.123538	0.018595	0.000136
C64	C	0.376462	0.518595	0.500136
C65	C	-0.137685	0.122438	0.000111
C66	C	0.362315	0.622438	0.500111
C67	C	-0.078286	0.123151	0.000112
C68	C	0.421714	0.623151	0.500112
C69	C	-0.041514	0.071583	0.000133
C70	C	0.458486	0.571583	0.500133
C71	C	0.408782	0.128976	0.000076
C72	C	0.908782	0.628976	0.500076
C73	C	0.468184	0.129683	0.000062
C74	C	0.968184	0.629683	0.500062
C75	C	0.482325	0.025839	0.000093
C76	C	0.982325	0.525839	0.500093
C77	C	0.422928	0.025133	0.000100
C78	C	0.922928	0.525133	0.500100
C79	C	0.386157	0.076706	0.000095
C80	C	0.886157	0.576706	0.500095
O81	O	0.334970	-0.020116	0.000095
O82	O	0.834970	0.479884	0.500095
O83	O	0.308752	0.172011	0.000098
O84	O	0.808752	0.672011	0.500098
C85	C	0.677066	-0.030008	0.000130
C86	C	1.177066	0.469992	0.500130
C87	C	0.676300	-0.093225	0.000138
C88	C	1.176300	0.406775	0.500138
C89	C	0.723535	-0.492329	0.000089
C90	C	1.223535	0.007671	0.500089
C91	C	0.722824	-0.551730	0.000080
C92	C	1.222824	-0.051730	0.500080
O93	O	0.766611	-0.588476	0.000050
O94	O	1.266611	-0.088476	0.500050
N95	N	0.670548	-0.574357	0.000071
N96	N	1.170548	-0.074357	0.500071
C97	C	0.618980	-0.537579	0.000059
C98	C	1.118980	-0.037579	0.500059
O99	O	0.574450	-0.562279	0.000049
O100	O	1.074450	-0.062279	0.500049
C101	C	0.619692	-0.478180	0.000059
C102	C	1.119692	0.021820	0.500059
C103	C	0.671971	-0.455557	0.000080
C104	C	1.171971	0.044443	0.500080
C105	C	0.775810	-0.469706	0.000108
C106	C	1.275810	0.030294	0.500108
C107	C	0.776521	-0.410309	0.000118
C108	C	1.276521	0.089691	0.500118
C109	C	0.724957	-0.373536	0.000109
C110	C	1.224957	0.126464	0.500109
C111	C	0.672682	-0.396160	0.000090
C112	C	1.172682	0.103840	0.500090
C113	C	0.568126	-0.441405	0.000039
C114	C	1.068126	0.058595	0.500039
C115	C	0.568842	-0.382002	0.000039
C116	C	1.068842	0.117998	0.500039
C117	C	0.621121	-0.359379	0.000060
C118	C	1.121121	0.140621	0.500060
C119	C	0.621829	-0.299991	0.000091
C120	C	1.121829	0.200009	0.500091
N121	N	0.674105	-0.277365	0.000101
N122	N	1.174105	0.222635	0.500101
C123	C	0.725669	-0.314137	0.000110
C124	C	1.225669	0.185863	0.500110
C125	C	0.617489	-0.662322	0.000055
C126	C	1.117489	-0.162322	0.500055
C127	C	0.616776	-0.721720	0.000062
C128	C	1.116776	-0.221720	0.500062
C129	C	0.720620	-0.735866	0.000082
C130	C	1.220620	-0.235866	0.500082
C131	C	0.721332	-0.676467	0.000083
C132	C	1.221332	-0.176467	0.500083
C133	C	0.669765	-0.639696	0.000065
C134	C	1.169765	-0.139696	0.500065
C135	C	0.727158	-0.189400	0.000133
C136	C	1.227158	0.310600	0.500133
C137	C	0.727864	-0.129997	0.000147
C138	C	1.227864	0.370003	0.500147
C139	C	0.624020	-0.115856	0.000122
C140	C	1.124020	0.384144	0.500122
C141	C	0.623314	-0.175253	0.000113
C142	C	1.123314	0.324747	0.500113
C143	C	0.674887	-0.212024	0.000114
C144	C	1.174887	0.287976	0.500114
O145	O	0.578065	-0.263211	0.000118
O146	O	1.078065	0.236789	0.500118
O147	O	0.770192	-0.289430	0.000106
O148	O	1.270192	0.210570	0.500106
C149	C	0.776467	0.069393	0.000125
C150	C	1.276467	0.569393	0.500125
C151	C	0.839684	0.070159	0.000130
C152	C	1.339684	0.570159	0.500130
C153	C	0.667574	0.178286	0.000081
C154	C	1.167574	0.678286	0.500081
C155	C	0.668341	0.241502	0.000066
C156	C	1.168341	0.741502	0.500066
N157	N	0.662913	0.083565	0.254327
N158	N	1.162913	0.583565	0.754327
N159	N	0.681732	0.064708	-0.254114
N160	N	1.181732	0.564708	0.245886
C161	C	0.654828	0.091674	0.473439
C162	C	1.154828	0.591674	0.973439
C163	C	0.689815	0.056601	0.526781
C164	C	1.189815	0.556601	1.026781
C165	C	0.685316	0.061113	0.648702
C166	C	1.185316	0.561113	1.148702
C167	C	0.659326	0.087163	0.351507
C168	C	1.159326	0.587163	0.851507
H169	H	-0.141952	-0.023977	0.000137
H170	H	0.358048	0.476023	0.500137
O171	O	0.209748	0.229176	0.000121
O172	O	0.709748	0.729176	0.500121
C173	C	0.164546	0.274527	0.000089
C174	C	0.664546	0.774527	0.500089
H175	H	0.123031	0.260043	0.033908
H176	H	0.623031	0.760043	0.533908
H177	H	0.174835	0.312970	0.051950
H178	H	0.674835	0.812970	0.551950
H179	H	0.159219	0.287242	-0.085615
H180	H	0.659219	0.787242	0.414385
O181	O	0.614989	0.131481	0.528140
O182	O	1.114989	0.631481	1.028140
C183	C	0.559633	0.121625	0.500747
C184	C	1.059633	0.621625	1.000747
H185	H	0.560657	0.074910	0.469751
H186	H	1.060657	0.574910	0.969751
H187	H	0.528335	0.131065	0.574770
H188	H	1.028335	0.631065	1.074770
H189	H	0.545143	0.150928	0.435574
H190	H	1.045143	0.650928	0.935574
O191	O	0.729601	0.016689	0.472200
O192	O	1.229601	0.516689	0.972200
C193	C	0.761261	-0.015023	0.545809
C194	C	1.261261	0.484977	1.045809
H195	H	0.734995	-0.012589	0.626007
H196	H	1.234995	0.487411	1.126007
H197	H	0.771323	-0.061742	0.513221
H198	H	1.271323	0.438258	1.013221
H199	H	0.803065	0.003618	0.557720
H200	H	1.303065	0.503618	1.057720
H201	H	0.512276	-0.016143	0.000099
H202	H	1.012276	0.483857	0.500099
O203	O	0.490063	0.180521	0.000092
O204	O	0.990063	0.680521	0.500092
C205	C	0.444865	0.225877	0.000059
C206	C	0.944865	0.725877	0.500059
H207	H	0.403350	0.211400	0.033889
H208	H	0.903350	0.711400	0.533889
H209	H	0.455162	0.264320	0.051912
H210	H	0.955162	0.764320	0.551912
H211	H	0.439536	0.238588	-0.085646
H212	H	0.939536	0.738588	0.414354
H213	H	0.404508	-0.017438	0.000103
H214	H	0.904508	0.482562	0.500103
H215	H	0.575494	-0.632385	0.000050
H216	H	1.075494	-0.132385	0.500050
H217	H	0.525555	-0.459814	0.000016
H218	H	1.025555	0.040186	0.500016
O219	O	-0.173360	0.172572	0.000251
O220	O	0.326640	0.672572	0.500251
C221	C	-0.166583	0.207756	0.092777
C222	C	0.333417	0.707756	0.592777
H223	H	-0.122581	0.194660	0.123620
H224	H	0.377419	0.694660	0.623620
H225	H	-0.170262	0.254509	0.071961
H226	H	0.329738	0.754509	0.571961
H227	H	-0.201424	0.202553	0.157567
H228	H	0.298576	0.702553	0.657567
H229	H	0.769154	-0.219333	0.000130
H230	H	1.269154	0.280667	0.500130
H231	H	0.574205	-0.740133	0.000064
H232	H	1.074205	-0.240133	0.500064
H233	H	0.378849	0.170973	0.000075
H234	H	0.878849	0.670973	0.500075
H235	H	0.580743	-0.193673	0.000126
H236	H	1.080743	0.306327	0.500126
O237	O	0.092730	0.227713	0.000261
O238	O	0.592730	0.727713	0.500261
C239	C	0.054512	0.233846	0.092759
C240	C	0.554512	0.733846	0.592759
H241	H	0.074028	0.206997	0.157444
H242	H	0.574028	0.706997	0.657444
H243	H	0.046441	0.280913	0.123790
H244	H	0.546441	0.780913	0.623790
H245	H	0.012166	0.218590	0.071842
H246	H	0.512166	0.718590	0.571842
O247	O	-0.056375	0.173965	-0.000045
O248	O	0.443625	0.673965	0.499955
C249	C	-0.071764	0.201937	-0.092588
C250	C	0.428236	0.701937	0.407412
H251	H	-0.111735	0.185506	-0.123432
H252	H	0.388265	0.685506	0.376568
H253	H	-0.081045	0.250182	-0.071794
H254	H	0.418955	0.750182	0.428206
H255	H	-0.034955	0.192743	-0.157368
H256	H	0.465045	0.692743	0.342632
H257	H	0.582038	-0.085905	0.000118
H258	H	1.082038	0.414095	0.500118
O259	O	-0.028501	-0.030843	0.000100
O260	O	0.471499	0.469157	0.500100
C261	C	-0.061216	-0.077130	0.000135
C262	C	0.438784	0.422870	0.500135
H263	H	-0.104381	-0.063662	-0.033684
H264	H	0.395619	0.436338	0.466316
H265	H	-0.037195	-0.115161	-0.051725
H266	H	0.462805	0.384839	0.448275
H267	H	-0.068527	-0.089995	0.085840
H268	H	0.431473	0.410005	0.585840
O269	O	0.134903	-0.080888	0.000248
O270	O	0.634903	0.419112	0.500248
C271	C	0.180107	-0.126240	0.000242
C272	C	0.680107	0.373760	0.500242
H273	H	0.219122	-0.109245	0.034044
H274	H	0.719122	0.390755	0.534044
H275	H	0.165986	-0.160833	0.052131
H276	H	0.665986	0.339167	0.552131
H277	H	0.191768	-0.145313	-0.085452
H278	H	0.691768	0.354687	0.414548
H279	H	0.526849	-0.352065	0.000023
H280	H	1.026849	0.147935	0.500023
H281	H	0.246116	-0.071332	0.000189
H282	H	0.746116	0.428668	0.500189
O283	O	0.778702	-0.108119	0.000115
O284	O	1.278702	0.391881	0.500115
C285	C	0.824058	-0.153316	0.000144
C286	C	1.324058	0.346684	0.500144
H287	H	0.809579	-0.194833	-0.033685
H288	H	1.309579	0.305167	0.466315
H289	H	0.862498	-0.143022	-0.051711
H290	H	1.362498	0.356978	0.448289
H291	H	0.836775	-0.158642	0.085848
H292	H	1.336775	0.341358	0.585848
H293	H	0.817802	-0.499641	0.000112
H294	H	1.317802	0.000359	0.500112
H295	H	0.819092	-0.391895	0.000131
H296	H	1.319092	0.108105	0.500131
H297	H	0.763902	-0.658052	0.000099
H298	H	1.263902	-0.158052	0.500099
H299	H	0.762606	-0.765818	0.000086
H300	H	1.262606	-0.265818	0.500086
