data_functionalizedCrystal
_audit_creation_method	'MofGen! by Chris Wilmer'
_symmetry_space_group_name_H-M	'P1'
_symmetry_Int_Tables_number	1
_symmetry_cell_setting	triclinic
loop_
_symmetry_equiv_pos_as_xyz
  x,y,z
_cell_length_a	19.805399
_cell_length_b	18.215407
_cell_length_c	18.215405
_cell_angle_alpha	89.977671
_cell_angle_beta	90.029242
_cell_angle_gamma	89.983693
loop_
_atom_site_label
_atom_site_type_symbol
_atom_site_fract_x
_atom_site_fract_y
_atom_site_fract_z
Zn1	Zn	-0.382653	1.125064	0.293052
Zn2	Zn	-0.049319	1.458398	0.626385
Zn3	Zn	0.284014	1.791731	0.959718
Zn4	Zn	-0.269461	1.124975	0.416120
Zn5	Zn	0.063872	1.458308	0.749453
Zn6	Zn	0.397205	1.791642	1.082787
Zn7	Zn	-0.269484	1.001999	0.293066
Zn8	Zn	0.063849	1.335332	0.626400
Zn9	Zn	0.397183	1.668666	0.959733
Zn10	Zn	-0.382615	1.001963	0.416075
Zn11	Zn	-0.049281	1.335296	0.749409
Zn12	Zn	0.284052	1.668629	1.082742
O13	O	-0.326053	1.063500	0.354578
O14	O	0.007280	1.396834	0.687912
O15	O	0.340614	1.730167	1.021245
O16	O	-0.367644	1.228037	0.309389
O17	O	-0.034311	1.561370	0.642723
O18	O	0.299022	1.894703	0.976056
O19	O	-0.174748	1.108640	0.399822
O20	O	0.158586	1.441973	0.733155
O21	O	0.491919	1.775306	1.066488
O22	O	-0.284521	1.018377	0.190080
O23	O	0.048812	1.351710	0.523413
O24	O	0.382145	1.685043	0.856747
O25	O	-0.284483	1.227971	0.399807
O26	O	0.048850	1.561304	0.733141
O27	O	0.382184	1.894638	1.066474
O28	O	-0.367666	1.108792	0.190069
O29	O	-0.034333	1.442125	0.523403
O30	O	0.299000	1.775459	0.856736
O31	O	-0.174764	1.018290	0.309415
O32	O	0.158569	1.351623	0.642748
O33	O	0.491902	1.684957	0.976081
O34	O	-0.284484	0.899010	0.309371
O35	O	0.048849	1.232343	0.642705
O36	O	0.382182	1.565677	0.976038
O37	O	-0.477336	1.018314	0.399731
O38	O	-0.144003	1.351648	0.733064
O39	O	0.189330	1.684981	1.066398
O40	O	-0.367601	0.898983	0.399746
O41	O	-0.034268	1.232317	0.733079
O42	O	0.299066	1.565650	1.066412
O43	O	-0.477364	1.108757	0.309346
O44	O	-0.144031	1.442090	0.642679
O45	O	0.189302	1.775423	0.976013
O46	O	-0.284446	1.108604	0.519098
O47	O	0.048887	1.441938	0.852432
O48	O	0.382221	1.775271	1.185765
O49	O	-0.367579	1.018228	0.519066
O50	O	-0.034246	1.351561	0.852399
O51	O	0.299088	1.684895	1.185732
C52	C	-0.326041	0.872294	0.354556
C53	C	0.007292	1.205627	0.687889
C54	C	0.340625	1.538961	1.021222
C55	C	-0.326052	0.790495	0.354564
C56	C	0.007281	1.123828	0.687897
C57	C	0.340614	1.457162	1.021230
C58	C	-0.369423	0.602334	0.307580
C59	C	-0.036089	0.935668	0.640913
C60	C	0.297244	1.269001	0.974247
C61	C	-0.369425	0.525476	0.307586
C62	C	-0.036092	0.858809	0.640920
C63	C	0.297242	1.192142	0.974253
C64	C	-0.282695	0.525418	0.401597
C65	C	0.050638	0.858751	0.734931
C66	C	0.383971	1.192085	1.068264
C67	C	-0.282690	0.602275	0.401587
C68	C	0.050643	0.935609	0.734920
C69	C	0.383976	1.268942	1.068253
C70	C	-0.326058	0.640732	0.354579
C71	C	0.007276	0.974065	0.687913
C72	C	0.340609	1.307398	1.021246
C73	C	-0.326065	0.487015	0.354596
C74	C	0.007268	0.820349	0.687929
C75	C	0.340601	1.153682	1.021263
C76	C	-0.326067	0.403682	0.354603
C77	C	0.007266	0.737015	0.687937
C78	C	0.340599	1.070348	1.021270
C79	C	-0.326055	0.724071	0.354571
C80	C	0.007278	1.057404	0.687904
C81	C	0.340612	1.390737	1.021237
C82	C	-0.502596	1.063541	0.354532
C83	C	-0.169263	1.396875	0.687865
C84	C	0.164071	1.730208	1.021199
C85	C	-0.577828	1.063559	0.354512
C86	C	-0.244495	1.396892	0.687846
C87	C	0.088839	1.730226	1.021179
C88	C	-0.613188	1.110653	0.307446
C89	C	-0.279855	1.443987	0.640780
C90	C	0.053479	1.777320	0.974113
C91	C	-0.683876	1.110661	0.307425
C92	C	-0.350543	1.443994	0.640758
C93	C	-0.017210	1.777328	0.974092
C94	C	-0.719204	1.063577	0.354474
C95	C	-0.385870	1.396911	0.687807
C96	C	-0.052537	1.730244	1.021140
C97	C	-0.683839	1.016478	0.401542
C98	C	-0.350505	1.349811	0.734875
C99	C	-0.017172	1.683145	1.068208
C100	C	-0.613152	1.016467	0.401559
C101	C	-0.279818	1.349800	0.734892
C102	C	0.053515	1.683134	1.068225
C103	C	-0.968912	1.016519	0.401473
C104	C	-0.635579	1.349853	0.734806
C105	C	-0.302246	1.683186	1.068140
C106	C	-1.039604	1.016535	0.401454
C107	C	-0.706271	1.349869	0.734787
C108	C	-0.372938	1.683202	1.068121
C109	C	-1.039637	1.110713	0.307339
C110	C	-0.706304	1.444047	0.640673
C111	C	-0.372970	1.777380	0.974006
C112	C	-0.968950	1.110702	0.307356
C113	C	-0.635616	1.444036	0.640690
C114	C	-0.302283	1.777369	0.974023
C115	C	-0.933591	1.063601	0.354421
C116	C	-0.600258	1.396934	0.687755
C117	C	-0.266924	1.730267	1.021088
C118	C	-0.856943	1.063592	0.354443
C119	C	-0.523609	1.396925	0.687776
C120	C	-0.190276	1.730259	1.021110
C121	C	-0.795851	1.063589	0.354456
C122	C	-0.462517	1.396922	0.687790
C123	C	-0.129184	1.730256	1.021123
C124	C	-0.150197	1.063501	0.354571
C125	C	0.183136	1.396835	0.687905
C126	C	0.516470	1.730168	1.021238
C127	C	-0.074966	1.063626	0.354384
C128	C	0.258368	1.396960	0.687717
C129	C	0.591701	1.730293	1.021051
C130	C	-0.326065	1.255453	0.354602
C131	C	0.007268	1.588786	0.687935
C132	C	0.340601	1.922120	1.021268
C133	C	-0.326071	1.337252	0.354611
C134	C	0.007263	1.670585	0.687945
C135	C	0.340596	2.003919	1.021278
C136	C	-0.326021	1.063422	0.545785
C137	C	0.007313	1.396756	0.879118
C138	C	0.340646	1.730089	1.212451
C139	C	-0.326029	1.063457	0.627584
C140	C	0.007304	1.396790	0.960917
C141	C	0.340637	1.730123	1.294250
C142	C	-0.326101	1.063598	0.162625
C143	C	0.007233	1.396932	0.495959
C144	C	0.340566	1.730265	0.829292
C145	C	-0.326121	1.063640	0.080826
C146	C	0.007212	1.396973	0.414160
C147	C	0.340546	1.730307	0.747493
C148	C	-0.282822	1.110626	0.815770
C149	C	0.050512	1.443959	1.149103
C150	C	0.383845	1.777293	1.482437
C151	C	-0.282838	1.110659	0.892629
C152	C	0.050495	1.443992	1.225962
C153	C	0.383829	1.777326	1.559295
C154	C	-0.369333	1.016468	0.892635
C155	C	-0.036000	1.349802	1.225968
C156	C	0.297333	1.683135	1.559301
C157	C	-0.369320	1.016440	0.815777
C158	C	-0.035987	1.349773	1.149111
C159	C	0.297347	1.683106	1.482444
C160	C	-0.326060	1.063518	0.777347
C161	C	0.007273	1.396851	1.110680
C162	C	0.340607	1.730184	1.444014
C163	C	-0.326090	1.063579	0.931063
C164	C	0.007243	1.396912	1.264396
C165	C	0.340577	1.730246	1.597730
C166	C	-0.326108	1.063614	1.014397
C167	C	0.007225	1.396948	1.347730
C168	C	0.340559	1.730281	1.681063
C169	C	-0.326043	1.063483	0.694008
C170	C	0.007291	1.396817	1.027341
C171	C	0.340624	1.730150	1.360675
H172	H	-0.404733	0.633643	0.269301
H173	H	-0.071400	0.966976	0.602635
H174	H	0.261933	1.300310	0.935968
C175	C	-0.234983	0.644515	0.453292
C176	C	0.098351	0.977848	0.786625
C177	C	0.431684	1.311182	1.119958
N178	N	-0.199050	0.676330	0.492233
N179	N	0.134284	1.009663	0.825566
N180	N	0.467617	1.342996	1.158900
C181	C	-0.722769	1.162470	0.255650
C182	C	-0.389436	1.495803	0.588983
C183	C	-0.056102	1.829136	0.922317
N184	N	-0.752063	1.201494	0.216651
N185	N	-0.418729	1.534828	0.549984
N186	N	-0.085396	1.868161	0.883317
H187	H	-0.247630	1.149021	0.923909
H188	H	0.085704	1.482354	1.257243
H189	H	0.419037	1.815687	1.590576
C190	C	-0.574256	0.964661	0.453336
C191	C	-0.240923	1.297994	0.786670
C192	C	0.092411	1.631328	1.120003
N193	N	-0.544961	0.925638	0.492335
N194	N	-0.211627	1.258971	0.825669
N195	N	0.121706	1.592304	1.159002
C196	C	-0.235238	1.162417	0.773499
C197	C	0.098095	1.495750	1.106833
C198	C	0.431428	1.829084	1.440166
N199	N	-0.199399	1.201429	0.741663
N200	N	0.133935	1.534763	1.074997
N201	N	0.467268	1.868096	1.408330
C202	C	-0.574334	1.162449	0.255687
C203	C	-0.241001	1.495783	0.589021
C204	C	0.092332	1.829116	0.922354
N205	N	-0.545072	1.201461	0.216698
N206	N	-0.211739	1.534794	0.550032
N207	N	0.121595	1.868128	0.883365
H208	H	-0.404553	0.978138	0.923934
H209	H	-0.071220	1.311472	1.257267
H210	H	0.262114	1.644805	1.590601
H211	H	-0.404736	0.494216	0.269314
H212	H	-0.071403	0.827549	0.602647
H213	H	0.261931	1.160883	0.935981
H214	H	-0.940190	1.149045	0.269047
H215	H	-0.606856	1.482379	0.602380
H216	H	-0.273523	1.815712	0.935714
H217	H	-0.247388	0.494098	0.439870
H218	H	0.085946	0.827431	0.773203
H219	H	0.419279	1.160765	1.106536
C220	C	-1.078538	1.162518	0.255557
C221	C	-0.745204	1.495851	0.588891
C222	C	-0.411871	1.829184	0.922224
N223	N	-1.107837	1.201536	0.216556
N224	N	-0.774504	1.534869	0.549889
N225	N	-0.441170	1.868202	0.883223
H226	H	-0.940132	0.978177	0.439807
H227	H	-0.606798	1.311510	0.773140
H228	H	-0.273465	1.644844	1.106474
C229	C	-1.078463	0.964732	0.453209
C230	C	-0.745130	1.298066	0.786542
C231	C	-0.411796	1.631399	1.119875
N232	N	-1.107731	0.925715	0.492188
N233	N	-0.774398	1.259049	0.825521
N234	N	-0.441065	1.592382	1.158855
C235	C	-0.722701	0.964678	0.453289
C236	C	-0.389368	1.298011	0.786622
C237	C	-0.056035	1.631345	1.119955
N238	N	-0.751972	0.925661	0.492266
N239	N	-0.418639	1.258995	0.825599
N240	N	-0.085305	1.592328	1.158932
H241	H	-0.404533	0.978078	0.784491
H242	H	-0.071200	1.311411	1.117824
H243	H	0.262133	1.644745	1.451158
