data_functionalizedCrystal
_audit_creation_method	'MofGen! by Chris Wilmer'
_symmetry_space_group_name_H-M	'P1'
_symmetry_Int_Tables_number	1
_symmetry_cell_setting	triclinic
loop_
_symmetry_equiv_pos_as_xyz
  x,y,z
_cell_length_a	19.077105
_cell_length_b	29.839131
_cell_length_c	19.077222
_cell_angle_alpha	92.316442
_cell_angle_beta	90.096061
_cell_angle_gamma	87.737628
loop_
_atom_site_label
_atom_site_type_symbol
_atom_site_fract_x
_atom_site_fract_y
_atom_site_fract_z
Zn1	Zn	1.058104	-0.194815	0.440400
Zn2	Zn	1.558104	0.305185	0.940400
Zn3	Zn	1.062729	-0.273058	0.322883
Zn4	Zn	1.562729	0.226942	0.822883
Zn5	Zn	0.945343	-0.195047	0.318192
Zn6	Zn	1.445343	0.304953	0.818192
Zn7	Zn	0.940533	-0.267021	0.435637
Zn8	Zn	1.440533	0.232979	0.935637
O9	O	1.001677	-0.232485	0.379278
O10	O	1.501677	0.267515	0.879278
O11	O	1.157048	-0.207624	0.428768
O12	O	1.657048	0.292376	0.928768
O13	O	1.051105	-0.265333	0.223928
O14	O	1.551105	0.234667	0.723928
O15	O	0.960379	-0.132150	0.334433
O16	O	1.460379	0.367850	0.834433
O17	O	1.160445	-0.265108	0.342428
O18	O	1.660445	0.234892	0.842428
O19	O	1.043224	-0.131980	0.424219
O20	O	1.543224	0.368020	0.924219
O21	O	0.964863	-0.208018	0.220481
O22	O	1.464863	0.291982	0.720481
O23	O	0.846375	-0.202165	0.329815
O24	O	1.346375	0.297835	0.829815
O25	O	0.952181	-0.254819	0.534602
O26	O	1.452181	0.245181	1.034602
O27	O	0.842842	-0.255043	0.416102
O28	O	1.342842	0.244957	0.916102
O29	O	1.038560	-0.201770	0.538101
O30	O	1.538560	0.298230	1.038101
O31	O	1.046442	-0.335123	0.337810
O32	O	1.546442	0.164877	0.837810
O33	O	0.956665	-0.330687	0.420650
O34	O	1.456665	0.169313	0.920650
C35	C	0.819112	-0.227974	0.371933
C36	C	1.319112	0.272026	0.871933
C37	C	0.741010	-0.226055	0.368807
C38	C	1.241010	0.273945	0.868807
C39	C	0.702498	-0.252730	0.412193
C40	C	1.202498	0.247270	0.912193
C41	C	0.629112	-0.250920	0.409260
C42	C	1.129112	0.249080	0.909260
C43	C	0.594239	-0.222438	0.362936
C44	C	1.094239	0.277562	0.862936
C45	C	0.632756	-0.195761	0.319549
C46	C	1.132756	0.304239	0.819549
C47	C	0.706140	-0.197568	0.322486
C48	C	1.206140	0.302432	0.822486
C49	C	0.374958	-0.214073	0.349345
C50	C	0.874958	0.285927	0.849345
C51	C	0.301569	-0.212269	0.346409
C52	C	0.801569	0.287731	0.846409
C53	C	0.297930	-0.267428	0.436121
C54	C	0.797930	0.232572	0.936121
C55	C	0.371316	-0.269235	0.439051
C56	C	0.871316	0.230765	0.939051
C57	C	0.409826	-0.242556	0.395667
C58	C	0.909826	0.257444	0.895667
N59	N	0.519227	-0.220589	0.359935
N60	N	1.019227	0.279411	0.859935
N61	N	0.484837	-0.244403	0.398672
N62	N	0.984837	0.255597	0.898672
C63	C	1.001552	-0.349205	0.379238
C64	C	1.501552	0.150795	0.879238
C65	C	1.001562	-0.399140	0.379247
C66	C	1.501562	0.100860	0.879247
C67	C	1.048503	-0.711083	0.336212
C68	C	1.548503	-0.211083	0.836212
C69	C	1.048589	-0.898757	0.336243
C70	C	1.548589	-0.398757	0.836243
O71	O	1.088400	-0.924975	0.299622
O72	O	1.588400	-0.424975	0.799622
N73	N	1.001821	-0.919929	0.379337
N74	N	1.501821	-0.419929	0.879337
C75	C	0.955032	-0.894180	0.422430
C76	C	1.455032	-0.394180	0.922430
O77	O	0.915260	-0.916494	0.459090
O78	O	1.415260	-0.416494	0.959090
C79	C	0.954950	-0.706506	0.422402
C80	C	1.454950	-0.206506	0.922402
C81	C	1.001716	-0.685337	0.379300
C82	C	1.501716	-0.185337	0.879300
C83	C	1.095265	-0.689913	0.293114
C84	C	1.595265	-0.189913	0.793114
C85	C	1.095241	-0.642997	0.293104
C86	C	1.595241	-0.142997	0.793104
C87	C	1.048454	-0.617251	0.336192
C88	C	1.548454	-0.117251	0.836192
C89	C	1.001691	-0.638421	0.379290
C90	C	1.501691	-0.138421	0.879290
C91	C	0.908165	-0.680758	0.465498
C92	C	1.408165	-0.180758	0.965498
C93	C	0.908150	-0.633837	0.465489
C94	C	1.408150	-0.133837	0.965489
C95	C	0.954916	-0.612667	0.422387
C96	C	1.454916	-0.112667	0.922387
C97	C	0.954880	-0.565759	0.422368
C98	C	1.454880	-0.065759	0.922368
N99	N	1.001647	-0.544587	0.379274
N100	N	1.501647	-0.044587	0.879274
C101	C	1.048435	-0.570333	0.336186
C102	C	1.548435	-0.070333	0.836186
C103	C	0.955077	-0.992711	0.422440
C104	C	1.455077	-0.492711	0.922440
C105	C	0.955096	-1.039630	0.422446
C106	C	1.455096	-0.539630	0.922446
C107	C	1.048654	-1.044203	0.336260
C108	C	1.548654	-0.544203	0.836260
C109	C	1.048631	-0.997284	0.336251
C110	C	1.548631	-0.497284	0.836251
C111	C	1.001845	-0.971539	0.379346
C112	C	1.501845	-0.471539	0.879346
C113	C	1.048379	-0.471806	0.336167
C114	C	1.548379	0.028194	0.836167
C115	C	1.048349	-0.424886	0.336159
C116	C	1.548349	0.075114	0.836159
C117	C	0.954794	-0.420316	0.422348
C118	C	1.454794	0.079684	0.922348
C119	C	0.954821	-0.467232	0.422354
C120	C	1.454821	0.032768	0.922354
C121	C	1.001620	-0.492976	0.379261
C122	C	1.501620	0.007024	0.879261
O123	O	0.915094	-0.539513	0.458975
O124	O	1.415094	-0.039513	0.958975
O125	O	1.088211	-0.548010	0.299543
O126	O	1.588211	-0.048010	0.799543
C127	C	1.048527	-0.757998	0.336222
C128	C	1.548527	-0.257998	0.836222
C129	C	1.001765	-0.779168	0.379320
C130	C	1.501765	-0.279168	0.879320
C131	C	0.954978	-0.753422	0.422408
C132	C	1.454978	-0.253422	0.922408
C133	C	1.001784	-0.826086	0.379326
C134	C	1.501784	-0.326086	0.879326
C135	C	1.048571	-0.851832	0.336238
C136	C	1.548571	-0.351832	0.836238
C137	C	1.095339	-0.830660	0.293144
C138	C	1.595339	-0.330660	0.793144
C139	C	1.095314	-0.783744	0.293134
C140	C	1.595314	-0.283744	0.793134
C141	C	0.908210	-0.774595	0.465502
C142	C	1.408210	-0.274595	0.965502
C143	C	0.908238	-0.821511	0.465508
C144	C	1.408238	-0.321511	0.965508
C145	C	0.955025	-0.847257	0.422420
C146	C	1.455025	-0.347257	0.922420
C147	C	1.184955	-0.237014	0.386652
C148	C	1.684955	0.262986	0.886652
C149	C	1.263057	-0.238944	0.389795
C150	C	1.763057	0.261056	0.889795
C151	C	0.994318	-0.227595	0.562561
C152	C	1.494318	0.272405	1.062561
C153	C	0.991182	-0.225512	0.640665
C154	C	1.491182	0.274488	1.140665
C155	C	1.001822	-0.115309	0.379334
C156	C	1.501822	0.384691	0.879334
C157	C	1.001883	-0.065375	0.379358
C158	C	1.501883	0.434625	0.879358
C159	C	0.968712	-0.210583	1.080118
C160	C	1.468712	0.289417	1.580118
C161	C	0.971662	-0.212539	1.006731
C162	C	1.471662	0.287461	1.506731
C163	C	1.018035	-0.243360	0.971830
C164	C	1.518035	0.256640	1.471830
C165	C	1.061466	-0.272223	1.010321
C166	C	1.561466	0.227777	1.510321
C167	C	1.058519	-0.270265	1.083707
C168	C	1.558519	0.229735	1.583707
C169	C	1.031666	-0.252416	0.752542
C170	C	1.531666	0.247584	1.252542
C171	C	1.034608	-0.254374	0.679151
C172	C	1.534608	0.245626	1.179151
C173	C	0.944805	-0.194689	0.675565
C174	C	1.444805	0.305311	1.175565
C175	C	0.941859	-0.192735	0.748953
C176	C	1.441859	0.307265	1.248953
C177	C	0.985293	-0.221596	0.787437
C178	C	1.485293	0.278404	1.287437
N179	N	1.021050	-0.245361	0.896817
N180	N	1.521050	0.254639	1.396817
N181	N	0.982281	-0.219592	0.862450
N182	N	1.482281	0.280408	1.362450
C183	C	1.009002	-0.237365	1.196708
C184	C	1.509002	0.262635	1.696708
C185	C	1.012138	-0.239445	1.118603
C186	C	1.512138	0.260555	1.618603
H187	H	0.266567	-0.289148	0.471443
H188	H	0.766567	0.210852	0.971443
C189	C	0.789107	-0.139416	0.316200
C190	C	1.289107	0.360584	0.816200
C191	C	0.748473	-0.168246	0.274793
C192	C	1.248473	0.331754	0.774793
H193	H	0.815236	-0.121311	0.286755
H194	H	1.315236	0.378689	0.786755
H195	H	0.820376	-0.156637	0.344201
H196	H	1.320376	0.343363	0.844201
H197	H	0.759264	-0.120742	0.345718
H198	H	1.259264	0.379258	0.845718
H199	H	0.778317	-0.186923	0.245278
H200	H	1.278317	0.313077	0.745278
H201	H	0.717200	-0.151024	0.246780
H202	H	1.217200	0.348976	0.746780
H203	H	0.930948	-0.185486	1.108528
H204	H	1.430948	0.314514	1.608528
H205	H	0.916698	-0.399346	0.457427
H206	H	1.416698	0.100654	0.957427
C207	C	1.069644	-0.331896	0.657894
C208	C	1.569644	0.168104	1.157894
C209	C	1.085581	-0.288255	0.640783
C210	C	1.585581	0.211745	1.140783
H211	H	1.101111	-0.352812	0.634208
H212	H	1.601111	0.147188	1.134208
H213	H	1.022909	-0.337618	0.643970
H214	H	1.522909	0.162382	1.143970
H215	H	1.074116	-0.334856	0.707108
H216	H	1.574116	0.165144	1.207108
H217	H	1.081105	-0.285295	0.591569
H218	H	1.581105	0.214705	1.091569
H219	H	1.132328	-0.282531	0.654703
H220	H	1.632328	0.217469	1.154703
C221	C	1.140833	-0.434127	0.250969
C222	C	1.640833	0.065873	0.750969
C223	C	1.099760	-0.401617	0.288781
C224	C	1.599760	0.098383	0.788781
H225	H	1.172574	-0.419762	0.221725
H226	H	1.672574	0.080238	0.721725
H227	H	1.111329	-0.452416	0.222840
H228	H	1.611329	0.047584	0.722840
H229	H	1.166461	-0.452246	0.282701
H230	H	1.666461	0.047754	0.782701
H231	H	1.074128	-0.383500	0.257049
H232	H	1.574128	0.116500	0.757049
H233	H	1.129268	-0.383320	0.316912
H234	H	1.629268	0.116680	0.816912
H235	H	1.086489	-0.492761	0.301079
H236	H	1.586489	0.007239	0.801079
H237	H	1.133324	-0.625763	0.258009
H238	H	1.633324	-0.125763	0.758009
C239	C	0.853612	-0.188320	0.979360
C240	C	1.353612	0.311680	1.479360
C241	C	0.923924	-0.180814	0.964428
C242	C	1.423924	0.319186	1.464428
H243	H	0.824141	-0.168733	0.953241
H244	H	1.324141	0.331267	1.453241
H245	H	0.845226	-0.182744	1.028055
H246	H	1.345226	0.317256	1.528055
H247	H	0.843783	-0.218571	0.966898
H248	H	1.343783	0.281429	1.466898
H249	H	0.933754	-0.150563	0.976896
H250	H	1.433754	0.349437	1.476896
H251	H	0.932313	-0.186386	0.915723
H252	H	1.432313	0.313614	1.415723
H253	H	0.604356	-0.172568	0.281835
H254	H	1.104356	0.327432	0.781835
C255	C	0.219498	-0.150044	0.333549
C256	C	0.719498	0.349956	0.833549
C257	C	0.263243	-0.180946	0.295501
C258	C	0.763243	0.319054	0.795501
H259	H	0.195838	-0.130707	0.302123
H260	H	0.695838	0.369293	0.802123
H261	H	0.246924	-0.132791	0.365365
H262	H	0.746924	0.367209	0.865365
H263	H	0.186056	-0.165680	0.358954
H264	H	0.686056	0.334320	0.858954
H265	H	0.296688	-0.165310	0.270100
H266	H	0.796688	0.334690	0.770100
H267	H	0.235814	-0.198201	0.263673
H268	H	0.735814	0.301799	0.763673
H269	H	0.904094	-0.167639	0.777363
H270	H	1.404094	0.332361	1.277363
H271	H	0.909445	-0.171191	0.644223
H272	H	1.409445	0.328809	1.144223
H273	H	1.067031	-0.275918	0.783868
H274	H	1.567031	0.224082	1.283868
H275	H	0.916743	-0.484469	0.457453
H276	H	1.416743	0.015531	0.957453
C277	C	0.371173	-0.159370	0.260376
C278	C	0.871173	0.340630	0.760376
C279	C	0.417282	-0.184748	0.301655
C280	C	0.917282	0.315252	0.801655
H281	H	0.397306	-0.141267	0.230931
H282	H	0.897306	0.358733	0.730931
H283	H	0.341342	-0.140698	0.289898
H284	H	0.841342	0.359302	0.789898
H285	H	0.343608	-0.178936	0.232293
H286	H	0.843608	0.321064	0.732293
H287	H	0.444844	-0.165182	0.329742
H288	H	0.944844	0.334818	0.829742
H289	H	0.447126	-0.203422	0.272130
H290	H	0.947126	0.296578	0.772130
C291	C	1.141107	-1.006529	0.251061
C292	C	1.641107	-0.506529	0.751061
C293	C	1.100041	-0.974017	0.288877
C294	C	1.600041	-0.474017	0.788877
H295	H	1.172850	-0.992165	0.221817
H296	H	1.672850	-0.492165	0.721817
H297	H	1.111598	-1.024815	0.222931
H298	H	1.611598	-0.524815	0.722931
H299	H	1.166733	-1.024651	0.282790
H300	H	1.666733	-0.524651	0.782790
H301	H	1.074411	-0.955897	0.257147
H302	H	1.574411	-0.455897	0.757147
H303	H	1.129554	-0.955723	0.317008
H304	H	1.629554	-0.455723	0.817008
C305	C	0.546133	-0.309065	0.415531
C306	C	1.046133	0.190935	0.915531
C307	C	0.586774	-0.280242	0.456944
C308	C	1.086774	0.219758	0.956944
H309	H	0.519991	-0.327166	0.444972
H310	H	1.019991	0.172834	0.944972
H311	H	0.575968	-0.327740	0.386017
H312	H	1.075968	0.172260	0.886017
H313	H	0.514868	-0.291836	0.387526
H314	H	1.014868	0.208164	0.887526
H315	H	0.618043	-0.297472	0.484945
H316	H	1.118043	0.202528	0.984945
H317	H	0.556937	-0.261565	0.486471
H318	H	1.056937	0.238435	0.986471
C319	C	0.360345	-0.323573	0.527438
C320	C	0.860345	0.176427	1.027438
C321	C	0.409646	-0.300542	0.489974
C322	C	0.909646	0.199458	0.989974
H323	H	0.384010	-0.342900	0.558876
H324	H	0.884010	0.157100	1.058876
H325	H	0.332931	-0.340839	0.495626
H326	H	0.832931	0.159161	0.995626
H327	H	0.330666	-0.302599	0.553228
H328	H	0.830666	0.197401	1.053228
H329	H	0.439322	-0.321516	0.464179
H330	H	0.939322	0.178484	0.964179
H331	H	0.437073	-0.283276	0.521789
H332	H	0.937073	0.216724	1.021789
H333	H	0.870111	-0.753636	0.500591
H334	H	1.370111	-0.253636	1.000591
C335	C	1.187795	-0.792993	0.207950
C336	C	1.687795	-0.292993	0.707950
C337	C	1.146727	-0.760479	0.245760
C338	C	1.646727	-0.260479	0.745760
H339	H	1.219539	-0.778631	0.178706
H340	H	1.719539	-0.278631	0.678706
H341	H	1.158287	-0.811280	0.179821
H342	H	1.658287	-0.311280	0.679821
H343	H	1.213419	-0.811113	0.239683
H344	H	1.713419	-0.311113	0.739683
H345	H	1.121099	-0.742360	0.214027
H346	H	1.621099	-0.242360	0.714027
H347	H	1.176238	-0.742184	0.273891
H348	H	1.676238	-0.242184	0.773891
H349	H	1.133433	-0.851631	0.258058
H350	H	1.633433	-0.351631	0.758058
H351	H	0.916976	-0.971752	0.457534
H352	H	1.416976	-0.471752	0.957534
H353	H	1.133369	-0.710870	0.258026
H354	H	1.633369	-0.210870	0.758026
C355	C	1.105853	-0.301731	0.899419
C356	C	1.605853	0.198269	1.399419
C357	C	1.112439	-0.306103	0.971960
C358	C	1.612439	0.193897	1.471960
H359	H	1.137319	-0.322650	0.875740
H360	H	1.637319	0.177350	1.375740
H361	H	1.116662	-0.272126	0.887822
H362	H	1.616662	0.227874	1.387822
H363	H	1.059112	-0.307458	0.885499
H364	H	1.559112	0.192542	1.385499
H365	H	1.159179	-0.300372	0.985882
H366	H	1.659179	0.199628	1.485882
H367	H	1.101635	-0.335715	0.983562
H368	H	1.601635	0.164285	1.483562
C369	C	1.147576	-0.329460	1.079885
C370	C	1.647576	0.170540	1.579885
C371	C	1.106252	-0.301992	1.126014
C372	C	1.606252	0.198008	1.626014
H373	H	1.177043	-0.349048	1.106004
H374	H	1.677043	0.150952	1.606004
H375	H	1.175627	-0.311316	1.052353
H376	H	1.675627	0.188684	1.552353
H377	H	1.118080	-0.346650	1.050021
H378	H	1.618080	0.153350	1.550021
H379	H	1.135748	-0.284800	1.155874
H380	H	1.635748	0.215200	1.655874
H381	H	1.078198	-0.320138	1.153557
H382	H	1.578198	0.179862	1.653557
C383	C	0.815703	-0.671504	0.550701
C384	C	1.315703	-0.171504	1.050701
C385	C	0.856762	-0.704019	0.512884
C386	C	1.356762	-0.204019	1.012884
H387	H	0.783972	-0.685865	0.579961
H388	H	1.283972	-0.185865	1.079961
H389	H	0.790072	-0.653387	0.518979
H390	H	1.290072	-0.153387	1.018979
H391	H	0.845223	-0.653213	0.578822
H392	H	1.345223	-0.153213	1.078822
H393	H	0.827242	-0.722308	0.484759
H394	H	1.327242	-0.222308	0.984759
H395	H	0.882395	-0.722143	0.544610
H396	H	1.382395	-0.222143	1.044610
H397	H	1.086750	-1.065174	0.301176
H398	H	1.586750	-0.565174	0.801176
H399	H	0.917009	-1.056862	0.457538
H400	H	1.417009	-0.556862	0.957538
H401	H	0.870051	-0.612877	0.500585
H402	H	1.370051	-0.112877	1.000585
H403	H	0.730887	-0.275924	0.449912
H404	H	1.230887	0.224076	0.949912
H405	H	0.870149	-0.838743	0.500606
H406	H	1.370149	-0.338743	1.000606
