data_functionalizedCrystal
_audit_creation_method	'MofGen! by Chris Wilmer'
_symmetry_space_group_name_H-M	'P1'
_symmetry_Int_Tables_number	1
_symmetry_cell_setting	triclinic
loop_
_symmetry_equiv_pos_as_xyz
  x,y,z
_cell_length_a	19.805407
_cell_length_b	19.805405
_cell_length_c	19.805398
_cell_angle_alpha	89.972363
_cell_angle_beta	89.984135
_cell_angle_gamma	90.026410
loop_
_atom_site_label
_atom_site_type_symbol
_atom_site_fract_x
_atom_site_fract_y
_atom_site_fract_z
Zn1	Zn	1.034711	-0.269490	-0.382712
Zn2	Zn	1.034633	-0.382675	-0.269520
Zn3	Zn	0.921533	-0.269505	-0.269536
Zn4	Zn	0.921489	-0.382642	-0.382667
O5	O	0.978091	-0.326078	-0.326109
O6	O	1.129417	-0.284511	-0.367708
O7	O	1.019616	-0.367683	-0.174805
O8	O	0.936597	-0.174787	-0.284575
O9	O	1.129360	-0.367668	-0.284547
O10	O	1.019748	-0.174775	-0.367724
O11	O	0.936522	-0.284538	-0.174817
O12	O	0.826810	-0.284506	-0.284531
O13	O	0.936522	-0.367612	-0.477389
O14	O	0.826778	-0.367627	-0.367648
O15	O	1.019706	-0.284480	-0.477422
O16	O	1.019573	-0.477387	-0.284503
O17	O	0.936447	-0.477363	-0.367632
C18	C	0.802235	-0.326065	-0.326087
C19	C	0.727003	-0.326076	-0.326093
C20	C	0.691660	-0.369422	-0.369302
C21	C	0.620972	-0.369424	-0.369312
C22	C	0.585628	-0.326081	-0.326109
C23	C	0.620976	-0.282730	-0.282898
C24	C	0.691663	-0.282726	-0.282892
C25	C	0.335903	-0.282745	-0.282920
C26	C	0.265211	-0.282754	-0.282928
C27	C	0.265211	-0.369443	-0.369340
C28	C	0.335899	-0.369439	-0.369334
C29	C	0.371241	-0.326085	-0.326126
C30	C	0.447889	-0.326084	-0.326117
C31	C	0.508981	-0.326086	-0.326114
C32	C	0.978015	-0.501934	-0.326076
C33	C	0.978045	-0.577166	-0.326084
C34	C	1.021371	-0.612500	-0.282845
C35	C	1.021399	-0.683189	-0.282860
C36	C	0.978098	-0.718542	-0.326111
C37	C	0.934770	-0.683203	-0.369356
C38	C	0.934746	-0.612516	-0.369344
C39	C	0.934870	-0.968276	-0.369406
C40	C	0.934897	-1.038968	-0.369413
C41	C	1.021524	-1.038949	-0.282922
C42	C	1.021499	-0.968262	-0.282910
C43	C	0.978174	-0.932929	-0.326157
C44	C	0.978144	-0.856281	-0.326141
C45	C	0.978124	-0.795189	-0.326124
C46	C	1.154634	-0.326092	-0.326131
C47	C	1.229866	-0.326097	-0.326140
C48	C	0.978118	-0.326041	-0.502651
C49	C	0.978129	-0.326025	-0.577883
C50	C	0.978186	-0.149535	-0.326156
C51	C	0.978227	-0.074303	-0.326177
C52	C	1.021525	-0.282618	-1.039693
C53	C	1.021514	-0.282638	-0.969004
C54	C	0.978199	-0.325931	-0.933645
C55	C	0.934896	-0.369210	-0.968978
C56	C	0.934911	-0.369192	-1.039666
C57	C	0.934837	-0.369283	-0.683905
C58	C	0.934825	-0.369296	-0.613213
C59	C	1.021441	-0.282730	-0.613244
C60	C	1.021455	-0.282712	-0.683931
C61	C	0.978155	-0.325993	-0.719258
C62	C	0.978168	-0.325971	-0.795906
C63	C	0.978182	-0.325950	-0.856998
C64	C	0.978104	-0.326067	-0.150253
C65	C	0.978224	-0.325892	-0.075021
H66	H	0.364670	-0.247449	-0.247733
H67	H	1.056679	-0.711955	-0.247649
O68	O	1.068155	-0.236054	-0.575143
H69	H	1.060878	-0.243344	-0.520049
H70	H	0.899466	-0.583747	-0.404555
O71	O	0.888129	-0.415961	-0.721995
H72	H	0.918408	-0.450400	-0.754188
O73	O	1.068218	-0.235962	-0.930903
H74	H	1.060939	-0.243252	-0.875810
H75	H	0.899548	-0.404549	-0.584425
H76	H	1.056628	-0.583721	-0.247621
O77	O	1.068246	-0.235926	-1.077830
H78	H	1.098358	-0.205844	-1.041385
O79	O	0.227080	-0.236006	-0.236331
H80	H	0.240658	-0.182897	-0.248042
H81	H	0.899631	-0.404462	-0.940183
O82	O	1.068176	-0.236022	-0.722070
H83	H	1.098290	-0.205938	-0.685628
O84	O	0.888204	-0.415861	-1.077775
H85	H	0.858076	-0.445963	-1.041313
H86	H	1.056804	-1.067726	-0.247711
O87	O	0.729784	-0.416162	-0.415906
H88	H	0.716193	-0.469272	-0.404213
O89	O	0.582849	-0.416305	-0.415785
H90	H	0.619301	-0.446495	-0.445772
O91	O	1.068206	-0.930129	-0.236265
H92	H	1.098345	-0.966576	-0.206205
H93	H	0.364672	-0.404735	-0.404512
H94	H	0.899592	-0.939513	-0.404618
O95	O	0.227094	-0.416197	-0.415953
H96	H	0.172003	-0.408915	-0.408709
H97	H	0.899517	-0.711993	-0.404575
H98	H	0.899637	-1.067750	-0.404639
O99	O	0.729783	-0.235980	-0.236279
H100	H	0.716237	-0.182874	-0.247979
O101	O	0.582860	-0.235997	-0.236281
H102	H	0.527769	-0.243293	-0.243532
