data_functionalizedCrystal
_audit_creation_method	'MofGen! by Chris Wilmer'
_symmetry_space_group_name_H-M	'P1'
_symmetry_Int_Tables_number	1
_symmetry_cell_setting	triclinic
loop_
_symmetry_equiv_pos_as_xyz
  x,y,z
_cell_length_a	11.792254
_cell_length_b	11.792241
_cell_length_c	10.868271
_cell_angle_alpha	89.999844
_cell_angle_beta	89.998414
_cell_angle_gamma	84.196007
loop_
_atom_site_label
_atom_site_type_symbol
_atom_site_fract_x
_atom_site_fract_y
_atom_site_fract_z
O1	O	0.155561	1.506916	-0.102203
O2	O	0.405561	1.756916	0.147797
O3	O	0.655561	2.006916	0.397797
O4	O	0.905561	2.256916	0.647797
O5	O	0.171594	1.176576	-0.102232
O6	O	0.421594	1.426576	0.147768
O7	O	0.671594	1.676576	0.397768
O8	O	0.921594	1.926576	0.647768
O9	O	-0.001592	1.349755	-0.102208
O10	O	0.248408	1.599755	0.147792
O11	O	0.498408	1.849755	0.397792
O12	O	0.748408	2.099755	0.647792
O13	O	0.328747	1.333737	-0.102227
O14	O	0.578747	1.583737	0.147773
O15	O	0.828747	1.833737	0.397773
O16	O	1.078747	2.083737	0.647773
O17	O	-0.001586	1.349739	0.102436
O18	O	0.248414	1.599739	0.352436
O19	O	0.498414	1.849739	0.602436
O20	O	0.748414	2.099739	0.852436
O21	O	0.171600	1.176560	0.102413
O22	O	0.421600	1.426560	0.352413
O23	O	0.671600	1.676560	0.602413
O24	O	0.921600	1.926560	0.852413
O25	O	0.155567	1.506900	0.102441
O26	O	0.405567	1.756900	0.352441
O27	O	0.655567	2.006900	0.602441
O28	O	0.905567	2.256900	0.852441
Zn29	Zn	0.163584	1.341728	0.134919
Zn30	Zn	0.413584	1.591728	0.384919
Zn31	Zn	0.663584	1.841728	0.634919
Zn32	Zn	0.913584	2.091728	0.884919
Zn33	Zn	0.163577	1.341748	-0.134709
Zn34	Zn	0.413577	1.591748	0.115291
Zn35	Zn	0.663577	1.841748	0.365291
Zn36	Zn	0.913577	2.091748	0.615291
O37	O	0.328753	1.333721	0.102418
O38	O	0.578753	1.583721	0.352418
O39	O	0.828753	1.833721	0.602418
O40	O	1.078753	2.083721	0.852418
C41	C	-0.043880	1.348738	0.000114
C42	C	0.206120	1.598738	0.250114
C43	C	0.456120	1.848738	0.500114
C44	C	0.706120	2.098738	0.750114
C45	C	-0.169893	1.345718	0.000112
C46	C	0.080107	1.595718	0.250112
C47	C	0.330107	1.845718	0.500112
C48	C	0.580107	2.095718	0.750112
C49	C	0.170590	1.134277	0.000087
C50	C	0.420590	1.384277	0.250087
C51	C	0.670590	1.634277	0.500087
C52	C	0.920590	1.884277	0.750087
C53	C	0.167576	1.008263	0.000076
C54	C	0.417576	1.258263	0.250076
C55	C	0.667576	1.508263	0.500076
C56	C	0.917576	1.758263	0.750076
C57	C	-0.272229	1.343264	0.000108
C58	C	-0.022229	1.593264	0.250108
C59	C	0.227771	1.843264	0.500108
C60	C	0.477771	2.093264	0.750108
C61	C	-0.400616	1.340196	0.000096
C62	C	-0.150616	1.590196	0.250096
C63	C	0.099384	1.840196	0.500096
C64	C	0.349384	2.090196	0.750096
C65	C	0.162033	0.777551	0.000112
C66	C	0.412033	1.027551	0.250112
C67	C	0.662033	1.277551	0.500112
C68	C	0.912033	1.527551	0.750112
C69	C	0.165112	0.905936	0.000092
C70	C	0.415112	1.155936	0.250092
C71	C	0.665112	1.405936	0.500092
C72	C	0.915112	1.655936	0.750092
C73	C	0.371041	1.334738	0.000093
C74	C	0.621041	1.584738	0.250093
C75	C	0.871041	1.834738	0.500093
C76	C	1.121041	2.084738	0.750093
C77	C	0.497054	1.337758	0.000086
C78	C	0.747054	1.587758	0.250086
C79	C	0.997054	1.837758	0.500086
C80	C	1.247054	2.087758	0.750086
C81	C	0.156571	1.549199	0.000120
C82	C	0.406571	1.799199	0.250120
C83	C	0.656571	2.049199	0.500120
C84	C	0.906571	2.299199	0.750120
C85	C	0.159586	1.675213	0.000123
C86	C	0.409586	1.925213	0.250123
C87	C	0.659586	2.175213	0.500123
C88	C	0.909586	2.425213	0.750123
N89	N	0.163589	1.341722	0.318933
N90	N	0.413589	1.591722	0.568933
N91	N	0.663589	1.841722	0.818933
N92	N	0.913589	2.091722	1.068933
N93	N	0.163564	1.341763	-0.318724
N94	N	0.413564	1.591763	-0.068724
N95	N	0.663564	1.841763	0.181276
N96	N	0.913564	2.091763	0.431276
C97	C	0.163589	1.341731	0.430270
C98	C	0.413589	1.591731	0.680270
C99	C	0.663589	1.841731	0.930270
C100	C	0.913589	2.091731	1.180270
C101	C	0.163579	1.341745	0.569948
C102	C	0.413579	1.591745	0.819948
C103	C	0.663579	1.841745	1.069948
C104	C	0.913579	2.091745	1.319948
