data_functionalizedCrystal
_audit_creation_method	'MofGen! by Chris Wilmer'
_symmetry_space_group_name_H-M	'P1'
_symmetry_Int_Tables_number	1
_symmetry_cell_setting	triclinic
loop_
_symmetry_equiv_pos_as_xyz
  x,y,z
_cell_length_a	6.817900
_cell_length_b	19.551823
_cell_length_c	11.102291
_cell_angle_alpha	94.525465
_cell_angle_beta	108.605752
_cell_angle_gamma	101.663376
loop_
_atom_site_label
_atom_site_type_symbol
_atom_site_fract_x
_atom_site_fract_y
_atom_site_fract_z
V1	V	-4.076534	-0.096684	-0.396853
O2	O	-4.072250	0.004637	-0.388687
O3	O	-4.018910	-0.191699	-0.394727
O4	O	-4.053856	-0.095200	-0.569666
O5	O	-4.037063	-0.092529	-0.212537
V6	V	-4.558024	-0.084564	-0.374736
O7	O	-4.342252	-0.123269	-0.445369
O8	O	-4.742504	-0.057979	-0.326220
O9	O	-4.392441	0.010451	-0.376862
O10	O	-4.679705	-0.185885	-0.382902
O11	O	-4.714892	-0.088718	-0.559052
O12	O	-4.357496	-0.086047	-0.201923
C13	C	-3.860835	-0.214861	-0.388618
C14	C	-3.895179	-0.292537	-0.388032
C15	C	-4.094026	-0.332583	-0.394112
C16	C	-4.126302	-0.405569	-0.393574
C17	C	-3.959708	-0.438504	-0.386930
C18	C	-3.760838	-0.398450	-0.380856
C19	C	-3.728573	-0.325466	-0.381407
C20	C	-3.834485	-0.544991	-0.306339
C21	C	-3.866752	-0.617972	-0.305781
C22	C	-4.059218	-0.663610	-0.385236
C23	C	-4.219439	-0.636257	-0.465234
C24	C	-4.187174	-0.563274	-0.465785
C25	C	-3.994674	-0.517643	-0.386332
C26	C	-4.293076	-0.782796	-0.390734
C27	C	-4.325350	-0.855785	-0.390204
C28	C	-3.959873	-0.848663	-0.377474
C29	C	-3.927612	-0.775677	-0.378017
C30	C	-4.094218	-0.742748	-0.384641
C31	C	-3.905410	-0.091767	-0.611769
C32	C	-3.968091	-0.091183	-0.753049
C33	C	-4.180283	-0.094394	-0.825916
C34	C	-4.239158	-0.093831	-0.958659
C35	C	-3.873629	-0.086850	-0.945655
C36	C	-3.814754	-0.087408	-0.812913
C37	C	-4.333620	-0.098169	-0.766052
C38	C	-4.545827	-0.101380	-0.838920
C39	C	-4.604702	-0.100818	-0.971663
C40	C	-4.451370	-0.097044	-1.031537
C41	C	-4.213858	0.033610	-0.382968
C42	C	-4.158753	0.111285	-0.383562
C43	C	-4.169282	-0.089483	-0.159814
C44	C	-4.085841	-0.090063	-0.018533
H45	H	-3.566646	-0.292861	-0.376457
Br46	Br	-3.733783	-0.893354	-0.368479
H47	H	-4.376008	-0.673426	-0.530109
Br48	Br	-3.534749	-0.443147	-0.371852
Br49	Br	-4.595244	-0.910136	-0.398471
Br50	Br	-4.892686	-0.105168	-1.070551
Br51	Br	-4.253732	-0.098940	-0.585904
Br52	Br	-3.657729	-0.721325	-0.369758
H53	H	-4.499321	-0.096581	-1.139624
Br54	Br	-3.526763	-0.083036	-0.714008
H55	H	-4.229697	-0.305778	-0.399515
H56	H	-4.288232	-0.438181	-0.398524
H57	H	-4.670657	-0.104449	-0.790160
H58	H	-3.748799	-0.083778	-0.994415
H59	H	-4.317631	-0.541006	-0.530924
Br60	Br	-3.649333	-0.655086	-0.197190
H61	H	-4.428736	-0.755984	-0.396126
H62	H	-3.677742	-0.507837	-0.241642
