data_functionalizedCrystal
_audit_creation_method	'MofGen! by Chris Wilmer'
_symmetry_space_group_name_H-M	'P1'
_symmetry_Int_Tables_number	1
_symmetry_cell_setting	triclinic
loop_
_symmetry_equiv_pos_as_xyz
  x,y,z
_cell_length_a	14.971490
_cell_length_b	14.971486
_cell_length_c	14.048226
_cell_angle_alpha	89.996181
_cell_angle_beta	89.992815
_cell_angle_gamma	83.614888
loop_
_atom_site_label
_atom_site_type_symbol
_atom_site_fract_x
_atom_site_fract_y
_atom_site_fract_z
O1	O	-1.186943	-0.116577	0.079213
O2	O	-0.926544	-0.130532	0.079203
O3	O	-1.063723	0.006645	0.079201
O4	O	-1.049764	-0.253755	0.079214
O5	O	-1.063710	0.006647	-0.079120
O6	O	-0.926530	-0.130531	-0.079118
O7	O	-1.186930	-0.116576	-0.079109
Zn8	Zn	-1.056728	-0.123553	-0.104250
Zn9	Zn	-1.056745	-0.123555	0.104345
O10	O	-1.049751	-0.253753	-0.079107
C11	C	-0.893212	-0.129907	0.000041
C12	C	-0.793915	-0.128035	0.000038
C13	C	-0.366217	-0.119958	0.086356
C14	C	-0.459517	-0.121714	0.086354
C15	C	-0.506156	-0.122597	0.000050
C16	C	-0.459490	-0.121715	-0.086257
C17	C	-0.366193	-0.119952	-0.086253
C18	C	-0.653952	-0.125391	-0.086258
C19	C	-0.747256	-0.127156	-0.086263
C20	C	-0.747277	-0.127153	0.086348
C21	C	-0.653979	-0.125390	0.086352
C22	C	-0.607320	-0.124510	0.000045
C23	C	-1.063092	0.039971	0.000041
C24	C	-1.061221	0.139268	0.000042
C25	C	-0.220261	-0.117202	0.000053
C26	C	-0.319558	-0.119078	0.000056
C27	C	-1.050382	-0.287079	0.000056
C28	C	-1.052252	-0.386376	0.000061
N29	N	-1.056723	-0.123552	-0.246611
C30	C	-1.141810	0.196492	0.000044
C31	C	-1.140047	0.289791	0.000053
C32	C	-1.057694	0.325865	0.000054
C33	C	-0.977099	0.268633	0.000055
C34	C	-0.978863	0.175336	0.000052
C35	C	-0.973428	0.463096	0.000058
C36	C	-0.971663	0.556400	0.000059
C37	C	-1.134612	0.577552	0.000060
C38	C	-1.136376	0.484254	0.000057
C39	C	-1.055780	0.427029	0.000056
C40	C	-1.111025	-0.177894	-0.296420
C41	C	-1.111037	-0.177890	-0.396078
C42	C	-1.056741	-0.123548	-0.445924
C43	C	-1.002436	-0.069200	-0.396109
C44	C	-1.002430	-0.069200	-0.296453
C45	C	-1.002451	-0.069206	-0.603823
C46	C	-1.002455	-0.069207	-0.703486
C47	C	-1.111058	-0.177896	-0.703448
C48	C	-1.111052	-0.177896	-0.603792
C49	C	-1.056746	-0.123549	-0.553983
N50	N	-1.056758	-0.123549	0.246706
H51	H	-0.328203	-0.119246	-0.156528
H52	H	-0.785226	-0.127880	-0.156539
H53	H	-1.200236	0.624149	0.000063
F54	F	-0.509130	-0.122653	-0.178108
H55	H	-1.203435	0.454886	0.000050
F56	F	-0.884014	0.594790	0.000058
F57	F	-1.168814	-0.235734	-0.243378
H58	H	-0.497504	-0.122424	0.156628
F59	F	-0.887648	0.402194	0.000059
H60	H	-0.616007	-0.124677	0.156628
H61	H	-0.785271	-0.127871	0.156623
H62	H	-0.958231	-0.024950	-0.436702
F63	F	-0.604298	-0.124445	-0.178117
F64	F	-1.229463	0.158109	0.000034
F65	F	-1.225821	0.350690	0.000054
F66	F	-0.889452	0.307028	0.000066
H67	H	-0.958230	-0.024950	-0.563271
H68	H	-0.913239	0.128744	0.000050
F69	F	-0.316588	-0.119024	0.178214
F70	F	-1.168832	-0.235729	-0.449084
F71	F	-1.168822	-0.235750	-0.550743
F72	F	-1.168858	-0.235734	-0.756459
H73	H	-0.958241	-0.024959	-0.744068
H74	H	-0.958211	-0.024949	-0.255899
