data_functionalizedCrystal
_audit_creation_method	'MofGen! by Chris Wilmer'
_symmetry_space_group_name_H-M	'P1'
_symmetry_Int_Tables_number	1
_symmetry_cell_setting	triclinic
loop_
_symmetry_equiv_pos_as_xyz
  x,y,z
_cell_length_a	12.594517
_cell_length_b	12.594516
_cell_length_c	14.908308
_cell_angle_alpha	93.271498
_cell_angle_beta	93.287766
_cell_angle_gamma	90.011939
loop_
_atom_site_label
_atom_site_type_symbol
_atom_site_fract_x
_atom_site_fract_y
_atom_site_fract_z
Zn1	Zn	1.592524	-0.458554	-0.509898
Zn2	Zn	1.602693	-0.626291	-0.359053
Zn3	Zn	1.424804	-0.448316	-0.359080
Zn4	Zn	1.414510	-0.636477	-0.509889
O5	O	1.508633	-0.542409	-0.434480
O6	O	1.742819	-0.480826	-0.489881
O7	O	1.587659	-0.594134	-0.232814
O8	O	1.447104	-0.300729	-0.379102
O9	O	1.750290	-0.604062	-0.379056
O10	O	1.570327	-0.308251	-0.489907
O11	O	1.456965	-0.463377	-0.232833
O12	O	1.274492	-0.473254	-0.379092
O13	O	1.429561	-0.621423	-0.636133
O14	O	1.266930	-0.611495	-0.489891
O15	O	1.560346	-0.490703	-0.636140
O16	O	1.577678	-0.776587	-0.379047
O17	O	1.439421	-0.784071	-0.489865
C18	C	1.232091	-0.542370	-0.434494
C19	C	1.113783	-0.542380	-0.434521
C20	C	1.040456	-0.617701	-0.494668
C21	C	0.968136	-0.522166	-0.516853
C22	C	0.975306	-0.637994	-0.412316
C23	C	1.043019	-0.446796	-0.456749
C24	C	1.050198	-0.562687	-0.352174
C25	C	0.977912	-0.467083	-0.374328
C26	C	1.508564	-0.818950	-0.434471
C27	C	1.508629	-0.937257	-0.434498
C28	C	1.433427	-1.010616	-0.494729
C29	C	1.413103	-1.075874	-0.412414
C30	C	1.529050	-1.082799	-0.516827
C31	C	1.488256	-1.000953	-0.352138
C32	C	1.604245	-1.007876	-0.456608
C33	C	1.583961	-1.073098	-0.374235
C34	C	1.786254	-0.542450	-0.434467
C35	C	1.904560	-0.542467	-0.434461
C36	C	1.492671	-0.558342	-0.669785
C37	C	1.485869	-0.565131	-0.770058
C38	C	1.508730	-0.264790	-0.434509
C39	C	1.508771	-0.146486	-0.434521
C40	C	1.609271	-0.441746	-0.958491
C41	C	1.602883	-0.448121	-1.052707
C42	C	1.466701	-0.584252	-1.052707
C43	C	1.473089	-0.577876	-0.958491
C44	C	1.544377	-0.506622	-0.911387
C45	C	1.550770	-0.500252	-0.817170
C46	C	1.414583	-0.636376	-0.817171
C47	C	1.408195	-0.642752	-0.911386
C48	C	1.524594	-0.526462	-0.200090
C49	C	1.531602	-0.519373	-0.099818
H50	H	0.945505	-0.718817	-0.393562
H51	H	1.408661	-0.642263	-1.091075
O52	O	1.711283	-0.968206	-0.481285
H53	H	1.773765	-0.994445	-0.431898
O54	O	0.920632	-0.499451	-0.609062
H55	H	0.872476	-0.425756	-0.604313
O56	O	1.349061	-0.974079	-0.562103
H57	H	1.350251	-0.885948	-0.561946
O58	O	1.627657	-0.423400	-0.766366
H59	H	1.684716	-0.468139	-0.723442
O60	O	1.551864	-1.130174	-0.609039
H61	H	1.489262	-1.105256	-0.658890
H62	H	1.072679	-0.365955	-0.475584
O63	O	1.306083	-1.115503	-0.387638
H64	H	1.243732	-1.090611	-0.437720
H65	H	1.667322	-0.383733	-0.920138
H66	H	1.361744	-0.689206	-0.778808
H67	H	1.470948	-0.965313	-0.282503
H68	H	1.086080	-0.579864	-0.282581
H69	H	1.655724	-0.395290	-1.091056
H70	H	1.647621	-1.100468	-0.323251
O71	O	1.331303	-0.719598	-0.962192
H72	H	1.337764	-0.713136	-1.035620
H73	H	1.068051	-0.681286	-0.545597
H74	H	0.950513	-0.403354	-0.323438
