data_functionalizedCrystal
_audit_creation_method	'MofGen! by Chris Wilmer'
_symmetry_space_group_name_H-M	'P1'
_symmetry_Int_Tables_number	1
_symmetry_cell_setting	triclinic
loop_
_symmetry_equiv_pos_as_xyz
  x,y,z
_cell_length_a	21.395364
_cell_length_b	21.395361
_cell_length_c	21.395355
_cell_angle_alpha	89.978489
_cell_angle_beta	89.975273
_cell_angle_gamma	90.029041
loop_
_atom_site_label
_atom_site_type_symbol
_atom_site_fract_x
_atom_site_fract_y
_atom_site_fract_z
Zn1	Zn	0.957859	-0.249539	-0.354251
Zn2	Zn	0.957762	-0.354299	-0.249468
Zn3	Zn	0.853074	-0.249536	-0.249488
Zn4	Zn	0.853043	-0.354280	-0.354208
O5	O	0.905434	-0.301913	-0.301854
O6	O	1.045524	-0.263445	-0.340362
O7	O	0.943847	-0.340409	-0.161793
O8	O	0.867028	-0.161859	-0.263411
O9	O	1.045452	-0.340411	-0.263378
O10	O	0.944013	-0.161861	-0.340380
O11	O	0.866933	-0.263440	-0.161807
O12	O	0.765392	-0.263421	-0.263369
O13	O	0.866975	-0.340379	-0.441892
O14	O	0.765369	-0.340376	-0.340307
O15	O	0.943983	-0.263426	-0.441923
O16	O	0.943817	-0.441974	-0.263336
O17	O	0.866881	-0.441960	-0.340288
C18	C	0.742647	-0.301897	-0.301836
C19	C	0.673006	-0.301905	-0.301843
C20	C	0.905352	-0.464701	-0.301819
C21	C	0.905374	-0.534342	-0.301825
C22	C	0.171214	-0.342057	-0.341877
C23	C	0.236649	-0.342057	-0.341870
C24	C	0.269367	-0.301927	-0.301874
C25	C	0.236644	-0.261805	-0.261870
C26	C	0.171210	-0.261811	-0.261873
C27	C	0.373056	-0.245462	-0.297025
C28	C	0.438489	-0.245455	-0.297027
C29	C	0.471188	-0.301911	-0.301860
C30	C	0.438446	-0.358374	-0.306705
C31	C	0.373012	-0.358380	-0.306709
C32	C	0.340320	-0.301917	-0.301865
C33	C	0.574856	-0.342033	-0.341851
C34	C	0.640292	-0.342034	-0.341840
C35	C	0.640286	-0.261777	-0.261843
C36	C	0.574850	-0.261781	-0.261851
C37	C	0.542139	-0.301909	-0.301858
C38	C	0.945470	-0.567042	-0.261797
C39	C	0.945499	-0.632477	-0.261811
C40	C	0.905421	-0.665211	-0.301847
C41	C	0.865322	-0.632503	-0.341882
C42	C	0.865298	-0.567069	-0.341871
C43	C	0.849006	-0.768924	-0.306756
C44	C	0.849029	-0.834357	-0.306763
C45	C	0.905494	-0.867031	-0.301883
C46	C	0.961938	-0.834265	-0.296984
C47	C	0.961915	-0.768830	-0.296974
C48	C	0.905442	-0.736163	-0.301863
C49	C	0.945625	-0.970683	-0.261868
C50	C	0.945655	-1.036120	-0.261887
C51	C	0.865472	-1.036144	-0.341955
C52	C	0.865448	-0.970709	-0.341939
C53	C	0.905523	-0.937983	-0.301893
C54	C	1.068858	-0.301931	-0.301872
C55	C	1.138499	-0.301938	-0.301880
C56	C	0.905486	-0.301901	-0.465277
C57	C	0.905509	-0.301895	-0.534918
C58	C	0.905535	-0.138490	-0.301903
C59	C	0.905577	-0.068849	-0.301923
C60	C	0.945605	-0.261824	-0.567649
C61	C	0.945604	-0.261797	-0.633085
C62	C	0.905513	-0.301853	-0.665787
C63	C	0.865409	-0.341926	-0.633048
C64	C	0.865407	-0.341948	-0.567614
C65	C	0.900538	-0.358268	-0.769449
C66	C	0.900544	-0.358247	-0.834882
C67	C	0.905517	-0.301786	-0.867608
C68	C	0.910497	-0.245344	-0.834892
C69	C	0.910494	-0.245365	-0.769458
C70	C	0.905511	-0.301834	-0.736739
C71	C	0.945615	-0.261683	-0.971291
C72	C	0.945610	-0.261655	-1.036728
C73	C	0.865418	-0.341789	-1.036690
C74	C	0.865420	-0.341812	-0.971255
C75	C	0.905522	-0.301759	-0.938559
C76	C	0.905419	-0.301881	-0.139066
C77	C	0.905518	-0.301710	-0.069425
H78	H	0.144585	-0.374734	-0.374452
H79	H	0.832795	-0.944083	-0.374531
F80	F	0.988282	-0.219194	-0.532856
H81	H	0.803068	-0.861031	-0.310745
H82	H	0.465068	-0.404345	-0.310646
H83	H	0.803022	-0.742327	-0.310732
F84	F	0.271474	-0.384759	-0.384442
H85	H	0.832691	-0.659159	-0.374480
F86	F	0.988129	-0.532216	-0.219183
F87	F	0.822746	-0.384463	-0.936419
F88	F	0.473329	-0.185362	-0.291877
F89	F	0.271466	-0.219098	-0.219301
F90	F	0.915792	-0.185249	-0.869715
F91	F	0.540040	-0.384742	-0.384428
F92	F	0.822740	-0.384554	-0.667853
H93	H	0.666924	-0.229104	-0.229275
F94	F	0.338168	-0.418470	-0.311863
H95	H	0.832647	-0.540444	-0.374468
H96	H	0.346438	-0.199487	-0.293079
F97	F	0.988291	-0.219054	-0.936492
F98	F	1.022037	-0.869033	-0.291786
F99	F	0.136391	-0.219108	-0.219302
H100	H	0.666928	-0.374708	-0.374408
H101	H	0.978152	-0.659107	-0.229216
F102	F	0.915790	-0.185297	-0.734642
F103	F	0.988271	-0.219137	-0.667926
F104	F	0.988295	-0.219011	-1.071562
F105	F	0.822821	-1.070977	-0.384567
F106	F	0.822746	-0.384415	-1.071490
H107	H	0.548214	-0.229110	-0.229284
F108	F	0.895250	-0.418318	-0.869695
F109	F	1.021985	-0.733960	-0.291764
H110	H	0.896320	-0.404233	-0.742810
F111	F	0.988275	-0.935851	-0.219248
F112	F	0.822729	-0.384598	-0.532779
F113	F	0.988337	-1.070921	-0.219286
