data_functionalizedCrystal
_audit_creation_method	'MofGen! by Chris Wilmer'
_symmetry_space_group_name_H-M	'P1'
_symmetry_Int_Tables_number	1
_symmetry_cell_setting	triclinic
loop_
_symmetry_equiv_pos_as_xyz
  x,y,z
_cell_length_a	14.853566
_cell_length_b	14.519731
_cell_length_c	13.330367
_cell_angle_alpha	90.002629
_cell_angle_beta	90.002184
_cell_angle_gamma	83.661634
loop_
_atom_site_label
_atom_site_type_symbol
_atom_site_fract_x
_atom_site_fract_y
_atom_site_fract_z
O1	O	1.196422	0.120394	0.083359
O2	O	0.933969	0.134739	0.083376
O3	O	1.072144	-0.006674	0.083358
O4	O	1.058247	0.261806	0.083377
O5	O	1.072130	-0.006669	-0.083489
O6	O	0.933955	0.134743	-0.083471
O7	O	1.196408	0.120398	-0.083488
Cu8	Cu	1.065180	0.127571	-0.098714
Cu9	Cu	1.065197	0.127566	0.098602
O10	O	1.058233	0.261811	-0.083470
C11	C	0.900373	0.134091	-0.000045
C12	C	0.800289	0.132144	-0.000039
C13	C	0.377108	0.123906	0.090891
C14	C	0.377113	0.123911	-0.091012
C15	C	0.471148	0.125740	-0.091009
C16	C	0.518167	0.126653	-0.000054
C17	C	0.471151	0.125738	0.090897
C18	C	0.518170	0.126665	-0.181959
C19	C	0.612211	0.128494	-0.181959
C20	C	0.659232	0.129401	-0.091003
C21	C	0.612210	0.128484	-0.000048
C22	C	0.659229	0.129397	0.090906
C23	C	0.612210	0.128474	0.181863
C24	C	0.518172	0.126644	0.181853
C25	C	0.753270	0.131231	-0.090994
C26	C	0.753272	0.131229	0.090912
C27	C	1.071486	-0.041031	-0.000065
C28	C	1.069535	-0.143410	-0.000066
C29	C	1.067949	-0.226554	-0.000063
C30	C	1.065968	-0.330862	-0.000056
C31	C	1.064396	-0.414000	-0.000049
C32	C	1.062415	-0.518315	-0.000043
C33	C	1.230004	0.121046	-0.000064
C34	C	1.330089	0.122993	-0.000063
C35	C	1.058891	0.296168	-0.000044
C36	C	1.060843	0.398547	-0.000037
N37	N	1.065175	0.127574	-0.237495
C38	C	1.003983	0.190172	-0.290013
C39	C	1.126373	0.064972	-0.290006
C40	C	1.126382	0.064968	-0.395024
C41	C	1.065190	0.127567	-0.447542
C42	C	1.003988	0.190168	-0.395041
C43	C	1.187576	0.002362	-0.447533
C44	C	1.187587	0.002355	-0.552558
C45	C	1.126398	0.064958	-0.605077
C46	C	1.065195	0.127563	-0.552570
C47	C	1.004003	0.190161	-0.605087
C48	C	0.942803	0.252771	-0.552581
C49	C	0.942799	0.252772	-0.447560
C50	C	1.126402	0.064958	-0.710099
C51	C	1.004008	0.190158	-0.710115
N52	N	1.065210	0.127556	0.237384
H53	H	0.338824	0.123174	-0.165063
H54	H	0.892976	0.303735	-0.595353
H55	H	1.176226	0.013977	-0.752844
H56	H	0.650486	0.129244	-0.256021
N57	N	0.326404	0.122901	0.188991
H58	H	0.259696	0.121598	0.175191
H59	H	0.335625	0.180344	0.228716
N60	N	0.876791	0.320285	-0.390924
H61	H	0.812793	0.309545	-0.409211
H62	H	0.887360	0.385730	-0.409212
N63	N	1.192375	-0.002550	-0.233386
H64	H	1.181877	-0.068019	-0.251678
H65	H	1.183061	0.007017	-0.158902
N66	N	0.803981	0.132224	-0.189084
H67	H	0.870689	0.133521	-0.175281
H68	H	0.780332	0.189034	-0.228791
N69	N	0.938007	0.257676	-0.766756
H70	H	0.899239	0.297334	-0.717556
H71	H	0.898094	0.222291	-0.810330
N72	N	0.467463	0.125690	-0.280056
H73	H	0.400605	0.125662	-0.266266
H74	H	0.490261	0.068243	-0.319179
H75	H	0.954157	0.241151	-0.247260
H76	H	0.650504	0.129224	0.255918
H77	H	1.237393	-0.048609	-0.404770
N78	N	1.253612	-0.065149	-0.609185
H79	H	1.292381	-0.104797	-0.559978
H80	H	1.293520	-0.029747	-0.652738
N81	N	0.467461	0.125646	0.279948
H82	H	0.400754	0.124351	0.266140
H83	H	0.476685	0.183088	0.319673
H84	H	0.791549	0.131969	0.164980
