data_functionalizedCrystal
_audit_creation_method	'MofGen! by Chris Wilmer'
_symmetry_space_group_name_H-M	'P1'
_symmetry_Int_Tables_number	1
_symmetry_cell_setting	triclinic
loop_
_symmetry_equiv_pos_as_xyz
  x,y,z
_cell_length_a	14.560432
_cell_length_b	21.606444
_cell_length_c	21.606444
_cell_angle_alpha	60.000398
_cell_angle_beta	89.999599
_cell_angle_gamma	60.000162
loop_
_atom_site_label
_atom_site_type_symbol
_atom_site_fract_x
_atom_site_fract_y
_atom_site_fract_z
Zr1	Zr	0.884739	0.677465	-0.081201
O2	O	0.738093	0.806583	-0.180023
O3	O	0.929696	0.548347	-0.050910
O4	O	0.929695	0.677468	-0.180027
O5	O	0.738092	0.677459	0.050948
O6	O	1.080832	0.677471	-0.180027
O7	O	0.738093	0.677462	-0.050906
O8	O	1.080834	0.446496	0.050940
O9	O	0.738091	0.908434	-0.180019
O10	O	1.061660	0.601457	-0.037988
O11	O	0.948867	0.601453	0.038024
O12	O	0.948866	0.753477	-0.113995
O13	O	0.836073	0.753473	-0.037983
Zr14	Zr	1.125785	0.677465	0.081243
Zr15	Zr	1.125786	0.677469	-0.081201
Zr16	Zr	0.884738	0.677461	0.081243
Zr17	Zr	0.884737	0.839905	-0.081196
Zr18	Zr	1.125787	0.515025	0.081237
O19	O	1.080828	0.806584	0.050951
O20	O	1.080830	0.806589	-0.180023
O21	O	0.738090	0.806578	0.050952
O22	O	1.272431	0.548347	0.180064
O23	O	1.272434	0.548353	-0.050910
O24	O	0.929694	0.548341	0.180064
O25	O	1.272432	0.677471	-0.050906
O26	O	1.080829	0.677462	0.180068
O27	O	0.929692	0.677459	0.180069
O28	O	1.272431	0.677469	0.050947
O29	O	0.929691	0.908437	-0.180020
O30	O	1.080833	0.446493	0.180061
O31	O	1.272433	0.446496	0.180061
O32	O	1.272434	0.446499	0.050939
O33	O	0.738090	0.908431	-0.050898
O34	O	0.929690	0.908434	-0.050898
O35	O	1.061658	0.601453	0.114036
O36	O	1.174451	0.601457	0.038024
O37	O	1.061657	0.753477	-0.037983
O38	O	0.948864	0.753473	0.038029
C39	C	1.005265	0.474277	0.000014
C40	C	1.005266	0.405317	0.000012
C41	C	1.064141	0.372921	-0.039667
C42	C	1.064145	0.308121	-0.039662
C43	C	1.005267	0.275723	0.000018
C44	C	0.946391	0.308121	0.039702
C45	C	0.946394	0.372915	0.039700
C46	C	0.946378	0.046812	0.039708
C47	C	0.946376	-0.017986	0.039704
C48	C	1.064128	-0.017982	-0.039654
C49	C	1.064131	0.046812	-0.039655
C50	C	1.005261	0.079201	0.000031
C51	C	1.005259	0.149464	0.000026
C52	C	1.005262	0.205466	0.000019
C53	C	0.703749	0.677460	0.000021
C54	C	0.601418	0.677458	0.000021
C55	C	0.719159	0.518747	0.079366
C56	C	0.729952	0.439395	0.119034
C57	C	0.633800	0.439399	0.119032
C58	C	0.526845	0.518763	0.079359
C59	C	0.516052	0.598116	0.039691
C60	C	0.612213	0.598104	0.039695
C61	C	0.398312	0.756825	-0.039648
C62	C	0.494464	0.756823	-0.039652
C63	C	0.291358	0.836189	-0.079321
C64	C	0.280563	0.915544	-0.118995
C65	C	0.376724	0.915537	-0.118992
C66	C	0.483670	0.836175	-0.079320
C67	C	1.306775	0.677470	0.000020
C68	C	1.409106	0.677472	0.000020
C69	C	1.005264	0.677470	-0.203172
C70	C	1.005264	0.677472	-0.272134
C71	C	1.005259	0.880653	0.000027
C72	C	1.005258	0.949613	0.000030
C73	C	1.088527	0.677475	-0.304532
C74	C	1.088531	0.677469	-0.369325
C75	C	1.005266	0.677466	-0.401722
C76	C	0.921999	0.677460	-0.369317
C77	C	0.922001	0.677460	-0.304522
C78	C	0.921989	0.677459	-0.630628
C79	C	0.921991	0.677462	-0.695428
C80	C	1.088519	0.677468	-0.695430
C81	C	1.088521	0.677468	-0.630635
C82	C	1.005258	0.677457	-0.598234
C83	C	1.005256	0.677462	-0.527978
C84	C	1.005262	0.677467	-0.471980
C85	C	1.005260	0.677460	0.203213
C86	C	1.005260	0.677459	0.272175
C87	C	1.306778	0.474282	0.000014
C88	C	1.409110	0.405324	0.000011
C89	C	1.005263	0.474272	0.203207
C90	C	1.005264	0.405310	0.272166
C91	C	1.306776	0.474277	0.203206
C92	C	1.409108	0.405317	0.272166
C93	C	0.703748	0.880653	-0.203165
C94	C	0.601416	0.949613	-0.272124
C95	C	0.703746	0.880648	0.000028
C96	C	0.601414	0.949606	0.000030
C97	C	1.005261	0.880658	-0.203165
C98	C	1.005260	0.949620	-0.272125
C99	C	1.398290	0.372940	-0.039674
C100	C	1.494433	0.308156	-0.039691
C101	C	1.601394	0.275751	-0.000019
C102	C	1.612212	0.308141	0.039668
C103	C	1.516070	0.372929	0.039680
C104	C	1.064140	0.372925	0.344235
C105	C	1.064136	0.308137	0.409035
C106	C	1.005262	0.275731	0.401767
C107	C	0.946379	0.308123	0.329691
C108	C	0.946376	0.372914	0.264891
C109	C	1.516050	0.372935	0.264872
C110	C	1.612211	0.308149	0.329661
C111	C	1.601426	0.275742	0.401742
C112	C	1.494472	0.308131	0.409034
C113	C	1.398314	0.372920	0.344246
C114	C	0.494474	0.982003	-0.264831
C115	C	0.398313	1.046809	-0.329619
C116	C	0.409098	1.079220	-0.401701
C117	C	0.516052	1.046827	-0.408992
C118	C	0.612210	0.982026	-0.344205
C119	C	0.612234	0.981997	0.039709
C120	C	0.516091	1.046799	0.039708
C121	C	0.409130	1.079206	0.000033
C122	C	0.398312	1.046813	-0.039650
C123	C	0.494454	0.982016	-0.039654
C124	C	1.064146	0.982005	-0.264832
C125	C	1.064167	1.046794	-0.329620
C126	C	1.005296	1.079200	-0.401701
C127	C	0.946409	1.046808	-0.408993
C128	C	0.946394	0.982016	-0.344205
H129	H	1.112068	-0.044363	-0.071966
H130	H	0.817044	0.374778	0.151337
H131	H	0.898477	1.073203	-0.467690
H132	H	1.112083	0.399303	0.350168
H133	H	0.448558	0.518759	0.079369
H134	H	0.330855	1.131968	0.000042
O135	O	0.282944	1.081769	-0.082442
H136	H	0.217919	1.132261	-0.075762
O137	O	0.727563	0.947099	-0.352064
H138	H	0.774204	0.875622	-0.324444
H139	H	1.112086	0.955630	-0.206145
H140	H	1.524853	0.399311	0.206186
H141	H	1.699289	0.281784	0.323710
H142	H	0.898436	0.399273	0.206213
H143	H	1.679733	0.222986	0.454490
O144	O	1.527755	0.407837	0.082502
H145	H	1.486782	0.479313	0.042463
H146	H	0.524921	1.073163	0.072026
H147	H	0.699318	0.955616	0.072022
H148	H	1.005273	0.222974	0.454537
H149	H	0.854192	0.677453	-0.604253
O150	O	0.165209	1.001132	-0.161782
H151	H	0.155431	1.039178	-0.138845
O152	O	1.178338	0.677462	-0.595693
H153	H	1.226335	0.618127	-0.536506
O154	O	1.127680	1.081726	-0.321748
H155	H	1.168595	1.048314	-0.260740
H156	H	0.485628	0.955645	-0.071963
O157	O	1.005299	1.149093	-0.471578
H158	H	1.056127	1.166172	-0.454389
H159	H	1.156319	0.677472	-0.721816
O160	O	0.882872	0.947090	-0.352071
H161	H	0.792384	1.001491	-0.383532
O162	O	1.127645	0.407865	-0.082464
H163	H	1.168593	0.374443	-0.110048
H164	H	0.898445	0.281728	0.323783
O165	O	1.282934	0.407892	-0.082479
H166	H	1.236301	0.395450	-0.042430
H167	H	1.112085	0.281744	-0.071970
H168	H	0.561970	0.836162	-0.079316
H169	H	0.854184	0.677458	-0.721804
H170	H	1.485707	0.281735	0.467731
O171	O	1.127669	0.273193	0.486769
H172	H	1.168626	0.306601	0.480931
H173	H	0.485671	0.955618	-0.206145
O174	O	1.127629	0.081762	-0.082456
H175	H	1.218123	0.027373	-0.059524
O176	O	1.282968	0.407827	0.352116
H177	H	1.291635	0.374392	0.413125
H178	H	0.213070	0.836187	-0.079316
H179	H	0.898450	0.399293	0.072009
O180	O	0.882846	-0.052918	0.082487
H181	H	0.841907	-0.019509	0.110082
H182	H	0.898446	0.073172	0.072026
H183	H	0.367923	0.980156	-0.151285
O184	O	1.178338	0.677473	-0.269588
H185	H	1.236244	0.677464	-0.303000
H186	H	0.642593	0.374783	0.151337
O187	O	0.882879	0.273185	0.082497
H188	H	0.892754	0.222694	0.075825
H189	H	0.311236	1.073173	-0.323667
H190	H	0.797457	0.518736	0.079365
O191	O	0.305381	1.149122	-0.471577
H192	H	0.229209	1.166193	-0.454388
H193	H	0.524820	1.073224	-0.467689
H194	H	0.854206	0.677452	-0.395696
O195	O	1.178325	0.677493	-0.404275
H196	H	1.262284	0.618172	-0.362173
O197	O	0.832205	0.677452	-0.269566
H198	H	0.748247	0.736787	-0.311657
O199	O	1.482754	0.273220	-0.082491
H200	H	1.392223	0.306630	-0.110060
H201	H	1.679669	0.222996	-0.000034
H202	H	1.699313	0.281748	0.071968
