data_functionalizedCrystal
_audit_creation_method	'MofGen! by Chris Wilmer'
_symmetry_space_group_name_H-M	'P1'
_symmetry_Int_Tables_number	1
_symmetry_cell_setting	triclinic
loop_
_symmetry_equiv_pos_as_xyz
  x,y,z
_cell_length_a	19.288864
_cell_length_b	18.266242
_cell_length_c	19.288865
_cell_angle_alpha	90.011586
_cell_angle_beta	83.136245
_cell_angle_gamma	90.022884
loop_
_atom_site_label
_atom_site_type_symbol
_atom_site_fract_x
_atom_site_fract_y
_atom_site_fract_z
O1	O	0.921353	0.061124	0.086649
O2	O	1.421353	0.561124	0.586649
O3	O	0.719092	0.061075	0.098338
O4	O	1.219092	0.561075	0.598338
O5	O	0.826067	0.061086	-0.008637
O6	O	1.326067	0.561086	0.491363
O7	O	0.814378	0.061113	0.193623
O8	O	1.314378	0.561113	0.693623
O9	O	0.826049	-0.060675	-0.008643
O10	O	1.326049	0.439325	0.491357
O11	O	0.719074	-0.060687	0.098332
O12	O	1.219074	0.439313	0.598332
O13	O	0.921335	-0.060638	0.086643
O14	O	1.421335	0.439362	0.586643
Zn15	Zn	0.820201	-0.079995	0.092487
Zn16	Zn	1.320201	0.420005	0.592487
Zn17	Zn	0.820225	0.080432	0.092494
Zn18	Zn	1.320225	0.580432	0.592494
O19	O	0.814360	-0.060649	0.193618
O20	O	1.314360	0.439351	0.693618
C21	C	0.693207	0.000188	0.097959
C22	C	1.193207	0.500188	0.597959
C23	C	0.616103	0.000168	0.096830
C24	C	1.116103	0.500168	0.596830
N25	N	0.820190	-0.189482	0.092481
N26	N	1.320190	0.310518	0.592481
C27	C	0.571407	0.000188	0.159598
C28	C	1.071407	0.500188	0.659598
C29	C	0.498960	0.000196	0.158537
C30	C	0.998960	0.500196	0.658537
C31	C	0.471212	0.000199	0.094705
C32	C	0.971212	0.500199	0.594705
C33	C	0.515918	0.000175	0.031929
C34	C	1.015918	0.500175	0.531929
C35	C	0.588364	0.000160	0.032991
C36	C	1.088364	0.500160	0.532991
C37	C	0.362956	0.042876	0.044527
C38	C	0.862956	0.542876	0.544527
C39	C	0.290512	0.042895	0.043468
C40	C	0.790512	0.542895	0.543468
C41	C	0.247767	0.000243	0.091425
C42	C	0.747767	0.500243	0.591425
C43	C	0.277473	-0.042420	0.140454
C44	C	0.777473	0.457580	0.640454
C45	C	0.349918	-0.042436	0.141517
C46	C	0.849918	0.457564	0.641517
C47	C	0.392658	0.000215	0.093546
C48	C	0.892658	0.500215	0.593546
C49	C	0.124514	0.000270	0.153047
C50	C	0.624514	0.500270	0.653047
C51	C	0.052066	0.000273	0.151984
C52	C	0.552066	0.500273	0.651984
C53	C	0.069026	0.000260	0.025374
C54	C	0.569026	0.500260	0.525374
C55	C	0.141473	0.000249	0.026439
C56	C	0.641473	0.500249	0.526439
C57	C	0.169212	0.000258	0.090278
C58	C	0.669212	0.500258	0.590278
C59	C	0.867574	-0.227785	0.045136
C60	C	1.367574	0.272215	0.545136
C61	C	0.867579	-0.304430	0.045133
C62	C	1.367579	0.195570	0.545133
C63	C	0.820206	-0.342769	0.092487
C64	C	1.320206	0.157231	0.592487
C65	C	0.772813	-0.304456	0.139836
C66	C	1.272813	0.195544	0.639836
C67	C	0.772805	-0.227812	0.139833
C68	C	1.272805	0.272188	0.639833
N69	N	0.811172	-0.463094	0.153975
N70	N	1.311172	0.036906	0.653975
N71	N	0.811184	-0.535902	0.153976
N72	N	1.311184	-0.035902	0.653976
C73	C	0.820225	-0.573691	0.092497
C74	C	1.320225	-0.073691	0.592497
N75	N	0.829268	-0.535921	0.031016
N76	N	1.329268	-0.035921	0.531016
N77	N	0.829260	-0.463106	0.031016
N78	N	1.329260	0.036894	0.531016
C79	C	0.820209	-0.425876	0.092495
C80	C	1.320209	0.074124	0.592495
C81	C	0.867616	-0.695102	0.045144
C82	C	1.367616	-0.195102	0.545144
C83	C	0.867616	-0.771748	0.045140
C84	C	1.367616	-0.271748	0.545140
C85	C	0.772854	-0.771772	0.139849
C86	C	1.272854	-0.271772	0.639849
C87	C	0.772851	-0.695127	0.139847
C88	C	1.272851	-0.195127	0.639847
C89	C	0.820236	-0.656797	0.092496
C90	C	1.320236	-0.156797	0.592496
C91	C	0.947220	0.000251	0.087022
C92	C	1.447220	0.500251	0.587022
C93	C	1.024324	0.000275	0.088151
C94	C	1.524324	0.500275	0.588151
N95	N	0.820242	0.189919	0.092494
N96	N	1.320242	0.689919	0.592494
C97	C	0.825682	0.000203	-0.034516
C98	C	1.325682	0.500203	0.465484
C99	C	0.824553	0.000197	-0.111620
C100	C	1.324553	0.500197	0.388380
C101	C	0.887321	0.000208	-0.156316
C102	C	1.387321	0.500208	0.343684
C103	C	0.886260	0.000219	-0.228763
C104	C	1.386260	0.500219	0.271237
C105	C	0.822428	0.000204	-0.256511
C106	C	1.322428	0.500204	0.243489
C107	C	0.759652	0.000197	-0.211805
C108	C	1.259652	0.500197	0.288195
C109	C	0.760714	0.000193	-0.139359
C110	C	1.260714	0.500193	0.360641
C111	C	0.772242	-0.042458	-0.364800
C112	C	1.272242	0.457542	0.135200
C113	C	0.771182	-0.042459	-0.437245
C114	C	1.271182	0.457541	0.062755
C115	C	0.819148	0.000220	-0.479956
C116	C	1.319148	0.500220	0.020044
C117	C	0.868186	0.042890	-0.450216
C118	C	1.368186	0.542890	0.049784
C119	C	0.869248	0.042886	-0.377771
C120	C	1.369248	0.542886	0.122229
C121	C	0.821269	0.000209	-0.335065
C122	C	1.321269	0.500209	0.164935
C123	C	0.880770	0.000245	-0.603209
C124	C	1.380770	0.500245	-0.103209
C125	C	0.879707	0.000261	-0.675657
C126	C	1.379707	0.500261	-0.175657
C127	C	0.753097	0.000231	-0.658697
C128	C	1.253097	0.500231	-0.158697
C129	C	0.754162	0.000223	-0.586250
C130	C	1.254162	0.500223	-0.086250
C131	C	0.818001	0.000226	-0.558511
C132	C	1.318001	0.500226	-0.058511
C133	C	0.814745	0.000236	0.219497
C134	C	1.314745	0.500236	0.719497
C135	C	0.815874	0.000247	0.296601
C136	C	1.315874	0.500247	0.796601
H137	H	0.593987	0.000196	0.211580
H138	H	1.093987	0.500196	0.711580
H139	H	0.731250	-0.077199	-0.461453
H140	H	1.231250	0.422801	0.038547
N141	N	0.686458	0.000198	-0.538042
N142	N	1.186458	0.500198	-0.038042
H143	H	0.684071	-0.044942	-0.507617
H144	H	1.184071	0.455058	-0.007617
H145	H	0.684121	0.045362	-0.507641
H146	H	1.184121	0.545362	-0.007641
N147	N	0.231380	-0.088424	0.192189
N148	N	0.731380	0.411576	0.692189
H149	H	0.180979	-0.081945	0.184076
H150	H	0.680979	0.418055	0.684076
H151	H	0.244886	-0.141637	0.185880
H152	H	0.744886	0.358363	0.685880
N153	N	0.947413	0.000271	-0.723865
N154	N	1.447413	0.500271	-0.223865
H155	H	0.949781	-0.044862	-0.754312
H156	H	1.449781	0.455138	-0.254312
H157	H	0.949767	0.045442	-0.754243
H158	H	1.449767	0.545442	-0.254243
H159	H	0.707679	0.000186	-0.234401
H160	H	1.207679	0.500186	0.265599
H161	H	0.734240	-0.335674	0.178391
H162	H	1.234240	0.164326	0.678391
H163	H	0.906156	-0.196579	0.006578
H164	H	1.406156	0.303421	0.506578
N165	N	0.039105	0.000256	-0.043473
N166	N	0.539105	0.500256	0.456527
H167	H	0.009449	0.045398	-0.046736
H168	H	0.509449	0.545398	0.453264
H169	H	0.078454	0.000216	-0.083037
H170	H	0.578454	0.500216	0.416963
H171	H	0.177866	0.000237	-0.024674
H172	H	0.677866	0.500237	0.475326
N173	N	0.721754	-0.813112	0.190921
N174	N	1.221754	-0.313112	0.690921
H175	H	0.672486	-0.799800	0.183040
H176	H	1.172486	-0.299800	0.683040
H177	H	0.729008	-0.867465	0.183709
H178	H	1.229008	-0.367465	0.683709
H179	H	0.906165	-0.335623	0.006577
H180	H	1.406165	0.164377	0.506577
N181	N	0.721694	-0.186493	0.190898
N182	N	1.221694	0.313507	0.690898
H183	H	0.691680	-0.222407	0.220895
H184	H	1.191680	0.277593	0.720895
H185	H	0.748182	-0.154672	0.221539
H186	H	1.248182	0.345328	0.721539
N187	N	0.636577	0.000135	-0.034711
N188	N	1.136577	0.500135	0.465289
H189	H	0.608010	0.000135	-0.075312
H190	H	1.108010	0.500135	0.424688
H191	H	0.667030	0.045268	-0.037028
H192	H	1.167030	0.545268	0.462972
H193	H	0.734269	-0.663938	0.178403
H194	H	1.234269	-0.163938	0.678403
H195	H	0.709599	0.000183	-0.102967
H196	H	1.209599	0.500183	0.397033
H197	H	0.733180	-0.077216	-0.330029
H198	H	1.233180	0.422784	0.169971
N199	N	0.381955	-0.088458	0.194388
N200	N	0.881955	0.411542	0.694388
H201	H	0.415408	-0.124943	0.169313
H202	H	0.915408	0.375057	0.669313
H203	H	0.407999	-0.055737	0.224650
H204	H	0.907999	0.444263	0.724650
H205	H	0.147101	0.000266	0.205028
H206	H	0.647101	0.500266	0.705028
H207	H	0.932751	0.000251	-0.580622
H208	H	1.432751	0.500251	-0.080622
H209	H	0.462561	0.000210	0.209652
H210	H	0.962561	0.500210	0.709652
H211	H	0.266331	0.077637	0.003548
H212	H	0.766331	0.577637	0.503548
N213	N	0.956172	0.000213	-0.126397
N214	N	1.456172	0.500213	0.373603
H215	H	0.995774	0.000223	-0.165710
H216	H	1.495774	0.500223	0.334290
H217	H	0.959380	0.045351	-0.096699
H218	H	1.459380	0.545351	0.403301
H219	H	0.397755	0.077613	0.005473
H220	H	0.897755	0.577613	0.505473
N221	N	0.918729	-0.813068	-0.005922
N222	N	1.418729	-0.313068	0.494078
H223	H	0.949389	-0.844845	0.020556
H224	H	1.449389	-0.344845	0.520556
H225	H	0.892243	-0.844848	-0.036599
H226	H	1.392243	-0.344848	0.463401
H227	H	0.907244	0.077644	-0.484991
H228	H	1.407244	0.577644	0.015009
H229	H	0.015674	0.000285	0.203099
H230	H	0.515674	0.500285	0.703099
N231	N	0.485989	0.000172	-0.036916
N232	N	0.985989	0.500172	0.463084
H233	H	0.456336	0.045316	-0.040179
H234	H	0.956336	0.545316	0.459821
H235	H	0.525336	0.000128	-0.076482
H236	H	1.025336	0.500128	0.423518
N237	N	0.918719	-0.653753	-0.005926
N238	N	1.418719	-0.153753	0.494074
H239	H	0.948735	-0.689652	-0.035925
H240	H	1.448735	-0.189652	0.464075
H241	H	0.892224	-0.621972	-0.036565
H242	H	1.392224	-0.121972	0.463435
H243	H	0.937375	0.000232	-0.265162
H244	H	1.437375	0.500232	0.234838
H245	H	0.909175	0.077631	-0.353560
H246	H	1.409175	0.577631	0.146440
N247	N	0.684247	0.000223	-0.688613
N248	N	1.184247	0.500223	-0.188613
H249	H	0.693097	0.000230	-0.741290
H250	H	1.193097	0.500230	-0.241290
H251	H	0.656781	-0.044922	-0.672259
H252	H	1.156781	0.455078	-0.172259
