data_functionalizedCrystal
_audit_creation_method	'MofGen! by Chris Wilmer'
_symmetry_space_group_name_H-M	'P1'
_symmetry_Int_Tables_number	1
_symmetry_cell_setting	triclinic
loop_
_symmetry_equiv_pos_as_xyz
  x,y,z
_cell_length_a	14.519709
_cell_length_b	11.792254
_cell_length_c	12.996460
_cell_angle_alpha	90.000957
_cell_angle_beta	90.007122
_cell_angle_gamma	83.939371
loop_
_atom_site_label
_atom_site_type_symbol
_atom_site_fract_x
_atom_site_fract_y
_atom_site_fract_z
O1	O	0.126462	1.506193	0.085568
O2	O	0.459795	1.839526	0.418902
O3	O	0.793129	2.172860	0.752235
O4	O	0.139477	1.175782	0.085571
O5	O	0.472810	1.509115	0.418904
O6	O	0.806144	1.842448	0.752238
O7	O	-0.001237	1.349748	0.085560
O8	O	0.332097	1.683081	0.418894
O9	O	0.665430	2.016414	0.752227
O10	O	0.267176	1.332227	0.085579
O11	O	0.600509	1.665560	0.418912
O12	O	0.933842	1.998894	0.752246
O13	O	-0.001246	1.349745	-0.085574
O14	O	0.332087	1.683078	0.247760
O15	O	0.665421	2.016412	0.581093
O16	O	0.139468	1.175779	-0.085563
O17	O	0.472801	1.509112	0.247770
O18	O	0.806134	1.842445	0.581104
O19	O	0.126453	1.506190	-0.085565
O20	O	0.459786	1.839523	0.247768
O21	O	0.793119	2.172857	0.581101
Cu22	Cu	0.132959	1.340984	-0.101190
Cu23	Cu	0.466293	1.674318	0.232143
Cu24	Cu	0.799626	2.007651	0.565477
Cu25	Cu	0.132970	1.340988	0.101195
Cu26	Cu	0.466304	1.674321	0.434529
Cu27	Cu	0.799637	2.007654	0.767862
O28	O	0.267166	1.332224	-0.085555
O29	O	0.600500	1.665557	0.247778
O30	O	0.933833	1.998891	0.581112
C31	C	0.138652	1.133494	0.000004
C32	C	0.471986	1.466827	0.333338
C33	C	0.805319	1.800161	0.666671
C34	C	0.136199	1.007495	0.000005
C35	C	0.469532	1.340828	0.333338
C36	C	0.802865	1.674161	0.666672
C37	C	0.134205	0.905169	0.000009
C38	C	0.467538	1.238503	0.333342
C39	C	0.800871	1.571836	0.666676
C40	C	0.131711	0.776796	0.000010
C41	C	0.465045	1.110130	0.333343
C42	C	0.798378	1.443463	0.666676
C43	C	-0.035604	1.348930	-0.000007
C44	C	0.297729	1.682263	0.333327
C45	C	0.631063	2.015596	0.666660
C46	C	-0.137994	1.346483	-0.000007
C47	C	0.195339	1.679816	0.333326
C48	C	0.528672	2.013150	0.666659
C49	C	-0.512923	1.337475	0.000019
C50	C	-0.179590	1.670808	0.333353
C51	C	0.153743	2.004142	0.666686
C52	C	-0.408606	1.339976	0.000012
C53	C	-0.075273	1.673310	0.333345
C54	C	0.258060	2.006643	0.666678
C55	C	-0.325462	1.341979	0.000005
C56	C	0.007871	1.675312	0.333338
C57	C	0.341204	2.008645	0.666672
C58	C	-0.221138	1.344481	-0.000001
C59	C	0.112195	1.677814	0.333333
C60	C	0.445528	2.011147	0.666666
C61	C	0.301534	1.333042	0.000014
C62	C	0.634867	1.666375	0.333348
C63	C	0.968200	1.999709	0.666681
C64	C	0.403924	1.335489	0.000022
C65	C	0.737257	1.668822	0.333355
C66	C	1.070591	2.002156	0.666688
C67	C	0.127277	1.548478	0.000003
C68	C	0.460610	1.881811	0.333337
C69	C	0.793944	2.215144	0.666670
C70	C	0.129731	1.674477	0.000010
C71	C	0.463064	2.007811	0.333343
C72	C	0.796398	2.341144	0.666676
N73	N	0.132971	1.340991	0.243543
N74	N	0.466305	1.674324	0.576876
N75	N	0.799638	2.007658	0.910209
N76	N	0.132951	1.340990	-0.243537
N77	N	0.466284	1.674323	0.089796
N78	N	0.799618	2.007657	0.423129
C79	C	0.132962	1.340985	0.663357
C80	C	0.466296	1.674318	0.996690
C81	C	0.799629	2.007652	1.330024
C82	C	0.132968	1.340983	0.546552
C83	C	0.466301	1.674316	0.879885
C84	C	0.799634	2.007650	1.213218
C85	C	0.132966	1.340987	0.453453
C86	C	0.466300	1.674320	0.786787
C87	C	0.799633	2.007654	1.120120
C88	C	0.132972	1.340987	0.336641
C89	C	0.466306	1.674320	0.669974
C90	C	0.799639	2.007653	1.003308
