data_functionalizedCrystal
_audit_creation_method	'MofGen! by Chris Wilmer'
_symmetry_space_group_name_H-M	'P1'
_symmetry_Int_Tables_number	1
_symmetry_cell_setting	triclinic
loop_
_symmetry_equiv_pos_as_xyz
  x,y,z
_cell_length_a	11.792241
_cell_length_b	11.792254
_cell_length_c	16.053802
_cell_angle_alpha	92.583162
_cell_angle_beta	87.405349
_cell_angle_gamma	84.196007
loop_
_atom_site_label
_atom_site_type_symbol
_atom_site_fract_x
_atom_site_fract_y
_atom_site_fract_z
O1	O	1.511669	0.150823	-0.069348
O2	O	2.011669	0.650823	0.430652
O3	O	1.181330	0.166855	-0.069368
O4	O	1.681330	0.666855	0.430632
O5	O	1.354508	-0.006330	-0.069352
O6	O	1.854508	0.493670	0.430648
O7	O	1.338491	0.324008	-0.069364
O8	O	1.838491	0.824008	0.430636
O9	O	1.344976	0.003163	0.069506
O10	O	1.844976	0.503163	0.569506
O11	O	1.171798	0.176348	0.069490
O12	O	1.671798	0.676348	0.569490
O13	O	1.502137	0.160316	0.069510
O14	O	2.002137	0.660316	0.569510
Zn15	Zn	1.335454	0.169839	0.091547
Zn16	Zn	1.835454	0.669839	0.591547
Zn17	Zn	1.348013	0.157332	-0.091405
Zn18	Zn	1.848013	0.657332	0.408595
O19	O	1.328959	0.333501	0.069494
O20	O	1.828959	0.833501	0.569494
C21	C	1.348733	-0.043874	0.000077
C22	C	1.848733	0.456126	0.500077
C23	C	1.345713	-0.169887	0.000076
C24	C	1.845713	0.330113	0.500076
C25	C	1.134273	0.170594	0.000059
C26	C	1.634273	0.670594	0.500059
C27	C	1.008260	0.167579	0.000051
C28	C	1.508260	0.667579	0.500051
C29	C	1.343259	-0.272224	0.000073
C30	C	1.843259	0.227776	0.500073
C31	C	1.340191	-0.400611	0.000065
C32	C	1.840191	0.099389	0.500065
C33	C	0.777545	0.162038	0.000076
C34	C	1.277545	0.662038	0.500076
C35	C	0.905932	0.165117	0.000062
C36	C	1.405932	0.665117	0.500062
C37	C	1.549194	0.156577	0.000081
C38	C	2.049194	0.656577	0.500081
C39	C	1.675207	0.159591	0.000083
C40	C	2.175207	0.659591	0.500083
C41	C	1.334734	0.371045	0.000063
C42	C	1.834734	0.871045	0.500063
C43	C	1.337754	0.497058	0.000059
C44	C	1.837754	0.997058	0.500059
N45	N	1.326890	0.178375	0.216406
N46	N	1.826890	0.678375	0.716406
N47	N	1.356585	0.148787	-0.216264
N48	N	1.856585	0.648787	0.283736
C49	C	1.400605	0.104711	0.260107
C50	C	1.900605	0.604711	0.760107
C51	C	1.394626	0.110692	0.347513
C52	C	1.894626	0.610692	0.847513
C53	C	1.314936	0.190344	0.391217
C54	C	1.814936	0.690344	0.891217
C55	C	1.241214	0.264011	0.347510
C56	C	1.741214	0.764011	0.847510
C57	C	1.247188	0.258023	0.260106
C58	C	1.747188	0.758023	0.760106
C59	C	1.288837	0.216467	0.652624
C60	C	1.788837	0.716467	1.152624
C61	C	1.282870	0.222451	0.740035
C62	C	1.782870	0.722451	1.240035
C63	C	1.436282	0.069130	0.740032
C64	C	1.936282	0.569130	1.240032
C65	C	1.442254	0.063154	0.652626
C66	C	1.942254	0.563154	1.152626
C67	C	1.368527	0.136817	0.608926
C68	C	1.868527	0.636817	1.108926
N69	N	1.308825	0.196462	0.480560
N70	N	1.808825	0.696462	0.980560
N71	N	1.374634	0.130693	0.519585
N72	N	1.874634	0.630693	1.019585
H73	H	1.465501	0.039855	0.224529
H74	H	1.965501	0.539855	0.724529
H75	H	1.454649	0.050709	0.383094
H76	H	1.954649	0.550709	0.883094
F77	F	1.527069	-0.021618	0.606114
F78	F	2.027069	0.478382	1.106114
F79	F	1.198050	0.307235	0.786542
F80	F	1.698050	0.807235	1.286542
F81	F	1.156395	0.348778	0.394024
F82	F	1.656395	0.848778	0.894024
F83	F	1.514739	-0.009265	0.786545
F84	F	2.014739	0.490735	1.286545
H85	H	1.228808	0.276448	0.617051
H86	H	1.728808	0.776448	1.117051
H87	H	1.187161	0.318007	0.224525
H88	H	1.687161	0.818007	0.724525
