data_functionalizedCrystal
_audit_creation_method	'MofGen! by Chris Wilmer'
_symmetry_space_group_name_H-M	'P1'
_symmetry_Int_Tables_number	1
_symmetry_cell_setting	triclinic
loop_
_symmetry_equiv_pos_as_xyz
  x,y,z
_cell_length_a	21.295419
_cell_length_b	21.295412
_cell_length_c	21.295417
_cell_angle_alpha	89.969332
_cell_angle_beta	90.045308
_cell_angle_gamma	89.976510
loop_
_atom_site_label
_atom_site_type_symbol
_atom_site_fract_x
_atom_site_fract_y
_atom_site_fract_z
Zn1	Zn	0.962349	-0.355911	-0.250376
Zn2	Zn	0.962253	-0.250637	-0.355645
Zn3	Zn	0.857074	-0.250656	-0.250421
Zn4	Zn	0.857042	-0.355868	-0.355639
O5	O	0.909680	-0.303268	-0.303020
O6	O	1.050426	-0.341956	-0.264324
O7	O	0.948275	-0.162550	-0.341708
O8	O	0.871093	-0.264645	-0.162325
O9	O	1.050355	-0.264611	-0.341665
O10	O	0.948438	-0.341975	-0.162293
O11	O	0.871000	-0.162564	-0.264400
O12	O	0.768980	-0.264603	-0.264394
O13	O	0.871037	-0.443963	-0.341654
O14	O	0.768957	-0.341902	-0.341697
O15	O	0.948406	-0.443995	-0.264319
O16	O	0.948243	-0.264570	-0.443733
O17	O	0.870945	-0.341883	-0.443729
C18	C	0.746128	-0.303250	-0.303050
C19	C	0.676160	-0.303258	-0.303078
C20	C	0.643352	-0.343593	-0.262873
C21	C	0.577610	-0.343596	-0.262856
C22	C	0.544677	-0.303269	-0.303056
C23	C	0.577493	-0.262926	-0.343264
C24	C	0.643234	-0.262920	-0.343275
N25	N	0.441402	-0.298349	-0.358134
N26	N	0.378951	-0.298359	-0.358121
C27	C	0.346603	-0.303283	-0.303023
N28	N	0.379065	-0.308210	-0.247937
N29	N	0.441523	-0.308205	-0.247950
C30	C	0.473392	-0.303271	-0.303048
C31	C	0.242510	-0.343624	-0.262796
C32	C	0.176766	-0.343622	-0.262778
C33	C	0.176650	-0.262955	-0.343192
C34	C	0.242393	-0.262953	-0.343204
C35	C	0.275318	-0.303291	-0.303007
C36	C	0.909729	-0.467458	-0.302981
C37	C	0.909750	-0.537427	-0.302964
C38	C	0.869524	-0.570291	-0.262706
C39	C	0.869521	-0.636033	-0.262694
C40	C	0.909757	-0.668909	-0.302934
C41	C	0.949986	-0.636037	-0.343201
C42	C	0.949982	-0.570296	-0.343216
N43	N	0.964861	-0.772147	-0.307728
N44	N	0.964862	-0.834599	-0.307710
C45	C	0.909768	-0.866984	-0.302892
N46	N	0.854671	-0.834558	-0.298081
N47	N	0.854671	-0.772101	-0.298096
C48	C	0.909764	-0.740194	-0.302923
C49	C	0.869536	-0.971134	-0.262619
C50	C	0.869533	-1.036878	-0.262611
C51	C	0.950003	-1.036880	-0.343115
C52	C	0.950000	-0.971137	-0.343126
C53	C	0.909768	-0.938268	-0.302874
C54	C	1.073870	-0.303286	-0.302990
C55	C	1.143838	-0.303294	-0.302977
C56	C	0.909597	-0.303233	-0.466572
C57	C	0.909619	-0.303239	-0.536540
C58	C	0.909667	-0.139716	-0.303014
C59	C	0.909768	-0.069749	-0.302853
C60	C	0.949904	-0.263024	-0.569388
C61	C	0.949934	-0.263038	-0.635130
C62	C	0.909667	-0.303261	-0.668022
C63	C	0.869379	-0.343485	-0.635166
C64	C	0.869355	-0.343474	-0.569425
N65	N	0.854600	-0.308054	-0.771302
N66	N	0.854624	-0.308061	-0.833754
C67	C	0.909738	-0.303297	-0.866097
N68	N	0.964827	-0.298514	-0.833629
N69	N	0.964801	-0.298505	-0.771172
C70	C	0.909689	-0.303278	-0.739308
C71	C	0.950058	-0.263095	-0.970230
C72	C	0.950089	-0.263113	-1.035974
C73	C	0.869528	-0.343557	-1.036009
C74	C	0.869503	-0.343541	-0.970267
C75	C	0.909767	-0.303307	-0.937381
C76	C	0.909780	-0.303317	-0.138830
C77	C	0.909822	-0.303338	-0.068862
H78	H	0.550675	-0.230091	-0.375994
H79	H	0.982759	-0.944379	-0.375907
H80	H	0.982764	-1.063647	-0.375878
O81	O	0.993547	-0.219741	-1.071408
H82	H	0.965401	-0.187701	-1.101424
O83	O	0.826142	-0.671482	-0.219253
H84	H	0.854354	-0.701448	-0.187224
O85	O	0.826137	-0.534837	-0.219289
H86	H	0.798164	-0.568739	-0.191293
O87	O	0.825892	-0.386839	-0.533990
H88	H	0.797890	-0.414808	-0.567903
H89	H	0.836771	-1.063635	-0.229830
H90	H	0.836697	-0.376286	-0.943520
H91	H	0.836595	-0.376236	-0.661951
H92	H	0.982691	-0.230264	-0.542615
O93	O	0.993380	-0.219656	-0.670572
H94	H	1.021370	-0.191673	-0.636660
O95	O	0.993380	-0.534843	-0.386629
H96	H	1.021364	-0.568745	-0.414606
H97	H	0.269319	-0.376465	-0.230062
O98	O	0.826143	-0.935674	-0.219212
H99	H	0.776731	-0.948262	-0.230019
O100	O	0.993491	-0.219710	-0.934754
H101	H	1.021518	-0.191755	-0.968643
H102	H	0.550893	-0.376441	-0.230113
O103	O	0.678626	-0.219415	-0.386642
H104	H	0.644684	-0.191373	-0.414595
H105	H	0.836745	-0.376310	-1.062789
O106	O	0.678867	-0.387095	-0.219517
H107	H	0.708838	-0.358975	-0.187462
H108	H	0.150055	-0.376467	-0.230035
O109	O	0.141141	-0.219457	-0.386552
H110	H	0.089915	-0.226239	-0.379793
H111	H	0.982745	-0.662809	-0.375965
O112	O	0.277785	-0.219451	-0.386571
H113	H	0.243842	-0.191411	-0.414524
