data_functionalizedCrystal
_audit_creation_method	'MofGen! by Chris Wilmer'
_symmetry_space_group_name_H-M	'P1'
_symmetry_Int_Tables_number	1
_symmetry_cell_setting	triclinic
loop_
_symmetry_equiv_pos_as_xyz
  x,y,z
_cell_length_a	10.723024
_cell_length_b	10.868271
_cell_length_c	10.723023
_cell_angle_alpha	90.004123
_cell_angle_beta	84.467709
_cell_angle_gamma	90.004005
loop_
_atom_site_label
_atom_site_type_symbol
_atom_site_fract_x
_atom_site_fract_y
_atom_site_fract_z
O1	O	1.657188	0.102311	0.175028
O2	O	1.990521	0.435645	0.508361
O3	O	2.323854	0.768978	0.841695
O4	O	1.294035	0.102315	0.191781
O5	O	1.627369	0.435649	0.525115
O6	O	1.960702	0.768982	0.858448
O7	O	1.483989	0.102308	0.001828
O8	O	1.817322	0.435642	0.335162
O9	O	2.150655	0.768975	0.668495
O10	O	1.467234	0.102318	0.364981
O11	O	1.800568	0.435652	0.698314
O12	O	2.133901	0.768985	1.031648
O13	O	1.483973	-0.102336	0.001821
O14	O	1.817306	0.230997	0.335154
O15	O	2.150639	0.564330	0.668488
O16	O	1.294019	-0.102329	0.191774
O17	O	1.627353	0.231004	0.525107
O18	O	1.960686	0.564337	0.858440
O19	O	1.657172	-0.102333	0.175021
O20	O	1.990505	0.231000	0.508354
O21	O	2.323838	0.564333	0.841687
Zn22	Zn	1.475593	-0.134823	0.183396
Zn23	Zn	1.808926	0.198510	0.516729
Zn24	Zn	2.142260	0.531844	0.850063
Zn25	Zn	1.475614	0.134805	0.183406
Zn26	Zn	1.808947	0.468138	0.516739
Zn27	Zn	2.142281	0.801472	0.850073
O28	O	1.467218	-0.102326	0.364973
O29	O	1.800552	0.231007	0.698307
O30	O	2.133885	0.564340	1.031640
C31	C	1.247528	-0.000007	0.190558
C32	C	1.580861	0.333327	0.523892
C33	C	1.914194	0.666660	0.857225
C34	C	1.108973	-0.000005	0.186911
C35	C	1.442307	0.333328	0.520244
C36	C	1.775640	0.666662	0.853577
N37	N	1.475588	-0.318837	0.183388
N38	N	1.808921	0.014496	0.516722
N39	N	2.142255	0.347830	0.850055
C40	C	1.033991	-0.000001	0.293198
C41	C	1.367324	0.333332	0.626532
C42	C	1.700657	0.666665	0.959865
C43	C	0.890787	0.000000	0.289431
C44	C	1.224120	0.333334	0.622764
C45	C	1.557454	0.666667	0.956097
C46	C	1.475607	-0.569843	0.183403
C47	C	1.808941	-0.236510	0.516737
C48	C	2.142274	0.096823	0.850070
C49	C	1.475593	-0.430166	0.183399
C50	C	1.808926	-0.096832	0.516732
C51	C	2.142259	0.236501	0.850065
C52	C	1.703679	-0.000009	0.176243
C53	C	2.037013	0.333325	0.509577
C54	C	2.370346	0.666658	0.842910
C55	C	1.842234	-0.000002	0.179891
C56	C	2.175567	0.333331	0.513224
C57	C	2.508900	0.666665	0.846558
C58	C	1.482762	-0.000013	-0.044675
C59	C	1.816095	0.333321	0.288658
C60	C	2.149428	0.666654	0.621992
C61	C	1.479114	-0.000009	-0.183229
C62	C	1.812448	0.333325	0.150104
C63	C	2.145781	0.666658	0.483437
N64	N	1.475629	0.318819	0.183404
N65	N	1.808962	0.652153	0.516737
N66	N	2.142295	0.985486	0.850070
C67	C	1.473710	-0.106012	-0.388207
C68	C	1.807044	0.227321	-0.054874
C69	C	2.140377	0.560655	0.278460
C70	C	1.477480	-0.106019	-0.245004
C71	C	1.810813	0.227315	0.088329
C72	C	2.144147	0.560648	0.421663
C73	C	1.468445	-0.000002	0.411477
C74	C	1.801779	0.333331	0.744810
C75	C	2.135112	0.666664	1.078143
C76	C	1.472093	0.000002	0.550031
C77	C	1.805426	0.333335	0.883364
C78	C	2.138759	0.666668	1.216698
H79	H	1.075812	-0.000006	0.386984
H80	H	1.409146	0.333328	0.720318
H81	H	1.742479	0.666661	1.053651
H82	H	0.826354	0.000009	0.380421
H83	H	1.159688	0.333342	0.713755
H84	H	1.493021	0.666675	1.047088
H85	H	1.473488	0.090759	-0.396827
H86	H	1.806822	0.424092	-0.063494
H87	H	2.140155	0.757426	0.269840
H88	H	1.478878	-0.196781	-0.191891
H89	H	1.812211	0.136552	0.141442
H90	H	2.145545	0.469886	0.474776
C91	C	1.477253	0.122616	-0.254960
C92	C	1.810587	0.455950	0.078374
C93	C	2.143920	0.789283	0.411707
H94	H	1.478781	0.189124	-0.197627
H95	H	1.812114	0.522457	0.135706
H96	H	2.145448	0.855790	0.469039
H97	H	1.403279	0.127204	-0.296867
H98	H	1.736613	0.460538	0.036466
H99	H	2.069946	0.793871	0.369799
H100	H	1.548578	0.127179	-0.314635
H101	H	1.881911	0.460512	0.018699
H102	H	2.215245	0.793846	0.352032
H103	H	1.472298	-0.196769	-0.441347
H104	H	1.805632	0.136564	-0.108014
H105	H	2.138965	0.469897	0.225320
C106	C	0.929255	-0.000000	0.056957
C107	C	1.262588	0.333333	0.390290
C108	C	1.595921	0.666667	0.723624
H109	H	0.880215	0.000008	-0.012255
H110	H	1.213549	0.333342	0.321079
H111	H	1.546882	0.666675	0.654412
H112	H	0.980616	-0.071361	0.053631
H113	H	1.313949	0.261972	0.386964
H114	H	1.647282	0.595306	0.720297
H115	H	0.980614	0.071376	0.053645
H116	H	1.313947	0.404710	0.386979
H117	H	1.647281	0.738043	0.720312
H118	H	1.067152	0.000024	0.093125
H119	H	1.400485	0.333357	0.426458
H120	H	1.733818	0.666691	0.759792
