data_functionalizedCrystal
_audit_creation_method	'MofGen! by Chris Wilmer'
_symmetry_space_group_name_H-M	'P1'
_symmetry_Int_Tables_number	1
_symmetry_cell_setting	triclinic
loop_
_symmetry_equiv_pos_as_xyz
  x,y,z
_cell_length_a	18.215407
_cell_length_b	12.594516
_cell_length_c	18.215399
_cell_angle_alpha	90.022106
_cell_angle_beta	90.019833
_cell_angle_gamma	90.016501
loop_
_atom_site_label
_atom_site_type_symbol
_atom_site_fract_x
_atom_site_fract_y
_atom_site_fract_z
Zn1	Zn	1.125117	-0.423740	0.416146
Zn2	Zn	1.125045	-0.601738	0.293092
Zn3	Zn	1.002050	-0.423775	0.293093
Zn4	Zn	1.002035	-0.601679	0.416117
O5	O	1.063561	-0.512733	0.354612
O6	O	1.228092	-0.447362	0.399834
O7	O	1.108705	-0.578170	0.190108
O8	O	1.018412	-0.274825	0.309429
O9	O	1.228038	-0.578136	0.309427
O10	O	1.108829	-0.274799	0.399835
O11	O	1.018341	-0.447422	0.190109
O12	O	0.899063	-0.447364	0.309401
O13	O	1.018386	-0.578035	0.519105
O14	O	0.899052	-0.578069	0.399786
O15	O	1.108814	-0.447305	0.519126
O16	O	1.108690	-0.750676	0.309399
O17	O	1.018315	-0.750632	0.399785
C18	C	0.872355	-0.512715	0.354591
C19	C	0.790556	-0.512733	0.354599
C20	C	0.602376	-0.580898	0.401604
C21	C	0.525517	-0.580901	0.401613
C22	C	0.525499	-0.444588	0.307636
C23	C	0.602356	-0.444580	0.307631
C24	C	0.640793	-0.512741	0.354614
C25	C	0.487077	-0.512752	0.354628
C26	C	0.403743	-0.512755	0.354638
C27	C	0.724132	-0.512737	0.354606
C28	C	1.063513	-0.789274	0.354605
C29	C	1.063560	-0.907579	0.354626
C30	C	1.014400	-0.976847	0.403753
C31	C	0.996471	-1.047706	0.336600
C32	C	1.081556	-1.047520	0.421791
C33	C	1.045595	-0.976880	0.287438
C34	C	1.130712	-0.976687	0.372674
C35	C	1.112808	-1.047514	0.305475
C36	C	1.255514	-0.512752	0.354634
C37	C	1.337313	-0.512760	0.354643
C38	C	1.063606	-0.512660	0.546565
C39	C	1.063625	-0.512628	0.628364
C40	C	1.063630	-0.235112	0.354635
C41	C	1.063659	-0.116807	0.354645
C42	C	1.063559	-0.512729	0.163406
C43	C	1.063683	-0.512461	0.081607
C44	C	1.110728	-0.444493	0.816570
C45	C	1.110737	-0.444462	0.893429
C46	C	1.016575	-0.580599	0.893396
C47	C	1.016563	-0.580624	0.816538
C48	C	1.063644	-0.512572	0.778127
C49	C	1.063664	-0.512517	0.931844
C50	C	1.063674	-0.512483	1.015177
C51	C	1.063634	-0.512604	0.694788
H52	H	0.494241	-0.636400	0.439878
O53	O	0.488047	-0.378481	0.262022
C54	C	0.411972	-0.393082	0.272115
H55	H	0.401471	-0.475270	0.296121
H56	H	0.390188	-0.330025	0.311381
C57	C	0.385380	-0.282245	0.168182
C58	C	0.372482	-0.383193	0.197662
H59	H	0.361019	-0.276140	0.122258
H60	H	0.436632	-0.272404	0.161384
H61	H	0.367226	-0.229708	0.200912
H62	H	0.390643	-0.435727	0.164937
H63	H	0.321231	-0.393042	0.204453
H64	H	1.187442	-0.945472	0.387956
H65	H	0.978244	-0.636006	0.924679
H66	H	0.972753	-0.945818	0.445237
O67	O	0.639566	-0.378335	0.261912
C68	C	0.589162	-0.318164	0.220454
H69	H	0.534367	-0.361759	0.217856
H70	H	0.581011	-0.237376	0.247496
C71	C	0.686433	-0.249134	0.145336
C72	C	0.619134	-0.302683	0.142141
H73	H	0.704922	-0.239580	0.097030
H74	H	0.720392	-0.289669	0.173269
H75	H	0.679632	-0.181817	0.167875
H76	H	0.625938	-0.370003	0.119611
H77	H	0.585177	-0.262158	0.114202
O78	O	0.928731	-1.084876	0.318512
C79	C	0.877011	-1.048857	0.370421
H80	H	0.906236	-1.028913	0.424033
H81	H	0.848421	-0.974855	0.348501
C82	C	0.783760	-1.160914	0.318464
C83	C	0.819655	-1.136427	0.384314
H84	H	0.748378	-1.214928	0.327033
H85	H	0.818603	-1.185178	0.283490
H86	H	0.759942	-1.099238	0.300205
H87	H	0.843480	-1.198098	0.402568
H88	H	0.784814	-1.112175	0.419292
H89	H	1.149077	-0.389024	0.924726
H90	H	1.030348	-0.945979	0.230630
H91	H	0.978215	-0.636061	0.785237
H92	H	1.154423	-1.078347	0.263891
O93	O	1.099715	-1.084360	0.489577
C94	C	1.111700	-0.997886	0.537282
H95	H	1.126288	-0.924403	0.503797
H96	H	1.059737	-0.981931	0.570358
C97	C	1.157363	-1.114496	0.631074
C98	C	1.175286	-1.024245	0.589947
H99	H	1.196583	-1.130755	0.663562
H100	H	1.149285	-1.172756	0.598935
H101	H	1.114059	-1.101188	0.658630
H102	H	1.218583	-1.037558	0.562384
H103	H	1.183372	-0.965987	0.622082
O104	O	0.639600	-0.647132	0.447315
C105	C	0.589207	-0.707306	0.488779
H106	H	0.534428	-0.663719	0.491377
H107	H	0.581010	-0.788098	0.461742
C108	C	0.686510	-0.776314	0.563896
C109	C	0.619232	-0.722775	0.567092
H110	H	0.705032	-0.785861	0.612202
H111	H	0.720462	-0.735777	0.535959
H112	H	0.679670	-0.843635	0.541361
H113	H	0.626075	-0.655451	0.589617
H114	H	0.585282	-0.763301	0.595034
O115	O	1.156479	-0.378284	0.779371
C116	C	1.198051	-0.318207	0.829787
H117	H	1.167916	-0.314506	0.884568
H118	H	1.253937	-0.357181	0.837968
C119	C	1.245688	-0.209481	0.732525
C120	C	1.208672	-0.204927	0.799806
H121	H	1.252244	-0.139606	0.714030
H122	H	1.217683	-0.249958	0.698558
H123	H	1.292256	-0.241964	0.739351
H124	H	1.162102	-0.172457	0.792977
H125	H	1.236670	-0.164442	0.833771
