data_functionalizedCrystal
_audit_creation_method	'MofGen! by Chris Wilmer'
_symmetry_space_group_name_H-M	'P1'
_symmetry_Int_Tables_number	1
_symmetry_cell_setting	triclinic
loop_
_symmetry_equiv_pos_as_xyz
  x,y,z
_cell_length_a	17.077404
_cell_length_b	12.827892
_cell_length_c	17.077396
_cell_angle_alpha	90.025067
_cell_angle_beta	90.018362
_cell_angle_gamma	90.013362
loop_
_atom_site_label
_atom_site_type_symbol
_atom_site_fract_x
_atom_site_fract_y
_atom_site_fract_z
Zn1	Zn	1.200095	-0.416090	0.443837
Zn2	Zn	1.200020	-0.590852	0.312579
Zn3	Zn	1.068827	-0.416119	0.312588
Zn4	Zn	1.068812	-0.590783	0.443805
O5	O	1.134439	-0.503461	0.378203
O6	O	1.309932	-0.439289	0.426436
O7	O	1.182591	-0.567715	0.202733
O8	O	1.086278	-0.269879	0.330016
O9	O	1.309877	-0.567686	0.330001
O10	O	1.182720	-0.269858	0.426444
O11	O	1.086205	-0.439339	0.202740
O12	O	0.958978	-0.439273	0.329985
O13	O	1.086253	-0.567568	0.553657
O14	O	0.958968	-0.567597	0.426389
O15	O	1.182706	-0.439222	0.553680
O16	O	1.182577	-0.737079	0.329970
O17	O	1.086179	-0.737028	0.426381
C18	C	0.930491	-0.503431	0.378185
C19	C	0.843241	-0.503444	0.378196
C20	C	0.802281	-0.436706	0.428486
C21	C	0.720300	-0.436713	0.428490
C22	C	0.679282	-0.503463	0.378207
C23	C	0.720248	-0.570204	0.327911
C24	C	0.802227	-0.570191	0.327904
C25	C	0.549378	-0.570228	0.327930
C26	C	0.467393	-0.570242	0.327938
C27	C	0.467451	-0.436750	0.428516
C28	C	0.549430	-0.436737	0.428509
C29	C	0.590391	-0.503479	0.378214
C30	C	1.134390	-0.774971	0.378188
C31	C	1.134440	-0.891124	0.378208
C32	C	1.182142	-0.942815	0.425967
C33	C	1.182195	-1.062865	0.425989
C34	C	1.339183	-0.503492	0.378221
C35	C	1.426433	-0.503505	0.378228
C36	C	1.134486	-0.503384	0.582947
C37	C	1.134506	-0.503351	0.670197
C38	C	1.134509	-0.230891	0.378234
C39	C	1.134540	-0.114738	0.378248
C40	C	1.134437	-0.503462	0.174255
C41	C	1.134568	-0.503201	0.087005
C42	C	1.184731	-0.436516	0.711200
C43	C	1.184741	-0.436481	0.793181
C44	C	1.134529	-0.503288	0.834156
C45	C	1.084298	-0.570126	0.793147
C46	C	1.084285	-0.570155	0.711168
C47	C	1.084330	-0.570063	0.964017
C48	C	1.084344	-0.570036	1.046002
C49	C	1.184785	-0.436389	1.046030
C50	C	1.184772	-0.436418	0.964051
C51	C	1.134543	-0.503258	0.923047
H52	H	0.582825	-0.382389	0.469459
O53	O	1.238892	-0.364464	0.667005
H54	H	1.225450	-0.282439	0.682741
H55	H	1.093638	-0.935747	0.337340
O56	O	1.080442	-1.055864	0.324082
H57	H	1.093942	-1.076789	0.262476
O58	O	1.238916	-0.364401	0.837410
H59	H	1.273838	-0.317962	0.795144
H60	H	0.434097	-0.382404	0.469467
O61	O	1.238932	-0.364370	0.919851
H62	H	1.273858	-0.317881	0.962134
O63	O	1.030150	-0.642146	0.919787
H64	H	0.995240	-0.688603	0.962050
H65	H	1.043412	-0.624518	0.826516
H66	H	1.225683	-0.381964	1.079419
H67	H	1.043379	-0.624569	0.677784
H68	H	0.835672	-0.382353	0.469435
H69	H	0.686954	-0.382371	0.469443
H70	H	1.043455	-0.624434	1.079362
H71	H	0.433998	-0.624597	0.286994
H72	H	0.582725	-0.624574	0.286973
H73	H	0.686844	-0.624548	0.286966
H74	H	1.222939	-0.898195	0.466842
O75	O	0.846412	-0.642173	0.273664
H76	H	0.804118	-0.688598	0.238704
H77	H	1.223037	-1.107318	0.466874
