data_functionalizedCrystal
_audit_creation_method	'MofGen! by Chris Wilmer'
_symmetry_space_group_name_H-M	'P1'
_symmetry_Int_Tables_number	1
_symmetry_cell_setting	triclinic
loop_
_symmetry_equiv_pos_as_xyz
  x,y,z
_cell_length_a	34.408637
_cell_length_b	34.407814
_cell_length_c	34.404193
_cell_angle_alpha	60.004510
_cell_angle_beta	60.009006
_cell_angle_gamma	59.994604
loop_
_atom_site_label
_atom_site_type_symbol
_atom_site_fract_x
_atom_site_fract_y
_atom_site_fract_z
O1	O	0.053973	-0.567860	0.474801
O2	O	0.020377	-0.442124	0.382567
O3	O	0.100004	-0.521670	0.382483
O4	O	-0.025653	-0.488314	0.474886
O5	O	0.126426	-0.495253	0.408816
O6	O	0.046800	-0.415707	0.408900
O7	O	0.080396	-0.541443	0.501134
Zn8	Zn	0.067793	-0.474381	0.459198
Zn9	Zn	0.032980	-0.509186	0.424503
O10	O	0.000769	-0.461897	0.501219
N11	N	0.091552	-0.450631	0.482879
N12	N	0.009225	-0.532940	0.400823
C13	C	0.142848	-0.268847	0.534081
C14	C	0.142979	-0.399386	0.664559
C15	C	0.142862	-0.399365	0.534081
C16	C	0.273409	-0.399338	0.533986
C17	C	0.157225	-0.311914	0.548422
C18	C	0.157300	-0.385019	0.621491
C19	C	0.230339	-0.384991	0.548370
C20	C	0.157235	-0.385007	0.548422
C21	C	0.124548	-0.214028	0.515827
C22	C	0.124571	-0.417639	0.515827
C23	C	0.175526	-0.366733	0.566676
C24	C	0.353121	-0.385580	0.491988
C25	C	0.402952	-0.402180	0.475348
C26	C	0.402981	-0.482812	0.506096
C27	C	0.353151	-0.466211	0.522737
C28	C	0.136544	-0.189099	0.466839
C29	C	0.119905	-0.139265	0.450247
C30	C	0.079280	-0.139291	0.531632
C31	C	0.095918	-0.189125	0.548224
C32	C	0.075577	-0.405615	0.527900
C33	C	0.058953	-0.422228	0.511301
C34	C	0.140315	-0.462889	0.470566
C35	C	0.156941	-0.446276	0.487159
C36	C	0.075772	-0.405653	0.744326
C37	C	0.059206	-0.422280	0.794159
C38	C	0.140607	-0.462951	0.794094
C39	C	0.157172	-0.446325	0.744260
C40	C	0.124753	-0.417674	0.719377
C41	C	0.328223	-0.417595	0.515681
C42	C	-0.172390	-0.583988	0.349141
C43	C	-0.041751	-0.584138	0.218783
C44	C	-0.041941	-0.584130	0.349402
C45	C	-0.041957	-0.714607	0.349338
C46	C	-0.129326	-0.598388	0.334853
C47	C	-0.056165	-0.598473	0.261852
C48	C	-0.056282	-0.671535	0.334962
C49	C	-0.056272	-0.598469	0.334999
C50	C	-0.227205	-0.565659	0.367327
C51	C	-0.023703	-0.565882	0.367734
C52	C	-0.074511	-0.616717	0.316667
C53	C	-0.055754	-0.794298	0.391257
C54	C	-0.039181	-0.844132	0.407888
C55	C	0.041447	-0.844215	0.377269
C56	C	0.024873	-0.794381	0.360637
C57	C	-0.252183	-0.577666	0.416302
C58	C	-0.302014	-0.561001	0.432833
C59	C	-0.301886	-0.520329	0.351410
C60	C	-0.252055	-0.536994	0.334880
C61	C	-0.035709	-0.516892	0.355682
C62	C	-0.019129	-0.500308	0.372353
C63	C	0.021465	-0.581700	0.413115
C64	C	0.004884	-0.598286	0.396450
C65	C	-0.035389	-0.516907	0.139026
C66	C	-0.018707	-0.500324	0.089193
C67	C	0.021949	-0.581721	0.089240
C68	C	0.005268	-0.598303	0.139074
C69	C	-0.023402	-0.565894	0.163965
C70	C	-0.023728	-0.769425	0.367633
N71	N	0.427173	-0.450553	0.482630
O72	O	0.589997	-0.458460	0.365361
O73	O	0.590185	-0.550997	0.490963
O74	O	0.590104	-0.550786	0.411309
O75	O	0.590077	-0.458671	0.445016
O76	O	0.510940	-0.524462	0.437777
O77	O	0.511020	-0.524674	0.517432
O78	O	0.510832	-0.432136	0.391830
Zn79	Zn	0.498357	-0.474225	0.458833
Zn80	Zn	0.602660	-0.508908	0.423960
O81	O	0.510913	-0.432348	0.471484
N82	N	0.673844	-0.532580	0.400158
N83	N	0.091520	-0.115070	0.482873
O84	O	-0.025663	0.047841	0.474857
O85	O	0.099940	0.047877	0.382299
O86	O	0.020247	0.047844	0.382560
O87	O	0.054030	0.047874	0.474596
O88	O	0.046674	-0.031326	0.408942
O89	O	0.126367	-0.031293	0.408680
O90	O	0.000764	-0.031329	0.501238
Zn91	Zn	0.067761	-0.043881	0.459148
Zn92	Zn	0.032943	0.060429	0.424389
O93	O	0.080457	-0.031296	0.500977
N94	N	0.009178	0.131618	0.400665
N95	N	0.091852	-0.450680	0.818332
O96	O	0.083862	-0.567845	0.981235
O97	O	-0.008657	-0.442198	0.981276
O98	O	-0.008441	-0.521875	0.981252
O99	O	0.083646	-0.488168	0.981258
O100	O	0.017919	-0.495468	0.902085
O101	O	0.017703	-0.415791	0.902109
O102	O	0.110222	-0.541438	0.902067
Zn103	Zn	0.068148	-0.474422	0.889518
Zn104	Zn	0.033417	-0.509214	0.993825
O105	O	0.110006	-0.461761	0.902091
N106	N	0.009712	-0.532961	1.065011
C107	C	0.030439	-0.413071	0.383027
C108	C	0.129046	-0.511580	0.382922
C109	C	0.070334	-0.570496	0.500675
C110	C	-0.028274	-0.471987	0.500780
C111	C	0.550625	-0.550579	0.520021
C112	C	0.550527	-0.550317	0.421379
C113	C	0.550389	-0.432554	0.362773
C114	C	0.550491	-0.432816	0.461414
C115	C	0.128944	0.008394	0.382712
C116	C	0.030287	0.008256	0.383068
C117	C	-0.028273	0.008252	0.500793
C118	C	0.070417	0.008292	0.500470
C119	C	-0.008218	-0.413165	0.941698
C120	C	-0.007945	-0.511830	0.941653
C121	C	0.109783	-0.570471	0.941646
C122	C	0.109516	-0.471800	0.941673
H123	H	0.019320	-0.412483	0.814467
C124	C	0.550793	-0.589332	0.568096
C125	C	0.591547	-0.600255	0.576492
C126	C	0.591721	-0.635956	0.620771
H127	H	0.523232	-0.578486	0.592380
H128	H	0.550837	-0.616992	0.568150
H129	H	0.591499	-0.572600	0.576443
H130	H	0.619115	-0.611109	0.552221
H131	H	0.591765	-0.663616	0.620825
H132	H	0.564158	-0.625106	0.645051
H133	H	0.619374	-0.643375	0.626472
C134	C	0.177169	-0.520964	0.344210
C135	C	0.198084	-0.488470	0.331500
C136	C	0.242412	-0.497096	0.295836
H137	H	0.197201	-0.552448	0.355697
H138	H	0.173017	-0.517362	0.317147
H139	H	0.202239	-0.492076	0.358557
H140	H	0.178066	-0.456983	0.320005
H141	H	0.238260	-0.493495	0.268773
H142	H	0.262440	-0.528582	0.307326
H143	H	0.256606	-0.475049	0.287204
C144	C	0.326115	-0.332774	0.484232
C145	C	0.338208	-0.307275	0.435365
C146	C	0.313347	-0.258628	0.428200
H147	H	0.292864	-0.327402	0.497490
H148	H	0.334306	-0.322441	0.499256
H149	H	0.330014	-0.317603	0.420346
H150	H	0.371455	-0.312633	0.422096
H151	H	0.321538	-0.248296	0.443224
H152	H	0.280097	-0.253261	0.441461
H153	H	0.321552	-0.241321	0.395044
H154	H	0.164941	0.008624	0.353583
C155	C	-0.046576	-0.521343	0.941630
C156	C	-0.087349	-0.480727	0.941642
C157	C	-0.122947	-0.489474	0.941628
H158	H	-0.035633	-0.528870	0.914017
H159	H	-0.054015	-0.547298	0.969235
H160	H	-0.079910	-0.454779	0.914040
H161	H	-0.098306	-0.473192	0.969254
H162	H	-0.130387	-0.515430	0.969233
H163	H	-0.112000	-0.497003	0.914014
H164	H	-0.150617	-0.461920	0.941641
H165	H	0.550329	-0.403500	0.326702
C166	C	-0.076419	-0.462573	0.539456
C167	C	-0.097343	-0.495051	0.552149
C168	C	-0.141698	-0.486388	0.587771
H169	H	-0.072317	-0.466160	0.566537
H170	H	-0.096420	-0.431076	0.527923
H171	H	-0.077347	-0.526540	0.563682
H172	H	-0.101458	-0.491470	0.525079
H173	H	-0.161698	-0.454892	0.576238
H174	H	-0.137591	-0.489976	0.614849
H175	H	-0.155902	-0.508421	0.596384
H176	H	0.550485	-0.403881	0.468626
H177	H	0.023050	0.008252	0.354152
H178	H	0.077653	0.008301	0.529384
C179	C	-0.076411	0.008274	0.539467
C180	C	-0.105817	0.008275	0.522428
C181	C	-0.150168	0.008305	0.558038
H182	H	-0.072293	-0.019323	0.566540
H183	H	-0.090672	0.035898	0.548103
H184	H	-0.091559	-0.019347	0.513799
H185	H	-0.109948	0.035869	0.495361
H186	H	-0.164429	0.035929	0.566673
H187	H	-0.146046	-0.019292	0.585108
H188	H	-0.170127	0.008310	0.546480
H189	H	0.138832	-0.606554	0.941627
H190	H	-0.037264	-0.377079	0.941710
C191	C	0.148110	-0.462126	0.941569
C192	C	0.158923	-0.423846	0.900838
C193	C	0.194477	-0.414925	0.900723
H194	H	0.137172	-0.454543	0.969147
H195	H	0.175837	-0.489625	0.941532
H196	H	0.131201	-0.396353	0.900880
H197	H	0.169869	-0.431419	0.873253
H198	H	0.222204	-0.442423	0.900686
H199	H	0.183535	-0.407344	0.928303
H200	H	0.201821	-0.388954	0.873086
C201	C	0.040550	-0.374627	0.717339
C202	C	0.011976	-0.399664	0.729472
C203	C	-0.020472	-0.371103	0.704616
H204	H	0.021064	-0.346447	0.725499
H205	H	0.057411	-0.366456	0.684082
H206	H	-0.004885	-0.407829	0.762720
H207	H	0.031448	-0.427842	0.721310
H208	H	-0.003610	-0.362932	0.671359
H209	H	-0.039954	-0.342925	0.712778
H210	H	-0.039860	-0.388088	0.712841
C211	C	0.175824	-0.494131	0.821088
C212	C	0.204403	-0.535618	0.808955
C213	C	0.236843	-0.564360	0.833818
H214	H	0.195307	-0.477282	0.812933
H215	H	0.158958	-0.502344	0.854343
H216	H	0.221267	-0.527405	0.775707
H217	H	0.184933	-0.552480	0.817111
H218	H	0.219977	-0.572573	0.867073
H219	H	0.256323	-0.547507	0.825661
H220	H	0.256235	-0.592514	0.825593
C221	C	0.210350	-0.459443	0.717150
C222	C	0.222247	-0.484356	0.688549
C223	C	0.271230	-0.496453	0.663575
H224	H	0.218559	-0.431295	0.697670
H225	H	0.227300	-0.478906	0.739094
H226	H	0.205302	-0.464892	0.666608
H227	H	0.214049	-0.512509	0.708017
H228	H	0.288180	-0.515917	0.685519
H229	H	0.279434	-0.468303	0.644098
H230	H	0.279309	-0.513362	0.644170
C231	C	0.040409	-0.374441	0.558937
C232	C	0.011801	-0.332948	0.533932
C233	C	-0.020598	-0.304216	0.562506
H234	H	0.020942	-0.391295	0.587128
H235	H	0.057308	-0.366237	0.567085
H236	H	-0.005097	-0.341153	0.525791
H237	H	0.031255	-0.316082	0.505743
H238	H	-0.003699	-0.296011	0.570654
H239	H	-0.040062	-0.321073	0.590696
H240	H	-0.040010	-0.276057	0.545542
C241	C	0.005763	-0.409110	0.524313
C242	C	-0.006197	-0.384180	0.482730
C243	C	-0.055191	-0.372082	0.494699
H244	H	-0.002446	-0.437258	0.541200
H245	H	-0.011151	-0.389656	0.543747
H246	H	0.010711	-0.403633	0.463304
H247	H	0.002001	-0.356027	0.465837
H248	H	-0.072105	-0.352629	0.514133
H249	H	-0.063396	-0.400232	0.511587
H250	H	-0.063313	-0.355162	0.466487
C251	C	0.175437	-0.494059	0.439515
C252	C	0.168312	-0.538053	0.462043
C253	C	0.200657	-0.566776	0.433453
H254	H	0.170646	-0.478893	0.409652
H255	H	0.207007	-0.498874	0.434709
H256	H	0.136750	-0.533236	0.466842
H257	H	0.173107	-0.553232	0.491903
H258	H	0.232227	-0.571592	0.428647
H259	H	0.195863	-0.551606	0.403591
H260	H	0.195830	-0.596631	0.448736
C261	C	0.210148	-0.459298	0.473953
C262	C	0.230610	-0.442345	0.424380
C263	C	0.279623	-0.454334	0.412195
H264	H	0.215475	-0.445308	0.487893
H265	H	0.224189	-0.492924	0.485369
H266	H	0.216573	-0.408725	0.412969
H267	H	0.225296	-0.456332	0.410428
H268	H	0.293665	-0.487961	0.423610
H269	H	0.284946	-0.440344	0.426138
H270	H	0.293514	-0.442838	0.378558
C271	C	0.326206	-0.501045	0.548429
C272	C	0.358708	-0.547170	0.551031
C273	C	0.333904	-0.579272	0.574690
H274	H	0.306787	-0.499843	0.579671
H275	H	0.306757	-0.492738	0.531463
H276	H	0.378148	-0.555475	0.567998
H277	H	0.378128	-0.548388	0.519796
H278	H	0.314455	-0.570965	0.557724
H279	H	0.314486	-0.578066	0.605930
H280	H	0.355952	-0.610571	0.576454
C281	C	0.550639	-0.588955	0.411760
C282	C	0.591409	-0.628765	0.416966
C283	C	0.591531	-0.664364	0.408103
H284	H	0.523089	-0.597709	0.433727
H285	H	0.550625	-0.577344	0.380241
H286	H	0.591418	-0.640375	0.448479
H287	H	0.618966	-0.620026	0.395000
H288	H	0.591517	-0.652753	0.376584
H289	H	0.563979	-0.673115	0.430071
H290	H	0.619195	-0.691379	0.411629
H291	H	0.023260	-0.376951	0.354059
H292	H	-0.231954	-0.601008	0.442726
C293	C	0.430108	-0.535591	0.513785
C294	C	0.458757	-0.552688	0.540663
C295	C	0.483760	-0.601305	0.547750
H296	H	0.408197	-0.552340	0.530297
H297	H	0.449554	-0.540221	0.483844
H298	H	0.439313	-0.548062	0.570599
H299	H	0.480677	-0.535953	0.524160
H300	H	0.503205	-0.605936	0.517809
H301	H	0.461845	-0.618050	0.564260
H302	H	0.503204	-0.612911	0.565983
H303	H	0.159856	-0.209371	0.440456
C304	C	0.430049	-0.367463	0.449547
C305	C	0.458631	-0.369438	0.403557
C306	C	0.483605	-0.337469	0.379774
H307	H	0.408121	-0.336109	0.447673
H308	H	0.449538	-0.375800	0.466483
H309	H	0.439144	-0.361098	0.386625
H310	H	0.480568	-0.400785	0.405416
H311	H	0.503094	-0.345806	0.396710
H312	H	0.461673	-0.306117	0.377903
H313	H	0.503004	-0.338808	0.348568
H314	H	0.055974	-0.119015	0.558014
C315	C	0.132997	-0.112282	0.397040
C316	C	0.161641	-0.144758	0.372220
C317	C	0.173713	-0.119920	0.323205
H318	H	0.104841	-0.092848	0.388830
H319	H	0.149921	-0.092843	0.388836
H320	H	0.144717	-0.164188	0.380420
H321	H	0.189803	-0.164193	0.380415
H322	H	0.190637	-0.100481	0.315001
H323	H	0.145555	-0.100487	0.315000
H324	H	0.193153	-0.141951	0.306359
H325	H	0.086148	-0.209418	0.588113
H326	H	-0.058738	-0.490513	0.159288
C327	C	-0.031804	-0.447117	0.062205
C328	C	-0.060494	-0.422289	0.094673
C329	C	-0.072571	-0.373273	0.069830
H330	H	-0.003651	-0.438911	0.042808
H331	H	-0.048696	-0.438914	0.042730
H332	H	-0.043602	-0.430488	0.114140
H333	H	-0.088653	-0.430480	0.114071
H334	H	-0.089463	-0.365070	0.050355
H335	H	-0.044417	-0.365073	0.050434
H336	H	-0.092042	-0.356422	0.091856
H337	H	0.045284	-0.608113	0.068976
C338	C	0.018314	-0.651511	0.166065
C339	C	0.046977	-0.676341	0.133598
C340	C	0.058997	-0.725356	0.158443
H341	H	0.035208	-0.659764	0.185553
H342	H	-0.009874	-0.659666	0.185448
H343	H	0.075160	-0.668190	0.114223
H344	H	0.030092	-0.668102	0.114108
H345	H	0.030809	-0.733510	0.177827
H346	H	0.075889	-0.733604	0.177931
H347	H	0.078442	-0.742209	0.136418
C348	C	-0.066830	-0.481685	0.324594
C349	C	-0.108336	-0.453074	0.349580
C350	C	-0.137020	-0.420639	0.320959
H351	H	-0.049952	-0.462221	0.296430
H352	H	-0.075020	-0.498559	0.316400
H353	H	-0.100146	-0.436202	0.357768
H354	H	-0.125227	-0.472525	0.377742
H355	H	-0.145209	-0.437512	0.312766
H356	H	-0.120137	-0.401178	0.292797
H357	H	-0.165186	-0.401225	0.337910
C358	C	-0.032082	-0.447114	0.359170
C359	C	-0.015047	-0.426646	0.309604
C360	C	-0.026959	-0.377648	0.297440
H361	H	-0.065696	-0.433010	0.370524
H362	H	-0.018096	-0.441864	0.373184
H363	H	-0.029034	-0.431892	0.295596
H364	H	0.018566	-0.440736	0.298239
H365	H	-0.012973	-0.372398	0.311454
H366	H	-0.060572	-0.363549	0.308797
H367	H	-0.015398	-0.363755	0.263809
H368	H	-0.322352	-0.570775	0.472713
H369	H	0.044746	-0.608091	0.436494
H370	H	0.077514	-0.606615	0.529644
H371	H	0.014660	-0.638178	0.406265
H372	H	0.050956	-0.774133	0.341399
H373	H	0.081021	-0.864532	0.371574
H374	H	-0.095331	-0.773979	0.396956
C375	C	-0.073996	-0.871082	0.433467
C376	C	-0.097102	-0.858937	0.403094
C377	C	-0.129179	-0.883749	0.426646
H378	H	-0.057219	-0.904342	0.442375
H379	H	-0.096865	-0.862884	0.461137
H380	H	-0.074236	-0.867138	0.375433
H381	H	-0.113888	-0.825680	0.394185
H382	H	-0.152049	-0.875551	0.454316
H383	H	-0.112399	-0.917009	0.435552
H384	H	-0.144864	-0.875509	0.406043
C385	C	-0.328782	-0.489196	0.316107
C386	C	-0.296240	-0.482246	0.269677
C387	C	-0.320997	-0.453563	0.237143
H388	H	-0.348225	-0.504347	0.320793
H389	H	-0.348202	-0.459297	0.320842
H390	H	-0.276828	-0.512140	0.264943
H391	H	-0.276795	-0.467090	0.264975
H392	H	-0.340417	-0.423664	0.241878
H393	H	-0.340440	-0.468717	0.241834
H394	H	-0.298922	-0.448840	0.205636
H395	H	-0.231721	-0.527215	0.295000
