data_functionalizedCrystal
_audit_creation_method	'MofGen! by Chris Wilmer'
_symmetry_space_group_name_H-M	'P1'
_symmetry_Int_Tables_number	1
_symmetry_cell_setting	triclinic
loop_
_symmetry_equiv_pos_as_xyz
  x,y,z
_cell_length_a	14.044220
_cell_length_b	14.044220
_cell_length_c	12.503572
_cell_angle_alpha	93.835250
_cell_angle_beta	93.843168
_cell_angle_gamma	86.811122
loop_
_atom_site_label
_atom_site_type_symbol
_atom_site_fract_x
_atom_site_fract_y
_atom_site_fract_z
O1	O	0.225116	-1.282200	-0.089210
O2	O	0.216809	-1.005530	-0.089237
O3	O	0.082627	-1.139712	-0.089213
O4	O	0.359298	-1.148019	-0.089234
O5	O	0.092737	-1.129622	0.089427
O6	O	0.226918	-0.995440	0.089403
O7	O	0.235226	-1.272110	0.089430
Cu8	Cu	0.231995	-1.132854	0.105728
Cu9	Cu	0.220040	-1.144786	-0.105535
O10	O	0.369407	-1.137929	0.089406
C11	C	0.052060	-1.131031	0.000107
C12	C	-0.054082	-1.120187	0.000107
C13	C	0.218228	-0.964864	0.000080
C14	C	0.207383	-0.858721	0.000070
C15	C	0.233807	-1.312777	0.000111
C16	C	0.244651	-1.418920	0.000114
C17	C	-0.248421	-1.100361	0.000090
C18	C	-0.299551	-1.177275	0.000094
C19	C	-0.407687	-1.166244	0.000084
C20	C	-0.140274	-1.111391	0.000099
C21	C	0.399974	-1.146609	0.000084
C22	C	0.506117	-1.157454	0.000077
N23	N	0.240404	-1.124469	0.254319
C24	C	0.187558	-0.664382	0.000092
C25	C	0.264472	-0.613253	0.000091
C26	C	0.253441	-0.505116	0.000104
C27	C	0.198587	-0.772529	0.000080
N28	N	0.211624	-1.153179	-0.254126
C29	C	0.252782	-1.112134	0.473432
C30	C	0.199249	-1.165511	0.526768
C31	C	0.206136	-1.158648	0.648690
C32	C	0.245896	-1.118996	0.351499
H33	H	-0.285859	-1.026234	0.000080
H34	H	0.148245	-1.216364	0.480864
H35	H	0.338605	-0.650692	0.000081
H36	H	0.303783	-1.061285	0.519330
O37	O	-0.254739	-1.265645	0.000161
C38	C	-0.155181	-1.257134	0.000142
H39	H	-0.136307	-1.182661	0.033948
H40	H	-0.131900	-1.268908	-0.085557
C41	C	-0.126557	-1.424003	0.028698
C42	C	-0.103374	-1.332536	0.070228
H43	H	-0.094599	-1.470517	0.071926
H44	H	-0.193631	-1.429738	0.028707
H45	H	-0.107155	-1.433801	-0.042717
H46	H	-0.122787	-1.322735	0.141636
H47	H	-0.036302	-1.326801	0.070233
O48	O	0.099064	-0.619841	-0.000049
C49	C	0.043961	-0.651772	-0.092588
H50	H	0.073957	-0.724823	-0.123435
H51	H	0.046587	-0.598751	-0.157369
C52	C	-0.097138	-0.569870	-0.026606
C53	C	-0.060301	-0.659596	-0.064487
H54	H	-0.161453	-0.574693	-0.009275
H55	H	-0.060014	-0.548354	0.035738
H56	H	-0.094941	-0.525695	-0.080597
H57	H	-0.062487	-0.703766	-0.010492
H58	H	-0.097428	-0.681119	-0.126821
