data_functionalizedCrystal
_audit_creation_method	'MofGen! by Chris Wilmer'
_symmetry_space_group_name_H-M	'P1'
_symmetry_Int_Tables_number	1
_symmetry_cell_setting	triclinic
loop_
_symmetry_equiv_pos_as_xyz
  x,y,z
_cell_length_a	20.875641
_cell_length_b	20.875650
_cell_length_c	15.698487
_cell_angle_alpha	122.398440
_cell_angle_beta	90.001098
_cell_angle_gamma	60.097266
loop_
_atom_site_label
_atom_site_type_symbol
_atom_site_fract_x
_atom_site_fract_y
_atom_site_fract_z
Zr1	Zr	0.666558	0.652991	0.110868
O2	O	0.565658	0.794170	0.258618
O3	O	0.693936	0.517205	0.061279
O4	O	0.699061	0.650604	0.245184
O5	O	0.560531	0.660773	-0.065468
O6	O	0.808334	0.642587	0.239475
O7	O	0.560533	0.660771	0.074712
O8	O	0.799165	0.403961	-0.089499
O9	O	0.569700	0.899400	0.263505
O10	O	0.791454	0.565076	0.041059
O11	O	0.709904	0.571061	-0.059296
O12	O	0.715939	0.728121	0.157230
O13	O	0.634389	0.734106	0.056875
Zr14	Zr	0.840832	0.640209	-0.121810
Zr15	Zr	0.840835	0.640205	0.101762
Zr16	Zr	0.666555	0.652995	-0.112704
Zr17	Zr	0.673004	0.820821	0.118663
Zr18	Zr	0.834386	0.472379	-0.129605
O19	O	0.813454	0.775995	-0.072221
O20	O	0.813458	0.775989	0.245670
O21	O	0.565655	0.794176	-0.059273
O22	O	0.941732	0.499031	-0.269561
O23	O	0.941735	0.499025	0.048331
O24	O	0.693932	0.517211	-0.256613
O25	O	0.946859	0.632427	0.054526
O26	O	0.808329	0.642596	-0.256127
O27	O	0.699056	0.650613	-0.250417
O28	O	0.946857	0.632430	-0.085655
O29	O	0.708227	0.889236	0.256267
O30	O	0.799163	0.403964	-0.267209
O31	O	0.937690	0.393801	-0.274448
O32	O	0.937692	0.393797	-0.096737
O33	O	0.569698	0.899403	0.085795
O34	O	0.708225	0.889240	0.078557
O35	O	0.791451	0.565080	-0.168172
O36	O	0.873001	0.559095	-0.067818
O37	O	0.797486	0.722140	0.048353
O38	O	0.715936	0.728125	-0.052001
C39	C	0.535701	0.662594	0.005919
C40	C	0.461716	0.668022	0.009785
C41	C	0.745632	0.436671	-0.015221
C42	C	0.742895	0.365423	-0.018530
C43	C	0.466374	0.585466	-0.049033
C44	C	0.396854	0.590572	-0.045398
C45	C	0.322678	0.678234	0.017062
C46	C	0.318022	0.760796	0.075882
C47	C	0.387541	0.755689	0.072241
C48	C	0.110537	0.702634	0.034451
C49	C	0.041016	0.707734	0.038091
C50	C	0.119853	0.537510	-0.083192
C51	C	0.189370	0.532411	-0.086823
C52	C	0.184708	0.614972	-0.028007
N53	N	0.251617	0.683455	0.020782
N54	N	0.255768	0.609750	-0.031734
C55	C	0.753698	0.646595	0.274184
C56	C	0.753699	0.646593	0.369096
C57	C	0.971689	0.630607	-0.016862
C58	C	1.045674	0.625179	-0.020728
C59	C	0.723192	-0.035600	-0.043209
C60	C	0.725722	0.031392	-0.040032
C61	C	0.769552	0.061767	0.013949
C62	C	0.810860	0.025137	0.064746
C63	C	0.808333	-0.041859	0.061562
C64	C	0.781677	0.261797	0.029083
C65	C	0.784198	0.328801	0.032266
C66	C	0.699062	0.335050	-0.072513
C67	C	0.696535	0.268056	-0.075687
C68	C	0.737846	0.231429	-0.024895
N69	N	0.772138	0.130246	0.017200
N70	N	0.735265	0.162946	-0.028154
C71	C	0.761758	0.856530	0.004279
C72	C	0.764495	0.927778	0.007587
C73	C	0.753699	0.646591	0.446175
C74	C	0.753699	0.646596	0.542879
C75	C	0.753693	0.646605	0.714874
C76	C	0.753696	0.646607	0.619961
C77	C	0.963626	0.420677	-0.026611
C78	C	1.034874	0.344001	-0.033786
C79	C	0.745629	0.436676	-0.294876
C80	C	0.742891	0.365430	-0.393097
C81	C	0.963623	0.420683	-0.306266
C82	C	1.034870	0.344008	-0.408354
C83	C	0.543767	0.872518	0.295324
C84	C	0.472520	0.949192	0.397411
C85	C	0.543764	0.872523	0.015669
C86	C	0.472516	0.949199	0.022844
C87	C	0.761761	0.856524	0.283933
C88	C	0.764499	0.927771	0.382155
C89	C	1.025766	0.311115	0.019686
C90	C	1.092706	0.239079	0.012966
C91	C	1.168752	0.199926	-0.047233
C92	C	1.177859	0.232819	-0.100706
C93	C	1.110920	0.304858	-0.093980
C94	C	0.784173	0.328850	-0.496065
C95	C	0.781598	0.261916	-0.588362
C96	C	0.737745	0.231558	-0.577690
C97	C	0.696459	0.268145	-0.474711
C98	C	0.699030	0.335083	-0.382416
C99	C	1.110904	0.304876	-0.403911
C100	C	1.177856	0.232842	-0.499824
C101	C	1.168772	0.199935	-0.600179
C102	C	1.092730	0.239074	-0.604618
C103	C	1.025780	0.311112	-0.508706
C104	C	0.396486	0.988332	0.392969
C105	C	0.329535	1.060388	0.488883
C106	C	0.338620	1.093298	0.589238
C107	C	0.414661	1.054155	0.593677
C108	C	0.481611	0.982105	0.497765
C109	C	0.481624	0.982092	-0.030619
C110	C	0.414685	1.054146	-0.023874
C111	C	0.338639	1.093302	0.036329
C112	C	0.329532	1.060406	0.089798
C113	C	0.396470	0.988358	0.083059
C114	C	0.808358	0.958106	0.371448
C115	C	0.810946	1.025040	0.463727
C116	C	0.769669	1.061641	0.566713
C117	C	0.725808	1.031299	0.577418
C118	C	0.723225	0.964362	0.485139
H119	H	0.526768	0.514082	-0.099899
H120	H	0.692094	0.061202	-0.081402
H121	H	0.846662	1.049737	0.454990
C122	C	0.674998	-0.069027	-0.102615
H123	H	0.650774	-0.037631	-0.132428
H124	H	0.635149	-0.055161	-0.052921
H125	H	0.709354	-0.134921	-0.159176
C126	C	1.082678	0.202900	0.071779
H127	H	1.133432	0.154395	0.059167
H128	H	1.052794	0.178902	0.045095
H129	H	1.055631	0.253087	0.147367
C130	C	0.424713	1.090322	-0.082691
H131	H	0.373960	1.138849	-0.070048
H132	H	0.451747	1.040144	-0.158276
H133	H	0.454609	1.114309	-0.056014
C134	C	0.734924	0.157925	-0.679218
H135	H	0.702892	0.145083	-0.658122
H136	H	0.787155	0.101720	-0.724819
H137	H	0.712972	0.181554	-0.717342
C138	C	1.242377	0.120678	-0.054634
H139	H	1.226053	0.106698	-0.014173
H140	H	1.274675	0.140300	-0.026023
H141	H	1.271814	0.066132	-0.128282
H142	H	0.660846	0.243329	-0.119645
C143	C	0.674966	0.931011	0.496931
H144	H	0.650749	0.962409	0.571485
H145	H	0.709266	0.865114	0.459564
H146	H	0.635095	0.944958	0.467040
C147	C	1.261511	0.189737	-0.166931
H148	H	1.300066	0.142117	-0.163283
H149	H	1.269472	0.237334	-0.138068
H150	H	1.266608	0.163159	-0.240315
H151	H	0.815221	0.232134	-0.672202
C152	C	0.653623	0.375308	-0.269158
H153	H	0.627147	0.347630	-0.276031
H154	H	0.615765	0.441465	-0.227043
H155	H	0.689950	0.361624	-0.234534
C156	C	0.424648	1.090350	0.704068
H157	H	0.479519	1.056727	0.692988
H158	H	0.398867	1.081238	0.741930
H159	H	0.401727	1.155415	0.745385
H160	H	1.118347	0.331624	-0.137531
H161	H	0.543539	0.950217	-0.079649
C162	C	0.772510	1.135277	0.668211
H163	H	0.804538	1.148105	0.647076
H164	H	0.794458	1.111673	0.706354
H165	H	0.720280	1.191496	0.713811
H166	H	0.660755	0.243418	-0.466038
H167	H	0.543519	0.950237	0.501394
C168	C	0.832424	0.362199	0.091631
H169	H	0.856674	0.330782	0.121414
H170	H	0.798095	0.428089	0.148192
H171	H	0.872267	0.348311	0.041895
H172	H	0.841968	-0.071677	0.102923
C173	C	1.242419	0.120696	-0.705676
H174	H	1.226124	0.106703	-0.766085
H175	H	1.271863	0.066161	-0.709744
H176	H	1.274700	0.140352	-0.706287
H177	H	0.106731	0.769861	0.082361
H178	H	0.400653	0.523347	-0.093296
C179	C	0.386441	0.952172	0.141857
H180	H	0.331562	0.985808	0.178663
H181	H	0.412207	0.961273	0.192724
H182	H	0.409353	0.887110	0.090450
C183	C	1.082747	0.202862	-0.715012
H184	H	1.133513	0.154347	-0.771490
H185	H	1.055709	0.253026	-0.719117
H186	H	1.052870	0.178849	-0.722543
C187	C	0.386482	0.952145	0.282590
H188	H	0.437239	0.903623	0.226093
H189	H	0.359449	1.002323	0.278509
H190	H	0.356589	0.928150	0.275067
C191	C	0.832402	0.362243	-0.507824
H192	H	0.856605	0.330874	-0.582372
H193	H	0.872269	0.348318	-0.477929
H194	H	0.798073	0.428146	-0.470445
C195	C	0.942122	0.354177	0.085911
H196	H	0.903553	0.401788	0.082261
H197	H	0.937030	0.380742	0.159287
H198	H	0.934179	0.306561	0.057029
C199	C	0.853770	0.917853	0.258175
H200	H	0.880266	0.945507	0.265029
H201	H	0.817454	0.931523	0.223540
H202	H	0.891626	0.851692	0.216079
C203	C	0.827107	0.221527	0.084967
H204	H	0.853562	0.249223	0.117582
H205	H	0.864984	0.155377	0.032772
H206	H	0.790794	0.235155	0.139046
C207	C	0.680400	1.071575	0.690706
H208	H	0.688217	1.115792	0.744123
H209	H	0.699563	1.021988	0.695222
H210	H	0.625395	1.101815	0.702673
H211	H	0.249764	0.461027	-0.137664
H212	H	1.118316	0.331658	-0.322207
H213	H	1.239767	0.200982	-0.496190
H214	H	0.123640	0.470293	-0.131077
H215	H	0.963872	0.342965	-0.512338
H216	H	0.284098	1.151965	0.667328
C217	C	-0.040580	0.804164	0.106799
H218	H	-0.081314	0.795378	0.100553
H219	H	-0.045392	0.838302	0.081714
H220	H	-0.045378	0.838296	0.180529
H221	H	0.267625	1.092247	0.485247
H222	H	0.257621	0.832172	0.126733
H223	H	0.383744	0.822915	0.120124
C224	C	0.653629	0.375334	-0.128387
H225	H	0.661414	0.419580	-0.118768
H226	H	0.598635	0.405522	-0.097300
H227	H	0.672822	0.325747	-0.203578
H228	H	0.267607	1.092297	0.138814
C229	C	0.859069	0.058549	0.124125
H230	H	0.854652	0.103703	0.118758
H231	H	0.913236	0.006403	0.091996
H232	H	0.839047	0.086174	0.198272
H233	H	0.284140	1.151968	0.041808
