data_functionalizedCrystal
_audit_creation_method	'MofGen! by Chris Wilmer'
_symmetry_space_group_name_H-M	'P1'
_symmetry_Int_Tables_number	1
_symmetry_cell_setting	triclinic
loop_
_symmetry_equiv_pos_as_xyz
  x,y,z
_cell_length_a	14.044220
_cell_length_b	14.044220
_cell_length_c	13.101039
_cell_angle_alpha	86.332523
_cell_angle_beta	86.340132
_cell_angle_gamma	86.811122
loop_
_atom_site_label
_atom_site_type_symbol
_atom_site_fract_x
_atom_site_fract_y
_atom_site_fract_z
O1	O	1.281968	-0.225348	-0.085109
O2	O	1.005298	-0.217041	-0.085135
O3	O	1.139480	-0.082860	-0.085112
O4	O	1.147787	-0.359530	-0.085132
O5	O	1.129854	-0.092504	0.085316
O6	O	0.995673	-0.226686	0.085293
O7	O	1.272343	-0.234993	0.085319
Zn8	Zn	1.132479	-0.232371	0.112365
Zn9	Zn	1.145162	-0.219663	-0.112181
O10	O	1.138161	-0.369175	0.085296
C11	C	0.964864	-0.218228	0.000076
C12	C	0.858722	-0.207383	0.000066
C13	C	0.664383	-0.187558	0.000088
C14	C	0.613253	-0.264472	0.000087
C15	C	0.505116	-0.253441	0.000099
C16	C	0.772529	-0.198587	0.000076
C17	C	1.131031	-0.052060	0.000102
C18	C	1.120187	0.054083	0.000102
C19	C	1.312777	-0.233806	0.000106
C20	C	1.418920	-0.244651	0.000109
C21	C	1.146610	-0.399974	0.000080
C22	C	1.157455	-0.506116	0.000073
N23	N	1.123831	-0.241043	0.265612
C24	C	1.100362	0.248421	0.000086
C25	C	1.177276	0.299551	0.000090
C26	C	1.166245	0.407688	0.000080
C27	C	1.111391	0.140275	0.000095
N28	N	1.153817	-0.210984	-0.265428
C29	C	1.112065	-0.252851	0.474653
C30	C	1.165580	-0.199179	0.525538
C31	C	1.159034	-0.205749	0.641855
C32	C	1.118610	-0.246282	0.358325
H33	H	0.650693	-0.338605	0.000077
H34	H	0.626945	-0.113431	0.000099
C35	C	1.276163	0.249702	-0.000097
C36	C	1.330577	0.281239	-0.087782
C37	C	1.421667	0.235326	-0.087990
H38	H	1.306620	0.264261	0.059272
H39	H	1.270583	0.182597	-0.000145
H40	H	1.336160	0.348328	-0.087725
H41	H	1.300149	0.266679	-0.147165
H42	H	1.416087	0.168221	-0.088038
H43	H	1.452115	0.249888	-0.028618
H44	H	1.458595	0.256711	-0.147488
H45	H	1.026235	0.285859	0.000076
C46	C	1.233290	-0.131384	0.467158
C47	C	1.327063	-0.156016	0.493035
C48	C	1.389418	-0.093576	0.439225
H49	H	1.228784	-0.135940	0.395615
H50	H	1.216490	-0.067758	0.484664
H51	H	1.343858	-0.219627	0.475522
H52	H	1.331600	-0.151455	0.564568
H53	H	1.372618	-0.029950	0.456731
H54	H	1.384904	-0.098137	0.367685
H55	H	1.453049	-0.110275	0.456782
C56	C	1.044520	-0.320681	0.533223
C57	C	1.051405	-0.313819	0.638619
C58	C	0.989212	-0.376301	0.692618
H59	H	0.980829	-0.304100	0.515834
H60	H	1.061367	-0.384310	0.515757
H61	H	1.034553	-0.250205	0.656077
H62	H	1.115082	-0.330409	0.656038
H63	H	1.006058	-0.439930	0.675152
H64	H	0.925525	-0.359715	0.675221
H65	H	0.993881	-0.371660	0.764134
