data_functionalizedCrystal
_audit_creation_method	'MofGen! by Chris Wilmer'
_symmetry_space_group_name_H-M	'P1'
_symmetry_Int_Tables_number	1
_symmetry_cell_setting	triclinic
loop_
_symmetry_equiv_pos_as_xyz
  x,y,z
_cell_length_a	16.625547
_cell_length_b	18.101397
_cell_length_c	16.625539
_cell_angle_alpha	89.968146
_cell_angle_beta	89.975178
_cell_angle_gamma	90.020402
loop_
_atom_site_label
_atom_site_type_symbol
_atom_site_fract_x
_atom_site_fract_y
_atom_site_fract_z
Zn1	Zn	1.232692	-0.294829	-0.455981
Zn2	Zn	1.482692	-0.044829	-0.205981
Zn3	Zn	1.732692	0.205171	0.044019
Zn4	Zn	1.982692	0.455171	0.294019
Zn5	Zn	1.232600	-0.418678	-0.321140
Zn6	Zn	1.482600	-0.168678	-0.071140
Zn7	Zn	1.732600	0.081322	0.178860
Zn8	Zn	1.982600	0.331322	0.428860
Zn9	Zn	1.097854	-0.294855	-0.321151
Zn10	Zn	1.347854	-0.044855	-0.071151
Zn11	Zn	1.597854	0.205145	0.178849
Zn12	Zn	1.847854	0.455145	0.428849
Zn13	Zn	1.097829	-0.418634	-0.455920
Zn14	Zn	1.347829	-0.168634	-0.205920
Zn15	Zn	1.597829	0.081366	0.044080
Zn16	Zn	1.847829	0.331366	0.294080
O17	O	1.165243	-0.356749	-0.388548
O18	O	1.415243	-0.106749	-0.138548
O19	O	1.665243	0.143251	0.111452
O20	O	1.915243	0.393251	0.361452
O21	O	1.345512	-0.311266	-0.438115
O22	O	1.595512	-0.061266	-0.188115
O23	O	1.845512	0.188734	0.061885
O24	O	2.095512	0.438734	0.311885
O25	O	1.214697	-0.402283	-0.208309
O26	O	1.464697	-0.152283	0.041691
O27	O	1.714697	0.097717	0.291691
O28	O	1.964697	0.347717	0.541691
O29	O	1.115789	-0.191219	-0.339067
O30	O	1.365789	0.058781	-0.089067
O31	O	1.615789	0.308781	0.160933
O32	O	1.865789	0.558781	0.410933
O33	O	1.345444	-0.402258	-0.339048
O34	O	1.595444	-0.152258	-0.089048
O35	O	1.845444	0.097742	0.160952
O36	O	2.095444	0.347742	0.410952
O37	O	1.214854	-0.191200	-0.438126
O38	O	1.464854	0.058800	-0.188126
O39	O	1.714854	0.308800	0.061874
O40	O	1.964854	0.558800	0.311874
O41	O	1.115700	-0.311310	-0.208317
O42	O	1.365700	-0.061310	0.041683
O43	O	1.615700	0.188690	0.291683
O44	O	1.865700	0.438690	0.541683
O45	O	0.985018	-0.311267	-0.339008
O46	O	1.235018	-0.061267	-0.089008
O47	O	1.485018	0.188733	0.160992
O48	O	1.735018	0.438733	0.410992
O49	O	1.115747	-0.402181	-0.568760
O50	O	1.365747	-0.152181	-0.318760
O51	O	1.615747	0.097819	-0.068760
O52	O	1.865747	0.347819	0.181240
O53	O	0.985000	-0.402206	-0.438022
O54	O	1.235000	-0.152206	-0.188022
O55	O	1.485000	0.097794	0.061978
O56	O	1.735000	0.347794	0.311978
O57	O	1.214830	-0.311223	-0.568805
O58	O	1.464830	-0.061223	-0.318805
O59	O	1.714830	0.188777	-0.068805
O60	O	1.964830	0.438777	0.181195
O61	O	1.214673	-0.522305	-0.338988
O62	O	1.464673	-0.272305	-0.088988
O63	O	1.714673	-0.022305	0.161012
O64	O	1.964673	0.227695	0.411012
O65	O	1.115657	-0.522272	-0.438010
O66	O	1.365657	-0.272272	-0.188010
O67	O	1.615657	-0.022272	0.061990
O68	O	1.865657	0.227728	0.311990
C69	C	0.955753	-0.356735	-0.388510
C70	C	1.205753	-0.106735	-0.138510
C71	C	1.455753	0.143265	0.111490
C72	C	1.705753	0.393265	0.361490
C73	C	0.866131	-0.356746	-0.388513
C74	C	1.116131	-0.106746	-0.138513
C75	C	1.366131	0.143254	0.111487
C76	C	1.616131	0.393254	0.361487
C77	C	0.793349	-0.356748	-0.388523
C78	C	1.043349	-0.106748	-0.138523
C79	C	1.293349	0.143252	0.111477
C80	C	1.543349	0.393252	0.361477
C81	C	0.702041	-0.356752	-0.388543
C82	C	0.952041	-0.106752	-0.138543
C83	C	1.202041	0.143248	0.111457
C84	C	1.452041	0.393248	0.361457
C85	C	0.629264	-0.356759	-0.388563
C86	C	0.879264	-0.106759	-0.138563
C87	C	1.129264	0.143241	0.111437
C88	C	1.379264	0.393241	0.361437
C89	C	0.537950	-0.356764	-0.388583
C90	C	0.787950	-0.106764	-0.138583
C91	C	1.037950	0.143236	0.111417
C92	C	1.287950	0.393236	0.361417
C93	C	1.165174	-0.549160	-0.388509
C94	C	1.415174	-0.299160	-0.138509
C95	C	1.665174	-0.049160	0.111491
C96	C	1.915174	0.200840	0.361491
C97	C	1.165219	-0.631474	-0.388519
C98	C	1.415219	-0.381474	-0.138519
C99	C	1.665219	-0.131474	0.111481
C100	C	1.915219	0.118526	0.361481
C101	C	1.165322	-0.930565	-0.388593
C102	C	1.415322	-0.680565	-0.138593
C103	C	1.665322	-0.430565	0.111407
C104	C	1.915322	-0.180565	0.361407
C105	C	1.227446	-0.899230	-0.326124
C106	C	1.477446	-0.649230	-0.076124
C107	C	1.727446	-0.399230	0.173876
C108	C	1.977446	-0.149230	0.423876
C109	C	1.227661	-0.813611	-0.326286
C110	C	1.477661	-0.563611	-0.076286
C111	C	1.727661	-0.313611	0.173714
C112	C	1.977661	-0.063611	0.423714
C113	C	1.165271	-0.782182	-0.388556
C114	C	1.415271	-0.532182	-0.138556
C115	C	1.665271	-0.282182	0.111444
C116	C	1.915271	-0.032182	0.361444
C117	C	1.188307	-0.813188	-0.473547
C118	C	1.438307	-0.563188	-0.223547
C119	C	1.688307	-0.313188	0.026453
C120	C	1.938307	-0.063188	0.276453
C121	C	1.188788	-0.898833	-0.473207
C122	C	1.438788	-0.648833	-0.223207
C123	C	1.688788	-0.398833	0.026793
C124	C	1.938788	-0.148833	0.276793
C125	C	1.079995	-0.899074	-0.366805
C126	C	1.329995	-0.649074	-0.116805
C127	C	1.579995	-0.399074	0.133195
C128	C	1.829995	-0.149074	0.383195
C129	C	1.080417	-0.813425	-0.364908
C130	C	1.330417	-0.563425	-0.114908
C131	C	1.580417	-0.313425	0.135092
C132	C	1.830417	-0.063425	0.385092
C133	C	1.165240	-0.698323	-0.388540
C134	C	1.415240	-0.448323	-0.138540
C135	C	1.665240	-0.198323	0.111460
C136	C	1.915240	0.051677	0.361460
C137	C	1.165354	-1.014424	-0.388614
C138	C	1.415354	-0.764424	-0.138614
C139	C	1.665354	-0.514424	0.111386
C140	C	1.915354	-0.264424	0.361386
C141	C	1.375552	-0.356764	-0.388587
C142	C	1.625552	-0.106764	-0.138587
C143	C	1.875552	0.143236	0.111413
C144	C	2.125552	0.393236	0.361413
C145	C	1.465173	-0.356771	-0.388603
C146	C	1.715173	-0.106771	-0.138603
C147	C	1.965173	0.143229	0.111397
C148	C	2.215173	0.393229	0.361397
C149	C	1.165296	-0.356694	-0.598857
C150	C	1.415296	-0.106694	-0.348857
C151	C	1.665296	0.143306	-0.098857
C152	C	1.915296	0.393306	0.151143
C153	C	1.165318	-0.356670	-0.688478
C154	C	1.415318	-0.106670	-0.438478
C155	C	1.665318	0.143330	-0.188478
C156	C	1.915318	0.393330	0.061522
C157	C	1.165335	-0.163587	-0.388605
C158	C	1.415335	0.086413	-0.138605
C159	C	1.665335	0.336413	0.111395
C160	C	1.915335	0.586413	0.361395
C161	C	1.165373	-0.081273	-0.388629
C162	C	1.415373	0.168727	-0.138629
C163	C	1.665373	0.418727	0.111371
C164	C	1.915373	0.668727	0.361371
C165	C	1.165355	-0.356588	-1.016654
C166	C	1.415355	-0.106588	-0.766654
C167	C	1.665355	0.143412	-0.516654
C168	C	1.915355	0.393412	-0.266654
C169	C	1.165343	-0.356613	-0.925346
C170	C	1.415343	-0.106613	-0.675346
C171	C	1.665343	0.143387	-0.425346
C172	C	1.915343	0.393387	-0.175346
C173	C	1.165337	-0.356630	-0.852569
C174	C	1.415337	-0.106630	-0.602569
C175	C	1.665337	0.143370	-0.352569
C176	C	1.915337	0.393370	-0.102569
C177	C	1.165324	-0.356654	-0.761255
C178	C	1.415324	-0.106654	-0.511255
C179	C	1.665324	0.143346	-0.261255
C180	C	1.915324	0.393346	-0.011255
C181	C	1.165238	-0.356751	-0.179057
C182	C	1.415238	-0.106751	0.070943
C183	C	1.665238	0.143249	0.320943
C184	C	1.915238	0.393249	0.570943
C185	C	1.165371	-0.356566	-0.089437
C186	C	1.415371	-0.106566	0.160563
C187	C	1.665371	0.143434	0.410563
C188	C	1.915371	0.393434	0.660563
H189	H	1.213249	-0.792651	-0.263266
H190	H	1.463249	-0.542651	-0.013266
H191	H	1.713249	-0.292651	0.236734
H192	H	1.963249	-0.042651	0.486734
H193	H	1.251157	-0.918751	-0.491662
H194	H	1.501157	-0.668751	-0.241662
H195	H	1.751157	-0.418751	0.008338
H196	H	2.001157	-0.168751	0.258338
Br197	Br	1.115190	-0.779267	-0.553214
Br198	Br	1.365190	-0.529267	-0.303214
Br199	Br	1.615190	-0.279267	-0.053214
Br200	Br	1.865190	-0.029267	0.196786
Br201	Br	1.051458	-0.779658	-0.260661
Br202	Br	1.301458	-0.529658	-0.010661
Br203	Br	1.551458	-0.279658	0.239339
Br204	Br	1.801458	-0.029658	0.489339
H205	H	1.145521	-0.919558	-0.521356
H206	H	1.395521	-0.669558	-0.271356
H207	H	1.645521	-0.419558	-0.021356
H208	H	1.895521	-0.169558	0.228644
Br209	Br	1.332219	-0.935007	-0.349871
Br210	Br	1.582219	-0.685007	-0.099871
Br211	Br	1.832219	-0.435007	0.150129
Br212	Br	2.082219	-0.185007	0.400129
Br213	Br	1.333006	-0.779363	-0.350317
Br214	Br	1.583006	-0.529363	-0.100317
Br215	Br	1.833006	-0.279363	0.149683
Br216	Br	2.083006	-0.029363	0.399683
Br217	Br	1.045064	-0.935179	-0.265300
Br218	Br	1.295064	-0.685179	-0.015300
Br219	Br	1.545064	-0.435179	0.234700
Br220	Br	1.795064	-0.185179	0.484700
H221	H	1.249978	-0.791680	-0.492314
H222	H	1.499978	-0.541680	-0.242314
H223	H	1.749978	-0.291680	0.007686
H224	H	1.999978	-0.041680	0.257686
H225	H	1.031640	-0.792038	-0.407075
H226	H	1.281640	-0.542038	-0.157075
H227	H	1.531640	-0.292038	0.092925
H228	H	1.781640	-0.042038	0.342925
H229	H	1.033708	-0.919339	-0.412304
H230	H	1.283708	-0.669339	-0.162304
H231	H	1.533708	-0.419339	0.087696
H232	H	1.783708	-0.169339	0.337696
H233	H	1.213208	-0.919874	-0.262915
H234	H	1.463208	-0.669874	-0.012915
H235	H	1.713208	-0.419874	0.237085
H236	H	1.963208	-0.169874	0.487085
