data_functionalizedCrystal
_audit_creation_method	'MofGen! by Chris Wilmer'
_symmetry_space_group_name_H-M	'P1'
_symmetry_Int_Tables_number	1
_symmetry_cell_setting	triclinic
loop_
_symmetry_equiv_pos_as_xyz
  x,y,z
_cell_length_a	17.699083
_cell_length_b	16.992695
_cell_length_c	16.176319
_cell_angle_alpha	89.993125
_cell_angle_beta	89.998611
_cell_angle_gamma	86.975619
loop_
_atom_site_label
_atom_site_type_symbol
_atom_site_fract_x
_atom_site_fract_y
_atom_site_fract_z
O1	O	1.010252	0.099146	-0.068631
O2	O	0.790676	0.112045	-0.068658
O3	O	0.899584	-0.008546	-0.068638
O4	O	0.901344	0.219736	-0.068651
O5	O	0.899567	-0.008553	0.068855
O6	O	0.790660	0.112037	0.068835
O7	O	1.010235	0.099138	0.068862
Cu8	Cu	0.900446	0.105587	0.081403
Cu9	Cu	0.900465	0.105596	-0.081199
O10	O	0.901328	0.219729	0.068842
C11	C	0.762442	0.111579	0.000085
C12	C	0.678338	0.110192	0.000075
C13	C	0.634124	0.180976	0.000071
C14	C	0.555099	0.179669	0.000082
C15	C	0.520290	0.107576	0.000091
C16	C	0.564510	0.036787	0.000097
C17	C	0.643533	0.038095	0.000092
C18	C	0.245818	0.031509	0.000118
C19	C	0.166789	0.030206	0.000120
C20	C	0.157384	0.173082	0.000108
C21	C	0.236408	0.174391	0.000103
C22	C	0.280621	0.103602	0.000113
C23	C	0.366308	0.105020	0.000103
C24	C	0.434604	0.106157	0.000095
C25	C	0.897311	-0.037758	0.000108
C26	C	0.890554	-0.124789	0.000107
C27	C	0.955751	-0.175154	0.000116
C28	C	0.949398	-0.256928	0.000107
C29	C	0.877846	-0.288336	0.000096
C30	C	0.812643	-0.237965	0.000084
C31	C	0.818998	-0.156192	0.000087
C32	C	0.851510	-0.531884	0.000081
C33	C	0.845160	-0.613663	0.000081
C34	C	0.981915	-0.632621	0.000102
C35	C	0.988263	-0.550845	0.000110
C36	C	0.923061	-0.500481	0.000094
N37	N	0.871350	-0.371923	0.000090
N38	N	0.929558	-0.416897	0.000095
C39	C	1.038469	0.099604	0.000117
C40	C	1.122574	0.100991	0.000122
C41	C	0.903601	0.248941	0.000094
C42	C	0.910358	0.335972	0.000090
N43	N	0.900438	0.105580	0.195768
N44	N	0.900479	0.105597	-0.195564
C45	C	0.948679	0.052204	0.239041
C46	C	0.948683	0.052203	0.325588
C47	C	0.900449	0.105583	0.368861
C48	C	0.852202	0.158961	0.325582
C49	C	0.852195	0.158957	0.239036
C50	C	0.852229	0.158976	0.674610
C51	C	0.852242	0.158977	0.761161
C52	C	0.948717	0.052222	0.761162
C53	C	0.948709	0.052218	0.674617
C54	C	0.900461	0.105593	0.631345
C55	C	0.900456	0.105593	0.537501
C56	C	0.900457	0.105588	0.462703
H57	H	0.536162	-0.021912	0.000116
O58	O	0.132887	-0.039780	0.000243
C59	C	0.087471	-0.044814	0.071464
H60	H	0.071553	0.017018	0.095194
H61	H	0.033891	-0.075965	0.055453
H62	H	0.120244	-0.079566	0.121332
O63	O	1.045227	-0.681577	-0.000037
C64	C	1.045641	-0.729448	-0.071237
H65	H	1.008758	-0.699419	-0.121010
H66	H	1.106046	-0.738756	-0.095134
H67	H	1.022456	-0.788878	-0.055142
H68	H	0.812961	0.202446	0.796393
H69	H	0.662460	0.239682	0.000064
O70	O	0.114515	0.241901	0.000215
C71	C	0.130955	0.285673	0.071427
H72	H	0.189669	0.266306	0.095165
H73	H	0.129357	0.351072	0.055402
H74	H	0.087133	0.275037	0.121295
H75	H	0.812945	0.202437	0.639385
O76	O	0.270130	0.244472	-0.000017
C77	C	0.247967	0.287607	-0.071238
H78	H	0.191930	0.266341	-0.094974
H79	H	0.240956	0.352916	-0.055228
H80	H	0.293093	0.278446	-0.121104
H81	H	0.754384	-0.263544	0.000070
O82	O	0.288647	-0.037325	0.000088
C83	C	0.240975	-0.101233	0.000115
H84	H	0.183267	-0.081217	-0.025918
H85	H	0.267095	-0.150821	-0.039798
H86	H	0.234014	-0.123338	0.066080
H87	H	0.786891	-0.639232	0.000085
O88	O	0.788097	-0.483080	0.000114
C89	C	0.723585	-0.528340	0.000089
H90	H	0.739104	-0.589413	0.026117
H91	H	0.677595	-0.498092	0.040006
H92	H	0.701889	-0.534113	-0.065875
H93	H	0.765906	-0.115186	0.000080
H94	H	0.812925	0.202421	0.360819
H95	H	1.002489	-0.297933	0.000117
H96	H	0.679531	-0.019545	0.000095
O97	O	0.805312	0.210885	0.197126
C98	C	0.762728	0.257988	0.253875
H99	H	0.793813	0.258837	0.315564
H100	H	0.754963	0.320614	0.228858
H101	H	0.704974	0.232602	0.263093
H102	H	0.519103	0.237308	0.000078
O103	O	1.025274	-0.144684	-0.000021
C104	C	1.065331	-0.170442	-0.071216
H105	H	1.023581	-0.187367	-0.120991
H106	H	1.100528	-0.120963	-0.095115
H107	H	1.104275	-0.223821	-0.055115
O108	O	1.057788	-0.520380	-0.000025
C109	C	1.097852	-0.546136	-0.071216
H110	H	1.056107	-0.563057	-0.120998
H111	H	1.133054	-0.496658	-0.095108
H112	H	1.136793	-0.599518	-0.055112
O113	O	0.995558	0.000275	0.197138
C114	C	1.038150	-0.046823	0.253895
H115	H	1.007074	-0.047664	0.315592
H116	H	1.045909	-0.109452	0.228901
H117	H	1.095906	-0.021438	0.263089
H118	H	0.987964	0.008741	0.360821
O119	O	0.995587	0.000289	0.632711
C120	C	1.038181	-0.046811	0.689464
H121	H	1.007108	-0.047654	0.751162
H122	H	1.045938	-0.109439	0.664468
H123	H	1.095938	-0.021428	0.698655
H124	H	0.988001	0.008758	0.796403
