data_functionalizedCrystal
_audit_creation_method	'MofGen! by Chris Wilmer'
_symmetry_space_group_name_H-M	'P1'
_symmetry_Int_Tables_number	1
_symmetry_cell_setting	triclinic
loop_
_symmetry_equiv_pos_as_xyz
  x,y,z
_cell_length_a	19.077105
_cell_length_b	19.805404
_cell_length_c	19.805399
_cell_angle_alpha	89.970203
_cell_angle_beta	92.315688
_cell_angle_gamma	92.274441
loop_
_atom_site_label
_atom_site_type_symbol
_atom_site_fract_x
_atom_site_fract_y
_atom_site_fract_z
Zn1	Zn	1.075950	0.311117	0.424210
Zn2	Zn	1.075855	0.424302	0.311013
Zn3	Zn	0.958255	0.306581	0.306495
Zn4	Zn	0.958211	0.419713	0.419622
O5	O	1.017068	0.365429	0.365335
O6	O	1.174428	0.329950	0.413005
O7	O	1.060234	0.408708	0.215696
O8	O	0.973925	0.212469	0.322138
O9	O	1.174358	0.413107	0.329840
O10	O	1.060395	0.215801	0.408623
O11	O	0.973834	0.322219	0.212377
O12	O	0.859758	0.317770	0.317690
O13	O	0.973850	0.405286	0.514948
O14	O	0.859726	0.400887	0.400805
O15	O	1.060353	0.325501	0.518319
O16	O	1.060192	0.518408	0.325392
O17	O	0.973759	0.515036	0.405187
C18	C	0.834205	0.358339	0.358260
C19	C	0.755975	0.355322	0.355249
C20	C	1.016979	0.541281	0.365297
C21	C	1.017006	0.616514	0.365306
C22	C	1.017107	0.365387	0.541879
C23	C	1.017124	0.365370	0.617112
C24	C	0.719224	0.397245	0.397040
C25	C	0.645719	0.394402	0.394214
C26	C	0.608967	0.349638	0.349594
C27	C	0.645723	0.307711	0.307802
C28	C	0.719226	0.310551	0.310631
C29	C	0.389134	0.336492	0.336502
C30	C	0.315625	0.333657	0.333674
C31	C	0.315627	0.420347	0.420088
C32	C	0.389132	0.423186	0.422911
C33	C	0.425882	0.381256	0.381121
N34	N	0.533833	0.346732	0.346703
N35	N	0.501014	0.384159	0.384016
C36	C	1.200645	0.372546	0.372438
C37	C	1.278874	0.375580	0.375465
C38	C	1.017176	0.188890	0.365388
C39	C	1.017222	0.113660	0.365411
C40	C	1.062188	1.079988	0.410466
C41	C	1.062161	1.009298	0.410450
C42	C	1.017162	0.972282	0.365381
C43	C	0.972194	1.005959	0.320320
C44	C	0.972226	1.076647	0.320334
C45	C	0.972065	0.720881	0.320263
C46	C	0.972035	0.650187	0.320254
C47	C	1.062000	0.653531	0.410378
C48	C	1.062032	0.724220	0.410392
C49	C	1.017066	0.757891	0.365330
C50	C	1.017098	0.834540	0.365348
C51	C	1.017127	0.895633	0.365366
C52	C	1.017069	0.365422	0.189479
C53	C	1.017189	0.365254	0.114252
C54	C	1.062167	0.323824	0.654212
C55	C	1.062174	0.323804	0.724901
C56	C	1.017142	0.365335	0.758488
C57	C	0.972094	0.406883	0.721383
C58	C	0.972084	0.406898	0.650695
C59	C	0.972133	0.406822	1.006458
C60	C	0.972149	0.406805	1.077151
C61	C	1.062224	0.323728	1.080663
C62	C	1.062214	0.323743	1.009976
C63	C	1.017164	0.365288	0.972877
C64	C	1.017156	0.365307	0.896228
C65	C	1.017153	0.365320	0.835136
H66	H	0.749143	0.433699	0.433373
H67	H	1.098854	0.289975	0.755105
H68	H	1.098616	0.626109	0.447069
Cl69	Cl	0.915531	0.459018	1.119374
H70	H	0.419047	0.302355	0.302468
Cl71	Cl	0.915499	0.459050	0.959828
Cl72	Cl	1.118857	0.271496	1.127307
Cl73	Cl	1.118831	0.271533	0.967756
H74	H	0.935558	0.975816	0.283621
Cl75	Cl	0.915532	0.763201	0.263617
Cl76	Cl	0.915478	0.459091	0.763607
Cl77	Cl	0.599519	0.251432	0.251712
Cl78	Cl	0.765428	0.257844	0.258093
H79	H	1.098824	1.110121	0.447174
H80	H	0.615800	0.428541	0.428244
Cl81	Cl	0.915697	1.118978	0.263688
Cl82	Cl	0.915454	0.459128	0.604055
H83	H	1.098776	0.981883	0.447137
H84	H	0.419051	0.459639	0.459244
H85	H	0.285703	0.297197	0.297343
Cl86	Cl	1.118598	0.770751	0.467057
Cl87	Cl	1.118786	0.271614	0.611995
H88	H	0.935391	0.620050	0.283550
Cl89	Cl	0.269424	0.473056	0.472620
