data_functionalizedCrystal
_audit_creation_method	'MofGen! by Chris Wilmer'
_symmetry_space_group_name_H-M	'P1'
_symmetry_Int_Tables_number	1
_symmetry_cell_setting	triclinic
loop_
_symmetry_equiv_pos_as_xyz
  x,y,z
_cell_length_a	12.645330
_cell_length_b	12.645331
_cell_length_c	16.120297
_cell_angle_alpha	92.886762
_cell_angle_beta	87.123238
_cell_angle_gamma	89.984155
loop_
_atom_site_label
_atom_site_type_symbol
_atom_site_fract_x
_atom_site_fract_y
_atom_site_fract_z
Zn1	Zn	-0.452501	-1.590322	0.471228
Zn2	Zn	0.047499	-1.090322	0.971228
Zn3	Zn	-0.620790	-1.599199	0.331827
Zn4	Zn	-0.120790	-1.099199	0.831827
Zn5	Zn	-0.443537	-1.422031	0.331851
Zn6	Zn	0.056463	-0.922031	0.831851
Zn7	Zn	-0.629716	-1.413019	0.471214
Zn8	Zn	-0.129716	-0.913019	0.971214
O9	O	-0.536636	-1.506143	0.401530
O10	O	-0.036636	-1.006143	0.901530
O11	O	-0.474841	-1.739847	0.452732
O12	O	0.025159	-1.239847	0.952732
O13	O	-0.589791	-1.583184	0.215166
O14	O	-0.089791	-1.083184	0.715166
O15	O	-0.296380	-1.444411	0.350356
O16	O	0.203620	-0.944411	0.850356
O17	O	-0.598482	-1.746369	0.350314
O18	O	-0.098482	-1.246369	0.850314
O19	O	-0.302966	-1.568054	0.452756
O20	O	0.197034	-1.068054	0.952756
O21	O	-0.459564	-1.453019	0.215184
O22	O	0.040436	-0.953019	0.715184
O23	O	-0.468219	-1.272488	0.350342
O24	O	0.031781	-0.772488	0.850342
O25	O	-0.613695	-1.429052	0.587880
O26	O	-0.113695	-0.929052	1.087880
O27	O	-0.605003	-1.265867	0.452732
O28	O	-0.105003	-0.765867	0.952732
O29	O	-0.483495	-1.559316	0.587891
O30	O	0.016505	-1.059316	1.087891
O31	O	-0.770321	-1.574446	0.350301
O32	O	-0.270321	-1.074446	0.850301
O33	O	-0.776878	-1.437660	0.452708
O34	O	-0.276878	-0.937660	0.952708
C35	C	-0.536608	-1.230713	0.401539
C36	C	-0.036608	-0.730713	0.901539
C37	C	-0.536622	-1.112881	0.401562
C38	C	-0.036622	-0.612881	0.901562
C39	C	-0.623098	-0.941209	0.465643
C40	C	-0.123098	-0.441209	0.965643
C41	C	-0.622851	-1.063752	0.465908
C42	C	-0.122851	-0.563752	0.965908
C43	C	-0.426516	-1.066854	0.425566
C44	C	0.073484	-0.566854	0.925566
C45	C	-0.427045	-0.944227	0.426020
C46	C	0.072955	-0.444227	0.926020
C47	C	-0.559334	-0.951332	0.313282
C48	C	-0.059334	-0.451332	0.813282
C49	C	-0.561808	-1.073908	0.313756
C50	C	-0.061808	-0.573908	0.813756
C51	C	-0.812065	-1.506066	0.401518
C52	C	-0.312065	-1.006066	0.901518
C53	C	-0.929897	-1.506129	0.401541
C54	C	-0.429897	-1.006129	0.901541
C55	C	-1.101643	-1.420402	0.466164
C56	C	-0.601643	-0.920402	0.966164
C57	C	-0.979070	-1.419998	0.465957
C58	C	-0.479070	-0.919998	0.965957
C59	C	-0.968819	-1.481553	0.313684
C60	C	-0.468819	-0.981553	0.813684
C61	C	-1.091442	-1.481030	0.314076
C62	C	-0.591442	-0.981030	0.814076
C63	C	-1.098443	-1.616976	0.424063
C64	C	-0.598443	-1.116976	0.924063
C65	C	-0.975960	-1.616164	0.425984
C66	C	-0.475960	-1.116164	0.925984
C67	C	-0.260133	-1.506247	0.401560
C68	C	0.239867	-1.006247	0.901560
C69	C	-0.142304	-1.506292	0.401573
C70	C	0.357696	-1.006292	0.901573
C71	C	-0.550591	-1.492188	0.618981
C72	C	-0.050591	-0.992188	1.118981
C73	C	-0.556537	-1.486242	0.711646
C74	C	-0.056537	-0.986242	1.211646
C75	C	-0.536661	-0.782648	0.401528
C76	C	-0.036661	-0.282648	0.901528
C77	C	-0.536661	-0.900477	0.401542
C78	C	-0.036661	-0.400477	0.901542
C79	C	-0.522660	-1.520104	0.184925
C80	C	-0.022660	-1.020104	0.684925
C81	C	-0.516414	-1.526256	0.092261
C82	C	-0.016414	-1.026256	0.592261
C83	C	-0.567370	-1.475346	0.881305
C84	C	-0.067370	-0.975346	1.381305
C85	C	-0.505584	-1.537148	0.922607
C86	C	-0.005584	-1.037148	1.422607
C87	C	-0.511612	-1.531086	1.017011
C88	C	-0.011612	-1.031086	1.517011
C89	C	-0.561344	-1.481407	0.786892
C90	C	-0.061344	-0.981407	1.286892
H91	H	-0.642802	-1.104159	0.295652
H92	H	-0.142802	-0.604159	0.795652
C93	C	-0.428016	-1.614789	0.874595
C94	C	0.071984	-1.114789	1.374595
N95	N	-0.369598	-1.673270	0.838430
N96	N	0.130402	-1.173270	1.338430
C97	C	-0.603228	-1.097704	0.554262
C98	C	-0.103228	-0.597704	1.054262
N99	N	-0.588460	-1.123275	0.620816
N100	N	-0.088460	-0.623275	1.120816
H101	H	-0.407147	-0.911488	0.490541
H102	H	0.092853	-0.411488	0.990541
H103	H	-0.936953	-1.401687	0.294285
H104	H	-0.436953	-0.901687	0.794285
H105	H	-0.624790	-1.417888	0.916843
H106	H	-0.124790	-0.917888	1.416843
H107	H	-0.502967	-1.107772	0.263431
H108	H	-0.002967	-0.607772	0.763431
C109	C	-0.398984	-1.102789	0.511788
C110	C	0.101016	-0.602789	1.011788
N111	N	-0.378253	-1.129852	0.576734
N112	N	0.121747	-0.629852	1.076734
C113	C	-0.925111	-1.563718	0.246888
C114	C	-0.425111	-1.063718	0.746888
N115	N	-0.892186	-1.625605	0.196579
N116	N	-0.392186	-1.125605	0.696579
H117	H	-0.705210	-0.912677	0.450767
H118	H	-0.205210	-0.412677	0.950767
H119	H	-0.704679	-1.094795	0.450865
H120	H	-0.204679	-0.594795	0.950865
C121	C	-0.474191	-0.916287	0.248757
C122	C	0.025809	-0.416287	0.748757
N123	N	-0.410060	-0.889883	0.200162
N124	N	0.089940	-0.389883	0.700162
H125	H	-0.608762	-0.906222	0.530660
H126	H	-0.108762	-0.406222	1.030660
H127	H	-0.360653	-0.917420	0.381472
H128	H	0.139347	-0.417420	0.881472
C129	C	-0.944013	-1.439879	0.553967
C130	C	-0.444013	-0.939879	1.053967
N131	N	-0.917613	-1.454849	0.620261
N132	N	-0.417613	-0.954849	1.120261
H133	H	-1.124397	-1.680897	0.377018
H134	H	-0.624397	-1.180897	0.877018
H135	H	-0.637955	-0.921818	0.291466
H136	H	-0.137955	-0.421818	0.791466
H137	H	-0.360612	-1.098905	0.380334
H138	H	0.139388	-0.598905	0.880334
H139	H	-1.135274	-1.434933	0.531524
H140	H	-0.635274	-0.934933	1.031524
H141	H	-1.131592	-1.338738	0.451456
H142	H	-0.631592	-0.838738	0.951456
C143	C	-0.938272	-1.308966	0.445890
C144	C	-0.438272	-0.808966	0.945890
N145	N	-0.907545	-1.225325	0.430796
N146	N	-0.407545	-0.725325	0.930796
H147	H	-1.118901	-1.400287	0.295022
H148	H	-0.618901	-0.900287	0.795022
H149	H	-1.117889	-1.541181	0.264310
H150	H	-0.617889	-1.041181	0.764310
C151	C	-0.942173	-1.641370	0.513317
C152	C	-0.442173	-1.141370	1.013317
N153	N	-0.916704	-1.660359	0.579092
N154	N	-0.416704	-1.160359	1.079092
C155	C	-0.930757	-1.706557	0.367053
C156	C	-0.430757	-1.206557	0.867053
N157	N	-0.896710	-1.774639	0.322658
N158	N	-0.396710	-1.274639	0.822658
C159	C	-1.145598	-1.648755	0.509144
C160	C	-0.645598	-1.148755	1.009144
N161	N	-1.181115	-1.672679	0.573231
N162	N	-0.681115	-1.172679	1.073231
