data_functionalizedCrystal
_audit_creation_method	'MofGen! by Chris Wilmer'
_symmetry_space_group_name_H-M	'P1'
_symmetry_Int_Tables_number	1
_symmetry_cell_setting	triclinic
loop_
_symmetry_equiv_pos_as_xyz
  x,y,z
_cell_length_a	14.044220
_cell_length_b	12.837942
_cell_length_c	11.892095
_cell_angle_alpha	85.697431
_cell_angle_beta	94.249598
_cell_angle_gamma	94.008909
loop_
_atom_site_label
_atom_site_type_symbol
_atom_site_fract_x
_atom_site_fract_y
_atom_site_fract_z
O1	O	-1.285971	-0.245911	-0.093880
O2	O	-1.009182	-0.236815	-0.093908
O3	O	-1.141439	-0.089893	-0.093888
O4	O	-1.153714	-0.392833	-0.093900
O5	O	-1.130409	-0.102123	0.094118
O6	O	-0.998153	-0.249045	0.094097
O7	O	-1.274942	-0.258141	0.094126
Zn8	Zn	-1.134796	-0.255535	0.123962
Zn9	Zn	-1.149328	-0.239422	-0.123744
O10	O	-1.142685	-0.405063	0.094105
C11	C	-1.131777	-0.057004	0.000114
C12	C	-1.119410	0.059217	0.000111
C13	C	-0.967994	-0.238949	0.000091
C14	C	-0.861696	-0.227074	0.000080
C15	C	-1.316130	-0.256007	0.000124
C16	C	-1.422428	-0.267882	0.000128
C17	C	-0.667072	-0.205367	0.000103
C18	C	-0.617046	-0.289584	0.000104
C19	C	-0.508751	-0.277506	0.000117
C20	C	-0.775377	-0.217443	0.000090
C21	C	-1.152347	-0.437952	0.000101
C22	C	-1.164714	-0.554172	0.000097
N23	N	-1.124886	-0.266531	0.293014
C24	C	-1.268090	0.286428	0.000103
C25	C	-1.256474	0.395628	0.000100
C26	C	-1.084564	0.386820	0.000094
C27	C	-1.096180	0.277620	0.000097
C28	C	-1.187946	0.227427	0.000103
C29	C	-1.199560	0.118225	0.000114
C30	C	-1.027652	0.109419	0.000100
C31	C	-1.016036	0.218619	0.000097
N32	N	-1.159245	-0.228418	-0.292797
C33	C	-1.228200	-0.151838	0.529678
C34	C	-1.221281	-0.159533	0.648019
C35	C	-1.104122	-0.289609	0.648039
C36	C	-1.111042	-0.281915	0.529698
C37	C	-1.173084	-0.213028	0.470522
C38	C	-1.180008	-0.205339	0.352179
C39	C	-1.062846	-0.335410	0.352201
C40	C	-1.055926	-0.343104	0.470542
H41	H	-0.628571	-0.124202	0.000113
H42	H	-1.278724	-0.095756	0.481496
H43	H	-1.266160	-0.109705	0.696181
C44	C	-0.984873	0.441173	0.000249
C45	C	-0.930154	0.405658	0.096955
C46	C	-0.838309	0.455692	0.097124
H47	H	-0.989293	0.514664	0.000298
H48	H	-0.955259	0.425693	-0.065282
H49	H	-0.959761	0.421145	0.162469
H50	H	-0.925706	0.332174	0.096926
H51	H	-0.808695	0.440213	0.031593
H52	H	-0.842739	0.529182	0.097170
H53	H	-0.801168	0.431596	0.162732
C54	C	-1.367798	0.232123	0.000053
C55	C	-1.435502	0.307169	0.000028
C56	C	-1.527365	0.257185	-0.000035
H57	H	-1.372194	0.185447	0.065596
H58	H	-1.379795	0.193997	-0.065536
H59	H	-1.423509	0.345277	0.065610
H60	H	-1.431137	0.353848	-0.065510
H61	H	-1.539363	0.219060	-0.065624
H62	H	-1.531751	0.210511	0.065509
H63	H	-1.573314	0.308096	-0.000062
C64	C	-1.299141	0.063600	-0.000060
C65	C	-1.316487	0.007430	-0.096769
C66	C	-1.408208	-0.042911	-0.096965
H67	H	-1.345305	0.114269	-0.000123
H68	H	-1.303423	0.016865	0.065469
H69	H	-1.312214	0.054161	-0.162281
H70	H	-1.270347	-0.043256	-0.096727
H71	H	-1.412490	-0.089646	-0.031436
H72	H	-1.454364	0.007765	-0.097025
H73	H	-1.419986	-0.081036	-0.162575
H74	H	-1.053602	-0.345688	0.696235
H75	H	-0.941323	0.259501	0.000087
C76	C	-0.668257	-0.397876	-0.000100
C77	C	-0.647986	-0.445726	-0.096819
C78	C	-0.695135	-0.545486	-0.097046
H79	H	-0.735291	-0.391870	-0.000170
H80	H	-0.646940	-0.439103	0.065422
H81	H	-0.669308	-0.404509	-0.162324
H82	H	-0.580960	-0.451758	-0.096769
H83	H	-0.673818	-0.586713	-0.031524
H84	H	-0.762167	-0.539470	-0.097113
H85	H	-0.681381	-0.577969	-0.162662
H86	H	-1.017969	-0.385238	0.304022
C87	C	-1.343394	0.459805	0.000278
C88	C	-1.336067	0.516489	0.096986
C89	C	-1.416117	0.575632	0.097178
H90	H	-1.399770	0.414390	0.000339
H91	H	-1.346277	0.506906	-0.065252
H92	H	-1.333194	0.469393	0.162498
H93	H	-1.279708	0.561923	0.096945
H94	H	-1.419000	0.622733	0.031648
H95	H	-1.472487	0.530209	0.097236
H96	H	-1.411153	0.614106	0.162787
C97	C	-0.940677	0.045325	-0.000136
C98	C	-0.947978	-0.011321	-0.096871
C99	C	-0.867871	-0.070365	-0.097130
H100	H	-0.937711	-0.001801	0.065352
H101	H	-0.884345	0.090833	-0.000201
H102	H	-1.004294	-0.056825	-0.096795
H103	H	-0.950931	0.035779	-0.162374
H104	H	-0.811539	-0.024856	-0.097195
H105	H	-0.864912	-0.117484	-0.031637
H106	H	-0.872809	-0.108798	-0.162767
C107	C	-1.247383	-0.130449	0.288131
C108	C	-1.294149	-0.078487	0.365274
C109	C	-1.356211	-0.009476	0.306318
H110	H	-1.293353	-0.168635	0.241955
H111	H	-1.211782	-0.080680	0.241997
H112	H	-1.329749	-0.128249	0.411388
H113	H	-1.248203	-0.040280	0.411452
H114	H	-1.320609	0.040293	0.260185
H115	H	-1.402175	-0.047671	0.260144
H116	H	-1.387942	0.025796	0.358650
C117	C	-0.988662	-0.417872	0.534999
C118	C	-0.994414	-0.411534	0.651300
C119	C	-0.932476	-0.480408	0.710710
H120	H	-0.924931	-0.399403	0.515752
H121	H	-1.006491	-0.487370	0.515669
H122	H	-0.976579	-0.342050	0.670623
H123	H	-1.058131	-0.430012	0.670581
H124	H	-0.950305	-0.549907	0.691379
H125	H	-0.868748	-0.461933	0.691453
H126	H	-0.936376	-0.476124	0.789626
