data_functionalizedCrystal
_audit_creation_method	'MofGen! by Chris Wilmer'
_symmetry_space_group_name_H-M	'P1'
_symmetry_Int_Tables_number	1
_symmetry_cell_setting	triclinic
loop_
_symmetry_equiv_pos_as_xyz
  x,y,z
_cell_length_a	16.109301
_cell_length_b	14.853559
_cell_length_c	14.586319
_cell_angle_alpha	89.998399
_cell_angle_beta	89.999213
_cell_angle_gamma	83.546467
loop_
_atom_site_label
_atom_site_type_symbol
_atom_site_fract_x
_atom_site_fract_y
_atom_site_fract_z
O1	O	1.103290	0.115881	-0.076178
O2	O	0.861248	0.130302	-0.076192
O3	O	0.988738	-0.008149	-0.076184
O4	O	0.975800	0.254333	-0.076186
O5	O	0.988729	-0.008151	0.076297
O6	O	0.861239	0.130300	0.076289
O7	O	1.103281	0.115879	0.076303
Cu8	Cu	0.982260	0.123090	0.090219
Cu9	Cu	0.982270	0.123092	-0.090108
O10	O	0.975791	0.254331	0.076295
C11	C	0.830268	0.129717	0.000047
C12	C	0.737970	0.127966	0.000041
C13	C	0.515805	0.206048	0.000051
C14	C	0.429083	0.204395	0.000057
C15	C	0.448731	0.040127	0.000055
C16	C	0.535452	0.041781	0.000055
C17	C	0.568987	0.124744	0.000049
C18	C	0.395543	0.121438	0.000054
C19	C	0.301514	0.119645	0.000061
C20	C	0.663021	0.126537	0.000044
C21	C	0.988149	-0.041738	0.000055
C22	C	0.986396	-0.141819	0.000050
C23	C	0.978964	-0.564981	-0.083068
C24	C	0.978955	-0.564978	0.083172
C25	C	0.980608	-0.470947	0.083173
C26	C	0.981439	-0.423929	0.000052
C27	C	0.980616	-0.470941	-0.083070
C28	C	0.981423	-0.423927	0.166294
C29	C	0.983076	-0.329890	0.166298
C30	C	0.983913	-0.282871	0.083176
C31	C	0.983091	-0.329889	0.000051
C32	C	0.983921	-0.282871	-0.083070
C33	C	0.983105	-0.329889	-0.166197
C34	C	0.981452	-0.423922	-0.166192
C35	C	0.985565	-0.188838	0.083171
C36	C	0.985573	-0.188832	-0.083072
C37	C	1.134262	0.116464	0.000062
C38	C	1.226559	0.118216	0.000062
C39	C	0.976381	0.287920	0.000054
C40	C	0.978134	0.388001	0.000053
N41	N	0.982258	0.123087	0.217050
N42	N	0.982278	0.123087	-0.216939
C43	C	1.038730	0.061801	0.452061
C44	C	1.038732	0.061799	0.548042
C45	C	0.925801	0.184376	0.548044
C46	C	0.925795	0.184373	0.452064
C47	C	0.982264	0.123087	0.404075
C48	C	0.982272	0.123087	0.596036
C49	C	0.982274	0.123086	0.700103
C50	C	0.982261	0.123087	0.300001
H51	H	0.578755	-0.024431	0.000056
O52	O	0.377542	0.283458	0.000015
C53	C	0.367211	0.446563	0.000067
C54	C	0.425676	0.357089	0.000091
H55	H	0.406104	0.506117	0.000148
H56	H	0.326133	0.449961	-0.063759
H57	H	0.326104	0.449846	0.063867
H58	H	0.466835	0.353746	-0.063665
H59	H	0.466697	0.353729	0.063960
H60	H	1.084709	0.011897	0.412990
O61	O	0.870871	0.243942	0.594520
C62	C	0.758888	0.365552	0.584391
C63	C	0.821038	0.298127	0.531646
H64	H	0.718593	0.409392	0.533580
H65	H	0.717259	0.326661	0.629307
H66	H	0.794847	0.410564	0.629346
H67	H	0.785147	0.253098	0.486641
H68	H	0.862666	0.337075	0.486788
O69	O	0.986503	-0.143125	-0.163787
C70	C	1.060259	-0.047096	-0.260242
C71	C	1.059336	-0.098844	-0.168817
H72	H	1.119129	-0.011265	-0.264331
H73	H	1.059436	-0.096805	-0.319698
H74	H	1.002853	0.005148	-0.264355
H75	H	1.116731	-0.151087	-0.164615
H76	H	1.060116	-0.049080	-0.109404
H77	H	1.084710	0.011894	0.587109
O78	O	0.983939	-0.284075	-0.246857
C79	C	0.986402	-0.139188	-0.320517
C80	C	0.985486	-0.190967	-0.229109
H81	H	0.987635	-0.063899	-0.306200
H82	H	1.044230	-0.165865	-0.361528
H83	H	0.927951	-0.149469	-0.361502
H84	H	1.043897	-0.180709	-0.188050
H85	H	0.927619	-0.164281	-0.188168
O86	O	0.980613	-0.469727	-0.246852
C87	C	0.978112	-0.614602	-0.320518
C88	C	0.979045	-0.562834	-0.229108
H89	H	0.976861	-0.689890	-0.306204
H90	H	0.920286	-0.587906	-0.361523
H91	H	1.036564	-0.604334	-0.361508
H92	H	0.920632	-0.573080	-0.188045
H93	H	1.036909	-0.589540	-0.188173
O94	O	0.978015	-0.610676	-0.163783
C95	C	0.904200	-0.706664	-0.260216
C96	C	0.905166	-0.654932	-0.168787
H97	H	0.845317	-0.742473	-0.264283
H98	H	0.905019	-0.656948	-0.319669
H99	H	0.961592	-0.758924	-0.264354
H100	H	0.847784	-0.602672	-0.164560
H101	H	0.904390	-0.704703	-0.109378
O102	O	0.871057	0.243951	0.405346
C103	C	0.853496	0.367103	0.297016
C104	C	0.915575	0.299674	0.349850
H105	H	0.889464	0.412185	0.252149
H106	H	0.811929	0.328214	0.252024
H107	H	0.813126	0.410870	0.347819
H108	H	0.955999	0.255890	0.299113
H109	H	0.957084	0.338619	0.394855
H110	H	0.980743	-0.462215	0.233966
O111	O	0.548520	0.286556	0.000010
C112	C	0.673408	0.361910	0.000064
C113	C	0.636474	0.270670	0.000087
H114	H	0.744523	0.349097	0.000146
H115	H	0.651572	0.402103	-0.063763
H116	H	0.651463	0.402082	0.063863
H117	H	0.658402	0.230424	-0.063669
H118	H	0.658306	0.230545	0.063956
O119	O	0.416015	-0.040380	0.000013
C120	C	0.291125	-0.115731	0.000061
C121	C	0.328062	-0.024492	0.000090
H122	H	0.220010	-0.102916	0.000143
H123	H	0.312963	-0.155918	-0.063767
H124	H	0.313068	-0.155910	0.063859
H125	H	0.306135	0.015761	-0.063664
H126	H	0.306228	0.015627	0.063961
O127	O	0.978261	-0.610560	0.163972
C128	C	1.049751	-0.649612	0.306036
C129	C	1.050628	-0.597930	0.214567
H130	H	1.108261	-0.639435	0.346960
H131	H	0.991977	-0.622837	0.347088
H132	H	1.048386	-0.724887	0.291743
H133	H	1.052022	-0.522647	0.228777
H134	H	1.108395	-0.624779	0.173543
O135	O	0.983914	-0.284368	0.247124
C136	C	0.983694	-0.294292	0.412014
C137	C	0.982756	-0.345961	0.320546
H138	H	0.982739	-0.344064	0.471400
H139	H	1.042623	-0.258572	0.416231
H140	H	0.926348	-0.241968	0.416123
H141	H	1.040062	-0.398328	0.316376
H142	H	0.923789	-0.381618	0.316368
O143	O	0.986376	-0.143308	0.163991
C144	C	0.986094	-0.153219	0.328881
C145	C	0.985202	-0.204896	0.237414
H146	H	0.985127	-0.202988	0.388267
H147	H	1.045013	-0.117484	0.333124
H148	H	0.928737	-0.100907	0.332961
H149	H	1.042518	-0.257251	0.233272
H150	H	0.926245	-0.240569	0.233210
