data_functionalizedCrystal
_audit_creation_method	'MofGen! by Chris Wilmer'
_symmetry_space_group_name_H-M	'P1'
_symmetry_Int_Tables_number	1
_symmetry_cell_setting	triclinic
loop_
_symmetry_equiv_pos_as_xyz
  x,y,z
_cell_length_a	6.817900
_cell_length_b	13.466098
_cell_length_c	17.078539
_cell_angle_alpha	94.935158
_cell_angle_beta	80.693057
_cell_angle_gamma	68.883154
loop_
_atom_site_label
_atom_site_type_symbol
_atom_site_fract_x
_atom_site_fract_y
_atom_site_fract_z
V1	V	4.019508	-0.147156	-0.248077
O2	O	3.966045	0.007359	-0.242613
O3	O	4.010618	-0.292061	-0.247093
O4	O	3.949904	-0.144766	-0.355946
O5	O	4.027179	-0.140956	-0.133006
V6	V	4.500764	-0.128689	-0.234227
O7	O	4.285739	-0.187664	-0.278458
O8	O	4.684731	-0.088181	-0.203846
O9	O	4.286449	0.016217	-0.235211
O10	O	4.671625	-0.283203	-0.239690
O11	O	4.610491	-0.134889	-0.349297
O12	O	4.347162	-0.131079	-0.126357
C13	C	3.865916	-0.327390	-0.243363
C14	C	3.939792	-0.445852	-0.243278
C15	C	4.226731	-0.618242	-0.247148
C16	C	4.157329	-0.506936	-0.247224
C17	C	3.791648	-0.496080	-0.239252
C18	C	3.861050	-0.607385	-0.239176
C19	C	4.078596	-0.668463	-0.243125
C20	C	4.148000	-0.779772	-0.243054
C21	C	3.782317	-0.768912	-0.235077
C22	C	3.712915	-0.657607	-0.235153
C23	C	3.788468	-0.139499	-0.382216
C24	C	3.813104	-0.138504	-0.470404
C25	C	4.094494	0.051540	-0.238938
C26	C	3.999855	0.170000	-0.239029
C27	C	3.932182	-0.132477	-0.966393
C28	C	3.909030	-0.133382	-0.883527
C29	C	4.080247	-0.139157	-0.846165
C30	C	4.274622	-0.144015	-0.891672
C31	C	4.297766	-0.143102	-0.974535
C32	C	4.030623	-0.142450	-0.598775
C33	C	4.007465	-0.143366	-0.515906
C34	C	3.641873	-0.132731	-0.507766
C35	C	3.665039	-0.131825	-0.590633
C36	C	3.859407	-0.136678	-0.636132
N37	N	4.056588	-0.140085	-0.761463
N38	N	3.883058	-0.135741	-0.720831
C39	C	4.171942	-0.136349	-0.100084
C40	C	4.126543	-0.137339	-0.011894
H41	H	4.403869	-0.667973	-0.250371
H42	H	4.325137	-0.829500	-0.246273
H43	H	3.792758	-0.127781	-0.996808
H44	H	3.525614	-0.127126	-0.621047
H45	H	3.750784	-0.129454	-0.846487
H46	H	4.456035	-0.147063	-1.011582
O47	O	3.501611	-0.598136	-0.231215
C48	C	3.181999	-0.451832	-0.157534
C49	C	3.421301	-0.519077	-0.161901
H50	H	3.116985	-0.387912	-0.101489
H51	H	3.163702	-0.410985	-0.213167
H52	H	3.088108	-0.506878	-0.154688
H53	H	3.515343	-0.464105	-0.164721
H54	H	3.439435	-0.559936	-0.106269
H55	H	4.414022	-0.148709	-0.861244
H56	H	3.614518	-0.446330	-0.236027
O57	O	4.173547	-0.148821	-0.479505
C58	C	4.298331	-0.063253	-0.379496
C59	C	4.110066	-0.056950	-0.420638
H60	H	4.247089	0.011025	-0.331905
H61	H	4.346127	-0.138810	-0.349903
H62	H	4.441226	-0.066613	-0.426271
H63	H	3.967048	-0.053549	-0.373913
H64	H	4.062454	0.018595	-0.450248
O65	O	4.301072	-0.458053	-0.251238
C66	C	4.464036	-0.353126	-0.325096
C67	C	4.301131	-0.408415	-0.320640
H68	H	4.464171	-0.312999	-0.381212
H69	H	4.417271	-0.289608	-0.269534
H70	H	4.631397	-0.415915	-0.327864
H71	H	4.133715	-0.345706	-0.317898
H72	H	4.348080	-0.471954	-0.376201
O73	O	3.638423	-0.817714	-0.231025
C74	C	3.475649	-0.922756	-0.157223
C75	C	3.638636	-0.867515	-0.161699
H76	H	3.475800	-0.963054	-0.101186
H77	H	3.308179	-0.860012	-0.154361
H78	H	3.522420	-0.986167	-0.212851
H79	H	3.592065	-0.804111	-0.106085
H80	H	3.806064	-0.930323	-0.164601
O81	O	4.219424	-0.147309	-0.643062
C82	C	4.519117	-0.245215	-0.752506
C83	C	4.305290	-0.239830	-0.702427
H84	H	4.588626	-0.320024	-0.800503
H85	H	4.489692	-0.170192	-0.782506
H86	H	4.637418	-0.249449	-0.711536
H87	H	4.186884	-0.235631	-0.743342
H88	H	4.334884	-0.314852	-0.672417
H89	H	3.483624	-0.128778	-0.470712
