data_functionalizedCrystal
_audit_creation_method	'MofGen! by Chris Wilmer'
_symmetry_space_group_name_H-M	'P1'
_symmetry_Int_Tables_number	1
_symmetry_cell_setting	triclinic
loop_
_symmetry_equiv_pos_as_xyz
  x,y,z
_cell_length_a	16.120566
_cell_length_b	16.120531
_cell_length_c	11.169409
_cell_angle_alpha	92.857236
_cell_angle_beta	87.076307
_cell_angle_gamma	90.174626
loop_
_atom_site_label
_atom_site_type_symbol
_atom_site_fract_x
_atom_site_fract_y
_atom_site_fract_z
Zn1	Zn	-1.254464	0.395511	0.798980
Zn2	Zn	-0.754464	0.895511	1.298980
Zn3	Zn	-1.247282	0.534589	0.607888
Zn4	Zn	-0.747282	1.034589	1.107888
Zn5	Zn	-1.115395	0.388501	0.587642
Zn6	Zn	-0.615395	0.888501	1.087642
Zn7	Zn	-1.108301	0.527465	0.797858
Zn8	Zn	-0.608301	1.027465	1.297858
O9	O	-1.181361	0.461516	0.698092
O10	O	-0.681361	0.961516	1.198092
O11	O	-1.369877	0.419875	0.782574
O12	O	-0.869877	0.919875	1.282574
O13	O	-1.229751	0.515258	0.437253
O14	O	-0.729751	1.015258	0.937253
O15	O	-1.139817	0.273069	0.607673
O16	O	-0.639817	0.773069	1.107673
O17	O	-1.364600	0.522056	0.642179
O18	O	-0.864600	1.022056	1.142179
O19	O	-1.241991	0.278219	0.762943
O20	O	-0.741991	0.778219	1.262943
O21	O	-1.132853	0.407928	0.422379
O22	O	-0.632853	0.907928	0.922379
O23	O	-0.998089	0.401019	0.606585
O24	O	-0.498089	0.901019	1.106585
O25	O	-1.127727	0.509913	0.965956
O26	O	-0.627727	1.009913	1.465956
O27	O	-0.992877	0.503116	0.761030
O28	O	-0.492877	1.003116	1.261030
O29	O	-1.235112	0.412967	0.966780
O30	O	-0.735112	0.912967	1.466780
O31	O	-1.222872	0.650006	0.641091
O32	O	-0.722872	1.150006	1.141091
O33	O	-1.120763	0.644772	0.780661
O34	O	-0.620763	1.144772	1.280661
C35	C	-0.965310	0.450534	0.681490
C36	C	-0.465310	0.950534	1.181490
C37	C	-0.872882	0.445856	0.674417
C38	C	-0.372882	0.945856	1.174417
C39	C	-1.170291	0.677561	0.712979
C40	C	-0.670291	1.177561	1.212979
C41	C	-1.165631	0.769990	0.719394
C42	C	-0.665631	1.269990	1.219394
C43	C	-0.703655	0.437296	0.661513
C44	C	-0.203655	0.937296	1.161513
C45	C	-0.659903	0.485809	0.734686
C46	C	-0.159903	0.985809	1.234686
C47	C	-0.565739	0.481046	0.727506
C48	C	-0.065739	0.981046	1.227506
C49	C	-0.797828	0.442058	0.668691
C50	C	-0.297828	0.942058	1.168691
C51	C	-1.157128	0.939219	0.731130
C52	C	-0.657128	1.439219	1.231130
C53	C	-1.205625	0.982975	0.664988
C54	C	-0.705625	1.482975	1.164988
C55	C	-1.200894	1.077140	0.671518
C56	C	-0.700894	1.577140	1.171518
C57	C	-1.161858	0.845045	0.724602
C58	C	-0.661858	1.345045	1.224602
C59	C	-0.398254	0.472545	0.714741
C60	C	0.101746	0.972545	1.214741
C61	C	-0.490681	0.477251	0.721785
C62	C	0.009319	0.977251	1.221785
C63	C	-1.181429	0.461427	1.011133
C64	C	-0.681429	0.961427	1.511133
C65	C	-1.181459	0.461389	1.144533
C66	C	-0.681459	0.961389	1.644533
C67	C	-1.192467	1.244628	0.683151
C68	C	-0.692467	1.744628	1.183151
C69	C	-1.197124	1.152199	0.676721
C70	C	-0.697124	1.652199	1.176721
C71	C	-1.181343	0.461548	0.386268
C72	C	-0.681343	0.961548	0.886268
C73	C	-1.181487	0.461360	0.252866
C74	C	-0.681487	0.961360	0.752866
H75	H	-0.670396	0.392189	0.593481
H76	H	-0.170396	0.892189	1.093481
O77	O	-1.259320	0.943172	0.591595
O78	O	-0.759320	1.443172	1.091595
C79	C	-1.313099	0.811664	0.518170
C80	C	-0.813099	1.311664	1.018170
C81	C	-1.252247	0.856639	0.601318
C82	C	-0.752247	1.356639	1.101318
H83	H	-1.307415	0.741695	0.526022
H84	H	-0.807415	1.241695	1.026022
H85	H	-1.297682	0.827955	0.421392
H86	H	-0.797682	1.327955	0.921392
H87	H	-1.379301	0.832057	0.545604
H88	H	-0.879301	1.332057	1.045604
H89	H	-1.186025	0.836270	0.573992
H90	H	-0.686025	1.336270	1.073992
H91	H	-1.267736	0.840347	0.698076
H92	H	-0.767736	1.340347	1.198076
O93	O	-1.103466	0.978986	0.804599
O94	O	-0.603466	1.478986	1.304599
C95	C	-1.087384	1.076495	0.972458
C96	C	-0.587384	1.576495	1.472458
C97	C	-1.148247	1.031516	0.889332
C98	C	-0.648247	1.531516	1.389332
H99	H	-1.123567	1.118962	1.041001
H100	H	-0.623567	1.618962	1.541001
H101	H	-1.041934	1.115084	0.916792
H102	H	-0.541934	1.615084	1.416792
H103	H	-1.051589	1.028683	1.021174
H104	H	-0.551589	1.528683	1.521174
H105	H	-1.184099	1.079270	0.840597
H106	H	-0.684099	1.579270	1.340597
H107	H	-1.193643	0.992912	0.945061
H108	H	-0.693643	1.492912	1.445061
O109	O	-0.699706	0.539609	0.815748
O110	O	-0.199706	1.039609	1.315748
C111	C	-0.831219	0.593409	0.896977
C112	C	-0.331219	1.093409	1.396977
C113	C	-0.786243	0.532459	0.805108
C114	C	-0.286243	1.032459	1.305108
H115	H	-0.901192	0.587636	0.888423
H116	H	-0.401192	1.087636	1.388423
H117	H	-0.810821	0.659619	0.879088
H118	H	-0.310821	1.159619	1.379088
H119	H	-0.814934	0.578051	0.991503
H120	H	-0.314934	1.078051	1.491503
H121	H	-0.802506	0.547741	0.710547
H122	H	-0.302506	1.047741	1.210547
H123	H	-0.806644	0.466267	0.823101
H124	H	-0.306644	0.966267	1.323101
