data_functionalizedCrystal
_audit_creation_method	'MofGen! by Chris Wilmer'
_symmetry_space_group_name_H-M	'P1'
_symmetry_Int_Tables_number	1
_symmetry_cell_setting	triclinic
loop_
_symmetry_equiv_pos_as_xyz
  x,y,z
_cell_length_a	13.897441
_cell_length_b	11.169417
_cell_length_c	13.897448
_cell_angle_alpha	89.981429
_cell_angle_beta	89.969401
_cell_angle_gamma	90.018542
loop_
_atom_site_label
_atom_site_type_symbol
_atom_site_fract_x
_atom_site_fract_y
_atom_site_fract_z
Zn1	Zn	-0.545325	-1.834886	-0.383962
Zn2	Zn	-0.045325	-1.334886	0.116038
Zn3	Zn	-0.384026	-1.834754	-0.545283
Zn4	Zn	0.115974	-1.334754	-0.045283
Zn5	Zn	-0.384049	-1.634176	-0.384006
Zn6	Zn	0.115951	-1.134176	0.115994
Zn7	Zn	-0.545285	-1.634153	-0.545219
Zn8	Zn	-0.045285	-1.134153	-0.045219
O9	O	-0.464671	-1.734492	-0.464617
O10	O	0.035329	-1.234492	0.035383
O11	O	-0.523935	-2.002818	-0.405369
O12	O	-0.023935	-1.502818	0.094631
O13	O	-0.249048	-1.808101	-0.523935
O14	O	0.250952	-1.308101	-0.023935
O15	O	-0.405469	-1.660865	-0.249019
O16	O	0.094531	-1.160865	0.250981
O17	O	-0.405430	-2.002721	-0.523892
O18	O	0.094570	-1.502721	-0.023892
O19	O	-0.523958	-1.808326	-0.248986
O20	O	-0.023958	-1.308326	0.251014
O21	O	-0.249065	-1.660738	-0.405446
O22	O	0.250935	-1.160738	0.094554
O23	O	-0.405431	-1.466223	-0.405383
O24	O	0.094569	-0.966223	0.094617
O25	O	-0.680272	-1.660827	-0.523782
O26	O	-0.180272	-1.160827	-0.023782
O27	O	-0.523890	-1.466207	-0.523825
O28	O	-0.023890	-0.966207	-0.023825
O29	O	-0.680301	-1.808304	-0.405307
O30	O	-0.180301	-1.308304	0.094693
O31	O	-0.405391	-1.808079	-0.680256
O32	O	0.094609	-1.308079	-0.180256
O33	O	-0.523867	-1.660699	-0.680209
O34	O	-0.023867	-1.160699	-0.180209
C35	C	-0.464659	-1.422668	-0.464603
C36	C	0.035341	-0.922668	0.035397
C37	C	-0.464676	-1.289268	-0.464620
C38	C	0.035324	-0.789268	0.035380
C39	C	-0.716264	-1.734577	-0.464532
C40	C	-0.216264	-1.234577	0.035468
C41	C	-0.823478	-1.734614	-0.464496
C42	C	-0.323478	-1.234614	0.035504
C43	C	-0.464643	-1.734405	-0.715232
C44	C	0.035357	-1.234405	-0.215232
C45	C	-0.464664	-1.734477	-0.822446
C46	C	0.035336	-1.234477	-0.322446
C47	C	-1.019774	-1.734646	-0.464431
C48	C	-0.519774	-1.234646	0.035569
C49	C	-0.910541	-1.734625	-0.464470
C50	C	-0.410541	-1.234625	0.035530
C51	C	-0.214057	-1.734477	-0.464633
C52	C	0.285943	-1.234477	0.035367
C53	C	-0.106844	-1.734673	-0.464397
C54	C	0.393156	-1.234673	0.035603
C55	C	-0.464684	-2.047535	-0.464633
C56	C	0.035316	-1.547535	0.035367
C57	C	-0.464690	-2.180935	-0.464639
C58	C	0.035310	-1.680935	0.035361
C59	C	-0.464724	-1.734603	-1.018741
C60	C	0.035276	-1.234603	-0.518741
C61	C	-0.464693	-1.734530	-0.909508
C62	C	0.035307	-1.234530	-0.409508
C63	C	-0.464720	-1.734613	-0.213024
C64	C	0.035280	-1.234613	0.286976
C65	C	-0.464741	-1.734664	-0.105811
C66	C	0.035259	-1.234664	0.394189
