data_functionalizedCrystal
_audit_creation_method	'MofGen! by Chris Wilmer'
_symmetry_space_group_name_H-M	'P1'
_symmetry_Int_Tables_number	1
_symmetry_cell_setting	triclinic
loop_
_symmetry_equiv_pos_as_xyz
  x,y,z
_cell_length_a	16.625548
_cell_length_b	16.120484
_cell_length_c	16.625539
_cell_angle_alpha	92.870299
_cell_angle_beta	89.982945
_cell_angle_gamma	92.926626
loop_
_atom_site_label
_atom_site_type_symbol
_atom_site_fract_x
_atom_site_fract_y
_atom_site_fract_z
Zn1	Zn	1.216358	-0.331898	-0.472168
Zn2	Zn	1.209425	-0.471318	-0.344164
Zn3	Zn	1.081527	-0.331926	-0.337349
Zn4	Zn	1.074648	-0.471275	-0.478952
O5	O	1.145490	-0.401604	-0.408158
O6	O	1.328271	-0.350399	-0.455200
O7	O	1.192436	-0.452857	-0.230429
O8	O	1.105193	-0.215256	-0.349542
O9	O	1.323177	-0.452831	-0.361157
O10	O	1.204253	-0.215236	-0.448592
O11	O	1.098470	-0.350446	-0.225423
O12	O	0.967782	-0.350404	-0.356121
O13	O	1.093469	-0.452757	-0.590883
O14	O	0.962728	-0.452783	-0.460156
O15	O	1.197583	-0.350357	-0.585899
O16	O	1.185766	-0.587979	-0.367736
O17	O	1.086746	-0.587947	-0.466764
C18	C	0.935999	-0.401592	-0.408135
C19	C	0.846377	-0.401607	-0.408146
C20	C	1.134779	-0.618213	-0.418743
C21	C	1.130271	-0.710879	-0.423298
C22	C	0.518202	-0.401613	-0.408180
C23	C	0.609510	-0.401609	-0.408168
C24	C	0.682287	-0.401611	-0.408162
C25	C	0.773601	-0.401606	-0.408151
C26	C	1.122045	-0.880541	-0.431631
C27	C	1.169079	-0.921827	-0.384699
C28	C	1.164502	-1.016233	-0.389335
C29	C	1.126621	-0.786127	-0.426996
C30	C	1.355798	-0.401617	-0.408182
C31	C	1.445419	-0.401622	-0.408192
C32	C	1.145532	-0.401549	-0.618465
C33	C	1.145550	-0.401526	-0.708085
C34	C	1.156264	-0.184150	-0.397550
C35	C	1.160855	-0.091484	-0.393029
C36	C	1.145564	-0.401507	-0.780866
C37	C	1.145584	-0.401476	-0.872173
C38	C	1.145605	-0.401447	-0.944948
C39	C	1.145626	-0.401417	-1.036261
C40	C	1.145497	-0.401599	-0.198667
C41	C	1.145647	-0.401388	-0.109036
H42	H	1.078343	-0.916094	-0.475289
H43	H	1.212783	-0.886271	-0.341036
