data_functionalizedCrystal
_audit_creation_method	'MofGen! by Chris Wilmer'
_symmetry_space_group_name_H-M	'P1'
_symmetry_Int_Tables_number	1
_symmetry_cell_setting	triclinic
loop_
_symmetry_equiv_pos_as_xyz
  x,y,z
_cell_length_a	14.044191
_cell_length_b	14.044220
_cell_length_c	12.503572
_cell_angle_alpha	93.843168
_cell_angle_beta	86.162165
_cell_angle_gamma	93.190327
loop_
_atom_site_label
_atom_site_type_symbol
_atom_site_fract_x
_atom_site_fract_y
_atom_site_fract_z
O1	O	1.282208	0.225145	-0.089273
O2	O	1.005536	0.216832	-0.089287
O3	O	1.139719	0.082653	-0.089269
O4	O	1.148026	0.359324	-0.089290
O5	O	1.129629	0.092762	0.089371
O6	O	0.995447	0.226941	0.089354
O7	O	1.272118	0.235254	0.089368
Cu8	Cu	1.132861	0.232021	0.105672
Cu9	Cu	1.144794	0.220065	-0.105591
O10	O	1.137936	0.369433	0.089350
C11	C	0.964870	0.218250	0.000032
C12	C	0.858727	0.207402	0.000027
C13	C	1.131038	0.052086	0.000051
C14	C	1.120194	-0.054057	0.000052
C15	C	1.100368	-0.248396	0.000036
C16	C	1.177283	-0.299524	0.000036
C17	C	1.166252	-0.407661	0.000027
C18	C	1.111398	-0.140249	0.000045
C19	C	0.613268	0.264503	0.000034
C20	C	0.664393	0.187587	0.000038
C21	C	0.772531	0.198615	0.000032
C22	C	0.505121	0.253477	0.000040
C23	C	1.312785	0.233836	0.000046
C24	C	1.418929	0.244683	0.000044
C25	C	1.146617	0.400000	0.000027
C26	C	1.157462	0.506143	0.000020
N27	N	1.124476	0.240429	0.254263
N28	N	1.153186	0.211650	-0.254182
C29	C	1.112141	0.252807	0.473377
C30	C	1.165518	0.199275	0.526711
C31	C	1.158655	0.206162	0.648633
C32	C	1.119003	0.245921	0.351444
H33	H	1.026241	-0.285835	0.000029
H34	H	0.626954	0.113450	-0.000032
H35	H	0.650710	0.338629	0.000025
N36	N	1.232881	0.131718	0.465907
H37	H	1.280883	0.169138	0.419244
H38	H	1.267484	0.096967	0.518555
N39	N	1.275484	-0.249939	0.000046
H40	H	1.269550	-0.178598	0.000054
H41	H	1.307549	-0.265333	0.066275
N42	N	1.044783	0.320363	0.534173
H43	H	1.049369	0.315768	0.613913
H44	H	1.062741	0.387919	0.514581
