data_functionalizedCrystal
_audit_creation_method	'MofGen! by Chris Wilmer'
_symmetry_space_group_name_H-M	'P1'
_symmetry_Int_Tables_number	1
_symmetry_cell_setting	triclinic
loop_
_symmetry_equiv_pos_as_xyz
  x,y,z
_cell_length_a	16.625539
_cell_length_b	12.759401
_cell_length_c	12.759399
_cell_angle_alpha	90.015938
_cell_angle_beta	90.026183
_cell_angle_gamma	90.020340
loop_
_atom_site_label
_atom_site_type_symbol
_atom_site_fract_x
_atom_site_fract_y
_atom_site_fract_z
Zn1	Zn	-0.455916	-1.606241	0.418241
Zn2	Zn	-0.321089	-1.606137	0.593942
Zn3	Zn	-0.321097	-1.430546	0.418281
Zn4	Zn	-0.455879	-1.430530	0.593881
O5	O	-0.388495	-1.518364	0.506086
O6	O	-0.438043	-1.753248	0.441558
O7	O	-0.208257	-1.582808	0.570683
O8	O	-0.339001	-1.453903	0.271254
O9	O	-0.338986	-1.753172	0.570644
O10	O	-0.438052	-1.582985	0.271226
O11	O	-0.208264	-1.453802	0.441625
O12	O	-0.338965	-1.283523	0.441565
O13	O	-0.568716	-1.453875	0.570540
O14	O	-0.437988	-1.283511	0.570578
O15	O	-0.568744	-1.582969	0.441498
O16	O	-0.338949	-1.582793	0.740955
O17	O	-0.437979	-1.453775	0.740911
C18	C	-0.388474	-1.245396	0.506070
C19	C	-0.388483	-1.128620	0.506089
C20	C	-0.439963	-1.073779	0.573367
C21	C	-0.439976	-0.964055	0.573370
C22	C	-0.337025	-0.964022	0.438812
C23	C	-0.337016	-1.073744	0.438805
C24	C	-0.598804	-1.518432	0.506008
C25	C	-0.688425	-1.518461	0.505975
C26	C	-1.016601	-1.518510	0.505857
C27	C	-0.925293	-1.518493	0.505893
C28	C	-0.852516	-1.518486	0.505917
C29	C	-0.761202	-1.518468	0.505951
C30	C	-0.179004	-1.518356	0.506089
C31	C	-0.089384	-1.518531	0.505826
C32	C	-0.388477	-1.518299	0.779054
C33	C	-0.388496	-1.518368	0.895830
C34	C	-0.388512	-0.792397	0.506100
C35	C	-0.388506	-0.909174	0.506098
C36	C	-0.388531	-1.518457	0.232053
C37	C	-0.388547	-1.518497	0.115276
C38	C	-0.336990	-1.585624	0.950681
C39	C	-0.337017	-1.585692	1.060405
C40	C	-0.440059	-1.451238	1.060418
C41	C	-0.440035	-1.451176	0.950696
H42	H	-0.481873	-1.118456	0.628151
H43	H	-0.481897	-0.919409	0.628154
C44	C	-0.280300	-1.659543	0.890332
N45	N	-0.237601	-1.715223	0.844881
H46	H	-0.295120	-0.919329	0.384034
C47	C	-0.280381	-1.134072	0.364790
N48	N	-0.237727	-1.179511	0.309042
C49	C	-0.280352	-1.659675	1.120735
N50	N	-0.237670	-1.715401	1.166176
C51	C	-0.496740	-1.377319	1.120781
N52	N	-0.539429	-1.321637	1.166245
H53	H	-0.481982	-1.396408	0.906034
