data_functionalizedCrystal
_audit_creation_method	'MofGen! by Chris Wilmer'
_symmetry_space_group_name_H-M	'P1'
_symmetry_Int_Tables_number	1
_symmetry_cell_setting	triclinic
loop_
_symmetry_equiv_pos_as_xyz
  x,y,z
_cell_length_a	25.639242
_cell_length_b	25.639239
_cell_length_c	16.120297
_cell_angle_alpha	92.868703
_cell_angle_beta	92.870347
_cell_angle_gamma	90.033587
loop_
_atom_site_label
_atom_site_type_symbol
_atom_site_fract_x
_atom_site_fract_y
_atom_site_fract_z
Zn1	Zn	0.784258	-0.223229	-0.471547
Zn2	Zn	0.788607	-0.306230	-0.332131
Zn3	Zn	0.701260	-0.218802	-0.332132
Zn4	Zn	0.696782	-0.310625	-0.471476
O5	O	0.742727	-0.264722	-0.401822
O6	O	0.857999	-0.234252	-0.453083
O7	O	0.780714	-0.290940	-0.215470
O8	O	0.712324	-0.146225	-0.350656
O9	O	0.861194	-0.295232	-0.350655
O10	O	0.773302	-0.149478	-0.453084
O11	O	0.716540	-0.226708	-0.215470
O12	O	0.627501	-0.230970	-0.350587
O13	O	0.704692	-0.302724	-0.588147
O14	O	0.624212	-0.298432	-0.452962
O15	O	0.768961	-0.238514	-0.588199
O16	O	0.776372	-0.379977	-0.350585
O17	O	0.708909	-0.383206	-0.452961
C18	C	0.606886	-0.264698	-0.401767
C19	C	0.548772	-0.264701	-0.401764
C20	C	0.299278	-0.229541	-0.348607
C21	C	0.353883	-0.229536	-0.348597
O22	O	0.383566	-0.199610	-0.303354
N23	N	0.379497	-0.264709	-0.401806
C24	C	0.350503	-0.299885	-0.455035
O25	O	0.377304	-0.329801	-0.500293
C26	C	0.295899	-0.299887	-0.455049
C27	C	0.270288	-0.264716	-0.401831
C28	C	0.273667	-0.194373	-0.295393
C29	C	0.219066	-0.194378	-0.295403
C30	C	0.190076	-0.229553	-0.348627
C31	C	0.215688	-0.264722	-0.401840
C32	C	0.266907	-0.335061	-0.508282
C33	C	0.212299	-0.335060	-0.508292
C34	C	0.186688	-0.299888	-0.455074
C35	C	0.132097	-0.299903	-0.455073
N36	N	0.106483	-0.264730	-0.401864
C37	C	0.135472	-0.229555	-0.348641
C38	C	0.465175	-0.299877	-0.455002
C39	C	0.519778	-0.299878	-0.454985
C40	C	0.523153	-0.229528	-0.348547
C41	C	0.468550	-0.229530	-0.348561
C42	C	0.439561	-0.264704	-0.401793
C43	C	0.020807	-0.229571	-0.348665
C44	C	-0.033799	-0.229581	-0.348677
C45	C	-0.037170	-0.299929	-0.455117
C46	C	0.017431	-0.299921	-0.455102
C47	C	0.046418	-0.264737	-0.401873
O48	O	0.102380	-0.329812	-0.500295
O49	O	0.108664	-0.199640	-0.303398
C50	C	0.742640	-0.400563	-0.401783
C51	C	0.742650	-0.458677	-0.401795
C52	C	0.777939	-0.817350	-0.348605
C53	C	0.777959	-0.871955	-0.348617
O54	O	0.807874	-0.898753	-0.303351
N55	N	0.742817	-0.900962	-0.401877
C56	C	0.707656	-0.875363	-0.455135
O57	O	0.677767	-0.905050	-0.500439
C58	C	0.707639	-0.820759	-0.455128
C59	C	0.742780	-0.791754	-0.401858
C60	C	0.813078	-0.788345	-0.295341
C61	C	0.813057	-0.733744	-0.295329
C62	C	0.777898	-0.708148	-0.348581
C63	C	0.742759	-0.737153	-0.401846
C64	C	0.672481	-0.795161	-0.508390
C65	C	0.672467	-0.740554	-0.508378
C66	C	0.707608	-0.711548	-0.455109
C67	C	0.707579	-0.656956	-0.455087
N68	N	0.742722	-0.627949	-0.401826
C69	C	0.777881	-0.653545	-0.348574
C70	C	0.707695	-0.990034	-0.455148
C71	C	0.707709	-1.044636	-0.455152
C72	C	0.778013	-1.041224	-0.348634
C73	C	0.777996	-0.986621	-0.348627
C74	C	0.742837	-0.961026	-0.401888
C75	C	0.777834	-0.538879	-0.348552
C76	C	0.777809	-0.484273	-0.348542
C77	C	0.707507	-0.487690	-0.455063
C78	C	0.707530	-0.542291	-0.455070
C79	C	0.742698	-0.567884	-0.401812
O80	O	0.677682	-0.630123	-0.500332
O81	O	0.807769	-0.623851	-0.303286
C82	C	0.879098	-0.264746	-0.401877
C83	C	0.937211	-0.264756	-0.401900
C84	C	0.735842	-0.271603	-0.619268
C85	C	0.732908	-0.274536	-0.711931
C86	C	0.742827	-0.128350	-0.401878
C87	C	0.742870	-0.070237	-0.401902
C88	C	0.727532	-0.279879	-0.881587
C89	C	0.758024	-0.249408	-0.922908
C90	C	0.755033	-0.252381	-1.017311
C91	C	0.730523	-0.276907	-0.787176
C92	C	0.749615	-0.257829	-0.185221
C93	C	0.752650	-0.254749	-0.092559
H94	H	0.287750	-0.363701	-0.551618
O95	O	0.693759	-0.313652	-0.924084
C96	C	0.698252	-0.309131	-1.010244
H97	H	0.738247	-0.292374	-1.022056
H98	H	0.693653	-0.349316	-1.043402
H99	H	0.666492	-0.282048	-1.034944
O100	O	-0.058758	-0.195471	-0.296993
C101	C	-0.113170	-0.203011	-0.308415
H102	H	-0.121503	-0.244244	-0.335620
H103	H	-0.131952	-0.197442	-0.245977
H104	H	-0.130055	-0.173444	-0.352885
H105	H	0.044402	-0.200919	-0.305324
O106	O	0.184220	-0.369278	-0.560033
C107	C	0.218539	-0.400305	-0.607015
H108	H	0.258533	-0.401000	-0.572850
H109	H	0.202466	-0.441787	-0.615804
H110	H	0.222367	-0.383219	-0.670379
O111	O	0.812156	-0.958394	-0.297001
C112	C	0.844400	-0.928284	-0.344514
H113	H	0.823927	-0.922100	-0.407659
H114	H	0.852491	-0.888815	-0.310559
H115	H	0.882853	-0.949587	-0.353744
H116	H	0.297264	-0.165726	-0.252052
O117	O	0.194273	-0.160158	-0.243687
C118	C	0.231578	-0.129123	-0.196702
H119	H	0.269428	-0.128433	-0.230851
H120	H	0.216106	-0.087641	-0.187936
H121	H	0.239366	-0.146199	-0.133327
O122	O	0.042287	-0.334035	-0.506912
C123	C	0.026323	-0.325329	-0.590034
H124	H	0.011193	-0.283704	-0.594362
H125	H	0.060934	-0.331169	-0.631205
H126	H	-0.006067	-0.354074	-0.611748
O127	O	0.443755	-0.195313	-0.296843
C128	C	0.481058	-0.164279	-0.249850
H129	H	0.518909	-0.163586	-0.283995
H130	H	0.465585	-0.122797	-0.241079
H131	H	0.488845	-0.181359	-0.186478
H132	H	0.806643	-1.062074	-0.305276
O133	O	0.791776	-0.215588	-0.880454
C134	C	0.763596	-0.180249	-0.830096
H135	H	0.724365	-0.198285	-0.817118
H136	H	0.786801	-0.171346	-0.768840
H137	H	0.756834	-0.142540	-0.863606
O138	O	0.544570	-0.334066	-0.506753
C139	C	0.507268	-0.365120	-0.553711
H140	H	0.468264	-0.343801	-0.556661
H141	H	0.520973	-0.372840	-0.619379
H142	H	0.502403	-0.403829	-0.523067
O143	O	0.551378	-0.195426	-0.296807
C144	C	0.584634	-0.223432	-0.242857
H145	H	0.591868	-0.264011	-0.272140
H146	H	0.623393	-0.201772	-0.231747
H147	H	0.565532	-0.227157	-0.181060
O148	O	0.436964	-0.334075	-0.506592
C149	C	0.406865	-0.366305	-0.459040
H150	H	0.400671	-0.345805	-0.395920
H151	H	0.367401	-0.374428	-0.492992
H152	H	0.428184	-0.404745	-0.449755
O153	O	-0.065416	-0.334045	-0.506791
C154	C	-0.119101	-0.326511	-0.495369
H155	H	-0.125677	-0.285276	-0.468176
H156	H	-0.141820	-0.332089	-0.557807
H157	H	-0.133216	-0.356075	-0.450891
H158	H	0.643837	-0.719717	-0.551753
H159	H	0.806473	-0.559710	-0.305186
O160	O	0.811998	-0.456178	-0.296768
C161	C	0.843026	-0.490483	-0.249758
H162	H	0.843750	-0.530476	-0.283920
H163	H	0.884499	-0.474391	-0.240930
H164	H	0.825919	-0.494321	-0.186411
O165	O	0.847249	-0.705652	-0.243564
C166	C	0.878274	-0.739962	-0.196560
H167	H	0.878989	-0.779956	-0.230721
H168	H	0.919750	-0.723878	-0.187741
H169	H	0.861172	-0.743796	-0.133209
H170	H	0.841711	-0.809179	-0.251976
O171	O	0.673550	-1.072730	-0.506970
C172	C	0.642506	-1.038422	-0.553950
H173	H	0.663817	-0.999571	-0.556859
H174	H	0.634820	-1.056262	-0.619630
H175	H	0.603780	-1.031691	-0.523350
O176	O	0.673512	-0.965112	-0.506766
C177	C	0.641250	-0.932076	-0.459241
H178	H	0.661720	-0.921888	-0.396096
H179	H	0.633133	-0.894755	-0.493187
H180	H	0.602811	-0.952869	-0.450012
H181	H	0.643863	-0.818768	-0.551764
H182	H	0.678917	-0.565908	-0.498449
H183	H	0.678879	-0.466841	-0.498418
