data_functionalizedCrystal
_audit_creation_method	'MofGen! by Chris Wilmer'
_symmetry_space_group_name_H-M	'P1'
_symmetry_Int_Tables_number	1
_symmetry_cell_setting	triclinic
loop_
_symmetry_equiv_pos_as_xyz
  x,y,z
_cell_length_a	16.992701
_cell_length_b	27.731996
_cell_length_c	15.455313
_cell_angle_alpha	92.636264
_cell_angle_beta	87.136501
_cell_angle_gamma	86.644279
loop_
_atom_site_label
_atom_site_type_symbol
_atom_site_fract_x
_atom_site_fract_y
_atom_site_fract_z
O1	O	1.042582	0.100459	-0.072156
O2	O	1.542582	0.600459	0.427844
O3	O	0.814310	0.099336	-0.072156
O4	O	1.314310	0.599336	0.427844
O5	O	0.935556	0.029807	-0.072137
O6	O	1.435556	0.529807	0.427863
O7	O	0.921336	0.169988	-0.072175
O8	O	1.421336	0.669988	0.427825
O9	O	0.928623	0.033766	0.072124
O10	O	1.428623	0.533766	0.572124
O11	O	0.807377	0.103295	0.072105
O12	O	1.307377	0.603295	0.572105
O13	O	1.035649	0.104418	0.072105
O14	O	1.535649	0.604418	0.572105
Cu15	Cu	0.920880	0.104218	0.085277
Cu16	Cu	1.420880	0.604218	0.585277
Cu17	Cu	0.929079	0.099536	-0.085328
Cu18	Cu	1.429079	0.599536	0.414672
O19	O	0.914403	0.173947	0.072086
O20	O	1.414403	0.673947	0.572086
C21	C	0.781649	0.099870	-0.000025
C22	C	1.281649	0.599870	0.499975
C23	C	0.694659	0.095557	-0.000024
C24	C	1.194659	0.595557	0.499976
C25	C	0.206059	0.066574	-0.000020
C26	C	0.706059	0.566574	0.499980
C27	C	0.287794	0.070631	-0.000016
C28	C	0.787794	0.570631	0.499984
C29	C	0.318771	0.116311	-0.000032
C30	C	0.818771	0.616311	0.499968
C31	C	0.268007	0.157938	-0.000043
C32	C	0.768007	0.657938	0.499957
C33	C	0.186272	0.153880	-0.000041
C34	C	0.686272	0.653880	0.499959
C35	C	0.562159	0.133126	-0.000034
C36	C	1.062159	0.633126	0.499966
C37	C	0.643901	0.137180	-0.000039
C38	C	1.143901	0.637180	0.499961
C39	C	0.663683	0.049873	-0.000009
C40	C	1.163683	0.549873	0.499991
C41	C	0.581946	0.045820	-0.000013
C42	C	1.081946	0.545820	0.499987
C43	C	0.531189	0.087446	-0.000019
C44	C	1.031189	0.587446	0.499981
N45	N	0.402318	0.120459	-0.000030
N46	N	0.902318	0.620459	0.499970
N47	N	0.447643	0.083298	-0.000015
N48	N	0.947643	0.583298	0.499985
C49	C	0.931797	0.013766	-0.000004
C50	C	1.431797	0.513766	0.499996
C51	C	0.930917	-0.039928	0.000005
C52	C	1.430917	0.460072	0.500005
C53	C	0.929162	-0.375042	-0.078674
C54	C	1.429162	0.124958	0.421326
C55	C	0.925821	-0.576845	-0.078689
C56	C	1.425821	-0.076845	0.421311
O57	O	0.928569	-0.604771	-0.145567
O58	O	1.428569	-0.104771	0.354433
N59	N	0.921627	-0.599923	-0.000053
N60	N	1.421627	-0.099923	0.499947
C61	C	0.918262	-0.572546	0.078592
C62	C	1.418262	-0.072546	0.578592
O63	O	0.914610	-0.596804	0.145476
O64	O	1.414610	-0.096804	0.645476
C65	C	0.921597	-0.370743	0.078606
C66	C	1.421597	0.129257	0.578606
C67	C	0.925800	-0.347669	-0.000035
C68	C	1.425800	0.152331	0.499965
C69	C	0.933363	-0.351968	-0.157309
C70	C	1.433363	0.148032	0.342691
C71	C	0.934202	-0.301520	-0.157304
C72	C	1.434202	0.198480	0.342696
C73	C	0.930841	-0.274147	-0.078665
C74	C	1.430841	0.225853	0.421335
C75	C	0.926639	-0.297221	-0.000030
C76	C	1.426639	0.202779	0.499970
C77	C	0.918227	-0.343367	0.157251
C78	C	1.418227	0.156633	0.657251
C79	C	0.919060	-0.292913	0.157247
C80	C	1.419060	0.207087	0.657247
C81	C	0.923262	-0.269839	0.078606
C82	C	1.423262	0.230161	0.578606
C83	C	0.924117	-0.219401	0.078614
C84	C	1.424117	0.280599	0.578614
N85	N	0.928311	-0.196323	-0.000022
N86	N	1.428311	0.303677	0.499978
C87	C	0.931673	-0.223697	-0.078661
C88	C	1.431673	0.276303	0.421339
C89	C	0.916513	-0.678495	0.078579
C90	C	1.416513	-0.178495	0.578579
C91	C	0.915681	-0.728945	0.078576
C92	C	1.415681	-0.228945	0.578576
C93	C	0.923238	-0.733242	-0.078706
C94	C	1.423238	-0.233242	0.421294
C95	C	0.924076	-0.682790	-0.078702
C96	C	1.424076	-0.182790	0.421298
C97	C	0.920707	-0.655418	-0.000057
C98	C	1.420707	-0.155418	0.499943
C99	C	0.933436	-0.117753	-0.078646
C100	C	1.433436	0.382247	0.421354
C101	C	0.934279	-0.067301	-0.078634
C102	C	1.434279	0.432699	0.421366
C103	C	0.926717	-0.063009	0.078647
C104	C	1.426717	0.436991	0.578647
C105	C	0.925879	-0.113457	0.078636
C106	C	1.425879	0.386543	0.578636
C107	C	0.929236	-0.140828	-0.000018
C108	C	1.429236	0.359172	0.499982
O109	O	0.921362	-0.191444	0.145457
O110	O	1.421362	0.308556	0.645457
O111	O	0.935307	-0.199428	-0.145536
O112	O	1.435307	0.300572	0.354464
C113	C	0.928322	-0.425490	-0.078679
C114	C	1.428322	0.074510	0.421321
C115	C	0.924121	-0.448564	-0.000044
C116	C	1.424121	0.051436	0.499956
C117	C	0.920759	-0.421191	0.078595
C118	C	1.420759	0.078809	0.578595
C119	C	0.923289	-0.499015	-0.000047
C120	C	1.423289	0.000985	0.499953
C121	C	0.926651	-0.526388	-0.078687
C122	C	1.426651	-0.026388	0.421313
C123	C	0.930845	-0.503310	-0.157323
C124	C	1.430845	-0.003310	0.342677
C125	C	0.931684	-0.452863	-0.157318
C126	C	1.431684	0.047137	0.342682
C127	C	0.916565	-0.444268	0.157231
C128	C	1.416565	0.055732	0.657231
C129	C	0.915727	-0.494716	0.157220
C130	C	1.415727	0.005284	0.657220
C131	C	0.919089	-0.522089	0.078581
C132	C	1.419089	-0.022089	0.578581
C133	C	1.068310	0.103884	-0.000028
C134	C	1.568310	0.603884	0.499972
C135	C	1.155301	0.108197	-0.000034
C136	C	1.655301	0.608197	0.499966
C137	C	0.918162	0.189988	-0.000049
C138	C	1.418162	0.689988	0.499951
C139	C	0.919043	0.243681	-0.000064
C140	C	1.419043	0.743681	0.499936
N141	N	0.915119	0.107510	0.205272
N142	N	1.415119	0.607510	0.705272
N143	N	0.934847	0.096240	-0.205323
N144	N	1.434847	0.596240	0.294677
C145	C	0.966646	0.077984	0.250674
C146	C	1.466646	0.577984	0.750674
C147	C	0.962296	0.080479	0.341481
C148	C	1.462296	0.580479	0.841481
C149	C	0.906422	0.112503	0.386885
C150	C	1.406422	0.612503	0.886885
C151	C	0.854890	0.142030	0.341476
C152	C	1.354890	0.642030	0.841476
C153	C	0.859236	0.139533	0.250671
C154	C	1.359236	0.639533	0.750671
C155	C	0.887661	0.123270	0.658463
C156	C	1.387661	0.623270	1.158463
C157	C	0.883319	0.125766	0.749275
C158	C	1.383319	0.625766	1.249275
C159	C	0.990725	0.064214	0.749274
C160	C	1.490725	0.564214	1.249274
C161	C	0.995070	0.061722	0.658467
C162	C	1.495070	0.561722	1.158467
C163	C	0.943535	0.091247	0.613066
C164	C	1.443535	0.591247	1.113066
N165	N	0.901976	0.115055	0.479704
N166	N	1.401976	0.615055	0.979704
N167	N	0.947978	0.088693	0.520248
N168	N	1.447978	0.588693	1.020248
H169	H	0.144945	0.187775	-0.000050
H170	H	0.644945	0.687775	0.499950
H171	H	1.012147	0.051909	0.213712
H172	H	1.512147	0.551909	0.713712
H173	H	1.040567	0.035645	0.621501
H174	H	1.540567	0.535645	1.121501
H175	H	0.912311	-0.513499	0.221264
H176	H	1.412311	-0.013499	0.721264
H177	H	0.916305	-0.270628	0.221291
H178	H	1.416305	0.229372	0.721291
C179	C	0.980525	-0.387881	0.248479
C180	C	1.480525	0.112119	0.748479
C181	C	0.912876	-0.414182	0.243676
C182	C	1.412876	0.085818	0.743676
H183	H	0.978246	-0.369306	0.301848
H184	H	1.478246	0.130694	0.801848
H185	H	1.026064	-0.409576	0.245204
H186	H	1.526064	0.090424	0.745204
H187	H	0.983134	-0.366916	0.201647
H188	H	1.483134	0.133084	0.701647
H189	H	0.910269	-0.435149	0.290505
H190	H	1.410269	0.064851	0.790505
H191	H	0.867324	-0.392484	0.246960
H192	H	1.367324	0.107516	0.746960
H193	H	1.032682	0.040175	0.786247
H194	H	1.532682	0.540175	1.286247
C195	C	0.760412	0.182163	-0.000038
C196	C	1.260412	0.682163	0.499962
C197	C	0.677952	0.187396	-0.000037
C198	C	1.177952	0.687396	0.499963
H199	H	0.781432	0.213163	-0.000039
H200	H	1.281432	0.713163	0.499961
H201	H	0.775446	0.166269	0.050264
H202	H	1.275446	0.666269	0.550264
H203	H	0.780280	0.163516	-0.050350
H204	H	1.280280	0.663516	0.449650
H205	H	0.658083	0.206040	0.050278
H206	H	1.158083	0.706040	0.550278
H207	H	0.662910	0.203297	-0.050345
H208	H	1.162910	0.703297	0.449655
C209	C	0.873446	-0.286886	-0.291332
C210	C	1.373446	0.213114	0.208668
C211	C	0.938778	-0.276188	-0.243778
C212	C	1.438778	0.223812	0.256222
H213	H	0.876259	-0.271255	-0.344726
H214	H	1.376259	0.228745	0.155274
H215	H	0.873444	-0.320851	-0.302523
H216	H	1.373444	0.179149	0.197477
H217	H	0.826327	-0.275799	-0.258999
H218	H	1.326327	0.224201	0.241001
H219	H	0.985897	-0.287278	-0.276109
H220	H	1.485897	0.212722	0.223891
H221	H	0.938788	-0.242215	-0.232590
H222	H	1.438788	0.257785	0.267410
H223	H	0.705018	0.015983	-0.000003
H224	H	1.205018	0.515983	0.499997
H225	H	1.004253	0.056436	0.378447
H226	H	1.504253	0.556436	0.878447
C227	C	0.869420	-0.408357	-0.248586
C228	C	1.369420	0.091643	0.251414
C229	C	0.937062	-0.382050	-0.243760
C230	C	1.437062	0.117950	0.256240
H231	H	0.871708	-0.426924	-0.301965
H232	H	1.371708	0.073076	0.198035
H233	H	0.866807	-0.429325	-0.201770
H234	H	1.366807	0.070675	0.298230
H235	H	0.823872	-0.386661	-0.245312
H236	H	1.323872	0.113339	0.254688
H237	H	0.982610	-0.403747	-0.247028
H238	H	1.482610	0.096253	0.252972
H239	H	0.939683	-0.361081	-0.290590
H240	H	1.439683	0.138919	0.209410
H241	H	0.520842	0.167021	-0.000044
H242	H	1.020842	0.667021	0.499956
C243	C	0.777564	0.186347	0.740160
C244	C	1.277564	0.686347	1.240160
C245	C	0.821887	0.160962	0.799185
C246	C	1.321887	0.660962	1.299185
H247	H	0.739637	0.208071	0.770975
H248	H	1.239637	0.708071	1.270975
H249	H	0.811655	0.204030	0.704730
H250	H	1.311655	0.704030	1.204730
H251	H	0.751331	0.164155	0.704756
H252	H	1.251331	0.664155	1.204756
H253	H	0.848125	0.183154	0.834585
H254	H	1.348125	0.683154	1.334585
H255	H	0.787792	0.143279	0.834630
H256	H	1.287792	0.643279	1.334630
H257	H	0.329119	0.036737	-0.000001
H258	H	0.829119	0.536737	0.499999
H259	H	0.937703	-0.048516	-0.142676
H260	H	1.437703	0.451484	0.357324
C261	C	0.384515	0.202923	-0.000064
C262	C	0.884515	0.702923	0.499936
C263	C	0.302054	0.208151	-0.000060
C264	C	0.802054	0.708151	0.499940
H265	H	0.405531	0.233924	-0.000081
H266	H	0.905531	0.733924	0.499919
H267	H	0.399553	0.187037	0.050245
H268	H	0.899553	0.687037	0.550245
H269	H	0.404383	0.184269	-0.050369
H270	H	0.904383	0.684269	0.449631
H271	H	0.282185	0.226801	0.050248
H272	H	0.782185	0.726801	0.550248
H273	H	0.287009	0.224044	-0.050375
H274	H	0.787009	0.724044	0.449625
C275	C	0.609712	-0.040072	0.000036
C276	C	1.109712	0.459928	0.500036
C277	C	0.547899	-0.004394	0.000017
C278	C	1.047899	0.495606	0.500017
H279	H	0.588691	-0.071071	0.000058
H280	H	1.088691	0.428929	0.500058
H281	H	0.643595	-0.038059	-0.050271
H282	H	1.143595	0.461941	0.449729
H283	H	0.638765	-0.035286	0.050343
H284	H	1.138765	0.464714	0.550343
H285	H	0.518850	-0.009177	-0.050294
H286	H	1.018850	0.490823	0.449706
H287	H	0.514003	-0.006408	0.050329
H288	H	1.014003	0.493592	0.550329
H289	H	0.936166	-0.140032	-0.142693
H290	H	1.436166	0.359968	0.357307
C291	C	0.931461	-0.692116	-0.234164
C292	C	1.431461	-0.192116	0.265836
C293	C	0.928686	-0.657429	-0.165146
C294	C	1.428686	-0.157429	0.334854
H295	H	0.934300	-0.676460	-0.287533
H296	H	1.434300	-0.176460	0.212467
H297	H	0.976697	-0.713623	-0.230891
H298	H	1.476697	-0.213623	0.269109
H299	H	0.885257	-0.709784	-0.230883
H300	H	1.385257	-0.209784	0.269117
H301	H	0.974892	-0.639763	-0.168423
H302	H	1.474892	-0.139763	0.331577
H303	H	0.883445	-0.635914	-0.168420
H304	H	1.383445	-0.135914	0.331580
C305	C	0.908289	-0.719619	0.234039
C306	C	1.408289	-0.219619	0.734039
C307	C	0.911068	-0.754305	0.165020
C308	C	1.411068	-0.254305	0.665020
H309	H	0.905433	-0.735274	0.287407
H310	H	1.405433	-0.235274	0.787407
H311	H	0.954488	-0.701955	0.230769
H312	H	1.454488	-0.201955	0.730769
H313	H	0.863050	-0.698107	0.230755
H314	H	1.363050	-0.198107	0.730755
H315	H	0.956310	-0.775815	0.168300
H316	H	1.456310	-0.275815	0.668300
H317	H	0.864863	-0.771977	0.168293
H318	H	1.364863	-0.271977	0.668293
H319	H	0.925976	-0.755537	-0.142737
H320	H	1.425976	-0.255537	0.357263
C321	C	0.987899	-0.046636	0.212729
C322	C	1.487899	0.453364	0.712729
C323	C	0.923004	-0.032917	0.165089
C324	C	1.423004	0.467083	0.665089
H325	H	0.985598	-0.028056	0.266094
H326	H	1.485598	0.471944	0.766094
H327	H	0.986799	-0.079980	0.223980
H328	H	1.486799	0.420020	0.723980
H329	H	1.035310	-0.041167	0.180427
H330	H	1.535310	0.458833	0.680427
H331	H	0.875593	-0.038389	0.197390
H332	H	1.375593	0.461611	0.697390
H333	H	0.924096	0.000435	0.153841
H334	H	1.424096	0.500435	0.653841
C335	C	0.845668	-0.616441	0.169860
C336	C	1.345668	-0.116441	0.669860
C337	C	0.912817	-0.648413	0.165036
C338	C	1.412817	-0.148413	0.665036
H339	H	0.843389	-0.597875	0.223238
H340	H	1.343389	-0.097875	0.723238
H341	H	0.848289	-0.595473	0.123043
H342	H	1.348289	-0.095473	0.623043
H343	H	0.799786	-0.634294	0.166584
H344	H	1.299786	-0.134294	0.666584
H345	H	0.958700	-0.630560	0.168305
H346	H	1.458700	-0.130560	0.668305
H347	H	0.910203	-0.669383	0.211865
H348	H	1.410203	-0.169383	0.711865
C349	C	0.853172	-0.164871	0.169877
C350	C	1.353172	0.335129	0.669877
C351	C	0.921279	-0.138829	0.165072
C352	C	1.421279	0.361171	0.665072
H353	H	0.850335	-0.180536	0.223237
H354	H	1.350335	0.319464	0.723237
H355	H	0.807944	-0.143355	0.166625
H356	H	1.307944	0.356645	0.666625
H357	H	0.855056	-0.188390	0.123033
H358	H	1.355056	0.311610	0.623033
H359	H	0.919393	-0.115307	0.211913
H360	H	1.419393	0.384693	0.711913
H361	H	0.966518	-0.160348	0.168333
H362	H	1.466518	0.339652	0.668333
C363	C	0.932909	-0.582558	-0.227149
C364	C	1.432909	-0.082558	0.272851
C365	C	0.934536	-0.533406	-0.243765
C366	C	1.434536	-0.033406	0.256235
H367	H	0.935179	-0.601138	-0.280513
H368	H	1.435179	-0.101138	0.219487
H369	H	0.976938	-0.591862	-0.194846
H370	H	1.476938	-0.091862	0.305154
H371	H	0.885498	-0.588010	-0.194831
H372	H	1.385498	-0.088010	0.305169
H373	H	0.981950	-0.527953	-0.276077
H374	H	1.481950	-0.027953	0.223923
H375	H	0.890503	-0.524099	-0.276082
H376	H	1.390503	-0.024099	0.223918
C377	C	0.806473	0.224643	0.369396
C378	C	1.306473	0.724643	0.869396
C379	C	0.793467	0.177231	0.391376
C380	C	1.293467	0.677231	0.891376
H381	H	0.768548	0.246374	0.400197
H382	H	1.268548	0.746374	0.900197
H383	H	0.857990	0.232337	0.384269
H384	H	1.357990	0.732337	0.884269
H385	H	0.801689	0.227373	0.308815
H386	H	1.301689	0.727373	0.808815
H387	H	0.798257	0.174500	0.451957
H388	H	1.298257	0.674500	0.951957
H389	H	0.741937	0.169534	0.376510
H390	H	1.241937	0.669534	0.876510
H391	H	0.914807	-0.362145	0.221289
H392	H	1.414807	0.137855	0.721289
H393	H	0.845700	0.147312	0.621505
H394	H	1.345700	0.647312	1.121505
H395	H	0.180845	0.029376	-0.000012
H396	H	0.680845	0.529376	0.499988
H397	H	0.935106	-0.434080	-0.221356
H398	H	1.435106	0.065920	0.278644
H399	H	0.817277	0.163575	0.213705
H400	H	1.317277	0.663575	0.713705
