data_functionalizedCrystal
_audit_creation_method	'MofGen! by Chris Wilmer'
_symmetry_space_group_name_H-M	'P1'
_symmetry_Int_Tables_number	1
_symmetry_cell_setting	triclinic
loop_
_symmetry_equiv_pos_as_xyz
  x,y,z
_cell_length_a	19.188930
_cell_length_b	14.044220
_cell_length_c	13.101039
_cell_angle_alpha	93.659868
_cell_angle_beta	93.345801
_cell_angle_gamma	91.833170
loop_
_atom_site_label
_atom_site_type_symbol
_atom_site_fract_x
_atom_site_fract_y
_atom_site_fract_z
O1	O	0.164759	-1.262233	-0.085127
O2	O	0.664759	-0.762233	0.414873
O3	O	0.158685	-0.986290	-0.085152
O4	O	0.658685	-0.486290	0.414848
O5	O	0.060581	-1.132223	-0.085119
O6	O	0.560581	-0.632223	0.414881
O7	O	0.262863	-1.116300	-0.085160
O8	O	0.762863	-0.616300	0.414840
O9	O	0.067633	-1.121753	0.085309
O10	O	0.567633	-0.621753	0.585309
O11	O	0.165737	-0.975820	0.085275
O12	O	0.665737	-0.475820	0.585275
O13	O	0.171810	-1.251762	0.085300
O14	O	0.671810	-0.751762	0.585300
Zn15	Zn	0.169893	-1.112128	0.112347
Zn16	Zn	0.669893	-0.612128	0.612347
Zn17	Zn	0.160602	-1.125924	-0.112199
Zn18	Zn	0.660602	-0.625924	0.387801
O19	O	0.269914	-1.105829	0.085267
O20	O	0.769914	-0.605829	0.585267
C21	C	0.038063	-1.126472	0.000098
C22	C	0.538063	-0.626472	0.500098
C23	C	-0.039541	-1.124923	0.000106
C24	C	0.460459	-0.624923	0.500106
C25	C	0.159553	-0.945752	0.000059
C26	C	0.659553	-0.445752	0.500059
C27	C	0.151623	-0.840559	0.000050
C28	C	0.651623	-0.340559	0.500050
C29	C	0.170943	-1.292301	0.000087
C30	C	0.670943	-0.792301	0.500087
C31	C	0.178872	-1.397494	0.000089
C32	C	0.678872	-0.897494	0.500089
C33	C	-0.078939	-1.210553	0.000119
C34	C	0.421061	-0.710553	0.500119
C35	C	-0.151857	-1.209099	0.000103
C36	C	0.348143	-0.709099	0.500103
C37	C	-0.185374	-1.122010	0.000094
C38	C	0.314626	-0.622010	0.500094
C39	C	-0.145968	-1.036370	0.000075
C40	C	0.354032	-0.536370	0.500075
C41	C	-0.073051	-1.037827	0.000082
C42	C	0.426949	-0.537827	0.500082
N43	N	-0.295275	-1.051878	0.058088
N44	N	0.204725	-0.551878	0.558088
N45	N	-0.364543	-1.050500	0.058084
N46	N	0.135457	-0.550500	0.558084
C47	C	-0.405067	-1.117617	0.000073
C48	C	0.094933	-0.617617	0.500073
N49	N	-0.373707	-1.186177	-0.057921
N50	N	0.126293	-0.686177	0.442079
N51	N	-0.304433	-1.187558	-0.057913
N52	N	0.195567	-0.687558	0.442087
C53	C	-0.264440	-1.120421	0.000086
C54	C	0.235560	-0.620421	0.500086
C55	C	-0.523532	-1.201676	0.000066
C56	C	-0.023532	-0.701676	0.500066
C57	C	-0.596452	-1.200219	0.000043
C58	C	-0.096452	-0.700219	0.500043
C59	C	-0.590560	-1.027487	0.000026
C60	C	-0.090560	-0.527487	0.500026
C61	C	-0.517642	-1.028947	0.000039
C62	C	-0.017642	-0.528947	0.500039
C63	C	-0.484132	-1.116043	0.000064
C64	C	0.015868	-0.616043	0.500064
C65	C	0.292433	-1.111580	0.000048
C66	C	0.792433	-0.611580	0.500048
C67	C	0.370037	-1.113129	0.000033
C68	C	0.870037	-0.613129	0.500033
N69	N	0.176234	-1.102720	0.265593
N70	N	0.676234	-0.602720	0.765593
C71	C	0.137129	-0.647957	0.000073
C72	C	0.637129	-0.147957	0.500073
C73	C	0.193363	-0.590091	0.000066
C74	C	0.693363	-0.090091	0.500066
C75	C	0.185298	-0.482920	0.000079
C76	C	0.685298	0.017080	0.500079
C77	C	0.145193	-0.755137	0.000060
C78	C	0.645193	-0.255137	0.500060
N79	N	0.154257	-1.135340	-0.265445
N80	N	0.654257	-0.635340	0.234555
C81	C	0.184867	-1.089920	0.474633
C82	C	0.684867	-0.589920	0.974633
C83	C	0.145626	-1.148137	0.525522
C84	C	0.645626	-0.648137	1.025522
C85	C	0.150429	-1.141014	0.641839
C86	C	0.650429	-0.641014	1.141839
C87	C	0.180064	-1.097041	0.358306
C88	C	0.680064	-0.597041	0.858306
H89	H	-0.051660	-1.281474	0.000136
H90	H	0.448340	-0.781474	0.500136
C91	C	0.235123	-1.015365	0.533788
C92	C	0.735123	-0.515365	1.033788
N93	N	0.272975	-0.959211	0.578355
N94	N	0.772975	-0.459211	1.078355
H95	H	0.082932	-0.617011	0.000090
H96	H	0.582932	-0.117011	0.500090
C97	C	-0.195203	-1.303301	0.000123
C98	C	0.304797	-0.803301	0.500123
N99	N	-0.227849	-1.374254	0.000141
N100	N	0.272151	-0.874254	0.500141
C101	C	-0.639789	-1.294423	0.000063
C102	C	-0.139789	-0.794423	0.500063
N103	N	-0.672431	-1.365379	0.000082
N104	N	-0.172431	-0.865379	0.500082
C105	C	-0.182837	-0.940572	0.000073
C106	C	0.317163	-0.440572	0.500073
N107	N	-0.210608	-0.868413	0.000071
N108	N	0.289392	-0.368413	0.500071
H109	H	-0.485564	-0.959218	0.000034
H110	H	0.014436	-0.459218	0.500034
H111	H	0.108423	-1.203327	0.481732
H112	H	0.608423	-0.703327	0.981732
H113	H	-0.040974	-0.968095	0.000072
H114	H	0.459026	-0.468095	0.500072
H115	H	-0.496247	-1.272595	0.000082
H116	H	0.003753	-0.772595	0.500082
H117	H	-0.617849	-0.956578	0.000014
H118	H	-0.117849	-0.456578	0.500014
H119	H	0.247564	-0.621038	0.000050
H120	H	0.747564	-0.121038	0.500050
