data_functionalizedCrystal
_audit_creation_method	'MofGen! by Chris Wilmer'
_symmetry_space_group_name_H-M	'P1'
_symmetry_Int_Tables_number	1
_symmetry_cell_setting	triclinic
loop_
_symmetry_equiv_pos_as_xyz
  x,y,z
_cell_length_a	21.295411
_cell_length_b	11.169417
_cell_length_c	11.169416
_cell_angle_alpha	90.011219
_cell_angle_beta	90.011119
_cell_angle_gamma	90.021194
loop_
_atom_site_label
_atom_site_type_symbol
_atom_site_fract_x
_atom_site_fract_y
_atom_site_fract_z
Zn1	Zn	-0.355901	-1.834978	0.477916
Zn2	Zn	-0.250646	-1.834863	0.678587
Zn3	Zn	-0.250652	-1.634260	0.477920
Zn4	Zn	-0.355884	-1.634272	0.678559
O5	O	-0.303271	-1.734593	0.578245
O6	O	-0.341943	-2.002913	0.504546
O7	O	-0.162557	-1.808199	0.651982
O8	O	-0.264624	-1.660929	0.309970
O9	O	-0.264613	-2.002828	0.651978
O10	O	-0.341949	-1.808396	0.309967
O11	O	-0.162562	-1.660817	0.504552
O12	O	-0.264607	-1.466312	0.504525
O13	O	-0.443975	-1.660949	0.651929
O14	O	-0.341920	-1.466321	0.651933
O15	O	-0.443988	-1.808408	0.504518
O16	O	-0.264596	-1.808211	0.846533
O17	O	-0.341914	-1.660838	0.846512
C18	C	-0.303266	-1.734546	0.890070
C19	C	-0.303285	-1.734635	1.023470
C20	C	-0.303263	-1.422769	0.578227
C21	C	-0.303274	-1.289369	0.578248
C22	C	-0.467461	-1.734693	0.578220
C23	C	-0.537429	-1.734735	0.578209
C24	C	-0.570303	-1.811514	0.501449
C25	C	-0.636046	-1.811512	0.501397
C26	C	-0.668912	-1.734745	0.578127
C27	C	-0.636029	-1.657951	0.654892
C28	C	-0.570288	-1.657947	0.654934
N29	N	-0.772137	-1.725522	0.683118
N30	N	-0.834589	-1.725533	0.683075
C31	C	-0.866986	-1.734752	0.578005
N32	N	-0.834573	-1.743983	0.472976
N33	N	-0.772116	-1.743977	0.473020
C34	C	-0.740197	-1.734741	0.578090
C35	C	-0.971146	-1.811533	0.501181
C36	C	-1.036890	-1.811523	0.501127
C37	C	-1.036872	-1.657968	0.654634
C38	C	-0.971130	-1.657972	0.654677
C39	C	-0.938271	-1.734761	0.577953
C40	C	-0.139719	-1.734563	0.578184
C41	C	-0.069751	-1.734753	0.577857
C42	C	-0.303279	-2.047636	0.578264
C43	C	-0.303283	-2.181036	0.578273
C44	C	-0.303289	-1.734674	0.265203
C45	C	-0.303297	-1.734708	0.131803
H46	H	-0.662817	-1.874031	0.438882
H47	H	-0.543554	-1.874039	0.438972
N48	N	-0.669594	-1.579541	0.733282
N49	N	-0.662260	-1.587459	0.844034
H50	H	-0.685963	-1.532072	0.899395
N51	N	-1.070433	-1.579531	0.732997
N52	N	-1.107097	-1.503060	0.690740
H53	H	-1.130801	-1.447656	0.746083
H54	H	-0.944391	-1.874052	0.438701
H55	H	-0.543522	-1.595419	0.717440
H56	H	-1.063655	-1.874043	0.438613
N57	N	-0.937555	-1.579538	0.733097
N58	N	-0.966904	-1.510996	0.801598
H59	H	-0.943193	-1.455594	0.856983
