data_functionalizedCrystal
_audit_creation_method	'MofGen! by Chris Wilmer'
_symmetry_space_group_name_H-M	'P1'
_symmetry_Int_Tables_number	1
_symmetry_cell_setting	triclinic
loop_
_symmetry_equiv_pos_as_xyz
  x,y,z
_cell_length_a	16.109295
_cell_length_b	22.010155
_cell_length_c	16.109301
_cell_angle_alpha	89.997171
_cell_angle_beta	96.539666
_cell_angle_gamma	89.994470
loop_
_atom_site_label
_atom_site_type_symbol
_atom_site_fract_x
_atom_site_fract_y
_atom_site_fract_z
O1	O	-1.103141	0.050486	0.106833
O2	O	-0.603141	0.550486	0.606833
O3	O	-0.861078	0.050496	0.120138
O4	O	-0.361078	0.550496	0.620138
O5	O	-0.988759	0.050484	-0.007546
O6	O	-0.488759	0.550484	0.492454
O7	O	-0.975460	0.050497	0.234517
O8	O	-0.475460	0.550497	0.734517
O9	O	-0.988736	-0.050566	-0.007527
O10	O	-0.488736	0.449434	0.492473
O11	O	-0.861055	-0.050554	0.120157
O12	O	-0.361055	0.449446	0.620157
O13	O	-1.103118	-0.050565	0.106852
O14	O	-0.603118	0.449435	0.606852
Cu15	Cu	-0.982084	-0.059786	0.113506
Cu16	Cu	-0.482084	0.440214	0.613506
Cu17	Cu	-0.982112	0.059718	0.113484
Cu18	Cu	-0.482112	0.559718	0.613484
O19	O	-0.975437	-0.050553	0.234536
O20	O	-0.475437	0.449447	0.734536
C21	C	-0.830092	-0.000028	0.119609
C22	C	-0.330092	0.499972	0.619609
C23	C	-0.737796	-0.000024	0.117996
C24	C	-0.237796	0.499976	0.617996
C25	C	-0.515523	-0.000026	0.190008
C26	C	-0.015523	0.499974	0.690008
C27	C	-0.428803	-0.000030	0.188486
C28	C	0.071197	0.499970	0.688486
C29	C	-0.448677	-0.000036	0.036997
C30	C	0.051323	0.499964	0.536997
C31	C	-0.535396	-0.000036	0.038520
C32	C	-0.035396	0.499964	0.538520
C33	C	-0.568816	-0.000029	0.115028
C34	C	-0.068816	0.499971	0.615028
C35	C	-0.395377	-0.000032	0.111982
C36	C	0.104623	0.499968	0.611982
C37	C	-0.301351	-0.000036	0.110331
C38	C	0.198649	0.499964	0.610331
C39	C	-0.662849	-0.000026	0.116679
C40	C	-0.162849	0.499974	0.616679
N41	N	-0.982071	-0.143839	0.113522
N42	N	-0.482071	0.356161	0.613522
C43	C	-1.038652	-0.563623	0.056954
C44	C	-0.538652	-0.063623	0.556954
C45	C	-1.038656	-0.627231	0.056948
C46	C	-0.538656	-0.127231	0.556948
O47	O	-1.086730	-0.660127	0.008862
O48	O	-0.586730	-0.160127	0.508862
N49	N	-0.982111	-0.659046	0.113466
N50	N	-0.482111	-0.159046	0.613466
C51	C	-0.925553	-0.627250	0.169988
C52	C	-0.425553	-0.127250	0.669988
O53	O	-0.877457	-0.660151	0.218061
O54	O	-0.377457	-0.160151	0.718061
C55	C	-0.925546	-0.563643	0.169990
C56	C	-0.425546	-0.063643	0.669990
C57	C	-0.982100	-0.531832	0.113473
C58	C	-0.482100	-0.031832	0.613473
C59	C	-1.095201	-0.531811	0.000441
C60	C	-0.595201	-0.031811	0.500441
C61	C	-1.095198	-0.468208	0.000448
C62	C	-0.595198	0.031792	0.500448
C63	C	-1.038646	-0.436417	0.056968
C64	C	-0.538646	0.063583	0.556968
C65	C	-0.982097	-0.468228	0.113480
C66	C	-0.482097	0.031772	0.613480
C67	C	-0.868985	-0.531848	0.226507
C68	C	-0.368985	-0.031848	0.726507
C69	C	-0.868982	-0.468238	0.226503
C70	C	-0.368982	0.031762	0.726503
C71	C	-0.925536	-0.436426	0.169986
C72	C	-0.425536	0.063574	0.669986
C73	C	-0.925542	-0.372834	0.170006
C74	C	-0.425542	0.127166	0.670006
N75	N	-0.982087	-0.341019	0.113488
N76	N	-0.482087	0.158981	0.613488
C77	C	-1.038639	-0.372810	0.056969
C78	C	-0.538639	0.127190	0.556969
C79	C	-0.925572	-0.760827	0.169981
C80	C	-0.425572	-0.260827	0.669981
C81	C	-0.925582	-0.824433	0.169985
C82	C	-0.425582	-0.324433	0.669985
C83	C	-1.038684	-0.824409	0.056943
C84	C	-0.538684	-0.324409	0.556943
C85	C	-1.038677	-0.760803	0.056944
C86	C	-0.538677	-0.260803	0.556944
C87	C	-0.982116	-0.729013	0.113463
C88	C	-0.482116	-0.229013	0.613463
C89	C	-1.038629	-0.239239	0.056988
C90	C	-0.538629	0.260761	0.556988
C91	C	-1.038623	-0.175630	0.057002
C92	C	-0.538623	0.324370	0.557002
C93	C	-0.925518	-0.175659	0.170041
C94	C	-0.425518	0.324341	0.670041
C95	C	-0.925527	-0.239262	0.170030
C96	C	-0.425527	0.260738	0.670030
C97	C	-0.982085	-0.271051	0.113496
C98	C	-0.482085	0.228949	0.613496
O99	O	-0.877491	-0.339897	0.218065
O100	O	-0.377491	0.160103	0.718065
O101	O	-1.086719	-0.339901	0.008897
O102	O	-0.586719	0.160099	0.508897
C103	C	-0.134104	-0.000039	0.107386
C104	C	0.365896	0.499961	0.607386
C105	C	-0.226397	-0.000037	0.109014
C106	C	0.273603	0.499963	0.609014
C107	C	-0.988209	-0.000041	-0.038511
C108	C	-0.488209	0.499959	0.461489
C109	C	-0.986594	-0.000042	-0.130806
C110	C	-0.486594	0.499958	0.369194
N111	N	-0.982131	0.143770	0.113462
N112	N	-0.482131	0.643770	0.613462
C113	C	-1.058602	-0.000035	-0.353080
C114	C	-0.558602	0.499965	0.146920
C115	C	-1.057078	-0.000030	-0.439800
C116	C	-0.557078	0.499970	0.060200
C117	C	-0.905588	-0.000026	-0.419923
C118	C	-0.405588	0.499974	0.080077
C119	C	-0.907113	-0.000027	-0.333204
C120	C	-0.407113	0.499973	0.166796
C121	C	-0.983622	-0.000034	-0.299785
C122	C	-0.483622	0.499966	0.200215
C123	C	-0.980573	-0.000029	-0.473224
C124	C	-0.480573	0.499971	0.026776
C125	C	-0.978920	-0.000023	-0.567250
C126	C	-0.478920	0.499977	-0.067250
C127	C	-0.985276	-0.000039	-0.205754
C128	C	-0.485276	0.499961	0.294246
C129	C	-0.975987	-0.000026	0.265501
C130	C	-0.475987	0.499974	0.765501
C131	C	-0.977602	-0.000021	0.357796
C132	C	-0.477602	0.499979	0.857796
H133	H	-0.542731	-0.000025	0.252306
H134	H	-0.042731	0.499975	0.752306
H135	H	-0.385414	-0.000030	0.249542
H136	H	0.114586	0.499970	0.749542
H137	H	-1.084728	-0.734906	0.010923
H138	H	-0.584728	-0.234906	0.510923
H139	H	-1.084679	-0.149731	0.010980
H140	H	-0.584679	0.350269	0.510980
H141	H	-1.120900	-0.000040	-0.325874
H142	H	-0.620900	0.499960	0.174126
N143	N	-0.412630	-0.000047	-0.045520
N144	N	0.087370	0.499953	0.454480
H145	H	-0.349607	-0.000046	-0.035109
H146	H	0.150393	0.499954	0.464891
H147	H	-0.432133	0.037410	-0.078339
H148	H	0.067867	0.537410	0.421661
H149	H	-0.846052	-0.000024	-0.289809
H150	H	-0.346052	0.499976	0.210191
N151	N	-1.099634	-0.273520	-0.003980
N152	N	-0.599634	0.226480	0.496020
H153	H	-1.135455	-0.243708	-0.039772
H154	H	-0.635455	0.256292	0.460228
H155	H	-1.136379	-0.299906	0.027863
H156	H	-0.636379	0.200094	0.527863
H157	H	-0.578790	-0.000040	-0.022542
H158	H	-0.078790	0.499960	0.477458
N159	N	-1.099682	-0.858709	-0.004015
N160	N	-0.599682	-0.358709	0.495985
H161	H	-1.158682	-0.847637	0.005585
H162	H	-0.658682	-0.347637	0.505585
H163	H	-1.091024	-0.903818	0.004602
H164	H	-0.591024	-0.403818	0.504602
N165	N	-1.156192	-0.433902	-0.060513
N166	N	-0.656192	0.066098	0.439487
H167	H	-1.192011	-0.463701	-0.096315
H168	H	-0.692011	0.036299	0.403685
H169	H	-1.124375	-0.407514	-0.097279
H170	H	-0.624375	0.092486	0.402721
N171	N	-1.156214	-0.566095	-0.060511
N172	N	-0.656214	-0.066095	0.439489
H173	H	-1.192035	-0.536281	-0.096301
H174	H	-0.692035	-0.036281	0.403699
H175	H	-1.192958	-0.592474	-0.028656
H176	H	-0.692958	-0.092474	0.471344
N177	N	-1.137948	-0.000031	-0.497284
N178	N	-0.637948	0.499969	0.002716
H179	H	-1.186644	-0.000036	-0.462951
H180	H	-0.686644	0.499964	0.037049
H181	H	-1.140605	-0.037490	-0.533695
H182	H	-0.640605	0.462510	-0.033695
H183	H	-0.879539	-0.850329	0.216014
H184	H	-0.379539	-0.350329	0.716014
H185	H	-0.879515	-0.734947	0.216012
H186	H	-0.379515	-0.234947	0.716012
H187	H	-0.879483	-0.265164	0.216059
H188	H	-0.379483	0.234836	0.716059
H189	H	-0.822933	-0.557741	0.272527
H190	H	-0.322933	-0.057741	0.772527
N191	N	-0.823071	-0.000020	-0.455968
N192	N	-0.323071	0.499980	0.044032
H193	H	-0.833481	-0.000022	-0.518991
H194	H	-0.333481	0.499978	-0.018991
H195	H	-0.790257	-0.037480	-0.436465
H196	H	-0.290257	0.462520	0.063535
H197	H	-0.822921	-0.442357	0.272526
H198	H	-0.322921	0.057643	0.772526
H199	H	-0.879477	-0.149764	0.216061
H200	H	-0.379477	0.350236	0.716061
