data_functionalizedCrystal
_audit_creation_method	'MofGen! by Chris Wilmer'
_symmetry_space_group_name_H-M	'P1'
_symmetry_Int_Tables_number	1
_symmetry_cell_setting	triclinic
loop_
_symmetry_equiv_pos_as_xyz
  x,y,z
_cell_length_a	16.625548
_cell_length_b	21.295417
_cell_length_c	16.625539
_cell_angle_alpha	89.966627
_cell_angle_beta	89.979432
_cell_angle_gamma	90.031575
loop_
_atom_site_label
_atom_site_type_symbol
_atom_site_fract_x
_atom_site_fract_y
_atom_site_fract_z
Zn1	Zn	1.232635	-0.250590	-0.455881
Zn2	Zn	1.732635	0.249410	0.044119
Zn3	Zn	1.232520	-0.355864	-0.321036
Zn4	Zn	1.732520	0.144136	0.178964
Zn5	Zn	1.097797	-0.250614	-0.321061
Zn6	Zn	1.597797	0.249386	0.178939
Zn7	Zn	1.097749	-0.355827	-0.455826
Zn8	Zn	1.597749	0.144173	0.044174
O9	O	1.165175	-0.303224	-0.388451
O10	O	1.665175	0.196776	0.111549
O11	O	1.345452	-0.264560	-0.438006
O12	O	1.845452	0.235440	0.061994
O13	O	1.214620	-0.341927	-0.208207
O14	O	1.714620	0.158073	0.291793
O15	O	1.115753	-0.162522	-0.338979
O16	O	1.615753	0.337478	0.161021
O17	O	1.345367	-0.341904	-0.338936
O18	O	1.845367	0.158096	0.161064
O19	O	1.214818	-0.162504	-0.438030
O20	O	1.714818	0.337496	0.061970
O21	O	1.115640	-0.264601	-0.208226
O22	O	1.615640	0.235399	0.291774
O23	O	0.984958	-0.264566	-0.338926
O24	O	1.484958	0.235434	0.161074
O25	O	1.115670	-0.341842	-0.568666
O26	O	1.615670	0.158158	-0.068666
O27	O	0.984923	-0.341866	-0.437937
O28	O	1.484923	0.158134	0.062063
O29	O	1.214771	-0.264525	-0.568706
O30	O	1.714771	0.235475	-0.068706
O31	O	1.214573	-0.443948	-0.338883
O32	O	1.714573	0.056052	0.161117
O33	O	1.115558	-0.443922	-0.437912
O34	O	1.615558	0.056078	0.062088
C35	C	0.955684	-0.303215	-0.388429
C36	C	1.455684	0.196785	0.111571
C37	C	0.866063	-0.303226	-0.388438
C38	C	1.366063	0.196774	0.111562
C39	C	1.165070	-0.466775	-0.388407
C40	C	1.665070	0.033225	0.111593
C41	C	1.165098	-0.536744	-0.388414
C42	C	1.665098	-0.036744	0.111586
C43	C	0.537888	-0.303230	-0.388473
C44	C	1.037888	0.196770	0.111527
C45	C	0.629196	-0.303227	-0.388460
C46	C	1.129196	0.196773	0.111540
C47	C	0.701973	-0.303229	-0.388455
C48	C	1.201973	0.196771	0.111545
C49	C	0.793287	-0.303225	-0.388444
C50	C	1.293287	0.196775	0.111556
C51	C	1.216701	-0.569603	-0.336903
C52	C	1.716701	-0.069603	0.163097
C53	C	1.216739	-0.635346	-0.336921
C54	C	1.716739	-0.135346	0.163079
C55	C	1.165159	-0.668226	-0.388442
C56	C	1.665159	-0.168226	0.111558
C57	C	1.113552	-0.635359	-0.439964
C58	C	1.613552	-0.135359	0.060036
C59	C	1.113522	-0.569617	-0.439950
C60	C	1.613522	-0.069617	0.060050
N61	N	1.094624	-0.771493	-0.394581
N62	N	1.594624	-0.271493	0.105419
N63	N	1.094656	-0.833944	-0.394590
N64	N	1.594656	-0.333944	0.105410
C65	C	1.165250	-0.866301	-0.388488
C66	C	1.665250	-0.366301	0.111512
N67	N	1.235813	-0.833847	-0.382362
N68	N	1.735813	-0.333847	0.117638
N69	N	1.235780	-0.771389	-0.382350
N70	N	1.735780	-0.271389	0.117650
C71	C	1.165187	-0.739511	-0.388463
C72	C	1.665187	-0.239511	0.111537
C73	C	1.216898	-0.970446	-0.336994
C74	C	1.716898	-0.470446	0.163006
C75	C	1.216937	-1.036189	-0.337017
C76	C	1.716937	-0.536189	0.162983
C77	C	1.113743	-1.036201	-0.440056
C78	C	1.613743	-0.536201	0.059944
C79	C	1.113711	-0.970459	-0.440037
C80	C	1.613711	-0.470459	0.059963
C81	C	1.165288	-0.937585	-0.388501
C82	C	1.665288	-0.437585	0.111499
C83	C	1.375484	-0.303233	-0.388474
C84	C	1.875484	0.196767	0.111526
C85	C	1.465105	-0.303237	-0.388484
C86	C	1.965105	0.196763	0.111516
C87	C	1.165228	-0.303177	-0.598760
C88	C	1.665228	0.196823	-0.098760
C89	C	1.165250	-0.303157	-0.688381
C90	C	1.665250	0.196843	-0.188381
C91	C	1.165303	-0.139033	-0.388514
C92	C	1.665303	0.360967	0.111486
C93	C	1.165358	-0.069065	-0.388540
C94	C	1.665358	0.430935	0.111460
C95	C	1.165287	-0.303086	-1.016557
C96	C	1.665287	0.196914	-0.516557
C97	C	1.165275	-0.303108	-0.925249
C98	C	1.665275	0.196892	-0.425249
C99	C	1.165269	-0.303122	-0.852472
C100	C	1.665269	0.196878	-0.352472
C101	C	1.165256	-0.303143	-0.761158
C102	C	1.665256	0.196857	-0.261158
C103	C	1.165169	-0.303225	-0.178960
C104	C	1.665169	0.196775	0.321040
C105	C	1.165303	-0.303068	-0.089340
C106	C	1.665303	0.196932	0.410660
H107	H	1.258764	-0.662105	-0.294974
H108	H	1.758764	-0.162105	0.205026
O109	O	1.266887	-0.938478	-0.286856
O110	O	1.766887	-0.438478	0.213144
C111	C	1.277760	-0.864282	-0.178021
C112	C	1.777760	-0.364282	0.321979
C113	C	1.221057	-0.900455	-0.234737
C114	C	1.721057	-0.400455	0.265263
H115	H	1.240730	-0.833521	-0.135880
H116	H	1.740730	-0.333521	0.364120
H117	H	1.314643	-0.899033	-0.141150
H118	H	1.814643	-0.399033	0.358850
H119	H	1.319897	-0.833477	-0.215090
H120	H	1.819897	-0.333477	0.284910
H121	H	1.178871	-0.931261	-0.197730
H122	H	1.678871	-0.431261	0.302270
H123	H	1.184230	-0.865670	-0.271611
H124	H	1.684230	-0.365670	0.228389
O125	O	1.063349	-0.537625	-0.489876
O126	O	1.563349	-0.037625	0.010124
C127	C	0.954413	-0.463504	-0.500602
C128	C	1.454413	0.036496	-0.000602
C129	C	1.011196	-0.499685	-0.443972
C130	C	1.511196	0.000315	0.056028
H131	H	0.912222	-0.432831	-0.463510
H132	H	1.412222	0.067169	0.036490
H133	H	0.991349	-0.432630	-0.542774
H134	H	1.491349	0.067370	-0.042774
H135	H	0.917592	-0.498306	-0.537451
H136	H	1.417592	0.001694	-0.037451
H137	H	1.048030	-0.464929	-0.407070
H138	H	1.548030	0.035071	0.092930
H139	H	0.974214	-0.530569	-0.401852
H140	H	1.474214	-0.030569	0.098148
H141	H	1.258700	-0.542839	-0.294941
H142	H	1.758700	-0.042839	0.205059
O143	O	1.063559	-0.667365	-0.490051
O144	O	1.563559	-0.167365	0.009949
C145	C	1.052689	-0.741506	-0.598947
C146	C	1.552689	-0.241506	-0.098947
C147	C	1.109394	-0.705311	-0.542257
C148	C	1.609394	-0.205311	-0.042257
H149	H	1.089725	-0.772184	-0.641182
H150	H	1.589725	-0.272184	-0.141182
H151	H	1.010574	-0.772377	-0.561941
H152	H	1.510574	-0.272377	-0.061941
H153	H	1.015781	-0.706713	-0.635727
H154	H	1.515781	-0.206713	-0.135727
H155	H	1.146354	-0.740058	-0.505465
H156	H	1.646354	-0.240058	-0.005465
H157	H	1.151456	-0.674430	-0.579310
H158	H	1.651456	-0.174430	-0.079310
H159	H	1.258964	-1.062943	-0.295072
H160	H	1.758964	-0.562943	0.204928
O161	O	1.063667	-1.068230	-0.490032
O162	O	1.563667	-0.568230	0.009968
C163	C	1.018023	-1.169514	-0.535764
C164	C	1.518023	-0.669514	-0.035764
C165	C	1.074759	-1.133316	-0.479106
C166	C	1.574759	-0.633316	0.020894
H167	H	1.026984	-1.222141	-0.526962
H168	H	1.526984	-0.722141	-0.026962
H169	H	0.952990	-1.156692	-0.521544
H170	H	1.452990	-0.656692	-0.021544
H171	H	1.032135	-1.156499	-0.600780
H172	H	1.532135	-0.656499	-0.100780
H173	H	1.060720	-1.146311	-0.414072
H174	H	1.560720	-0.646311	0.085928
H175	H	1.139776	-1.146140	-0.493396
H176	H	1.639776	-0.646140	0.006604
O177	O	1.063499	-0.938633	-0.490094
O178	O	1.563499	-0.438633	0.009906
C179	C	0.961181	-0.945584	-0.592324
C180	C	1.461181	-0.445584	-0.092324
C181	C	1.017993	-0.981705	-0.535659
C182	C	1.517993	-0.481705	-0.035659
H183	H	0.924386	-0.980392	-0.629191
H184	H	1.424386	-0.480392	-0.129191
H185	H	0.918973	-0.914876	-0.555296
H186	H	1.418973	-0.414876	-0.055296
H187	H	0.998172	-0.914736	-0.634478
H188	H	1.498172	-0.414736	-0.134478
H189	H	0.981066	-1.012587	-0.493494
H190	H	1.481066	-0.512587	0.006506
H191	H	1.060202	-1.012373	-0.572737
H192	H	1.560202	-0.512373	-0.072737
