data_functionalizedCrystal
_audit_creation_method	'MofGen! by Chris Wilmer'
_symmetry_space_group_name_H-M	'P1'
_symmetry_Int_Tables_number	1
_symmetry_cell_setting	triclinic
loop_
_symmetry_equiv_pos_as_xyz
  x,y,z
_cell_length_a	10.967953
_cell_length_b	10.967961
_cell_length_c	10.065875
_cell_angle_alpha	86.922602
_cell_angle_beta	69.230403
_cell_angle_gamma	82.166346
loop_
_atom_site_label
_atom_site_type_symbol
_atom_site_fract_x
_atom_site_fract_y
_atom_site_fract_z
O1	O	1.744007	0.087801	-0.544275
O2	O	1.367864	0.117607	-0.462829
O3	O	1.557812	-0.072345	-0.462823
O4	O	1.554059	0.277753	-0.544282
O5	O	1.521599	-0.035982	-0.235870
O6	O	1.331650	0.153970	-0.235877
O7	O	1.707794	0.124164	-0.317322
Zn8	Zn	1.513972	0.144840	-0.240566
Zn9	Zn	1.561685	0.096931	-0.539586
O10	O	1.517845	0.314116	-0.317329
C11	C	1.536696	-0.098865	-0.338128
C12	C	1.527713	-0.232062	-0.304697
C13	C	1.301468	0.136368	-0.338133
C14	C	1.157580	0.138078	-0.304699
C15	C	1.774190	0.105403	-0.442022
C16	C	1.918079	0.103691	-0.475465
C17	C	2.112185	0.120003	-0.407356
C18	C	1.963469	0.121768	-0.372793
C19	C	1.533190	-0.447947	-0.372809
C20	C	1.542472	-0.310283	-0.407370
C21	C	1.538962	0.340636	-0.442027
C22	C	1.547946	0.473831	-0.475467
N23	N	1.481418	0.177536	-0.036495
N24	N	1.594249	0.064226	-0.743657
C25	C	1.550350	0.108299	0.031358
C26	C	1.525307	0.133472	0.188494
H27	H	1.892238	0.138558	-0.259311
N28	N	1.422558	0.236675	0.265622
H29	H	1.419229	0.240027	0.366943
H30	H	1.445826	0.317384	0.216263
H31	H	1.989307	0.086916	-0.588951
N32	N	1.568299	-0.264045	-0.557706
H33	H	1.495695	-0.282450	-0.590409
H34	H	1.571298	-0.172272	-0.561019
H35	H	2.086346	0.154867	-0.191224
N36	N	1.696988	-0.038981	0.179208
H37	H	1.785703	-0.024011	0.179601
H38	H	1.673664	-0.119700	0.228506
N39	N	1.653075	0.005097	-0.045798
H40	H	1.741798	0.020055	-0.045419
H41	H	1.629749	-0.075624	0.003494
H42	H	1.403858	0.255443	0.021748
H43	H	1.508198	-0.267002	-0.191211
N44	N	2.206526	0.097779	-0.557674
H45	H	2.299391	0.099669	-0.561057
H46	H	2.198497	0.014725	-0.590315
N47	N	1.507369	-0.494228	-0.222495
H48	H	1.423240	-0.533288	-0.188075
H49	H	1.582844	-0.557242	-0.220080
N50	N	1.573694	-0.479879	-0.625767
H51	H	1.576635	-0.388092	-0.629143
H52	H	1.660602	-0.522335	-0.690343
