data_functionalizedCrystal
_audit_creation_method	'MofGen! by Chris Wilmer'
_symmetry_space_group_name_H-M	'P1'
_symmetry_Int_Tables_number	1
_symmetry_cell_setting	triclinic
loop_
_symmetry_equiv_pos_as_xyz
  x,y,z
_cell_length_a	12.827893
_cell_length_b	13.897447
_cell_length_c	12.827885
_cell_angle_alpha	89.968996
_cell_angle_beta	89.980728
_cell_angle_gamma	90.019501
loop_
_atom_site_label
_atom_site_type_symbol
_atom_site_fract_x
_atom_site_fract_y
_atom_site_fract_z
Zn1	Zn	1.597640	-0.383969	-0.590840
Zn2	Zn	1.597521	-0.545295	-0.416096
Zn3	Zn	1.422881	-0.384016	-0.416113
Zn4	Zn	1.422854	-0.545224	-0.590796
O5	O	1.510224	-0.464626	-0.503462
O6	O	1.743860	-0.405380	-0.567671
O7	O	1.574316	-0.523951	-0.269863
O8	O	1.446124	-0.249028	-0.439317
O9	O	1.743773	-0.523905	-0.439288
O10	O	1.574518	-0.248994	-0.567687
O11	O	1.446009	-0.405460	-0.269875
O12	O	1.276641	-0.405390	-0.439274
O13	O	1.446077	-0.523783	-0.737038
O14	O	1.276621	-0.523829	-0.567613
O15	O	1.574492	-0.405310	-0.737070
O16	O	1.574290	-0.680267	-0.439245
O17	O	1.445963	-0.680215	-0.567597
C18	C	1.238714	-0.464607	-0.503442
C19	C	1.122561	-0.464623	-0.503458
C20	C	1.070794	-0.523321	-0.566866
C21	C	0.950743	-0.523338	-0.566884
C22	C	1.510139	-0.715240	-0.503437
C23	C	1.510198	-0.822454	-0.503462
C24	C	1.510249	-0.909524	-0.503486
C25	C	1.510322	-1.018756	-0.503513
C26	C	1.782794	-0.464645	-0.503482
C27	C	1.898947	-0.464654	-0.503491
C28	C	1.510295	-0.464533	-0.776032
C29	C	1.510325	-0.464494	-0.892185
C30	C	1.510338	-0.213033	-0.503509
C31	C	1.510386	-0.105819	-0.503529
C32	C	1.573876	-0.405858	-0.943986
C33	C	1.573908	-0.405816	-1.064036
C34	C	1.510213	-0.464649	-0.231952
C35	C	1.510385	-0.464416	-0.115799
H36	H	1.078004	-0.414377	-0.449190
H37	H	1.115351	-0.573559	-0.621142
C38	C	1.647350	-0.338081	-0.883840
C39	C	1.602016	-0.262438	-0.808786
C40	C	1.675494	-0.194660	-0.748643
C41	C	1.794306	-0.202524	-0.763553
C42	C	1.839647	-0.278170	-0.838610
C43	C	1.766169	-0.345948	-0.898754
H44	H	1.514058	-0.256614	-0.797745
H45	H	1.641929	-0.138662	-0.693080
H46	H	1.848699	-0.152350	-0.719031
H47	H	1.927604	-0.283994	-0.849651
H48	H	1.799734	-0.401946	-0.954316
H49	H	0.943459	-0.414400	-0.449198
C50	C	1.647415	-0.337994	-1.124207
C51	C	1.638947	-0.228330	-1.109320
C52	C	1.712456	-0.160506	-1.169493
C53	C	1.794434	-0.202345	-1.244552
C54	C	1.802906	-0.312014	-1.259443
C55	C	1.729396	-0.379839	-1.199270
H56	H	1.578259	-0.197354	-1.053753
H57	H	1.706185	-0.079321	-1.158469
H58	H	1.848850	-0.152137	-1.289096
H59	H	1.863593	-0.342991	-1.315009
H60	H	1.735668	-0.461023	-1.210293
C61	C	1.436875	-0.532241	-1.055635
C62	C	1.354897	-0.490402	-0.980576
C63	C	1.281387	-0.558226	-0.920404
C64	C	1.289855	-0.667889	-0.935290
C65	C	1.371836	-0.709734	-1.010353
C66	C	1.445346	-0.641910	-1.070526
H67	H	1.348626	-0.409217	-0.969553
H68	H	1.220699	-0.527249	-0.864837
H69	H	1.235438	-0.718097	-0.890747
H70	H	1.378107	-0.790919	-1.021376
H71	H	1.506034	-0.672887	-1.126092
H72	H	0.906225	-0.573595	-0.621167
H73	H	1.455935	-0.514656	-0.936713
