data_functionalizedCrystal
_audit_creation_method	'MofGen! by Chris Wilmer'
_symmetry_space_group_name_H-M	'P1'
_symmetry_Int_Tables_number	1
_symmetry_cell_setting	triclinic
loop_
_symmetry_equiv_pos_as_xyz
  x,y,z
_cell_length_a	16.120490
_cell_length_b	16.120444
_cell_length_c	12.759393
_cell_angle_alpha	92.864729
_cell_angle_beta	87.082653
_cell_angle_gamma	90.165174
loop_
_atom_site_label
_atom_site_type_symbol
_atom_site_fract_x
_atom_site_fract_y
_atom_site_fract_z
Zn1	Zn	1.254487	-0.395628	-0.699338
Zn2	Zn	1.247323	-0.534700	-0.532073
Zn3	Zn	1.115421	-0.388601	-0.514348
Zn4	Zn	1.108336	-0.527574	-0.698383
O5	O	1.181392	-0.461626	-0.611035
O6	O	1.369902	-0.420000	-0.684968
O7	O	1.229793	-0.515361	-0.382701
O8	O	1.139832	-0.273170	-0.531869
O9	O	1.364639	-0.522175	-0.562078
O10	O	1.242003	-0.278333	-0.667781
O11	O	1.132885	-0.408022	-0.369679
O12	O	0.998116	-0.401112	-0.530943
O13	O	1.127757	-0.510030	-0.845530
O14	O	0.992910	-0.503215	-0.666153
O15	O	1.235133	-0.413090	-0.846232
O16	O	1.222923	-0.650117	-0.561152
O17	O	1.120810	-0.644882	-0.683340
C18	C	0.965341	-0.450629	-0.596521
C19	C	0.872912	-0.445944	-0.590338
C20	C	1.170343	-0.677672	-0.624090
C21	C	1.165692	-0.770102	-0.629715
C22	C	0.659943	-0.485919	-0.643109
C23	C	0.703689	-0.437399	-0.579049
C24	C	0.797853	-0.442155	-0.585332
C25	C	0.565770	-0.481164	-0.636827
C26	C	1.205721	-0.983081	-0.582095
C27	C	1.157217	-0.939327	-0.639997
C28	C	1.161934	-0.845161	-0.634274
C29	C	1.201005	-1.077255	-0.587816
C30	C	1.398287	-0.472666	-0.625607
C31	C	1.490714	-0.477371	-0.631816
C32	C	1.181453	-0.461549	-0.885068
C33	C	1.181480	-0.461516	-1.001844
C34	C	1.192507	-0.244737	-0.597954
C35	C	1.197243	-0.152311	-0.592380
C36	C	1.231943	-0.517387	-1.063483
C37	C	1.231970	-0.517353	-1.173207
C38	C	1.131063	-0.405574	-1.159642
C39	C	1.131041	-0.405605	-1.049921
C40	C	1.290198	-0.581924	-1.071316
C41	C	1.290225	-0.581890	-1.181039
C42	C	1.181382	-0.461644	-0.338069
C43	C	1.181528	-0.461451	-0.221290
H44	H	0.670420	-0.392288	-0.519486
H45	H	0.693209	-0.531027	-0.702667
H46	H	1.112147	-0.972589	-0.693866
N47	N	1.262257	-0.941348	-0.514529
N48	N	1.266053	-0.863803	-0.509924
H49	H	1.305980	-0.834320	-0.462206
H50	H	1.089956	-0.360103	-0.999738
H51	H	1.269679	-0.645405	-1.213543
H52	H	1.089998	-0.360053	-1.198800
N53	N	1.372096	-0.564417	-1.038096
N54	N	1.429814	-0.552050	-1.104670
H55	H	1.487653	-0.539686	-1.081210
H56	H	1.263994	-0.641938	-1.039423
H57	H	1.352596	-0.561932	-1.217790
