data_functionalizedCrystal
_audit_creation_method	'MofGen! by Chris Wilmer'
_symmetry_space_group_name_H-M	'P1'
_symmetry_Int_Tables_number	1
_symmetry_cell_setting	triclinic
loop_
_symmetry_equiv_pos_as_xyz
  x,y,z
_cell_length_a	14.908782
_cell_length_b	16.120444
_cell_length_c	14.908308
_cell_angle_alpha	84.013251
_cell_angle_beta	83.240320
_cell_angle_gamma	89.466071
loop_
_atom_site_label
_atom_site_type_symbol
_atom_site_fract_x
_atom_site_fract_y
_atom_site_fract_z
Zn1	Zn	1.329303	-0.427083	0.456644
Zn2	Zn	1.330250	-0.558899	0.312959
Zn3	Zn	1.187563	-0.411911	0.313166
Zn4	Zn	1.170225	-0.558853	0.473017
O5	O	1.254335	-0.489187	0.388947
O6	O	1.455717	-0.450937	0.430645
O7	O	1.318974	-0.533071	0.185956
O8	O	1.213225	-0.297262	0.325433
O9	O	1.456413	-0.547782	0.325081
O10	O	1.317360	-0.308409	0.430846
O11	O	1.214143	-0.425079	0.186108
O12	O	1.058974	-0.425035	0.341310
O13	O	1.183675	-0.547703	0.597876
O14	O	1.046236	-0.532992	0.458752
O15	O	1.300549	-0.450892	0.585847
O16	O	1.302162	-0.675554	0.340957
O17	O	1.184593	-0.675521	0.458551
C18	C	1.019860	-0.477363	0.401830
C19	C	0.919548	-0.472326	0.407365
C20	C	1.241623	-0.705789	0.401527
C21	C	1.236265	-0.798458	0.406935
C22	C	0.731793	-0.563550	0.307654
C23	C	0.637541	-0.558820	0.312852
C24	C	0.636789	-0.458140	0.422961
C25	C	0.731041	-0.462870	0.417764
C26	C	0.778540	-0.515576	0.360107
C27	C	0.872794	-0.520301	0.354906
C28	C	0.872040	-0.419626	0.465019
C29	C	0.777788	-0.414896	0.470217
C30	C	1.282338	-1.009410	0.361077
C31	C	1.226499	-0.968121	0.416816
C32	C	1.231934	-0.873712	0.411316
C33	C	1.276904	-1.103828	0.366576
C34	C	1.489726	-0.501057	0.376013
C35	C	1.590036	-0.506116	0.370502
C36	C	1.240072	-0.500985	0.625720
C37	C	1.233994	-0.506013	0.726619
C38	C	1.267121	-0.271741	0.376336
C39	C	1.272569	-0.179078	0.370962
C40	C	1.268598	-0.477376	0.153088
C41	C	1.274865	-0.472122	0.052167
C42	C	1.344272	-0.414632	0.903692
C43	C	1.338564	-0.419353	0.998495
C44	C	1.216867	-0.520172	1.011029
C45	C	1.222575	-0.515451	0.916226
C46	C	1.286280	-0.462680	0.862561
C47	C	1.291992	-0.457963	0.767756
C48	C	1.170291	-0.558777	0.780292
C49	C	1.164583	-0.563499	0.875095
H50	H	0.911467	-0.563215	0.307957
O51	O	0.731781	-0.363686	0.526297
C52	C	0.740989	-0.264284	0.634917
C53	C	0.793199	-0.322262	0.571460
H54	H	0.790625	-0.230764	0.671434
H55	H	0.691798	-0.302736	0.687037
H56	H	0.701887	-0.216383	0.593203
H57	H	0.832354	-0.370173	0.613099
H58	H	0.842337	-0.283754	0.519339
O59	O	1.164619	-1.010657	0.478593
C60	C	1.102776	-1.144913	0.540523
C61	C	1.172880	-1.096839	0.470511
H62	H	1.109444	-1.214601	0.534027
H63	H	1.031919	-1.123521	0.527548
H64	H	1.115108	-1.132202	0.611879
H65	H	1.160632	-1.109527	0.399129
H66	H	1.243713	-1.118238	0.483566
H67	H	1.334222	-0.973858	0.309230
O68	O	0.917588	-0.373106	0.515946
C69	C	1.062459	-0.335729	0.556693
C70	C	1.010988	-0.388473	0.498991
H71	H	1.137984	-0.348121	0.542992
H72	H	1.038739	-0.353192	0.631759
H73	H	1.048755	-0.266772	0.537998
H74	H	1.024668	-0.457444	0.517607
H75	H	1.034716	-0.370940	0.423939
H76	H	1.343865	-0.414996	0.724063
H77	H	0.598099	-0.415237	0.469910
H78	H	0.599483	-0.597887	0.270141
H79	H	1.396147	-0.371668	0.859997
O80	O	1.394993	-0.372652	1.038304
C81	C	1.516265	-0.272117	1.015864
C82	C	1.452427	-0.324978	0.970664
H83	H	1.562703	-0.233546	0.961198
H84	H	1.558599	-0.314940	1.059844
H85	H	1.474701	-0.228685	1.060025
H86	H	1.493920	-0.368415	0.926458
H87	H	1.410090	-0.282105	0.926738
O88	O	1.155054	-0.571401	1.063301
C89	C	1.092265	-0.623277	1.214910
C90	C	1.162331	-0.565249	1.155821
H91	H	1.098112	-0.618310	1.289724
H92	H	1.105265	-0.690399	1.199387
H93	H	1.021497	-0.604037	1.199356
H94	H	1.233127	-0.584414	1.171341
H95	H	1.149252	-0.498140	1.171354
H96	H	1.123072	-0.597904	0.746793
O97	O	0.777796	-0.614814	0.251633
C98	C	0.768603	-0.714134	0.142923
C99	C	0.716393	-0.656125	0.206344
H100	H	0.718983	-0.747537	0.106275
H101	H	0.807649	-0.762125	0.184587
H102	H	0.817845	-0.675634	0.090904
H103	H	0.667105	-0.694556	0.258375
H104	H	0.677408	-0.608132	0.164620
O105	O	1.102782	-0.614742	0.927362
C106	C	1.040014	-0.666658	1.078966
C107	C	1.110059	-0.608603	1.019884
H108	H	1.045861	-0.661701	1.153781
H109	H	1.053035	-0.733773	1.063427
H110	H	0.969238	-0.647433	1.063420
H111	H	1.180862	-0.627752	1.035396
H112	H	1.096959	-0.541502	1.035433
