data_functionalizedCrystal
_audit_creation_method	'MofGen! by Chris Wilmer'
_symmetry_space_group_name_H-M	'P1'
_symmetry_Int_Tables_number	1
_symmetry_cell_setting	triclinic
loop_
_symmetry_equiv_pos_as_xyz
  x,y,z
_cell_length_a	8.559649
_cell_length_b	17.038272
_cell_length_c	7.088929
_cell_angle_alpha	83.325468
_cell_angle_beta	95.325015
_cell_angle_gamma	80.445110
loop_
_atom_site_label
_atom_site_type_symbol
_atom_site_fract_x
_atom_site_fract_y
_atom_site_fract_z
O1	O	2.101368	-0.017362	-0.158956
O2	O	1.641608	0.022690	-0.158968
O3	O	1.868757	-0.110988	-0.158947
O4	O	1.874219	0.116317	-0.158977
O5	O	1.899108	-0.128889	0.159031
O6	O	1.671959	0.004789	0.159010
O7	O	2.131720	-0.035263	0.159022
Cu8	Cu	1.904611	-0.016871	0.188050
Cu9	Cu	1.868717	0.004298	-0.187996
O10	O	1.904570	0.098416	0.159001
C11	C	1.597666	0.016775	0.000020
C12	C	1.421514	0.025810	0.000016
C13	C	1.878962	-0.148769	0.000042
C14	C	1.864133	-0.234674	0.000041
C15	C	2.000285	-0.292946	0.000046
C16	C	1.986340	-0.373660	0.000028
C17	C	1.836242	-0.396101	0.000018
C18	C	1.700079	-0.337821	0.000006
C19	C	1.714024	-0.257108	0.000011
C20	C	1.786975	-0.638906	-0.000010
C21	C	1.773041	-0.719626	-0.000009
C22	C	2.059303	-0.755459	0.000009
C23	C	2.073236	-0.674743	0.000025
C24	C	1.937072	-0.616470	0.000004
C25	C	1.821985	-0.478604	0.000005
C26	C	1.951329	-0.533968	0.000003
C27	C	2.175661	-0.029347	0.000030
C28	C	2.351812	-0.038381	0.000022
C29	C	1.894365	0.136197	0.000008
C30	C	1.909193	0.222102	-0.000003
N31	N	1.929868	-0.031762	0.452540
N32	N	1.843471	0.019182	-0.452486
H33	H	1.346417	0.087683	-0.000003
H34	H	2.019427	-0.084554	0.534205
H35	H	1.426899	-0.100250	0.000020
O36	O	1.627096	-0.741283	-0.000124
C37	C	1.509905	-0.672545	-0.000103
H38	H	1.556058	-0.616870	-0.060292
H39	H	1.481918	-0.667042	0.152438
C40	C	1.300669	-0.748480	-0.050910
C41	C	1.357350	-0.680100	-0.124849
H42	H	1.206563	-0.753142	-0.127851
H43	H	1.379622	-0.794791	-0.050917
H44	H	1.277359	-0.743887	0.076207
H45	H	1.380678	-0.684700	-0.251953
H46	H	1.278397	-0.633790	-0.124866
O47	O	2.146205	-0.271282	-0.000033
C48	C	2.263388	-0.340029	0.000009
H49	H	2.205736	-0.388920	-0.060190
H50	H	2.320480	-0.362715	0.152557
C51	C	2.462955	-0.258387	-0.050759
C52	C	2.392149	-0.318433	-0.124711
H53	H	2.542386	-0.245066	-0.127684
H54	H	2.384009	-0.212070	-0.050780
H55	H	2.510519	-0.277300	0.076364
H56	H	2.344569	-0.299516	-0.251821
H57	H	2.471090	-0.364746	-0.124714
H58	H	2.097211	-0.421103	0.000036
H59	H	2.195462	-0.656479	0.000034
H60	H	1.577864	-0.356098	-0.000014
O61	O	1.736842	0.082196	0.449904
C62	C	1.817383	0.131376	0.334132
H63	H	1.934298	0.094667	0.304321
H64	H	1.843405	0.183720	0.411152
C65	C	1.568677	0.209067	0.180509
C66	C	1.712269	0.163977	0.143881
H67	H	1.503837	0.229180	0.063157
H68	H	1.514414	0.175935	0.258511
H69	H	1.590384	0.252681	0.244697
H70	H	1.690562	0.120359	0.079716
H71	H	1.766526	0.197102	0.065863
O72	O	1.676120	-0.500320	0.000260
C73	C	1.608189	-0.478997	0.164970
H74	H	1.664244	-0.428581	0.219886
H75	H	1.631197	-0.533406	0.280280
C76	C	1.358337	-0.512235	0.047496
C77	C	1.427176	-0.450308	0.114935
H78	H	1.246679	-0.494542	0.016637
H79	H	1.404104	-0.526604	-0.063470
H80	H	1.377526	-0.557570	0.143599
H81	H	1.408004	-0.404978	0.018825
H82	H	1.381401	-0.435931	0.225885
H83	H	2.170160	-0.802912	0.000023
H84	H	1.676099	-0.591468	-0.000027
H85	H	1.603153	-0.209662	0.000006
H86	H	2.073534	-0.515691	-0.000031
