data_functionalizedCrystal
_audit_creation_method	'MofGen! by Chris Wilmer'
_symmetry_space_group_name_H-M	'P1'
_symmetry_Int_Tables_number	1
_symmetry_cell_setting	triclinic
loop_
_symmetry_equiv_pos_as_xyz
  x,y,z
_cell_length_a	12.759401
_cell_length_b	18.215404
_cell_length_c	12.759393
_cell_angle_alpha	90.034583
_cell_angle_beta	89.981504
_cell_angle_gamma	89.975900
loop_
_atom_site_label
_atom_site_type_symbol
_atom_site_fract_x
_atom_site_fract_y
_atom_site_fract_z
Zn1	Zn	1.606188	0.292935	-0.593961
Zn2	Zn	1.939522	0.626268	-0.260628
Zn3	Zn	2.272855	0.959602	0.072706
Zn4	Zn	1.606055	0.416022	-0.418272
Zn5	Zn	1.939388	0.749355	-0.084939
Zn6	Zn	2.272721	1.082688	0.248395
Zn7	Zn	1.430490	0.292974	-0.418300
Zn8	Zn	1.763824	0.626307	-0.084967
Zn9	Zn	2.097157	0.959641	0.248367
Zn10	Zn	1.430451	0.415965	-0.593913
Zn11	Zn	1.763784	0.749298	-0.260580
Zn12	Zn	2.097118	1.082632	0.072753
O13	O	1.518296	0.354474	-0.506112
O14	O	1.851629	0.687807	-0.172778
O15	O	2.184963	1.021141	0.160555
O16	O	1.753192	0.309270	-0.570663
O17	O	2.086525	0.642603	-0.237330
O18	O	2.419858	0.975937	0.096003
O19	O	1.582726	0.399739	-0.271254
O20	O	1.916060	0.733072	0.062079
O21	O	2.249393	1.066406	0.395412
O22	O	1.453870	0.189985	-0.441634
O23	O	1.787203	0.523318	-0.108300
O24	O	2.120536	0.856651	0.225033
O25	O	1.753094	0.399701	-0.441586
O26	O	2.086427	0.733035	-0.108252
O27	O	2.419760	1.066368	0.225081
O28	O	1.582954	0.189956	-0.570691
O29	O	1.916287	0.523289	-0.237358
O30	O	2.249621	0.856623	0.095976
O31	O	1.453740	0.309336	-0.271275
O32	O	1.787073	0.642670	0.062058
O33	O	2.120407	0.976003	0.395391
O34	O	1.283464	0.309282	-0.441587
O35	O	1.616798	0.642615	-0.108254
O36	O	1.950131	0.975948	0.225079
O37	O	1.453802	0.399605	-0.740941
O38	O	1.787136	0.732938	-0.407607
O39	O	2.120469	1.066272	-0.074274
O40	O	1.283435	0.399643	-0.570610
O41	O	1.616769	0.732976	-0.237276
O42	O	1.950102	1.066309	0.096057
O43	O	1.582916	0.309215	-0.740976
O44	O	1.916249	0.642549	-0.407642
O45	O	2.249582	0.975882	-0.074309
O46	O	1.582688	0.518998	-0.441539
O47	O	1.916022	0.852332	-0.108206
O48	O	2.249355	1.185665	0.225127
O49	O	1.453673	0.518957	-0.570582
O50	O	1.787006	0.852290	-0.237249
O51	O	2.120339	1.185623	0.096084
C52	C	1.245329	0.354461	-0.506097
C53	C	1.578662	0.687794	-0.172764
C54	C	1.911995	1.021127	0.160570
C55	C	1.128552	0.354473	-0.506116
C56	C	1.461885	0.687806	-0.172782
C57	C	1.795219	1.021139	0.160551
C58	C	0.963971	0.401607	-0.573199
C59	C	1.297305	0.734940	-0.239866
C60	C	1.630638	1.068273	0.093468
C61	C	1.073696	0.401598	-0.573188
C62	C	1.407029	0.734932	-0.239855
C63	C	1.740362	1.068265	0.093478
C64	C	1.073679	0.307358	-0.439042
C65	C	1.407012	0.640691	-0.105709
C66	C	1.740346	0.974024	0.227624
C67	C	0.963957	0.307370	-0.439049
C68	C	1.297290	0.640704	-0.105715
C69	C	1.630624	0.974037	0.227618
C70	C	1.518190	0.545680	-0.506075
C71	C	1.851524	0.879014	-0.172742
C72	C	2.184857	1.212347	0.160591
C73	C	1.518241	0.627479	-0.506095
C74	C	1.851574	0.960812	-0.172762
C75	C	2.184908	1.294146	0.160572
C76	C	1.585582	0.815670	-0.439040
C77	C	1.918915	1.149003	-0.105707
C78	C	2.252249	1.482337	0.227626
C79	C	1.585631	0.892529	-0.439072
C80	C	1.918964	1.225862	-0.105738
C81	C	2.252298	1.559196	0.227595
C82	C	1.451171	0.892526	-0.573334
C83	C	1.784504	1.225859	-0.240000
C84	C	2.117838	1.559192	0.093333
C85	C	1.451128	0.815668	-0.573307
C86	C	1.784461	1.149002	-0.239974
C87	C	2.117795	1.482335	0.093360
C88	C	1.518332	0.777243	-0.506154
C89	C	1.851665	1.110576	-0.172821
C90	C	2.184999	1.443909	0.160512
C91	C	1.518424	0.930959	-0.506212
C92	C	1.851757	1.264292	-0.172879
C93	C	2.185091	1.597625	0.160454
C94	C	1.518477	1.014292	-0.506247
C95	C	1.851810	1.347626	-0.172913
C96	C	2.185143	1.680959	0.160420
C97	C	1.518281	0.693904	-0.506121
C98	C	1.851614	1.027237	-0.172788
C99	C	2.184948	1.360570	0.160546
C100	C	1.792329	0.354488	-0.506127
C101	C	2.125663	0.687821	-0.172793
C102	C	2.458996	1.021154	0.160540
C103	C	1.909106	0.354494	-0.506133
C104	C	2.242439	0.687827	-0.172800
C105	C	2.575773	1.021160	0.160534
C106	C	1.518370	0.354399	-0.780145
C107	C	1.851703	0.687733	-0.446812
C108	C	2.185036	1.021066	-0.113478
C109	C	1.518401	0.354368	-0.896922
C110	C	1.851734	0.687701	-0.563588
C111	C	2.185067	1.021034	-0.230255
C112	C	1.518438	1.162521	-0.506190
C113	C	1.851771	1.495854	-0.172856
C114	C	2.185104	1.829188	0.160477
C115	C	1.518515	1.080722	-0.506272
C116	C	1.851848	1.414055	-0.172938
C117	C	2.185182	1.747389	0.160395
C118	C	1.451262	0.307287	-0.951794
C119	C	1.784595	0.640620	-0.618461
C120	C	2.117928	0.973953	-0.285127
C121	C	1.451286	0.307264	-1.061518
C122	C	1.784620	0.640597	-0.728185
C123	C	2.117953	0.973931	-0.394852
C124	C	1.585598	0.401406	-1.061488
C125	C	1.918931	0.734739	-0.728155
C126	C	2.252265	1.068072	-0.394821
C127	C	1.585567	0.401432	-0.951766
C128	C	1.918901	0.734765	-0.618433
C129	C	2.252234	1.068098	-0.285099
C130	C	1.518284	0.354495	-0.233144
C131	C	1.851617	0.687828	0.100189
C132	C	2.184950	1.021162	0.433523
C133	C	1.518456	0.354319	-0.116368
C134	C	1.851789	0.687653	0.216965
C135	C	2.185122	1.020986	0.550299
H136	H	0.919284	0.269004	-0.384431
H137	H	1.252618	0.602337	-0.051097
H138	H	1.585951	0.935671	0.282236
H139	H	1.118362	0.439963	-0.627799
H140	H	1.451695	0.773297	-0.294466
H141	H	1.785029	1.106630	0.038868
Br142	Br	1.359969	0.944679	-0.664464
Br143	Br	1.693302	1.278013	-0.331130
Br144	Br	2.026636	1.611346	0.002203
Br145	Br	1.676684	0.465338	-0.877289
Br146	Br	2.010017	0.798671	-0.543956
Br147	Br	2.343350	1.132004	-0.210622
Br148	Br	1.676787	0.763523	-0.347906
Br149	Br	2.010121	1.096856	-0.014572
Br150	Br	2.343454	1.430190	0.318761
H151	H	1.396365	0.784378	-0.627964
H152	H	1.729698	1.117712	-0.294631
H153	H	2.063032	1.451045	0.038702
Br154	Br	1.676909	0.944678	-0.347990
Br155	Br	2.010242	1.278011	-0.014657
Br156	Br	2.343576	1.611345	0.318677
H157	H	1.396570	0.268964	-0.907143
H158	H	1.729904	0.602298	-0.573810
H159	H	2.063237	0.935631	-0.240476
H160	H	0.919315	0.439978	-0.627823
H161	H	1.252648	0.773311	-0.294490
H162	H	1.585982	1.106644	0.038844
H163	H	1.396614	0.268926	-1.106190
H164	H	1.729947	0.602260	-0.772857
H165	H	2.063281	0.935593	-0.439524
Br166	Br	1.148126	0.243405	-0.348008
Br167	Br	1.481459	0.576738	-0.014675
Br168	Br	1.814793	0.910072	0.318659
H169	H	1.640283	0.439723	-1.106155
H170	H	1.973617	0.773056	-0.772822
H171	H	2.306950	1.106389	-0.439489
