data_functionalizedCrystal
_audit_creation_method	'MofGen! by Chris Wilmer'
_symmetry_space_group_name_H-M	'P1'
_symmetry_Int_Tables_number	1
_symmetry_cell_setting	triclinic
loop_
_symmetry_equiv_pos_as_xyz
  x,y,z
_cell_length_a	12.759395
_cell_length_b	15.297327
_cell_length_c	12.759387
_cell_angle_alpha	80.357435
_cell_angle_beta	90.020509
_cell_angle_gamma	99.708038
loop_
_atom_site_label
_atom_site_type_symbol
_atom_site_fract_x
_atom_site_fract_y
_atom_site_fract_z
Zn1	Zn	1.533819	-0.359077	0.666313
Zn2	Zn	2.033819	0.140923	1.166313
Zn3	Zn	1.503266	-0.509964	0.521018
Zn4	Zn	2.003266	-0.009964	1.021018
Zn5	Zn	1.358107	-0.359126	0.490660
Zn6	Zn	1.858107	0.140874	0.990660
Zn7	Zn	1.327678	-0.509900	0.696644
Zn8	Zn	1.827678	-0.009900	1.196644
O9	O	1.430717	-0.434517	0.593659
O10	O	1.930717	0.065483	1.093659
O11	O	1.676786	-0.379099	0.647051
O12	O	2.176786	0.120901	1.147051
O13	O	1.483958	-0.490002	0.369979
O14	O	1.983958	0.009998	0.869979
O15	O	1.406937	-0.232874	0.488562
O16	O	1.906937	0.267126	0.988562
O17	O	1.654338	-0.489955	0.540303
O18	O	2.154338	0.010045	1.040303
O19	O	1.536031	-0.232838	0.617614
O20	O	2.036031	0.267162	1.117614
O21	O	1.377311	-0.379183	0.347675
O22	O	1.877311	0.120817	0.847675
O23	O	1.207051	-0.379120	0.517973
O24	O	1.707051	0.120880	1.017973
O25	O	1.355076	-0.489845	0.839632
O26	O	1.855076	0.010155	1.339632
O27	O	1.184695	-0.489893	0.669309
O28	O	1.684695	0.010107	1.169309
O29	O	1.506526	-0.379037	0.817348
O30	O	2.006526	0.120963	1.317348
O31	O	1.454452	-0.636201	0.569714
O32	O	1.954452	-0.136201	1.069714
O33	O	1.325449	-0.636154	0.698746
O34	O	1.825449	-0.136154	1.198746
C35	C	1.157752	-0.434506	0.593639
C36	C	1.657752	0.065494	1.093639
C37	C	1.040972	-0.434523	0.593659
C38	C	1.540972	0.065477	1.093659
C39	C	1.017694	-0.550057	0.751065
C40	C	1.517694	-0.050057	1.251065
C41	C	0.951193	-0.607831	0.829773
C42	C	1.451193	-0.107831	1.329773
C43	C	0.841469	-0.607842	0.829788
C44	C	1.341469	-0.107842	1.329788
C45	C	0.798245	-0.550070	0.751089
C46	C	1.298245	-0.050070	1.251089
C47	C	0.864747	-0.492296	0.672381
C48	C	1.364747	0.007704	1.172381
C49	C	0.974471	-0.492294	0.672373
C50	C	1.474471	0.007706	1.172373
C51	C	0.888026	-0.376759	0.514982
C52	C	1.388026	0.123241	1.014982
C53	C	0.997749	-0.376751	0.514960
C54	C	1.497749	0.123249	1.014960
C55	C	0.844802	-0.318988	0.436283
C56	C	1.344802	0.181012	0.936283
C57	C	0.911303	-0.261217	0.357569
C58	C	1.411303	0.238783	0.857569
C59	C	1.021033	-0.261209	0.357556
C60	C	1.521033	0.238791	0.857556
C61	C	1.064250	-0.318977	0.436253
C62	C	1.564250	0.181023	0.936253
C63	C	1.383362	-0.668911	0.640838
C64	C	1.883362	-0.168911	1.140838
C65	C	1.363199	-0.769187	0.661057
C66	C	1.863199	-0.269187	1.161057
C67	C	1.575257	-1.051818	0.449512
C68	C	2.075257	-0.551818	0.949512
C69	C	1.594200	-0.957605	0.430510
C70	C	2.094200	-0.457605	0.930510
C71	C	1.536452	-0.910495	0.488145
C72	C	2.036452	-0.410495	0.988145
C73	C	1.459756	-0.957609	0.564785
C74	C	1.959756	-0.457609	1.064785
C75	C	1.440805	-1.051832	0.583783
C76	C	1.940805	-0.551832	1.083783
C77	C	1.402000	-0.910509	0.622416
C78	C	1.902000	-0.410509	1.122416
C79	C	1.325305	-0.957623	0.699056
C80	C	1.825305	-0.457623	1.199056
C81	C	1.306358	-1.051836	0.718051
C82	C	1.806358	-0.551836	1.218051
C83	C	1.364106	-1.098945	0.660416
C84	C	1.864106	-0.598945	1.160416
C85	C	1.420952	-0.816286	0.603419
C86	C	1.920952	-0.316286	1.103419
C87	C	1.286500	-0.816300	0.737690
C88	C	1.786500	-0.316300	1.237690
C89	C	1.267557	-0.910513	0.756692
C90	C	1.767557	-0.410513	1.256692
C91	C	1.704749	-0.434528	0.593680
C92	C	2.204749	0.065472	1.093680
C93	C	1.821524	-0.434533	0.593689
C94	C	2.321524	0.065467	1.093689
C95	C	1.430815	-0.434428	0.867675
C96	C	1.930815	0.065572	1.367675
C97	C	1.430856	-0.434391	0.984444
C98	C	1.930856	0.065609	1.484444
C99	C	1.478287	-0.199207	0.546318
C100	C	1.978287	0.300793	1.046318
C101	C	1.498558	-0.098932	0.526145
C102	C	1.998558	0.401068	1.026145
C103	C	1.430694	-0.434540	0.320696
C104	C	1.930694	0.065460	0.820696
C105	C	1.430908	-0.434323	0.203876
C106	C	1.930908	0.065677	0.703876
C107	C	1.588569	-0.319013	0.961261
C108	C	2.088569	0.180987	1.461261
C109	C	1.667443	-0.261311	1.004527
C110	C	2.167443	0.238689	1.504527
C111	C	1.667475	-0.261278	1.114242
C112	C	2.167475	0.238722	1.614242
C113	C	1.588623	-0.318952	1.180694
C114	C	2.088623	0.181048	1.680694
C115	C	1.509749	-0.376654	1.137428
C116	C	2.009749	0.123346	1.637428
C117	C	1.509727	-0.376682	1.027709
C118	C	2.009727	0.123318	1.527709
C119	C	1.352034	-0.492025	1.160610
C120	C	1.852034	0.007975	1.660610
C121	C	1.352004	-0.492064	1.050896
C122	C	1.852004	0.007936	1.550896
C123	C	1.273182	-0.549699	1.227062
C124	C	1.773182	-0.049699	1.727062
C125	C	1.194310	-0.607407	1.183796
C126	C	1.694310	-0.107407	1.683796
C127	C	1.194282	-0.607438	1.074074
C128	C	1.694282	-0.107438	1.574074
C129	C	1.273130	-0.549766	1.007629
C130	C	1.773130	-0.049766	1.507629
H131	H	0.876102	-0.214180	0.293503
H132	H	1.376102	0.285820	0.793503
H133	H	1.588559	-0.319043	0.871926
H134	H	2.088559	0.180957	1.371926
H135	H	0.708903	-0.550077	0.751116
H136	H	1.208903	-0.050077	1.251116
H137	H	0.755459	-0.318997	0.436304
H138	H	1.255459	0.181003	0.936304
H139	H	1.075174	-0.214156	0.293469
H140	H	1.575174	0.285844	0.793469
H141	H	1.348689	-1.175661	0.675886
H142	H	1.848689	-0.675661	1.175886
F143	F	1.181026	-0.318978	0.436242
F144	F	1.681026	0.181022	0.936242
F145	F	1.273217	-0.549662	1.343830
F146	F	1.773217	-0.049662	1.843830
F147	F	1.110327	-0.668850	1.028035
F148	F	1.610327	-0.168850	1.528035
F149	F	1.224726	-1.101975	0.799614
F150	F	1.724726	-0.601975	1.299614
H151	H	1.273118	-0.549790	0.918293
H152	H	1.773118	-0.049790	1.418293
H153	H	1.731696	-0.214286	1.149468
H154	H	2.231696	0.285714	1.649468
F155	F	1.110396	-0.668776	1.254522
F156	F	1.610396	-0.168776	1.754522
F157	F	1.502574	-0.766155	0.521855
F158	F	2.002574	-0.266155	1.021855
F159	F	1.556841	-0.810225	0.468145
F160	F	2.056841	-0.310225	0.968145
H161	H	0.787323	-0.654882	0.893883
H162	H	1.287323	-0.154882	1.393883
F163	F	1.134469	-0.550061	0.751045
F164	F	1.634469	-0.050061	1.251045
F165	F	1.675829	-0.907470	0.348955
F166	F	2.175829	-0.407470	0.848955
F167	F	1.636705	-1.101960	0.388179
F168	F	2.136705	-0.601960	0.888179
F169	F	1.751342	-0.199916	0.933795
F170	F	2.251342	0.300084	1.433795
F171	F	1.225030	-0.766168	0.799028
F172	F	1.725030	-0.266168	1.299028
H173	H	1.205110	-0.948887	0.819092
H174	H	1.705110	-0.448887	1.319092
H175	H	1.588649	-0.318912	1.270028
H176	H	2.088649	0.181088	1.770028
H177	H	0.986398	-0.654865	0.893849
H178	H	1.486398	-0.154865	1.393849
