data_functionalizedCrystal
_audit_creation_method	'MofGen! by Chris Wilmer'
_symmetry_space_group_name_H-M	'P1'
_symmetry_Int_Tables_number	1
_symmetry_cell_setting	triclinic
loop_
_symmetry_equiv_pos_as_xyz
  x,y,z
_cell_length_a	18.101395
_cell_length_b	18.101398
_cell_length_c	17.077396
_cell_angle_alpha	89.992101
_cell_angle_beta	89.970929
_cell_angle_gamma	90.026661
loop_
_atom_site_label
_atom_site_type_symbol
_atom_site_fract_x
_atom_site_fract_y
_atom_site_fract_z
Zn1	Zn	-0.294906	1.132107	-0.443656
Zn2	Zn	0.205094	1.632107	0.056344
Zn3	Zn	-0.418758	1.132007	-0.312393
Zn4	Zn	0.081242	1.632007	0.187607
Zn5	Zn	-0.294925	1.008270	-0.312425
Zn6	Zn	0.205075	1.508270	0.187575
Zn7	Zn	-0.418700	1.008217	-0.443637
Zn8	Zn	0.081300	1.508217	0.056363
O9	O	-0.356822	1.070151	-0.378028
O10	O	0.143178	1.570151	0.121972
O11	O	-0.311351	1.235727	-0.426238
O12	O	0.188649	1.735727	0.073762
O13	O	-0.402363	1.115574	-0.202550
O14	O	0.097637	1.615574	0.297450
O15	O	-0.191290	1.024762	-0.329855
O16	O	0.308710	1.524762	0.170145
O17	O	-0.402345	1.235653	-0.329799
O18	O	0.097655	1.735653	0.170201
O19	O	-0.191275	1.115744	-0.426270
O20	O	0.308725	1.615744	0.073730
O21	O	-0.311384	1.024665	-0.202574
O22	O	0.188616	1.524665	0.297426
O23	O	-0.311328	0.904630	-0.329836
O24	O	0.188672	1.404630	0.170164
O25	O	-0.402247	1.024671	-0.553487
O26	O	0.097753	1.524671	-0.053487
O27	O	-0.402265	0.904591	-0.426237
O28	O	0.097735	1.404591	0.073763
O29	O	-0.311295	1.115693	-0.553501
O30	O	0.188705	1.615693	-0.053501
O31	O	-0.522383	1.115522	-0.329781
O32	O	-0.022383	1.615522	0.170219
O33	O	-0.522341	1.024574	-0.426206
O34	O	-0.022341	1.524574	0.073794
C35	C	-0.356793	0.877740	-0.378039
C36	C	0.143207	1.377740	0.121961
C37	C	-0.356799	0.795426	-0.378062
C38	C	0.143201	1.295426	0.121938
C39	C	-0.549233	1.070051	-0.378005
C40	C	-0.049233	1.570051	0.121995
C41	C	-0.631547	1.070077	-0.378021
C42	C	-0.131547	1.570077	0.121979
C43	C	-0.356842	0.496335	-0.378029
C44	C	0.143158	0.996335	0.121971
C45	C	-0.414334	0.527660	-0.438383
C46	C	0.085666	1.027660	0.061617
C47	C	-0.414154	0.613279	-0.438631
C48	C	0.085846	1.113279	0.061369
C49	C	-0.356821	0.644718	-0.378046
C50	C	0.143179	1.144718	0.121954
C51	C	-0.278818	0.613662	-0.400650
C52	C	0.221182	1.113662	0.099350
C53	C	-0.279163	0.528017	-0.401079
C54	C	0.220837	1.028017	0.098921
C55	C	-0.376666	0.527885	-0.294926
C56	C	0.123334	1.027885	0.205074
C57	C	-0.378377	0.613535	-0.295370
C58	C	0.121623	1.113535	0.204630
C59	C	-0.356805	0.728577	-0.378053
C60	C	0.143195	1.228577	0.121947
C61	C	-0.356854	0.412475	-0.378023
C62	C	0.143146	0.912475	0.121977
C63	C	-0.930638	1.070239	-0.378063
C64	C	-0.430638	1.570239	0.121937
C65	C	-0.899317	1.013150	-0.438882
C66	C	-0.399317	1.513150	0.061118
C67	C	-0.813699	1.012879	-0.438692
C68	C	-0.313699	1.512879	0.061308
C69	C	-0.782255	1.070159	-0.378043
C70	C	-0.282255	1.570159	0.121957
C71	C	-0.813407	1.049032	-0.295317
C72	C	-0.313407	1.549032	0.204683
C73	C	-0.899053	1.048664	-0.295681
C74	C	-0.399053	1.548664	0.204319
C75	C	-0.898987	1.148580	-0.399243
C76	C	-0.398987	1.648580	0.100757
C77	C	-0.813336	1.148120	-0.401057
C78	C	-0.313336	1.648120	0.098943
C79	C	-0.698396	1.070114	-0.378027
C80	C	-0.198396	1.570114	0.121973
C81	C	-1.014497	1.070282	-0.378074
C82	C	-0.514497	1.570282	0.121926
C83	C	-0.163660	1.070270	-0.378068
C84	C	0.336340	1.570270	0.121932
C85	C	-0.081346	1.070321	-0.378085
C86	C	0.418654	1.570321	0.121915
C87	C	-0.356762	1.070187	-0.582772
C88	C	0.143238	1.570187	-0.082772
C89	C	-0.356737	1.070203	-0.670022
C90	C	0.143263	1.570203	-0.170022
C91	C	-0.356852	1.263312	-0.378017
C92	C	0.143148	1.763312	0.121983
C93	C	-0.356865	1.345627	-0.378013
C94	C	0.143135	1.845627	0.121987
C95	C	-0.404023	1.117606	-1.045827
C96	C	0.095977	1.617606	-0.545827
C97	C	-0.404045	1.117588	-0.963846
C98	C	0.095955	1.617588	-0.463846
C99	C	-0.356685	1.070250	-0.922871
C100	C	0.143315	1.570250	-0.422871
C101	C	-0.309304	1.022924	-0.963881
C102	C	0.190696	1.522924	-0.463881
C103	C	-0.309287	1.022939	-1.045860
C104	C	0.190713	1.522939	-0.545860
C105	C	-0.309343	1.022896	-0.793011
C106	C	0.190657	1.522896	-0.293011
C107	C	-0.309359	1.022881	-0.711026
C108	C	0.190641	1.522881	-0.211026
C109	C	-0.404101	1.117544	-0.710997
C110	C	0.095899	1.617544	-0.210997
C111	C	-0.404083	1.117560	-0.792976
C112	C	0.095917	1.617560	-0.292976
C113	C	-0.356702	1.070234	-0.833980
C114	C	0.143298	1.570234	-0.333980
C115	C	-0.356829	1.070157	-0.174080
C116	C	0.143171	1.570157	0.325920
C117	C	-0.356646	1.070285	-0.086831
C118	C	0.143354	1.570285	0.413169
H119	H	-0.471998	0.634274	-0.424464
H120	H	0.028002	1.134274	0.075536
N121	N	-0.258243	0.971849	-0.837239
N122	N	0.241757	1.471849	-0.337239
H123	H	-0.228241	0.941860	-0.798844
H124	H	0.271759	1.441860	-0.298844
H125	H	-0.223971	1.002025	-0.871261
H126	H	0.276029	1.502025	-0.371261
H127	H	-0.334789	0.507628	-0.249957
H128	H	0.165211	1.007628	0.250043
N129	N	-0.326933	0.641858	-0.232597
N130	N	0.173067	1.141858	0.267403
H131	H	-0.356193	0.670287	-0.192249
H132	H	0.143807	1.170287	0.307751
H133	H	-0.288761	0.675427	-0.257029
H134	H	0.211239	1.175427	0.242971
H135	H	-0.792634	1.026096	-0.500033
H136	H	-0.292634	1.526096	-0.000033
H137	H	-0.919864	1.026236	-0.500421
H138	H	-0.419864	1.526236	-0.000421
H139	H	-0.261701	0.635125	-0.460742
H140	H	0.238299	1.135125	0.039258
N141	N	-0.927899	0.936697	-0.420541
N142	N	-0.427899	1.436697	0.079459
H143	H	-0.961048	0.938881	-0.373007
H144	H	-0.461048	1.438881	0.126993
H145	H	-0.884890	0.902699	-0.409643
H146	H	-0.384890	1.402699	0.090357
H147	H	-0.472366	0.507045	-0.424374
H148	H	0.027634	1.007045	0.075626
N149	N	-0.926521	1.101339	-0.233609
N150	N	-0.426521	1.601339	0.266391
H151	H	-0.907818	1.152764	-0.245227
H152	H	-0.407818	1.652764	0.254773
H153	H	-0.907824	1.084973	-0.180668
H154	H	-0.407824	1.584973	0.319332
N155	N	-0.220529	0.640636	-0.344249
N156	N	0.279471	1.140636	0.155751
H157	H	-0.233143	0.623600	-0.289530
H158	H	0.266857	1.123600	0.210470
H159	H	-0.218577	0.696383	-0.345592
H160	H	0.281423	1.196383	0.154408
N161	N	-0.397171	0.499175	-0.519474
N162	N	0.102829	0.999175	-0.019474
H163	H	-0.386919	0.542190	-0.555560
H164	H	0.113081	1.042190	-0.055560
H165	H	-0.440792	0.470171	-0.539843
H166	H	0.059208	0.970171	-0.039843
N167	N	-0.454409	0.640425	-0.272784
N168	N	0.045591	1.140425	0.227216
H169	H	-0.467967	0.620193	-0.219561
H170	H	0.032033	1.120193	0.280439
H171	H	-0.491552	0.622903	-0.312803
H172	H	0.008448	1.122903	0.187197
H173	H	-0.270746	0.984377	-0.930513
H174	H	0.229254	1.484377	-0.430513
N175	N	-0.455141	1.168634	-0.919622
N176	N	0.044859	1.668634	-0.419622
H177	H	-0.425055	1.202961	-0.885615
H178	H	0.074945	1.702961	-0.385615
H179	H	-0.489455	1.138459	-0.885647
H180	H	0.010545	1.638459	-0.385647
N181	N	-0.786630	0.935966	-0.420102
N182	N	-0.286630	1.435966	0.079898
H183	H	-0.805382	0.900344	-0.461048
H184	H	-0.305382	1.400344	0.038952
H185	H	-0.805544	0.920616	-0.366880
H186	H	-0.305544	1.420616	0.133120
H187	H	-0.432573	0.506272	-0.274383
H188	H	0.067427	1.006272	0.225617
N189	N	-0.925604	0.972812	-0.271912
N190	N	-0.425604	1.472812	0.228088
H191	H	-0.881673	0.939928	-0.261298
H192	H	-0.381673	1.439928	0.238702
H193	H	-0.956228	0.950926	-0.315555
H194	H	-0.456228	1.450926	0.184445
H195	H	-0.793042	1.089305	-0.248768
H196	H	-0.293042	1.589305	0.251232
N197	N	-0.785077	0.973979	-0.271124
N198	N	-0.285077	1.473979	0.228876
H199	H	-0.801491	0.935765	-0.310543
H200	H	-0.301491	1.435765	0.189457
H201	H	-0.805435	0.960941	-0.217808
H202	H	-0.305435	1.460941	0.282192
H203	H	-0.920535	1.167842	-0.458538
H204	H	-0.420535	1.667842	0.041462
N205	N	-0.455203	1.168591	-0.666773
N206	N	0.044797	1.668591	-0.166773
H207	H	-0.448101	1.161321	-0.608623
H208	H	0.051899	1.661321	-0.108623
H209	H	-0.508084	1.157105	-0.681169
H210	H	-0.008084	1.657105	-0.181169
N211	N	-0.258190	0.971896	-1.090090
N212	N	0.241810	1.471896	-0.590090
H213	H	-0.228189	0.941906	-1.051694
H214	H	0.271811	1.441906	-0.551694
H215	H	-0.223917	1.002068	-1.124114
H216	H	0.276083	1.502068	-0.624114
N217	N	-0.258285	0.971820	-0.666829
N218	N	0.241715	1.471820	-0.166829
H219	H	-0.228272	0.941835	-0.705242
H220	H	0.271728	1.441835	-0.205242
H221	H	-0.288441	0.937530	-0.632810
H222	H	0.211559	1.437530	-0.132810
N223	N	-0.256889	0.501532	-0.481535
N224	N	0.243111	1.001532	0.018465
H225	H	-0.210724	0.470464	-0.477385
H226	H	0.289276	0.970464	0.022615
H227	H	-0.246970	0.545523	-0.516379
H228	H	0.253030	1.045523	-0.016379
N229	N	-0.786365	1.169231	-0.481700
N230	N	-0.286365	1.669231	0.018300
H231	H	-0.754146	1.128472	-0.503242
H232	H	-0.254146	1.628472	-0.003242
H233	H	-0.756823	1.216468	-0.478321
H234	H	-0.256823	1.716468	0.021679
N235	N	-0.396775	0.640433	-0.520192
N236	N	0.103225	1.140433	-0.020192
H237	H	-0.346612	0.621587	-0.536669
H238	H	0.153388	1.121587	-0.036669
H239	H	-0.396627	0.696226	-0.520642
H240	H	0.103373	1.196226	-0.020642
H241	H	-0.791928	1.192904	-0.359988
H242	H	-0.291928	1.692904	0.140012
N243	N	-0.220508	0.500551	-0.345393
N244	N	0.279492	1.000551	0.154607
H245	H	-0.170563	0.519301	-0.362777
H246	H	0.329437	1.019301	0.137223
H247	H	-0.220354	0.444757	-0.345269
H248	H	0.279646	0.944757	0.154731
N249	N	-0.925811	1.204925	-0.340570
N250	N	-0.425811	1.704925	0.159430
H251	H	-0.958305	1.179869	-0.300462
H252	H	-0.458305	1.679869	0.199538
H253	H	-0.955031	1.244430	-0.368554
H254	H	-0.455031	1.744430	0.131446
H255	H	-0.442645	1.156110	-0.826336
H256	H	0.057355	1.656110	-0.326336
N257	N	-0.455102	1.168668	-1.090018
N258	N	0.044898	1.668668	-0.590018
H259	H	-0.485119	1.198641	-1.051599
H260	H	0.014881	1.698641	-0.551599
H261	H	-0.489360	1.138507	-1.124024
H262	H	0.010640	1.638507	-0.624024
