data_functionalizedCrystal
_audit_creation_method	'MofGen! by Chris Wilmer'
_symmetry_space_group_name_H-M	'P1'
_symmetry_Int_Tables_number	1
_symmetry_cell_setting	triclinic
loop_
_symmetry_equiv_pos_as_xyz
  x,y,z
_cell_length_a	12.759401
_cell_length_b	12.645330
_cell_length_c	12.759401
_cell_angle_alpha	90.006233
_cell_angle_beta	90.002245
_cell_angle_gamma	90.017853
loop_
_atom_site_label
_atom_site_type_symbol
_atom_site_fract_x
_atom_site_fract_y
_atom_site_fract_z
Zn1	Zn	1.606065	-0.422221	0.593992
Zn2	Zn	1.606000	-0.599452	0.418317
Zn3	Zn	1.430417	-0.422203	0.418331
Zn4	Zn	1.430346	-0.599444	0.593958
O5	O	1.518207	-0.510830	0.506150
O6	O	1.753077	-0.445742	0.570696
O7	O	1.582711	-0.575935	0.271298
O8	O	1.453774	-0.273858	0.441653
O9	O	1.753030	-0.575953	0.441629
O10	O	1.582822	-0.273872	0.570710
O11	O	1.453711	-0.445711	0.271309
O12	O	1.283386	-0.445704	0.441621
O13	O	1.453654	-0.575939	0.740984
O14	O	1.283335	-0.575922	0.570653
O15	O	1.582753	-0.445735	0.741008
O16	O	1.582643	-0.747798	0.441596
O17	O	1.453591	-0.747792	0.570639
C18	C	1.245240	-0.510811	0.506135
C19	C	1.128463	-0.510828	0.506154
C20	C	1.073602	-0.578741	0.573230
C21	C	0.963878	-0.578754	0.573241
C22	C	0.963886	-0.442939	0.439092
C23	C	1.073608	-0.442921	0.439087
C24	C	1.128457	-0.646648	0.640298
C25	C	1.073595	-0.714567	0.707378
C26	C	0.963871	-0.714580	0.707390
C27	C	0.909008	-0.646674	0.640320
C28	C	1.518130	-0.786260	0.506135
C29	C	1.518194	-0.904090	0.506164
C30	C	1.437342	-1.071694	0.587595
C31	C	1.436928	-0.949135	0.587333
C32	C	1.488252	-0.948648	0.395442
C33	C	1.487758	-1.071246	0.395937
C34	C	1.629482	-1.071188	0.534556
C35	C	1.628800	-0.948582	0.536977
C36	C	1.792240	-0.510850	0.506165
C37	C	1.909017	-0.510859	0.506171
C38	C	1.518203	-0.510838	0.780183
C39	C	1.518201	-0.510841	0.896959
C40	C	1.518313	-0.234325	0.506187
C41	C	1.518358	-0.116495	0.506203
C42	C	1.451028	-0.443050	1.061551
C43	C	1.451036	-0.443043	0.951827
C44	C	1.585371	-0.578644	0.951821
C45	C	1.585367	-0.578645	1.061543
C46	C	1.383850	-0.375254	1.116413
C47	C	1.316682	-0.307450	1.061559
C48	C	1.316690	-0.307443	0.951835
C49	C	1.383866	-0.375241	0.896965
C50	C	1.518199	-0.510848	1.233182
C51	C	1.518190	-0.510849	1.116406
H52	H	1.118271	-0.769847	0.761990
H53	H	1.651380	-0.919458	0.618462
H54	H	1.545390	-0.919469	0.333143
H55	H	1.118277	-0.387612	0.384475
H56	H	1.355473	-1.102589	0.569052
H57	H	1.354545	-0.919894	0.568550
H58	H	1.217799	-0.646646	0.640294
H59	H	0.919208	-0.387654	0.384487
H60	H	0.919206	-0.769876	0.762017
H61	H	1.640061	-0.633842	0.907138
H62	H	1.383874	-0.375223	0.807621
H63	H	1.455658	-0.919008	0.669432
H64	H	0.819664	-0.646682	0.640344
H65	H	1.455899	-1.101133	0.669964
H66	H	1.406526	-1.099930	0.371918
H67	H	1.544208	-1.100883	0.333226
H68	H	1.383835	-0.375254	1.205756
H69	H	1.262006	-0.252227	0.907176
H70	H	1.407867	-0.918029	0.370989
H71	H	1.640058	-0.633851	1.106207
H72	H	1.656802	-1.102058	0.613921
H73	H	1.692337	-0.917913	0.482012
H74	H	1.689841	-1.100157	0.475275
H75	H	1.261996	-0.252246	1.106241
