data_functionalizedCrystal
_audit_creation_method	'MofGen! by Chris Wilmer'
_symmetry_space_group_name_H-M	'P1'
_symmetry_Int_Tables_number	1
_symmetry_cell_setting	triclinic
loop_
_symmetry_equiv_pos_as_xyz
  x,y,z
_cell_length_a	16.625548
_cell_length_b	13.897448
_cell_length_c	13.897433
_cell_angle_alpha	90.071518
_cell_angle_beta	89.950353
_cell_angle_gamma	89.981240
loop_
_atom_site_label
_atom_site_type_symbol
_atom_site_fract_x
_atom_site_fract_y
_atom_site_fract_z
Zn1	Zn	1.232939	0.383567	-0.545411
Zn2	Zn	1.482939	0.633567	-0.295411
Zn3	Zn	1.732939	0.883567	-0.045411
Zn4	Zn	1.982939	1.133567	0.204589
Zn5	Zn	1.232785	0.545004	-0.384112
Zn6	Zn	1.482785	0.795004	-0.134112
Zn7	Zn	1.732785	1.045004	0.115888
Zn8	Zn	1.982785	1.295004	0.365888
Zn9	Zn	1.098032	0.383728	-0.384126
Zn10	Zn	1.348032	0.633728	-0.134126
Zn11	Zn	1.598032	0.883728	0.115874
Zn12	Zn	1.848032	1.133728	0.365874
Zn13	Zn	1.098082	0.544825	-0.545362
Zn14	Zn	1.348082	0.794825	-0.295362
Zn15	Zn	1.598082	1.044825	-0.045362
Zn16	Zn	1.848082	1.294825	0.204638
O17	O	1.165459	0.464281	-0.464753
O18	O	1.415459	0.714281	-0.214753
O19	O	1.665459	0.964281	0.035247
O20	O	1.915459	1.214281	0.285247
O21	O	1.345751	0.404990	-0.524029
O22	O	1.595751	0.654990	-0.274029
O23	O	1.845751	0.904990	-0.024029
O24	O	2.095751	1.154990	0.225971
O25	O	1.214824	0.523752	-0.249132
O26	O	1.464824	0.773752	0.000868
O27	O	1.714824	1.023752	0.250868
O28	O	1.964824	1.273752	0.500868
O29	O	1.115971	0.248725	-0.405547
O30	O	1.365971	0.498725	-0.155547
O31	O	1.615971	0.748725	0.094453
O32	O	1.865971	0.998725	0.344453
O33	O	1.345638	0.523597	-0.405524
O34	O	1.595638	0.773597	-0.155524
O35	O	1.845638	1.023597	0.094476
O36	O	2.095638	1.273597	0.344476
O37	O	1.215087	0.248607	-0.524043
O38	O	1.465087	0.498607	-0.274043
O39	O	1.715087	0.748607	-0.024043
O40	O	1.965087	0.998607	0.225957
O41	O	1.115822	0.405263	-0.249142
O42	O	1.365822	0.655263	0.000858
O43	O	1.615822	0.905263	0.250858
O44	O	1.865822	1.155263	0.500858
O45	O	0.985206	0.405090	-0.405500
O46	O	1.235206	0.655090	-0.155500
O47	O	1.485206	0.905090	0.094500
O48	O	1.735206	1.155090	0.344500
O49	O	1.116057	0.523291	-0.680351
O50	O	1.366057	0.773291	-0.430351
O51	O	1.616057	1.023291	-0.180351
O52	O	1.866057	1.273291	0.069649
O53	O	0.985243	0.523447	-0.523959
O54	O	1.235243	0.773447	-0.273959
O55	O	1.485243	1.023447	-0.023959
O56	O	1.735243	1.273447	0.226041
O57	O	1.215135	0.404816	-0.680387
O58	O	1.465135	0.654816	-0.430387
O59	O	1.715135	0.904816	-0.180387
O60	O	1.965135	1.154816	0.069613
O61	O	1.214873	0.679962	-0.405476
O62	O	1.464873	0.929962	-0.155476
O63	O	1.714873	1.179962	0.094524
O64	O	1.964873	1.429962	0.344524
O65	O	1.115907	0.679830	-0.523946
O66	O	1.365907	0.929830	-0.273946
O67	O	1.615907	1.179830	-0.023946
O68	O	1.865907	1.429830	0.226054
C69	C	1.165401	0.714895	-0.464725
C70	C	1.415401	0.964895	-0.214725
C71	C	1.665401	1.214895	0.035275
C72	C	1.915401	1.464895	0.285275
C73	C	1.165449	0.822109	-0.464745
C74	C	1.415449	1.072109	-0.214745
C75	C	1.665449	1.322109	0.035255
C76	C	1.915449	1.572109	0.285255
C77	C	0.955969	0.464267	-0.464726
C78	C	1.205969	0.714267	-0.214726
C79	C	1.455969	0.964267	0.035274
C80	C	1.705969	1.214267	0.285274
C81	C	0.866347	0.464284	-0.464737
C82	C	1.116347	0.714284	-0.214737
C83	C	1.366347	0.964284	0.035263
C84	C	1.616347	1.214284	0.285263
C85	C	1.165619	0.464016	-0.716347
C86	C	1.415619	0.714016	-0.466347
C87	C	1.665619	0.964016	-0.216347
C88	C	1.915619	1.214016	0.033653
C89	C	1.165686	0.463903	-0.823561
C90	C	1.415686	0.713903	-0.573561
C91	C	1.665686	0.963903	-0.323561
C92	C	1.915686	1.213903	-0.073561
C93	C	0.538172	0.464291	-0.464779
C94	C	0.788172	0.714291	-0.214779
C95	C	1.038172	0.964291	0.035221
C96	C	1.288172	1.214291	0.285221
C97	C	0.629480	0.464286	-0.464764
C98	C	0.879480	0.714286	-0.214764
C99	C	1.129480	0.964286	0.035236
C100	C	1.379480	1.214286	0.285236
C101	C	0.702257	0.464288	-0.464757
C102	C	0.952257	0.714288	-0.214757
C103	C	1.202257	0.964288	0.035243
C104	C	1.452257	1.214288	0.285243
C105	C	0.793571	0.464283	-0.464744
C106	C	1.043571	0.714283	-0.214744
C107	C	1.293571	0.964283	0.035256
C108	C	1.543571	1.214283	0.285256
C109	C	1.375768	0.464295	-0.464781
C110	C	1.625768	0.714295	-0.214781
C111	C	1.875768	0.964295	0.035219
C112	C	2.125768	1.214295	0.285219
C113	C	1.465389	0.464302	-0.464792
C114	C	1.715389	0.714302	-0.214792
C115	C	1.965389	0.964302	0.035208
C116	C	2.215389	1.214302	0.285208
C117	C	1.165540	0.212688	-0.464802
C118	C	1.415540	0.462688	-0.214802
C119	C	1.665540	0.712688	0.035198
C120	C	1.915540	0.962688	0.285198
C121	C	1.165575	0.105474	-0.464823
C122	C	1.415575	0.355474	-0.214823
C123	C	1.665575	0.605474	0.035177
C124	C	1.915575	0.855474	0.285177
C125	C	1.165534	1.018404	-0.464806
C126	C	1.415534	1.268404	-0.214806
C127	C	1.665534	1.518404	0.035194
C128	C	1.915534	1.768404	0.285194
C129	C	1.165484	0.909172	-0.464775
C130	C	1.415484	1.159172	-0.214775
C131	C	1.665484	1.409172	0.035225
C132	C	1.915484	1.659172	0.285225
C133	C	1.165347	0.464475	-0.214138
C134	C	1.415347	0.714475	0.035862
C135	C	1.665347	0.964475	0.285862
C136	C	1.915347	1.214475	0.535862
C137	C	1.165436	0.464316	-0.106925
C138	C	1.415436	0.714316	0.143075
C139	C	1.665436	0.964316	0.393075
C140	C	1.915436	1.214316	0.643075
C141	C	1.165615	0.464033	0.089370
C142	C	1.415615	0.714033	0.339370
C143	C	1.665615	0.964033	0.589370
C144	C	1.915615	1.214033	0.839370
C145	C	1.165518	0.464193	-0.019862
C146	C	1.415518	0.714193	0.230138
C147	C	1.665518	0.964193	0.480138
C148	C	1.915518	1.214193	0.730138
