data_functionalizedCrystal
_audit_creation_method	'MofGen! by Chris Wilmer'
_symmetry_space_group_name_H-M	'P1'
_symmetry_Int_Tables_number	1
_symmetry_cell_setting	triclinic
loop_
_symmetry_equiv_pos_as_xyz
  x,y,z
_cell_length_a	15.944493
_cell_length_b	14.421503
_cell_length_c	12.837942
_cell_angle_alpha	90.005286
_cell_angle_beta	90.848008
_cell_angle_gamma	90.007064
loop_
_atom_site_label
_atom_site_type_symbol
_atom_site_fract_x
_atom_site_fract_y
_atom_site_fract_z
O1	O	1.125231	0.077099	-0.133393
O2	O	0.881998	0.077103	-0.149938
O3	O	0.998221	0.077095	0.009236
O4	O	1.009008	0.077107	-0.292567
O5	O	0.998201	-0.077128	0.009213
O6	O	0.881978	-0.077120	-0.149962
O7	O	1.125211	-0.077125	-0.133416
Cu8	Cu	1.003593	-0.091204	-0.141691
Cu9	Cu	1.003616	0.091183	-0.141663
O10	O	1.008988	-0.077117	-0.292591
C11	C	0.850639	-0.000008	-0.149274
C12	C	0.757229	-0.000006	-0.147247
C13	C	0.528964	-0.000002	-0.240940
C14	C	0.474354	-0.076048	-0.190427
C15	C	0.586207	-0.000008	-0.143490
C16	C	0.474376	0.076004	-0.190380
C17	C	0.421008	-0.000006	-0.139868
C18	C	0.532827	-0.076117	-0.093002
C19	C	0.532854	0.076004	-0.092970
C20	C	0.478271	-0.000061	-0.042385
C21	C	0.681374	-0.000010	-0.145579
C22	C	0.325843	-0.000011	-0.137772
N23	N	1.003583	-0.219485	-0.141710
C24	C	0.949828	-0.469135	-0.215280
C25	C	1.027339	-0.530939	-0.235385
C26	C	1.003601	-0.408647	-0.141686
C27	C	0.926112	-0.530938	-0.121604
C28	C	1.003613	-0.591368	-0.141664
C29	C	1.081154	-0.469089	-0.161838
C30	C	0.979874	-0.469083	-0.048016
C31	C	1.057436	-0.530858	-0.068082
C32	C	1.003594	-0.303386	-0.141701
C33	C	1.003629	-0.696627	-0.141648
C34	C	1.156570	-0.000011	-0.134081
C35	C	1.249981	-0.000007	-0.136108
C36	C	0.994567	-0.000016	0.047844
C37	C	0.983699	-0.000014	0.162919
N38	N	1.003632	0.219464	-0.141636
C39	C	1.012642	-0.000004	-0.331199
C40	C	1.023510	0.000001	-0.446274
C41	C	1.114353	0.000003	0.403902
C42	C	1.104145	0.000005	0.512026
C43	C	0.953077	-0.000002	0.487293
C44	C	0.963285	-0.000004	0.379169
C45	C	1.043925	-0.000003	0.337478
C46	C	1.054132	-0.000011	0.229352
C47	C	0.903065	-0.000011	0.204621
C48	C	0.892857	-0.000010	0.312745
H49	H	0.456085	-0.000108	0.041622
O50	O	0.814587	-0.000054	0.353421
C51	C	0.731909	-0.000001	0.509029
C52	C	0.820599	0.000032	0.463107
H53	H	0.736739	0.000089	0.597716
H54	H	0.696649	-0.064563	0.481744
H55	H	0.696676	0.064521	0.481613
H56	H	0.855902	-0.064446	0.490502
H57	H	0.855796	0.064637	0.490387
H58	H	0.959774	-0.441891	0.031163
O59	O	0.555526	0.000040	-0.341120
C60	C	0.554724	0.079410	-0.506295
C61	C	0.524565	0.079472	-0.392880
H62	H	0.529719	0.143634	-0.548169
H63	H	0.530627	0.014545	-0.547750
H64	H	0.626212	0.080031	-0.506904
H65	H	0.453082	0.078884	-0.392175
H66	H	0.548725	0.144332	-0.351472
H67	H	0.448701	-0.140335	-0.231591
O68	O	0.563415	-0.152869	-0.044027
C69	C	0.686320	-0.238945	0.009036
C70	C	0.651791	-0.151997	-0.046472
H71	H	0.757777	-0.238259	0.007097
H72	H	0.661758	-0.303701	-0.032218
H73	H	0.664981	-0.239211	0.093398
H74	H	0.673117	-0.151641	-0.130835
H75	H	0.676349	-0.087280	-0.005137
O76	O	1.172494	-0.000115	0.576657
C77	C	1.248665	-0.080034	0.713035
C78	C	1.171211	-0.080005	0.639917
H79	H	1.247663	-0.144627	0.764184
H80	H	1.247673	-0.015534	0.764351
H81	H	1.308039	-0.079987	0.664638
H82	H	1.111797	-0.080085	0.688232
H83	H	1.172278	-0.144499	0.588598
O84	O	0.847870	-0.563235	-0.101468
C85	C	0.702773	-0.568542	-0.156367
C86	C	0.791336	-0.531892	-0.179271
H87	H	0.657045	-0.543232	-0.219269
H88	H	0.682036	-0.542008	-0.077159
H89	H	0.703690	-0.647583	-0.155751
H90	H	0.790488	-0.452853	-0.179942
H91	H	0.812038	-0.558496	-0.258463
O92	O	0.563447	0.152793	-0.044057
C93	C	0.568339	0.319760	-0.040104
C94	C	0.533645	0.232865	-0.095598
H95	H	0.544243	0.384520	-0.081739
H96	H	0.639807	0.318714	-0.041526
H97	H	0.546603	0.320369	0.044093
H98	H	0.555318	0.232199	-0.179816
H99	H	0.462180	0.233944	-0.094092
O100	O	0.443659	0.152629	-0.239486
C101	C	0.320649	0.238942	-0.291646
C102	C	0.355315	0.152122	-0.236014
H103	H	0.249220	0.238571	-0.288838
H104	H	0.341338	0.238840	-0.376270
H105	H	0.345738	0.303730	-0.250948
H106	H	0.330243	0.087288	-0.276626
H107	H	0.334634	0.152305	-0.151388
H108	H	1.146711	-0.442036	-0.178908
H109	H	1.119793	-0.000014	0.195409
O110	O	0.895745	-0.436836	-0.289716
C111	C	0.859666	-0.431757	-0.472563
C112	C	0.920983	-0.468381	-0.388372
H113	H	0.880038	-0.457262	-0.552343
H114	H	0.859730	-0.352711	-0.471470
H115	H	0.793793	-0.458236	-0.456185
H116	H	0.986885	-0.441970	-0.404693
H117	H	0.920846	-0.547426	-0.389485
H118	H	0.845718	-0.000023	0.150526
H119	H	1.102970	-0.557789	-0.005833
O120	O	1.051310	-0.563519	-0.329795
C121	C	1.078795	-0.698048	-0.435260
C122	C	1.051667	-0.661279	-0.328282
H123	H	1.079076	-0.777090	-0.434079
H124	H	1.144440	-0.671619	-0.453011
H125	H	1.032892	-0.672645	-0.497918
H126	H	1.097511	-0.686667	-0.265556
H127	H	0.986004	-0.687700	-0.310621
O128	O	1.192741	0.000044	0.363569
C129	C	1.341502	-0.000009	0.399507
C130	C	1.252775	-0.000036	0.445321
H131	H	1.390065	-0.000094	0.465581
H132	H	1.350118	0.064549	0.349550
H133	H	1.350007	-0.064535	0.349460
H134	H	1.244209	0.064446	0.495414
H135	H	1.244201	-0.064637	0.495218
H136	H	0.887424	0.000007	0.521258
