data_functionalizedCrystal
_audit_creation_method	'MofGen! by Chris Wilmer'
_symmetry_space_group_name_H-M	'P1'
_symmetry_Int_Tables_number	1
_symmetry_cell_setting	triclinic
loop_
_symmetry_equiv_pos_as_xyz
  x,y,z
_cell_length_a	10.540539
_cell_length_b	17.038272
_cell_length_c	9.016244
_cell_angle_alpha	89.997742
_cell_angle_beta	89.994699
_cell_angle_gamma	87.818524
loop_
_atom_site_label
_atom_site_type_symbol
_atom_site_fract_x
_atom_site_fract_y
_atom_site_fract_z
O1	O	1.696177	0.110247	-0.123272
O2	O	2.196177	0.610247	0.376728
O3	O	1.327733	0.120634	-0.123290
O4	O	1.827733	0.620634	0.376710
O5	O	1.509765	0.001613	-0.123269
O6	O	2.009765	0.501613	0.376731
O7	O	1.514144	0.229268	-0.123293
O8	O	2.014144	0.729268	0.376707
O9	O	1.509737	0.001615	0.123411
O10	O	2.009737	0.501615	0.623411
O11	O	1.327704	0.120637	0.123390
O12	O	1.827704	0.620637	0.623390
O13	O	1.696149	0.110249	0.123409
O14	O	2.196149	0.610249	0.623409
Cu15	Cu	1.511924	0.115443	0.145924
Cu16	Cu	2.011924	0.615443	0.645924
Cu17	Cu	1.511957	0.115440	-0.145805
Cu18	Cu	2.011957	0.615440	0.354195
O19	O	1.514116	0.229271	0.123388
O20	O	2.014116	0.729271	0.623388
C21	C	1.280343	0.119857	0.000048
C22	C	1.780343	0.619857	0.500048
C23	C	1.139177	0.117526	0.000041
C24	C	1.639177	0.617526	0.500041
C25	C	0.947420	0.028219	0.000626
C26	C	1.447420	0.528219	0.500626
C27	C	1.094259	0.030581	0.000055
C28	C	1.594259	0.530581	0.500055
C29	C	1.081424	0.159366	-0.140824
C30	C	1.581424	0.659366	0.359176
C31	C	0.934603	0.156399	-0.140927
C32	C	1.434603	0.656399	0.359073
C33	C	0.934247	0.158170	0.139595
C34	C	1.434247	0.658170	0.639595
C35	C	1.081304	0.158971	0.141442
C36	C	1.581304	0.658971	0.641442
C37	C	1.505768	-0.027537	0.000071
C38	C	2.005768	0.472463	0.500071
C39	C	1.493883	-0.114398	0.000070
C40	C	1.993883	0.385602	0.500070
C41	C	1.602994	-0.163886	0.000077
C42	C	2.102994	0.336114	0.500077
C43	C	1.591820	-0.245501	0.000062
C44	C	2.091820	0.254499	0.500062
C45	C	1.471534	-0.277626	0.000051
C46	C	1.971534	0.222374	0.500051
C47	C	1.362416	-0.228133	0.000039
C48	C	1.862416	0.271867	0.500039
C49	C	1.373591	-0.146519	0.000044
C50	C	1.873591	0.353481	0.500044
C51	C	1.432055	-0.523611	0.000029
C52	C	1.932055	-0.023611	0.500029
C53	C	1.420888	-0.605231	0.000029
C54	C	1.920888	-0.105231	0.500029
C55	C	1.650293	-0.622593	0.000049
C56	C	2.150293	-0.122593	0.500049
C57	C	1.661457	-0.540977	0.000062
C58	C	2.161457	-0.040977	0.500062
C59	C	1.552339	-0.491491	0.000042
C60	C	2.052339	0.008509	0.500042
C61	C	1.460110	-0.361050	0.000041
C62	C	1.960110	0.138950	0.500041
C63	C	1.563764	-0.408069	0.000042
C64	C	2.063764	0.091931	0.500042
C65	C	1.743538	0.111027	0.000068
C66	C	2.243538	0.611027	0.500068
C67	C	1.884704	0.113358	0.000065
C68	C	2.384704	0.613358	0.500065
C69	C	1.518114	0.258421	0.000045
C70	C	2.018114	0.758421	0.500045
C71	C	1.529998	0.345282	0.000036
C72	C	2.029998	0.845282	0.500036
N73	N	1.511910	0.115445	0.351110
N74	N	2.011910	0.615445	0.851110
N75	N	1.511981	0.115432	-0.350991
N76	N	2.011981	0.615432	0.149009
C77	C	1.414197	0.178900	0.586131
C78	C	1.914197	0.678900	1.086131
C79	C	1.414449	0.179138	0.414240
C80	C	1.914449	0.679138	0.914240
C81	C	1.646365	0.134015	0.413453
C82	C	2.146365	0.634015	0.913453
C83	C	1.645841	0.134465	0.585397
C84	C	2.145841	0.634465	1.085397
C85	C	1.476465	0.033212	0.585660
C86	C	1.976465	0.533212	1.085660
C87	C	1.473470	0.033745	0.413706
C88	C	1.973470	0.533745	0.913706
H89	H	0.903520	0.125473	-0.246219
H90	H	1.403520	0.625473	0.253781
H91	H	1.121313	0.130299	-0.245654
H92	H	1.621313	0.630299	0.254346
H93	H	1.675791	0.194450	0.625482
H94	H	2.175791	0.694450	1.125482
Cl95	Cl	1.754217	-0.123508	0.000106
Cl96	Cl	2.254217	0.376492	0.500106
Cl97	Cl	1.294875	-0.461410	0.000001
Cl98	Cl	1.794875	0.038590	0.500001
H99	H	1.132923	-0.002574	-0.101092
H100	H	1.632923	0.497426	0.398908
H101	H	1.680669	-0.285790	0.000071
H102	H	2.180669	0.214210	0.500071
H103	H	0.892878	0.220970	0.140540
H104	H	1.392878	0.720970	0.640540
Cl105	Cl	0.881481	0.114727	0.304449
Cl106	Cl	1.381481	0.614727	0.804449
Cl107	Cl	1.269660	-0.645616	0.000024
Cl108	Cl	1.769660	-0.145616	0.500024
H109	H	1.314790	0.167964	0.372092
H110	H	1.814790	0.667964	0.872092
Cl111	Cl	1.320696	0.012009	0.350801
Cl112	Cl	1.820696	0.512009	0.850801
Cl113	Cl	1.259867	0.161905	0.649998
Cl114	Cl	1.759867	0.661905	1.149998
H115	H	1.759406	-0.514827	0.000071
H116	H	2.259406	-0.014827	0.500071
H117	H	1.119403	0.128406	0.245654
H118	H	1.619403	0.628406	0.745654
Cl119	Cl	0.898314	-0.024812	0.156599
Cl120	Cl	1.398314	0.475188	0.656599
H121	H	1.739130	-0.662893	0.000062
H122	H	2.239130	-0.162893	0.500062
Cl123	Cl	1.693352	0.225582	0.346942
Cl124	Cl	2.193352	0.725582	0.846942
Cl125	Cl	1.127822	0.256842	0.154561
Cl126	Cl	1.627822	0.756842	0.654561
Cl127	Cl	0.895869	-0.024596	-0.154456
Cl128	Cl	1.395869	0.475404	0.345544
Cl129	Cl	1.125167	0.257938	-0.148965
Cl130	Cl	1.625167	0.757938	0.351035
H131	H	1.264477	-0.254296	0.000021
H132	H	1.764477	0.245704	0.500021
H133	H	1.284741	-0.106227	0.000037
H134	H	1.784741	0.393773	0.500037
Cl135	Cl	1.450820	0.273327	0.350694
Cl136	Cl	1.950820	0.773327	0.850694
Cl137	Cl	1.714975	-0.367681	0.000048
Cl138	Cl	2.214975	0.132319	0.500048
H139	H	1.362173	-0.387215	0.000035
H140	H	1.862173	0.112785	0.500035
H141	H	1.437522	0.239555	0.629319
H142	H	1.937522	0.739555	1.129319
Cl143	Cl	1.762135	0.065792	0.649618
Cl144	Cl	2.262135	0.565792	1.149618
Cl145	Cl	0.869542	0.252936	-0.150811
Cl146	Cl	1.369542	0.752936	0.349189
H147	H	1.721226	0.089051	0.372556
H148	H	2.221226	0.589051	0.872556
Cl149	Cl	1.327628	0.005939	0.652683
Cl150	Cl	1.827628	0.505939	1.152683
H151	H	1.547671	-0.014028	0.626321
H152	H	2.047671	0.485972	1.126321
Cl153	Cl	1.155298	-0.020249	0.155956
Cl154	Cl	1.655298	0.479751	0.655956
Cl155	Cl	1.575242	-0.042680	0.347391
Cl156	Cl	2.075242	0.457320	0.847391
