data_functionalizedCrystal
_audit_creation_method	'MofGen! by Chris Wilmer'
_symmetry_space_group_name_H-M	'P1'
_symmetry_Int_Tables_number	1
_symmetry_cell_setting	triclinic
loop_
_symmetry_equiv_pos_as_xyz
  x,y,z
_cell_length_a	8.497374
_cell_length_b	18.215407
_cell_length_c	18.215405
_cell_angle_alpha	89.974667
_cell_angle_beta	89.985971
_cell_angle_gamma	90.003703
loop_
_atom_site_label
_atom_site_type_symbol
_atom_site_fract_x
_atom_site_fract_y
_atom_site_fract_z
Zn1	Zn	0.891978	1.124955	0.293103
Zn2	Zn	0.628155	1.124898	0.416139
Zn3	Zn	0.628196	1.001922	0.293092
Zn4	Zn	0.891878	1.001853	0.416133
O5	O	0.760052	1.063407	0.354617
O6	O	0.857006	1.227931	0.309431
O7	O	0.407398	1.108590	0.399814
O8	O	0.663247	1.018295	0.190109
O9	O	0.663177	1.227890	0.399825
O10	O	0.857046	1.108687	0.190117
O11	O	0.407429	1.018240	0.309412
O12	O	0.663149	0.898929	0.309406
O13	O	1.112653	1.018178	0.399816
O14	O	0.856875	0.898878	0.399805
O15	O	1.112727	1.108620	0.309426
O16	O	0.663079	1.108523	0.519122
O17	O	0.856835	1.018123	0.519118
C18	C	0.760007	0.872201	0.354604
C19	C	0.760025	0.790402	0.354616
C20	C	0.860771	0.602201	0.401761
C21	C	0.860791	0.525342	0.401763
C22	C	0.659367	0.525365	0.307486
C23	C	0.659357	0.602222	0.307481
C24	C	0.760056	0.640638	0.354622
C25	C	0.760086	0.486922	0.354630
C26	C	0.760107	0.403589	0.354632
C27	C	0.760038	0.723977	0.354619
C28	C	0.759976	1.063329	0.545823
C29	C	0.759996	1.063363	0.627622
C30	C	1.171532	1.063401	0.354618
C31	C	1.350176	1.063403	0.354626
C32	C	0.760098	1.255360	0.354630
C33	C	0.760118	1.337159	0.354636
C34	C	0.760163	1.063505	0.162664
C35	C	0.760210	1.063547	0.080865
C36	C	0.659293	1.110545	0.815793
C37	C	0.659332	1.110578	0.892652
C38	C	0.860924	1.016363	0.892688
C39	C	0.860892	1.016334	0.815831
C40	C	0.760068	1.063424	0.777385
C41	C	0.760138	1.063486	0.931101
C42	C	0.760180	1.063521	1.014435
C43	C	0.760028	1.063390	0.694046
H44	H	0.577379	0.494077	0.269106
O45	O	0.958790	0.487971	0.447450
C46	C	1.060831	0.443525	0.405630
H47	H	1.070796	0.466709	0.347674
H48	H	1.012078	0.385273	0.403063
C49	C	1.212450	0.413868	0.512887
C50	C	1.224701	0.442348	0.441706
H51	H	1.313531	0.413139	0.535141
H52	H	1.143700	0.443811	0.541063
H53	H	1.171817	0.365328	0.510738
H54	H	1.265314	0.490890	0.443857
H55	H	1.293462	0.412414	0.413531
H56	H	0.943009	0.978023	0.923999
O57	O	0.958841	0.970488	0.778630
C58	C	1.047857	0.928940	0.829042
H59	H	0.983260	0.926435	0.883844
H60	H	1.167729	0.955844	0.837170
C61	C	1.149763	0.853674	0.731790
C62	C	1.070418	0.850592	0.799098
H63	H	1.163687	0.805346	0.713319
H64	H	1.089797	0.881667	0.697826
H65	H	1.249648	0.876097	0.738573
H66	H	0.970528	0.828177	0.792313
H67	H	1.130368	0.822593	0.833060
H68	H	0.942771	0.633477	0.440145
H69	H	0.577343	0.633519	0.269090
O70	O	0.561314	1.156359	0.778561
C71	C	0.472349	1.197943	0.828946
H72	H	0.536998	1.200484	0.883717
H73	H	0.352483	1.171046	0.837169
C74	C	0.370355	1.273145	0.731622
C75	C	0.449765	1.276271	0.798890
H76	H	0.356417	1.321461	0.713081
H77	H	0.430287	1.245127	0.697675
H78	H	0.270476	1.250728	0.738483
H79	H	0.549650	1.298679	0.792026
H80	H	0.389849	1.304294	0.832834
O81	O	0.561708	1.156468	0.929972
C82	C	0.651715	1.203969	0.974351
H83	H	0.775974	1.208392	0.951160
H84	H	0.657082	1.181277	1.032635
C85	C	0.422310	1.275104	1.003909
C86	C	0.574924	1.280540	0.975421
H87	H	0.374940	1.322336	1.004572
H88	H	0.361669	1.243100	0.974012
H89	H	0.426804	1.256191	1.052476
H90	H	0.570427	1.299444	0.926852
H91	H	0.635563	1.312549	1.005310
