data_functionalizedCrystal
_audit_creation_method	'MofGen! by Chris Wilmer'
_symmetry_space_group_name_H-M	'P1'
_symmetry_Int_Tables_number	1
_symmetry_cell_setting	triclinic
loop_
_symmetry_equiv_pos_as_xyz
  x,y,z
_cell_length_a	31.640172
_cell_length_b	23.096457
_cell_length_c	23.096457
_cell_angle_alpha	60.008701
_cell_angle_beta	90.007887
_cell_angle_gamma	59.994133
loop_
_atom_site_label
_atom_site_type_symbol
_atom_site_fract_x
_atom_site_fract_y
_atom_site_fract_z
Zr1	Zr	0.407176	0.633673	-0.075978
O2	O	0.339673	0.754470	-0.168419
O3	O	0.427867	0.512884	-0.047643
O4	O	0.427849	0.633672	-0.168429
O5	O	0.339708	0.633681	0.047649
O6	O	0.497405	0.633662	-0.168433
O7	O	0.339692	0.633682	-0.047633
O8	O	0.497438	0.417595	0.047631
O9	O	0.339675	0.849748	-0.168415
O10	O	0.488603	0.562556	-0.035557
O11	O	0.436706	0.562562	0.035554
O12	O	0.436684	0.704774	-0.106656
O13	O	0.384788	0.704780	-0.035545
Zr14	Zr	0.518136	0.633655	0.075980
Zr15	Zr	0.518110	0.633658	-0.075984
Zr16	Zr	0.407202	0.633671	0.075986
Zr17	Zr	0.407179	0.785630	-0.075971
Zr18	Zr	0.518133	0.481698	0.075974
O19	O	0.497445	0.754444	0.047645
O20	O	0.497407	0.754448	-0.168427
O21	O	0.339711	0.754466	0.047654
O22	O	0.585639	0.512858	0.168421
O23	O	0.585602	0.512862	-0.047652
O24	O	0.427905	0.512880	0.168430
O25	O	0.585604	0.633648	-0.047646
O26	O	0.497463	0.633656	0.168431
O27	O	0.427907	0.633666	0.168435
O28	O	0.585620	0.633646	0.047636
O29	O	0.427853	0.849736	-0.168420
O30	O	0.497459	0.417593	0.168422
O31	O	0.585637	0.417580	0.168417
O32	O	0.585616	0.417582	0.047626
O33	O	0.339696	0.849746	-0.047624
O34	O	0.427874	0.849734	-0.047629
O35	O	0.488628	0.562554	0.106659
O36	O	0.540524	0.562548	0.035548
O37	O	0.488606	0.704766	-0.035551
O38	O	0.436709	0.704772	0.035560
C39	C	0.462653	0.443589	-0.000007
C40	C	0.462651	0.379079	-0.000009
C41	C	0.489737	0.348775	-0.037131
C42	C	0.489742	0.288152	-0.037125
C43	C	0.462651	0.257848	-0.000007
C44	C	0.435564	0.288156	0.037122
C45	C	0.435564	0.348772	0.037121
N46	N	0.418554	0.195459	-0.005152
N47	N	0.418555	0.137878	-0.005155
C48	C	0.462651	0.075216	-0.000001
N49	N	0.506744	0.072318	0.005142
N50	N	0.506742	0.129906	0.005141
C51	C	0.462649	0.192120	-0.000002
C52	C	0.489745	-0.020823	-0.037118
C53	C	0.489751	-0.081450	-0.037107
C54	C	0.435568	-0.081439	0.037136
C55	C	0.435567	-0.020819	0.037130
C56	C	0.462654	0.009489	-0.000001
C57	C	0.323894	0.633684	0.000009
C58	C	0.276800	0.633690	0.000012
C59	C	-0.015215	0.633650	-0.052489
C60	C	-0.192201	0.633640	-0.052494
O61	O	-0.215082	0.633604	-0.097119
N62	N	-0.214323	0.633641	-0.000003
C63	C	-0.192193	0.633639	0.052495
O64	O	-0.215067	0.633631	0.097146
C65	C	-0.015205	0.633643	0.052503
C66	C	0.006911	0.633651	0.000004
C67	C	0.006902	0.633657	-0.104983
C68	C	0.051144	0.633664	-0.104983
C69	C	0.073270	0.633664	-0.052490
C70	C	0.051153	0.633658	0.000004
C71	C	0.006926	0.633635	0.105004
C72	C	0.051176	0.633634	0.105002
C73	C	0.073293	0.633642	0.052504
C74	C	0.117521	0.633665	0.052497
N75	N	0.139643	0.633664	0.000006
C76	C	0.117517	0.633664	-0.052487
C77	C	-0.285115	0.633638	0.052487
C78	C	-0.329362	0.633638	0.052484
C79	C	-0.329367	0.633638	-0.052505
C80	C	-0.285121	0.633644	-0.052504
C81	C	-0.262993	0.633637	-0.000004
C82	C	0.210429	0.633679	-0.052484
C83	C	0.254674	0.633690	-0.052482
C84	C	0.254676	0.633686	0.052509
C85	C	0.210434	0.633680	0.052505
C86	C	0.188312	0.633674	0.000005
O87	O	0.140432	0.633691	0.097103
O88	O	0.140405	0.633654	-0.097122
C89	C	-0.059457	0.633643	-0.052489
C90	C	-0.081574	0.633637	0.000005
C91	C	-0.059448	0.633637	0.052499
C92	C	-0.125821	0.633637	0.000003
C93	C	-0.147947	0.633636	-0.052491
C94	C	-0.125825	0.633636	-0.104982
C95	C	-0.081583	0.633643	-0.104982
C96	C	-0.081569	0.633638	0.104990
C97	C	-0.125812	0.633632	0.104985
C98	C	-0.147938	0.633631	0.052492
C99	C	0.601418	0.633645	-0.000006
C100	C	0.648512	0.633638	-0.000009
C101	C	0.462623	0.633667	-0.190082
C102	C	0.462612	0.633668	-0.254595
C103	C	0.462660	0.823740	0.000009
C104	C	0.462661	0.888249	0.000012
C105	C	0.435513	0.707903	-0.322011
C106	C	0.435527	0.707904	-0.382628
C107	C	0.462631	0.633666	-0.375824
C108	C	0.489736	0.559422	-0.308395
C109	C	0.489726	0.559423	-0.247780
N110	N	0.458891	0.578411	-0.443381
N111	N	0.458897	0.578415	-0.500965
C112	C	0.462663	0.633659	-0.558449
N113	N	0.466412	0.688911	-0.556180
N114	N	0.466403	0.688909	-0.498593
C115	C	0.462645	0.633657	-0.441545
C116	C	0.435578	0.707900	-0.691595
C117	C	0.435595	0.707898	-0.752212
C118	C	0.489800	0.559414	-0.677976
C119	C	0.489787	0.559418	-0.617362
C120	C	0.462673	0.633663	-0.624177
C121	C	0.462689	0.633661	0.190085
C122	C	0.462700	0.633660	0.254597
C123	C	0.601414	0.443569	-0.000014
C124	C	0.648507	0.379053	-0.000020
C125	C	0.462685	0.443585	0.190077
C126	C	0.462695	0.379074	0.254587
C127	C	0.601447	0.443566	0.190069
C128	C	0.648552	0.379048	0.254576
C129	C	0.323865	0.823762	-0.190067
C130	C	0.276760	0.888280	-0.254574
C131	C	0.323898	0.823759	0.000017
C132	C	0.276805	0.888276	0.000022
C133	C	0.462627	0.823743	-0.190074
C134	C	0.462617	0.888254	-0.254584
C135	C	0.643521	0.348759	-0.037145
C136	C	0.687765	0.288148	-0.037164
C137	C	0.736997	0.257826	-0.000054
C138	C	0.741983	0.288125	0.037073
C139	C	0.697738	0.348740	0.037087
C140	C	0.489803	0.348775	0.322004
C141	C	0.489810	0.288169	0.382623
C142	C	0.462713	0.257859	0.375825
C143	C	0.435603	0.288164	0.308400
C144	C	0.435592	0.348773	0.247782
C145	C	0.697767	0.348747	0.247751
C146	C	0.742030	0.288134	0.308356
C147	C	0.737078	0.257820	0.375787
C148	C	0.687858	0.288127	0.382611
C149	C	0.643595	0.348743	0.322006
C150	C	0.227545	0.918589	-0.247748
C151	C	0.183282	0.979220	-0.308354
C152	C	0.188234	1.009538	-0.375784
C153	C	0.237454	0.979226	-0.382609
C154	C	0.281717	0.918600	-0.322004
C155	C	0.281792	0.918575	0.037141
C156	C	0.237547	0.979204	0.037143
C157	C	0.188315	1.009527	0.000031
C158	C	0.183329	0.979225	-0.037092
C159	C	0.227574	0.918602	-0.037099
C160	C	0.489719	0.918544	-0.247763
C161	C	0.489720	0.979151	-0.308371
C162	C	0.462615	1.009470	-0.375800
C163	C	0.435512	0.979174	-0.382620
C164	C	0.435514	0.918564	-0.322012
H165	H	0.511800	0.263474	-0.067355
H166	H	0.241616	1.003865	0.067376
C167	C	0.405690	0.885262	-0.329528
N168	N	0.383223	0.860183	-0.335194
H169	H	-0.347371	0.633645	0.095227
C170	C	0.682419	0.254766	0.456792
N171	N	0.678324	0.229631	0.512667
C172	C	0.405771	0.789566	-0.826375
N173	N	0.383302	0.851080	-0.882236
H174	H	0.511868	0.373447	0.327553
H175	H	0.603438	0.373447	-0.067373
C176	C	0.589460	0.382066	0.329527
N177	N	0.548685	0.407163	0.335197
H178	H	0.223503	0.893907	-0.192848
H179	H	0.511870	0.498969	-0.672435
C180	C	0.796168	0.254800	0.300834
N181	N	0.836942	0.229692	0.295165
C182	C	0.519549	0.477761	-0.300911
N183	N	0.542006	0.416251	-0.295273
H184	H	0.413541	0.263477	0.302875
C185	C	0.519534	0.477756	-0.173617
N186	N	0.541985	0.416243	-0.117755
H187	H	0.773124	0.208462	0.425130
H188	H	0.223506	0.893934	-0.067323
H189	H	0.143209	1.003889	-0.302783
H190	H	0.152188	1.058903	-0.425127
H191	H	0.413500	0.768354	-0.697145
C192	C	0.405775	0.012509	0.077975
N193	N	0.383340	0.037604	0.108749
H194	H	0.782073	0.263429	0.067286
C195	C	0.279001	0.633694	-0.110235
N196	N	0.297324	0.633694	-0.153731
H197	H	0.683696	0.263485	-0.067396
H198	H	0.413510	-0.106112	0.067358
C199	C	0.519591	0.477754	-0.543199
N200	N	0.542042	0.416240	-0.487338
C201	C	0.405720	1.012505	-0.456799
N202	N	0.383286	1.037604	-0.512672
H203	H	0.511789	1.003813	-0.302804
H204	H	0.773019	0.208469	-0.000071
C205	C	0.242893	1.012577	-0.456790
N206	N	0.246988	1.037694	-0.512664
C207	C	0.186100	0.633677	-0.110239
N208	N	0.167774	0.633680	-0.153743
C209	C	0.139650	1.076211	0.000049
N210	N	0.102997	1.126435	0.000067
H211	H	0.272697	0.633690	0.095247
C212	C	0.129170	1.012579	-0.077902
N213	N	0.088376	1.037696	-0.108633
C214	C	0.075471	0.633659	-0.162730
N215	N	0.093793	0.633650	-0.206225
H216	H	-0.011108	0.633654	-0.147729
H217	H	0.321789	0.893923	-0.327570
C218	C	0.405763	0.254822	0.077951
N219	N	0.383317	0.229713	0.108705
H220	H	0.511791	0.893868	-0.192864
C221	C	-0.260794	0.633644	-0.110252
N222	N	-0.242472	0.633641	-0.153749
C223	C	0.462616	1.076145	-0.442463
N224	N	0.462618	1.126365	-0.492672
H225	H	-0.347389	0.633639	-0.095248
C226	C	-0.260774	0.633615	0.110254
N227	N	-0.242441	0.633593	0.153766
H228	H	0.321874	0.893890	0.067367
H229	H	0.511888	0.263501	0.437517
H230	H	0.511795	0.373447	-0.067363
H231	H	0.413506	0.373446	0.067350
C232	C	-0.017389	0.633618	0.162762
N233	N	-0.035701	0.633602	0.206271
H234	H	0.511803	0.003852	-0.067350
C235	C	0.703233	0.382048	0.077938
N236	N	0.707375	0.407131	0.108710
H237	H	0.511811	-0.106127	-0.067333
H238	H	0.069191	0.633626	0.147757
H239	H	0.192422	0.633685	0.095248
H240	H	-0.143849	0.633640	-0.147726
C241	C	-0.057258	0.633643	-0.162731
N242	N	-0.038938	0.633640	-0.206229
C243	C	-0.150135	0.633622	0.162742
N244	N	-0.168450	0.633607	0.206248
H245	H	0.413437	0.768359	-0.327566
C246	C	0.405777	0.382087	0.173625
N247	N	0.383319	0.407175	0.117770
C248	C	0.405715	0.789570	-0.456797
N249	N	0.383260	0.851082	-0.512660
H250	H	-0.063558	0.633637	0.147737
H251	H	0.701809	0.373420	0.192851
H252	H	0.462726	0.208506	0.425190
