data_functionalizedCrystal
_audit_creation_method	'MofGen! by Chris Wilmer'
_symmetry_space_group_name_H-M	'P1'
_symmetry_Int_Tables_number	1
_symmetry_cell_setting	triclinic
loop_
_symmetry_equiv_pos_as_xyz
  x,y,z
_cell_length_a	21.395362
_cell_length_b	12.645330
_cell_length_c	21.395355
_cell_angle_alpha	90.012330
_cell_angle_beta	90.043940
_cell_angle_gamma	90.033572
loop_
_atom_site_label
_atom_site_type_symbol
_atom_site_fract_x
_atom_site_fract_y
_atom_site_fract_z
Zn1	Zn	0.957916	-0.421713	0.354613
Zn2	Zn	1.457916	0.078287	0.854613
Zn3	Zn	0.957842	-0.598962	0.249846
Zn4	Zn	1.457842	-0.098962	0.749846
Zn5	Zn	0.853131	-0.421762	0.249814
Zn6	Zn	1.353131	0.078238	0.749814
Zn7	Zn	0.853124	-0.598984	0.354551
Zn8	Zn	1.353124	-0.098984	0.854551
O9	O	0.905503	-0.510355	0.302206
O10	O	1.405503	-0.010355	0.802206
O11	O	1.045584	-0.445196	0.340754
O12	O	1.545584	0.054804	0.840754
O13	O	0.943924	-0.575468	0.162164
O14	O	1.443924	-0.075468	0.662164
O15	O	0.867065	-0.273408	0.263728
O16	O	1.367065	0.226592	0.763728
O17	O	1.045530	-0.575420	0.263783
O18	O	1.545530	-0.075420	0.763783
O19	O	0.944050	-0.273372	0.340723
O20	O	1.444050	0.226628	0.840723
O21	O	0.866993	-0.445280	0.162140
O22	O	1.366993	0.054720	0.662140
O23	O	0.765452	-0.445301	0.263668
O24	O	1.265452	0.054699	0.763668
O25	O	0.867053	-0.575457	0.442237
O26	O	1.367053	-0.075457	0.942237
O27	O	0.765447	-0.575505	0.340618
O28	O	1.265447	-0.075505	0.840618
O29	O	0.944043	-0.445217	0.442282
O30	O	1.444043	0.054783	0.942282
O31	O	0.943918	-0.747312	0.263724
O32	O	1.443918	-0.247312	0.763724
O33	O	0.866981	-0.747328	0.340650
O34	O	1.366981	-0.247328	0.840650
C35	C	0.742716	-0.510411	0.302133
C36	C	1.242716	-0.010411	0.802133
C37	C	0.673074	-0.510461	0.302117
C38	C	1.173074	-0.010461	0.802117
C39	C	0.640375	-0.578348	0.342125
C40	C	1.140375	-0.078348	0.842125
C41	C	0.574940	-0.578322	0.342153
C42	C	1.074940	-0.078322	0.842153
C43	C	0.542206	-0.510420	0.302162
C44	C	1.042206	-0.010420	0.802162
C45	C	0.574913	-0.442520	0.262151
C46	C	1.074913	0.057480	0.762151
C47	C	0.640348	-0.442540	0.262129
C48	C	1.140348	0.057460	0.762129
C49	C	0.438480	-0.501880	0.245756
C50	C	0.938480	-0.001880	0.745756
C51	C	0.373047	-0.501867	0.245777
C52	C	0.873047	-0.001867	0.745777
C53	C	0.340386	-0.510351	0.302231
C54	C	0.840386	-0.010351	0.802231
C55	C	0.373165	-0.518870	0.358665
C56	C	0.873165	-0.018870	0.858665
C57	C	0.438599	-0.518890	0.358643
C58	C	0.938599	-0.018890	0.858643
C59	C	0.471254	-0.510390	0.302182
C60	C	0.971254	-0.010390	0.802182
C61	C	0.236734	-0.578213	0.342272
C62	C	0.736734	-0.078213	0.842272
C63	C	0.171297	-0.578180	0.342301
C64	C	0.671297	-0.078180	0.842301
C65	C	0.171272	-0.442383	0.262294
C66	C	0.671272	0.057617	0.762294
C67	C	0.236707	-0.442411	0.262271
C68	C	0.736707	0.057589	0.762271
C69	C	0.269434	-0.510332	0.302259
C70	C	0.769434	-0.010332	0.802259
C71	C	0.905458	-0.785785	0.302197
C72	C	1.405458	-0.285785	0.802197
C73	C	0.905495	-0.903615	0.302214
C74	C	1.405495	-0.403615	0.802214
C75	C	0.857295	-1.071233	0.350758
C76	C	1.357295	-0.571233	0.850758
C77	C	0.857048	-0.948674	0.350602
C78	C	1.357048	-0.448674	0.850602
C79	C	0.887617	-0.948193	0.236177
C80	C	1.387617	-0.448193	0.736177
C81	C	0.887323	-1.070792	0.236472
C82	C	1.387323	-0.570792	0.736472
C83	C	0.971870	-1.070679	0.319173
C84	C	1.471870	-0.570679	0.819173
C85	C	0.971463	-0.948073	0.320616
C86	C	1.471463	-0.448073	0.820616
C87	C	1.068927	-0.510300	0.302279
C88	C	1.568927	-0.010300	0.802279
C89	C	1.138568	-0.510276	0.302311
C90	C	1.638568	-0.010276	0.802311
C91	C	0.905555	-0.510334	0.465629
C92	C	1.405555	-0.010334	0.965629
C93	C	0.905578	-0.510325	0.535271
C94	C	1.405578	-0.010325	1.035271
C95	C	0.905566	-0.233850	0.302228
C96	C	1.405566	0.266150	0.802228
C97	C	0.905593	-0.116020	0.302238
C98	C	1.405593	0.383980	0.802238
C99	C	0.905488	-0.510300	0.139418
C100	C	1.405488	-0.010300	0.639418
C101	C	0.905587	-0.510011	0.069778
C102	C	1.405587	-0.010011	0.569778
C103	C	0.945665	-0.442506	0.568008
C104	C	1.445665	0.057494	1.068008
C105	C	0.945664	-0.442460	0.633444
C106	C	1.445664	0.057540	1.133444
C107	C	0.905582	-0.510252	0.666139
C108	C	1.405582	-0.010252	1.166139
C109	C	0.865488	-0.578076	0.633393
C110	C	1.365488	-0.078076	1.133393
C111	C	0.865485	-0.578112	0.567959
C112	C	1.365485	-0.078112	1.067959
C113	C	0.900619	-0.605707	0.769809
C114	C	1.400619	-0.105707	1.269809
C115	C	0.900626	-0.605673	0.835242
C116	C	1.400626	-0.105673	1.335242
C117	C	0.905586	-0.510140	0.867960
C118	C	1.405586	-0.010140	1.367960
C119	C	0.910553	-0.414639	0.835237
C120	C	1.410553	0.085361	1.335237
C121	C	0.910550	-0.414676	0.769803
C122	C	1.410550	0.085324	1.269803
C123	C	0.905580	-0.510220	0.737091
C124	C	1.405580	-0.010220	1.237091
C125	C	0.945675	-0.442266	0.971650
C126	C	1.445675	0.057734	1.471650
C127	C	0.945669	-0.442219	1.037087
C128	C	1.445669	0.057781	1.537087
C129	C	0.865496	-0.577844	1.037035
C130	C	1.365496	-0.077844	1.537035
C131	C	0.865498	-0.577882	0.971600
C132	C	1.365498	-0.077882	1.471600
C133	C	0.905591	-0.510095	0.938911
C134	C	1.405591	-0.010095	1.438911
H135	H	0.667017	-0.633653	0.374688
H136	H	1.167017	-0.133653	0.874688
H137	H	0.984945	-0.918934	0.369216
H138	H	1.484945	-0.418934	0.869216
C139	C	0.872155	-0.907944	0.416748
C140	C	1.372155	-0.407944	0.916748
H141	H	0.872026	-0.832815	0.416740
H142	H	1.372026	-0.332815	0.916740
H143	H	0.841549	-0.933152	0.445236
H144	H	1.341549	-0.433152	0.945236
H145	H	0.912218	-0.932730	0.429071
H146	H	1.412218	-0.432730	0.929071
H147	H	0.832859	-0.633114	0.944945
H148	H	1.332859	-0.133114	1.444945
C149	C	0.474402	-0.492489	0.183656
C150	C	0.974402	0.007511	0.683656
H151	H	0.445510	-0.487410	0.150051
H152	H	0.945510	0.012590	0.650051
H153	H	0.499945	-0.431036	0.184544
H154	H	0.999945	0.068964	0.684544
H155	H	0.499906	-0.553225	0.178060
H156	H	0.999906	-0.053225	0.678060
C157	C	0.989763	-0.367687	0.935690
C158	C	1.489763	0.132313	1.435690
H159	H	1.013630	-0.327275	0.964562
H160	H	1.513630	0.172725	1.464562
H161	H	1.017055	-0.408235	0.910185
H162	H	1.517055	0.091765	1.410185
H163	H	0.965796	-0.321521	0.910145
H164	H	1.465796	0.178479	1.410145
H165	H	0.896586	-0.683435	0.861880
H166	H	1.396586	-0.183435	1.361880
C167	C	0.538963	-0.652939	0.386200
C168	C	1.038963	-0.152939	0.886200
H169	H	0.567826	-0.693376	0.410021
H170	H	1.067826	-0.193376	0.910021
H171	H	0.513504	-0.612390	0.413536
H172	H	1.013504	-0.112390	0.913536
H173	H	0.513371	-0.699082	0.362222
H174	H	1.013371	-0.199082	0.862222
H175	H	0.920975	-1.100419	0.199087
H176	H	1.420975	-0.600419	0.699087
H177	H	0.832838	-0.633337	0.541305
H178	H	1.332838	-0.133337	1.041305
H179	H	0.921680	-0.919005	0.199037
H180	H	1.421680	-0.419005	0.699037
C181	C	0.872259	-1.110981	0.417125
C182	C	1.372259	-0.610981	0.917125
H183	H	0.842579	-1.083057	0.445704
H184	H	1.342579	-0.583057	0.945704
H185	H	0.870442	-1.186030	0.417869
H186	H	1.370442	-0.686030	0.917869
H187	H	0.912991	-1.088361	0.428753
H188	H	1.412991	-0.588361	0.928753
H189	H	0.896413	-0.683481	0.743176
H190	H	1.396413	-0.183481	1.243176
C191	C	0.135273	-0.367679	0.218312
C192	C	0.635273	0.132321	0.718312
H193	H	0.091619	-0.377389	0.224055
H194	H	0.591619	0.122611	0.724055
H195	H	0.146045	-0.296483	0.227555
H196	H	0.646045	0.203517	0.727555
H197	H	0.145938	-0.383088	0.176190
H198	H	0.645938	0.116912	0.676190
C199	C	0.791332	-1.112999	0.335801
C200	C	1.291332	-0.612999	0.835801
H201	H	0.762440	-1.085568	0.365339
H202	H	1.262440	-0.585568	0.865339
H203	H	0.779576	-1.091166	0.294974
H204	H	1.279576	-0.591166	0.794974
H205	H	0.791286	-1.188043	0.337876
H206	H	1.291286	-0.688043	0.837876
C207	C	0.989757	-0.367933	0.532051
C208	C	1.489757	0.132067	1.032051
H209	H	0.984018	-0.377670	0.488391
H210	H	1.484018	0.122330	0.988391
H211	H	0.980604	-0.296705	0.542766
H212	H	1.480604	0.203295	1.042766
H213	H	1.031854	-0.383435	0.542806
H214	H	1.531854	0.116565	1.042806
H215	H	0.465285	-0.525824	0.404593
H216	H	0.965285	-0.025824	0.904593
C217	C	0.337246	-0.528199	0.420768
C218	C	0.837246	-0.028199	0.920768
H219	H	0.293581	-0.526954	0.412702
H220	H	0.793581	-0.026954	0.912702
H221	H	0.347960	-0.592788	0.440735
H222	H	0.847960	-0.092788	0.940735
H223	H	0.348029	-0.470593	0.447175
H224	H	0.848029	0.029407	0.947175
H225	H	0.144674	-0.633460	0.374884
H226	H	0.644674	-0.133460	0.874884
H227	H	0.263381	-0.633513	0.374837
H228	H	0.763381	-0.133513	0.874837
H229	H	0.839674	-0.917599	0.221575
H230	H	1.339674	-0.417599	0.721575
C231	C	1.022636	-0.906650	0.276349
C232	C	1.522636	-0.406650	0.776349
H233	H	1.004358	-0.861502	0.245927
H234	H	1.504358	-0.361502	0.745927
H235	H	1.052850	-0.868278	0.299720
H236	H	1.552850	-0.368278	0.799720
H237	H	1.042264	-0.964626	0.256074
H238	H	1.542264	-0.464626	0.756074
H239	H	1.007853	-1.099637	0.283834
H240	H	1.507853	-0.599637	0.783834
C241	C	0.272679	-0.367748	0.218253
C242	C	0.772679	0.132252	0.718253
H243	H	0.243814	-0.327310	0.194435
H244	H	0.743814	0.172690	0.694435
H245	H	0.298254	-0.321625	0.242255
H246	H	0.798254	0.178375	0.742255
H247	H	0.298153	-0.408252	0.190903
H248	H	0.798153	0.091748	0.690903
C249	C	0.989768	-0.367615	1.073098
C250	C	1.489768	0.132385	1.573098
H251	H	1.013648	-0.327259	1.044256
H252	H	1.513648	0.172741	1.544256
H253	H	0.965815	-0.321413	1.098603
H254	H	1.465815	0.178587	1.598603
H255	H	1.017058	-0.408155	1.098647
H256	H	1.517058	0.091845	1.598647
C257	C	0.821402	-0.652650	0.669355
C258	C	1.321402	-0.152650	1.169355
H259	H	0.827150	-0.642925	0.713015
H260	H	1.327150	-0.142925	1.213015
H261	H	0.779307	-0.637160	0.658603
H262	H	1.279307	-0.137160	1.158603
H263	H	0.830560	-0.723883	0.658641
H264	H	1.330560	-0.223883	1.158641
H265	H	0.988178	-1.101533	0.366510
H266	H	1.488178	-0.601533	0.866510
H267	H	0.838874	-1.099500	0.222129
H268	H	1.338874	-0.599500	0.722129
H269	H	0.346364	-0.494937	0.199825
H270	H	0.846364	0.005063	0.699825
C271	C	0.821412	-0.652422	1.072992
C272	C	1.321412	-0.152422	1.572992
H273	H	0.827157	-0.642694	1.116652
H274	H	1.327157	-0.142694	1.616652
H275	H	0.779316	-0.636937	1.062238
H276	H	1.279316	-0.136937	1.562238
H277	H	0.830574	-0.723653	1.062278
H278	H	1.330574	-0.223653	1.562278
C279	C	0.538910	-0.367830	0.218162
C280	C	1.038910	0.132170	0.718162
H281	H	0.495256	-0.377547	0.223901
H282	H	0.995256	0.122453	0.723901
H283	H	0.549675	-0.296629	0.227400
H284	H	1.049675	0.203371	0.727400
H285	H	0.549581	-0.383247	0.176043
H286	H	1.049581	0.116753	0.676043
H287	H	0.807914	-0.919458	0.339381
H288	H	1.307914	-0.419458	0.839381
C289	C	0.676318	-0.367867	0.218115
C290	C	1.176318	0.132133	0.718115
H291	H	0.647454	-0.327425	0.194298
H292	H	1.147454	0.172575	0.694298
H293	H	0.701895	-0.321749	0.242118
H294	H	1.201895	0.178251	0.742118
H295	H	0.701792	-0.408369	0.190762
H296	H	1.201792	0.091631	0.690762
C297	C	0.989766	-0.367865	0.669463
C298	C	1.489766	0.132135	1.169463
H299	H	1.013646	-0.327505	0.640623
H300	H	1.513646	0.172495	1.140623
H301	H	0.965816	-0.321667	0.694972
H302	H	1.465816	0.178333	1.194972
H303	H	1.017056	-0.408413	0.695007
H304	H	1.517056	0.091587	1.195007
H305	H	0.914593	-0.336915	0.743162
H306	H	1.414593	0.163085	1.243162
H307	H	0.914593	-0.336848	0.861874
H308	H	1.414593	0.163152	1.361874
