data_functionalizedCrystal
_audit_creation_method	'MofGen! by Chris Wilmer'
_symmetry_space_group_name_H-M	'P1'
_symmetry_Int_Tables_number	1
_symmetry_cell_setting	triclinic
loop_
_symmetry_equiv_pos_as_xyz
  x,y,z
_cell_length_a	10.723024
_cell_length_b	14.519709
_cell_length_c	9.798715
_cell_angle_alpha	89.995905
_cell_angle_beta	89.996609
_cell_angle_gamma	84.074007
loop_
_atom_site_label
_atom_site_type_symbol
_atom_site_fract_x
_atom_site_fract_y
_atom_site_fract_z
O1	O	1.655978	0.129347	-0.113485
O2	O	1.989311	0.462681	0.219848
O3	O	2.322644	0.796014	0.553181
O4	O	1.292710	0.141728	-0.113490
O5	O	1.626043	0.475062	0.219843
O6	O	1.959376	0.808395	0.553176
O7	O	1.483975	0.001349	-0.113475
O8	O	1.817309	0.334682	0.219858
O9	O	2.150642	0.668015	0.553191
O10	O	1.464712	0.269727	-0.113500
O11	O	1.798045	0.603061	0.219833
O12	O	2.131379	0.936394	0.553166
O13	O	1.483961	0.001348	0.113507
O14	O	1.817294	0.334682	0.446840
O15	O	2.150628	0.668015	0.780173
O16	O	1.292695	0.141728	0.113492
O17	O	1.626029	0.475061	0.446825
O18	O	1.959362	0.808395	0.780158
O19	O	1.655963	0.129347	0.113497
O20	O	1.989297	0.462680	0.446830
O21	O	2.322630	0.796014	0.780163
Zn22	Zn	1.474327	0.135537	0.149533
Zn23	Zn	1.807660	0.468871	0.482866
Zn24	Zn	2.140994	0.802204	0.816199
Zn25	Zn	1.474346	0.135538	-0.149526
Zn26	Zn	1.807679	0.468871	0.183807
Zn27	Zn	2.141013	0.802205	0.517140
O28	O	1.464698	0.269727	0.113482
O29	O	1.798031	0.603060	0.446815
O30	O	2.131365	0.936393	0.780149
C31	C	1.246211	0.140827	0.000000
C32	C	1.579545	0.474161	0.333334
C33	C	1.912878	0.807494	0.666667
C34	C	1.107682	0.138132	-0.000001
C35	C	1.441016	0.471465	0.333332
C36	C	1.774349	0.804798	0.666665
C37	C	1.031965	0.216681	-0.000009
C38	C	1.365298	0.550014	0.333324
C39	C	1.698632	0.883347	0.666657
C40	C	0.888788	0.213896	-0.000011
C41	C	1.222121	0.547230	0.333322
C42	C	1.555454	0.880563	0.666656
C43	C	1.483070	-0.033016	0.000016
C44	C	1.816404	0.300317	0.333349
C45	C	2.149737	0.633651	0.666682
C46	C	1.480380	-0.135411	0.000017
C47	C	1.813713	0.197922	0.333350
C48	C	2.147047	0.531256	0.666683
C49	C	1.470476	-0.510357	-0.000019
C50	C	1.803810	-0.177024	0.333314
C51	C	2.137143	0.156309	0.666648
C52	C	1.473227	-0.406035	-0.000009
C53	C	1.806560	-0.072702	0.333325
C54	C	2.139893	0.260631	0.666658
C55	C	1.475428	-0.322887	0.000000
C56	C	1.808761	0.010446	0.333333
C57	C	2.142095	0.343779	0.666667
C58	C	1.478179	-0.218559	0.000008
C59	C	1.811512	0.114775	0.333341
C60	C	2.144845	0.448108	0.666674
C61	C	1.702462	0.130248	0.000003
C62	C	2.035795	0.463582	0.333337
C63	C	2.369128	0.796915	0.666670
C64	C	1.840991	0.132944	-0.000004
C65	C	2.174324	0.466277	0.333329
C66	C	2.507657	0.799611	0.666662
C67	C	1.465603	0.304091	-0.000012
C68	C	1.798936	0.637425	0.333321
C69	C	2.132269	0.970758	0.666654
C70	C	1.468293	0.406486	-0.000022
C71	C	1.801626	0.739820	0.333311
C72	C	2.134960	1.073153	0.666645
N73	N	1.474323	0.135537	0.353632
N74	N	1.807657	0.468870	0.686966
N75	N	2.140990	0.802203	1.020299
N76	N	1.474359	0.135532	-0.353626
N77	N	1.807693	0.468865	-0.020293
N78	N	2.141026	0.802198	0.313041
C79	C	1.554633	0.076335	0.421415
C80	C	1.887966	0.409669	0.754749
C81	C	2.221300	0.743002	1.088082
C82	C	1.554653	0.076332	0.578578
C83	C	1.887986	0.409665	0.911911
C84	C	2.221320	0.742999	1.245245
H85	H	0.906045	0.065696	-0.000006
H86	H	1.239378	0.399029	0.333327
H87	H	1.572712	0.732363	0.666661
Br88	Br	1.668897	-0.008377	0.324226
Br89	Br	2.002231	0.324957	0.657559
Br90	Br	2.335564	0.658290	0.990893
Br91	Br	1.100577	0.332209	-0.000011
Br92	Br	1.433910	0.665543	0.333322
Br93	Br	1.767243	0.998876	0.666655
H94	H	1.623414	0.025651	0.636869
H95	H	1.956748	0.358984	0.970202
H96	H	2.290081	0.692317	1.303535
Br97	Br	0.780355	0.325982	-0.000039
Br98	Br	1.113689	0.659315	0.333294
Br99	Br	1.447022	0.992649	0.666628
H100	H	1.405604	0.186222	0.588092
H101	H	1.738937	0.519556	0.921426
H102	H	2.072271	0.852889	1.254759
Br103	Br	1.359733	0.220008	0.450822
Br104	Br	1.693066	0.553341	0.784156
Br105	Br	2.026400	0.886675	1.117489
H106	H	1.066508	0.068822	-0.000030
H107	H	1.399842	0.402155	0.333303
H108	H	1.733175	0.735488	0.666637
