data_functionalizedCrystal
_audit_creation_method	'MofGen! by Chris Wilmer'
_symmetry_space_group_name_H-M	'P1'
_symmetry_Int_Tables_number	1
_symmetry_cell_setting	triclinic
loop_
_symmetry_equiv_pos_as_xyz
  x,y,z
_cell_length_a	8.634740
_cell_length_b	10.723023
_cell_length_c	7.681481
_cell_angle_alpha	84.204195
_cell_angle_beta	96.618947
_cell_angle_gamma	92.518927
loop_
_atom_site_label
_atom_site_type_symbol
_atom_site_fract_x
_atom_site_fract_y
_atom_site_fract_z
O1	O	2.035896	0.417428	-0.146418
O2	O	1.586583	0.383270	-0.146423
O3	O	1.821605	0.219946	-0.146413
O4	O	1.800874	0.580751	-0.146428
O5	O	1.850532	0.199790	0.146446
O6	O	1.615509	0.363114	0.146436
O7	O	2.064823	0.397272	0.146441
Zn8	Zn	1.844759	0.376993	0.192936
Zn9	Zn	1.806647	0.403549	-0.192918
O10	O	1.829801	0.560595	0.146431
C11	C	1.543514	0.365454	0.000006
C12	C	1.372086	0.342382	0.000004
C13	C	1.834560	0.163198	0.000014
C14	C	1.830046	0.024133	0.000009
C15	C	1.813050	-0.027419	-0.151703
C16	C	1.808385	-0.171150	-0.151713
C17	C	2.107891	0.415088	0.000008
C18	C	2.279317	0.438161	-0.000002
C19	C	1.816845	0.617344	-0.000000
C20	C	1.821357	0.756410	-0.000006
N21	N	1.870781	0.358869	0.456271
N22	N	1.780637	0.421664	-0.456253
H23	H	1.331049	0.537818	0.000006
H24	H	1.801945	0.034853	-0.281583
Cl25	Cl	1.292236	0.188521	0.000022
H26	H	1.962817	0.294782	0.531481
H27	H	1.793833	-0.215524	-0.281599
Cl28	Cl	1.843849	-0.175097	0.200546
H29	H	1.841135	-0.038140	0.129888
H30	H	1.688618	0.485757	0.468546
