data_functionalizedCrystal
_audit_creation_method	'MofGen! by Chris Wilmer'
_symmetry_space_group_name_H-M	'P1'
_symmetry_Int_Tables_number	1
_symmetry_cell_setting	triclinic
loop_
_symmetry_equiv_pos_as_xyz
  x,y,z
_cell_length_a	13.262315
_cell_length_b	10.654550
_cell_length_c	9.130313
_cell_angle_alpha	90.003780
_cell_angle_beta	105.919242
_cell_angle_gamma	95.540228
loop_
_atom_site_label
_atom_site_type_symbol
_atom_site_fract_x
_atom_site_fract_y
_atom_site_fract_z
O1	O	-0.147423	1.667067	0.063180
O2	O	-0.161469	1.301515	0.057560
O3	O	-0.001719	1.493489	0.121214
O4	O	-0.307173	1.475093	-0.000473
O5	O	-0.001723	1.493487	-0.122386
O6	O	-0.161474	1.301513	-0.186040
O7	O	-0.147428	1.667065	-0.180420
Cu8	Cu	-0.154451	1.484289	-0.205473
Cu9	Cu	-0.154446	1.484291	0.082613
O10	O	-0.307178	1.475091	-0.244074
C11	C	-0.160440	1.254722	-0.063832
C12	C	-0.157355	1.115294	-0.062612
C13	C	-0.251413	1.035319	-0.100062
C14	C	-0.248507	0.904314	-0.098879
C15	C	-0.057477	0.933271	-0.022787
C16	C	-0.060383	1.064274	-0.023981
C17	C	-0.361703	1.018600	-0.143986
C18	C	-0.358797	0.887594	-0.142804
C19	C	-0.346288	1.476123	-0.137855
C20	C	-0.462830	1.479208	-0.184282
C21	C	-0.791312	1.487917	0.216037
C22	C	-0.681817	1.485004	0.259654
C23	C	-0.627064	1.483555	0.148674
C24	C	-0.681819	1.485019	-0.005931
C25	C	-0.791326	1.487923	-0.049553
C26	C	-0.627078	1.483561	-0.116916
C27	C	-0.681832	1.485025	-0.271521
C28	C	-0.791329	1.487929	-0.315135
C29	C	-0.846081	1.489377	-0.204155
C30	C	-0.517571	1.480658	-0.073294
C31	C	-0.517585	1.480663	-0.338884
C32	C	-0.627080	1.483576	-0.382501
C33	C	0.037391	1.492457	0.014998
C34	C	0.153933	1.489372	0.061435
C35	C	-0.148457	1.713858	-0.059025
C36	C	-0.151542	1.853286	-0.060235
N37	N	-0.154454	1.484296	-0.408097
C38	C	-0.083741	1.569323	-0.456572
C39	C	-0.083728	1.569320	-0.609904
C40	C	-0.225151	1.399257	-0.666275
C41	C	-0.225158	1.399256	-0.512943
C42	C	-0.002094	1.667512	-0.424030
C43	C	-0.002082	1.667508	-0.577362
N44	N	-0.154435	1.484294	0.285240
H45	H	0.021474	0.891714	0.008688
H46	H	-0.400351	0.845646	-0.057404
H47	H	-0.671676	1.484768	-0.508383
O48	O	-0.520684	1.480901	0.190862
C49	C	-0.352440	1.585456	0.185127
C50	C	-0.472907	1.588597	0.137209
H51	H	-0.313776	1.672531	0.141796
H52	H	-0.331613	1.496948	0.134483
H53	H	-0.322745	1.584601	0.314688
H54	H	-0.502687	1.589499	0.007664
H55	H	-0.493664	1.677095	0.187964
H56	H	-0.935241	1.491755	-0.239660
O57	O	-0.403538	1.061148	-0.035261
C58	C	-0.451593	1.241268	0.080274
C59	C	-0.404175	1.193254	-0.042899
H60	H	-0.452144	1.348076	0.074119
H61	H	-0.402107	1.215845	0.197562
H62	H	-0.535711	1.195400	0.060258
H63	H	-0.320066	1.239095	-0.023027
H64	H	-0.453738	1.218659	-0.160145
H65	H	-0.027659	1.758562	-0.386650
O66	O	-0.398638	0.833085	-0.284197
C67	C	-0.476336	0.864875	-0.551137
C68	C	-0.431273	0.926768	-0.391096
H69	H	-0.502713	0.940592	-0.637613
H70	H	-0.546622	0.794027	-0.551822
H71	H	-0.412957	0.814181	-0.582469
H72	H	-0.494576	0.977529	-0.359664
H73	H	-0.360963	0.997548	-0.390496
O74	O	-0.293725	1.316483	-0.768019
C75	C	-0.353562	1.098436	-0.838726
C76	C	-0.275825	1.192040	-0.723409
H77	H	-0.339131	0.997804	-0.802683
H78	H	-0.341407	1.112929	-0.956660
H79	H	-0.437757	1.115292	-0.842153
H80	H	-0.191598	1.175241	-0.719846
H81	H	-0.288071	1.177524	-0.605532
H82	H	0.016208	1.129386	0.006494
O83	O	-0.413018	1.053507	-0.286097
C84	C	-0.402966	1.176684	-0.503895
C85	C	-0.344740	1.137278	-0.342959
H86	H	-0.347781	1.244398	-0.549929
H87	H	-0.474820	1.225343	-0.498636
H88	H	-0.429389	1.089398	-0.582312
H89	H	-0.318247	1.224499	-0.264453
H90	H	-0.272934	1.088574	-0.348339
O91	O	-0.844641	1.489189	0.323667
C92	C	-0.979366	1.383823	0.424148
C93	C	-0.919062	1.382223	0.302150
H94	H	-1.039534	1.297337	0.406813
H95	H	-1.021728	1.472920	0.413888
H96	H	-0.921415	1.382361	0.542141
H97	H	-0.976942	1.383639	0.184102
H98	H	-0.876683	1.293133	0.312544
H99	H	-0.473001	1.479462	0.052586
H100	H	-0.835907	1.489115	-0.441025
H101	H	-0.473006	1.479478	-0.429254
O102	O	0.094182	1.642635	-0.335930
C103	C	0.247334	1.716178	-0.132747
C104	C	0.138338	1.744533	-0.232439
H105	H	0.283056	1.798533	-0.049029
H106	H	0.301203	1.702212	-0.208326
H107	H	0.238398	1.626739	-0.067011
H108	H	0.147173	1.833983	-0.298192
H109	H	0.084508	1.758420	-0.156779
O110	O	-0.023588	1.782585	-0.635337
C111	C	-0.062643	1.992313	-0.586863
C112	C	-0.038327	1.862045	-0.521024
H113	H	-0.074544	2.056602	-0.494464
H114	H	-0.137346	1.981308	-0.685953
H115	H	0.006042	2.035497	-0.628899
H116	H	-0.106946	1.818789	-0.478901
H117	H	0.036412	1.873132	-0.421999
O118	O	0.088876	1.631776	-0.598057
C119	C	0.240964	1.689597	-0.688613
C120	C	0.137976	1.730209	-0.665277
H121	H	0.280702	1.769169	-0.742932
H122	H	0.222501	1.601775	-0.766357
H123	H	0.295972	1.667806	-0.573709
H124	H	0.082918	1.752068	-0.780106
H125	H	0.156518	1.817992	-0.587462
H126	H	-0.637243	1.483815	0.385534
H127	H	-0.282729	1.330009	-0.473474
