data_functionalizedCrystal
_audit_creation_method	'MofGen! by Chris Wilmer'
_symmetry_space_group_name_H-M	'P1'
_symmetry_Int_Tables_number	1
_symmetry_cell_setting	triclinic
loop_
_symmetry_equiv_pos_as_xyz
  x,y,z
_cell_length_a	19.288864
_cell_length_b	19.288855
_cell_length_c	17.766277
_cell_angle_alpha	90.008954
_cell_angle_beta	89.976791
_cell_angle_gamma	96.865756
loop_
_atom_site_label
_atom_site_type_symbol
_atom_site_fract_x
_atom_site_fract_y
_atom_site_fract_z
O1	O	0.921350	-0.086649	-0.062840
O2	O	1.421350	0.413351	0.437160
O3	O	0.719089	-0.098338	-0.062789
O4	O	1.219089	0.401662	0.437211
O5	O	0.826067	0.008637	-0.062806
O6	O	1.326067	0.508637	0.437194
O7	O	0.814372	-0.193624	-0.062823
O8	O	1.314372	0.306376	0.437177
O9	O	0.826049	0.008643	0.062383
O10	O	1.326049	0.508643	0.562383
O11	O	0.719070	-0.098333	0.062400
O12	O	1.219070	0.401667	0.562400
O13	O	0.921331	-0.086644	0.062349
O14	O	1.421331	0.413356	0.562349
Cu15	Cu	0.820199	-0.092488	0.073805
Cu16	Cu	1.320199	0.407512	0.573805
Cu17	Cu	0.820221	-0.092494	-0.074245
Cu18	Cu	1.320221	0.407506	0.425755
O19	O	0.814353	-0.193619	0.062366
O20	O	1.314353	0.306381	0.562366
C21	C	0.693203	-0.097959	-0.000188
C22	C	1.193203	0.402041	0.499812
C23	C	0.616100	-0.096830	-0.000168
C24	C	1.116100	0.403170	0.499832
C25	C	0.825683	0.034517	-0.000211
C26	C	1.325683	0.534517	0.499789
C27	C	0.824557	0.111620	-0.000208
C28	C	1.324557	0.611620	0.499792
C29	C	0.571401	-0.159598	-0.000185
C30	C	1.071401	0.340402	0.499815
C31	C	0.498954	-0.158538	-0.000193
C32	C	0.998954	0.341462	0.499807
C33	C	0.471209	-0.094705	-0.000200
C34	C	0.971209	0.405295	0.499800
C35	C	0.515917	-0.031929	-0.000178
C36	C	1.015917	0.468071	0.499822
C37	C	0.588363	-0.032991	-0.000163
C38	C	1.088363	0.467009	0.499837
C39	C	0.362955	-0.044528	-0.044080
C40	C	0.862955	0.455472	0.455920
C41	C	0.290511	-0.043468	-0.044100
C42	C	0.790511	0.456532	0.455900
C43	C	0.247763	-0.091426	-0.000245
C44	C	0.747763	0.408574	0.499755
C45	C	0.277468	-0.140455	0.043621
C46	C	0.777468	0.359545	0.543621
C47	C	0.349913	-0.141517	0.043637
C48	C	0.849913	0.358483	0.543637
C49	C	0.392655	-0.093546	-0.000216
C50	C	0.892655	0.406454	0.499784
C51	C	0.124509	-0.153048	-0.000270
C52	C	0.624509	0.346952	0.499730
C53	C	0.052061	-0.151985	-0.000274
C54	C	0.552061	0.348015	0.499726
C55	C	0.069026	-0.025374	-0.000266
C56	C	0.569026	0.474626	0.499734
C57	C	0.141472	-0.026439	-0.000255
C58	C	0.641472	0.473561	0.499745
C59	C	0.169209	-0.090278	-0.000260
C60	C	0.669209	0.409722	0.499740
C61	C	0.947217	-0.087023	-0.000254
C62	C	1.447217	0.412977	0.499746
C63	C	1.024321	-0.088152	-0.000279
C64	C	1.524321	0.411848	0.499721
C65	C	0.824041	0.147828	-0.068448
C66	C	1.324041	0.647828	0.431552
C67	C	0.822973	0.220274	-0.068452
C68	C	1.322973	0.720274	0.431548
C69	C	0.822434	0.256512	-0.000213
C70	C	1.322434	0.756512	0.499787
C71	C	0.822946	0.220295	0.068036
C72	C	1.322946	0.720295	0.568036
C73	C	0.824007	0.147849	0.068039
C74	C	1.324007	0.647849	0.568039
C75	C	0.861429	0.376746	0.052053
C76	C	1.361429	0.876746	0.552053
C77	C	0.860372	0.449190	0.052047
C78	C	1.360372	0.949190	0.552047
C79	C	0.819158	0.479958	-0.000219
C80	C	1.319158	0.979958	0.499781
C81	C	0.779010	0.438273	-0.052492
C82	C	1.279010	0.938273	0.447508
C83	C	0.780071	0.365827	-0.052490
C84	C	1.280071	0.865827	0.447510
C85	C	0.821283	0.335067	-0.000209
C86	C	1.321283	0.835067	0.499791
C87	C	0.817484	0.594720	-0.068469
C88	C	1.317484	1.094720	0.431531
C89	C	0.816411	0.667167	-0.068471
C90	C	1.316411	1.167167	0.431529
C91	C	0.816391	0.667187	0.068019
C92	C	1.316391	1.167187	0.568019
C93	C	0.817456	0.594740	0.068019
C94	C	1.317456	1.094740	0.568019
C95	C	0.818006	0.558512	-0.000227
C96	C	1.318006	1.058512	0.499773
C97	C	0.814739	0.780502	-0.000229
C98	C	1.314739	1.280502	0.499771
C99	C	0.815871	0.703399	-0.000231
C100	C	1.315871	1.203399	0.499769
N101	N	0.820189	-0.092483	0.177935
N102	N	1.320189	0.407517	0.677935
N103	N	0.820237	-0.092493	-0.178375
N104	N	1.320237	0.407507	0.321625
C105	C	0.867574	-0.045137	0.217315
C106	C	1.367574	0.454863	0.717315
C107	C	0.867578	-0.045134	0.296116
C108	C	1.367578	0.454866	0.796116
C109	C	0.820203	-0.092488	0.335536
C110	C	1.320203	0.407512	0.835536
C111	C	0.772809	-0.139837	0.296147
C112	C	1.272809	0.360163	0.796147
C113	C	0.772802	-0.139835	0.217347
C114	C	1.272802	0.360165	0.717347
C115	C	0.810902	-0.155776	0.460370
C116	C	1.310902	0.344224	0.960370
C117	C	0.810914	-0.155780	0.539169
C118	C	1.310914	0.344220	1.039169
C119	C	0.820222	-0.092497	0.578582
C120	C	1.320222	0.407503	1.078582
C121	C	0.829532	-0.029207	0.539187
C122	C	1.329532	0.470793	1.039187
C123	C	0.829524	-0.029204	0.460387
C124	C	1.329524	0.470796	0.960387
C125	C	0.820206	-0.092496	0.420981
C126	C	1.320206	0.407504	0.920981
C127	C	0.867614	-0.045144	0.703407
C128	C	1.367614	0.454856	1.203407
C129	C	0.867613	-0.045140	0.782211
C130	C	1.367613	0.454860	1.282211
C131	C	0.772848	-0.139849	0.782240
C132	C	1.272848	0.360151	1.282240
C133	C	0.772845	-0.139847	0.703438
C134	C	1.272845	0.360153	1.203438
C135	C	0.820232	-0.092495	0.664027
C136	C	1.320232	0.407505	1.164027
H137	H	0.593980	-0.211581	-0.000191
H138	H	1.093980	0.288419	0.499809
H139	H	0.374096	-0.181437	0.079356
H140	H	0.874096	0.318563	0.579356
Cl141	Cl	0.159382	-0.233301	-0.000269
Cl142	Cl	0.659382	0.266699	0.499731
Cl143	Cl	0.824727	0.102287	-0.154243
Cl144	Cl	1.324727	0.602287	0.345757
Cl145	Cl	0.913264	0.338077	0.117749
Cl146	Cl	1.413264	0.838077	0.617749
H147	H	0.734235	-0.178393	0.328246
H148	H	1.234235	0.321607	0.828246
H149	H	0.906197	-0.006585	0.671317
H150	H	1.406197	0.493415	1.171317
Cl151	Cl	0.822263	0.265849	0.153822
Cl152	Cl	1.322263	0.765849	0.653822
H153	H	0.734272	-0.178403	0.814334
H154	H	1.234272	0.321597	1.314334
H155	H	0.824424	0.118369	0.123609
H156	H	1.324424	0.618369	0.623609
H157	H	0.734214	-0.178390	0.185283
H158	H	1.234214	0.321610	0.685283
Cl159	Cl	0.442751	-0.237452	-0.000213
Cl160	Cl	0.942751	0.262548	0.499787
Cl161	Cl	0.927141	0.014393	0.167769
Cl162	Cl	1.427141	0.514393	0.667769
H163	H	0.177867	0.024674	-0.000245
H164	H	0.677867	0.524674	0.499755
H165	H	0.046436	0.026600	-0.000318
H166	H	0.546436	0.526600	0.499682
Cl167	Cl	0.223736	-0.200749	0.098757
Cl168	Cl	0.723736	0.299251	0.598757
H169	H	0.906198	-0.006581	0.814274
H170	H	1.406198	0.493419	1.314274
Cl171	Cl	0.818104	0.549219	0.153812
Cl172	Cl	1.318104	1.049219	0.653812
H173	H	0.906166	-0.006578	0.328185
H174	H	1.406166	0.493422	0.828185
Cl175	Cl	0.818169	0.549171	-0.154262
Cl176	Cl	1.318169	1.049171	0.345738
H177	H	0.837110	0.022325	0.571275
H178	H	1.337110	0.522325	1.071275
H179	H	0.015667	-0.203100	-0.000283
H180	H	0.515667	0.296900	0.499717
H181	H	0.734262	-0.178403	0.671373
H182	H	1.234262	0.321597	1.171373
Cl183	Cl	0.841220	0.050356	0.410864
Cl184	Cl	1.341220	0.550356	0.910864
H185	H	0.266331	-0.003548	-0.079822
H186	H	0.766331	0.496452	0.420178
H187	H	0.397755	-0.005473	-0.079797
H188	H	0.897755	0.494527	0.420203
H189	H	0.803338	-0.207314	0.571238
H190	H	1.303338	0.292686	1.071238
Cl191	Cl	0.799265	-0.235342	0.410830
Cl192	Cl	1.299265	0.264658	0.910830
H193	H	0.624757	0.018124	-0.000149
H194	H	1.124757	0.518124	0.499851
Cl195	Cl	0.481038	0.048318	-0.000182
Cl196	Cl	0.981038	0.548318	0.499818
Cl197	Cl	0.729599	0.313425	-0.118198
Cl198	Cl	1.229599	0.813425	0.381802
H199	H	0.822549	0.249760	-0.124023
H200	H	1.322549	0.749760	0.375977
Cl201	Cl	0.727191	0.476942	-0.118200
Cl202	Cl	1.227191	0.976942	0.381800
Cl203	Cl	0.815758	0.712685	-0.154267
Cl204	Cl	1.315758	1.212685	0.345733
H205	H	0.815947	0.696690	0.123581
H206	H	1.315947	1.196690	0.623581
H207	H	0.893066	0.483126	0.094609
H208	H	1.393066	0.983126	0.594609
