data_functionalizedCrystal
_audit_creation_method	'MofGen! by Chris Wilmer'
_symmetry_space_group_name_H-M	'P1'
_symmetry_Int_Tables_number	1
_symmetry_cell_setting	triclinic
loop_
_symmetry_equiv_pos_as_xyz
  x,y,z
_cell_length_a	16.974897
_cell_length_b	12.811415
_cell_length_c	15.455320
_cell_angle_alpha	92.732577
_cell_angle_beta	96.311073
_cell_angle_gamma	83.375521
loop_
_atom_site_label
_atom_site_type_symbol
_atom_site_fract_x
_atom_site_fract_y
_atom_site_fract_z
O1	O	1.057006	0.123875	0.155993
O2	O	1.557006	0.623875	0.655993
O3	O	0.826155	0.141842	0.141220
O4	O	1.326155	0.641842	0.641220
O5	O	0.946818	-0.019201	0.137009
O6	O	1.446818	0.480799	0.637009
O7	O	0.936343	0.284917	0.160204
O8	O	1.436343	0.784917	0.660204
O9	O	0.939946	-0.009995	-0.007010
O10	O	1.439946	0.490005	0.492990
O11	O	0.819283	0.151048	-0.002799
O12	O	1.319283	0.651048	0.497201
O13	O	1.050135	0.133081	0.011974
O14	O	1.550135	0.633081	0.511974
Cu15	Cu	0.934081	0.142905	-0.008563
Cu16	Cu	1.434081	0.642905	0.491437
Cu17	Cu	0.942208	0.132018	0.161757
Cu18	Cu	1.442208	0.632018	0.661757
O19	O	0.929472	0.294123	0.016185
O20	O	1.429472	0.794123	0.516185
C21	C	0.793158	0.145930	0.067097
C22	C	1.293158	0.645930	0.567097
C23	C	0.705076	0.144382	0.060800
C24	C	1.205076	0.644382	0.560800
C25	C	0.667433	0.138640	0.136340
C26	C	1.167433	0.638640	0.636340
C27	C	0.584668	0.137204	0.130411
C28	C	1.084668	0.637204	0.630411
C29	C	0.539549	0.141502	0.048941
C30	C	1.039549	0.641502	0.548941
C31	C	0.577197	0.147248	-0.026605
C32	C	1.077197	0.647248	0.473395
C33	C	0.659960	0.148692	-0.020675
C34	C	1.159960	0.648692	0.479325
C35	C	0.291624	0.137729	0.022787
C36	C	0.791624	0.637729	0.522787
C37	C	0.208857	0.136282	0.016862
C38	C	0.708857	0.636282	0.516862
C39	C	0.216333	0.126240	0.173879
C40	C	0.716333	0.626240	0.673879
C41	C	0.299098	0.127678	0.179801
C42	C	0.799098	0.627678	0.679801
C43	C	0.336738	0.133429	0.104256
C44	C	0.836738	0.633429	0.604256
N45	N	0.454951	0.140031	0.042878
N46	N	0.954951	0.640031	0.542878
N47	N	0.421334	0.134908	0.110320
N48	N	0.921334	0.634908	0.610320
C49	C	0.942584	-0.053502	0.061884
C50	C	1.442584	0.446498	0.561884
C51	C	0.940199	-0.169424	0.052601
C52	C	1.440199	0.330576	0.552601
C53	C	0.943194	-0.397279	0.192184
C54	C	1.443194	0.102721	0.692184
C55	C	0.940952	-0.506198	0.183466
C56	C	1.440952	-0.006198	0.683466
C57	C	0.933469	-0.496182	0.026447
C58	C	1.433469	0.003818	0.526447
C59	C	0.935710	-0.387263	0.035165
C60	C	1.435710	0.112737	0.535165
C61	C	0.940574	-0.337816	0.118037
C62	C	1.440574	0.162184	0.618037
C63	C	0.942821	-0.228896	0.126754
C64	C	1.442821	0.271104	0.626754
C65	C	0.935332	-0.218881	-0.030264
C66	C	1.435332	0.281119	0.469736
C67	C	0.933090	-0.327800	-0.038982
C68	C	1.433090	0.172200	0.461018
C69	C	1.083131	0.128993	0.086099
C70	C	1.583131	0.628993	0.586099
C71	C	1.171214	0.130540	0.092402
C72	C	1.671214	0.630540	0.592402
C73	C	0.933705	0.328424	0.091312
C74	C	1.433705	0.828424	0.591312
C75	C	0.936091	0.444346	0.100601
C76	C	1.436091	0.944346	0.600601
N77	N	0.928371	0.150562	-0.128356
N78	N	1.428371	0.650562	0.371644
C79	C	0.896650	0.192751	-0.671268
C80	C	1.396650	0.692751	-0.171268
C81	C	0.900986	0.186981	-0.580610
C82	C	1.400986	0.686981	-0.080610
C83	C	0.956600	0.112816	-0.537136
C84	C	1.456600	0.612816	-0.037136
C85	C	1.007876	0.044410	-0.584324
C86	C	1.507876	0.544410	-0.084324
C87	C	1.003536	0.050176	-0.674981
C88	C	1.503536	0.550176	-0.174981
C89	C	0.975307	0.087922	-0.266202
C90	C	1.475307	0.587922	0.233798
C91	C	0.979645	0.082163	-0.175538
C92	C	1.479645	0.582163	0.324462
C93	C	0.872754	0.224733	-0.171830
C94	C	1.372754	0.724733	0.328170
C95	C	0.868422	0.230497	-0.262488
C96	C	1.368422	0.730497	0.237512
C97	C	0.919695	0.162088	-0.309670
C98	C	1.419695	0.662088	0.190330
N99	N	0.961035	0.106918	-0.444469
N100	N	1.461035	0.606918	0.055531
N101	N	0.915256	0.167981	-0.402336
N102	N	1.415256	0.667981	0.097664
N103	N	0.947924	0.124353	0.281550
N104	N	1.447924	0.624353	0.781550
H105	H	0.322262	0.142405	-0.038728
H106	H	0.822262	0.642405	0.461272
Cl107	Cl	0.932046	-0.144121	-0.123483
Cl108	Cl	1.432046	0.355879	0.376517
H109	H	1.024936	0.021765	-0.140146
H110	H	1.524936	0.521765	0.359854
H111	H	1.045287	-0.005523	-0.713396
H112	H	1.545287	0.494477	-0.213396
H113	H	0.823137	0.290889	-0.297883
H114	H	1.323137	0.790889	0.202117
H115	H	0.704164	0.135137	0.202681
H116	H	1.204164	0.635137	0.702681
H117	H	0.929502	-0.536461	-0.041023
H118	H	1.429502	-0.036461	0.458977
Cl119	Cl	0.948938	-0.166735	0.230934
Cl120	Cl	1.448938	0.333265	0.730934
Cl121	Cl	0.537349	0.129986	0.225381
Cl122	Cl	1.037349	0.629986	0.725381
Cl123	Cl	0.926970	-0.389971	-0.143158
Cl124	Cl	1.426970	0.110029	0.356842
Cl125	Cl	0.808297	0.310725	-0.112513
Cl126	Cl	1.308297	0.810725	0.387487
Cl127	Cl	0.355814	0.122267	0.282225
Cl128	Cl	0.855814	0.622267	0.782225
Cl129	Cl	0.707282	0.155916	-0.115643
Cl130	Cl	1.207282	0.655916	0.384357
H131	H	0.851367	0.253149	-0.706658
H132	H	1.351367	0.753149	-0.206658
H133	H	0.540454	0.150754	-0.092939
H134	H	1.040454	0.650754	0.407061
Cl135	Cl	0.169010	0.118999	0.268843
Cl136	Cl	0.669010	0.618999	0.768843
Cl137	Cl	0.944243	-0.580949	0.276685
Cl138	Cl	1.444243	-0.080949	0.776685
H139	H	0.859234	0.242676	-0.542195
H140	H	1.359234	0.742676	-0.042195
Cl141	Cl	0.949320	-0.335115	0.296363
Cl142	Cl	1.449320	0.164885	0.796363
H143	H	0.172119	0.139812	-0.049482
H144	H	0.672119	0.639812	0.450518
H145	H	1.053155	-0.015983	-0.548923
H146	H	1.553155	0.484017	-0.048923
Cl147	Cl	1.039766	0.001927	-0.325509
Cl148	Cl	1.539766	0.501927	0.174491
