data_functionalizedCrystal
_audit_creation_method	'MofGen! by Chris Wilmer'
_symmetry_space_group_name_H-M	'P1'
_symmetry_Int_Tables_number	1
_symmetry_cell_setting	triclinic
loop_
_symmetry_equiv_pos_as_xyz
  x,y,z
_cell_length_a	14.519731
_cell_length_b	14.519709
_cell_length_c	13.596369
_cell_angle_alpha	89.998664
_cell_angle_beta	89.993976
_cell_angle_gamma	83.684499
loop_
_atom_site_label
_atom_site_type_symbol
_atom_site_fract_x
_atom_site_fract_y
_atom_site_fract_z
O1	O	1.223858	0.120979	-0.081796
O2	O	0.955384	0.135195	-0.081797
O3	O	1.096739	-0.006151	-0.081788
O4	O	1.082503	0.262325	-0.081805
O5	O	1.096722	-0.006143	0.081795
O6	O	0.955366	0.135203	0.081785
O7	O	1.223841	0.120986	0.081787
Zn8	Zn	1.089601	0.128096	0.107759
Zn9	Zn	1.089624	0.128085	-0.107769
O10	O	1.082485	0.262332	0.081777
C11	C	0.921016	0.134532	-0.000006
C12	C	0.818635	0.132536	-0.000007
C13	C	1.096067	-0.040507	0.000004
C14	C	1.094079	-0.142889	0.000005
C15	C	0.735491	0.130915	-0.000010
C16	C	0.631182	0.128888	-0.000011
C17	C	0.548043	0.127280	-0.000010
C18	C	0.443728	0.125253	-0.000012
C19	C	1.086759	-0.517785	-0.000021
C20	C	1.088792	-0.413477	-0.000014
C21	C	1.090419	-0.330340	-0.000007
C22	C	1.092452	-0.226025	-0.000002
C23	C	1.258209	0.121649	-0.000006
C24	C	1.360589	0.123645	-0.000012
C25	C	1.083157	0.296688	-0.000016
C26	C	1.085146	0.399070	-0.000023
N27	N	1.089592	0.128102	0.254851
N28	N	1.089640	0.128072	-0.254861
C29	C	1.089596	0.128104	0.343848
C30	C	1.089605	0.128098	0.455500
C31	C	1.089617	0.128088	0.544490
C32	C	1.089628	0.128082	0.656149
