data_functionalizedCrystal
_audit_creation_method	'MofGen! by Chris Wilmer'
_symmetry_space_group_name_H-M	'P1'
_symmetry_Int_Tables_number	1
_symmetry_cell_setting	triclinic
loop_
_symmetry_equiv_pos_as_xyz
  x,y,z
_cell_length_a	11.169417
_cell_length_b	11.169416
_cell_length_c	12.759393
_cell_angle_alpha	89.972268
_cell_angle_beta	89.983293
_cell_angle_gamma	90.011589
loop_
_atom_site_label
_atom_site_type_symbol
_atom_site_fract_x
_atom_site_fract_y
_atom_site_fract_z
Zn1	Zn	1.834929	-0.477707	-0.593990
Zn2	Zn	1.834828	-0.678437	-0.418319
Zn3	Zn	1.634225	-0.477771	-0.418330
Zn4	Zn	1.634222	-0.678351	-0.593962
O5	O	1.734551	-0.578066	-0.506150
O6	O	2.002865	-0.504344	-0.570693
O7	O	1.808177	-0.651880	-0.271299
O8	O	1.660892	-0.309812	-0.441649
O9	O	2.002791	-0.651819	-0.441629
O10	O	1.808348	-0.309766	-0.570705
O11	O	1.660794	-0.504452	-0.271308
O12	O	1.466275	-0.504369	-0.441621
O13	O	1.660888	-0.651673	-0.740986
O14	O	1.466273	-0.651735	-0.570657
O15	O	1.808346	-0.504261	-0.741007
O16	O	1.808174	-0.846375	-0.441601
O17	O	1.660790	-0.846312	-0.570645
C18	C	1.422726	-0.578050	-0.506138
C19	C	1.289326	-0.578072	-0.506158
C20	C	1.734504	-0.889891	-0.506142
C21	C	1.734593	-1.023291	-0.506174
C22	C	2.047593	-0.578084	-0.506163
C23	C	2.180993	-0.578091	-0.506168
C24	C	1.734628	-0.577950	-0.780183
C25	C	1.734661	-0.577901	-0.896960
C26	C	1.734632	-0.265024	-0.506181
C27	C	1.734666	-0.131624	-0.506194
C28	C	1.657905	-0.654622	-0.951813
C29	C	1.657949	-0.654579	-1.061537
C30	C	1.811508	-0.501082	-1.061546
C31	C	1.811469	-0.501132	-0.951824
C32	C	1.569245	-0.743239	-0.951809
C33	C	1.569289	-0.743195	-1.061533
C34	C	1.734544	-0.578095	-0.233183
C35	C	1.734743	-0.577807	-0.116407
H36	H	1.873983	-0.438670	-0.907166
H37	H	1.602568	-0.831485	-1.095556
C38	C	1.894821	-0.417536	-1.120980
C39	C	1.868731	-0.298800	-1.094282
C40	C	1.945465	-0.221802	-1.148998
H41	H	1.883932	-0.428330	-1.194199
H42	H	1.975468	-0.435043	-1.102969
H43	H	1.788103	-0.281298	-1.112299
H44	H	1.879627	-0.287967	-1.021072
H45	H	2.026112	-0.239310	-1.130987
H46	H	1.934570	-0.232607	-1.222214
H47	H	1.927781	-0.141232	-1.130883
H48	H	1.476354	-0.718274	-1.091316
H49	H	1.594118	-0.836204	-0.922026
H50	H	1.480946	-0.709952	-0.917780
