data_functionalizedCrystal
_audit_creation_method	'MofGen! by Chris Wilmer'
_symmetry_space_group_name_H-M	'P1'
_symmetry_Int_Tables_number	1
_symmetry_cell_setting	triclinic
loop_
_symmetry_equiv_pos_as_xyz
  x,y,z
_cell_length_a	12.837943
_cell_length_b	14.519709
_cell_length_c	12.996460
_cell_angle_alpha	90.005823
_cell_angle_beta	89.991973
_cell_angle_gamma	89.254542
loop_
_atom_site_label
_atom_site_type_symbol
_atom_site_fract_x
_atom_site_fract_y
_atom_site_fract_z
O1	O	1.375881	0.239786	0.085553
O2	O	1.875881	0.739786	0.585553
O3	O	1.074054	0.227941	0.085559
O4	O	1.574054	0.727941	0.585559
O5	O	1.232970	0.100316	0.085547
O6	O	1.732970	0.600316	0.585547
O7	O	1.216965	0.367410	0.085566
O8	O	1.716965	0.867410	0.585566
O9	O	1.232990	0.100310	-0.085587
O10	O	1.732990	0.600310	0.414413
O11	O	1.074074	0.227935	-0.085575
O12	O	1.574074	0.727935	0.414425
O13	O	1.375902	0.239780	-0.085580
O14	O	1.875902	0.739780	0.414420
Cu15	Cu	1.224990	0.233856	-0.101203
Cu16	Cu	1.724990	0.733856	0.398797
Cu17	Cu	1.224966	0.233864	0.101182
Cu18	Cu	1.724966	0.733864	0.601182
O19	O	1.216985	0.367404	-0.085568
O20	O	1.716985	0.867404	0.414432
C21	C	1.035436	0.223936	-0.000007
C22	C	1.535436	0.723936	0.499993
C23	C	0.920337	0.212002	-0.000005
C24	C	1.420337	0.712002	0.499995
C25	C	1.232234	0.065889	-0.000020
C26	C	1.732234	0.565889	0.499980
C27	C	1.229999	-0.036685	-0.000021
C28	C	1.729999	0.463315	0.499979
C29	C	0.679644	0.355473	-0.000010
C30	C	1.179644	0.855473	0.499990
C31	C	0.571498	0.344264	-0.000009
C32	C	1.071498	0.844264	0.499991
C33	C	0.595895	0.178376	-0.000010
C34	C	1.095895	0.678376	0.499990
C35	C	0.704041	0.189585	-0.000011
C36	C	1.204041	0.689585	0.499989
C37	C	0.745912	0.278136	-0.000009
C38	C	1.245912	0.778136	0.499991
C39	C	0.854061	0.289344	-0.000003
C40	C	1.354061	0.789344	0.499997
C41	C	0.878456	0.123458	-0.000011
C42	C	1.378456	0.623458	0.499989
C43	C	0.770309	0.112249	-0.000010
C44	C	1.270309	0.612249	0.499990
C45	C	1.221770	-0.412292	0.000006
C46	C	1.721770	0.087708	0.500006
C47	C	1.224055	-0.307787	-0.000002
C48	C	1.724055	0.192213	0.499998
C49	C	1.225884	-0.224492	-0.000008
C50	C	1.725884	0.275508	0.499992
C51	C	1.228170	-0.119980	-0.000014
C52	C	1.728170	0.380020	0.499986
C53	C	1.414519	0.243784	-0.000012
C54	C	1.914519	0.743784	0.499988
C55	C	1.529619	0.255718	-0.000007
C56	C	2.029619	0.755718	0.499993
C57	C	1.217721	0.401831	0.000001
C58	C	1.717721	0.901831	0.500001
C59	C	1.219956	0.504406	0.000008
C60	C	1.719956	1.004406	0.500008
N61	N	1.224949	0.233863	0.243529
N62	N	1.724949	0.733863	0.743529
N63	N	1.225014	0.233851	-0.243551
N64	N	1.725014	0.733851	0.256449
C65	C	1.224952	0.233864	0.336635
C66	C	1.724952	0.733864	0.836635
C67	C	1.224967	0.233863	0.453440
C68	C	1.724967	0.733863	0.953440
C69	C	1.224984	0.233858	0.546539
C70	C	1.724984	0.733858	1.046539
C71	C	1.224997	0.233856	0.663351
C72	C	1.724997	0.733856	1.163351
H73	H	0.713736	0.427574	-0.000007
H74	H	1.213736	0.927574	0.499993
C75	C	0.499721	0.428345	0.000048
C76	C	0.999721	0.928345	0.500048
C77	C	0.559543	0.508288	0.000074
C78	C	1.059543	1.008288	0.500074
C79	C	0.493458	0.585764	0.000139
C80	C	0.993458	1.085764	0.500139
H81	H	0.457009	0.427546	-0.059612
H82	H	0.957009	0.927546	0.440388
H83	H	0.457035	0.427477	0.059752
H84	H	0.957035	0.927477	0.559752
H85	H	0.602211	0.509156	-0.059623
H86	H	1.102211	1.009156	0.440377
H87	H	0.602252	0.509117	0.059730
H88	H	1.102252	1.009117	0.559730
H89	H	0.450772	0.584896	0.059843
H90	H	0.950772	1.084896	0.559843
H91	H	0.450750	0.584956	-0.059522
H92	H	0.950750	1.084956	0.440478
H93	H	0.534037	0.640014	0.000167
H94	H	1.034037	1.140014	0.500167
C95	C	0.899323	0.385558	-0.000056
C96	C	1.399323	0.885558	0.499944
C97	C	0.818136	0.450885	-0.000087
C98	C	1.318136	0.950885	0.499913
C99	C	0.859788	0.539528	-0.000153
C100	C	1.359788	1.039528	0.499847
H101	H	0.940980	0.393518	0.059605
H102	H	1.440980	0.893518	0.559605
H103	H	0.940983	0.393418	-0.059759
H104	H	1.440983	0.893418	0.440241
H105	H	0.776494	0.443028	0.059610
H106	H	1.276494	0.943028	0.559610
H107	H	0.776472	0.442955	-0.059744
H108	H	1.276472	0.942955	0.440256
H109	H	0.901447	0.547389	-0.059856
H110	H	1.401447	1.047389	0.440144
H111	H	0.901444	0.547479	0.059509
H112	H	1.401444	1.047479	0.559509
H113	H	0.804709	0.583864	-0.000183
H114	H	1.304709	1.083864	0.499817
H115	H	0.561784	0.106282	-0.000096
H116	H	1.061784	0.606282	0.499904
H117	H	0.736203	0.040153	-0.000023
H118	H	1.236203	0.540153	0.499977
H119	H	0.932423	0.060484	-0.000003
H120	H	1.432423	0.560484	0.499997
