data_functionalizedCrystal
_audit_creation_method	'MofGen! by Chris Wilmer'
_symmetry_space_group_name_H-M	'P1'
_symmetry_Int_Tables_number	1
_symmetry_cell_setting	triclinic
loop_
_symmetry_equiv_pos_as_xyz
  x,y,z
_cell_length_a	16.992694
_cell_length_b	16.098538
_cell_length_c	16.992695
_cell_angle_alpha	87.090873
_cell_angle_beta	90.668223
_cell_angle_gamma	92.919142
loop_
_atom_site_label
_atom_site_type_symbol
_atom_site_fract_x
_atom_site_fract_y
_atom_site_fract_z
O1	O	1.054150	0.069152	0.163624
O2	O	0.825751	0.069177	0.161792
O3	O	0.939035	0.069158	0.048509
O4	O	0.940866	0.069171	0.276908
O5	O	0.932415	-0.069354	0.055098
O6	O	0.819132	-0.069335	0.168382
O7	O	1.047531	-0.069360	0.170214
Zn8	Zn	0.932280	-0.091339	0.170344
Zn9	Zn	0.941001	0.091156	0.161662
O10	O	0.934247	-0.069341	0.283498
C11	C	0.793081	-0.000076	0.162731
C12	C	0.705597	-0.000067	0.155702
N13	N	0.926334	-0.215887	0.176270
C14	C	0.659607	-0.000064	0.223520
C15	C	0.577405	-0.000075	0.216911
C16	C	0.541196	-0.000085	0.142484
C17	C	0.587193	-0.000090	0.074661
C18	C	0.669393	-0.000084	0.081271
C19	C	0.295881	-0.000108	0.115091
C20	C	0.213676	-0.000112	0.108486
C21	C	0.203893	-0.000099	0.250737
C22	C	0.286095	-0.000088	0.257340
C23	C	0.332084	-0.000098	0.189517
N24	N	0.457174	-0.000094	0.135727
N25	N	0.416105	-0.000094	0.196275
C26	C	0.974436	-0.259480	0.128207
C27	C	0.970284	-0.346669	0.132360
C28	C	0.918034	-0.390262	0.184580
C29	C	0.869927	-0.346663	0.232645
C30	C	0.874075	-0.259476	0.228487
C31	C	0.902995	-0.653510	0.199638
C32	C	0.898852	-0.740703	0.203793
C33	C	0.999209	-0.740702	0.103507
C34	C	1.003356	-0.653514	0.099358
C35	C	0.955246	-0.609922	0.147419
C36	C	0.913791	-0.479383	0.188828
C37	C	0.959485	-0.520803	0.143167
C38	C	1.080200	-0.000105	0.169275
C39	C	1.167685	-0.000109	0.176304
C40	C	0.933369	-0.000098	0.022443
C41	C	0.926341	-0.000097	-0.065041
N42	N	0.946954	0.215704	0.155731
C43	C	0.994158	-0.000105	-0.111032
C44	C	0.987550	-0.000096	-0.193233
C45	C	0.913122	-0.000085	-0.229442
C46	C	0.845300	-0.000075	-0.183445
C47	C	0.851909	-0.000077	-0.101246
C48	C	0.885729	-0.000071	-0.474757
C49	C	0.879124	-0.000071	-0.556962
C50	C	1.021374	-0.000091	-0.566744
C51	C	1.027977	-0.000098	-0.484543
C52	C	0.960155	-0.000083	-0.438554
N53	N	0.906366	-0.000079	-0.313464
N54	N	0.966913	-0.000083	-0.354533
C55	C	0.939913	-0.000083	0.309563
C56	C	0.946942	-0.000079	0.397047
H57	H	0.689081	-0.000056	0.284126
H58	H	0.784700	-0.000061	-0.212933
H59	H	0.184198	-0.000118	0.047876
O60	O	0.159337	-0.000058	0.316694
C61	C	0.208922	-0.000072	0.383802
H62	H	0.270200	0.026154	0.366413
H63	H	0.183666	0.040142	0.429724
H64	H	0.212995	-0.066522	0.409535
H65	H	1.088584	-0.000107	-0.455068
H66	H	1.076591	-0.000101	-0.604197
O67	O	0.806763	-0.000014	-0.592012
C68	C	0.748317	-0.000019	-0.533795
H69	H	0.775131	0.026197	-0.477879
H70	H	0.698593	0.040210	-0.556038
H71	H	0.723964	-0.066464	-0.520392
H72	H	0.333316	-0.000117	0.059864
H73	H	1.042774	-0.000105	-0.230675
O74	O	0.847975	-0.783018	0.254428
C75	C	0.770265	-0.761718	0.235689
H76	H	0.767083	-0.737754	0.171498
H77	H	0.728603	-0.819065	0.244966
H78	H	0.752271	-0.711113	0.275448
H79	H	1.002025	-0.485307	0.100646
O80	O	0.819876	0.000086	-0.430066
C81	C	0.822874	0.071813	-0.385622
H82	H	0.863644	0.121948	-0.415549
H83	H	0.761194	0.095900	-0.381516
H84	H	0.846207	0.055593	-0.323865
H85	H	0.796685	-0.000071	-0.063801
O86	O	1.066482	0.000034	-0.075905
C87	C	1.111567	0.071758	-0.102392
H88	H	1.070529	0.121900	-0.124507
H89	H	1.149326	0.095834	-0.051699
H90	H	1.151304	0.055537	-0.152386
O91	O	0.532849	-0.000034	0.282868
C92	C	0.582433	-0.000041	0.349976
H93	H	0.643710	0.026188	0.332586
H94	H	0.557175	0.040175	0.395896
H95	H	0.586509	-0.066489	0.375713
H96	H	0.557705	-0.000110	0.014062
O97	O	0.321395	-0.000015	0.329575
C98	C	0.403808	-0.000013	0.320866
H99	H	0.420480	0.026177	0.259383
H100	H	0.433832	0.040241	0.366864
H101	H	0.423755	-0.066453	0.329308
O102	O	0.713956	-0.000046	0.015311
C103	C	0.664372	-0.000074	-0.051798
H104	H	0.605592	0.026147	-0.036907
H105	H	0.693461	0.040138	-0.101545
H106	H	0.653969	-0.066527	-0.071208
H107	H	1.016987	-0.223992	0.085687
O108	O	0.862997	-0.521826	0.239452
C109	C	0.809385	-0.572255	0.196621
H110	H	0.836257	-0.585311	0.137624
H111	H	0.796080	-0.633567	0.231606
H112	H	0.752466	-0.538668	0.186000
O113	O	1.017100	-0.388885	0.085650
C114	C	1.064101	-0.331713	0.038662
H115	H	1.069956	-0.269556	0.068028
H116	H	1.125019	-0.356894	0.031845
H117	H	1.035334	-0.322458	-0.021881
O118	O	1.045817	-0.783087	0.056735
C119	C	0.998216	-0.833548	0.007925
H120	H	0.937303	-0.807280	0.001421
H121	H	1.026364	-0.834545	-0.052567
H122	H	0.992489	-0.899621	0.035452
O123	O	1.054128	-0.611298	0.048560
C124	C	1.095709	-0.668472	0.007041
H125	H	1.060424	-0.730627	0.007073
H126	H	1.104981	-0.643289	-0.056266
H127	H	1.155345	-0.677731	0.036742
H128	H	0.827379	-0.382162	0.275161
O129	O	0.856350	-0.611214	0.246447
C130	C	0.873004	-0.632526	0.326194
H131	H	0.934916	-0.656477	0.331701
H132	H	0.869146	-0.575189	0.362402
H133	H	0.828420	-0.683145	0.348966
O134	O	0.827382	-0.216998	0.275097
C135	C	0.842260	-0.130698	0.260244
H136	H	0.868330	-0.118798	0.198952
H137	H	0.784771	-0.097569	0.263650
H138	H	0.885707	-0.105941	0.306118
