data_functionalizedCrystal
_audit_creation_method	'MofGen! by Chris Wilmer'
_symmetry_space_group_name_H-M	'P1'
_symmetry_Int_Tables_number	1
_symmetry_cell_setting	triclinic
loop_
_symmetry_equiv_pos_as_xyz
  x,y,z
_cell_length_a	8.559649
_cell_length_b	13.339070
_cell_length_c	7.681481
_cell_angle_alpha	82.700297
_cell_angle_beta	94.913240
_cell_angle_gamma	92.703979
loop_
_atom_site_label
_atom_site_type_symbol
_atom_site_fract_x
_atom_site_fract_y
_atom_site_fract_z
O1	O	2.094922	-0.022785	-0.146401
O2	O	1.652108	0.027721	-0.146409
O3	O	1.822694	-0.140848	-0.146401
O4	O	1.924335	0.145783	-0.146409
O5	O	1.843672	-0.161637	0.146458
O6	O	1.673086	0.006931	0.146450
O7	O	2.115899	-0.043574	0.146458
Zn8	Zn	1.897823	-0.021623	0.192951
Zn9	Zn	1.870184	0.005769	-0.192903
O10	O	1.945313	0.124994	0.146449
C11	C	1.604764	0.021153	0.000020
C12	C	1.432434	0.032546	0.000017
C13	C	1.816014	-0.187598	0.000026
C14	C	1.764836	-0.295923	0.000018
C15	C	2.162764	-0.691632	0.000026
C16	C	2.210854	-0.589856	0.000043
C17	C	2.099353	-0.516368	0.000036
C18	C	1.939755	-0.544665	0.000013
C19	C	1.891662	-0.646451	0.000010
C20	C	1.828251	-0.471188	0.000020
C21	C	1.668653	-0.499485	-0.000003
C22	C	1.620567	-0.601262	-0.000008
C23	C	1.732068	-0.674750	-0.000001
C24	C	1.876344	-0.369401	0.000024
C25	C	1.605242	-0.324221	0.000008
C26	C	1.557152	-0.425997	-0.000010
C27	C	2.163243	-0.037007	0.000025
C28	C	2.335572	-0.048399	0.000017
C29	C	1.951993	0.171744	0.000019
C30	C	2.003170	0.280070	0.000015
N31	N	1.916697	-0.040318	0.456287
N32	N	1.851319	0.024455	-0.456238
H33	H	2.138518	-0.433499	0.000051
H34	H	1.384481	-0.126415	0.000010
O35	O	1.771905	0.103368	0.453868
C36	C	1.873910	0.164735	0.347245
H37	H	1.975461	0.118277	0.319786
H38	H	1.807106	0.194378	0.217540
H39	H	1.921644	0.231173	0.418186
H40	H	1.490613	-0.624297	-0.000013
O41	O	2.031304	-0.341778	-0.000202
C42	C	2.056381	-0.273508	-0.151897
H43	H	1.942279	-0.235051	-0.202468
H44	H	2.150013	-0.213921	-0.117783
H45	H	2.097128	-0.316344	-0.258103
H46	H	1.983457	-0.106431	0.531496
O47	O	1.373838	0.125550	0.000085
C48	C	1.209047	0.116611	0.000030
H49	H	1.172925	0.036316	0.055477
H50	H	1.166939	0.172414	0.085046
H51	H	1.154022	0.133876	-0.140473
H52	H	2.340798	-0.566825	0.000065
H53	H	2.253531	-0.751474	0.000046
H54	H	1.692920	-0.757625	-0.000021
O55	O	1.402152	-0.453599	-0.000256
C56	C	1.355364	-0.500328	-0.151957
H57	H	1.462233	-0.531593	-0.202519
H58	H	1.266630	-0.564767	-0.117853
H59	H	1.299395	-0.442415	-0.258166
O60	O	1.497116	-0.252710	-0.000084
C61	C	1.573787	-0.156812	-0.000040
H62	H	1.692878	-0.158393	-0.055477
H63	H	1.499412	-0.097664	-0.085071
H64	H	1.591070	-0.136831	0.140458
