data_functionalizedCrystal
_audit_creation_method	'MofGen! by Chris Wilmer'
_symmetry_space_group_name_H-M	'P1'
_symmetry_Int_Tables_number	1
_symmetry_cell_setting	triclinic
loop_
_symmetry_equiv_pos_as_xyz
  x,y,z
_cell_length_a	15.944551
_cell_length_b	15.944493
_cell_length_c	9.130313
_cell_angle_alpha	90.001356
_cell_angle_beta	90.000967
_cell_angle_gamma	83.486891
loop_
_atom_site_label
_atom_site_type_symbol
_atom_site_fract_x
_atom_site_fract_y
_atom_site_fract_z
O1	O	1.114500	0.108335	-0.121627
O2	O	0.869948	0.121691	-0.121661
O3	O	0.998928	-0.007265	-0.121655
O4	O	0.985521	0.237291	-0.121633
O5	O	0.998919	-0.007269	0.121943
O6	O	0.869939	0.121688	0.121938
O7	O	1.114492	0.108331	0.121972
Cu8	Cu	0.992215	0.115009	0.144197
Cu9	Cu	0.992225	0.115013	-0.143887
O10	O	0.985512	0.237288	0.121966
C11	C	0.838650	0.121135	0.000133
C12	C	0.745404	0.119473	0.000119
C13	C	0.998375	-0.038562	0.000138
C14	C	0.996733	-0.131810	0.000119
C15	C	0.530565	0.035566	0.000140
C16	C	0.469541	0.074531	-0.119963
C17	C	0.574679	0.116465	0.000136
C18	C	0.469555	0.074547	0.120206
C19	C	0.409767	0.113555	0.000159
C20	C	0.514883	0.155453	-0.120066
C21	C	0.514903	0.155457	0.120211
C22	C	0.453897	0.194481	0.000078
C23	C	0.669681	0.118140	0.000122
C24	C	0.314766	0.111886	0.000163
C25	C	1.072653	-0.367570	0.000157
C26	C	1.031716	-0.418136	-0.119955
C27	C	0.993688	-0.302531	0.000136
C28	C	1.031689	-0.418116	0.120215
C29	C	0.990754	-0.467441	0.000160
C30	C	0.952773	-0.351869	-0.120075
C31	C	0.952758	-0.351846	0.120202
C32	C	0.911763	-0.402379	0.000061
C33	C	0.995381	-0.207531	0.000122
C34	C	0.989055	-0.562438	0.000164
C35	C	1.145790	0.108888	0.000174
C36	C	1.239036	0.110550	0.000178
C37	C	0.986064	0.268584	0.000170
C38	C	0.987707	0.361833	0.000179
N39	N	0.992213	0.115006	0.346820
N40	N	0.992233	0.115010	-0.346509
C41	C	1.049345	0.057927	0.423474
C42	C	1.049353	0.057928	0.576811
C43	C	0.935095	0.172091	0.576825
C44	C	0.935084	0.172086	0.423491
H45	H	0.449442	0.040316	-0.221509
H46	H	1.095873	0.011449	0.639219
N47	N	1.073533	-0.454453	-0.247346
N48	N	1.047384	-0.432114	-0.372003
H49	H	1.076920	-0.457761	-0.461971
H50	H	0.919448	-0.323048	-0.221728
N51	N	1.107642	-0.000420	0.345129
N52	N	1.106448	-0.078054	0.362268
H53	H	1.147601	-0.119276	0.306923
N54	N	0.826368	-0.421775	-0.000041
N55	N	0.778168	-0.397370	-0.103265
H56	H	0.717858	-0.411070	-0.103345
H57	H	0.888583	0.218566	0.639267
H58	H	0.888557	0.218567	0.361075
N59	N	0.910960	-0.315524	0.247596
N60	N	0.937896	-0.336930	0.372221
H61	H	0.908381	-0.311278	0.462205
H62	H	0.420724	0.261690	0.000017
H63	H	1.140671	-0.351942	0.000046
N64	N	0.539957	0.198365	-0.247560
N65	N	0.616103	0.206547	-0.268161
H66	H	0.633814	0.236858	-0.358196
N67	N	0.540138	0.198355	0.247598
N68	N	0.486096	0.227160	0.339154
H69	H	0.503919	0.257453	0.429132
N70	N	0.572359	-0.048675	-0.000024
N71	N	0.560797	-0.097517	-0.103319
H72	H	0.590314	-0.157011	-0.103442
N73	N	0.444362	0.031594	0.247570
N74	N	0.472151	-0.043905	0.268929
H75	H	0.454362	-0.074247	0.358873
H76	H	1.065050	-0.447049	0.221753
