data_functionalizedCrystal
_audit_creation_method	'MofGen! by Chris Wilmer'
_symmetry_space_group_name_H-M	'P1'
_symmetry_Int_Tables_number	1
_symmetry_cell_setting	triclinic
loop_
_symmetry_equiv_pos_as_xyz
  x,y,z
_cell_length_a	14.519731
_cell_length_b	10.489741
_cell_length_c	13.596369
_cell_angle_alpha	89.994306
_cell_angle_beta	90.006433
_cell_angle_gamma	95.885987
loop_
_atom_site_label
_atom_site_type_symbol
_atom_site_fract_x
_atom_site_fract_y
_atom_site_fract_z
O1	O	-1.224768	0.167333	-0.081816
O2	O	-0.891435	0.500666	0.251517
O3	O	-0.558101	0.834000	0.584851
O4	O	-0.956401	0.186995	-0.081813
O5	O	-0.623068	0.520328	0.251521
O6	O	-0.289734	0.853661	0.584854
O7	O	-1.096691	-0.008497	-0.081809
O8	O	-0.763358	0.324836	0.251525
O9	O	-0.430024	0.658170	0.584858
O10	O	-1.084478	0.362825	-0.081820
O11	O	-0.751145	0.696158	0.251513
O12	O	-0.417811	1.029491	0.584847
O13	O	-1.096677	-0.008507	0.081774
O14	O	-0.763344	0.324826	0.415108
O15	O	-0.430010	0.658159	0.748441
O16	O	-0.956387	0.186984	0.081770
O17	O	-0.623053	0.520318	0.415104
O18	O	-0.289720	0.853651	0.748437
O19	O	-1.224754	0.167323	0.081767
O20	O	-0.891421	0.500656	0.415100
O21	O	-0.558087	0.833989	0.748433
Zn22	Zn	-1.090568	0.177152	0.107741
Zn23	Zn	-0.757235	0.510485	0.441074
Zn24	Zn	-0.423901	0.843819	0.774408
Zn25	Zn	-1.090587	0.177166	-0.107787
Zn26	Zn	-0.757253	0.510499	0.225547
Zn27	Zn	-0.423920	0.843832	0.558880
O28	O	-1.084464	0.362814	0.081763
O29	O	-0.751130	0.696148	0.415096
O30	O	-0.417797	1.029481	0.748429
C31	C	-0.922029	0.186068	-0.000021
C32	C	-0.588696	0.519402	0.333313
C33	C	-0.255363	0.852735	0.666646
C34	C	-0.819634	0.183308	-0.000019
C35	C	-0.486301	0.516641	0.333314
C36	C	-0.152968	0.849974	0.666648
C37	C	-0.736478	0.181064	-0.000021
C38	C	-0.403144	0.514398	0.333312
C39	C	-0.069811	0.847731	0.666645
C40	C	-0.632154	0.178261	-0.000020
C41	C	-0.298820	0.511595	0.333314
C42	C	0.034513	0.844928	0.666647
C43	C	-0.549003	0.176037	-0.000018
C44	C	-0.215669	0.509370	0.333315
C45	C	0.117664	0.842704	0.666649
C46	C	-0.444672	0.173234	-0.000018
C47	C	-0.111339	0.506568	0.333315
C48	C	0.221995	0.839901	0.666649
C49	C	-1.095762	-0.056024	-0.000018
C50	C	-0.762428	0.277309	0.333316
C51	C	-0.429095	0.610642	0.666649
C52	C	-1.093002	-0.197625	-0.000019
C53	C	-0.759669	0.135708	0.333314
C54	C	-0.426335	0.469041	0.666647
C55	C	-1.003739	-0.264844	-0.000025
C56	C	-0.670406	0.068489	0.333308
C57	C	-0.337073	0.401822	0.666641
C58	C	-1.045899	-0.357407	0.080629
C59	C	-0.712566	-0.024074	0.413962
C60	C	-0.379232	0.309260	0.747296
C61	C	-1.045934	-0.357372	-0.080651
C62	C	-0.712601	-0.024038	0.252682
C63	C	-0.379268	0.309295	0.586016
C64	C	-1.135198	-0.288323	0.080701
C65	C	-0.801865	0.045010	0.414035
C66	C	-0.468532	0.378344	0.747368
C67	C	-1.135221	-0.288278	-0.080651
C68	C	-0.801888	0.045055	0.252682
C69	C	-0.468554	0.378389	0.586016
C70	C	-1.177446	-0.380814	0.000023
C71	C	-0.844112	-0.047481	0.333356
C72	C	-0.510779	0.285853	0.666690
C73	C	-0.259125	0.168249	-0.000023
C74	C	0.074208	0.501582	0.333311
C75	C	0.407541	0.834916	0.666644
C76	C	-0.361521	0.171010	-0.000016
C77	C	-0.028187	0.504343	0.333317
C78	C	0.305146	0.837676	0.666650
C79	C	-1.085393	0.410342	-0.000030
C80	C	-0.752060	0.743675	0.333303
C81	C	-0.418727	1.077008	0.666636
C82	C	-1.088153	0.551943	-0.000035
C83	C	-0.754820	0.885276	0.333298
C84	C	-0.421486	1.218609	0.666632
N85	N	-1.090562	0.177142	0.254833
N86	N	-0.757229	0.510475	0.588166
N87	N	-0.423895	0.843808	0.921499
N88	N	-1.090600	0.177166	-0.254878
N89	N	-0.757267	0.510499	0.078455
N90	N	-0.423933	0.843832	0.411788
C91	C	-1.090586	0.177167	0.656124
C92	C	-0.757252	0.510500	0.989457
C93	C	-0.423919	0.843834	1.322790
C94	C	-1.090576	0.177164	0.544472
C95	C	-0.757243	0.510497	0.877806
C96	C	-0.423910	0.843831	1.211139
C97	C	-1.090574	0.177155	0.455482
C98	C	-0.757241	0.510489	0.788815
C99	C	-0.423908	0.843822	1.122148
C100	C	-1.090564	0.177151	0.343823
C101	C	-0.757231	0.510484	0.677157
C102	C	-0.423898	0.843817	1.010490
H103	H	-0.930348	-0.214436	0.000057
H104	H	-0.597015	0.118897	0.333390
H105	H	-0.263682	0.452231	0.666724
H106	H	-1.250903	-0.430996	0.000067
H107	H	-0.917569	-0.097662	0.333400
H108	H	-0.584236	0.235671	0.666733
H109	H	-1.172964	-0.257618	-0.148843
H110	H	-0.839631	0.075715	0.184490
H111	H	-0.506297	0.409048	0.517824
H112	H	-1.008124	-0.388033	0.148817
H113	H	-0.674791	-0.054700	0.482151
H114	H	-0.341458	0.278633	0.815484
C115	C	-0.994909	-0.398694	-0.172766
C116	C	-0.661575	-0.065361	0.160568
C117	C	-0.328242	0.267972	0.493901
H118	H	-1.035629	-0.455806	-0.210751
H119	H	-0.702296	-0.122473	0.122582
H120	H	-0.368962	0.210860	0.455915
H121	H	-0.974816	-0.325269	-0.210994
H122	H	-0.641483	0.008064	0.122339
H123	H	-0.308150	0.341398	0.455673
H124	H	-0.942801	-0.440524	-0.153372
H125	H	-0.609468	-0.107190	0.179962
H126	H	-0.276134	0.226143	0.513295
H127	H	-1.172929	-0.257885	0.148965
H128	H	-0.839595	0.075449	0.482298
H129	H	-0.506262	0.408782	0.815631
