data_functionalizedCrystal
_audit_creation_method	'MofGen! by Chris Wilmer'
_symmetry_space_group_name_H-M	'P1'
_symmetry_Int_Tables_number	1
_symmetry_cell_setting	triclinic
loop_
_symmetry_equiv_pos_as_xyz
  x,y,z
_cell_length_a	10.654545
_cell_length_b	19.188930
_cell_length_c	9.130313
_cell_angle_alpha	90.011584
_cell_angle_beta	90.004109
_cell_angle_gamma	83.813930
loop_
_atom_site_label
_atom_site_type_symbol
_atom_site_fract_x
_atom_site_fract_y
_atom_site_fract_z
O1	O	1.665770	0.098049	0.121803
O2	O	1.300093	0.107395	0.121811
O3	O	1.493484	0.001135	0.121778
O4	O	1.472378	0.204308	0.121836
O5	O	1.493468	0.001128	-0.121821
O6	O	1.300076	0.107388	-0.121788
O7	O	1.665753	0.098042	-0.121796
Cu8	Cu	1.482913	0.102714	-0.144034
Cu9	Cu	1.482933	0.102722	0.144050
O10	O	1.472362	0.204302	-0.121763
C11	C	1.253301	0.106706	0.000012
C12	C	1.113901	0.104655	0.000014
C13	C	1.048408	0.103685	-0.132773
C14	C	0.917429	0.101746	-0.132773
C15	C	0.917448	0.101749	0.132811
C16	C	1.048425	0.103683	0.132810
C17	C	1.492792	-0.024884	-0.000025
C18	C	1.490741	-0.102402	-0.000038
C19	C	1.604216	-0.146585	-0.000047
C20	C	1.602289	-0.219421	-0.000024
C21	C	1.486879	-0.248071	-0.000020
C22	C	1.373389	-0.203879	-0.000003
C23	C	1.375319	-0.131044	-0.000011
N24	N	1.398657	-0.356655	-0.082920
N25	N	1.396830	-0.425845	-0.082914
C26	C	1.481055	-0.467518	0.000009
N27	N	1.567194	-0.437388	0.082910
N28	N	1.569024	-0.368191	0.082898
C29	C	1.484773	-0.327048	-0.000010
C30	C	1.592448	-0.590679	0.000028
C31	C	1.590516	-0.663516	0.000060
C32	C	1.361613	-0.647972	0.000067
C33	C	1.363548	-0.575137	0.000049
C34	C	1.478970	-0.546494	0.000022
C35	C	1.712545	0.098731	0.000006
C36	C	1.851945	0.100782	0.000014
C37	C	1.473054	0.230320	0.000044
C38	C	1.475105	0.307838	0.000066
N39	N	1.482909	0.102708	-0.346657
C40	C	1.407015	0.059981	-0.576714
C41	C	1.406999	0.059972	-0.423377
C42	C	1.558850	0.145451	-0.423281
C43	C	1.558872	0.145457	-0.576615
N44	N	1.482947	0.102723	0.346672
H45	H	1.101751	0.104471	0.240948
O46	O	1.632517	0.187065	-0.348919
C47	C	1.597308	0.257755	-0.386330
H48	H	1.548608	0.260503	-0.497675
H49	H	1.529782	0.283119	-0.300039
C50	C	1.775664	0.293624	-0.256597
C51	C	1.715860	0.296999	-0.393359
H52	H	1.848790	0.317833	-0.260926
H53	H	1.799383	0.245999	-0.231387
H54	H	1.719380	0.314760	-0.184702
H55	H	1.772138	0.275856	-0.465247
H56	H	1.692153	0.344622	-0.418581
O57	O	1.704672	-0.562966	0.000093
C58	C	1.804420	-0.617586	0.000074
H59	H	1.769490	-0.667221	0.046196
H60	H	1.839408	-0.627736	-0.116788
C61	C	1.956198	-0.535526	0.038965
C62	C	1.913300	-0.596488	0.095624
H63	H	2.023364	-0.522512	0.097898
H64	H	1.888998	-0.498727	0.038972
H65	H	1.985347	-0.543993	-0.058419
H66	H	1.884138	-0.588018	0.192999
H67	H	1.980499	-0.633285	0.095635
O68	O	1.716442	-0.118878	0.000001
C69	C	1.816187	-0.173500	-0.000041
H70	H	1.781261	-0.223135	0.046087
H71	H	1.851157	-0.183649	-0.116910
C72	C	1.967977	-0.091444	0.038822
C73	C	1.925084	-0.152406	0.095488
H74	H	2.035154	-0.078432	0.097742
H75	H	1.900779	-0.054644	0.038844
H76	H	1.997110	-0.099910	-0.058569
H77	H	1.895938	-0.143937	0.192869
H78	H	1.992280	-0.189205	0.095483
O79	O	1.112040	0.104746	-0.261728
C80	C	1.173265	0.166215	-0.269650
H81	H	1.123623	0.207825	-0.194286
H82	H	1.275826	0.154036	-0.233982
C83	C	1.229632	0.142501	-0.520856
C84	C	1.168654	0.193609	-0.428301
H85	H	1.226794	0.159398	-0.618719
H86	H	1.188388	0.101087	-0.515518
H87	H	1.315094	0.132356	-0.491115
H88	H	1.083190	0.203747	-0.458031
H89	H	1.209884	0.235026	-0.433648
H90	H	0.864111	0.100957	-0.240902
O91	O	0.853751	0.100936	0.261763
C92	C	0.763409	0.160170	0.269707
H93	H	0.792702	0.202938	0.194365
H94	H	0.667433	0.145059	0.234024
C95	C	0.718821	0.134987	0.520897
C96	C	0.754806	0.187517	0.428370
H97	H	0.713509	0.151855	0.618768
H98	H	0.779683	0.095078	0.515545
H99	H	0.638845	0.122399	0.491144
H100	H	0.834787	0.200098	0.458113
H101	H	0.693957	0.227429	0.433731
H102	H	1.271144	-0.539162	0.000048
O103	O	1.712489	-0.262380	0.000216
C104	C	1.718225	-0.304978	0.126358
H105	H	1.653883	-0.278608	0.214552
H106	H	1.685999	-0.358090	0.097841
C107	C	1.933966	-0.347770	0.075213
C108	C	1.854947	-0.315380	0.183539
H109	H	2.018302	-0.354190	0.110483
H110	H	1.930100	-0.319074	-0.009774
H111	H	1.907095	-0.392027	0.051459
H112	H	1.881809	-0.271120	0.207279
H113	H	1.858820	-0.344069	0.268533
H114	H	1.345193	0.025184	-0.639169
O115	O	1.261201	-0.231624	-0.000195
C116	C	1.192047	-0.209126	-0.126370
H117	H	1.225987	-0.158457	-0.168439
H118	H	1.206816	-0.251205	-0.214712
C119	C	1.009025	-0.258385	-0.036364
C120	C	1.050703	-0.196150	-0.088026
H121	H	0.921836	-0.250384	-0.012716
H122	H	1.055615	-0.273545	0.048640
H123	H	1.021343	-0.293445	-0.109991
H124	H	1.038400	-0.161094	-0.014394
H125	H	1.004107	-0.180984	-0.173018
H126	H	1.282911	-0.095070	-0.000004
O127	O	1.249470	-0.675760	0.000331
C128	C	1.180314	-0.653202	0.126475
H129	H	1.247818	-0.637716	0.214648
H130	H	1.110074	-0.606083	0.097946
C131	C	1.025562	-0.732153	0.075401
C132	C	1.108472	-0.713138	0.183701
H133	H	0.981241	-0.769123	0.110699
H134	H	1.072150	-0.747349	-0.009588
H135	H	0.967040	-0.692881	0.051637
H136	H	1.167001	-0.752407	0.207450
H137	H	1.061892	-0.697951	0.268695
H138	H	1.682926	-0.699490	0.000061
H139	H	1.345169	0.025167	-0.361005
H140	H	1.620712	0.180263	-0.638996
