data_functionalizedCrystal
_audit_creation_method	'MofGen! by Chris Wilmer'
_symmetry_space_group_name_H-M	'P1'
_symmetry_Int_Tables_number	1
_symmetry_cell_setting	triclinic
loop_
_symmetry_equiv_pos_as_xyz
  x,y,z
_cell_length_a	31.640172
_cell_length_b	14.560438
_cell_length_c	14.560438
_cell_angle_alpha	59.996693
_cell_angle_beta	89.995728
_cell_angle_gamma	59.995003
loop_
_atom_site_label
_atom_site_type_symbol
_atom_site_fract_x
_atom_site_fract_y
_atom_site_fract_z
Zr1	Zr	0.407179	1.005225	-0.120626
O2	O	0.339689	1.196851	-0.267281
O3	O	0.427868	0.813611	-0.075660
O4	O	0.427866	1.005223	-0.267277
O5	O	0.339693	1.005237	0.075476
O6	O	0.497423	1.005207	-0.267283
O7	O	0.339691	1.005239	-0.075665
O8	O	0.497426	0.662449	0.075484
O9	O	0.339690	1.347994	-0.267291
O10	O	0.488601	0.892409	-0.056497
O11	O	0.436693	0.892418	0.056302
O12	O	0.436692	1.118016	-0.169302
O13	O	0.384784	1.118026	-0.056503
Zr14	Zr	0.518116	1.005196	0.120416
Zr15	Zr	0.518113	1.005200	-0.120636
Zr16	Zr	0.407182	1.005221	0.120426
Zr17	Zr	0.407180	1.246282	-0.120642
Zr18	Zr	0.518115	0.764139	0.120432
O19	O	0.497427	1.196810	0.075450
O20	O	0.497423	1.196815	-0.267295
O21	O	0.339693	1.196845	0.075464
O22	O	0.585606	0.813570	0.267071
O23	O	0.585602	0.813576	-0.075674
O24	O	0.427872	0.813606	0.267085
O25	O	0.585603	1.005184	-0.075686
O26	O	0.497429	1.005198	0.267067
O27	O	0.427873	1.005214	0.267073
O28	O	0.585605	1.005182	0.075455
O29	O	0.427868	1.347975	-0.267299
O30	O	0.497428	0.662446	0.267089
O31	O	0.585606	0.662427	0.267081
O32	O	0.585603	0.662430	0.075477
O33	O	0.339692	1.347991	-0.075687
O34	O	0.427870	1.347971	-0.075694
O35	O	0.488604	0.892405	0.169092
O36	O	0.540512	0.892395	0.056293
O37	O	0.488602	1.118003	-0.056512
O38	O	0.436694	1.118012	0.056287
C39	C	0.462647	0.703685	-0.000086
C40	C	0.462646	0.601350	-0.000079
C41	C	0.424325	0.636574	-0.083358
C42	C	0.424328	0.540434	-0.083387
C43	C	0.500974	0.373847	0.083153
C44	C	0.500973	0.469986	0.083176
C45	C	0.323886	1.005241	-0.000093
C46	C	0.276792	1.005252	-0.000089
C47	C	-0.015215	1.005188	-0.083367
C48	C	-0.192201	1.005172	-0.083376
O49	O	-0.215075	1.005116	-0.154162
N50	N	-0.214331	1.005173	-0.000112
C51	C	-0.192209	1.005170	0.083164
O52	O	-0.215090	1.005157	0.153991
C53	C	-0.015222	1.005177	0.083176
C54	C	0.006903	1.005189	-0.000100
C55	C	0.006910	1.005199	-0.166636
C56	C	0.051152	1.005210	-0.166636
C57	C	0.073270	1.005211	-0.083369
C58	C	0.051145	1.005200	-0.000101
C59	C	0.006901	1.005165	0.166455
C60	C	0.051152	1.005163	0.166452
C61	C	0.073276	1.005175	0.083177
C62	C	0.117505	1.005212	0.083166
N63	N	0.139635	1.005211	-0.000097
C64	C	0.117517	1.005210	-0.083365
C65	C	-0.285131	1.005169	0.083150
C66	C	-0.329379	1.005170	0.083146
C67	C	-0.329367	1.005169	-0.083392
C68	C	-0.285121	1.005178	-0.083392
C69	C	-0.263002	1.005168	-0.000113
C70	C	0.210429	1.005235	-0.083360
C71	C	0.254674	1.005251	-0.083356
C72	C	0.254660	1.005245	0.083185
C73	C	0.210417	1.005235	0.083178
C74	C	0.188304	1.005226	-0.000100
O75	O	0.140409	1.005254	0.153923
O76	O	0.140412	1.005194	-0.154167
C77	C	-0.059457	1.005177	-0.083367
C78	C	-0.081582	1.005167	-0.000099
C79	C	-0.059464	1.005167	0.083169
C80	C	-0.125829	1.005167	-0.000103
C81	C	-0.147947	1.005167	-0.083370
C82	C	-0.125817	1.005165	-0.166634
C83	C	-0.081575	1.005177	-0.166634
C84	C	-0.081594	1.005169	0.166432
C85	C	-0.125837	1.005159	0.166425
C86	C	-0.147954	1.005158	0.083158
C87	C	0.601409	1.005179	-0.000117
C88	C	0.648504	1.005169	-0.000121
C89	C	0.462644	1.005216	-0.301624
C90	C	0.462643	1.005217	-0.403957
C91	C	0.462649	1.306736	-0.000124
C92	C	0.462649	1.409071	-0.000131
C93	C	0.435547	1.122980	-0.510917
C94	C	0.435553	1.122974	-0.607065
C95	C	0.489752	0.887432	-0.489282
C96	C	0.489748	0.887440	-0.393136
C97	C	0.462651	1.005205	0.301414
C98	C	0.462652	1.005204	0.403747
C99	C	0.601408	0.703654	-0.000098
C100	C	0.648503	0.601308	-0.000095
C101	C	0.462650	0.703680	0.301434
C102	C	0.462651	0.601343	0.403773
C103	C	0.601412	0.703649	0.301422
C104	C	0.648507	0.601302	0.403757
C105	C	0.323884	1.306772	-0.301632
C106	C	0.276788	1.409119	-0.403967
C107	C	0.323887	1.306767	-0.000112
C108	C	0.276793	1.409112	-0.000115
C109	C	0.462645	1.306741	-0.301644
C110	C	0.462644	1.409078	-0.403983
C111	C	0.643522	0.553253	-0.058980
C112	C	0.687767	0.457102	-0.059000
C113	C	0.736993	0.409001	-0.000128
C114	C	0.741973	0.457066	0.058758
C115	C	0.697728	0.553222	0.058771
C116	C	0.697724	0.553233	0.392935
C117	C	0.741979	0.457081	0.489081
C118	C	0.737017	0.408991	0.596048
C119	C	0.687795	0.457069	0.606868
C120	C	0.643541	0.553227	0.510723
C121	C	0.227572	1.457199	-0.393145
C122	C	0.183317	1.553382	-0.489291
C123	C	0.188279	1.601476	-0.596258
C124	C	0.237500	1.553392	-0.607078
C125	C	0.281755	1.457218	-0.510933
C126	C	0.281774	1.457178	0.058759
C127	C	0.237528	1.553356	0.058753
C128	C	0.188302	1.601460	-0.000122
C129	C	0.183322	1.553390	-0.059003
C130	C	0.227568	1.457221	-0.059003
C131	C	0.489748	0.553256	0.510728
C132	C	0.489743	0.457109	0.606883
C133	C	0.435544	0.457140	0.489115
C134	C	0.435546	0.553292	0.392962
H135	H	0.532178	0.266882	0.150936
H136	H	0.683762	0.417901	0.693973
H137	H	0.152240	1.679787	-0.674536
H138	H	0.241535	1.592563	-0.694182
H139	H	0.241593	1.592478	0.106706
H140	H	0.393114	0.743533	-0.151144
H141	H	0.321828	1.418072	-0.519758
H142	H	0.532182	0.441294	0.150994
H143	H	0.603468	0.592352	0.519550
H144	H	0.223522	1.418046	-0.306056
H145	H	0.393123	0.569126	-0.151202
H146	H	0.782053	0.417945	0.480251
H147	H	0.603443	0.592415	-0.106933
H148	H	0.701791	0.592337	0.106728
H149	H	0.701774	0.592373	0.305846
H150	H	0.413478	0.592449	0.305869
H151	H	0.143243	1.592516	-0.480459
H152	H	0.683703	0.417979	-0.106951
H153	H	0.069160	1.005151	0.234271
H154	H	0.321852	1.418019	0.106710
H155	H	0.511819	0.791542	-0.480485
H156	H	0.773055	0.330694	0.674326
H157	H	0.511816	0.592381	0.519537
H158	H	0.152279	1.679767	-0.000113
H159	H	0.143237	1.592571	-0.106937
H160	H	0.223505	1.418088	-0.106942
H161	H	0.272686	1.005264	-0.151173
H162	H	0.511807	0.417963	0.693967
H163	H	-0.063564	1.005186	-0.234445
H164	H	0.413476	0.418004	0.480327
H165	H	0.773016	0.330704	-0.000147
H166	H	-0.143834	1.005172	-0.234437
H167	H	-0.347394	1.005180	0.150947
H168	H	0.192430	1.005225	-0.151172
H169	H	0.511815	0.791537	-0.306039
H170	H	0.782059	0.417889	0.106688
H171	H	0.069165	1.005214	-0.234443
H172	H	-0.011093	1.005194	-0.234442
H173	H	-0.267110	1.005187	-0.151202
H174	H	-0.143850	1.005160	0.234237
H175	H	-0.267125	1.005162	0.150968
H176	H	-0.347383	1.005171	-0.151194
H177	H	0.192399	1.005244	0.150979
H178	H	-0.011106	1.005154	0.234266
H179	H	0.272674	1.005251	0.150978
H180	H	-0.063589	1.005167	0.234240
H181	H	0.413477	1.218882	-0.519734
H182	H	0.413490	1.218868	-0.694153
