data_functionalizedCrystal
_audit_creation_method	'MofGen! by Chris Wilmer'
_symmetry_space_group_name_H-M	'P1'
_symmetry_Int_Tables_number	1
_symmetry_cell_setting	triclinic
loop_
_symmetry_equiv_pos_as_xyz
  x,y,z
_cell_length_a	10.686285
_cell_length_b	12.759401
_cell_length_c	12.759393
_cell_angle_alpha	89.981995
_cell_angle_beta	85.603734
_cell_angle_gamma	85.632237
loop_
_atom_site_label
_atom_site_type_symbol
_atom_site_fract_x
_atom_site_fract_y
_atom_site_fract_z
Zn1	Zn	-0.502282	1.638387	-0.561967
Zn2	Zn	-0.713319	1.651786	-0.372834
Zn3	Zn	-0.502342	1.462695	-0.386302
Zn4	Zn	-0.713229	1.476175	-0.548481
O5	O	-0.607793	1.557261	-0.467396
O6	O	-0.530288	1.787186	-0.536885
O7	O	-0.685395	1.626669	-0.227596
O8	O	-0.325758	1.474752	-0.420884
O9	O	-0.685336	1.797030	-0.397931
O10	O	-0.325713	1.603832	-0.549944
O11	O	-0.530392	1.487744	-0.237490
O12	O	-0.530305	1.317461	-0.407808
O13	O	-0.685183	1.497726	-0.697295
O14	O	-0.685242	1.327365	-0.526960
O15	O	-0.530201	1.616903	-0.707203
O16	O	-0.889883	1.639740	-0.384854
O17	O	-0.889817	1.510719	-0.513901
C18	C	-0.607771	1.284292	-0.467382
C19	C	-0.607792	1.167517	-0.467400
C20	C	-0.527205	1.107539	-0.539848
C21	C	-0.527217	0.997815	-0.539854
C22	C	-0.688416	1.008058	-0.394960
C23	C	-0.688396	1.117779	-0.394950
C24	C	-0.378486	0.838378	-0.587103
C25	C	-0.297909	0.778397	-0.659567
C26	C	-0.278679	0.812823	-0.763331
C27	C	-0.340044	0.907228	-0.794652
C28	C	-0.420629	0.967204	-0.722193
C29	C	-0.439836	0.932779	-0.618415
C30	C	-0.837129	1.277218	-0.347711
C31	C	-0.917723	1.337197	-0.275257
C32	C	-0.936966	1.302775	-0.171490
C33	C	-0.875623	1.208367	-0.140172
C34	C	-0.795030	1.148389	-0.212627
C35	C	-0.775785	1.182818	-0.316393
C36	C	-0.935634	1.578175	-0.446476
C37	C	-1.075886	1.587218	-0.437561
C38	C	-0.278671	1.536293	-0.488421
C39	C	-0.138419	1.527358	-0.497380
C40	C	-0.607675	1.557324	-0.741437
C41	C	-0.607625	1.557351	-0.858217
C42	C	-0.607815	1.831295	-0.467410
C43	C	-0.607825	1.948073	-0.467416
C44	C	-0.688232	1.495345	-1.017659
C45	C	-0.688285	1.495314	-0.907931
C46	C	-0.526898	1.619415	-0.918237
C47	C	-0.526839	1.619439	-1.027963
C48	C	-0.733437	1.374245	-0.755093
C49	C	-0.814175	1.312194	-0.695076
C50	C	-0.937276	1.303914	-0.722831
C51	C	-0.979665	1.357702	-0.810599
C52	C	-0.898934	1.419761	-0.870610
C53	C	-0.775815	1.428020	-0.842857
C54	C	-0.481701	1.740510	-1.180802
C55	C	-0.400975	1.802576	-1.240814
C56	C	-0.277871	1.810866	-1.213062
C57	C	-0.235486	1.757097	-1.125290
C58	C	-0.316212	1.695032	-1.065278
C59	C	-0.439315	1.686739	-1.093038
C60	C	-0.607819	1.557252	-0.194427
C61	C	-0.607513	1.557406	-0.077670
H62	H	-0.470585	1.044070	-0.747691
F63	F	-0.319589	0.943851	-0.905099
H64	H	-0.435497	1.846361	-1.312280
F65	F	-0.192928	0.748980	-0.840452
F66	F	-0.729715	1.047925	-0.179285
F67	F	-1.023202	1.237875	-0.658953
H68	H	-0.247946	0.701532	-0.634056
H69	H	-0.461218	1.669921	-0.877751
H70	H	-1.129645	1.645377	-0.379519
F71	F	-1.068149	1.451326	-0.573243
H72	H	-0.753919	1.444831	-1.058127
H73	H	-0.933447	1.463556	-0.942067
H74	H	-1.079913	1.350965	-0.833182
H75	H	-0.779650	1.268399	-0.623616
F76	F	-0.612720	1.731679	-1.210353
F77	F	-0.398929	0.801742	-0.476660
H78	H	-0.135247	1.763852	-1.102690
F79	F	-0.441415	1.160469	-0.616952
F80	F	-0.774199	0.955115	-0.317861
F81	F	-0.602406	1.383031	-0.725562
H82	H	-0.281691	1.651248	-0.993811
F83	F	-0.191963	1.876935	-1.276929
F84	F	-0.896113	1.171723	-0.029734
H85	H	-1.002628	1.351602	-0.112507
H86	H	-0.821457	1.305260	-0.432205
F87	F	-0.983015	1.437672	-0.308593
