data_functionalizedCrystal
_audit_creation_method	'MofGen! by Chris Wilmer'
_symmetry_space_group_name_H-M	'P1'
_symmetry_Int_Tables_number	1
_symmetry_cell_setting	triclinic
loop_
_symmetry_equiv_pos_as_xyz
  x,y,z
_cell_length_a	29.839131
_cell_length_b	29.839135
_cell_length_c	29.839125
_cell_angle_alpha	90.015751
_cell_angle_beta	89.982291
_cell_angle_gamma	89.956753
loop_
_atom_site_label
_atom_site_type_symbol
_atom_site_fract_x
_atom_site_fract_y
_atom_site_fract_z
Zn1	Zn	-0.178894	-0.686720	-0.254050
Zn2	Zn	-0.254006	-0.686652	-0.178920
Zn3	Zn	-0.178894	-0.611602	-0.178928
Zn4	Zn	-0.254001	-0.611550	-0.254017
O5	O	-0.216449	-0.649131	-0.216479
O6	O	-0.188861	-0.749578	-0.244095
O7	O	-0.244045	-0.676690	-0.116054
O8	O	-0.116027	-0.621617	-0.188911
O9	O	-0.244045	-0.749528	-0.188897
O10	O	-0.116027	-0.676805	-0.244103
O11	O	-0.188860	-0.621551	-0.116060
O12	O	-0.188854	-0.548728	-0.188878
O13	O	-0.244035	-0.621528	-0.316888
O14	O	-0.244035	-0.548690	-0.244045
O15	O	-0.188855	-0.676755	-0.316913
O16	O	-0.316873	-0.676639	-0.188865
O17	O	-0.316868	-0.621462	-0.244038
C18	C	-0.216444	-0.532408	-0.216459
C19	C	-0.216453	-0.482474	-0.216461
C20	C	-0.187752	-0.172854	-0.245261
C21	C	-0.187753	0.014819	-0.245272
O22	O	-0.163343	0.039065	-0.269738
N23	N	-0.216441	0.038311	-0.216492
C24	C	-0.245129	0.014882	-0.187705
O25	O	-0.269526	0.039169	-0.163223
C26	C	-0.245125	-0.172791	-0.187691
C27	C	-0.216439	-0.196280	-0.216476
C28	C	-0.159067	-0.196343	-0.274043
C29	C	-0.159069	-0.243258	-0.274042
C30	C	-0.187756	-0.266684	-0.245257
C31	C	-0.216440	-0.243195	-0.216475
C32	C	-0.273811	-0.196219	-0.158902
C33	C	-0.273806	-0.243140	-0.158900
C34	C	-0.245120	-0.266630	-0.187685
C35	C	-0.245129	-0.313537	-0.187689
N36	N	-0.216441	-0.337029	-0.216469
C37	C	-0.187754	-0.313602	-0.245254
C38	C	-0.245129	0.113412	-0.187715
C39	C	-0.245131	0.160330	-0.187719
C40	C	-0.187754	0.160265	-0.245286
C41	C	-0.187755	0.113346	-0.245284
C42	C	-0.216441	0.089921	-0.216495
C43	C	-0.187760	-0.412128	-0.245248
C44	C	-0.187766	-0.459048	-0.245246
C45	C	-0.245141	-0.458978	-0.187677
C46	C	-0.245137	-0.412063	-0.187681
C47	C	-0.216443	-0.388639	-0.216468
O48	O	-0.269522	-0.337811	-0.163233
O49	O	-0.163353	-0.337898	-0.269725
C50	C	-0.187750	-0.125938	-0.245262
C51	C	-0.216435	-0.102449	-0.216479
C52	C	-0.245121	-0.125875	-0.187695
C53	C	-0.216436	-0.055531	-0.216483
C54	C	-0.187750	-0.032105	-0.245268
C55	C	-0.159062	-0.055596	-0.274048
C56	C	-0.159063	-0.102512	-0.274046
C57	C	-0.273810	-0.102384	-0.158915
C58	C	-0.273806	-0.055468	-0.158919
C59	C	-0.245119	-0.032042	-0.187704
C60	C	-0.333171	-0.649050	-0.216457
C61	C	-0.383106	-0.649056	-0.216462
C62	C	-0.692739	-0.677914	-0.187792
C63	C	-0.880412	-0.677969	-0.187810
O64	O	-0.904668	-0.702441	-0.163416
N65	N	-0.903891	-0.649224	-0.216513
C66	C	-0.880449	-0.620465	-0.245216
O67	O	-0.904725	-0.596020	-0.269633
C68	C	-0.692776	-0.620412	-0.245200
C69	C	-0.669300	-0.649156	-0.216492
C70	C	-0.669262	-0.706656	-0.159087
C71	C	-0.622347	-0.706640	-0.159081
C72	C	-0.598908	-0.677882	-0.187781
C73	C	-0.622384	-0.649140	-0.216486
C74	C	-0.669335	-0.591656	-0.273905
C75	C	-0.622414	-0.591646	-0.273899
C76	C	-0.598938	-0.620390	-0.245191
C77	C	-0.552030	-0.620367	-0.245180
N78	N	-0.528551	-0.649112	-0.216477
C79	C	-0.551990	-0.677869	-0.187777
C80	C	-0.978979	-0.620494	-0.245221
C81	C	-1.025897	-0.620507	-0.245225
C82	C	-1.025857	-0.678012	-0.187819
C83	C	-0.978938	-0.677997	-0.187814
C84	C	-0.955500	-0.649239	-0.216518
C85	C	-0.453464	-0.677834	-0.187767
C86	C	-0.406545	-0.677814	-0.187762
C87	C	-0.406589	-0.620311	-0.245169
C88	C	-0.453504	-0.620329	-0.245173
C89	C	-0.476941	-0.649094	-0.216470
O90	O	-0.527745	-0.595912	-0.269564
O91	O	-0.527705	-0.702318	-0.163371
C92	C	-0.739654	-0.677930	-0.187798
C93	C	-0.763131	-0.649188	-0.216504
C94	C	-0.739692	-0.620430	-0.245203
C95	C	-0.810049	-0.649200	-0.216507
C96	C	-0.833487	-0.677958	-0.187807
C97	C	-0.810009	-0.706703	-0.159104
C98	C	-0.763093	-0.706687	-0.159098
C99	C	-0.763171	-0.591685	-0.273906
C100	C	-0.810086	-0.591703	-0.273910
C101	C	-0.833525	-0.620461	-0.245210
C102	C	-0.099270	-0.649225	-0.216511
C103	C	-0.049336	-0.649265	-0.216525
C104	C	-0.216445	-0.649143	-0.333657
C105	C	-0.216443	-0.649148	-0.383592
C106	C	-0.216451	0.233691	-0.216498
C107	C	-0.216444	0.183756	-0.216503
C108	C	-0.187635	-0.677935	-0.693251
C109	C	-0.187597	-0.677957	-0.880924
O110	O	-0.163147	-0.702400	-0.905203
N111	N	-0.216323	-0.649208	-0.904377
C112	C	-0.245058	-0.620449	-0.880909
O113	O	-0.269486	-0.595993	-0.905163
C114	C	-0.245093	-0.620425	-0.693236
C115	C	-0.216369	-0.649179	-0.669786
C116	C	-0.158913	-0.706687	-0.669801
C117	C	-0.158925	-0.706683	-0.622885
C118	C	-0.187659	-0.677927	-0.599420
C119	C	-0.216381	-0.649175	-0.622871
C120	C	-0.273826	-0.591663	-0.669769
C121	C	-0.273832	-0.591659	-0.622848
C122	C	-0.245107	-0.620414	-0.599398
C123	C	-0.245126	-0.620415	-0.552490
N124	N	-0.216401	-0.649164	-0.529037
C125	C	-0.187667	-0.677920	-0.552502
C126	C	-0.245038	-0.620464	-0.979439
C127	C	-0.245029	-0.620471	-1.026357
C128	C	-0.187568	-0.677979	-1.026370
C129	C	-0.187579	-0.677974	-0.979451
C130	C	-0.216312	-0.649214	-0.955987
C131	C	-0.187694	-0.677910	-0.453976
C132	C	-0.187709	-0.677904	-0.407057
C133	C	-0.245169	-0.620395	-0.407049
C134	C	-0.245155	-0.620402	-0.453964
C135	C	-0.216414	-0.649161	-0.477427
O136	O	-0.269561	-0.595982	-0.528183
O137	O	-0.163235	-0.702366	-0.528240
C138	C	-0.187624	-0.677939	-0.740167
C139	C	-0.216346	-0.649187	-0.763617
C140	C	-0.245080	-0.620431	-0.740152
C141	C	-0.216338	-0.649194	-0.810535
C142	C	-0.187604	-0.677950	-0.834000
C143	C	-0.158878	-0.706699	-0.810547
C144	C	-0.158890	-0.706695	-0.763632
C145	C	-0.273805	-0.591682	-0.763605
C146	C	-0.273792	-0.591689	-0.810520
C147	C	-0.245058	-0.620445	-0.833985
C148	C	-0.216420	-0.649145	-0.099756
C149	C	-0.216296	-0.649227	-0.049822
H150	H	-0.297170	-0.036347	-0.135480
H151	H	-0.297170	-0.177102	-0.135461
Cl152	Cl	-1.055405	-0.584365	-0.281311
H153	H	-0.268564	-0.596984	-0.387935
Cl154	Cl	-0.151689	0.083822	-0.281471
Cl155	Cl	-0.377114	-0.584163	-0.281249
Cl156	Cl	-0.592840	-0.742784	-0.122995
H157	H	-0.135705	-0.177274	-0.297483
H158	H	-0.164405	-0.478171	-0.268688
H159	H	-0.829101	-0.730118	-0.135735
H160	H	-0.472620	-0.596925	-0.268550
Cl161	Cl	-0.281164	-0.584305	-0.949948
H162	H	-0.743982	-0.730093	-0.135722
Cl163	Cl	-0.281268	-0.584255	-0.483445
H164	H	-0.164396	0.179346	-0.268723
H165	H	-0.268424	-0.597061	-1.045447
Cl166	Cl	-0.698720	-0.742813	-0.123002
H167	H	-0.135709	-0.262379	-0.297481
Cl168	Cl	-0.281200	0.189853	-0.151534
H169	H	-0.164172	-0.701393	-1.045483
H170	H	-0.164318	-0.701321	-0.387966
H171	H	-0.135500	-0.730110	-0.744542
H172	H	-0.268490	0.094343	-0.164270
Cl173	Cl	-0.698837	-0.555524	-0.310003
Cl174	Cl	-0.839594	-0.555564	-0.310003
Cl175	Cl	-0.309872	-0.272586	-0.122707
Cl176	Cl	-0.733712	-0.555529	-0.309990
H177	H	-0.164289	-0.701327	-0.473074
H178	H	-0.135512	-0.730104	-0.688901
Cl179	Cl	-0.281214	-0.382533	-0.151507
H180	H	-0.268498	-0.478060	-0.164243
Cl181	Cl	-0.309909	-0.555539	-0.839995
Cl182	Cl	-0.309932	-0.555527	-0.734113
Cl183	Cl	-0.122809	-0.742830	-0.593412
Cl184	Cl	-0.122998	-0.132034	-0.310235
Cl185	Cl	-0.309940	-0.555514	-0.699238
H186	H	-0.164188	-0.701388	-0.960361
Cl187	Cl	-0.309955	-0.555500	-0.593353
Cl188	Cl	-0.122758	-0.742851	-0.840055
H189	H	-0.297170	-0.121452	-0.135474
H190	H	-0.387431	-0.701220	-0.164383
H191	H	-0.164394	-0.393062	-0.268688
H192	H	-0.959899	-0.597076	-0.268596
Cl193	Cl	-0.123000	-0.026137	-0.310235
Cl194	Cl	-0.482920	-0.713995	-0.151682
Cl195	Cl	-0.949430	-0.714133	-0.151723
H196	H	-0.603333	-0.568229	-0.297275
Cl197	Cl	-1.055332	-0.714163	-0.151739
