data_functionalizedCrystal
_audit_creation_method	'MofGen! by Chris Wilmer'
_symmetry_space_group_name_H-M	'P1'
_symmetry_Int_Tables_number	1
_symmetry_cell_setting	triclinic
loop_
_symmetry_equiv_pos_as_xyz
  x,y,z
_cell_length_a	18.050591
_cell_length_b	18.050589
_cell_length_c	18.215399
_cell_angle_alpha	89.976397
_cell_angle_beta	89.975463
_cell_angle_gamma	90.024669
loop_
_atom_site_label
_atom_site_type_symbol
_atom_site_fract_x
_atom_site_fract_y
_atom_site_fract_z
Zn1	Zn	1.135328	-0.295737	-0.416230
Zn2	Zn	1.385328	-0.045737	-0.166230
Zn3	Zn	1.635328	0.204263	0.083770
Zn4	Zn	1.885328	0.454263	0.333770
Zn5	Zn	1.135228	-0.419932	-0.293173
Zn6	Zn	1.385228	-0.169932	-0.043173
Zn7	Zn	1.635228	0.080068	0.206827
Zn8	Zn	1.885228	0.330068	0.456827
Zn9	Zn	1.011136	-0.295753	-0.293168
Zn10	Zn	1.261136	-0.045753	-0.043168
Zn11	Zn	1.511136	0.204247	0.206832
Zn12	Zn	1.761136	0.454247	0.456832
Zn13	Zn	1.011095	-0.419882	-0.416188
Zn14	Zn	1.261095	-0.169882	-0.166188
Zn15	Zn	1.511095	0.080118	0.083812
Zn16	Zn	1.761095	0.330118	0.333812
O17	O	1.073197	-0.357826	-0.354690
O18	O	1.323197	-0.107826	-0.104690
O19	O	1.573197	0.142174	0.145310
O20	O	1.823197	0.392174	0.395310
O21	O	1.239239	-0.312227	-0.399927
O22	O	1.489239	-0.062227	-0.149927
O23	O	1.739239	0.187773	0.100073
O24	O	1.989239	0.437773	0.350073
O25	O	1.118743	-0.403487	-0.190188
O26	O	1.368743	-0.153487	0.059812
O27	O	1.618743	0.096513	0.309812
O28	O	1.868743	0.346513	0.559812
O29	O	1.027670	-0.191826	-0.309507
O30	O	1.277670	0.058174	-0.059507
O31	O	1.527670	0.308174	0.190493
O32	O	1.777670	0.558174	0.440493
O33	O	1.239166	-0.403472	-0.309517
O34	O	1.489166	-0.153472	-0.059517
O35	O	1.739166	0.096528	0.190483
O36	O	1.989166	0.346528	0.440483
O37	O	1.118912	-0.191815	-0.399921
O38	O	1.368912	0.058185	-0.149921
O39	O	1.618912	0.308185	0.100079
O40	O	1.868912	0.558185	0.350079
O41	O	1.027573	-0.312253	-0.190184
O42	O	1.277573	-0.062253	0.059816
O43	O	1.527573	0.187747	0.309816
O44	O	1.777573	0.437747	0.559816
O45	O	0.907206	-0.312205	-0.309467
O46	O	1.157206	-0.062205	-0.059467
O47	O	1.407206	0.187795	0.190533
O48	O	1.657206	0.437795	0.440533
O49	O	1.027599	-0.403387	-0.519178
O50	O	1.277599	-0.153387	-0.269178
O51	O	1.527599	0.096613	-0.019178
O52	O	1.777599	0.346613	0.230822
O53	O	0.907176	-0.403402	-0.399849
O54	O	1.157176	-0.153402	-0.149849
O55	O	1.407176	0.096598	0.100151
O56	O	1.657176	0.346598	0.350151
O57	O	1.118872	-0.312178	-0.519209
O58	O	1.368872	-0.062178	-0.269209
O59	O	1.618872	0.187822	-0.019209
O60	O	1.868872	0.437822	0.230791
O61	O	1.118702	-0.523850	-0.309476
O62	O	1.368702	-0.273850	-0.059476
O63	O	1.618702	-0.023850	0.190524
O64	O	1.868702	0.226150	0.440524
O65	O	1.027502	-0.523814	-0.399855
O66	O	1.277502	-0.273814	-0.149855
O67	O	1.527502	-0.023814	0.100145
O68	O	1.777502	0.226186	0.350145
C69	C	0.880245	-0.357800	-0.354653
C70	C	1.130245	-0.107800	-0.104653
C71	C	1.380245	0.142200	0.145347
C72	C	1.630245	0.392200	0.395347
C73	C	0.797699	-0.357807	-0.354655
C74	C	1.047699	-0.107807	-0.104655
C75	C	1.297699	0.142193	0.145345
C76	C	1.547699	0.392193	0.395345
C77	C	1.073107	-0.550778	-0.354678
C78	C	1.323107	-0.300778	-0.104678
C79	C	1.573107	-0.050778	0.145322
C80	C	1.823107	0.199222	0.395322
C81	C	1.073137	-0.633324	-0.354697
C82	C	1.323137	-0.383324	-0.104697
C83	C	1.573137	-0.133324	0.145303
C84	C	1.823137	0.116676	0.395303
C85	C	0.548868	-0.308162	-0.305621
C86	C	0.798868	-0.058162	-0.055621
C87	C	1.048868	0.191838	0.194379
C88	C	1.298868	0.441838	0.444379
C89	C	0.598306	-0.290075	-0.372783
C90	C	0.848306	-0.040075	-0.122783
C91	C	1.098306	0.209925	0.127217
C92	C	1.348306	0.459925	0.377217
C93	C	0.500578	-0.357845	-0.354715
C94	C	0.750578	-0.107845	-0.104715
C95	C	1.000578	0.142155	0.145285
C96	C	1.250578	0.392155	0.395285
C97	C	0.598222	-0.375879	-0.287528
C98	C	0.848222	-0.125879	-0.037528
C99	C	1.098222	0.124121	0.212472
C100	C	1.348222	0.374121	0.462472
C101	C	0.646563	-0.357824	-0.354682
C102	C	0.896563	-0.107824	-0.104682
C103	C	1.146563	0.142176	0.145318
C104	C	1.396563	0.392176	0.395318
C105	C	0.548929	-0.339722	-0.421912
C106	C	0.798929	-0.089722	-0.171912
C107	C	1.048929	0.160278	0.078088
C108	C	1.298929	0.410278	0.328088
C109	C	0.548841	-0.425557	-0.336612
C110	C	0.798841	-0.175557	-0.086612
C111	C	1.048841	0.074443	0.163388
C112	C	1.298841	0.324443	0.413388
C113	C	0.598256	-0.407496	-0.403820
C114	C	0.848256	-0.157496	-0.153820
C115	C	1.098256	0.092504	0.096180
C116	C	1.348256	0.342504	0.346180
C117	C	0.416480	-0.357855	-0.354733
C118	C	0.666480	-0.107855	-0.104733
C119	C	0.916480	0.142145	0.145267
C120	C	1.166480	0.392145	0.395267
C121	C	0.730660	-0.357815	-0.354671
C122	C	0.980660	-0.107815	-0.104671
C123	C	1.230660	0.142185	0.145329
C124	C	1.480660	0.392185	0.395329
C125	C	1.023591	-0.832782	-0.403828
C126	C	1.273591	-0.582782	-0.153828
C127	C	1.523591	-0.332782	0.096172
C128	C	1.773591	-0.082782	0.346172
C129	C	1.005487	-0.882221	-0.336672
C130	C	1.255487	-0.632221	-0.086672
C131	C	1.505487	-0.382221	0.163328
C132	C	1.755487	-0.132221	0.413328
C133	C	1.073210	-0.784455	-0.354707
C134	C	1.323210	-0.534455	-0.104707
C135	C	1.573210	-0.284455	0.145293
C136	C	1.823210	-0.034455	0.395293
C137	C	1.091350	-0.882097	-0.421870
C138	C	1.341350	-0.632097	-0.171870
C139	C	1.591350	-0.382097	0.078130
C140	C	1.841350	-0.132097	0.328130
C141	C	1.073279	-0.930440	-0.354722
C142	C	1.323279	-0.680440	-0.104722
C143	C	1.573279	-0.430440	0.145278
C144	C	1.823279	-0.180440	0.395278
C145	C	1.055070	-0.832807	-0.287515
C146	C	1.305070	-0.582807	-0.037515
C147	C	1.555070	-0.332807	0.212485
C148	C	1.805070	-0.082807	0.462485
C149	C	1.140964	-0.832678	-0.372759
C150	C	1.390964	-0.582678	-0.122759
C151	C	1.640964	-0.332678	0.127241
C152	C	1.890964	-0.082678	0.377241
C153	C	1.122886	-0.882095	-0.305557
C154	C	1.372886	-0.632095	-0.055557
C155	C	1.622886	-0.382095	0.194443
C156	C	1.872886	-0.132095	0.444443
C157	C	1.073168	-0.700356	-0.354699
C158	C	1.323168	-0.450356	-0.104699
C159	C	1.573168	-0.200356	0.145301
C160	C	1.823168	0.049644	0.395301
C161	C	1.073320	-1.014536	-0.354722
C162	C	1.323320	-0.764536	-0.104722
C163	C	1.573320	-0.514536	0.145278
C164	C	1.823320	-0.264536	0.395278
C165	C	1.266902	-0.357853	-0.354727
C166	C	1.516902	-0.107853	-0.104727
C167	C	1.766902	0.142147	0.145273
C168	C	2.016902	0.392147	0.395273
C169	C	1.349448	-0.357865	-0.354743
C170	C	1.599448	-0.107865	-0.104743
C171	C	1.849448	0.142135	0.145257
C172	C	2.099448	0.392135	0.395257
C173	C	1.073242	-0.357775	-0.546643
C174	C	1.323242	-0.107775	-0.296643
C175	C	1.573242	0.142225	-0.046643
C176	C	1.823242	0.392225	0.203357
C177	C	1.073261	-0.357753	-0.628442
C178	C	1.323261	-0.107753	-0.378442
C179	C	1.573261	0.142247	-0.128442
C180	C	1.823261	0.392247	0.121558
C181	C	1.073307	-0.164121	-0.354718
C182	C	1.323307	0.085879	-0.104718
C183	C	1.573307	0.335879	0.145282
C184	C	1.823307	0.585879	0.395282
C185	C	1.073354	-0.081575	-0.354730
C186	C	1.323354	0.168425	-0.104730
C187	C	1.573354	0.418425	0.145270
C188	C	1.823354	0.668425	0.395270
C189	C	1.120804	-0.310216	-0.816653
C190	C	1.370804	-0.060216	-0.566653
C191	C	1.620804	0.189784	-0.316653
C192	C	1.870804	0.439784	-0.066653
C193	C	1.120813	-0.310195	-0.893512
C194	C	1.370813	-0.060195	-0.643512
C195	C	1.620813	0.189805	-0.393512
C196	C	1.870813	0.439805	-0.143512
C197	C	1.025771	-0.405175	-0.893469
C198	C	1.275771	-0.155175	-0.643469
C199	C	1.525771	0.094825	-0.393469
C200	C	1.775771	0.344825	-0.143469
C201	C	1.025759	-0.405193	-0.816611
C202	C	1.275759	-0.155193	-0.566611
C203	C	1.525759	0.094807	-0.316611
C204	C	1.775759	0.344807	-0.066611
C205	C	1.073280	-0.357714	-0.778205
C206	C	1.323280	-0.107714	-0.528205
C207	C	1.573280	0.142286	-0.278205
C208	C	1.823280	0.392286	-0.028205
C209	C	1.073301	-0.357675	-0.931922
C210	C	1.323301	-0.107675	-0.681922
C211	C	1.573301	0.142325	-0.431922
C212	C	1.823301	0.392325	-0.181922
C213	C	1.073310	-0.357652	-1.015255
C214	C	1.323310	-0.107652	-0.765255
C215	C	1.573310	0.142348	-0.515255
C216	C	1.823310	0.392348	-0.265255
C217	C	1.073270	-0.357736	-0.694866
C218	C	1.323270	-0.107736	-0.444866
C219	C	1.573270	0.142264	-0.194866
C220	C	1.823270	0.392264	0.055134
C221	C	1.073194	-0.357824	-0.163484
C222	C	1.323194	-0.107824	0.086516
C223	C	1.573194	0.142176	0.336516
C224	C	1.823194	0.392176	0.586516
C225	C	1.073319	-0.357636	-0.081685
C226	C	1.323319	-0.107636	0.168315
C227	C	1.573319	0.142364	0.418315
C228	C	1.823319	0.392364	0.668315
H229	H	0.620020	-0.232800	-0.388094
H230	H	0.870020	0.017200	-0.138094
H231	H	1.120020	0.267200	0.111906
H232	H	1.370020	0.517200	0.361906
H233	H	1.159497	-0.271555	-0.785386
H234	H	1.409497	-0.021555	-0.535386
H235	H	1.659497	0.228445	-0.285386
H236	H	1.909497	0.478445	-0.035386
O237	O	1.111643	-0.910775	-0.497097
O238	O	1.361643	-0.660775	-0.247097
O239	O	1.611643	-0.410775	0.002903
O240	O	1.861643	-0.160775	0.252903
H241	H	1.070337	-0.891024	-0.537754
H242	H	1.320337	-0.641024	-0.287754
H243	H	1.570337	-0.391024	-0.037754
H244	H	1.820337	-0.141024	0.212246
H245	H	0.987082	-0.443832	-0.924748
H246	H	1.237082	-0.193832	-0.674748
H247	H	1.487082	0.056168	-0.424748
H248	H	1.737082	0.306168	-0.174748
O249	O	0.520370	-0.319409	-0.497178
O250	O	0.770370	-0.069409	-0.247178
O251	O	1.020370	0.180591	0.002822
O252	O	1.270370	0.430591	0.252822
H253	H	0.567895	-0.309337	-0.534563
H254	H	0.817895	-0.059337	-0.284563
H255	H	1.067895	0.190663	-0.034563
H256	H	1.317895	0.440663	0.215437
O257	O	1.172076	-0.258970	-0.934984
O258	O	1.422076	-0.008970	-0.684984
O259	O	1.672076	0.241030	-0.434984
O260	O	1.922076	0.491030	-0.184984
H261	H	1.205120	-0.225965	-0.895363
H262	H	1.455120	0.024035	-0.645363
H263	H	1.705120	0.274035	-0.395363
H264	H	1.955120	0.524035	-0.145363
O265	O	0.626811	-0.463138	-0.458852
O266	O	0.876811	-0.213138	-0.208852
O267	O	1.126811	0.036862	0.041148
O268	O	1.376811	0.286862	0.291148
H269	H	0.606963	-0.447985	-0.514531
H270	H	0.856963	-0.197985	-0.264531
H271	H	1.106963	0.052015	-0.014531
H272	H	1.356963	0.302015	0.235469
O273	O	0.520025	-0.501395	-0.316320
O274	O	0.770025	-0.251395	-0.066320
O275	O	1.020025	-0.001395	0.183680
O276	O	1.270025	0.248605	0.433680
H277	H	0.539728	-0.516249	-0.260511
H278	H	0.789728	-0.266249	-0.010511
H279	H	1.039728	-0.016249	0.239489
H280	H	1.289728	0.233751	0.489489
H281	H	0.619878	-0.391140	-0.230722
H282	H	0.869878	-0.141140	0.019278
H283	H	1.119878	0.108860	0.269278
H284	H	1.369878	0.358860	0.519278
O285	O	0.967934	-0.804084	-0.458773
O286	O	1.217934	-0.554084	-0.208773
O287	O	1.467934	-0.304084	0.041227
O288	O	1.717934	-0.054084	0.291227
H289	H	0.911762	-0.823927	-0.443613
H290	H	1.161762	-0.573927	-0.193613
H291	H	1.411762	-0.323927	0.056387
H292	H	1.661762	-0.073927	0.306387
H293	H	1.164877	-0.903611	-0.263975
H294	H	1.414877	-0.653611	-0.013975
H295	H	1.664877	-0.403611	0.236025
H296	H	1.914877	-0.153611	0.486025
O297	O	0.974474	-0.456410	-0.775145
O298	O	1.224474	-0.206410	-0.525145
O299	O	1.474474	0.043590	-0.275145
O300	O	1.724474	0.293590	-0.025145
H301	H	0.987167	-0.514701	-0.789877
H302	H	1.237167	-0.264701	-0.539877
H303	H	1.487167	-0.014701	-0.289877
H304	H	1.737167	0.235299	-0.039877
O305	O	0.929632	-0.911049	-0.316441
O306	O	1.179632	-0.661049	-0.066441
O307	O	1.429632	-0.411049	0.183559
O308	O	1.679632	-0.161049	0.433559
H309	H	0.888512	-0.891304	-0.357287
H310	H	1.138512	-0.641304	-0.107287
H311	H	1.388512	-0.391304	0.142713
H312	H	1.638512	-0.141304	0.392713
H313	H	1.039689	-0.811245	-0.230707
H314	H	1.289689	-0.561245	0.019293
H315	H	1.539689	-0.311245	0.269293
H316	H	1.789689	-0.061245	0.519293
O317	O	1.216887	-0.803994	-0.392920
O318	O	1.466887	-0.553994	-0.142920
O319	O	1.716887	-0.303994	0.107080
O320	O	1.966887	-0.053994	0.357080
H321	H	1.231824	-0.823759	-0.448686
H322	H	1.481824	-0.573759	-0.198686
H323	H	1.731824	-0.323759	0.051314
H324	H	1.981824	-0.073759	0.301314
H325	H	0.527185	-0.266125	-0.264169
H326	H	0.777185	-0.016125	-0.014169
H327	H	1.027185	0.233875	0.235831
H328	H	1.277185	0.483875	0.485831
