data_functionalizedCrystal
_audit_creation_method	'MofGen! by Chris Wilmer'
_symmetry_space_group_name_H-M	'P1'
_symmetry_Int_Tables_number	1
_symmetry_cell_setting	triclinic
loop_
_symmetry_equiv_pos_as_xyz
  x,y,z
_cell_length_a	10.723024
_cell_length_b	22.010155
_cell_length_c	10.723024
_cell_angle_alpha	89.994530
_cell_angle_beta	84.467869
_cell_angle_gamma	90.008235
loop_
_atom_site_label
_atom_site_type_symbol
_atom_site_fract_x
_atom_site_fract_y
_atom_site_fract_z
O1	O	1.657197	0.050520	0.175010
O2	O	1.294045	0.050521	0.191763
O3	O	1.483998	0.050518	0.001810
O4	O	1.467245	0.050523	0.364963
O5	O	1.483963	-0.050532	0.001839
O6	O	1.294011	-0.050529	0.191792
O7	O	1.657163	-0.050531	0.175038
Cu8	Cu	1.475584	-0.059757	0.183418
Cu9	Cu	1.475624	0.059747	0.183384
O10	O	1.467210	-0.050528	0.364991
C11	C	1.247528	-0.000003	0.190558
C12	C	1.108974	-0.000003	0.186911
C13	C	1.033991	-0.000001	0.293198
C14	C	0.890788	-0.000000	0.289431
N15	N	1.475564	-0.143809	0.183441
C16	C	1.559741	-0.563590	0.099285
C17	C	1.559746	-0.627197	0.099277
O18	O	1.631266	-0.660090	0.027740
N19	N	1.475623	-0.659016	0.183358
C20	C	1.391481	-0.627224	0.267445
O21	O	1.319928	-0.660129	0.338961
C22	C	1.391470	-0.563617	0.267446
C23	C	1.475607	-0.531802	0.183368
C24	C	1.643870	-0.531774	0.015213
C25	C	1.643865	-0.468171	0.015223
C26	C	1.559732	-0.436383	0.099306
C27	C	1.475603	-0.468199	0.183378
C28	C	1.307322	-0.531826	0.351526
C29	C	1.307318	-0.468216	0.351520
C30	C	1.391455	-0.436400	0.267441
C31	C	1.391465	-0.372808	0.267472
N32	N	1.475587	-0.340989	0.183390
C33	C	1.559721	-0.372777	0.099307
C34	C	1.391508	-0.760802	0.267434
C35	C	1.391524	-0.824407	0.267439
C36	C	1.559788	-0.824376	0.099269
C37	C	1.559778	-0.760770	0.099271
C38	C	1.475631	-0.728983	0.183352
C39	C	1.559706	-0.239206	0.099336
C40	C	1.559698	-0.175597	0.099358
C41	C	1.391429	-0.175633	0.267523
C42	C	1.391442	-0.239236	0.267507
C43	C	1.475585	-0.271021	0.183403
O44	O	1.319978	-0.339875	0.338968
O45	O	1.631251	-0.339864	0.027792
C46	C	1.703680	-0.000005	0.176243
C47	C	1.842234	-0.000001	0.179891
C48	C	1.482762	-0.000006	-0.044675
C49	C	1.479114	-0.000004	-0.183229
N50	N	1.475654	0.143800	0.183351
C51	C	1.585401	-0.000004	-0.258212
C52	C	1.581634	-0.000002	-0.401415
C53	C	1.468447	-0.000002	0.411477
C54	C	1.472094	0.000000	0.550031
H55	H	1.628216	-0.149695	0.030891
H56	H	1.679187	-0.000008	-0.216390
H57	H	1.075814	-0.000003	0.386984
H58	H	1.628221	-0.265078	0.030850
C59	C	0.804946	0.000128	0.410805
C60	C	0.828134	0.052124	0.480157
C61	C	0.749066	0.052267	0.591970
H62	H	0.820421	-0.035069	0.458210
H63	H	0.720097	0.000161	0.392200
H64	H	0.912963	0.052085	0.498766
H65	H	0.812650	0.087329	0.432790
H66	H	0.664217	0.052301	0.573364
H67	H	0.764547	0.017068	0.639363
H68	H	0.764780	0.087548	0.639033
H69	H	1.385328	0.000000	-0.225051
H70	H	0.906659	0.000001	0.088896
H71	H	1.712373	-0.442271	-0.053244
C72	C	1.053154	0.000122	0.061886
C73	C	0.979250	0.052118	0.053355
C74	C	0.927826	0.052259	-0.061810
H75	H	1.002834	-0.035075	0.055777
H76	H	1.118732	0.000155	-0.004347
H77	H	0.913680	0.052080	0.119569
H78	H	1.029541	0.087324	0.059441
H79	H	0.993405	0.052291	-0.128043
H80	H	0.877512	0.017059	-0.067908
H81	H	0.877686	0.087540	-0.067618
C82	C	1.735368	-0.566170	-0.076137
C83	C	1.809051	-0.524681	-0.149730
C84	C	1.893378	-0.556339	-0.233881
H85	H	1.690204	-0.590989	-0.128626
H86	H	1.787773	-0.590964	-0.030801
H87	H	1.756653	-0.499898	-0.195062
H88	H	1.854242	-0.499861	-0.097275
H89	H	1.945783	-0.581132	-0.188546
H90	H	1.848203	-0.581157	-0.286362
H91	H	1.943389	-0.528193	-0.283817
C92	C	1.651173	-0.726340	0.007838
C93	C	1.724831	-0.767801	-0.065810
C94	C	1.809029	-0.736110	-0.150068
H95	H	1.703616	-0.701520	0.053054
H96	H	1.605872	-0.701545	-0.044595
H97	H	1.770130	-0.792585	-0.013383
H98	H	1.672423	-0.792622	-0.111053
H99	H	1.763727	-0.711315	-0.202501
H100	H	1.861463	-0.711291	-0.104841
H101	H	1.859008	-0.764236	-0.200056
H102	H	1.381099	-0.000004	-0.385544
C103	C	1.300044	-0.858835	0.358789
C104	C	1.226349	-0.817375	0.432400
C105	C	1.142044	-0.849065	0.516550
H106	H	1.345225	-0.883651	0.411267
H107	H	1.247645	-0.883635	0.313452
H108	H	1.278740	-0.792586	0.477733
H109	H	1.181140	-0.792558	0.379956
H110	H	1.089646	-0.873865	0.471214
H111	H	1.187236	-0.873880	0.569019
H112	H	1.092024	-0.820940	0.566497
H113	H	1.628293	-0.850269	0.030802
C114	C	1.300358	-0.726216	0.358811
C115	C	1.367475	-0.689688	0.435796
C116	C	1.283551	-0.657817	0.519976
H117	H	1.250234	-0.754211	0.409003
H118	H	1.248036	-0.701370	0.313492
H119	H	1.419775	-0.714532	0.481112
H120	H	1.417595	-0.661682	0.385639
H121	H	1.231228	-0.632971	0.474657
H122	H	1.233431	-0.685817	0.570159
H123	H	1.329077	-0.633025	0.572212
C124	C	1.215898	-0.566434	0.442608
C125	C	1.138966	-0.602961	0.375427
C126	C	1.054733	-0.634854	0.459292
H127	H	1.165673	-0.538452	0.492703
H128	H	1.261177	-0.591282	0.494963
H129	H	1.093691	-0.578115	0.323093
H130	H	1.189156	-0.630954	0.325336
H131	H	1.100012	-0.659702	0.511647
H132	H	1.004517	-0.606868	0.509383
H133	H	1.002533	-0.659645	0.413723
H134	H	1.238792	-0.442338	0.419988
H135	H	1.322942	-0.265141	0.335983
H136	H	1.322932	-0.149742	0.335986
H137	H	1.672624	-0.000004	-0.465848
