data_functionalizedCrystal
_audit_creation_method	'MofGen! by Chris Wilmer'
_symmetry_space_group_name_H-M	'P1'
_symmetry_Int_Tables_number	1
_symmetry_cell_setting	triclinic
loop_
_symmetry_equiv_pos_as_xyz
  x,y,z
_cell_length_a	15.500227
_cell_length_b	11.026607
_cell_length_c	11.026607
_cell_angle_alpha	71.413983
_cell_angle_beta	86.545431
_cell_angle_gamma	86.533579
loop_
_atom_site_label
_atom_site_type_symbol
_atom_site_fract_x
_atom_site_fract_y
_atom_site_fract_z
O1	O	0.071942	-1.731369	0.529003
O2	O	0.071943	-1.364789	0.468239
O3	O	0.071940	-1.517697	0.315331
O4	O	0.071946	-1.578461	0.681911
O5	O	-0.071949	-1.508408	0.324563
O6	O	-0.071945	-1.355500	0.477471
O7	O	-0.071946	-1.722080	0.538235
Cu8	Cu	-0.085084	-1.537942	0.508696
Cu9	Cu	0.085081	-1.548927	0.497778
O10	O	-0.071943	-1.569172	0.691143
C11	C	-0.000001	-1.312485	0.461645
C12	C	-0.000000	-1.170471	0.428228
N13	N	-0.204769	-1.530224	0.516377
C14	C	-0.000003	-1.501842	0.272288
C15	C	-0.000000	-1.468426	0.130273
C16	C	-0.250047	-1.595052	0.451621
C17	C	-0.340620	-1.589230	0.457444
C18	C	-0.385912	-1.518586	0.528031
C19	C	-0.340628	-1.453751	0.592788
C20	C	-0.250057	-1.459566	0.586957
C21	C	-0.659379	-1.497632	0.549016
C22	C	-0.749956	-1.491824	0.554845
C23	C	-0.749942	-1.627302	0.419498
C24	C	-0.659369	-1.633118	0.413680
C25	C	-0.614092	-1.568276	0.478432
C26	C	-0.478492	-1.512637	0.533988
C27	C	-0.521514	-1.574219	0.472466
N28	N	0.204766	-1.556652	0.490090
C29	C	-0.000000	-1.774384	0.544829
C30	C	0.000005	-1.916398	0.578245
C31	C	0.000002	-1.116821	0.520498
C32	C	0.000003	-0.970043	0.485962
C33	C	0.000001	-1.560695	0.076624
C34	C	0.000004	-1.526160	-0.070155
C35	C	0.000002	-1.585026	0.734186
C36	C	0.000005	-1.618443	0.876200
H37	H	-0.377485	-1.642017	0.404714
C38	C	0.073972	-1.825144	-0.069873
C39	C	0.000004	-1.759612	-0.039132
H40	H	0.073972	-1.912291	-0.017597
H41	H	0.073966	-1.820450	-0.157392
H42	H	0.124143	-1.787141	-0.055456
H43	H	-0.050168	-1.797609	-0.053558
H44	H	0.000002	-1.764313	0.048408
H45	H	-0.000005	-1.665258	0.139358
C46	C	-0.000004	-0.963044	0.266081
C47	C	-0.000000	-0.885374	0.344794
H48	H	-0.000011	-0.910769	0.178932
H49	H	0.050171	-1.018746	0.279733
H50	H	-0.050184	-1.012277	0.286183
H51	H	0.050183	-0.836147	0.324698
H52	H	-0.050180	-0.829649	0.331134
H53	H	0.000001	-0.979125	0.682816
C54	C	0.000007	-1.378103	-0.283841
C55	C	0.000005	-1.384992	-0.154826
H56	H	0.000002	-1.290953	-0.336110
H57	H	0.050182	-1.422568	-0.304673
H58	H	-0.050173	-1.416100	-0.298238
H59	H	0.050188	-1.347003	-0.140427
H60	H	-0.050175	-1.340509	-0.133987
H61	H	-0.515377	-1.455120	0.591464
C62	C	-0.259139	-1.728368	0.318412
C63	C	-0.200265	-1.672703	0.374026
H64	H	-0.228406	-1.776298	0.270499
H65	H	-0.294450	-1.783527	0.383769
H66	H	-0.294480	-1.663024	0.263234
H67	H	-0.164928	-1.738048	0.429212
H68	H	-0.164940	-1.617541	0.308660
H69	H	0.000006	-1.363863	0.067540
H70	H	-0.622493	-1.690641	0.356202
H71	H	-0.000001	-1.179554	0.625061
H72	H	-0.213192	-1.406774	0.639686
C73	C	-0.740828	-1.761783	0.285116
C74	C	-0.799711	-1.698554	0.348306
H75	H	-0.771555	-1.805772	0.241164
H76	H	-0.705514	-1.700988	0.225398
H77	H	-0.705492	-1.821486	0.345938
H78	H	-0.835043	-1.638844	0.287483
H79	H	-0.835040	-1.759356	0.408030
C80	C	-0.740878	-1.358447	0.688010
C81	C	-0.799744	-1.414145	0.632418
H82	H	-0.771617	-1.310486	0.735888
H83	H	-0.705543	-1.423764	0.743206
H84	H	-0.705560	-1.303299	0.622633
H85	H	-0.835058	-1.469300	0.697796
H86	H	-0.835094	-1.348819	0.577218
H87	H	0.000020	-1.107739	0.323664
H88	H	-0.622522	-1.444838	0.601742
H89	H	-0.377510	-1.396224	0.650256
C90	C	-0.419713	-1.570461	0.298489
C91	C	-0.471750	-1.651831	0.394823
H92	H	-0.388988	-1.618371	0.250548
H93	H	-0.455074	-1.505134	0.243354
H94	H	-0.379776	-1.532710	0.336238
H95	H	-0.511691	-1.689575	0.357073
H96	H	-0.436386	-1.717181	0.449967
