data_functionalizedCrystal
_audit_creation_method	'MofGen! by Chris Wilmer'
_symmetry_space_group_name_H-M	'P1'
_symmetry_Int_Tables_number	1
_symmetry_cell_setting	triclinic
loop_
_symmetry_equiv_pos_as_xyz
  x,y,z
_cell_length_a	27.440280
_cell_length_b	17.052862
_cell_length_c	17.052862
_cell_angle_alpha	87.393194
_cell_angle_beta	50.265435
_cell_angle_gamma	109.736438
loop_
_atom_site_label
_atom_site_type_symbol
_atom_site_fract_x
_atom_site_fract_y
_atom_site_fract_z
Zr1	Zr	0.368698	-0.030308	0.908951
O2	O	0.470356	0.097849	0.780814
O3	O	0.267040	-0.069592	0.948215
O4	O	0.337312	0.072007	0.974083
O5	O	0.424842	-0.155449	0.734561
O6	O	0.312554	0.051618	1.126556
O7	O	0.400084	-0.043749	0.754946
O8	O	0.186851	-0.201676	1.080283
O9	O	0.550545	0.097845	0.780834
O10	O	0.290377	-0.101566	1.078770
O11	O	0.327330	-0.169710	0.949767
O12	O	0.410066	-0.002996	0.980224
O13	O	0.447019	-0.071140	0.851221
Zr14	Zr	0.368698	-0.240974	1.119615
Zr15	Zr	0.329212	-0.062826	1.152128
Zr16	Zr	0.408184	-0.208456	0.876438
Zr17	Zr	0.496591	-0.030314	0.908982
Zr18	Zr	0.240805	-0.240967	1.119584
O19	O	0.470356	-0.201690	1.080351
O20	O	0.414212	0.051613	1.126580
O21	O	0.526500	-0.155454	0.734585
O22	O	0.267041	-0.369131	1.247752
O23	O	0.210897	-0.115828	1.293981
O24	O	0.323184	-0.322894	0.901986
O25	O	0.312555	-0.115833	1.294005
O26	O	0.400084	-0.343288	1.054484
O27	O	0.424842	-0.322899	0.902011
O28	O	0.337312	-0.227533	1.273620
O29	O	0.519159	0.071998	0.974127
O30	O	0.218237	-0.343280	1.054439
O31	O	0.186851	-0.369127	1.247733
O32	O	0.155465	-0.227524	1.273576
O33	O	0.581931	-0.043758	0.754990
O34	O	0.550545	-0.069606	0.948284
O35	O	0.327330	-0.268286	1.048343
O36	O	0.290377	-0.200142	1.177345
O37	O	0.410066	-0.101572	1.078799
O38	O	0.447019	-0.169716	0.949796
C39	C	0.208723	-0.135633	1.014244
C40	C	0.154429	-0.135630	1.014231
C41	C	0.319307	0.087194	1.054951
C42	C	0.302545	0.162823	1.068754
C43	C	0.418089	-0.358476	0.973615
C44	C	0.434852	-0.434104	0.959812
C45	C	-0.201613	-0.100082	1.081651
C46	C	-0.252638	-0.100086	1.081661
O47	O	-0.295449	-0.069864	1.138959
N48	N	-0.258865	-0.135654	1.014323
C49	C	-0.214069	-0.171230	0.946978
O50	O	-0.224051	-0.201485	0.889703
C51	C	-0.163048	-0.171231	0.946974
C52	C	-0.156820	-0.135652	1.014309
C53	C	-0.195383	-0.064507	1.148981
C54	C	-0.144361	-0.064502	1.148970
C55	C	-0.099568	-0.100072	1.081628
C56	C	-0.105797	-0.135647	1.014298
C57	C	-0.118256	-0.206812	0.879636
C58	C	-0.067234	-0.206811	0.879639
C59	C	-0.061006	-0.171232	0.946974
C60	C	-0.009982	-0.171213	0.946944
N61	N	-0.003754	-0.135644	1.014283
C62	C	-0.048547	-0.100074	1.081624
C63	C	-0.321217	-0.171225	0.946991
C64	C	-0.372233	-0.171218	0.946988
C65	C	-0.410800	-0.100075	1.081673
C66	C	-0.359779	-0.100077	1.081670
C67	C	-0.314990	-0.135656	1.014330
C68	C	0.058606	-0.100065	1.081594
C69	C	0.109636	-0.100060	1.081573
C70	C	0.148196	-0.171207	0.946893
C71	C	0.097172	-0.171208	0.946909
C72	C	0.052375	-0.135637	1.014269
O73	O	0.032851	-0.201422	0.889678
O74	O	-0.038562	-0.069834	1.138900
C75	C	0.528673	-0.135649	1.014322
C76	C	0.582967	-0.135651	1.014335
C77	C	0.418089	-0.094966	0.710106
C78	C	0.434851	-0.081161	0.606871
C79	C	0.505207	0.581823	0.901883
C80	C	0.520959	0.510769	0.888909
C81	C	0.466357	0.423780	0.933869
C82	C	0.395999	0.407850	0.991806
C83	C	0.380247	0.478912	1.004775
C84	C	0.341397	0.320868	1.036760
C85	C	0.271039	0.304939	1.094697
C86	C	0.255289	0.375995	1.107664
C87	C	0.309892	0.462984	1.062704
C88	C	0.357150	0.249806	1.023792
C89	C	0.232190	0.146895	1.126683
C90	C	0.216437	0.217949	1.139658
C91	C	0.232190	-0.248059	0.521635
C92	C	0.216437	-0.261026	0.618633
C93	C	0.271039	-0.216061	0.615698
C94	C	0.341397	-0.158127	0.515755
C95	C	0.357150	-0.145153	0.418749
C96	C	0.395999	-0.113155	0.512811
C97	C	0.466357	-0.055220	0.412869
C98	C	0.482107	-0.042250	0.315874
C99	C	0.427505	-0.087215	0.318809
C100	C	0.380246	-0.126129	0.609817
C101	C	0.505206	-0.023223	0.506931
C102	C	0.520959	-0.010256	0.409934
C103	C	0.319308	-0.176316	1.318460
C104	C	0.302545	-0.190121	1.421695
C105	C	0.159333	-0.176308	1.318421
C106	C	0.088276	-0.190110	1.421643
C107	C	0.258114	-0.358468	0.973576
C108	C	0.220583	-0.434094	0.959760
C109	C	0.208724	-0.399143	1.277753
C110	C	0.154430	-0.488574	1.367172
C111	C	0.528672	0.127862	0.750813
C112	C	0.582966	0.217292	0.661394
C113	C	0.578063	-0.094974	0.710145
C114	C	0.649120	-0.081172	0.606923
C115	C	0.479282	0.087187	1.054990
C116	C	0.516813	0.162812	1.068806
C117	C	0.054906	-0.145129	1.418663
C118	C	-0.011855	-0.158079	1.515645
C119	C	-0.045246	-0.216017	1.615604
C120	C	-0.011869	-0.260999	1.618581
C121	C	0.054892	-0.248043	1.521602
C122	C	0.202960	-0.521072	1.004726
C123	C	0.167705	-0.592136	0.991739
C124	C	0.150069	-0.576222	0.933793
C125	C	0.167696	-0.489235	0.888821
C126	C	0.202956	-0.418171	0.901802
C127	C	0.109642	-0.495002	1.476512
C128	C	0.058632	-0.579026	1.560542
C129	C	0.052406	-0.656620	1.535229
C130	C	0.097200	-0.650189	1.425877
C131	C	0.148213	-0.566166	1.341850
C132	C	0.627760	0.223720	0.552054
C133	C	0.678787	0.307744	0.468024
C134	C	0.685015	0.385338	0.493338
C135	C	0.640217	0.378907	0.602689
C136	C	0.589195	0.294884	0.686716
C137	C	0.682494	-0.126146	0.609904
C138	C	0.749264	-0.113175	0.512927
C139	C	0.782656	-0.055235	0.412968
C140	C	0.749278	-0.010256	0.409990
C141	C	0.682512	-0.023222	0.506967
C142	C	0.534437	0.146870	1.126759
C143	C	0.569693	0.217918	1.139761
C144	C	0.587328	0.304909	1.094803
C145	C	0.569700	0.320850	1.036848
C146	C	0.534441	0.249802	1.023853
H147	H	0.114704	-0.071084	1.136405
C148	C	0.116481	-0.409659	1.504384
N149	N	0.121632	-0.345381	1.525386
C150	C	0.647071	0.464271	0.630516
N151	N	0.652230	0.528570	0.651472
C152	C	-0.003719	-0.749042	1.627674
N153	N	-0.045996	-0.818651	1.697309
C154	C	0.444829	-0.072954	0.212109
N155	N	0.457876	-0.062214	0.131744
C156	C	0.598349	0.528295	0.825188
N157	N	0.656643	0.541498	0.777194
C158	C	0.620926	0.138377	0.524182
N159	N	0.615787	0.074099	0.503181
C160	C	0.148287	-0.471744	0.825088
N161	N	0.133662	-0.458574	0.777090
C162	C	0.539917	0.287827	0.806991
N163	N	0.502800	0.282518	0.897582
H164	H	0.217298	-0.347353	0.865187
C165	C	-0.048560	-0.108599	1.512343
N166	N	-0.076206	-0.071331	1.509853
C167	C	0.139047	0.200440	1.203377
N168	N	0.080757	0.187254	1.251369
H169	H	0.082056	-0.284680	1.524042
H170	H	0.655313	-0.173331	0.691286
C171	C	0.515039	0.051184	1.176231
N172	N	0.500426	-0.020887	1.213504
C173	C	0.009359	-0.586081	1.680821
N174	N	-0.027754	-0.591391	1.771413
C175	C	0.785964	-0.162669	0.516226
N176	N	0.813603	-0.199949	0.518713
C177	C	0.090338	-0.735553	1.398050
N178	N	0.085163	-0.799852	1.377094
C179	C	0.197475	-0.559109	1.221575
N180	N	0.234579	-0.553800	1.130984
H181	H	0.187729	0.076065	1.163289
H182	H	0.715255	0.312964	0.378992
H183	H	-0.284745	-0.200191	0.892144
C184	C	0.589073	0.416542	0.987446
N185	N	0.603657	0.488617	0.950250
H186	H	0.726563	0.453749	0.424907
C187	C	0.856100	-0.040987	0.306297
N188	N	0.911416	-0.030261	0.225956
H189	H	0.776477	0.036919	0.328590
C190	C	0.589081	0.200364	1.203509
N191	N	0.603684	0.187140	1.251523
H192	H	-0.039066	-0.308172	1.699982
H193	H	0.655342	0.013401	0.504524
H194	H	-0.099608	-0.226559	1.694563
H195	H	0.217316	-0.534046	1.051911
C196	C	0.148312	-0.687816	1.041230
N197	N	0.133704	-0.759881	1.078510
H198	H	0.616039	0.362754	1.105392
H199	H	0.520097	0.262795	0.976657
C200	C	0.111274	-0.654406	0.919536
N201	N	0.082050	-0.713298	0.908807
H202	H	0.022135	-0.071101	1.136446
H203	H	0.578245	0.036916	0.328548
H204	H	-0.139296	-0.035534	1.203803
H205	H	-0.231854	-0.035543	1.203824
H206	H	0.479187	0.365927	0.923301
H207	H	0.549668	0.013393	0.504537
C208	C	0.253709	-0.230333	0.722398
N209	N	0.240654	-0.241089	0.802771
C210	C	-0.352939	-0.060945	1.155750
N211	N	-0.347792	-0.031473	1.211554
C212	C	-0.379090	-0.210379	0.872936
N213	N	-0.384262	-0.239892	0.817173
C214	C	0.177896	0.358470	1.171381
N215	N	0.119603	0.345269	1.219372
C216	C	-0.017966	-0.245952	0.805557
N217	N	0.019143	-0.275430	0.749756
C218	C	0.090345	-0.210307	0.872798
N219	N	0.085209	-0.239753	0.816972
C220	C	0.139046	-0.324754	0.728561
N221	N	0.080751	-0.372759	0.811363
C222	C	0.292569	0.541154	1.076962
N223	N	0.279525	0.600035	1.087695
C224	C	0.559501	0.021489	0.205939
N225	N	0.617795	0.069497	0.123137
H226	H	0.082088	-0.097941	1.337282
H227	H	-0.447282	-0.071113	1.136509
H228	H	-0.123317	-0.235786	0.824806
H229	H	0.414436	0.262785	0.976617
H230	H	0.549657	0.652652	0.865277
H231	H	0.184677	-0.200164	0.892061
H232	H	0.322961	-0.173306	0.691182
H233	H	0.187740	-0.284659	0.524012
