data_functionalizedCrystal
_audit_creation_method	'MofGen! by Chris Wilmer'
_symmetry_space_group_name_H-M	'P1'
_symmetry_Int_Tables_number	1
_symmetry_cell_setting	triclinic
loop_
_symmetry_equiv_pos_as_xyz
  x,y,z
_cell_length_a	10.654550
_cell_length_b	16.992695
_cell_length_c	9.130313
_cell_angle_alpha	89.995176
_cell_angle_beta	89.999724
_cell_angle_gamma	87.576577
loop_
_atom_site_label
_atom_site_type_symbol
_atom_site_fract_x
_atom_site_fract_y
_atom_site_fract_z
O1	O	1.677362	0.110190	-0.121691
O2	O	1.312790	0.120688	-0.121718
O3	O	1.493615	0.001288	-0.121693
O4	O	1.496538	0.229590	-0.121716
O5	O	1.493601	0.001285	0.121906
O6	O	1.312777	0.120685	0.121881
O7	O	1.677348	0.110186	0.121908
Cu8	Cu	1.495061	0.115435	0.144137
Cu9	Cu	1.495077	0.115439	-0.143947
O10	O	1.496524	0.229586	0.121883
C11	C	1.265919	0.119916	0.000078
C12	C	1.126277	0.117609	0.000068
C13	C	1.052866	0.187910	0.000065
C14	C	0.921658	0.185738	0.000091
C15	C	0.937282	0.042959	0.000116
C16	C	1.068488	0.045132	0.000101
C17	C	1.489848	-0.027946	0.000106
C18	C	1.478628	-0.115051	0.000105
C19	C	1.586879	-0.164703	0.000114
C20	C	1.576330	-0.246547	0.000099
C21	C	1.457529	-0.278738	0.000086
C22	C	1.349270	-0.229080	0.000072
C23	C	1.359820	-0.147237	0.000076
C24	C	1.413802	-0.522573	0.000062
C25	C	1.403260	-0.604422	0.000062
C26	C	1.630321	-0.621884	0.000087
C27	C	1.640861	-0.540039	0.000100
C28	C	1.532602	-0.490388	0.000079
N29	N	1.446743	-0.362395	0.000075
N30	N	1.543389	-0.406733	0.000079
C31	C	1.724220	0.110959	0.000108
C32	C	1.863862	0.113265	0.000109
C33	C	1.500291	0.258821	0.000080
C34	C	1.511510	0.345926	0.000072
N35	N	1.495059	0.115432	0.346759
N36	N	1.495089	0.115437	-0.346570
C37	C	1.575159	0.062584	0.423422
C38	C	1.575171	0.062584	0.576759
C39	C	1.414980	0.168287	0.576756
C40	C	1.414963	0.168282	0.423422
H41	H	1.099913	0.246926	0.000049
C42	C	0.910200	-0.079406	-0.125087
C43	C	0.873758	-0.036706	0.000133
H44	H	0.870989	-0.128590	-0.125073
H45	H	0.885478	-0.050428	-0.210020
H46	H	0.998850	-0.088167	-0.125075
H47	H	0.785109	-0.027940	0.000116
H48	H	0.898473	-0.065690	0.085088
C49	C	1.855816	-0.630922	0.000108
C50	C	1.749315	-0.676461	0.000096
H51	H	1.929280	-0.664617	0.000118
H52	H	1.855209	-0.598634	-0.084833
H53	H	1.855195	-0.598641	0.085065
H54	H	1.749931	-0.708739	-0.084867
H55	H	1.749922	-0.708763	0.085045
C56	C	1.635362	-0.072799	0.623975
C57	C	1.663224	0.004494	0.661024
H58	H	1.689731	-0.108663	0.675991
H59	H	1.550666	-0.081805	0.649127
H60	H	1.646817	-0.080352	0.521679
H61	H	1.651761	0.012048	0.763319
H62	H	1.747941	0.013503	0.635882
H63	H	1.325649	-0.482157	0.000045
C64	C	1.239953	-0.045066	0.125287
C65	C	1.240830	-0.092655	0.000067
H66	H	1.166493	-0.011367	0.125268
H67	H	1.240541	-0.077360	0.210220
H68	H	1.312222	-0.014187	0.125279
H69	H	1.168564	-0.123538	0.000080
H70	H	1.240229	-0.060358	-0.084888
C71	C	1.202082	0.213083	0.624006
C72	C	1.326946	0.226378	0.661036
H73	H	1.147736	0.248945	0.676044
H74	H	1.190614	0.220649	0.521727
H75	H	1.183213	0.160641	0.649157
H76	H	1.345819	0.278819	0.635875
H77	H	1.338421	0.218819	0.763338
C78	C	1.354788	0.303674	0.376170
C79	C	1.326914	0.226380	0.339142
H80	H	1.300435	0.339536	0.324131
H81	H	1.343330	0.311237	0.478449
H82	H	1.439500	0.312670	0.351018
H83	H	1.242205	0.217381	0.364305
H84	H	1.338362	0.218813	0.236841
H85	H	1.128262	-0.012119	0.000107
C86	C	1.179867	-0.578945	-0.000007
C87	C	1.272663	-0.639807	0.000024
H88	H	1.099249	-0.600793	-0.000041
H89	H	1.188681	-0.547392	0.084939
H90	H	1.188729	-0.547381	-0.084958
H91	H	1.263808	-0.671368	0.084981
H92	H	1.263846	-0.671373	-0.084931
H93	H	0.861892	0.242984	0.000091
H94	H	1.683620	-0.138501	0.000134
C95	C	1.801825	-0.255587	0.000159
C96	C	1.695323	-0.301125	0.000127
H97	H	1.875289	-0.289282	0.000185
H98	H	1.801232	-0.223300	-0.084784
H99	H	1.801192	-0.223304	0.085114
H100	H	1.695952	-0.333404	-0.084834
H101	H	1.695917	-0.333425	0.085078
H102	H	1.640377	0.019549	0.361007
C103	C	1.757849	-0.422336	0.000109
C104	C	1.771450	-0.504657	0.000103
H105	H	1.838472	-0.400494	0.000121
H106	H	1.712942	-0.405337	-0.084836
H107	H	1.712926	-0.405348	0.085062
H108	H	1.816365	-0.521646	-0.084856
H109	H	1.816377	-0.521663	0.085057
C110	C	1.232277	-0.346783	0.000072
C111	C	1.218680	-0.264462	0.000062
H112	H	1.151653	-0.368623	0.000079
H113	H	1.277188	-0.363776	-0.084869
H114	H	1.277193	-0.363779	0.085029
H115	H	1.173771	-0.247466	-0.084901
H116	H	1.173749	-0.247461	0.085011
