data_functionalizedCrystal
_audit_creation_method	'MofGen! by Chris Wilmer'
_symmetry_space_group_name_H-M	'P1'
_symmetry_Int_Tables_number	1
_symmetry_cell_setting	triclinic
loop_
_symmetry_equiv_pos_as_xyz
  x,y,z
_cell_length_a	17.077404
_cell_length_b	16.959453
_cell_length_c	16.959447
_cell_angle_alpha	90.031064
_cell_angle_beta	90.014212
_cell_angle_gamma	90.017958
loop_
_atom_site_label
_atom_site_type_symbol
_atom_site_fract_x
_atom_site_fract_y
_atom_site_fract_z
Zn1	Zn	1.200038	-0.314709	0.446902
Zn2	Zn	1.199962	-0.446901	0.314722
Zn3	Zn	1.068780	-0.314736	0.314740
Zn4	Zn	1.068745	-0.446844	0.446861
O5	O	1.134381	-0.380798	0.380806
O6	O	1.309875	-0.332257	0.429378
O7	O	1.182542	-0.429404	0.204113
O8	O	1.086238	-0.204121	0.332297
O9	O	1.309819	-0.429378	0.332266
O10	O	1.182673	-0.204101	0.429396
O11	O	1.086164	-0.332303	0.204127
O12	O	0.958928	-0.332248	0.332256
O13	O	1.086179	-0.429281	0.557477
O14	O	0.958902	-0.429308	0.429325
O15	O	1.182639	-0.332202	0.557508
O16	O	1.182509	-0.557505	0.332226
O17	O	1.086104	-0.557463	0.429307
C18	C	0.930433	-0.380775	0.380789
C19	C	0.843183	-0.380785	0.380800
C20	C	0.802223	-0.330304	0.431443
C21	C	0.720243	-0.330309	0.431447
C22	C	0.679224	-0.380799	0.380810
C23	C	0.720190	-0.431283	0.330161
C24	C	0.802169	-0.431273	0.330154
C25	C	0.549320	-0.431301	0.330181
C26	C	0.467335	-0.431312	0.330189
C27	C	0.467394	-0.330336	0.431474
C28	C	0.549373	-0.330327	0.431467
C29	C	0.590333	-0.380811	0.380818
C30	C	1.134316	-0.586164	0.380777
C31	C	1.134359	-0.674020	0.380791
C32	C	1.184659	-1.045427	0.431461
C33	C	1.084322	-1.045565	0.330269
C34	C	1.084293	-0.963019	0.330251
C35	C	1.134447	-0.921673	0.380839
C36	C	1.184630	-0.962874	0.431446
C37	C	1.034105	-0.921813	0.279650
C38	C	1.034074	-0.839262	0.279631
C39	C	1.084232	-0.797915	0.330216
C40	C	1.134418	-0.839120	0.380824
C41	C	1.184572	-0.797774	0.431413
C42	C	1.234762	-0.838978	0.482018
C43	C	1.234788	-0.921526	0.482032
C44	C	1.084206	-0.715366	0.330203
C45	C	1.184542	-0.715221	0.431398
C46	C	1.339125	-0.380821	0.380825
C47	C	1.426375	-0.380830	0.380832
C48	C	1.134414	-0.380732	0.586975
C49	C	1.134428	-0.380704	0.674831
C50	C	1.134468	-0.174629	0.380853
C51	C	1.134505	-0.086773	0.380872
C52	C	1.134394	-0.380806	0.175440
C53	C	1.134532	-0.380611	0.087584
C54	C	1.084299	-0.431166	1.046294
C55	C	1.184744	-0.330076	1.046320
C56	C	1.184723	-0.330093	0.963775
C57	C	1.134490	-0.380648	0.922484
C58	C	1.084278	-0.431186	0.963740
C59	C	1.234940	-0.279561	0.922513
C60	C	1.234922	-0.279577	0.839962
C61	C	1.184684	-0.330128	0.798670
C62	C	1.134469	-0.380668	0.839931
C63	C	1.084236	-0.431222	0.798641
C64	C	1.034017	-0.481759	0.839900
C65	C	1.034040	-0.481737	0.922448
C66	C	1.184661	-0.330150	0.716121
C67	C	1.084215	-0.431242	0.716087
H68	H	0.686897	-0.289203	0.472688
H69	H	0.582768	-0.289217	0.472704
C70	C	0.847337	-0.274758	0.487148
N71	N	0.881314	-0.232917	0.529103
H72	H	1.225551	-0.289006	0.682532
C73	C	1.239992	-0.274464	1.091742
N74	N	1.281603	-0.232570	1.125958
C75	C	0.978762	-0.537367	0.794470
N76	N	0.937144	-0.579249	0.760249
H77	H	0.433940	-0.472426	0.288957
C78	C	0.978857	-0.793945	0.223972
N79	N	0.937266	-0.759812	0.182050
H80	H	0.582667	-0.472409	0.288936
H81	H	1.043338	-0.681822	0.289005
C82	C	0.978800	-0.537318	0.967840
N83	N	0.937192	-0.579180	1.002032
C84	C	0.675066	-0.486822	0.274459
N85	N	0.641079	-0.528658	0.232506
C86	C	0.979033	-0.967297	0.223914
N87	N	0.937586	-1.001560	0.181895
H88	H	0.434040	-0.289228	0.472712
C89	C	0.847224	-0.486808	0.274444
N90	N	0.881159	-0.528637	0.232480
H91	H	1.043486	-1.079233	0.289085
C92	C	1.028952	-0.486856	0.670674
N93	N	0.987328	-0.528745	0.636470
C94	C	1.239720	-0.669747	0.487048
N95	N	1.281280	-0.635497	0.528964
H96	H	1.043409	-0.472309	1.079891
H97	H	1.275594	-0.805305	0.523212
H98	H	1.275650	-0.955082	0.523232
C99	C	1.239865	-1.090751	0.487124
N100	N	1.281447	-1.124890	0.529051
H101	H	1.275842	-0.238407	0.956137
C102	C	1.290156	-0.223978	0.794584
N103	N	1.331755	-0.182097	0.760405
