data_functionalizedCrystal
_audit_creation_method	'MofGen! by Chris Wilmer'
_symmetry_space_group_name_H-M	'P1'
_symmetry_Int_Tables_number	1
_symmetry_cell_setting	triclinic
loop_
_symmetry_equiv_pos_as_xyz
  x,y,z
_cell_length_a	15.944551
_cell_length_b	14.971487
_cell_length_c	14.048226
_cell_angle_alpha	90.005694
_cell_angle_beta	89.998030
_cell_angle_gamma	96.443430
loop_
_atom_site_label
_atom_site_type_symbol
_atom_site_fract_x
_atom_site_fract_y
_atom_site_fract_z
O1	O	1.114636	-0.115362	-0.079060
O2	O	0.870100	-0.129584	-0.079083
O3	O	0.998922	0.007734	-0.079066
O4	O	0.985814	-0.252680	-0.079077
O5	O	0.998907	0.007742	0.079255
O6	O	0.870085	-0.129576	0.079238
O7	O	1.114621	-0.115354	0.079262
Zn8	Zn	0.992350	-0.122464	0.104387
Zn9	Zn	0.992371	-0.122474	-0.104208
O10	O	0.985799	-0.252672	0.079245
C11	C	0.838798	-0.128990	0.000074
C12	C	0.745550	-0.127220	0.000065
C13	C	0.998328	0.041062	0.000093
C14	C	0.996571	0.140357	0.000091
N15	N	0.992343	-0.122456	0.246747
C16	C	0.530608	-0.037872	0.000087
C17	C	0.469636	-0.079366	-0.077975
C18	C	0.574821	-0.124017	0.000077
C19	C	0.469642	-0.079379	0.078117
C20	C	0.409906	-0.120918	0.000092
C21	C	0.515077	-0.165535	-0.078050
C22	C	0.515090	-0.165535	0.078113
C23	C	0.454135	-0.207092	0.000031
C24	C	0.669825	-0.125801	0.000067
C25	C	0.314903	-0.119141	0.000095
C26	C	1.145923	-0.115948	0.000102
C27	C	1.239171	-0.117718	0.000104
C28	C	1.072251	0.197664	0.000098
C29	C	1.070595	0.290962	0.000086
C30	C	0.993259	0.326951	0.000075
C31	C	0.917573	0.269636	0.000065
C32	C	0.919230	0.176341	0.000069
C33	C	0.914125	0.464095	0.000058
C34	C	0.912468	0.557397	0.000055
C35	C	1.065490	0.578716	0.000074
C36	C	1.067147	0.485421	0.000079
C37	C	0.991461	0.428113	0.000071
C38	C	0.986392	0.714000	0.000078
C39	C	0.988148	0.614704	0.000062
N40	N	0.992385	-0.122475	-0.246569
C41	C	1.049403	-0.061676	0.296573
C42	C	1.049409	-0.061676	0.396231
C43	C	0.992357	-0.122460	0.446061
C44	C	0.935291	-0.183242	0.396228
C45	C	0.935282	-0.183238	0.296573
C46	C	0.935315	-0.183249	0.603943
C47	C	0.935325	-0.183255	0.703605
C48	C	1.049442	-0.061687	0.703601
C49	C	1.049433	-0.061682	0.603945
C50	C	0.992367	-0.122466	0.554119
H51	H	0.563873	0.033621	-0.000006
C52	C	1.218237	0.515860	0.000094
C53	C	1.152155	0.445859	0.000093
H54	H	1.270717	0.491434	0.000096
H55	H	1.214406	0.551810	0.055299
H56	H	1.214411	0.551800	-0.055122
H57	H	1.155978	0.409923	0.055313
H58	H	1.155989	0.409894	-0.055118
C59	C	0.387001	-0.088922	0.221391
C60	C	0.442469	-0.030173	0.167210
H61	H	0.370225	-0.058537	0.276385
H62	H	0.414510	-0.139181	0.240152
H63	H	0.338642	-0.108879	0.184382
H64	H	0.490831	-0.010222	0.204216
H65	H	0.414961	0.020102	0.148450
C66	C	1.162887	0.105134	0.081502
C67	C	1.157264	0.158113	0.000111
H68	H	1.215375	0.080725	0.081508
H69	H	1.118060	0.057652	0.081493
H70	H	1.159053	0.141103	0.136703
H71	H	1.161091	0.122142	-0.055091
H72	H	1.202103	0.205601	0.000110
H73	H	0.888817	-0.232729	0.256006
H74	H	0.888843	-0.232743	0.563378
C75	C	0.821018	-0.202576	0.508326
C76	C	0.872579	-0.250056	0.451004
H77	H	0.782307	-0.243827	0.542145
H78	H	0.790766	-0.165330	0.469461
H79	H	0.855014	-0.166380	0.552258
H80	H	0.838584	-0.286246	0.407067
H81	H	0.902834	-0.287317	0.489873
H82	H	0.449497	-0.042934	-0.143968
C83	C	0.917206	-0.304985	0.815654
C84	C	0.872606	-0.250066	0.758374
H85	H	0.878482	-0.346235	0.849458
H86	H	0.951185	-0.268794	0.859589
H87	H	0.952187	-0.337185	0.776754
H88	H	0.837629	-0.217861	0.797274
H89	H	0.838612	-0.286262	0.714433
C90	C	1.130905	0.731195	0.000049
C91	C	1.148687	0.641706	0.000068
H92	H	1.182266	0.770083	0.000040
H93	H	1.099200	0.742113	0.055252
H94	H	1.099200	0.742083	-0.055169
H95	H	1.180386	0.630817	0.055290
H96	H	1.180405	0.630784	-0.055140
H97	H	0.854605	0.298946	0.000049
C98	C	0.629794	-0.215855	-0.166466
C99	C	0.542108	-0.214682	-0.167246
H100	H	0.646482	-0.246189	-0.221536
H101	H	0.645708	-0.246247	-0.111111
H102	H	0.656659	-0.155920	-0.166240
H103	H	0.515243	-0.274618	-0.167466
H104	H	0.526185	-0.184292	-0.222617
C105	C	0.761378	0.526958	-0.000002
C106	C	0.827460	0.596959	0.000021
H107	H	0.708898	0.551384	-0.000032
H108	H	0.765185	0.491022	0.055209
H109	H	0.765228	0.491004	-0.055211
H110	H	0.823613	0.632909	0.055234
H111	H	0.823651	0.632910	-0.055196
H112	H	0.421045	-0.278659	-0.000015
H113	H	0.535250	-0.201938	0.144109
H114	H	1.095892	-0.012192	0.563373
H115	H	1.132221	0.337618	0.000094
H116	H	0.852494	0.417437	0.000048
H117	H	0.857604	0.129681	0.000063
H118	H	1.095864	-0.012183	0.256008
C119	C	1.067548	0.060051	0.508303
C120	C	1.112137	0.005135	0.450992
H121	H	1.106278	0.101302	0.542102
H122	H	1.033581	0.023857	0.552243
H123	H	1.032556	0.092249	0.469426
H124	H	1.147125	-0.027068	0.489870
H125	H	1.146119	0.041333	0.407046
C126	C	1.067575	0.060049	0.815669
C127	C	1.112169	0.005135	0.758360
H128	H	1.106303	0.101301	0.849471
H129	H	1.033608	0.023853	0.859607
H130	H	1.032583	0.092246	0.776790
H131	H	1.147157	-0.027067	0.797239
H132	H	1.146151	0.041336	0.714416
