data_functionalizedCrystal
_audit_creation_method	'MofGen! by Chris Wilmer'
_symmetry_space_group_name_H-M	'P1'
_symmetry_Int_Tables_number	1
_symmetry_cell_setting	triclinic
loop_
_symmetry_equiv_pos_as_xyz
  x,y,z
_cell_length_a	10.654545
_cell_length_b	14.971486
_cell_length_c	9.130313
_cell_angle_alpha	89.995272
_cell_angle_beta	89.996934
_cell_angle_gamma	84.048604
loop_
_atom_site_label
_atom_site_type_symbol
_atom_site_fract_x
_atom_site_fract_y
_atom_site_fract_z
O1	O	1.666495	0.125612	-0.121786
O2	O	1.300888	0.137585	-0.121792
O3	O	1.493491	0.001452	-0.121778
O4	O	1.473892	0.261745	-0.121799
O5	O	1.493477	0.001448	0.121821
O6	O	1.300874	0.137581	0.121807
O7	O	1.666482	0.125608	0.121813
Cu8	Cu	1.483677	0.131594	0.144053
Cu9	Cu	1.483693	0.131599	-0.144031
O10	O	1.473879	0.261741	0.121800
C11	C	1.254092	0.136705	0.000007
C12	C	1.114677	0.134077	0.000005
C13	C	1.049179	0.132838	0.132791
C14	C	0.918186	0.130354	0.132792
C15	C	0.918201	0.130353	-0.132793
C16	C	1.049192	0.132830	-0.132792
C17	C	1.492608	-0.031880	0.000021
C18	C	1.489981	-0.131191	0.000020
C19	C	1.603130	-0.187802	0.000022
C20	C	1.600655	-0.281115	0.000008
C21	C	1.485029	-0.317815	0.000000
C22	C	1.371871	-0.261197	-0.000007
C23	C	1.374348	-0.167886	-0.000003
C24	C	1.366717	-0.455687	-0.000012
C25	C	1.364240	-0.549005	-0.000014
C26	C	1.593024	-0.568916	-0.000002
C27	C	1.595500	-0.475605	0.000002
C28	C	1.482342	-0.418994	-0.000002
C29	C	1.713277	0.126488	0.000011
C30	C	1.852693	0.129116	0.000004
C31	C	1.474762	0.295073	-0.000003
C32	C	1.477389	0.394384	-0.000011
N33	N	1.483675	0.131590	0.346675
N34	N	1.483704	0.131596	-0.346654
C35	C	1.568988	0.071336	0.423333
C36	C	1.569001	0.071336	0.576670
C37	C	1.398382	0.191853	0.576678
C38	C	1.398365	0.191848	0.423343
H39	H	1.697286	-0.157929	0.000037
Br40	Br	1.282565	0.273620	0.319295
Br41	Br	1.138094	0.134501	-0.313016
H42	H	1.638452	0.022269	0.360914
H43	H	1.692792	-0.327204	0.000013
Br44	Br	1.752423	-0.425798	0.000008
H45	H	1.685161	-0.615015	-0.000003
Br46	Br	1.214948	-0.311003	-0.000041
H47	H	1.638469	0.022271	0.639081
H48	H	1.282210	-0.121793	-0.000005
Br49	Br	1.138048	0.134528	0.313014
Br50	Br	0.829326	0.128633	-0.313008
H51	H	1.274571	-0.409596	-0.000020
H52	H	1.270087	-0.578883	0.000004
H53	H	1.328926	0.240915	0.639116
H54	H	0.864863	0.129345	0.240920
