data_functionalizedCrystal
_audit_creation_method	'MofGen! by Chris Wilmer'
_symmetry_space_group_name_H-M	'P1'
_symmetry_Int_Tables_number	1
_symmetry_cell_setting	triclinic
loop_
_symmetry_equiv_pos_as_xyz
  x,y,z
_cell_length_a	10.654562
_cell_length_b	10.654550
_cell_length_c	9.730223
_cell_angle_alpha	89.999807
_cell_angle_beta	89.996961
_cell_angle_gamma	84.487503
loop_
_atom_site_label
_atom_site_type_symbol
_atom_site_fract_x
_atom_site_fract_y
_atom_site_fract_z
O1	O	1.667825	0.176469	-0.114377
O2	O	1.302348	0.193259	-0.114359
O3	O	1.493489	0.002125	-0.114363
O4	O	1.476683	0.367603	-0.114373
O5	O	1.493487	0.002130	0.114217
O6	O	1.302346	0.193264	0.114221
O7	O	1.667822	0.176474	0.114203
Zn8	Zn	1.485084	0.184870	0.150504
Zn9	Zn	1.485087	0.184863	-0.150660
O10	O	1.476681	0.367608	0.114207
C11	C	1.255549	0.192025	-0.000067
C12	C	1.116107	0.188327	-0.000060
C13	C	1.050575	0.186604	0.124528
C14	C	0.919553	0.183139	0.124505
C15	C	0.919605	0.183125	-0.124705
C16	C	1.050626	0.186581	-0.124681
C17	C	1.116056	0.188351	0.249149
C18	C	1.050524	0.186630	0.373747
C19	C	0.919501	0.183165	0.373724
C20	C	0.854011	0.181421	0.249103
C21	C	1.492254	-0.044671	-0.000075
C22	C	1.488563	-0.184114	-0.000079
C23	C	1.601103	-0.263595	-0.000081
C24	C	1.597627	-0.394615	-0.000090
C25	C	1.369059	-0.366662	-0.000091
C26	C	1.372537	-0.235644	-0.000092
C27	C	1.717129	-0.212064	-0.000068
C28	C	1.829680	-0.291546	-0.000068
C29	C	1.826203	-0.422567	-0.000077
C30	C	1.710176	-0.474106	-0.000087
C31	C	1.714621	0.177708	-0.000092
C32	C	1.854064	0.181406	-0.000108
C33	C	1.477916	0.414403	-0.000084
C34	C	1.481608	0.553847	-0.000088
N35	N	1.485091	0.184873	0.356040
N36	N	1.485089	0.184850	-0.356196
C37	C	1.569750	0.100268	0.427965
C38	C	1.569747	0.100253	0.571848
C39	C	1.400421	0.269459	0.571869
C40	C	1.400419	0.269467	0.427989
C41	C	1.654422	0.015674	0.356016
C42	C	1.739089	-0.068937	0.427940
C43	C	1.739086	-0.068952	0.571823
C44	C	1.654415	0.015644	0.643782
H45	H	1.222740	0.191176	0.249181
H46	H	1.719973	-0.105382	-0.000056
C47	C	1.308454	0.361468	0.350137
C48	C	1.234334	0.435581	0.443939
C49	C	1.149610	0.520356	0.372272
H50	H	1.255670	0.315947	0.294004
H51	H	1.354054	0.414243	0.294040
H52	H	1.188738	0.382814	0.500013
H53	H	1.287084	0.481130	0.500075
H54	H	1.195209	0.573130	0.316174
H55	H	1.096834	0.474824	0.316141
H56	H	1.099317	0.570659	0.435905
H57	H	1.654411	0.015616	0.760941
C58	C	1.121806	0.188324	0.508942
C59	C	1.210225	0.082471	0.516225
C60	C	1.275922	0.083996	0.640740
H61	H	1.064163	0.186737	0.583255
H62	H	1.164060	0.262749	0.514140
H63	H	1.167973	0.008066	0.511040
H64	H	1.267895	0.084036	0.441941
H65	H	1.318176	0.158421	0.645938
H66	H	1.218269	0.082412	0.715044
H67	H	1.335929	0.012184	0.645693
H68	H	1.280896	-0.170928	-0.000089
H69	H	1.274595	-0.408637	-0.000097
H70	H	1.654435	0.015682	0.238859
H71	H	0.866150	0.181753	0.475178
H72	H	1.331487	0.338334	0.630467
C73	C	1.955520	-0.235353	0.000005
C74	C	1.934482	-0.103601	0.000050
C75	C	2.050378	-0.051797	0.000134
H76	H	2.002007	-0.262423	-0.079686
H77	H	2.001916	-0.262502	0.079746
H78	H	1.888106	-0.076463	-0.079682
H79	H	1.888014	-0.076495	0.079736
H80	H	2.096775	-0.078945	0.079875
H81	H	2.096857	-0.078876	-0.079559
H82	H	2.036120	0.037602	0.000177
H83	H	1.917847	-0.487279	-0.000091
C84	C	1.830863	-0.161011	0.349925
C85	C	1.809381	-0.284607	0.384921
C86	C	1.893888	-0.369474	0.313085
H87	H	1.914848	-0.146766	0.373457
H88	H	1.818755	-0.148997	0.253914
H89	H	1.821499	-0.296616	0.480910
H90	H	1.725412	-0.298892	0.361386
H91	H	1.881780	-0.357460	0.217074
H92	H	1.977868	-0.355217	0.336622
H93	H	1.879316	-0.453343	0.336809
C94	C	0.848404	0.181504	-0.259957
C95	C	0.760040	0.287399	-0.267263
C96	C	0.694439	0.285963	-0.391846
H97	H	0.806106	0.107132	-0.265278
H98	H	0.906149	0.183092	-0.334199
H99	H	0.702302	0.285800	-0.193042
H100	H	0.802305	0.361788	-0.261966
H101	H	0.752184	0.287551	-0.466087
H102	H	0.652148	0.211587	-0.397155
H103	H	0.634484	0.357817	-0.396824
C104	C	1.830798	-0.160961	0.649988
C105	C	1.763242	-0.238505	0.732556
C106	C	1.847691	-0.323288	0.804563
H107	H	1.883495	-0.115443	0.706231
H108	H	1.881202	-0.211410	0.586570
H109	H	1.712859	-0.188062	0.795967
H110	H	1.710549	-0.284051	0.676347
H111	H	1.898095	-0.373737	0.741145
H112	H	1.900384	-0.277759	0.860799
H113	H	1.801866	-0.375919	0.860584
H114	H	0.747324	0.178596	0.249094
H115	H	1.103983	0.187989	-0.226132
H116	H	1.707355	-0.580794	-0.000110
