data_functionalizedCrystal
_audit_creation_method	'MofGen! by Chris Wilmer'
_symmetry_space_group_name_H-M	'P1'
_symmetry_Int_Tables_number	1
_symmetry_cell_setting	triclinic
loop_
_symmetry_equiv_pos_as_xyz
  x,y,z
_cell_length_a	6.817900
_cell_length_b	11.102244
_cell_length_c	11.102291
_cell_angle_alpha	91.948581
_cell_angle_beta	108.605752
_cell_angle_gamma	108.604870
loop_
_atom_site_label
_atom_site_type_symbol
_atom_site_fract_x
_atom_site_fract_y
_atom_site_fract_z
V1	V	-4.111532	-0.175854	-0.396256
O2	O	-4.070571	0.008434	-0.388716
O3	O	-4.088303	-0.348674	-0.393542
O4	O	-4.088317	-0.173157	-0.569078
O5	O	-4.070557	-0.168298	-0.211965
V6	V	-4.588635	-0.153810	-0.374213
O7	O	-4.386874	-0.224209	-0.444607
O8	O	-4.763492	-0.105455	-0.325862
O9	O	-4.388658	0.019009	-0.376927
O10	O	-4.746993	-0.338099	-0.381753
O11	O	-4.747007	-0.161367	-0.558504
O12	O	-4.388644	-0.156508	-0.201391
C13	C	-3.938612	-0.390803	-0.387290
C14	C	-4.001075	-0.532086	-0.386224
C15	C	-3.970245	-0.580316	-0.269343
C16	C	-4.028950	-0.713068	-0.268355
C17	C	-4.149305	-0.749350	-0.501140
C18	C	-4.090615	-0.616600	-0.502127
C19	C	-3.900751	-0.559369	-0.134946
C20	C	-3.959456	-0.692122	-0.133958
C21	C	-3.938629	-0.166912	-0.611202
C22	C	-4.001098	-0.165850	-0.752485
C23	C	-4.214452	-0.171689	-0.825333
C24	C	-4.273124	-0.170666	-0.958079
C25	C	-3.905068	-0.157969	-0.945118
C26	C	-3.846395	-0.158983	-0.812373
C27	C	-4.426950	-0.179025	-0.832818
C28	C	-4.485622	-0.178002	-0.965564
C29	C	-4.201691	0.061132	-0.383175
C30	C	-4.118469	0.202413	-0.384250
C31	C	-4.201674	-0.162757	-0.159261
C32	C	-4.118442	-0.163813	-0.017976
H33	H	-4.222213	-0.818177	-0.595504
H34	H	-4.522086	-0.087765	-0.994667
C35	C	-4.034036	-0.506541	-0.072180
C36	C	-4.288027	-0.557147	-0.129730
C37	C	-4.421309	-0.504318	-0.066968
C38	C	-4.300601	-0.400884	0.053343
C39	C	-4.046596	-0.350273	0.110900
C40	C	-3.913314	-0.403101	0.048138
H41	H	-4.377395	-0.633720	-0.218798
H42	H	-4.609341	-0.541785	-0.109576
H43	H	-4.399265	-0.361777	0.099803
H44	H	-3.957228	-0.273699	0.199968
H45	H	-3.725282	-0.365634	0.090746
C46	C	-4.453242	-0.062494	-0.769182
C47	C	-4.533706	0.032482	-0.852000
C48	C	-4.559994	0.149010	-0.788364
C49	C	-4.505819	0.170563	-0.641910
C50	C	-4.425350	0.075585	-0.559083
C51	C	-4.399061	-0.040944	-0.622719
H52	H	-4.573814	0.016530	-0.960421
H53	H	-4.619563	0.219319	-0.849678
H54	H	-4.525279	0.256824	-0.594803
H55	H	-4.385242	0.091537	-0.450662
H56	H	-4.339493	-0.111253	-0.561405
H57	H	-4.115740	-0.577338	-0.597303
H58	H	-3.715232	-0.506566	-0.088529
H59	H	-4.629316	-0.269896	-1.018409
H60	H	-4.101857	-0.731921	-0.096966
C61	C	-3.754106	-0.723234	-0.057325
C62	C	-3.628338	-0.664600	0.085219
C63	C	-3.423000	-0.695715	0.161846
C64	C	-3.343429	-0.785464	0.095930
C65	C	-3.469199	-0.844104	-0.046622
C66	C	-3.674537	-0.812989	-0.123250
H67	H	-3.687239	-0.598157	0.134021
H68	H	-3.329897	-0.652305	0.267373
H69	H	-3.191426	-0.808497	0.152654
H70	H	-3.410298	-0.910546	-0.095424
H71	H	-3.767640	-0.856398	-0.228776
H72	H	-3.672667	-0.154230	-0.753065
C73	C	-4.555812	-0.307060	-0.799756
C74	C	-4.809556	-0.353218	-0.844200
C75	C	-4.938411	-0.481255	-0.811140
C76	C	-4.813522	-0.563135	-0.733634
C77	C	-4.559764	-0.516979	-0.689186
C78	C	-4.430909	-0.388941	-0.722246
H79	H	-4.902019	-0.292604	-0.901578
H80	H	-5.126260	-0.515423	-0.844044
H81	H	-4.908908	-0.657916	-0.709161
H82	H	-4.467300	-0.577592	-0.631808
H83	H	-4.243060	-0.354774	-0.689342
H84	H	-3.779121	-0.152376	-0.993895
