data_functionalizedCrystal
_audit_creation_method	'MofGen! by Chris Wilmer'
_symmetry_space_group_name_H-M	'P1'
_symmetry_Int_Tables_number	1
_symmetry_cell_setting	triclinic
loop_
_symmetry_equiv_pos_as_xyz
  x,y,z
_cell_length_a	21.295411
_cell_length_b	21.295418
_cell_length_c	16.959454
_cell_angle_alpha	90.035890
_cell_angle_beta	89.986811
_cell_angle_gamma	89.956262
loop_
_atom_site_label
_atom_site_type_symbol
_atom_site_fract_x
_atom_site_fract_y
_atom_site_fract_z
Zn1	Zn	-0.356271	0.962401	-0.314438
Zn2	Zn	-0.106271	1.212401	-0.064438
Zn3	Zn	0.143729	1.462401	0.185562
Zn4	Zn	0.393729	1.712401	0.435562
Zn5	Zn	-0.251012	0.962323	-0.446599
Zn6	Zn	-0.001012	1.212323	-0.196599
Zn7	Zn	0.248988	1.462323	0.053401
Zn8	Zn	0.498988	1.712323	0.303401
Zn9	Zn	-0.250980	0.857125	-0.314475
Zn10	Zn	-0.000980	1.107125	-0.064475
Zn11	Zn	0.249020	1.357125	0.185525
Zn12	Zn	0.499020	1.607125	0.435525
Zn13	Zn	-0.356208	0.857113	-0.446615
Zn14	Zn	-0.106208	1.107113	-0.196615
Zn15	Zn	0.143792	1.357113	0.053385
Zn16	Zn	0.393792	1.607113	0.303385
O17	O	-0.303618	0.909741	-0.380532
O18	O	-0.053618	1.159741	-0.130532
O19	O	0.196382	1.409741	0.119468
O20	O	0.446382	1.659741	0.369468
O21	O	-0.342347	1.050480	-0.331947
O22	O	-0.092347	1.300480	-0.081947
O23	O	0.157653	1.550480	0.168053
O24	O	0.407653	1.800480	0.418053
O25	O	-0.162918	0.948340	-0.429082
O26	O	0.087082	1.198340	-0.179082
O27	O	0.337082	1.448340	0.070918
O28	O	0.587082	1.698340	0.320918
O29	O	-0.264961	0.871127	-0.203859
O30	O	-0.014961	1.121127	0.046141
O31	O	0.235039	1.371127	0.296141
O32	O	0.485039	1.621127	0.546141
O33	O	-0.265014	1.050423	-0.429046
O34	O	-0.015014	1.300423	-0.179046
O35	O	0.234986	1.550423	0.070954
O36	O	0.484986	1.800423	0.320954
O37	O	-0.342317	0.948474	-0.203832
O38	O	-0.092317	1.198474	0.046168
O39	O	0.157683	1.448474	0.296168
O40	O	0.407683	1.698474	0.546168
O41	O	-0.162895	0.871051	-0.332011
O42	O	0.087105	1.121051	-0.082011
O43	O	0.337105	1.371051	0.167989
O44	O	0.587105	1.621051	0.417989
O45	O	-0.264900	0.769034	-0.332026
O46	O	-0.014900	1.019034	-0.082026
O47	O	0.235100	1.269034	0.167974
O48	O	0.485100	1.519034	0.417974
O49	O	-0.444306	0.871108	-0.429072
O50	O	-0.194306	1.121108	-0.179072
O51	O	0.055694	1.371108	0.070928
O52	O	0.305694	1.621108	0.320928
O53	O	-0.342210	0.769025	-0.429108
O54	O	-0.092210	1.019025	-0.179108
O55	O	0.157790	1.269025	0.070892
O56	O	0.407790	1.519025	0.320892
O57	O	-0.444352	0.948463	-0.331963
O58	O	-0.194352	1.198463	-0.081963
O59	O	0.055648	1.448463	0.168037
O60	O	0.305648	1.698463	0.418037
O61	O	-0.264953	0.948329	-0.557212
O62	O	-0.014953	1.198329	-0.307212
O63	O	0.235047	1.448329	-0.057212
O64	O	0.485047	1.698329	0.192788
O65	O	-0.342240	0.871032	-0.557224
O66	O	-0.092240	1.121032	-0.307224
O67	O	0.157760	1.371032	-0.057224
O68	O	0.407760	1.621032	0.192776
C69	C	-0.303545	0.746189	-0.380573
C70	C	-0.053545	0.996189	-0.130573
C71	C	0.196455	1.246189	0.119427
C72	C	0.446455	1.496189	0.369427
C73	C	-0.303529	0.676221	-0.380610
C74	C	-0.053529	0.926221	-0.130610
C75	C	0.196471	1.176221	0.119390
C76	C	0.446471	1.426221	0.369390
C77	C	-0.343724	0.643366	-0.431228
C78	C	-0.093724	0.893366	-0.181228
C79	C	0.156276	1.143366	0.068772
C80	C	0.406276	1.393366	0.318772
C81	C	-0.343753	0.577624	-0.431208
C82	C	-0.093753	0.827624	-0.181208
C83	C	0.156247	1.077624	0.068792
C84	C	0.406247	1.327624	0.318792
C85	C	-0.303574	0.544738	-0.380579
C86	C	-0.053574	0.794738	-0.130579
C87	C	0.196426	1.044738	0.119421
C88	C	0.446426	1.294738	0.369421
C89	C	-0.263376	0.577601	-0.329952
C90	C	-0.013376	0.827601	-0.079952
C91	C	0.236624	1.077601	0.170048
C92	C	0.486624	1.327601	0.420048
C93	C	-0.263354	0.643342	-0.329967
C94	C	-0.013354	0.893342	-0.079967
C95	C	0.236646	1.143342	0.170033
C96	C	0.486646	1.393342	0.420033
N97	N	-0.248516	0.441461	-0.374393
N98	N	0.001484	0.691461	-0.124393
N99	N	0.251484	0.941461	0.125607
N100	N	0.501484	1.191461	0.375607
N101	N	-0.248539	0.379010	-0.374383
N102	N	0.001461	0.629010	-0.124383
N103	N	0.251461	0.879010	0.125617
N104	N	0.501461	1.129010	0.375617
C105	C	-0.303641	0.346664	-0.380529
C106	C	-0.053641	0.596664	-0.130529
C107	C	0.196359	0.846664	0.119471
C108	C	0.446359	1.096664	0.369471
N109	N	-0.358720	0.379128	-0.386701
N110	N	-0.108720	0.629128	-0.136701
N111	N	0.141280	0.879128	0.113299
N112	N	0.391280	1.129128	0.363299
N113	N	-0.358696	0.441585	-0.386715
N114	N	-0.108696	0.691585	-0.136715
N115	N	0.141304	0.941585	0.113285
N116	N	0.391304	1.191585	0.363285
C117	C	-0.303595	0.473453	-0.380557
C118	C	-0.053595	0.723453	-0.130557
C119	C	0.196405	0.973453	0.119443
C120	C	0.446405	1.223453	0.369443
C121	C	-0.343871	0.242524	-0.431128
C122	C	-0.093871	0.492524	-0.181128
C123	C	0.156129	0.742524	0.068872
C124	C	0.406129	0.992524	0.318872
C125	C	-0.343900	0.176780	-0.431103
C126	C	-0.093900	0.426780	-0.181103
C127	C	0.156100	0.676780	0.068897
C128	C	0.406100	0.926780	0.318897
C129	C	-0.263518	0.176758	-0.329851
C130	C	-0.013518	0.426758	-0.079851
C131	C	0.236482	0.676758	0.170149
C132	C	0.486482	0.926758	0.420149
C133	C	-0.263494	0.242501	-0.329872
C134	C	-0.013494	0.492501	-0.079872
C135	C	0.236506	0.742501	0.170128
C136	C	0.486506	0.992501	0.420128
C137	C	-0.303670	0.275379	-0.380515
C138	C	-0.053670	0.525379	-0.130515
C139	C	0.196330	0.775379	0.119485
C140	C	0.446330	1.025379	0.369485
C141	C	-0.467808	0.909793	-0.380515
C142	C	-0.217808	1.159793	-0.130515
C143	C	0.032192	1.409793	0.119485
C144	C	0.282192	1.659793	0.369485
C145	C	-0.537776	0.909815	-0.380508
C146	C	-0.287776	1.159815	-0.130508
C147	C	-0.037776	1.409815	0.119492
C148	C	0.212224	1.659815	0.369492
C149	C	-0.570668	0.950092	-0.329941
C150	C	-0.320668	1.200092	-0.079941
C151	C	-0.070668	1.450092	0.170059
C152	C	0.179332	1.700092	0.420059
C153	C	-0.636410	0.950091	-0.329906
C154	C	-0.386410	1.200091	-0.079906
C155	C	-0.136410	1.450091	0.170094
C156	C	0.113590	1.700091	0.420094
C157	C	-0.669259	0.909820	-0.380453
C158	C	-0.419259	1.159820	-0.130453
C159	C	-0.169259	1.409820	0.119547
C160	C	0.080741	1.659820	0.369547
C161	C	-0.636359	0.869535	-0.431024
C162	C	-0.386359	1.119535	-0.181024
C163	C	-0.136359	1.369535	0.068976
C164	C	0.113641	1.619535	0.318976
C165	C	-0.570618	0.869533	-0.431052
C166	C	-0.320618	1.119533	-0.181052
C167	C	-0.070618	1.369533	0.068948
C168	C	0.179382	1.619533	0.318948
N169	N	-0.772481	0.904973	-0.449602
N170	N	-0.522481	1.154973	-0.199602
N171	N	-0.272481	1.404973	0.050398
N172	N	-0.022481	1.654973	0.300398
N173	N	-0.834932	0.904979	-0.449574
N174	N	-0.584932	1.154979	-0.199574
N175	N	-0.334932	1.404979	0.050426
N176	N	-0.084932	1.654979	0.300426
C177	C	-0.867334	0.909824	-0.380373
C178	C	-0.617334	1.159824	-0.130373
C179	C	-0.367334	1.409824	0.119627
C180	C	-0.117334	1.659824	0.369627
N181	N	-0.834924	0.914675	-0.311201
N182	N	-0.584924	1.164675	-0.061201
N183	N	-0.334924	1.414675	0.188799
N184	N	-0.084924	1.664675	0.438799
N185	N	-0.772467	0.914672	-0.311230
N186	N	-0.522467	1.164672	-0.061230
N187	N	-0.272467	1.414672	0.188770
N188	N	-0.022467	1.664672	0.438770
C189	C	-0.740544	0.909818	-0.380429
C190	C	-0.490544	1.159818	-0.130429
C191	C	-0.240544	1.409818	0.119571
C192	C	0.009456	1.659818	0.369571
C193	C	-0.971511	0.950102	-0.329765
C194	C	-0.721511	1.200102	-0.079765
C195	C	-0.471511	1.450102	0.170235
C196	C	-0.221511	1.700102	0.420235
C197	C	-1.037254	0.950097	-0.329729
C198	C	-0.787254	1.200097	-0.079729
C199	C	-0.537254	1.450097	0.170271
C200	C	-0.287254	1.700097	0.420271
C201	C	-1.037202	0.869544	-0.430854
C202	C	-0.787202	1.119544	-0.180854
C203	C	-0.537202	1.369544	0.069146
C204	C	-0.287202	1.619544	0.319146
C205	C	-0.971460	0.869546	-0.430883
C206	C	-0.721460	1.119546	-0.180883
C207	C	-0.471460	1.369546	0.069117
C208	C	-0.221460	1.619546	0.319117
C209	C	-0.938618	0.909828	-0.380339
C210	C	-0.688618	1.159828	-0.130339
C211	C	-0.438618	1.409828	0.119661
C212	C	-0.188618	1.659828	0.369661
C213	C	-0.140066	0.909725	-0.380491
C214	C	0.109934	1.159725	-0.130491
C215	C	0.359934	1.409725	0.119509
C216	C	0.609934	1.659725	0.369509
C217	C	-0.070098	0.909824	-0.380276
C218	C	0.179902	1.159824	-0.130276
C219	C	0.429902	1.409824	0.119724
C220	C	0.679902	1.659824	0.369724
C221	C	-0.303607	0.909688	-0.585898
C222	C	-0.053607	1.159688	-0.335898
C223	C	0.196393	1.409688	-0.085898
C224	C	0.446393	1.659688	0.164102
C225	C	-0.303623	0.909723	-0.673755
C226	C	-0.053623	1.159723	-0.423755
C227	C	0.196377	1.409723	-0.173755
C228	C	0.446377	1.659723	0.076245
C229	C	-0.303691	1.073931	-0.380491
C230	C	-0.053691	1.323931	-0.130491
C231	C	0.196309	1.573931	0.119509
C232	C	0.446309	1.823931	0.369509
C233	C	-0.303722	1.143899	-0.380473
C234	C	-0.053722	1.393899	-0.130473
C235	C	0.196278	1.643899	0.119527
C236	C	0.446278	1.893899	0.369527
C237	C	-0.343857	0.869550	-1.045266
C238	C	-0.093857	1.119550	-0.795266
C239	C	0.156143	1.369550	-0.545266
C240	C	0.406143	1.619550	-0.295266
C241	C	-0.263443	0.950106	-1.045194
C242	C	-0.013443	1.200106	-0.795194
C243	C	0.236557	1.450106	-0.545194
C244	C	0.486557	1.700106	-0.295194
C245	C	-0.263437	0.950084	-0.962648
C246	C	-0.013437	1.200084	-0.712648
C247	C	0.236563	1.450084	-0.462648
C248	C	0.486563	1.700084	-0.212648
C249	C	-0.303641	0.909794	-0.921407
C250	C	-0.053641	1.159794	-0.671407
C251	C	0.196359	1.409794	-0.421407
C252	C	0.446359	1.659794	-0.171407
C253	C	-0.343851	0.869526	-0.962713
C254	C	-0.093851	1.119526	-0.712713
C255	C	0.156149	1.369526	-0.462713
C256	C	0.406149	1.619526	-0.212713
C257	C	-0.223223	0.990347	-0.921337
C258	C	0.026777	1.240347	-0.671337
C259	C	0.276777	1.490347	-0.421337
C260	C	0.526777	1.740347	-0.171337
C261	C	-0.223215	0.990326	-0.838786
C262	C	0.026785	1.240326	-0.588786
C263	C	0.276785	1.490326	-0.338786
C264	C	0.526785	1.740326	-0.088786
C265	C	-0.263423	0.950039	-0.797544
C266	C	-0.013423	1.200039	-0.547544
C267	C	0.236577	1.450039	-0.297544
C268	C	0.486577	1.700039	-0.047544
C269	C	-0.303635	0.909769	-0.838854
C270	C	-0.053635	1.159769	-0.588854
C271	C	0.196365	1.409769	-0.338854
C272	C	0.446365	1.659769	-0.088854
C273	C	-0.343839	0.869479	-0.797613
C274	C	-0.093839	1.119479	-0.547613
C275	C	0.156161	1.369479	-0.297613
C276	C	0.406161	1.619479	-0.047613
C277	C	-0.384055	0.829213	-0.838922
C278	C	-0.134055	1.079213	-0.588922
C279	C	0.115945	1.329213	-0.338922
C280	C	0.365945	1.579213	-0.088922
C281	C	-0.384059	0.829238	-0.921470
C282	C	-0.134059	1.079238	-0.671470
C283	C	0.115941	1.329238	-0.421470
C284	C	0.365941	1.579238	-0.171470
C285	C	-0.263419	0.950013	-0.714995
C286	C	-0.013419	1.200013	-0.464995
C287	C	0.236581	1.450013	-0.214995
C288	C	0.486581	1.700013	0.035005
C289	C	-0.343833	0.869455	-0.715060
C290	C	-0.093833	1.119455	-0.465060
C291	C	0.156167	1.369455	-0.215060
C292	C	0.406167	1.619455	0.034940
C293	C	-0.303642	0.909811	-0.174363
C294	C	-0.053642	1.159811	0.075637
C295	C	0.196358	1.409811	0.325637
C296	C	0.446358	1.659811	0.575637
C297	C	-0.303653	0.909840	-0.086507
C298	C	-0.053653	1.159840	0.163493
C299	C	0.196347	1.409840	0.413493
C300	C	0.446347	1.659840	0.663493
H301	H	-0.376587	0.269295	-0.472361
H302	H	-0.126587	0.519295	-0.222361
H303	H	0.123413	0.769295	0.027639
H304	H	0.373413	1.019295	0.277639
H305	H	-0.230673	0.982795	-0.681366
H306	H	0.019327	1.232795	-0.431366
H307	H	0.269327	1.482795	-0.181366
H308	H	0.519327	1.732795	0.068634
H309	H	-0.663109	0.836744	-0.472178
H310	H	-0.413109	1.086744	-0.222178
H311	H	-0.163109	1.336744	0.027822
H312	H	0.086891	1.586744	0.277822
Cl313	Cl	-0.394234	0.684696	-0.494890
Cl314	Cl	-0.144234	0.934696	-0.244890
Cl315	Cl	0.105766	1.184696	0.005110
Cl316	Cl	0.355766	1.434696	0.255110
H317	H	-0.376636	0.150031	-0.472321
H318	H	-0.126636	0.400031	-0.222321
H319	H	0.123364	0.650031	0.027679
H320	H	0.373364	0.900031	0.277679
H321	H	-0.230622	0.670092	-0.288746
H322	H	0.019378	0.920092	-0.038746
H323	H	0.269378	1.170092	0.211254
H324	H	0.519378	1.420092	0.461254
Cl325	Cl	-0.529384	1.000729	-0.266395
Cl326	Cl	-0.279384	1.250729	-0.016395
Cl327	Cl	-0.029384	1.500729	0.233605
Cl328	Cl	0.220616	1.750729	0.483605
H329	H	-0.190470	1.023114	-0.805158
H330	H	0.059530	1.273114	-0.555158
H331	H	0.309530	1.523114	-0.305158
H332	H	0.559530	1.773114	-0.055158
Cl333	Cl	-0.172688	1.040998	-0.973185
Cl334	Cl	0.077312	1.290998	-0.723185
Cl335	Cl	0.327312	1.540998	-0.473185
Cl336	Cl	0.577312	1.790998	-0.223185
Cl337	Cl	-0.529266	0.818895	-0.494628
Cl338	Cl	-0.279266	1.068895	-0.244628
Cl339	Cl	-0.029266	1.318895	0.005372
Cl340	Cl	0.220734	1.568895	0.255372
Cl341	Cl	-0.394288	0.536312	-0.494848
Cl342	Cl	-0.144288	0.786312	-0.244848
Cl343	Cl	0.105712	1.036312	0.005152
Cl344	Cl	0.355712	1.286312	0.255152
Cl345	Cl	-0.394382	0.818804	-0.663221
Cl346	Cl	-0.144382	1.068804	-0.413221
Cl347	Cl	0.105618	1.318804	-0.163221
Cl348	Cl	0.355618	1.568804	0.086779
H349	H	-1.064034	0.982894	-0.288546
H350	H	-0.814034	1.232894	-0.038546
H351	H	-0.564034	1.482894	0.211454
H352	H	-0.314034	1.732894	0.461454
Cl353	Cl	-0.930221	1.000738	-0.266221
Cl354	Cl	-0.680221	1.250738	-0.016221
Cl355	Cl	-0.430221	1.500738	0.233779
Cl356	Cl	-0.180221	1.750738	0.483779
H357	H	-0.230664	0.550821	-0.288728
H358	H	0.019336	0.800821	-0.038728
H359	H	0.269336	1.050821	0.211272
H360	H	0.519336	1.300821	0.461272
H361	H	-0.230807	0.149984	-0.288624
H362	H	0.019193	0.399984	-0.038624
H363	H	0.269193	0.649984	0.211376
H364	H	0.519193	0.899984	0.461376
H365	H	-0.230760	0.269251	-0.288657
H366	H	0.019240	0.519251	-0.038657
H367	H	0.269240	0.769251	0.211343
H368	H	0.519240	1.019251	0.461343
Cl369	Cl	-1.078491	0.818911	-0.494393
Cl370	Cl	-0.828491	1.068911	-0.244393
Cl371	Cl	-0.578491	1.318911	0.005607
Cl372	Cl	-0.328491	1.568911	0.255607
H373	H	-0.944679	0.836752	-0.472065
H374	H	-0.694679	1.086752	-0.222065
H375	H	-0.444679	1.336752	0.027935
H376	H	-0.194679	1.586752	0.277935
H377	H	-0.416787	0.796405	-0.805334
H378	H	-0.166787	1.046405	-0.555334
H379	H	0.083213	1.296405	-0.305334
H380	H	0.333213	1.546405	-0.055334
H381	H	-0.416800	0.796455	-0.955111
H382	H	-0.166800	1.046455	-0.705111
H383	H	0.083200	1.296455	-0.455111
H384	H	0.333200	1.546455	-0.205111
H385	H	-0.663196	0.982888	-0.288724
H386	H	-0.413196	1.232888	-0.038724
H387	H	-0.163196	1.482888	0.211276
H388	H	0.086804	1.732888	0.461276
H389	H	-0.230706	0.982905	-1.078777
H390	H	0.019294	1.232905	-0.828777
H391	H	0.269294	1.482905	-0.578777
H392	H	0.519294	1.732905	-0.328777
Cl393	Cl	-0.394414	0.818935	-1.097194
Cl394	Cl	-0.144414	1.068935	-0.847194
Cl395	Cl	0.105586	1.318935	-0.597194
Cl396	Cl	0.355586	1.568935	-0.347194
