data_functionalizedCrystal
_audit_creation_method	'MofGen! by Chris Wilmer'
_symmetry_space_group_name_H-M	'P1'
_symmetry_Int_Tables_number	1
_symmetry_cell_setting	triclinic
loop_
_symmetry_equiv_pos_as_xyz
  x,y,z
_cell_length_a	27.354012
_cell_length_b	27.353283
_cell_length_c	27.349551
_cell_angle_alpha	60.005606
_cell_angle_beta	60.011434
_cell_angle_gamma	59.993282
loop_
_atom_site_label
_atom_site_type_symbol
_atom_site_fract_x
_atom_site_fract_y
_atom_site_fract_z
O1	O	0.067635	-0.714267	0.597330
O2	O	0.025429	-0.556105	0.481282
O3	O	0.125575	-0.656186	0.481214
O4	O	-0.032512	-0.614186	0.597397
O5	O	0.158797	-0.622968	0.514367
O6	O	0.058650	-0.522887	0.514434
O7	O	0.100856	-0.681048	0.630482
Zn8	Zn	0.085028	-0.596693	0.577722
Zn9	Zn	0.041257	-0.640460	0.534042
O10	O	0.000709	-0.580967	0.630549
N11	N	0.114901	-0.566828	0.607534
N12	N	0.011389	-0.670331	0.504229
C13	C	0.179404	-0.338196	0.672015
C14	C	0.179501	-0.502386	0.836160
C15	C	0.179415	-0.502363	0.671996
C16	C	0.343611	-0.502373	0.671960
C17	C	0.197478	-0.392371	0.690061
C18	C	0.197534	-0.484321	0.781984
C19	C	0.289434	-0.484312	0.690032
C20	C	0.197486	-0.484308	0.690051
C21	C	0.156398	-0.269238	0.649045
C22	C	0.156418	-0.525342	0.649015
C23	C	0.220484	-0.461329	0.713032
C24	C	0.443889	-0.485097	0.619172
C25	C	0.506571	-0.505993	0.598266
C26	C	0.506589	-0.607412	0.636940
C27	C	0.443909	-0.586515	0.657848
C28	C	0.171510	-0.237888	0.587422
C29	C	0.150593	-0.175201	0.566543
C30	C	0.099458	-0.175218	0.668913
C31	C	0.120375	-0.237905	0.689792
C32	C	0.094789	-0.510201	0.664176
C33	C	0.073888	-0.531091	0.643278
C34	C	0.176239	-0.582263	0.592072
C35	C	0.197142	-0.561373	0.612963
C36	C	0.094933	-0.510244	0.936476
C37	C	0.074073	-0.531151	0.999161
C38	C	0.176453	-0.582335	0.999126
C39	C	0.197312	-0.561429	0.936439
C40	C	0.156551	-0.525382	0.905116
C41	C	0.412561	-0.525357	0.648961
C42	C	-0.098513	-0.688235	0.485867
C43	C	-0.006461	-0.688368	0.394066
C44	C	-0.006645	-0.780264	0.486040
C45	C	-0.006630	-0.688361	0.486097
C46	C	-0.029562	-0.711308	0.463018
N47	N	0.537030	-0.566846	0.607436
O48	O	0.741877	-0.576849	0.459995
O49	O	0.742050	-0.693241	0.618010
O50	O	0.741986	-0.692977	0.517791
O51	O	0.741941	-0.577114	0.560214
O52	O	0.642405	-0.659839	0.551046
O53	O	0.642469	-0.660104	0.651265
O54	O	0.642296	-0.543712	0.493251
Zn55	Zn	0.626572	-0.596646	0.577538
Zn56	Zn	0.757774	-0.640307	0.533723
O57	O	0.642360	-0.543976	0.593469
N58	N	0.847316	-0.670107	0.503818
N59	N	0.114877	-0.144758	0.607577
O60	O	-0.032498	0.060193	0.597441
O61	O	0.125523	0.060193	0.481067
O62	O	0.025289	0.060179	0.481345
O63	O	0.067736	0.060207	0.597163
O64	O	0.058511	-0.039410	0.514543
O65	O	0.158745	-0.039397	0.514265
O66	O	0.000724	-0.039396	0.630638
Zn67	Zn	0.085009	-0.055208	0.577722
Zn68	Zn	0.041238	0.076005	0.533983
O69	O	0.100958	-0.039382	0.630360
N70	N	0.011362	0.165555	0.504130
N71	N	0.115121	-0.566884	1.029592
O72	O	0.104990	-0.714248	1.234528
O73	O	-0.011371	-0.556177	1.234539
O74	O	-0.011103	-0.656395	1.234497
O75	O	0.104722	-0.614030	1.234569
O76	O	0.022090	-0.623190	1.134913
O77	O	0.021822	-0.522972	1.134954
O78	O	0.138182	-0.681044	1.134943
Zn79	Zn	0.085272	-0.596736	1.119137
Zn80	Zn	0.041539	-0.640484	1.250344
O81	O	0.137914	-0.580826	1.134984
N82	N	0.011689	-0.670343	1.339890
C83	C	0.038085	-0.519567	0.481870
C84	C	0.162104	-0.643505	0.481786
C85	C	0.088200	-0.717587	0.629893
C86	C	-0.035819	-0.593649	0.629977
C87	C	0.692280	-0.692701	0.654545
C88	C	0.692203	-0.692374	0.530435
C89	C	0.692063	-0.544251	0.456717
C90	C	0.692144	-0.544580	0.580825
C91	C	0.162000	0.010521	0.481600
C92	C	0.037914	0.010381	0.481984
C93	C	-0.035795	0.010399	0.630065
C94	C	0.088333	0.010415	0.629722
C95	C	-0.010799	-0.519660	1.184747
C96	C	-0.010461	-0.643761	1.184677
C97	C	0.137610	-0.717561	1.184734
C98	C	0.137280	-0.593452	1.184783
H99	H	0.061737	-0.480889	0.910978
H100	H	-0.081177	0.010398	0.666600
O101	O	0.181250	-0.771673	1.184625
C102	C	0.231707	-0.763786	1.133069
H103	H	0.217278	-0.719936	1.097022
H104	H	0.265499	-0.762416	1.144750
C105	C	0.278390	-0.870111	1.153939
C106	C	0.260667	-0.816256	1.109664
H107	H	0.296256	-0.902478	1.139503
H108	H	0.244398	-0.875426	1.188675
H109	H	0.306547	-0.868961	1.163669
H110	H	0.232505	-0.817404	1.099939
H111	H	0.294656	-0.810943	1.074925
H112	H	0.029071	-0.474132	0.445424
H113	H	0.207509	-0.652460	0.445301
H114	H	0.173667	-0.584388	1.184797
H115	H	0.692005	-0.507708	0.411338
H116	H	-0.081227	-0.584696	0.666460
H117	H	-0.046832	-0.652809	1.184615
O118	O	0.692194	-0.735723	0.519519
C119	C	0.692159	-0.713915	0.460662
H120	H	0.673266	-0.662911	0.444924
H121	H	0.739923	-0.729035	0.429662
C122	C	0.676323	-0.801212	0.478836
C123	C	0.653114	-0.738568	0.459508
H124	H	0.652241	-0.816420	0.478122
H125	H	0.676349	-0.815906	0.518488
H126	H	0.716126	-0.813804	0.452999
H127	H	0.613315	-0.725977	0.485348
H128	H	0.653080	-0.723872	0.419860
H129	H	0.023897	-0.518815	1.024687
H130	H	0.207290	0.010797	0.444973
O131	O	0.216130	-0.617363	1.029460
C132	C	0.274990	-0.626229	0.988340
H133	H	0.274853	-0.619211	0.943657
H134	H	0.292947	-0.592871	0.981678
C135	C	0.315379	-0.699074	1.067658
C136	C	0.315212	-0.690460	1.012780
H137	H	0.340192	-0.738694	1.082735
H138	H	0.275725	-0.693100	1.095363
H139	H	0.330343	-0.671272	1.062100
H140	H	0.300242	-0.718257	1.018340
H141	H	0.354865	-0.696440	0.985077
H142	H	-0.047330	-0.474261	1.184750
O143	O	0.257166	-0.576206	0.905951
C144	C	0.272299	-0.607744	0.869675
H145	H	0.236967	-0.628956	0.888570
H146	H	0.274357	-0.575506	0.822173
C147	C	0.377172	-0.631039	0.845485
C148	C	0.333780	-0.657095	0.868695
H149	H	0.415098	-0.661479	0.844878
H150	H	0.366977	-0.609789	0.869923
H151	H	0.378880	-0.604174	0.805902
H152	H	0.332067	-0.683953	0.908279
H153	H	0.343976	-0.678351	0.844263
H154	H	0.097215	-0.763020	0.666340
H155	H	0.692323	-0.729239	0.699929
H156	H	0.028825	0.010378	0.445599
H157	H	0.692134	-0.508185	0.589902
H158	H	0.023705	-0.518748	0.655609
O159	O	0.055148	-0.475181	0.699163
C160	C	-0.003728	-0.466306	0.708068
H161	H	-0.003634	-0.473303	0.670277
H162	H	-0.021668	-0.499673	0.752721
C163	C	-0.044052	-0.393491	0.754943
C164	C	-0.043937	-0.402081	0.708524
H165	H	-0.068855	-0.353875	0.755227
H166	H	-0.004386	-0.399472	0.748946
H167	H	-0.059000	-0.421301	0.792149
H168	H	-0.028982	-0.374276	0.671319
H169	H	-0.083601	-0.396094	0.714515
O170	O	0.099232	0.010309	0.673152
C171	C	0.147739	-0.041262	0.686889
H172	H	0.152451	-0.077310	0.673734
H173	H	0.190665	-0.029600	0.661054
C174	C	0.130585	-0.020378	0.770720
C175	C	0.136369	-0.064655	0.754568
H176	H	0.123574	-0.034807	0.812467
H177	H	0.097907	0.014368	0.761465
H178	H	0.166359	-0.010663	0.749186
H179	H	0.100593	-0.074363	0.776096
H180	H	0.169042	-0.099403	0.763828
O181	O	0.215830	-0.617177	0.556967
C182	C	0.252056	-0.585522	0.504403
H183	H	0.227838	-0.535371	0.495701
H184	H	0.296101	-0.598870	0.510090
C185	C	0.294587	-0.662256	0.461746
C186	C	0.264840	-0.600659	0.451055
H187	H	0.302476	-0.671595	0.428838
H188	H	0.270183	-0.683584	0.497160
H189	H	0.331289	-0.673372	0.466486
H190	H	0.228136	-0.589546	0.446322
H191	H	0.289239	-0.579329	0.415638
O192	O	0.256989	-0.576003	0.598274
C193	C	0.266707	-0.549852	0.624459
H194	H	0.225572	-0.509613	0.633926
H195	H	0.275087	-0.584152	0.668178
C196	C	0.372093	-0.578730	0.569591
C197	C	0.321572	-0.529305	0.581214
H198	H	0.405938	-0.566058	0.542917
H199	H	0.365547	-0.596351	0.551951
H200	H	0.379069	-0.607309	0.606027
H201	H	0.314593	-0.500731	0.544780
H202	H	0.328119	-0.511679	0.598847
O203	O	0.413510	-0.625639	0.686686
C204	C	0.428831	-0.654999	0.648320
H205	H	0.446035	-0.626452	0.599795
H206	H	0.465232	-0.700236	0.658413
C207	C	0.352022	-0.699588	0.717924
C208	C	0.373148	-0.664523	0.658325
H209	H	0.317675	-0.705466	0.724097
H210	H	0.341701	-0.679809	0.743773
H211	H	0.382362	-0.737281	0.726328
H212	H	0.342811	-0.626828	0.649924
H213	H	0.383462	-0.684296	0.632475
O214	O	0.537107	-0.666816	0.645602
C215	C	0.573377	-0.688544	0.679696
H216	H	0.582764	-0.649848	0.674786
H217	H	0.549241	-0.710139	0.728819
C218	C	0.621388	-0.782905	0.663245
C219	C	0.632922	-0.735379	0.657210
H220	H	0.658117	-0.811797	0.649377
H221	H	0.596951	-0.768268	0.640277
H222	H	0.601273	-0.800894	0.704182
H223	H	0.653029	-0.717386	0.616273
H224	H	0.657363	-0.750014	0.680171
O225	O	0.536916	-0.466801	0.569314
C226	C	0.495808	-0.408341	0.565966
H227	H	0.451118	-0.405895	0.570086
H228	H	0.489163	-0.396639	0.603941
C229	C	0.575135	-0.366599	0.500386
C230	C	0.520248	-0.363593	0.505440
H231	H	0.590212	-0.338995	0.463052
H232	H	0.602831	-0.405984	0.502643
H233	H	0.569591	-0.356848	0.532036
H234	H	0.525795	-0.373351	0.473796
H235	H	0.492554	-0.324208	0.503177
H236	H	0.200842	-0.263395	0.554238
O237	O	0.413409	-0.425679	0.610465
C238	C	0.377120	-0.403957	0.576394
H239	H	0.396000	-0.434416	0.549601
H240	H	0.329621	-0.403233	0.607610
C241	C	0.352950	-0.302650	0.566107
C242	C	0.376141	-0.340058	0.533196
H243	H	0.352343	-0.263233	0.539462
H244	H	0.377397	-0.317284	0.589064
H245	H	0.313370	-0.302054	0.592119
H246	H	0.415723	-0.340659	0.507190
H247	H	0.351701	-0.325422	0.510234
H248	H	0.070133	-0.149706	0.702094
O249	O	0.165346	-0.144836	0.506660
C250	C	0.201614	-0.185934	0.475174
H251	H	0.224427	-0.230621	0.505058
H252	H	0.172686	-0.192602	0.461670
C253	C	0.221472	-0.106572	0.381952
C254	C	0.249496	-0.161455	0.418654
H255	H	0.251006	-0.091471	0.347086
H256	H	0.197035	-0.078882	0.403164
H257	H	0.197366	-0.112136	0.370705
H258	H	0.273594	-0.155889	0.429907
H259	H	0.273937	-0.189143	0.397443
H260	H	0.108067	-0.263426	0.739970
