data_functionalizedCrystal
_audit_creation_method	'MofGen! by Chris Wilmer'
_symmetry_space_group_name_H-M	'P1'
_symmetry_Int_Tables_number	1
_symmetry_cell_setting	triclinic
loop_
_symmetry_equiv_pos_as_xyz
  x,y,z
_cell_length_a	14.971486
_cell_length_b	10.540539
_cell_length_c	14.048226
_cell_angle_alpha	89.995726
_cell_angle_beta	89.998499
_cell_angle_gamma	84.069810
loop_
_atom_site_label
_atom_site_type_symbol
_atom_site_fract_x
_atom_site_fract_y
_atom_site_fract_z
O1	O	1.187879	0.165423	-0.079046
O2	O	0.927591	0.185233	-0.079072
O3	O	1.063673	-0.009446	-0.079057
O4	O	1.051796	0.360102	-0.079061
O5	O	1.063657	-0.009457	0.079264
O6	O	0.927574	0.185221	0.079249
O7	O	1.187862	0.165412	0.079275
Zn8	Zn	1.057716	0.175315	0.104399
Zn9	Zn	1.057737	0.175330	-0.104196
O10	O	1.051780	0.360090	0.079260
C11	C	0.894253	0.184341	0.000085
C12	C	0.794940	0.181686	0.000076
C13	C	0.738360	0.296055	0.000076
C14	C	0.645046	0.293553	0.000090
C15	C	0.608315	0.176681	0.000097
C16	C	0.664903	0.062303	0.000100
C17	C	0.758215	0.064807	0.000092
C18	C	0.470412	0.057094	0.000113
C19	C	0.377093	0.054590	0.000119
C20	C	0.357242	0.285839	0.000111
C21	C	0.450554	0.288343	0.000103
C22	C	0.507136	0.173965	0.000104
C23	C	1.062774	-0.056745	0.000101
C24	C	1.060109	-0.197662	0.000096
C25	C	0.958001	-0.379931	-0.000269
C26	C	0.960702	-0.233343	0.000087
C27	C	1.107939	-0.259870	0.090510
C28	C	1.104547	-0.406376	0.090586
C29	C	1.106587	-0.406904	-0.089455
C30	C	1.107503	-0.259932	-0.090650
C31	C	1.221200	0.166303	0.000115
C32	C	1.320512	0.168958	0.000119
C33	C	1.052679	0.407389	0.000099
C34	C	1.055344	0.548307	0.000099
N35	N	1.057707	0.175303	0.246760
N36	N	1.057753	0.175331	-0.246557
C37	C	1.117984	0.089135	0.296584
C38	C	1.117990	0.089135	0.396242
C39	C	1.057723	0.175309	0.446073
C40	C	0.997440	0.261481	0.396242
C41	C	0.997430	0.261475	0.296586
C42	C	0.997466	0.261491	0.603956
C43	C	0.997476	0.261499	0.703619
C44	C	1.118025	0.089150	0.703612
C45	C	1.118016	0.089144	0.603956
C46	C	1.057733	0.175318	0.554132
H47	H	0.480457	0.383510	0.000088
H48	H	0.311169	0.378970	0.000114
N49	N	0.337463	-0.071454	0.000150
H50	H	0.299186	-0.077653	-0.058534
H51	H	0.387508	-0.143467	0.000197
H52	H	0.516479	-0.036045	0.000115
H53	H	0.768258	0.391225	0.000069
N54	N	0.932447	0.354440	0.550221
H55	H	0.966980	0.410720	0.508863
H56	H	0.892546	0.305747	0.508940
N57	N	0.625282	-0.063747	0.000119
H58	H	0.587007	-0.069939	-0.058568
H59	H	0.675333	-0.135750	0.000158
H60	H	0.598981	0.386683	0.000089
H61	H	0.804283	-0.028324	0.000092
H62	H	1.180941	-0.238344	0.093879
N63	N	0.910849	-0.176325	-0.085759
H64	H	0.886916	-0.246408	-0.124175
H65	H	0.859234	-0.113708	-0.064096
N66	N	0.905984	-0.417214	-0.086149
H67	H	0.945010	-0.480988	-0.125651
H68	H	0.850741	-0.456621	-0.064500
N69	N	0.906181	-0.419349	0.085122
H70	H	0.945486	-0.483490	0.124043
H71	H	0.887167	-0.341897	0.125418
N72	N	0.932471	0.354423	0.757379
H73	H	0.967012	0.410712	0.798714
H74	H	0.894286	0.408926	0.710644
H75	H	0.948365	0.331642	0.436820
H76	H	0.948346	0.331640	0.256020
H77	H	1.167109	0.018984	0.744185
N78	N	0.910494	-0.177451	0.086074
H79	H	0.846084	-0.197789	0.083288
H80	H	0.939788	-0.215259	0.145843
H81	H	1.069184	-0.434179	0.158165
H82	H	1.176039	-0.455156	0.094694
H83	H	1.074700	-0.216898	0.157786
H84	H	1.074421	-0.438087	-0.157982
H85	H	1.072506	-0.218672	-0.157536
H86	H	1.179979	-0.236533	-0.096103
H87	H	1.167064	0.018968	0.256018
N88	N	1.201697	-0.470530	-0.090258
H89	H	1.211582	-0.528093	-0.032927
H90	H	1.212054	-0.522727	-0.150274
N91	N	1.183034	-0.003774	0.449968
H92	H	1.172190	-0.093904	0.432636
H93	H	1.246562	0.011157	0.432569
N94	N	1.183022	-0.003790	0.550206
H95	H	1.221211	-0.058382	0.596889
H96	H	1.148418	-0.059989	0.508867
