data_functionalizedCrystal
_audit_creation_method	'MofGen! by Chris Wilmer'
_symmetry_space_group_name_H-M	'P1'
_symmetry_Int_Tables_number	1
_symmetry_cell_setting	triclinic
loop_
_symmetry_equiv_pos_as_xyz
  x,y,z
_cell_length_a	27.732064
_cell_length_b	14.853567
_cell_length_c	13.930277
_cell_angle_alpha	90.000757
_cell_angle_beta	90.000423
_cell_angle_gamma	96.857823
loop_
_atom_site_label
_atom_site_type_symbol
_atom_site_fract_x
_atom_site_fract_y
_atom_site_fract_z
O1	O	0.641426	-0.107341	-0.079652
O2	O	1.141426	0.392659	0.420348
O3	O	0.500710	-0.123635	-0.079691
O4	O	1.000710	0.376365	0.420309
O5	O	0.574826	0.015803	-0.079673
O6	O	1.074826	0.515803	0.420327
O7	O	0.567309	-0.246778	-0.079670
O8	O	1.067309	0.253222	0.420330
O9	O	0.574816	0.015805	0.079989
O10	O	1.074816	0.515805	0.579989
O11	O	0.500699	-0.123633	0.079971
O12	O	1.000699	0.376367	0.579971
O13	O	0.641415	-0.107338	0.080010
O14	O	1.141415	0.392662	0.580010
Zn15	Zn	0.571056	-0.115485	0.105340
Zn16	Zn	1.071056	0.384515	0.605340
Zn17	Zn	0.571069	-0.115488	-0.105021
Zn18	Zn	1.071069	0.384512	0.394979
O19	O	0.567299	-0.246776	0.079992
O20	O	1.067299	0.253224	0.579992
C21	C	0.482696	-0.123290	0.000135
C22	C	0.982696	0.376710	0.500135
C23	C	0.429037	-0.122253	0.000120
C24	C	0.929037	0.377747	0.500120
C25	C	0.051546	-0.032793	0.000174
C26	C	0.551546	0.467207	0.500174
C27	C	0.253224	-0.036609	0.000149
C28	C	0.753224	0.463391	0.500149
O29	O	0.284152	0.032808	0.000184
O30	O	0.784152	0.532808	0.500184
N31	N	0.272738	-0.119294	0.000146
N32	N	0.772738	0.380706	0.500146
C33	C	0.241829	-0.201029	0.000155
C34	C	0.741829	0.298971	0.500155
O35	O	0.263055	-0.271445	0.000162
O36	O	0.763055	0.228555	0.500162
C37	C	0.040152	-0.197212	0.000187
C38	C	0.540152	0.302788	0.500187
C39	C	0.020641	-0.114523	0.000180
C40	C	0.520641	0.385477	0.500180
C41	C	0.032034	0.049890	0.000168
C42	C	0.532034	0.549890	0.500168
C43	C	-0.018382	0.050843	0.000169
C44	C	0.481618	0.550843	0.500169
C45	C	-0.049287	-0.030887	0.000176
C46	C	0.450713	0.469113	0.500176
C47	C	-0.029776	-0.113570	0.000181
C48	C	0.470224	0.386430	0.500181
C49	C	0.009244	-0.278947	0.000203
C50	C	0.509244	0.221053	0.500203
C51	C	-0.041178	-0.277985	0.000214
C52	C	0.458822	0.222015	0.500214
C53	C	-0.060689	-0.195296	0.000207
C54	C	0.439311	0.304704	0.500207
C55	C	-0.111097	-0.194346	0.000189
C56	C	0.388903	0.305654	0.500189
N57	N	-0.130611	-0.111662	0.000192
N58	N	0.369389	0.388338	0.500192
C59	C	-0.099706	-0.029932	0.000185
C60	C	0.400294	0.470068	0.500185
C61	C	0.347713	-0.203028	0.000137
C62	C	0.847713	0.296972	0.500137
C63	C	0.398132	-0.203982	0.000127
C64	C	0.898132	0.296018	0.500127
C65	C	0.409523	-0.039562	0.000122
C66	C	0.909523	0.460438	0.500122
C67	C	0.359103	-0.038608	0.000125
C68	C	0.859103	0.461392	0.500125
C69	C	0.328199	-0.120344	0.000140
C70	C	0.828199	0.379656	0.500140
C71	C	-0.205585	-0.027937	0.000187
C72	C	0.294415	0.472063	0.500187
C73	C	-0.256007	-0.026991	0.000184
C74	C	0.243993	0.473009	0.500184
C75	C	-0.267394	-0.191411	0.000193
C76	C	0.232606	0.308589	0.500193
C77	C	-0.216977	-0.192357	0.000191
C78	C	0.283023	0.307643	0.500191
C79	C	-0.186073	-0.110613	0.000191
C80	C	0.313927	0.389387	0.500191
O81	O	-0.142054	-0.263727	0.000165
O82	O	0.357946	0.236273	0.500165
O83	O	-0.120941	0.040473	0.000200
O84	O	0.379059	0.540473	0.500200
C85	C	0.101962	-0.033746	0.000173
C86	C	0.601962	0.466254	0.500173
C87	C	0.121474	-0.116429	0.000178
C88	C	0.621474	0.383571	0.500178
C89	C	0.090569	-0.198159	0.000185
C90	C	0.590569	0.301841	0.500185
C91	C	0.171893	-0.117384	0.000169
C92	C	0.671893	0.382616	0.500169
C93	C	0.202798	-0.035654	0.000162
C94	C	0.702798	0.464346	0.500162
C95	C	0.183284	0.047030	0.000165
C96	C	0.683284	0.547030	0.500165
C97	C	0.132867	0.047983	0.000166
C98	C	0.632867	0.547983	0.500166
C99	C	0.110083	-0.280843	0.000182
C100	C	0.610083	0.219157	0.500182
C101	C	0.160500	-0.281789	0.000180
C102	C	0.660500	0.218211	0.500180
C103	C	0.191405	-0.200060	0.000173
C104	C	0.691405	0.299940	0.500173
C105	C	0.574481	0.049387	0.000155
C106	C	1.074481	0.549387	0.500155
C107	C	0.573460	0.149454	0.000146
C108	C	1.073460	0.649454	0.500146
C109	C	0.659429	-0.107683	0.000182
C110	C	1.159429	0.392317	0.500182
C111	C	0.713088	-0.108720	0.000190
C112	C	1.213088	0.391280	0.500190
C113	C	0.567644	-0.280360	0.000162
C114	C	1.067644	0.219640	0.500162
C115	C	0.568665	-0.380427	0.000164
C116	C	1.068665	0.119573	0.500164
N117	N	0.571050	-0.115482	0.248906
N118	N	1.071050	0.384518	0.748906
C119	C	0.525118	0.561207	0.000151
C120	C	1.025118	1.061207	0.500151
C121	C	0.613171	0.583911	0.000175
C122	C	1.113171	1.083911	0.500175
C123	C	0.614130	0.489893	0.000170
C124	C	1.114130	0.989893	0.500170
C125	C	0.570583	0.431527	0.000157
C126	C	1.070583	0.931527	0.500157
C127	C	0.526077	0.467180	0.000149
C128	C	1.026077	0.967180	0.500149
C129	C	0.658636	0.454232	0.000187
C130	C	1.158636	0.954232	0.500187
C131	C	0.659598	0.360209	0.000183
C132	C	1.159598	0.860209	0.500183
C133	C	0.616050	0.301842	0.000163
C134	C	1.116050	0.801842	0.500163
C135	C	0.571542	0.337500	0.000154
C136	C	1.071542	0.837500	0.500154
C137	C	0.527995	0.279134	0.000141
C138	C	1.027995	0.779134	0.500141
C139	C	0.483486	0.314791	0.000125
C140	C	0.983486	0.814791	0.500125
C141	C	0.482529	0.408813	0.000129
C142	C	0.982529	0.908813	0.500129
C143	C	0.617007	0.207820	0.000159
C144	C	1.117007	0.707820	0.500159
C145	C	0.528953	0.185107	0.000138
C146	C	1.028953	0.685107	0.500138
N147	N	0.571079	-0.115484	-0.248587
N148	N	1.071079	0.384516	0.251413
C149	C	0.538249	-0.177207	0.701168
C150	C	1.038249	0.322793	1.201168
C151	C	0.603903	-0.053762	0.701153
C152	C	1.103903	0.446238	1.201153
C153	C	0.603897	-0.053759	0.600657
C154	C	1.103897	0.446241	1.100657
C155	C	0.571067	-0.115482	0.550412
C156	C	1.071067	0.384518	1.050412
C157	C	0.538243	-0.177208	0.600663
C158	C	1.038243	0.322792	1.100663
C159	C	0.636724	0.007959	0.550398
C160	C	1.136724	0.507959	1.050398
C161	C	0.636720	0.007964	0.449897
C162	C	1.136720	0.507964	0.949897
C163	C	0.603887	-0.053756	0.399650
C164	C	1.103887	0.446244	0.899650
C165	C	0.571062	-0.115483	0.449907
C166	C	1.071062	0.384517	0.949907
C167	C	0.538232	-0.177207	0.399662
C168	C	1.038232	0.322793	0.899662
C169	C	0.505403	-0.238931	0.449917
C170	C	1.005403	0.261069	0.949917
C171	C	0.505411	-0.238928	0.550416
C172	C	1.005411	0.261072	1.050416
C173	C	0.603880	-0.053758	0.299151
C174	C	1.103880	0.446242	0.799151
C175	C	0.538226	-0.177207	0.299157
C176	C	1.038226	0.322793	0.799157
H177	H	0.057192	0.116447	0.000166
H178	H	0.557192	0.616447	0.500166
H179	H	0.446292	0.437853	0.000117
H180	H	0.946292	0.937853	0.500117
H181	H	0.478675	-0.289190	0.408996
H182	H	0.978675	0.210810	0.908996
H183	H	0.493491	0.137591	0.000123
H184	H	0.993491	0.637591	0.500123
H185	H	0.448030	0.267257	0.000121
H186	H	0.948030	0.767257	0.500121
O187	O	0.502847	-0.243783	0.755370
O188	O	1.002847	0.256217	1.255370
H189	H	0.509052	-0.313983	0.736071
H190	H	1.009052	0.186017	1.236071
H191	H	0.630610	-0.003508	0.258238
H192	H	1.130610	0.496492	0.758238
O193	O	0.639310	0.012804	0.755346
O194	O	1.139310	0.512804	1.255346
H195	H	0.676995	0.001792	0.736053
H196	H	1.176995	0.501792	1.236053
H197	H	0.116986	0.115317	0.000161
H198	H	0.616986	0.615317	0.500161
O199	O	0.338064	0.050581	0.000134
O200	O	0.838064	0.550581	0.500134
H201	H	0.315364	0.054958	-0.064938
H202	H	0.815364	0.554958	0.435062
H203	H	0.663450	0.058223	0.408985
H204	H	1.163450	0.558223	0.908985
H205	H	0.025121	-0.346282	0.000204
H206	H	0.525121	0.153718	0.500204
O207	O	-0.277052	0.062198	0.000189
O208	O	0.222948	0.562198	0.500189
H209	H	-0.247088	0.118867	0.000198
H210	H	0.252912	0.618867	0.500198
O211	O	0.216625	0.135180	0.000167
O212	O	0.716625	0.635180	0.500167
H213	H	0.209688	0.174787	-0.064910
H214	H	0.709688	0.674787	0.435090
O215	O	0.707603	0.321759	0.000177
O216	O	1.207603	0.821759	0.500177
H217	H	0.728532	0.345250	0.065252
H218	H	1.228532	0.845250	0.565252
H219	H	0.648625	0.631437	0.000194
H220	H	1.148625	1.131437	0.500194
H221	H	0.488880	0.590243	0.000135
H222	H	0.988880	1.090243	0.500135
H223	H	-0.034263	0.118177	0.000168
H224	H	0.465737	0.618177	0.500168
O225	O	0.672133	0.074528	0.604586
O226	O	1.172133	0.574528	1.104586
H227	H	0.666617	0.064165	0.682911
H228	H	1.166617	0.564165	1.182911
H229	H	0.434695	0.026985	0.000113
H230	H	0.934695	0.526985	0.500113
O231	O	-0.172257	0.060227	0.000180
O232	O	0.327743	0.560227	0.500180
H233	H	-0.194302	0.117875	0.000167
H234	H	0.305698	0.617875	0.500167
O235	O	0.419175	-0.293168	0.000135
O236	O	0.919175	0.206832	0.500135
H237	H	0.389210	-0.349834	0.000154
H238	H	0.889210	0.150166	0.500154
H239	H	0.176381	-0.349130	0.000178
H240	H	0.676381	0.150870	0.500178
H241	H	0.478684	-0.289182	0.591340
H242	H	0.978684	0.210818	1.091340
H243	H	0.694090	0.501760	0.000207
H244	H	1.194090	1.001760	0.500207
H245	H	0.322554	-0.269590	0.000147
H246	H	0.822554	0.230410	0.500147
O247	O	-0.300734	-0.279557	0.000216
O248	O	0.199266	0.220443	0.500216
H249	H	-0.323986	-0.283060	-0.064848
H250	H	0.176014	0.216940	0.435152
O251	O	0.076752	-0.368998	0.000185
O252	O	0.576752	0.131002	0.500185
H253	H	0.098797	-0.426646	0.000176
H254	H	0.598797	0.073354	0.500176
H255	H	-0.066338	-0.344546	0.000230
H256	H	0.433662	0.155454	0.500230
H257	H	0.653246	0.178792	0.000178
H258	H	1.153246	0.678792	0.500178
O259	O	0.502818	-0.243783	0.244964
O260	O	1.002818	0.256217	0.744964
H261	H	0.479996	-0.286704	0.296795
H262	H	0.979996	0.213296	0.796795
H263	H	-0.201090	-0.259690	0.000196
H264	H	0.298910	0.240310	0.500196
