data_functionalizedCrystal
_audit_creation_method	'MofGen! by Chris Wilmer'
_symmetry_space_group_name_H-M	'P1'
_symmetry_Int_Tables_number	1
_symmetry_cell_setting	triclinic
loop_
_symmetry_equiv_pos_as_xyz
  x,y,z
_cell_length_a	14.519710
_cell_length_b	8.559649
_cell_length_c	7.681481
_cell_angle_alpha	94.930900
_cell_angle_beta	95.735070
_cell_angle_gamma	103.270596
loop_
_atom_site_label
_atom_site_type_symbol
_atom_site_fract_x
_atom_site_fract_y
_atom_site_fract_z
O1	O	1.199050	-0.224508	-0.146383
O2	O	1.532384	0.108825	0.186951
O3	O	1.865717	0.442159	0.520284
O4	O	0.928802	-0.249170	-0.146394
O5	O	1.262136	0.084163	0.186940
O6	O	1.595469	0.417496	0.520273
O7	O	1.087735	-0.004305	-0.146385
O8	O	1.421069	0.329028	0.186948
O9	O	1.754402	0.662362	0.520281
O10	O	1.040117	-0.469374	-0.146391
O11	O	1.373450	-0.136040	0.186942
O12	O	1.706784	0.197293	0.520276
O13	O	1.107302	0.025902	0.146473
O14	O	1.440636	0.359235	0.479807
O15	O	1.773969	0.692569	0.813140
O16	O	0.948369	-0.218963	0.146465
O17	O	1.281703	0.114370	0.479798
O18	O	1.615036	0.447703	0.813132
O19	O	1.218617	-0.194301	0.146476
O20	O	1.551950	0.139032	0.479810
O21	O	1.885284	0.472366	0.813143
Zn22	Zn	1.086600	-0.201836	0.192968
Zn23	Zn	1.419933	0.131497	0.526302
Zn24	Zn	1.753267	0.464831	0.859635
Zn25	Zn	1.060820	-0.241635	-0.192886
Zn26	Zn	1.394153	0.091698	0.140448
Zn27	Zn	1.727486	0.425031	0.473781
O28	O	1.059684	-0.439166	0.146468
O29	O	1.393017	-0.105833	0.479801
O30	O	1.726351	0.227500	0.813135
C31	C	0.904308	-0.232918	0.000034
C32	C	1.237642	0.100416	0.333368
C33	C	1.570975	0.433749	0.666701
C34	C	0.802174	-0.229474	0.000030
C35	C	1.135507	0.103859	0.333363
C36	C	1.468841	0.437193	0.666696
C37	C	1.243111	-0.210554	0.000044
C38	C	1.576444	0.122779	0.333378
C39	C	1.909777	0.456112	0.666711
C40	C	1.345244	-0.213999	0.000037
C41	C	1.678578	0.119334	0.333371
C42	C	2.011911	0.452668	0.666704
C43	C	1.719230	-0.226678	0.000036
C44	C	2.052563	0.106655	0.333370
C45	C	2.385897	0.439989	0.666703
C46	C	1.615175	-0.223157	0.000036
C47	C	1.948508	0.110176	0.333369
C48	C	2.281841	0.443509	0.666703
C49	C	1.532240	-0.220339	0.000035
C50	C	1.865574	0.112994	0.333368
C51	C	2.198907	0.446328	0.666702
C52	C	1.428179	-0.216817	0.000038
C53	C	1.761512	0.116516	0.333372
C54	C	2.094845	0.449850	0.666705
C55	C	1.101127	0.070318	0.000041
C56	C	1.434461	0.403651	0.333374
C57	C	1.767794	0.736984	0.666708
C58	C	1.111868	0.247666	0.000032
C59	C	1.445202	0.580999	0.333365
C60	C	1.778535	0.914333	0.666698
C61	C	1.046292	-0.513790	0.000038
C62	C	1.379625	-0.180456	0.333371
C63	C	1.712959	0.152877	0.666704
C64	C	1.035550	-0.691139	0.000036
C65	C	1.368884	-0.357806	0.333369
C66	C	1.702217	-0.024473	0.666702
N67	N	1.104201	-0.174673	0.456303
N68	N	1.437534	0.158660	0.789637
N69	N	1.770868	0.491993	1.122970
N70	N	1.043227	-0.268786	-0.456221
N71	N	1.376560	0.064548	-0.122888
N72	N	1.709893	0.397881	0.210446
H73	H	0.961993	0.225574	0.000038
H74	H	1.295327	0.558908	0.333372
H75	H	1.628660	0.892241	0.666705
H76	H	1.185431	0.330964	0.000049
H77	H	1.518765	0.664297	0.333382
H78	H	1.852098	0.997630	0.666715
H79	H	0.980985	-0.364846	0.468579
H80	H	1.314319	-0.031513	0.801912
H81	H	1.647652	0.301821	1.135246
H82	H	1.166453	-0.078618	0.531513
H83	H	1.499786	0.254715	0.864846
H84	H	1.833119	0.588049	1.198179
