data_functionalizedCrystal
_audit_creation_method	'MofGen! by Chris Wilmer'
_symmetry_space_group_name_H-M	'P1'
_symmetry_Int_Tables_number	1
_symmetry_cell_setting	triclinic
loop_
_symmetry_equiv_pos_as_xyz
  x,y,z
_cell_length_a	6.817900
_cell_length_b	10.943632
_cell_length_c	10.943624
_cell_angle_alpha	91.771060
_cell_angle_beta	108.838799
_cell_angle_gamma	108.838880
loop_
_atom_site_label
_atom_site_type_symbol
_atom_site_fract_x
_atom_site_fract_y
_atom_site_fract_z
V1	V	-4.115495	-0.178596	-0.402520
O2	O	-4.073204	0.008617	-0.394890
O3	O	-4.093445	-0.354159	-0.399737
O4	O	-4.093458	-0.175834	-0.578087
O5	O	-4.073192	-0.170943	-0.215305
V6	V	-4.592293	-0.156205	-0.380131
O7	O	-4.391506	-0.227713	-0.451632
O8	O	-4.766479	-0.107088	-0.331020
O9	O	-4.391136	0.019358	-0.382915
O10	O	-4.751980	-0.343418	-0.387762
O11	O	-4.751993	-0.163858	-0.567347
O12	O	-4.391123	-0.158967	-0.204564
C13	C	-3.944003	-0.396958	-0.393379
C14	C	-4.007438	-0.540484	-0.392273
C15	C	-3.852284	-0.617637	-0.384920
C16	C	-3.931120	-0.690292	-0.280695
C17	C	-4.041658	-0.723567	-0.494542
C18	C	-4.085393	-0.611235	-0.287974
C19	C	-4.195950	-0.644516	-0.501916
C20	C	-4.274895	-0.717134	-0.397670
C21	C	-3.944018	-0.169484	-0.620881
C22	C	-4.007457	-0.168388	-0.764408
C23	C	-3.852287	-0.161001	-0.841556
C24	C	-4.041646	-0.270645	-0.947527
C25	C	-3.931164	-0.056801	-0.914178
C26	C	-4.196026	-0.278134	-0.868502
C27	C	-4.085465	-0.064194	-0.835129
C28	C	-4.274960	-0.173869	-0.941070
C29	C	-4.203920	0.062151	-0.389269
C30	C	-4.119726	0.205675	-0.390383
C31	C	-4.203905	-0.165321	-0.161764
C32	C	-4.119703	-0.166411	-0.018236
H33	H	-4.307176	-0.623718	-0.595459
N34	N	-3.627339	-0.563055	-0.377995
N35	N	-3.542646	-0.443427	-0.378651
H36	H	-3.383777	-0.404874	-0.373752
N37	N	-3.791553	0.060554	-0.940231
N38	N	-3.819415	0.080617	-1.055407
H39	H	-3.720820	0.163495	-1.073816
H40	H	-3.819813	-0.711058	-0.187152
N41	N	-4.019203	-0.380118	-1.008920
N42	N	-3.891373	-0.362346	-1.072053
H43	H	-3.875503	-0.439657	-1.115405
N44	N	-4.107746	0.045311	-0.773698
N45	N	-3.996957	0.158780	-0.781521
H46	H	-4.012669	0.236130	-0.738130
N47	N	-4.107770	-0.550085	-0.178340
N48	N	-4.292103	-0.581873	-0.164889
H49	H	-4.307894	-0.538680	-0.087459
N50	N	-4.499765	-0.771349	-0.404379
N51	N	-4.556726	-0.733409	-0.316769
H52	H	-4.715537	-0.771698	-0.321501
H53	H	-4.023738	-0.772480	-0.581812
H54	H	-3.673087	-0.155706	-0.798109
H55	H	-4.307409	-0.371779	-0.847941
N56	N	-4.499919	-0.180756	-0.995333
N57	N	-4.638684	-0.273361	-1.081916
H58	H	-4.797568	-0.278235	-1.120244
