data_functionalizedCrystal
_audit_creation_method	'MofGen! by Chris Wilmer'
_symmetry_space_group_name_H-M	'P1'
_symmetry_Int_Tables_number	1
_symmetry_cell_setting	triclinic
loop_
_symmetry_equiv_pos_as_xyz
  x,y,z
_cell_length_a	16.625548
_cell_length_b	16.625546
_cell_length_c	12.827885
_cell_angle_alpha	89.964876
_cell_angle_beta	89.978764
_cell_angle_gamma	90.023536
loop_
_atom_site_label
_atom_site_type_symbol
_atom_site_fract_x
_atom_site_fract_y
_atom_site_fract_z
Zn1	Zn	1.232686	-0.320940	-0.590865
Zn2	Zn	1.482686	-0.070940	-0.340865
Zn3	Zn	1.732686	0.179060	-0.090865
Zn4	Zn	1.982686	0.429060	0.159135
Zn5	Zn	1.232587	-0.455794	-0.416109
Zn6	Zn	1.482587	-0.205794	-0.166109
Zn7	Zn	1.732587	0.044206	0.083891
Zn8	Zn	1.982587	0.294206	0.333891
Zn9	Zn	1.097846	-0.320981	-0.416132
Zn10	Zn	1.347846	-0.070981	-0.166132
Zn11	Zn	1.597846	0.179019	0.083868
Zn12	Zn	1.847846	0.429019	0.333868
Zn13	Zn	1.097818	-0.455736	-0.590803
Zn14	Zn	1.347818	-0.205736	-0.340803
Zn15	Zn	1.597818	0.044264	-0.090803
Zn16	Zn	1.847818	0.294264	0.159197
O17	O	1.165234	-0.388363	-0.503477
O18	O	1.415234	-0.138363	-0.253477
O19	O	1.665234	0.111637	-0.003477
O20	O	1.915234	0.361637	0.246523
O21	O	1.345505	-0.338835	-0.567699
O22	O	1.595505	-0.088835	-0.317699
O23	O	1.845505	0.161165	-0.067699
O24	O	2.095505	0.411165	0.182301
O25	O	1.214684	-0.437952	-0.269876
O26	O	1.464684	-0.187952	-0.019876
O27	O	1.714684	0.062048	0.230124
O28	O	1.964684	0.312048	0.480124
O29	O	1.115786	-0.208143	-0.439347
O30	O	1.365786	0.041857	-0.189347
O31	O	1.615786	0.291857	0.060653
O32	O	1.865786	0.541857	0.310653
O33	O	1.345433	-0.437912	-0.439307
O34	O	1.595433	-0.187912	-0.189307
O35	O	1.845433	0.062088	0.060693
O36	O	2.095433	0.312088	0.310693
O37	O	1.214852	-0.208113	-0.567722
O38	O	1.464852	0.041887	-0.317722
O39	O	1.714852	0.291887	-0.067722
O40	O	1.964852	0.541887	0.182278
O41	O	1.115690	-0.338906	-0.269893
O42	O	1.365690	-0.088906	-0.019893
O43	O	1.615690	0.161094	0.230107
O44	O	1.865690	0.411094	0.480107
O45	O	0.985010	-0.338850	-0.439287
O46	O	1.235010	-0.088850	-0.189287
O47	O	1.485010	0.161150	0.060713
O48	O	1.735010	0.411150	0.310713
O49	O	1.115738	-0.437814	-0.737047
O50	O	1.365738	-0.187814	-0.487047
O51	O	1.615738	0.062186	-0.237047
O52	O	1.865738	0.312186	0.012953
O53	O	0.984989	-0.437854	-0.567616
O54	O	1.234989	-0.187854	-0.317616
O55	O	1.484989	0.062146	-0.067616
O56	O	1.734989	0.312146	0.182384
O57	O	1.214825	-0.338779	-0.737093
O58	O	1.464825	-0.088779	-0.487093
O59	O	1.714825	0.161221	-0.237093
O60	O	1.964825	0.411221	0.012907
O61	O	1.214657	-0.568619	-0.439246
O62	O	1.464657	-0.318619	-0.189246
O63	O	1.714657	-0.068619	0.060754
O64	O	1.964657	0.181381	0.310754
O65	O	1.115643	-0.568576	-0.567593
O66	O	1.365643	-0.318576	-0.317593
O67	O	1.615643	-0.068576	-0.067593
O68	O	1.865643	0.181424	0.182407
C69	C	0.955743	-0.388351	-0.503448
C70	C	1.205743	-0.138351	-0.253448
C71	C	1.455743	0.111649	-0.003448
C72	C	1.705743	0.361649	0.246552
C73	C	0.866122	-0.388366	-0.503460
C74	C	1.116122	-0.138366	-0.253460
C75	C	1.366122	0.111634	-0.003460
C76	C	1.616122	0.361634	0.246540
C77	C	0.537947	-0.388371	-0.503505
C78	C	0.787947	-0.138371	-0.253505
C79	C	1.037947	0.111629	-0.003505
C80	C	1.287947	0.361629	0.246495
C81	C	0.629255	-0.388367	-0.503489
C82	C	0.879255	-0.138367	-0.253489
C83	C	1.129255	0.111633	-0.003489
C84	C	1.379255	0.361633	0.246511
C85	C	0.702032	-0.388369	-0.503482
C86	C	0.952032	-0.138369	-0.253482
C87	C	1.202032	0.111631	-0.003482
C88	C	1.452032	0.361631	0.246518
C89	C	0.793346	-0.388364	-0.503468
C90	C	1.043346	-0.138364	-0.253468
C91	C	1.293346	0.111636	-0.003468
C92	C	1.543346	0.361636	0.246532
C93	C	1.165158	-0.597854	-0.503433
C94	C	1.415158	-0.347854	-0.253433
C95	C	1.665158	-0.097854	-0.003433
C96	C	1.915158	0.152146	0.246567
C97	C	1.165199	-0.687475	-0.503450
C98	C	1.415199	-0.437475	-0.253450
C99	C	1.665199	-0.187475	-0.003450
C100	C	1.915199	0.062525	0.246550
C101	C	1.165340	-1.015650	-0.503558
C102	C	1.415340	-0.765650	-0.253558
C103	C	1.665340	-0.515650	-0.003558
C104	C	1.915340	-0.265650	0.246442
C105	C	1.165298	-0.924342	-0.503531
C106	C	1.415298	-0.674342	-0.253531
C107	C	1.665298	-0.424342	-0.003531
C108	C	1.915298	-0.174342	0.246469
C109	C	1.165269	-0.851565	-0.503503
C110	C	1.415269	-0.601565	-0.253503
C111	C	1.665269	-0.351565	-0.003503
C112	C	1.915269	-0.101565	0.246497
C113	C	1.165228	-0.760251	-0.503477
C114	C	1.415228	-0.510251	-0.253477
C115	C	1.665228	-0.260251	-0.003477
C116	C	1.915228	-0.010251	0.246523
C117	C	1.375543	-0.388375	-0.503507
C118	C	1.625543	-0.138375	-0.253507
C119	C	1.875543	0.111625	-0.003507
C120	C	2.125543	0.361625	0.246493
C121	C	1.465164	-0.388380	-0.503520
C122	C	1.715164	-0.138380	-0.253520
C123	C	1.965164	0.111620	-0.003520
C124	C	2.215164	0.361620	0.246480
C125	C	1.165289	-0.388285	-0.776047
C126	C	1.415289	-0.138285	-0.526047
C127	C	1.665289	0.111715	-0.276047
C128	C	1.915289	0.361715	-0.026047
C129	C	1.165313	-0.388252	-0.892201
C130	C	1.415313	-0.138252	-0.642201
C131	C	1.665313	0.111748	-0.392201
C132	C	1.915313	0.361748	-0.142201
C133	C	1.165333	-0.178054	-0.503544
C134	C	1.415333	0.071946	-0.253544
C135	C	1.665333	0.321946	-0.003544
C136	C	1.915333	0.571946	0.246456
C137	C	1.165375	-0.088433	-0.503572
C138	C	1.415375	0.161567	-0.253572
C139	C	1.665375	0.411567	-0.003572
C140	C	1.915375	0.661567	0.246428
C141	C	1.214349	-0.339237	-0.944008
C142	C	1.464349	-0.089237	-0.694008
C143	C	1.714349	0.160763	-0.444008
C144	C	1.964349	0.410763	-0.194008
C145	C	1.214374	-0.339202	-1.064058
C146	C	1.464374	-0.089202	-0.814058
C147	C	1.714374	0.160798	-0.564058
C148	C	1.964374	0.410798	-0.314058
C149	C	1.165226	-0.388382	-0.231967
C150	C	1.415226	-0.138382	0.018033
C151	C	1.665226	0.111618	0.268033
C152	C	1.915226	0.361618	0.518033
C153	C	1.165359	-0.388188	-0.115815
C154	C	1.415359	-0.138188	0.134185
C155	C	1.665359	0.111812	0.384185
C156	C	1.915359	0.361812	0.634185
H157	H	1.256310	-0.297297	-0.899485
H158	H	1.506310	-0.047297	-0.649485
H159	H	1.756310	0.202703	-0.399485
H160	H	2.006310	0.452703	-0.149485
C161	C	1.260100	-0.293473	-1.231480
C162	C	1.510100	-0.043473	-0.981480
C163	C	1.760100	0.206527	-0.731480
C164	C	2.010100	0.456527	-0.481480
C165	C	1.271048	-0.282545	-1.124194
C166	C	1.521048	-0.032545	-0.874194
C167	C	1.771048	0.217455	-0.624194
C168	C	2.021048	0.467455	-0.374194
H169	H	1.295086	-0.258489	-1.268604
H170	H	1.545086	-0.008489	-1.018604
H171	H	1.795086	0.241511	-0.768604
H172	H	2.045086	0.491511	-0.518604
H173	H	1.271873	-0.347649	-1.249296
H174	H	1.521873	-0.097649	-0.999296
H175	H	1.771873	0.152351	-0.749296
H176	H	2.021873	0.402351	-0.499296
H177	H	1.205918	-0.281680	-1.249300
H178	H	1.455918	-0.031680	-0.999300
H179	H	1.705918	0.218320	-0.749300
H180	H	1.955918	0.468320	-0.499300
H181	H	1.325229	-0.294344	-1.106373
H182	H	1.575229	-0.044344	-0.856373
H183	H	1.825229	0.205656	-0.606373
H184	H	2.075229	0.455656	-0.356373
H185	H	1.259281	-0.228357	-1.106371
H186	H	1.509281	0.021643	-0.856371
H187	H	1.759281	0.271643	-0.606371
H188	H	2.009281	0.521643	-0.356371
H189	H	1.123344	-0.430185	-0.936723
H190	H	1.373344	-0.180185	-0.686723
H191	H	1.623344	0.069815	-0.436723
H192	H	1.873344	0.319815	-0.186723
H193	H	1.123378	-0.430156	-1.071268
H194	H	1.373378	-0.180156	-0.821268
H195	H	1.623378	0.069844	-0.571268
H196	H	1.873378	0.319844	-0.321268
