data_functionalizedCrystal
_audit_creation_method	'MofGen! by Chris Wilmer'
_symmetry_space_group_name_H-M	'P1'
_symmetry_Int_Tables_number	1
_symmetry_cell_setting	triclinic
loop_
_symmetry_equiv_pos_as_xyz
  x,y,z
_cell_length_a	25.639239
_cell_length_b	25.639243
_cell_length_c	19.076919
_cell_angle_alpha	92.278295
_cell_angle_beta	92.268407
_cell_angle_gamma	90.041410
loop_
_atom_site_label
_atom_site_type_symbol
_atom_site_fract_x
_atom_site_fract_y
_atom_site_fract_z
Zn1	Zn	-0.220002	0.787362	-0.397986
Zn2	Zn	0.113331	1.120696	-0.064653
Zn3	Zn	0.446664	1.454029	0.268680
Zn4	Zn	-0.303924	0.790794	-0.280288
Zn5	Zn	0.029409	1.124127	0.053045
Zn6	Zn	0.362743	1.457461	0.386379
Zn7	Zn	-0.216509	0.703446	-0.280300
Zn8	Zn	0.116825	1.036780	0.053033
Zn9	Zn	0.450158	1.370113	0.386366
Zn10	Zn	-0.307411	0.699885	-0.397937
Zn11	Zn	0.025922	1.033219	-0.064604
Zn12	Zn	0.359255	1.366552	0.268729
O13	O	-0.261962	0.745372	-0.339128
O14	O	0.071372	1.078705	-0.005795
O15	O	0.404705	1.412039	0.327539
O16	O	-0.231137	0.860982	-0.382388
O17	O	0.102196	1.194316	-0.049055
O18	O	0.435529	1.527649	0.284278
O19	O	-0.289406	0.782134	-0.181801
O20	O	0.043927	1.115467	0.151533
O21	O	0.377260	1.448800	0.484866
O22	O	-0.143808	0.714632	-0.295937
O23	O	0.189526	1.047966	0.037396
O24	O	0.522859	1.381299	0.370730
O25	O	-0.292794	0.863504	-0.295916
O26	O	0.040539	1.196837	0.037417
O27	O	0.373873	1.530170	0.370751
O28	O	-0.146375	0.776285	-0.382401
O29	O	0.186959	1.109618	-0.049067
O30	O	0.520292	1.442952	0.284266
O31	O	-0.225183	0.717960	-0.181810
O32	O	0.108150	1.051293	0.151523
O33	O	0.441484	1.384627	0.484857
O34	O	-0.228565	0.629809	-0.295890
O35	O	0.104769	0.963143	0.037444
O36	O	0.438102	1.296476	0.370777
O37	O	-0.298738	0.708563	-0.496432
O38	O	0.034595	1.041896	-0.163099
O39	O	0.367929	1.375229	0.170234
O40	O	-0.295350	0.627193	-0.382317
O41	O	0.037983	0.960526	-0.048984
O42	O	0.371316	1.293860	0.284349
O43	O	-0.234519	0.772832	-0.496468
O44	O	0.098814	1.106165	-0.163135
O45	O	0.432148	1.439498	0.170198
O46	O	-0.377551	0.778681	-0.295869
O47	O	-0.044218	1.112014	0.037465
O48	O	0.289116	1.445347	0.370798
O49	O	-0.380113	0.711890	-0.382305
O50	O	-0.046780	1.045224	-0.048972
O51	O	0.286553	1.378557	0.284361
C52	C	-0.261957	0.609530	-0.339100
C53	C	0.071376	0.942864	-0.005767
C54	C	0.404709	1.276197	0.327567
C55	C	-0.261968	0.551416	-0.339105
C56	C	0.071365	0.884749	-0.005771
C57	C	0.404698	1.218083	0.327562
C58	C	-0.229912	0.189732	-0.384229
C59	C	0.103422	0.523065	-0.050896
C60	C	0.436755	0.856398	0.282438
C61	C	-0.229911	0.135127	-0.384234
C62	C	0.103422	0.468461	-0.050900
C63	C	0.436755	0.801794	0.282433
O64	O	-0.202645	0.105768	-0.422565
O65	O	0.130688	0.439101	-0.089232
O66	O	0.464022	0.772435	0.244102
N67	N	-0.261961	0.109132	-0.339147
N68	N	0.071373	0.442466	-0.005814
N69	N	0.404706	0.775799	0.327519
C70	C	-0.294008	0.137745	-0.294049
C71	C	0.039325	0.471078	0.039285
C72	C	0.372658	0.804412	0.372618
O73	O	-0.321268	0.110620	-0.255699
O74	O	0.012065	0.443954	0.077634
O75	O	0.345398	0.777287	0.410968
C76	C	-0.294006	0.192349	-0.294041
C77	C	0.039328	0.525682	0.039292
C78	C	0.372661	0.859015	0.372625
C79	C	-0.261958	0.218340	-0.339135
C80	C	0.071375	0.551674	-0.005802
C81	C	0.404708	0.885007	0.327531
C82	C	-0.197867	0.215724	-0.429319
C83	C	0.135467	0.549057	-0.095986
C84	C	0.468800	0.882390	0.237347
C85	C	-0.197868	0.270324	-0.429316
C86	C	0.135466	0.603658	-0.095982
C87	C	0.468799	0.936991	0.237351
C88	C	-0.229914	0.298933	-0.384222
C89	C	0.103419	0.632266	-0.050889
C90	C	0.436753	0.965600	0.282445
C91	C	-0.261959	0.272941	-0.339132
C92	C	0.071374	0.606274	-0.005799
C93	C	0.404707	0.939608	0.327535
C94	C	-0.326050	0.220960	-0.248940
C95	C	0.007283	0.554294	0.084394
C96	C	0.340616	0.887627	0.417727
C97	C	-0.326044	0.275567	-0.248936
C98	C	0.007289	0.608901	0.084398
C99	C	0.340622	0.942234	0.417731
C100	C	-0.293997	0.301559	-0.294030
C101	C	0.039336	0.634893	0.039303
C102	C	0.372670	0.968226	0.372637
C103	C	-0.294007	0.356150	-0.294035
C104	C	0.039326	0.689484	0.039299
C105	C	0.372660	1.022817	0.372632
N106	N	-0.261958	0.382145	-0.339121
N107	N	0.071376	0.715479	-0.005788
N108	N	0.404709	1.048812	0.327546
C109	C	-0.229911	0.353537	-0.384215
C110	C	0.103422	0.686870	-0.050881
C111	C	0.436755	1.020203	0.282452
C112	C	-0.294011	0.023074	-0.294067
C113	C	0.039322	0.356407	0.039267
C114	C	0.372655	0.689740	0.372600
C115	C	-0.294017	-0.031529	-0.294077
C116	C	0.039316	0.301805	0.039256
C117	C	0.372650	0.635138	0.372590
C118	C	-0.229919	-0.034143	-0.384261
C119	C	0.103414	0.299191	-0.050928
C120	C	0.436747	0.632524	0.282405
C121	C	-0.229917	0.020461	-0.384254
C122	C	0.103417	0.353794	-0.050921
C123	C	0.436750	0.687127	0.282413
C124	C	-0.261962	0.049069	-0.339153
C125	C	0.071371	0.382402	-0.005820
C126	C	0.404705	0.715735	0.327514
C127	C	-0.229916	0.468202	-0.384204
C128	C	0.103417	0.801535	-0.050871
C129	C	0.436750	1.134869	0.282463
C130	C	-0.229922	0.522807	-0.384198
C131	C	0.103411	0.856141	-0.050865
C132	C	0.436745	1.189474	0.282468
C133	C	-0.294018	0.525417	-0.294012
C134	C	0.039316	0.858750	0.039321
C135	C	0.372649	1.192083	0.372655
C136	C	-0.294014	0.470816	-0.294020
C137	C	0.039319	0.804149	0.039314
C138	C	0.372652	1.137483	0.372647
C139	C	-0.261960	0.442210	-0.339118
C140	C	0.071374	0.775543	-0.005785
C141	C	0.404707	1.108876	0.327549
O142	O	-0.321258	0.385544	-0.255720
O143	O	0.012075	0.718877	0.077613
O144	O	0.345409	1.052210	0.410946
O145	O	-0.202651	0.380668	-0.422551
O146	O	0.130682	0.714002	-0.089218
O147	O	0.464016	1.047335	0.244116
C148	C	-0.397803	0.745285	-0.339096
C149	C	-0.064470	1.078618	-0.005762
C150	C	0.268863	1.411952	0.327571
C151	C	-0.455918	0.745295	-0.339105
C152	C	-0.122584	1.078628	-0.005772
C153	C	0.210749	1.411962	0.327561
C154	C	-0.814937	0.780235	-0.294197
C155	C	-0.481603	1.113568	0.039136
C156	C	-0.148270	1.446901	0.372470
C157	C	-0.869541	0.780255	-0.294207
C158	C	-0.536208	1.113588	0.039127
C159	C	-0.202875	1.446921	0.372460
O160	O	-0.896635	0.809872	-0.255988
O161	O	-0.563301	1.143205	0.077345
O162	O	-0.229968	1.476538	0.410678
N163	N	-0.898202	0.745463	-0.339175
N164	N	-0.564869	1.078796	-0.005841
N165	N	-0.231535	1.412129	0.327492
C166	C	-0.872256	0.710652	-0.384141
C167	C	-0.538922	1.043985	-0.050808
C168	C	-0.205589	1.377318	0.282526
O169	O	-0.901648	0.681060	-0.422391
O170	O	-0.568314	1.014394	-0.089058
O171	O	-0.234981	1.347727	0.244275
C172	C	-0.817652	0.710635	-0.384135
C173	C	-0.484319	1.043968	-0.050801
C174	C	-0.150985	1.377301	0.282532
C175	C	-0.788994	0.745426	-0.339159
C176	C	-0.455661	1.078759	-0.005825
C177	C	-0.122327	1.412092	0.327508
C178	C	-0.786279	0.815023	-0.249225
C179	C	-0.452946	1.148356	0.084108
C180	C	-0.119612	1.481690	0.417441
C181	C	-0.731678	0.815002	-0.249215
C182	C	-0.398345	1.148336	0.084118
C183	C	-0.065011	1.481669	0.417452
C184	C	-0.705735	0.780193	-0.294177
C185	C	-0.372402	1.113526	0.039157
C186	C	-0.039068	1.446860	0.372490
C187	C	-0.734393	0.745405	-0.339149
C188	C	-0.401060	1.078738	-0.005815
C189	C	-0.067726	1.412071	0.327518
C190	C	-0.791707	0.675827	-0.429104
C191	C	-0.458373	1.009160	-0.095771
C192	C	-0.125040	1.342493	0.237562
C193	C	-0.737099	0.675813	-0.429095
C194	C	-0.403766	1.009146	-0.095761
C195	C	-0.070433	1.342480	0.237572
C196	C	-0.708441	0.710604	-0.384118
C197	C	-0.375108	1.043937	-0.050785
C198	C	-0.041775	1.377271	0.282548
C199	C	-0.653849	0.710575	-0.384100
C200	C	-0.320516	1.043908	-0.050767
C201	C	0.012817	1.377241	0.282567
N202	N	-0.625189	0.745367	-0.339132
N203	N	-0.291855	1.078700	-0.005799
N204	N	0.041478	1.412034	0.327535
C205	C	-0.651132	0.780176	-0.294170
C206	C	-0.317798	1.113509	0.039163
C207	C	0.015535	1.446843	0.372496
C208	C	-0.986926	0.710691	-0.384152
C209	C	-0.653593	1.044024	-0.050819
C210	C	-0.320260	1.377357	0.282515
C211	C	-1.041529	0.710705	-0.384155
C212	C	-0.708196	1.044038	-0.050822
C213	C	-0.374862	1.377372	0.282511
C214	C	-1.038811	0.780309	-0.294221
C215	C	-0.705478	1.113642	0.039112
C216	C	-0.372144	1.446975	0.372445
C217	C	-0.984208	0.780292	-0.294215
C218	C	-0.650874	1.113625	0.039118
C219	C	-0.317541	1.446958	0.372452
C220	C	-0.958266	0.745483	-0.339184
C221	C	-0.624932	1.078816	-0.005851
C222	C	-0.291599	1.412150	0.327483
C223	C	-0.536466	0.780130	-0.294152
C224	C	-0.203133	1.113463	0.039181
C225	C	0.130201	1.446796	0.372515
C226	C	-0.481860	0.780104	-0.294144
C227	C	-0.148527	1.113437	0.039190
C228	C	0.184806	1.446771	0.372523
C229	C	-0.484583	0.710503	-0.384080
C230	C	-0.151250	1.043836	-0.050747
C231	C	0.182083	1.377169	0.282587
C232	C	-0.539184	0.710526	-0.384086
C233	C	-0.205851	1.043859	-0.050753
C234	C	0.127483	1.377192	0.282581
C235	C	-0.565124	0.745344	-0.339120
C236	C	-0.231791	1.078677	-0.005786
C237	C	0.101543	1.412010	0.327547
O238	O	-0.626721	0.680974	-0.422301
O239	O	-0.293388	1.014308	-0.088967
O240	O	0.039946	1.347641	0.244366
O241	O	-0.621733	0.809767	-0.255933
O242	O	-0.288400	1.143100	0.077400
O243	O	0.044933	1.476434	0.410733
C244	C	-0.125590	0.745473	-0.339176
C245	C	0.207743	1.078806	-0.005842
C246	C	0.541077	1.412140	0.327491
C247	C	-0.067477	0.745516	-0.339196
C248	C	0.265857	1.078850	-0.005863
C249	C	0.599190	1.412183	0.327471
C250	C	-0.267407	0.739917	-0.522701
C251	C	0.065926	1.073250	-0.189368
C252	C	0.399259	1.406584	0.143965
C253	C	-0.269728	0.737593	-0.600930
C254	C	0.063605	1.070926	-0.267596
C255	C	0.396939	1.404259	0.065737
C256	C	-0.261966	0.881744	-0.339156
C257	C	0.071367	1.215077	-0.005823
C258	C	0.404700	1.548411	0.327510
C259	C	-0.261968	0.939858	-0.339168
C260	C	0.071365	1.273191	-0.005835
C261	C	0.404698	1.606524	0.327498
C262	C	-0.237384	0.769960	-0.637701
C263	C	0.095949	1.103294	-0.304368
C264	C	0.429282	1.436627	0.028965
C265	C	-0.239563	0.767770	-0.711205
C266	C	0.093770	1.101103	-0.377871
C267	C	0.427104	1.434436	-0.044538
C268	C	-0.274088	0.733214	-0.747936
C269	C	0.059245	1.066547	-0.414602
C270	C	0.392579	1.399880	-0.081269
C271	C	-0.306433	0.700843	-0.711159
C272	C	0.026900	1.034176	-0.377826
C273	C	0.360234	1.367509	-0.044492
C274	C	-0.304251	0.703031	-0.637657
C275	C	0.029082	1.036364	-0.304323
C276	C	0.362415	1.369698	0.029010
C277	C	-0.284195	0.723079	-0.967762
C278	C	0.049138	1.056412	-0.634428
C279	C	0.382472	1.389745	-0.301095
C280	C	-0.286375	0.720894	-1.041269
C281	C	0.046958	1.054227	-0.707936
C282	C	0.380292	1.387561	-0.374603
C283	C	-0.219504	0.787821	-1.041310
C284	C	0.113829	1.121154	-0.707977
C285	C	0.447163	1.454487	-0.374643
C286	C	-0.217328	0.790008	-0.967806
C287	C	0.116005	1.123341	-0.634473
C288	C	0.449339	1.456675	-0.301140
C289	C	-0.249671	0.757635	-0.931036
C290	C	0.083662	1.090968	-0.597703
C291	C	0.416996	1.424302	-0.264369
N292	N	-0.276317	0.730975	-0.823068
N293	N	0.057017	1.064308	-0.489735
N294	N	0.390350	1.397642	-0.156401
N295	N	-0.247439	0.759871	-0.855905
N296	N	0.085894	1.093205	-0.522572
N297	N	0.419228	1.426538	-0.189238
C298	C	-0.256499	0.750836	-0.156268
C299	C	0.076834	1.084169	0.177065
C300	C	0.410167	1.417502	0.510398
C301	C	-0.254032	0.753262	-0.078041
C302	C	0.079302	1.086595	0.255293
C303	C	0.412635	1.419928	0.588626
H304	H	-0.320111	0.046363	-0.257342
H305	H	0.013222	0.379696	0.075991
H306	H	0.346555	0.713030	0.409325
C307	C	-0.536383	0.641727	-0.472985
C308	C	-0.203050	0.975060	-0.139651
C309	C	0.130284	1.308393	0.193682
C310	C	-0.570688	0.672284	-0.433523
C311	C	-0.237355	1.005617	-0.100190
C312	C	0.095979	1.338950	0.233143
H313	H	-0.555831	0.618123	-0.503513
H314	H	-0.222498	0.951456	-0.170179
H315	H	0.110836	1.284790	0.163154
H316	H	-0.514212	0.622647	-0.442289
H317	H	-0.180879	0.955980	-0.108956
H318	H	0.152455	1.289314	0.224377
H319	H	-0.515847	0.663688	-0.499924
H320	H	-0.182513	0.997021	-0.166591
H321	H	0.150820	1.330354	0.166743
H322	H	-0.591222	0.650323	-0.406580
H323	H	-0.257889	0.983656	-0.073247
H324	H	0.075445	1.316989	0.260086
H325	H	-0.592868	0.691365	-0.464223
H326	H	-0.259535	1.024698	-0.130889
H327	H	0.073798	1.358031	0.202444
H328	H	-0.320116	0.449652	-0.257308
H329	H	0.013217	0.782985	0.076025
H330	H	0.346550	1.116319	0.409358
C331	C	-0.322464	0.610286	-0.253962
C332	C	0.010869	0.943619	0.079371
C333	C	0.344203	1.276952	0.412704
C334	C	-0.329239	0.556871	-0.244442
C335	C	0.004094	0.890204	0.088891
C336	C	0.337428	1.223537	0.422224
H337	H	-0.344204	0.629704	-0.223353
H338	H	-0.010871	0.963037	0.109980
H339	H	0.322463	1.296371	0.443313
H340	H	-0.331578	0.617828	-0.301225
H341	H	0.001756	0.951161	0.032109
H342	H	0.335089	1.284495	0.365442
H343	H	-0.287016	0.619551	-0.243754
H344	H	0.046318	0.952884	0.089580
H345	H	0.379651	1.286218	0.422913
H346	H	-0.364687	0.547604	-0.254656
H347	H	-0.031353	0.880938	0.078677
H348	H	0.301980	1.214271	0.412011
H349	H	-0.320129	0.549325	-0.197169
H350	H	0.013205	0.882658	0.136164
H351	H	0.346538	1.215992	0.469497
H352	H	-0.310539	0.696726	-0.937832
H353	H	0.022795	1.030059	-0.604499
H354	H	0.356128	1.363393	-0.271166
H355	H	-0.203824	-0.057446	-0.420977
H356	H	0.129509	0.275887	-0.087644
H357	H	0.462843	0.609221	0.245689
H358	H	-0.171771	0.291482	-0.466035
H359	H	0.161563	0.624815	-0.132702
H360	H	0.494896	0.958149	0.200632
C361	C	-0.484667	0.848910	-0.205249
C362	C	-0.151334	1.182243	0.128084
C363	C	0.182000	1.515576	0.461418
C364	C	-0.450360	0.818351	-0.244706
C365	C	-0.117027	1.151684	0.088628
C366	C	0.216306	1.485018	0.421961
H367	H	-0.465221	0.872523	-0.174733
H368	H	-0.131887	1.205856	0.158600
H369	H	0.201446	1.539190	0.491933
H370	H	-0.505196	0.826954	-0.178303
H371	H	-0.171863	1.160288	0.155030
H372	H	0.161470	1.493621	0.488363
H373	H	-0.506845	0.867983	-0.235953
H374	H	-0.173512	1.201317	0.097380
H375	H	0.159821	1.534650	0.430713
H376	H	-0.428185	0.799274	-0.214001
H377	H	-0.094851	1.132608	0.119332
H378	H	0.238482	1.465941	0.452665
H379	H	-0.429822	0.840309	-0.271653
H380	H	-0.096489	1.173643	0.061680
H381	H	0.236845	1.506976	0.395013
C382	C	-0.207583	0.862782	-0.885137
C383	C	0.125751	1.196115	-0.551804
C384	C	0.459084	1.529449	-0.218471
C385	C	-0.179362	0.827970	-0.927418
C386	C	0.153971	1.161303	-0.594084
C387	C	0.487305	1.494636	-0.260751
H388	H	-0.184140	0.886214	-0.860202
H389	H	0.149193	1.219547	-0.526869
H390	H	0.482526	1.552881	-0.193535
H391	H	-0.226540	0.843817	-0.852734
H392	H	0.106793	1.177150	-0.519401
H393	H	0.440126	1.510484	-0.186067
H394	H	-0.231200	0.881931	-0.913806
H395	H	0.102133	1.215265	-0.580472
H396	H	0.435466	1.548598	-0.247139
H397	H	-0.155747	0.808818	-0.898749
H398	H	0.177586	1.142151	-0.565415
H399	H	0.510920	1.475484	-0.232082
H400	H	-0.160396	0.846937	-0.959825
H401	H	0.172938	1.180270	-0.626491
H402	H	0.506271	1.513604	-0.293158
H403	H	-0.463452	0.682160	-0.420685
H404	H	-0.130119	1.015493	-0.087352
H405	H	0.203215	1.348826	0.245981
C406	C	-0.925883	0.640040	-0.393835
C407	C	-0.592550	0.973373	-0.060502
C408	C	-0.259216	1.306707	0.272832
C409	C	-0.958412	0.672420	-0.433578
C410	C	-0.625079	1.005754	-0.100245
C411	C	-0.291746	1.339087	0.233089
H412	H	-0.908280	0.616417	-0.424350
H413	H	-0.574947	0.949750	-0.091017
H414	H	-0.241614	1.283084	0.242316
H415	H	-0.946304	0.620983	-0.363150
H416	H	-0.612970	0.954316	-0.029817
H417	H	-0.279637	1.287649	0.303516
H418	H	-0.900998	0.660762	-0.367059
H419	H	-0.567665	0.994095	-0.033726
H420	H	-0.234332	1.327429	0.299607
H421	H	-0.983300	0.651699	-0.460350
H422	H	-0.649967	0.985032	-0.127017
H423	H	-0.316633	1.318365	0.206317
H424	H	-0.937990	0.691479	-0.464275
H425	H	-0.604657	1.024813	-0.130942
H426	H	-0.271324	1.358146	0.202392
C427	C	-0.332567	0.611616	-0.733757
C428	C	0.000767	0.944949	-0.400423
C429	C	0.334100	1.278282	-0.067090
C430	C	-0.344383	0.662857	-0.751531
C431	C	-0.011050	0.996190	-0.418198
C432	C	0.322283	1.329523	-0.084865
H433	H	-0.355996	0.588166	-0.758684
H434	H	-0.022662	0.921499	-0.425350
H435	H	0.310671	1.254833	-0.092017
H436	H	-0.335897	0.608290	-0.684725
H437	H	-0.002564	0.941623	-0.351391
H438	H	0.330769	1.274956	-0.018058
H439	H	-0.297794	0.603638	-0.745819
H440	H	0.035539	0.936972	-0.412486
H441	H	0.368873	1.270305	-0.079153
H442	H	-0.379155	0.670836	-0.739464
H443	H	-0.045822	1.004169	-0.406131
H444	H	0.287512	1.337502	-0.072797
H445	H	-0.341057	0.666185	-0.800574
H446	H	-0.007724	0.999518	-0.467241
H447	H	0.325609	1.332852	-0.133908
H448	H	-0.320120	-0.052687	-0.257365
H449	H	0.013214	0.280646	0.075969
H450	H	0.346547	0.613980	0.409302
H451	H	-1.059944	0.808654	-0.257614
H452	H	-0.726610	1.141987	0.075720
H453	H	-0.393277	1.475321	0.409053
C454	C	-0.204346	0.803032	-0.525048
C455	C	0.128987	1.136365	-0.191714
C456	C	0.462321	1.469699	0.141619
C457	C	-0.199432	0.807944	-0.597329
C458	C	0.133902	1.141277	-0.263996
C459	C	0.467235	1.474611	0.069337
H460	H	-0.180915	0.826484	-0.500127
H461	H	0.152418	1.159817	-0.166794
H462	H	0.485751	1.493150	0.166540
H463	H	-0.196337	0.768271	-0.512999
H464	H	0.136997	1.101604	-0.179665
H465	H	0.470330	1.434937	0.153668
H466	H	-0.239119	0.811020	-0.512997
H467	H	0.094215	1.144353	-0.179663
H468	H	0.427548	1.477687	0.153670
H469	H	-0.164660	0.799952	-0.609381
H470	H	0.168674	1.133286	-0.276048
H471	H	0.502007	1.466619	0.057285
H472	H	-0.207437	0.842713	-0.609383
H473	H	0.125896	1.176047	-0.276050
H474	H	0.459229	1.509380	0.057283
C475	C	-0.159898	0.583972	-0.394152
C476	C	0.173435	0.917305	-0.060819
C477	C	0.506768	1.250639	0.272514
C478	C	-0.194693	0.551379	-0.433767
C479	C	0.138641	0.884712	-0.100434
C480	C	0.471974	1.218045	0.232899
H481	H	-0.138153	0.601611	-0.424754
H482	H	0.195181	0.934944	-0.091421
H483	H	0.528514	1.268278	0.241913
H484	H	-0.138957	0.563590	-0.363544
H485	H	0.194376	0.896924	-0.030211
H486	H	0.527709	1.230257	0.303123
H487	H	-0.178990	0.608825	-0.367301
H488	H	0.154343	0.942158	-0.033967
H489	H	0.487676	1.275492	0.299366
H490	H	-0.175601	0.526523	-0.460615
H491	H	0.157732	0.859856	-0.127282
H492	H	0.491066	1.193189	0.206051
H493	H	-0.215636	0.571762	-0.464388
H494	H	0.117697	0.905095	-0.131055
H495	H	0.451030	1.238428	0.202279
C496	C	-0.389391	0.229053	-0.159781
C497	C	-0.056057	0.562386	0.173553
C498	C	0.277276	0.895719	0.506886
C499	C	-0.361273	0.192400	-0.199362
C500	C	-0.027940	0.525733	0.133971
C501	C	0.305394	0.859067	0.467304
H502	H	-0.411133	0.211420	-0.129168
H503	H	-0.077800	0.544754	0.204166
H504	H	0.255533	0.878087	0.537499
H505	H	-0.410335	0.249427	-0.190394
H506	H	-0.077002	0.582760	0.142939
H507	H	0.256332	0.916094	0.476272
H508	H	-0.365771	0.251163	-0.132927
H509	H	-0.032438	0.584496	0.200407
H510	H	0.300896	0.917829	0.533740
H511	H	-0.384893	0.170292	-0.226221
H512	H	-0.051560	0.503626	0.107113
H513	H	0.281774	0.836959	0.440446
H514	H	-0.340327	0.172017	-0.168745
H515	H	-0.006994	0.505350	0.164589
H516	H	0.326340	0.838683	0.497922
C517	C	-0.159881	0.406564	-0.394179
C518	C	0.173452	0.739898	-0.060845
C519	C	0.506785	1.073231	0.272488
C520	C	-0.194684	0.436764	-0.433780
C521	C	0.138649	0.770098	-0.100447
C522	C	0.471983	1.103431	0.232886
H523	H	-0.138131	0.387159	-0.424789
H524	H	0.195202	0.720493	-0.091455
H525	H	0.528536	1.053826	0.241878
H526	H	-0.178963	0.383265	-0.367336
H527	H	0.154370	0.716599	-0.034003
H528	H	0.487704	1.049932	0.299331
H529	H	-0.138941	0.428790	-0.363562
H530	H	0.194393	0.762123	-0.030228
H531	H	0.527726	1.095456	0.303105
H532	H	-0.215627	0.414539	-0.464394
H533	H	0.117706	0.747872	-0.131060
H534	H	0.451039	1.081205	0.202273
H535	H	-0.175601	0.460066	-0.460635
H536	H	0.157733	0.793399	-0.127301
H537	H	0.491066	1.126732	0.206032
C538	C	-0.597487	0.850797	-0.284475
C539	C	-0.264154	1.184130	0.048858
C540	C	0.069179	1.517464	0.382191
C541	C	-0.564968	0.818409	-0.244729
C542	C	-0.231635	1.151743	0.088604
C543	C	0.101699	1.485076	0.421938
H544	H	-0.615078	0.874432	-0.253963
H545	H	-0.281745	1.207765	0.079371
H546	H	0.051588	1.541098	0.412704
H547	H	-0.622377	0.830085	-0.311243
H548	H	-0.289044	1.163418	0.022090
H549	H	0.044289	1.496752	0.355424
H550	H	-0.577057	0.869846	-0.315169
H551	H	-0.243724	1.203179	0.018165
H552	H	0.089609	1.536512	0.351498
H553	H	-0.585399	0.799358	-0.214039
H554	H	-0.252065	1.132691	0.119294
H555	H	0.081268	1.466024	0.452627
H556	H	-0.540075	0.839124	-0.217950
H557	H	-0.206741	1.172457	0.115384
H558	H	0.126592	1.505790	0.448717
C559	C	-0.159888	0.081617	-0.394202
C560	C	0.173446	0.414950	-0.060869
C561	C	0.506779	0.748284	0.272464
C562	C	-0.194687	0.049029	-0.433818
C563	C	0.138646	0.382363	-0.100485
C564	C	0.471980	0.715696	0.232848
H565	H	-0.138140	0.099254	-0.424804
H566	H	0.195194	0.432587	-0.091470
H567	H	0.528527	0.765921	0.241863
H568	H	-0.138949	0.061232	-0.363596
H569	H	0.194384	0.394565	-0.030262
H570	H	0.527718	0.727899	0.303071
H571	H	-0.178976	0.106472	-0.367349
H572	H	0.154358	0.439806	-0.034016
H573	H	0.487691	0.773139	0.299318
H574	H	-0.175599	0.024172	-0.460668
H575	H	0.157734	0.357505	-0.127334
H576	H	0.491068	0.690838	0.205999
H577	H	-0.215628	0.069416	-0.464437
H578	H	0.117705	0.402750	-0.131104
H579	H	0.451039	0.736083	0.202229
H580	H	-0.213226	0.794128	-0.741141
H581	H	0.120107	1.127462	-0.407808
H582	H	0.453440	1.460795	-0.074474
H583	H	-0.193172	0.814176	-1.071256
H584	H	0.140162	1.147510	-0.737923
H585	H	0.473495	1.480843	-0.404590
H586	H	-0.330584	0.676668	-0.607718
H587	H	0.002750	1.010002	-0.274385
H588	H	0.336083	1.343335	0.058949
C589	C	-0.711350	0.844091	-0.130070
C590	C	-0.378017	1.177424	0.203263
C591	C	-0.044684	1.510757	0.536596
C592	C	-0.700184	0.853253	-0.199783
C593	C	-0.366851	1.186586	0.133551
C594	C	-0.033518	1.519920	0.466884
H595	H	-0.691913	0.867711	-0.099554
H596	H	-0.358579	1.201044	0.233779
H597	H	-0.025246	1.534377	0.567112
H598	H	-0.702126	0.809279	-0.119721
H599	H	-0.368792	1.142613	0.213613
H600	H	-0.035459	1.475946	0.546946
H601	H	-0.747586	0.849077	-0.123656
H602	H	-0.414253	1.182410	0.209677
H603	H	-0.080920	1.515744	0.543010
H604	H	-0.663949	0.848263	-0.206198
H605	H	-0.330615	1.181596	0.127135
H606	H	0.002718	1.514930	0.460468
H607	H	-0.709406	0.888073	-0.210136
H608	H	-0.376072	1.221406	0.123197
H609	H	-0.042739	1.554739	0.456531
C610	C	-0.987018	0.849091	-0.205321
C611	C	-0.653685	1.182424	0.128013
C612	C	-0.320352	1.515758	0.461346
C613	C	-0.952709	0.818538	-0.244781
C614	C	-0.619376	1.151871	0.088552
C615	C	-0.286043	1.485204	0.421886
H616	H	-0.967574	0.872705	-0.174805
H617	H	-0.634240	1.206039	0.158528
H618	H	-0.300907	1.539372	0.491862
H619	H	-1.007544	0.827132	-0.178375
H620	H	-0.674211	1.160465	0.154958
H621	H	-0.340877	1.493799	0.488291
H622	H	-1.009200	0.868163	-0.236023
H623	H	-0.675866	1.201496	0.097311
H624	H	-0.342533	1.534830	0.430644
H625	H	-0.930530	0.799462	-0.214079
H626	H	-0.597197	1.132796	0.119254
H627	H	-0.263864	1.466129	0.452588
H628	H	-0.932175	0.840499	-0.271728
H629	H	-0.598841	1.173832	0.061605
H630	H	-0.265508	1.507166	0.394938
C631	C	-0.396068	0.337216	-0.238972
C632	C	-0.062735	0.670549	0.094362
C633	C	0.270599	1.003882	0.427695
C634	C	-0.361272	0.307015	-0.199362
C635	C	-0.027938	0.640348	0.133972
C636	C	0.305395	0.973681	0.467305
H637	H	-0.417813	0.356631	-0.208367
H638	H	-0.084480	0.689964	0.124967
H639	H	0.248853	1.023298	0.458300
H640	H	-0.417009	0.314994	-0.269581
H641	H	-0.083676	0.648328	0.063752
H642	H	0.249657	0.981661	0.397085
H643	H	-0.376978	0.360510	-0.265822
H644	H	-0.043644	0.693843	0.067512
H645	H	0.289689	1.027177	0.400845
H646	H	-0.380362	0.283717	-0.172515
H647	H	-0.047029	0.617050	0.160818
H648	H	0.286304	0.950384	0.494151
H649	H	-0.340328	0.329238	-0.168740
H650	H	-0.006995	0.662571	0.164594
H651	H	0.326339	0.995905	0.497927
C652	C	-0.352252	0.654950	-1.033850
C653	C	-0.018919	0.988283	-0.700517
C654	C	0.314414	1.321617	-0.367183
C655	C	-0.324326	0.682905	-1.081645
C656	C	0.009007	1.016238	-0.748312
C657	C	0.342341	1.349572	-0.414979
H658	H	-0.375678	0.631498	-1.058778
H659	H	-0.042345	0.964831	-0.725445
H660	H	0.290988	1.298164	-0.392112
H661	H	-0.371403	0.678565	-1.005180
H662	H	-0.038069	1.011898	-0.671847
H663	H	0.295264	1.345231	-0.338513
H664	H	-0.328614	0.635822	-1.005184
H665	H	0.004719	0.969155	-0.671851
H666	H	0.338052	1.302488	-0.338518
H667	H	-0.347964	0.702036	-1.110308
H668	H	-0.014630	1.035370	-0.776974
H669	H	0.318703	1.368703	-0.443641
H670	H	-0.305174	0.659287	-1.110327
H671	H	0.028159	0.992620	-0.776994
H672	H	0.361492	1.325954	-0.443661
H673	H	-0.171768	0.192436	-0.466040
H674	H	0.161566	0.525769	-0.132707
H675	H	0.494899	0.859103	0.200627
H676	H	-0.807396	0.843372	-0.212612
H677	H	-0.474062	1.176705	0.120721
H678	H	-0.140729	1.510038	0.454055
H679	H	-0.715980	0.647468	-0.465716
H680	H	-0.382647	0.980801	-0.132383
H681	H	-0.049314	1.314135	0.200951
H682	H	-1.064858	0.682370	-0.420773
H683	H	-0.731524	1.015703	-0.087439
H684	H	-0.398191	1.349037	0.245894
H685	H	-0.815031	0.647494	-0.465725
H686	H	-0.481697	0.980827	-0.132392
H687	H	-0.148364	1.314161	0.200941
