data_functionalizedCrystal
_audit_creation_method	'MofGen! by Chris Wilmer'
_symmetry_space_group_name_H-M	'P1'
_symmetry_Int_Tables_number	1
_symmetry_cell_setting	triclinic
loop_
_symmetry_equiv_pos_as_xyz
  x,y,z
_cell_length_a	16.992694
_cell_length_b	15.072220
_cell_length_c	16.992695
_cell_angle_alpha	89.999147
_cell_angle_beta	89.331777
_cell_angle_gamma	90.007079
loop_
_atom_site_label
_atom_site_type_symbol
_atom_site_fract_x
_atom_site_fract_y
_atom_site_fract_z
O1	O	1.050860	0.073672	-0.166912
O2	O	1.550860	0.573672	0.333088
O3	O	0.822460	0.073698	-0.165081
O4	O	1.322460	0.573698	0.334919
O5	O	0.935744	0.073678	-0.051796
O6	O	1.435744	0.573678	0.448204
O7	O	0.937576	0.073692	-0.280196
O8	O	1.437576	0.573692	0.219804
O9	O	0.935715	-0.073887	-0.051801
O10	O	1.435715	0.426113	0.448199
O11	O	0.822430	-0.073867	-0.165086
O12	O	1.322430	0.426133	0.334914
O13	O	1.050831	-0.073893	-0.166917
O14	O	1.550831	0.426107	0.333083
Zn15	Zn	0.936626	-0.097309	-0.166002
Zn16	Zn	1.436626	0.402691	0.333998
Zn17	Zn	0.936665	0.097114	-0.165996
Zn18	Zn	1.436665	0.597114	0.334004
O19	O	0.937546	-0.073873	-0.280201
O20	O	1.437546	0.426127	0.219799
C21	C	0.793085	-0.000081	-0.162727
C22	C	1.293085	0.499919	0.337273
C23	C	0.705600	-0.000071	-0.155699
C24	C	1.205600	0.499929	0.344301
N25	N	0.936605	-0.229998	-0.166006
N26	N	1.436605	0.270002	0.333994
C27	C	0.659610	-0.000068	-0.223517
C28	C	1.159610	0.499932	0.276483
C29	C	0.577409	-0.000080	-0.216908
C30	C	1.077409	0.499920	0.283092
C31	C	0.541201	-0.000090	-0.142480
C32	C	1.041201	0.499910	0.357520
C33	C	0.587198	-0.000096	-0.074657
C34	C	1.087198	0.499904	0.425343
C35	C	0.669397	-0.000090	-0.081267
C36	C	1.169397	0.499910	0.418733
C37	C	0.295886	-0.000116	-0.115086
C38	C	0.795886	0.499884	0.384914
C39	C	0.213681	-0.000119	-0.108481
C40	C	0.713681	0.499881	0.391519
C41	C	0.203898	-0.000105	-0.250732
C42	C	0.703898	0.499895	0.249268
C43	C	0.286099	-0.000093	-0.257336
C44	C	0.786099	0.499907	0.242664
C45	C	0.332089	-0.000104	-0.189512
C46	C	0.832089	0.499896	0.310488
N47	N	0.457178	-0.000100	-0.135723
N48	N	0.957178	0.499900	0.364277
N49	N	0.416110	-0.000100	-0.196270
N50	N	0.916110	0.499900	0.303730
C51	C	0.936663	-0.589199	-0.165992
C52	C	1.436663	-0.089199	0.334008
C53	C	0.875816	-0.551582	-0.226378
C54	C	1.375816	-0.051582	0.273622
C55	C	0.875979	-0.448756	-0.226623
C56	C	1.375979	0.051244	0.273377
C57	C	0.936633	-0.410995	-0.165999
C58	C	1.436633	0.089005	0.334001
C59	C	1.019894	-0.448295	-0.189086
C60	C	1.519894	0.051705	0.310914
C61	C	1.019559	-0.551153	-0.189521
C62	C	1.519559	-0.051153	0.310479
C63	C	0.914970	-0.551302	-0.082375
C64	C	1.414970	-0.051302	0.417625
C65	C	0.913120	-0.448439	-0.082808
C66	C	1.413120	0.051561	0.417192
C67	C	0.936622	-0.310282	-0.166002
C68	C	1.436622	0.189718	0.333998
C69	C	0.936680	-0.689913	-0.165992
C70	C	1.436680	-0.189913	0.334008
C71	C	1.080205	-0.000112	-0.169270
C72	C	1.580205	0.499888	0.330730
C73	C	1.167690	-0.000116	-0.176299
C74	C	1.667690	0.499884	0.323701
C75	C	0.933374	-0.000104	-0.022439
C76	C	1.433374	0.499896	0.477561
C77	C	0.926345	-0.000103	0.065046
C78	C	1.426345	0.499897	0.565046
N79	N	0.936691	0.229803	-0.165986
N80	N	1.436691	0.729803	0.334014
C81	C	0.939917	-0.000089	-0.309559
C82	C	1.439917	0.499911	0.190441
C83	C	0.946945	-0.000084	-0.397044
C84	C	1.446945	0.499916	0.102956
C85	C	0.994163	-0.000112	0.111037
C86	C	1.494163	0.499888	0.611037
C87	C	0.987554	-0.000102	0.193238
C88	C	1.487554	0.499898	0.693238
C89	C	0.913126	-0.000091	0.229446
C90	C	1.413126	0.499909	0.729446
C91	C	0.845303	-0.000080	0.183449
C92	C	1.345303	0.499920	0.683449
C93	C	0.851913	-0.000082	0.101250
C94	C	1.351913	0.499918	0.601250
C95	C	0.885732	-0.000076	0.474760
C96	C	1.385732	0.499924	0.974760
C97	C	0.879127	-0.000075	0.556966
C98	C	1.379127	0.499925	1.056966
C99	C	1.021379	-0.000097	0.566749
C100	C	1.521379	0.499903	1.066749
C101	C	1.027982	-0.000105	0.484547
C102	C	1.527982	0.499895	0.984547
C103	C	0.960159	-0.000089	0.438558
C104	C	1.460159	0.499911	0.938558
N105	N	0.906369	-0.000084	0.313468
N106	N	1.406369	0.499916	0.813468
N107	N	0.966917	-0.000089	0.354537
N108	N	1.466917	0.499911	0.854537
H109	H	0.539966	-0.000077	-0.272133
H110	H	1.039966	0.499923	0.227867
H111	H	0.813906	-0.576337	-0.212027
H112	H	1.313906	-0.076337	0.287973
H113	H	0.315574	-0.000075	-0.317942
H114	H	0.815574	0.499925	0.182058
O115	O	0.895037	-0.416135	-0.308672
O116	O	1.395037	0.083865	0.191328
H117	H	0.953904	-0.441049	-0.327051
H118	H	1.453904	0.058951	0.172949
H119	H	0.333321	-0.000125	-0.059859
H120	H	0.833321	0.499875	0.440141
O121	O	1.043837	-0.582929	-0.270503
O122	O	1.543837	-0.082929	0.229497
H123	H	1.055702	-0.524830	-0.308987
H124	H	1.555702	-0.024830	0.191013
O125	O	0.698660	-0.000055	-0.303793
O126	O	1.198660	0.499945	0.196207
H127	H	0.735878	-0.060194	-0.310205
H128	H	1.235878	0.439806	0.189795
O129	O	1.074441	-0.000114	0.071989
O130	O	1.574441	0.499886	0.571989
H131	H	1.107272	-0.060256	0.090120
H132	H	1.607272	0.439744	0.590120
O133	O	1.044576	-0.414175	-0.269196
O134	O	1.544576	0.085825	0.230804
H135	H	1.047086	-0.340603	-0.267896
H136	H	1.547086	0.159397	0.232104
H137	H	0.184203	-0.000126	-0.047870
H138	H	0.684203	0.499874	0.452130
H139	H	1.042779	-0.000111	0.230680
H140	H	1.542779	0.499889	0.730680
H141	H	1.088589	-0.000114	0.455073
H142	H	1.588589	0.499886	0.955073
H143	H	0.796688	-0.000075	0.063804
H144	H	1.296688	0.499925	0.563804
O145	O	1.094529	-0.000108	0.616349
O146	O	1.594529	0.499892	1.116349
H147	H	1.077433	-0.000098	0.679591
H148	H	1.577433	0.499902	1.179591
H149	H	0.890037	-0.577418	-0.287968
H150	H	1.390037	-0.077418	0.212032
O151	O	0.154292	-0.000113	-0.323879
O152	O	0.654292	0.499887	0.176121
H153	H	0.116603	0.060023	-0.324271
H154	H	0.616603	0.560023	0.175729
H155	H	0.818516	-0.000080	0.586443
H156	H	1.318516	0.499920	1.086443
O157	O	0.812584	-0.000081	0.425161
O158	O	1.312584	0.499919	0.925161
H159	H	0.759722	-0.000088	0.464151
H160	H	1.259722	0.499912	0.964151
O161	O	0.548151	-0.000110	0.005622
O162	O	1.048151	0.499890	0.505622
H163	H	0.483265	-0.000105	-0.001174
H164	H	0.983265	0.499895	0.498826
H165	H	0.784703	-0.000065	0.212936
H166	H	1.284703	0.499935	0.712936
H167	H	0.706842	-0.000092	-0.026042
H168	H	1.206842	0.499908	0.473958
O169	O	1.081690	-0.584125	-0.133842
O170	O	1.581690	-0.084125	0.366158
H171	H	1.111847	-0.526601	-0.106729
H172	H	1.611847	-0.026601	0.393271
H173	H	1.066467	-0.423834	-0.146489
H174	H	1.566467	0.076166	0.353511
O175	O	0.794219	-0.415345	-0.207411
O176	O	1.294219	0.084655	0.292589
H177	H	0.752556	-0.440051	-0.252213
H178	H	1.252556	0.059949	0.247787
O179	O	0.835909	-0.585682	-0.054670
O180	O	1.335909	-0.085682	0.445330
H181	H	0.811192	-0.630169	-0.100196
H182	H	1.311192	-0.130169	0.399804
H183	H	0.851847	-0.424061	-0.065407
H184	H	1.351847	0.075939	0.434593
O185	O	0.967495	-0.414421	-0.019963
O186	O	1.467495	0.085579	0.480037
H187	H	1.012330	-0.370100	-0.047164
H188	H	1.512330	0.129900	0.452836
O189	O	0.973655	-0.583530	-0.022762
O190	O	1.473655	-0.083530	0.477238
H191	H	1.018060	-0.626331	-0.052492
H192	H	1.518060	-0.126331	0.447508
