data_functionalizedCrystal
_audit_creation_method	'MofGen! by Chris Wilmer'
_symmetry_space_group_name_H-M	'P1'
_symmetry_Int_Tables_number	1
_symmetry_cell_setting	triclinic
loop_
_symmetry_equiv_pos_as_xyz
  x,y,z
_cell_length_a	15.995350
_cell_length_b	27.732048
_cell_length_c	15.072220
_cell_angle_alpha	89.993868
_cell_angle_beta	89.991149
_cell_angle_gamma	83.067515
loop_
_atom_site_label
_atom_site_type_symbol
_atom_site_fract_x
_atom_site_fract_y
_atom_site_fract_z
O1	O	1.110190	0.062301	-0.073717
O2	O	1.443523	0.395635	0.259616
O3	O	1.776856	0.728968	0.592949
O4	O	0.866315	0.069995	-0.073737
O5	O	1.199648	0.403328	0.259597
O6	O	1.532982	0.736662	0.592930
O7	O	0.995827	-0.004216	-0.073709
O8	O	1.329160	0.329117	0.259624
O9	O	1.662493	0.662451	0.592957
O10	O	0.980678	0.136512	-0.073744
O11	O	1.314011	0.469846	0.259589
O12	O	1.647345	0.803179	0.592922
O13	O	0.995795	-0.004212	0.073856
O14	O	1.329128	0.329122	0.407189
O15	O	1.662461	0.662455	0.740522
O16	O	0.866283	0.069999	0.073828
O17	O	1.199616	0.403333	0.407162
O18	O	1.532950	0.736666	0.740495
O19	O	1.110158	0.062305	0.073848
O20	O	1.443491	0.395639	0.407181
O21	O	1.776825	0.728972	0.740515
Zn22	Zn	0.988215	0.066153	0.097267
Zn23	Zn	1.321549	0.399486	0.430601
Zn24	Zn	1.654882	0.732820	0.763934
Zn25	Zn	0.988257	0.066148	-0.097156
Zn26	Zn	1.321591	0.399481	0.236177
Zn27	Zn	1.654924	0.732814	0.569511
O28	O	0.980646	0.136516	0.073821
O29	O	1.313980	0.469850	0.407154
O30	O	1.647313	0.803183	0.740487
C31	C	0.835108	0.069679	0.000044
C32	C	1.168442	0.403012	0.333377
C33	C	1.501775	0.736346	0.666710
C34	C	0.742170	0.068726	0.000037
C35	C	1.075504	0.402059	0.333370
C36	C	1.408837	0.735392	0.666704
C37	C	0.404467	0.065301	0.000056
C38	C	0.737800	0.398634	0.333390
C39	C	1.071134	0.731968	0.666723
C40	C	0.452585	0.012449	0.000399
C41	C	0.785918	0.345783	0.333732
C42	C	1.119252	0.679116	0.667065
C43	C	0.549263	0.013403	0.000060
C44	C	0.882596	0.346736	0.333393
C45	C	1.215930	0.680070	0.666726
C46	C	0.572006	0.067000	0.000047
C47	C	0.905339	0.400333	0.333380
C48	C	1.238672	0.733666	0.666714
C49	C	0.530599	0.093065	-0.084223
C50	C	0.863933	0.426399	0.249111
C51	C	1.197266	0.759732	0.582444
C52	C	0.433981	0.091738	-0.084287
C53	C	0.767314	0.425071	0.249047
C54	C	1.100648	0.758404	0.582380
C55	C	0.433592	0.092834	0.083522
C56	C	0.766925	0.426168	0.416855
C57	C	1.100258	0.759501	0.750189
C58	C	0.530537	0.092822	0.084630
C59	C	0.863870	0.426155	0.417963
C60	C	1.197204	0.759489	0.751296
C61	C	0.666691	0.067962	0.000039
C62	C	1.000024	0.401296	0.333372
C63	C	1.333357	0.734629	0.666706
C64	C	0.309782	0.064340	0.000058
C65	C	0.643115	0.397673	0.333392
C66	C	0.976448	0.731006	0.666725
C67	C	0.995493	-0.022222	0.000076
C68	C	1.328826	0.311111	0.333409
C69	C	1.662159	0.644445	0.666742
C70	C	0.994535	-0.075881	0.000083
C71	C	1.327868	0.257452	0.333416
C72	C	1.661202	0.590786	0.666749
C73	C	1.065040	-0.414392	0.000043
C74	C	1.398373	-0.081059	0.333376
C75	C	1.731707	0.252275	0.666709
C76	C	1.061487	-0.616067	0.000030
C77	C	1.394821	-0.282734	0.333363
C78	C	1.728154	0.050600	0.666697
O79	O	1.125959	-0.647045	-0.000004
O80	O	1.459292	-0.313711	0.333330
O81	O	1.792626	0.019622	0.666663
N82	N	0.984692	-0.635522	0.000025
N83	N	1.318026	-0.302189	0.333358
N84	N	1.651359	0.031145	0.666692
C85	C	0.908780	-0.604555	0.000017
C86	C	1.242113	-0.271221	0.333350
C87	C	1.575447	0.062112	0.666684
O88	O	0.843380	-0.625730	0.000003
O89	O	1.176713	-0.292396	0.333336
O90	O	1.510046	0.040937	0.666670
C91	C	0.912334	-0.402881	0.000023
C92	C	1.245667	-0.069547	0.333357
C93	C	1.579000	0.263786	0.666690
C94	C	0.989134	-0.383429	0.000037
C95	C	1.322467	-0.050095	0.333371
C96	C	1.655800	0.283238	0.666704
C97	C	1.141834	-0.394940	0.000056
C98	C	1.475167	-0.061606	0.333389
C99	C	1.808500	0.271727	0.666723
C100	C	1.142721	-0.344524	0.000064
C101	C	1.476054	-0.011191	0.333397
C102	C	1.809388	0.322143	0.666731
C103	C	1.066815	-0.313561	0.000059
C104	C	1.400148	0.019773	0.333392
C105	C	1.733481	0.353106	0.666725
C106	C	0.990021	-0.333013	0.000045
C107	C	1.323354	0.000320	0.333379
C108	C	1.656688	0.333654	0.666712
C109	C	0.836422	-0.371914	0.000009
C110	C	1.169755	-0.038581	0.333342
C111	C	1.503089	0.294752	0.666676
C112	C	0.837317	-0.321493	0.000008
C113	C	1.170651	0.011840	0.333342
C114	C	1.503984	0.345173	0.666675
C115	C	0.914117	-0.302041	0.000023
C116	C	1.247451	0.031292	0.333356
C117	C	1.580784	0.364625	0.666689
C118	C	0.915002	-0.251634	0.000048
C119	C	1.248335	0.081699	0.333382
C120	C	1.581668	0.415033	0.666715
N121	N	0.991797	-0.232179	0.000053
N122	N	1.325130	0.101154	0.333387
N123	N	1.658464	0.434488	0.666720
C124	C	1.067703	-0.263142	0.000059
C125	C	1.401037	0.070191	0.333392
C126	C	1.734370	0.403524	0.666725
C127	C	0.906920	-0.710437	0.000015
C128	C	1.240253	-0.377103	0.333349
C129	C	1.573586	-0.043770	0.666682
C130	C	0.906031	-0.760855	0.000015
C131	C	1.239365	-0.427522	0.333349
C132	C	1.572698	-0.094188	0.666682
C133	C	1.058739	-0.772364	0.000027
C134	C	1.392072	-0.439031	0.333360
C135	C	1.725406	-0.105697	0.666694
C136	C	1.059627	-0.721945	0.000033
C137	C	1.392960	-0.388611	0.333367
C138	C	1.726293	-0.055278	0.666700
C139	C	0.983715	-0.690982	0.000021
C140	C	1.317048	-0.357649	0.333354
C141	C	1.650382	-0.024315	0.666687
C142	C	1.069561	-0.157265	0.000076
C143	C	1.402894	0.176068	0.333410
C144	C	1.736228	0.509402	0.666743
C145	C	1.070442	-0.106844	0.000088
C146	C	1.403775	0.226489	0.333421
C147	C	1.737108	0.559822	0.666755
C148	C	0.917734	-0.095340	0.000072
C149	C	1.251068	0.237993	0.333405
C150	C	1.584401	0.571327	0.666738
C151	C	0.916853	-0.145756	0.000065
C152	C	1.250187	0.187577	0.333398
C153	C	1.583520	0.520910	0.666731
C154	C	0.992773	-0.176718	0.000064
C155	C	1.326107	0.156615	0.333397
C156	C	1.659440	0.489949	0.666731
O157	O	0.850565	-0.220628	0.000072
O158	O	1.183898	0.112706	0.333405
O159	O	1.517231	0.446039	0.666739
O160	O	1.133094	-0.241958	0.000053
O161	O	1.466428	0.091376	0.333386
O162	O	1.799761	0.424709	0.666720
C163	C	1.064153	-0.464808	0.000035
C164	C	1.397486	-0.131475	0.333368
C165	C	1.730819	0.201859	0.666701
C166	C	0.987359	-0.484260	0.000022
C167	C	1.320692	-0.150927	0.333355
C168	C	1.654026	0.182406	0.666688
C169	C	0.911452	-0.453297	0.000016
C170	C	1.244786	-0.119964	0.333350
C171	C	1.578119	0.213370	0.666683
C172	C	0.986470	-0.534679	0.000022
C173	C	1.319804	-0.201345	0.333355
C174	C	1.653137	0.131988	0.666688
C175	C	1.062377	-0.565642	0.000027
C176	C	1.395710	-0.232309	0.333360
C177	C	1.729043	0.101025	0.666693
C178	C	1.139172	-0.546187	0.000032
C179	C	1.472505	-0.212854	0.333365
C180	C	1.805838	0.120480	0.666699
C181	C	1.140059	-0.495771	0.000040
C182	C	1.473392	-0.162438	0.333373
C183	C	1.806726	0.170895	0.666707
C184	C	0.834657	-0.472752	0.000011
C185	C	1.167991	-0.139419	0.333344
C186	C	1.501324	0.193915	0.666678
C187	C	0.833776	-0.523168	0.000004
C188	C	1.167110	-0.189835	0.333337
C189	C	1.500443	0.143498	0.666671
C190	C	0.909683	-0.554132	0.000009
C191	C	1.243016	-0.220798	0.333343
C192	C	1.576349	0.112535	0.666676
C193	C	1.141364	0.062621	0.000066
C194	C	1.474698	0.395955	0.333399
C195	C	1.808031	0.729288	0.666732
C196	C	1.234302	0.063575	0.000066
C197	C	1.567636	0.396908	0.333400
C198	C	1.900969	0.730242	0.666733
C199	C	0.980980	0.154523	0.000034
C200	C	1.314313	0.487856	0.333367
C201	C	1.647647	0.821189	0.666700
C202	C	0.981938	0.208182	0.000021
C203	C	1.315271	0.541515	0.333354
C204	C	1.648604	0.874848	0.666687
N205	N	0.988193	0.066156	0.229956
N206	N	1.321526	0.399490	0.563289
N207	N	1.654860	0.732823	0.896623
N208	N	0.988287	0.066140	-0.229845
N209	N	1.321620	0.399474	0.103488
N210	N	1.654953	0.732807	0.436822
C211	C	0.988256	0.066146	0.589158
C212	C	1.321589	0.399479	0.922491
C213	C	1.654922	0.732812	1.255824
C214	C	0.918727	0.105721	0.551536
C215	C	1.252061	0.439055	0.884869
C216	C	1.585394	0.772388	1.218203
C217	C	0.918884	0.105866	0.448710
C218	C	1.252217	0.439199	0.782044
C219	C	1.585550	0.772532	1.115377
C220	C	0.988224	0.066151	0.410954
C221	C	1.321557	0.399484	0.744287
C222	C	1.654890	0.732818	1.077620
C223	C	1.075446	0.077167	0.448249
C224	C	1.408780	0.410500	0.781582
C225	C	1.742113	0.743833	1.114915
C226	C	1.075056	0.077448	0.551106
C227	C	1.408389	0.410781	0.884440
C228	C	1.741722	0.744115	1.217773
C229	C	0.971342	0.015437	0.551269
C230	C	1.304676	0.348770	0.884602
C231	C	1.638009	0.682104	1.217936
C232	C	0.969333	0.015775	0.448405
C233	C	1.302667	0.349109	0.781739
C234	C	1.636000	0.682442	1.115072
C235	C	0.988211	0.066153	0.310240
C236	C	1.321545	0.399486	0.643574
C237	C	1.654878	0.732820	0.976907
C238	C	0.988274	0.066145	0.689871
C239	C	1.321607	0.399478	1.023204
C240	C	1.654941	0.732811	1.356538
H241	H	0.544216	0.132441	-0.087365
H242	H	0.877549	0.465775	0.245968
H243	H	1.210882	0.799108	0.579302
H244	H	0.843493	-0.776688	0.000019
H245	H	1.176826	-0.443355	0.333352
H246	H	1.510160	-0.110021	0.666686
H247	H	1.090060	0.114429	0.575080
H248	H	1.423393	0.447763	0.908413
H249	H	1.756726	0.781096	1.241747
H250	H	0.771232	-0.539001	-0.000000
H251	H	1.104565	-0.205667	0.333333
H252	H	1.437899	0.127666	0.666667
H253	H	0.772844	-0.447546	0.000005
H254	H	1.106177	-0.114213	0.333338
H255	H	1.439510	0.219121	0.666671
F256	F	1.222631	-0.427887	0.000061
F257	F	1.555965	-0.094553	0.333394
F258	F	1.889298	0.238780	0.666728
H259	H	1.022054	-0.014014	0.575598
H260	H	1.355387	0.319320	0.908931
H261	H	1.688720	0.652653	1.242265
F262	F	0.754680	-0.392605	-0.000010
F263	F	1.088013	-0.059272	0.333323
F264	F	1.421346	0.274061	0.666657
H265	H	0.909157	0.004845	0.577257
H266	H	1.242490	0.338178	0.910591
H267	H	1.575823	0.671511	1.243924
F268	F	0.836954	-0.062378	0.000066
F269	F	1.170287	0.270955	0.333400
F270	F	1.503620	0.604289	0.666733
F271	F	0.410387	0.066888	-0.166612
F272	F	0.743721	0.400221	0.166722
F273	F	1.077054	0.733554	0.500055
H274	H	1.128375	0.049759	0.575992
H275	H	1.461708	0.383093	0.909325
H276	H	1.795042	0.716426	1.242658
F277	F	1.221801	-0.475076	0.000050
F278	F	1.555134	-0.141742	0.333383
F279	F	1.888468	0.191591	0.666717
F280	F	1.150364	-0.190210	0.000075
F281	F	1.483697	0.143123	0.333409
F282	F	1.817031	0.476456	0.666742
H283	H	1.128393	0.049109	0.423790
H284	H	1.461727	0.382442	0.757123
H285	H	1.795060	0.715775	1.090457
H286	H	0.905175	0.007416	0.424030
H287	H	1.238508	0.340749	0.757364
H288	H	1.571842	0.674082	1.090697
F289	F	1.095550	0.124953	0.414558
F290	F	1.428884	0.458286	0.747891
F291	F	1.762217	0.791619	1.081224
H292	H	1.016735	-0.015055	0.422708
H293	H	1.350068	0.318279	0.756041
H294	H	1.683402	0.651612	1.089374
F295	F	0.834101	0.097312	0.415751
F296	F	1.167435	0.430645	0.749084
F297	F	1.500768	0.763979	1.082418
H298	H	1.132984	-0.091010	0.000102
H299	H	1.466317	0.242324	0.333435
H300	H	1.799651	0.575657	0.666769
F301	F	0.833676	0.097279	0.583879
F302	F	1.167009	0.430612	0.917213
F303	F	1.500343	0.763945	1.250546
F304	F	0.932563	0.154632	0.585283
F305	F	1.265897	0.487965	0.918616
F306	F	1.599230	0.821298	1.251949
F307	F	0.932884	0.155055	0.416523
F308	F	1.266217	0.488389	0.749857
F309	F	1.599551	0.821722	1.083190
H310	H	1.122164	-0.706111	0.000044
H311	H	1.455497	-0.372777	0.333378
H312	H	1.788831	-0.039444	0.666711
F313	F	0.566463	0.067912	0.166115
F314	F	0.899797	0.401245	0.499449
F315	F	1.233130	0.734579	0.832782
F316	F	0.826118	-0.677489	0.000002
F317	F	1.159452	-0.344156	0.333335
F318	F	1.492785	-0.010822	0.666668
F319	F	0.568008	0.069398	-0.166187
F320	F	0.901341	0.402732	0.167147
F321	F	1.234674	0.736065	0.500480
F322	F	0.586754	-0.013379	0.079017
F323	F	0.920087	0.319955	0.412351
F324	F	1.253420	0.653288	0.745684
H325	H	1.120545	-0.797583	0.000032
H326	H	1.453878	-0.464250	0.333365
H327	H	1.787212	-0.130916	0.666698
H328	H	0.434323	-0.008675	0.060832
H329	H	0.767656	0.324658	0.394166
H330	H	1.100990	0.657992	0.727499
H331	H	0.433276	-0.008581	-0.059692
H332	H	0.766610	0.324752	0.273642
H333	H	1.099943	0.658085	0.606975
F334	F	0.391172	0.142455	-0.089297
F335	F	0.724505	0.475788	0.244036
F336	F	1.057839	0.809121	0.577369
H337	H	0.577401	-0.007228	-0.060444
H338	H	0.910734	0.326105	0.272889
H339	H	1.244067	0.659439	0.606223
H340	H	0.413266	0.075558	0.147396
H341	H	0.746599	0.408891	0.480730
H342	H	1.079933	0.742225	0.814063
F343	F	0.835115	-0.166459	0.000066
F344	F	1.168448	0.166874	0.333399
F345	F	1.501781	0.500208	0.666732
F346	F	0.391419	0.143767	0.084256
F347	F	0.724753	0.477101	0.417589
F348	F	1.058086	0.810434	0.750923
F349	F	0.549952	0.143910	0.091270
F350	F	0.883286	0.477243	0.424603
F351	F	1.216619	0.810577	0.757937
F352	F	1.219957	-0.579149	0.000043
F353	F	1.553290	-0.245816	0.333376
F354	F	1.886624	0.087517	0.666709
H355	H	1.205260	-0.328691	0.000072
H356	H	1.538593	0.004642	0.333405
H357	H	1.871926	0.337975	0.666739
F358	F	0.756519	-0.288543	-0.000007
F359	F	1.089852	0.044791	0.333326
F360	F	1.423186	0.378124	0.666660
