data_functionalizedCrystal
_audit_creation_method	'MofGen! by Chris Wilmer'
_symmetry_space_group_name_H-M	'P1'
_symmetry_Int_Tables_number	1
_symmetry_cell_setting	triclinic
loop_
_symmetry_equiv_pos_as_xyz
  x,y,z
_cell_length_a	27.731994
_cell_length_b	27.732048
_cell_length_c	26.210047
_cell_angle_alpha	90.009625
_cell_angle_beta	90.010334
_cell_angle_gamma	82.631595
loop_
_atom_site_label
_atom_site_type_symbol
_atom_site_fract_x
_atom_site_fract_y
_atom_site_fract_z
O1	O	0.640953	0.057391	0.042362
O2	O	0.500156	0.066164	0.042379
O3	O	0.574927	-0.008620	0.042360
O4	O	0.566181	0.132175	0.042381
O5	O	0.574904	-0.008620	-0.042498
O6	O	0.500132	0.066164	-0.042479
O7	O	0.640929	0.057391	-0.042496
Cu8	Cu	0.570529	0.061778	-0.050236
Cu9	Cu	0.570556	0.061778	0.050119
O10	O	0.566158	0.132175	-0.042477
C11	C	0.482137	0.065984	-0.000047
C12	C	0.428480	0.065442	-0.000041
C13	C	0.095749	0.062026	-0.046317
C14	C	-0.105909	0.059964	-0.046324
O15	O	-0.131993	0.059677	-0.085663
N16	N	-0.131111	0.059708	-0.000067
C17	C	-0.105895	0.059964	0.046193
O18	O	-0.131958	0.059694	0.085537
C19	C	0.095762	0.062023	0.046199
C20	C	0.120961	0.062283	-0.000060
C21	C	0.120948	0.062286	-0.092573
C22	C	0.171359	0.062804	-0.092571
C23	C	0.196571	0.063062	-0.046313
C24	C	0.171372	0.062801	-0.000058
C25	C	0.120978	0.062275	0.092459
C26	C	0.171396	0.062789	0.092457
C27	C	0.196595	0.063050	0.046197
C28	C	0.246996	0.063577	0.046201
N29	N	0.272198	0.063833	-0.000055
C30	C	0.246986	0.063576	-0.046312
C31	C	-0.211769	0.058885	0.046187
C32	C	-0.262183	0.058371	0.046186
C33	C	-0.262193	0.058370	-0.046331
C34	C	-0.211778	0.058887	-0.046329
C35	C	-0.186566	0.059141	-0.000069
C36	C	0.352853	0.064664	-0.046305
C37	C	0.403268	0.065184	-0.046298
C38	C	0.403274	0.065182	0.046218
C39	C	0.352863	0.064665	0.046213
C40	C	0.327654	0.064404	-0.000053
O41	O	0.273111	0.063859	0.085520
O42	O	0.273058	0.063835	-0.085650
C43	C	0.045338	0.061508	-0.046319
C44	C	0.020139	0.061247	-0.000064
C45	C	0.045351	0.061505	0.046193
C46	C	-0.030275	0.060734	-0.000065
C47	C	-0.055488	0.060476	-0.046323
C48	C	-0.030286	0.060732	-0.092579
C49	C	0.020126	0.061250	-0.092577
C50	C	0.020149	0.061249	0.092449
C51	C	-0.030262	0.060732	0.092443
C52	C	-0.055474	0.060474	0.046186
C53	C	0.574732	-0.026627	-0.000070
C54	C	0.574179	-0.080282	-0.000074
C55	C	0.614884	-0.419105	-0.000053
C56	C	0.612833	-0.620764	-0.000046
O57	O	0.650055	-0.652027	-0.000028
N58	N	0.568496	-0.639879	-0.000041
C59	C	0.524670	-0.608576	-0.000034
O60	O	0.486912	-0.629462	-0.000024
C61	C	0.526721	-0.406918	-0.000038
C62	C	0.571060	-0.387805	-0.000048
C63	C	0.659220	-0.399992	-0.000063
C64	C	0.659732	-0.349580	-0.000068
C65	C	0.615908	-0.318281	-0.000062
C66	C	0.571573	-0.337394	-0.000053
C67	C	0.482895	-0.375615	-0.000028
C68	C	0.483412	-0.325198	-0.000027
C69	C	0.527751	-0.306086	-0.000037
C70	C	0.528262	-0.255683	-0.000052
N71	N	0.572598	-0.236567	-0.000057
C72	C	0.616421	-0.267867	-0.000062
C73	C	0.523596	-0.714450	-0.000033
C74	C	0.523083	-0.764864	-0.000033
C75	C	0.611246	-0.777049	-0.000044
C76	C	0.611759	-0.726633	-0.000048
C77	C	0.567932	-0.695335	-0.000038
C78	C	0.617494	-0.161998	-0.000073
C79	C	0.618002	-0.111581	-0.000079
C80	C	0.529839	-0.099401	-0.000066
C81	C	0.529331	-0.149813	-0.000062
C82	C	0.573162	-0.181111	-0.000063
O83	O	0.491060	-0.224391	-0.000064
O84	O	0.654174	-0.246971	-0.000061
C85	C	0.614372	-0.469517	-0.000049
C86	C	0.570036	-0.488629	-0.000039
C87	C	0.526213	-0.457330	-0.000034
C88	C	0.569523	-0.539043	-0.000039
C89	C	0.613346	-0.570343	-0.000044
C90	C	0.657683	-0.551228	-0.000049
C91	C	0.658195	-0.500816	-0.000054
C92	C	0.481876	-0.476445	-0.000029
C93	C	0.481367	-0.526857	-0.000025
C94	C	0.525191	-0.558157	-0.000030
C95	C	0.658949	0.057571	-0.000068
C96	C	0.712605	0.058114	-0.000071
C97	C	0.566353	0.150182	-0.000046
C98	C	0.566906	0.203837	-0.000038
N99	N	0.570513	0.061777	-0.120820
C100	C	0.599649	0.090883	-0.473333
C101	C	0.599663	0.090882	-0.686992
O102	O	0.624425	0.115623	-0.714613
N103	N	0.570568	0.061773	-0.713714
C104	C	0.541469	0.032659	-0.687017
O105	O	0.516726	0.007895	-0.714649
C106	C	0.541458	0.032657	-0.473360
C107	C	0.570551	0.061772	-0.446641
C108	C	0.628741	0.119995	-0.446614
C109	C	0.628735	0.119997	-0.393203
C110	C	0.599637	0.090886	-0.366510
C111	C	0.570546	0.061774	-0.393229
C112	C	0.512362	0.003540	-0.446665
C113	C	0.512363	0.003542	-0.393247
C114	C	0.541456	0.032657	-0.366528
C115	C	0.541442	0.032665	-0.313126
N116	N	0.570538	0.061775	-0.286404
C117	C	0.599635	0.090885	-0.313096
C118	C	0.541476	0.032662	-0.799191
C119	C	0.541478	0.032663	-0.852605
C120	C	0.599674	0.090886	-0.852576
C121	C	0.599669	0.090888	-0.799160
C122	C	0.570572	0.061772	-0.772469
C123	C	0.599620	0.090887	-0.200928
C124	C	0.599610	0.090888	-0.147512
C125	C	0.541417	0.032663	-0.147546
C126	C	0.541425	0.032664	-0.200958
C127	C	0.570531	0.061777	-0.227647
O128	O	0.516698	0.007933	-0.285471
O129	O	0.624383	0.115637	-0.285456
C130	C	0.599655	0.090881	-0.526745
C131	C	0.570563	0.061768	-0.553464
C132	C	0.541466	0.032658	-0.526771
C133	C	0.570565	0.061769	-0.606878
C134	C	0.599663	0.090880	-0.633570
C135	C	0.628758	0.119990	-0.606848
C136	C	0.628753	0.119991	-0.553437
C137	C	0.512370	0.003548	-0.553493
C138	C	0.512378	0.003549	-0.606905
C139	C	0.541475	0.032660	-0.633597
N140	N	0.570576	0.061774	0.120703
H141	H	-0.191265	0.059100	-0.083998
C142	C	0.631675	0.122911	-0.769772
C143	C	0.608134	0.162454	-0.733049
C144	C	0.640143	0.194478	-0.703664
C145	C	0.695694	0.186960	-0.711002
C146	C	0.719238	0.147415	-0.747727
C147	C	0.687229	0.115391	-0.777112
H148	H	0.567010	0.168021	-0.727616
H149	H	0.622714	0.223751	-0.676478
H150	H	0.719389	0.210666	-0.689250
H151	H	0.760362	0.141848	-0.753161
H152	H	0.704658	0.086118	-0.804298
C153	C	0.481635	-0.064967	-0.000056
C154	C	0.445179	-0.066871	-0.044110
C155	C	0.396973	-0.032436	-0.044095
C156	C	0.385224	0.003903	-0.000026
C157	C	0.421681	0.005808	0.044031
C158	C	0.469886	-0.028627	0.044016
H159	H	0.453875	-0.093772	-0.076736
H160	H	0.369986	-0.033846	-0.076710
H161	H	0.349539	0.029394	-0.000015
H162	H	0.412984	0.032710	0.076656
H163	H	0.496874	-0.027216	0.076630
C164	C	0.199128	0.063070	0.143345
C165	C	0.198008	0.021007	0.181499
C166	C	0.225740	0.021290	0.232387
C167	C	0.254591	0.063635	0.245120
C168	C	0.255712	0.105701	0.206965
C169	C	0.227981	0.105419	0.156078
H170	H	0.176650	-0.010343	0.172074
H171	H	0.224910	-0.009851	0.260631
H172	H	0.275120	0.063845	0.282790
H173	H	0.277071	0.137051	0.216391
H174	H	0.228811	0.136559	0.127833
C175	C	0.480370	-0.028496	-0.476052
C176	C	0.440819	-0.004990	-0.512786
C177	C	0.408831	-0.037033	-0.542174
C178	C	0.416394	-0.092582	-0.534828
C179	C	0.455947	-0.116091	-0.498093
C180	C	0.487935	-0.084049	-0.468704
H181	H	0.435219	0.036134	-0.518225
H182	H	0.379552	-0.019629	-0.569368
H183	H	0.392715	-0.116302	-0.556583
H184	H	0.461547	-0.157215	-0.492653
H185	H	0.517214	-0.101452	-0.441510
C186	C	0.706970	-0.479798	-0.000060
C187	C	0.743255	-0.491770	-0.044127
C188	C	0.792032	-0.470757	-0.044131
C189	C	0.804525	-0.437770	-0.000069
C190	C	0.768240	-0.425796	0.044001
C191	C	0.719462	-0.446809	0.044006
H192	H	0.734007	-0.516190	-0.076747
H193	H	0.818893	-0.479621	-0.076755
H194	H	0.840633	-0.422215	-0.000072
H195	H	0.777487	-0.401376	0.076622
H196	H	0.692601	-0.437945	0.076630
H197	H	0.652448	0.143695	-0.628591
H198	H	0.488681	-0.020159	-0.628655
C199	C	0.705889	-0.585663	-0.000053
C200	C	0.717645	-0.622009	-0.044115
C201	C	0.765848	-0.656447	-0.044115
C202	C	0.802296	-0.654539	-0.000055
C203	C	0.790541	-0.618192	0.044010
C204	C	0.742338	-0.583754	0.044011
H205	H	0.690663	-0.623423	-0.076734
H206	H	0.774549	-0.683354	-0.076735
H207	H	0.837979	-0.680032	-0.000055
H208	H	0.817523	-0.616778	0.076630
H209	H	0.733637	-0.556847	0.076631
H210	H	0.623364	0.114591	-0.874318
H211	H	0.623302	0.114599	-0.125760
C212	C	0.665708	-0.196420	-0.000078
C213	C	0.677503	-0.232746	0.043986
C214	C	0.725716	-0.267168	0.043976
C215	C	0.762136	-0.265264	-0.000097
C216	C	0.750342	-0.228937	-0.044165
C217	C	0.702129	-0.194515	-0.044155
H218	H	0.650542	-0.234156	0.076615
H219	H	0.734446	-0.294060	0.076598
H220	H	0.797826	-0.290745	-0.000104
H221	H	0.777303	-0.227526	-0.076793
H222	H	0.693399	-0.167623	-0.076777
C223	C	0.432589	-0.547876	-0.000014
C224	C	0.396277	-0.535921	-0.044070
C225	C	0.347501	-0.556937	-0.044054
C226	C	0.335036	-0.589907	0.000019
C227	C	0.371349	-0.601863	0.044078
C228	C	0.420125	-0.580847	0.044062
H229	H	0.405504	-0.511513	-0.076697
H230	H	0.320620	-0.548086	-0.076669
H231	H	0.298929	-0.605464	0.000030
H232	H	0.362122	-0.626271	0.076706
H233	H	0.447006	-0.589698	0.076678
H234	H	0.423782	0.065398	-0.083970
H235	H	0.517782	0.008961	-0.874355
C236	C	0.659453	-0.811483	-0.000045
C237	C	0.695885	-0.809593	-0.044109
C238	C	0.744090	-0.844030	-0.044106
C239	C	0.755862	-0.880356	-0.000039
C240	C	0.719429	-0.882248	0.044029
C241	C	0.671224	-0.847811	0.044025
H242	H	0.687172	-0.782701	-0.076734
H243	H	0.771060	-0.842630	-0.076728
H244	H	0.791545	-0.905848	-0.000036
H245	H	0.728142	-0.909140	0.076653
H246	H	0.644254	-0.849211	0.076647
C247	C	0.660745	0.152020	-0.363818
C248	C	0.700296	0.128493	-0.327095
C249	C	0.732310	0.160516	-0.297715
C250	C	0.724774	0.216066	-0.305059
C251	C	0.685221	0.239595	-0.341783
C252	C	0.653207	0.207572	-0.371163
H253	H	0.705876	0.087369	-0.321658
H254	H	0.761589	0.143097	-0.270530
H255	H	0.748473	0.239771	-0.283310
H256	H	0.679641	0.280719	-0.347220
H257	H	0.623928	0.224991	-0.398349
C258	C	-0.057978	0.060444	0.143333
C259	C	-0.098444	0.102076	0.156070
C260	C	-0.126157	0.101783	0.206957
C261	C	-0.113405	0.059860	0.245107
C262	C	-0.072937	0.018225	0.232370
C263	C	-0.045224	0.018517	0.181483
H264	H	-0.107886	0.133113	0.127829
H265	H	-0.156114	0.132604	0.216385
H266	H	-0.133920	0.059643	0.282776
H267	H	-0.063495	-0.012812	0.260612
H268	H	-0.015267	-0.012303	0.172055
H269	H	0.040672	0.061457	0.130118
C270	C	0.660759	0.152017	-0.524051
C271	C	0.716310	0.144497	-0.531388
C272	C	0.748319	0.176524	-0.502007
C273	C	0.724778	0.216070	-0.465288
C274	C	0.669225	0.223591	-0.457949
C275	C	0.637215	0.191565	-0.487331
H276	H	0.733739	0.115221	-0.558571
H277	H	0.789444	0.170956	-0.507440
H278	H	0.748473	0.239778	-0.443538
H279	H	0.651795	0.252867	-0.430766
H280	H	0.596091	0.197133	-0.481898
H281	H	0.647863	-0.711076	-0.000056
H282	H	0.652438	0.143701	-0.468341
H283	H	0.486977	-0.780420	-0.000034
C284	C	0.509462	0.000637	-0.769836
C285	C	0.516998	-0.054913	-0.777197
C286	C	0.484981	-0.086936	-0.747845
C287	C	0.445427	-0.063409	-0.711133
C288	C	0.437889	-0.007857	-0.703770
C289	C	0.469906	0.024166	-0.733122
H290	H	0.546280	-0.072331	-0.804375
H291	H	0.490561	-0.128060	-0.753296
H292	H	0.421726	-0.087114	-0.689405
H293	H	0.408607	0.009562	-0.676592
H294	H	0.464326	0.065290	-0.727671
H295	H	-0.282697	0.058166	0.083855
C296	C	0.093270	0.061986	0.143347
C297	C	0.106025	0.020062	0.181496
C298	C	0.078319	0.019773	0.232388
C299	C	0.037859	0.061407	0.245131
C300	C	0.025102	0.103334	0.206982
C301	C	0.052808	0.103624	0.156090
H302	H	0.135978	-0.010761	0.172063
H303	H	0.087763	-0.011265	0.260629
H304	H	0.017350	0.061193	0.282805
H305	H	-0.004851	0.134158	0.216414
H306	H	0.043364	0.134661	0.127849
C307	C	0.434118	-0.396626	-0.000013
C308	C	0.397807	-0.384663	-0.044068
C309	C	0.349026	-0.405671	-0.044052
C310	C	0.336556	-0.438641	0.000018
C311	C	0.372869	-0.450606	0.044076
C312	C	0.421650	-0.429598	0.044060
H313	H	0.407036	-0.360255	-0.076694
H314	H	0.322145	-0.396814	-0.076667
H315	H	0.300446	-0.454192	0.000029
H316	H	0.363639	-0.475014	0.076702
H317	H	0.448531	-0.438455	0.076675
C318	C	0.431016	0.065464	0.097099
C319	C	0.429902	0.023399	0.135251
C320	C	0.457647	0.023677	0.186131
C321	C	0.486504	0.066019	0.198859
C322	C	0.487619	0.108088	0.160706
C323	C	0.459874	0.107810	0.109825
H324	H	0.408539	-0.007948	0.125830
H325	H	0.456822	-0.007465	0.214375
H326	H	0.507042	0.066225	0.236524
H327	H	0.508982	0.139435	0.170126
H328	H	0.460699	0.138952	0.081582
H329	H	0.332344	0.064460	0.083880
C330	C	0.666779	-0.090559	-0.000088
C331	C	0.679247	-0.057587	-0.044158
C332	C	0.728021	-0.036568	-0.044166
C333	C	0.764328	-0.048519	-0.000104
C334	C	0.751860	-0.081493	0.043969
C335	C	0.703086	-0.102513	0.043976
H336	H	0.652370	-0.048738	-0.076778
H337	H	0.737250	-0.012159	-0.076791
H338	H	0.800433	-0.032959	-0.000110
H339	H	0.778737	-0.090342	0.076588
H340	H	0.693857	-0.126922	0.076602
H341	H	0.332333	0.064456	-0.083978
C342	C	0.480354	-0.028486	-0.363887
C343	C	0.487899	-0.084036	-0.371241
C344	C	0.455890	-0.116062	-0.341882
C345	C	0.416336	-0.092538	-0.305168
C346	C	0.408789	-0.036984	-0.297813
C347	C	0.440798	-0.004958	-0.327172
H348	H	0.517181	-0.101453	-0.398420
H349	H	0.461477	-0.157186	-0.347327
H350	H	0.392641	-0.116245	-0.283435
H351	H	0.379507	-0.019567	-0.270634
H352	H	0.435211	0.036166	-0.321726
H353	H	0.487905	-0.688970	-0.000026
H354	H	0.191872	0.063014	-0.130240
H355	H	0.040638	0.061463	-0.130246
C356	C	0.435201	-0.290770	-0.000019
C357	C	0.423441	-0.254428	0.044045
C358	C	0.375230	-0.220000	0.044052
C359	C	0.338780	-0.221915	-0.000006
C360	C	0.350540	-0.258258	-0.044074
C361	C	0.398750	-0.292685	-0.044080
H362	H	0.450424	-0.253009	0.076662
H363	H	0.366526	-0.193097	0.076674
H364	H	0.303092	-0.196430	-0.000001
H365	H	0.323556	-0.259676	-0.076691
H366	H	0.407455	-0.319589	-0.076702
C367	C	0.093221	0.062005	-0.143462
C368	C	0.094350	0.104069	-0.181611
C369	C	0.066627	0.103792	-0.232504
C370	C	0.037774	0.061450	-0.245248
C371	C	0.036643	0.019382	-0.207097
C372	C	0.064366	0.019659	-0.156204
H373	H	0.115710	0.135416	-0.172179
H374	H	0.067464	0.134934	-0.260746
H375	H	0.017252	0.061245	-0.282922
H376	H	0.015283	-0.011965	-0.216530
H377	H	0.063529	-0.011482	-0.127963
H378	H	-0.050822	0.060525	-0.130243
H379	H	-0.282730	0.058161	-0.083996
H380	H	-0.191246	0.059091	0.083860
H381	H	0.695837	-0.334024	-0.000074
H382	H	0.694908	-0.425472	-0.000065
H383	H	0.517729	0.008962	-0.222713
H384	H	0.493226	-0.165375	-0.000068
H385	H	0.623321	0.114594	-0.222653
H386	H	0.446189	-0.450966	-0.000023
H387	H	0.517726	0.008963	-0.125804
H388	H	0.488676	-0.020159	-0.531766
