data_functionalizedCrystal
_audit_creation_method	'MofGen! by Chris Wilmer'
_symmetry_space_group_name_H-M	'P1'
_symmetry_Int_Tables_number	1
_symmetry_cell_setting	triclinic
loop_
_symmetry_equiv_pos_as_xyz
  x,y,z
_cell_length_a	10.489741
_cell_length_b	10.489716
_cell_length_c	9.130313
_cell_angle_alpha	90.003147
_cell_angle_beta	89.995761
_cell_angle_gamma	95.465845
loop_
_atom_site_label
_atom_site_type_symbol
_atom_site_fract_x
_atom_site_fract_y
_atom_site_fract_z
O1	O	0.179819	-1.694070	-0.121787
O2	O	0.196744	-1.322870	-0.121792
O3	O	0.002683	-1.516917	-0.121781
O4	O	0.373880	-1.500024	-0.121798
O5	O	0.002677	-1.516903	0.121818
O6	O	0.196738	-1.322857	0.121807
O7	O	0.179813	-1.694057	0.121812
Cu8	Cu	0.188275	-1.508456	0.144052
Cu9	Cu	0.188282	-1.508471	-0.144032
O10	O	0.373874	-1.500010	0.121801
C11	C	-0.044852	-1.515634	0.000018
C12	C	-0.186481	-1.511817	0.000015
C13	C	0.195470	-1.275332	0.000007
C14	C	0.191665	-1.133701	0.000005
C15	C	0.181087	-1.741596	0.000010
C16	C	0.184892	-1.883227	0.000002
C17	C	-0.254610	-1.388351	0.000003
C18	C	-0.346740	-1.446669	0.120110
C19	C	-0.346709	-1.446711	-0.120059
C20	C	-0.276746	-1.570185	0.120222
C21	C	-0.276705	-1.570211	-0.120055
C22	C	-0.368808	-1.628618	0.000082
C23	C	0.421409	-1.501293	-0.000001
C24	C	0.563038	-1.505110	-0.000008
C25	C	0.310669	-1.036027	-0.000004
C26	C	0.247782	-0.958674	0.120112
C27	C	0.247760	-0.958694	-0.120057
C28	C	0.128827	-1.058213	0.120220
C29	C	0.128822	-1.058239	-0.120057
C30	C	0.065848	-0.980935	0.000089
N31	N	0.188270	-1.508454	0.346675
N32	N	0.188277	-1.508483	-0.346655
C33	C	0.102376	-1.594407	0.423332
C34	C	0.102376	-1.594419	0.576668
C35	C	0.274175	-1.422521	0.576678
C36	C	0.274168	-1.422504	0.423344
H37	H	-0.377750	-1.394422	0.221651
N38	N	0.361916	-1.334721	0.345008
N39	N	0.361896	-1.334724	0.208104
H40	H	0.423864	-1.272730	0.152775
H41	H	-0.204950	-1.286838	0.000122
H42	H	0.032432	-1.664408	0.639078
H43	H	0.032430	-1.664391	0.360911
N44	N	0.310817	-0.904180	-0.247442
N45	N	0.359616	-0.974721	-0.337814
H46	H	0.404160	-0.936225	-0.427776
N47	N	-0.238108	-1.635645	0.247770
N48	N	-0.320079	-1.679389	0.338602
H49	H	-0.292790	-1.725615	0.428685
N50	N	-0.430811	-1.756082	0.000173
N51	N	-0.412354	-1.830414	0.103391
H52	H	-0.456143	-1.920436	0.103462
N53	N	-0.385566	-1.381142	-0.247427
N54	N	-0.344425	-1.266876	-0.268793
H55	H	-0.371864	-1.220558	-0.358740
N56	N	0.361901	-1.334720	0.655000
N57	N	0.320657	-1.255187	0.740585
H58	H	0.382615	-1.193175	0.795900
N59	N	-0.237772	-1.635693	-0.247453
N60	N	-0.259828	-1.593629	-0.372075
H61	H	-0.232329	-1.639867	-0.462063
H62	H	0.414185	-1.060696	0.000103
H63	H	0.298017	-0.915186	0.221655
H64	H	0.078617	-1.101524	0.221870
H65	H	-0.037744	-0.956505	0.000163
H66	H	0.078626	-1.101740	-0.221605
