data_functionalizedCrystal
_audit_creation_method	'MofGen! by Chris Wilmer'
_symmetry_space_group_name_H-M	'P1'
_symmetry_Int_Tables_number	1
_symmetry_cell_setting	triclinic
loop_
_symmetry_equiv_pos_as_xyz
  x,y,z
_cell_length_a	23.532361
_cell_length_b	22.010155
_cell_length_c	10.540539
_cell_angle_alpha	90.006440
_cell_angle_beta	96.322420
_cell_angle_gamma	90.004127
loop_
_atom_site_label
_atom_site_type_symbol
_atom_site_fract_x
_atom_site_fract_y
_atom_site_fract_z
O1	O	0.756297	0.050462	-0.153782
O2	O	1.256297	0.550462	0.346218
O3	O	0.590577	0.050476	-0.176138
O4	O	1.090577	0.550476	0.323862
O5	O	0.677218	0.050468	0.019872
O6	O	1.177218	0.550468	0.519872
O7	O	0.669656	0.050470	-0.349792
O8	O	1.169656	0.550470	0.150208
O9	O	0.677202	-0.050583	0.019843
O10	O	1.177202	0.449417	0.519843
O11	O	0.590562	-0.050575	-0.176167
O12	O	1.090562	0.449425	0.323833
O13	O	0.756281	-0.050589	-0.153811
O14	O	1.256281	0.449411	0.346189
Cu15	Cu	0.673420	-0.059808	-0.164992
Cu16	Cu	1.173420	0.440192	0.335008
Cu17	Cu	0.673438	0.059695	-0.164957
Cu18	Cu	1.173438	0.559695	0.335043
O19	O	0.669640	-0.050581	-0.349821
O20	O	1.169640	0.449419	0.150179
C21	C	0.569349	-0.000048	-0.175593
C22	C	1.069349	0.499952	0.324407
C23	C	0.506120	-0.000042	-0.173909
C24	C	1.006120	0.499958	0.326091
C25	C	0.232836	0.055037	-0.166531
C26	C	0.732836	0.555037	0.333469
C27	C	0.292246	0.055038	-0.168124
C28	C	0.792246	0.555038	0.331876
O29	O	0.322984	0.101883	-0.168891
O30	O	0.822984	0.601883	0.331109
N31	N	0.321948	-0.000044	-0.168945
N32	N	0.821948	0.499956	0.331055
C33	C	0.292238	-0.055132	-0.168160
C34	C	0.792238	0.444868	0.331840
O35	O	0.322958	-0.101984	-0.169003
O36	O	0.822958	0.398016	0.330997
C37	C	0.232830	-0.055133	-0.166557
C38	C	0.732830	0.444867	0.333443
C39	C	0.203129	-0.000047	-0.165749
C40	C	0.703129	0.499953	0.334251
C41	C	0.203136	0.110119	-0.165722
C42	C	0.703136	0.610119	0.334278
C43	C	0.143729	0.110117	-0.164131
C44	C	0.643729	0.610117	0.335869
C45	C	0.114023	0.055033	-0.163349
C46	C	0.614023	0.555033	0.336651
C47	C	0.143723	-0.000049	-0.164159
C48	C	0.643723	0.499951	0.335841
C49	C	0.203121	-0.110220	-0.165763
C50	C	0.703121	0.389780	0.334237
C51	C	0.143708	-0.110217	-0.164159
C52	C	0.643708	0.389783	0.335841
C53	C	0.114008	-0.055130	-0.163351
C54	C	0.614008	0.444870	0.336649
C55	C	0.054611	-0.055134	-0.161786
C56	C	0.554611	0.444866	0.338214
N57	N	0.024908	-0.000051	-0.160965
N58	N	0.524908	0.499949	0.339035
C59	C	0.054614	0.055032	-0.161747
C60	C	0.554614	0.555032	0.338253
C61	C	0.417001	-0.055126	-0.171523
C62	C	0.917001	0.444874	0.328477
C63	C	0.476408	-0.055126	-0.173134
C64	C	0.976408	0.444874	0.326866
C65	C	0.476412	0.055045	-0.173097
C66	C	0.976412	0.555045	0.326903
C67	C	0.417003	0.055044	-0.171494
C68	C	0.917003	0.555044	0.328506
C69	C	0.387298	-0.000044	-0.170702
C70	C	0.887298	0.499956	0.329298
C71	C	-0.070143	0.055025	-0.158407
C72	C	0.429857	0.555025	0.341593
C73	C	-0.129555	0.055018	-0.156821
C74	C	0.370445	0.555018	0.343179
C75	C	-0.129553	-0.055152	-0.156853
C76	C	0.370447	0.444848	0.343147
C77	C	-0.070147	-0.055146	-0.158445
C78	C	0.429853	0.444854	0.341555
C79	C	-0.040443	-0.000053	-0.159218
C80	C	0.459557	0.499947	0.340782
O81	O	0.023835	-0.101955	-0.161013
O82	O	0.523835	0.398045	0.338987
O83	O	0.023889	0.101877	-0.160886
O84	O	0.523889	0.601877	0.339114
N85	N	0.673411	-0.143861	-0.165016
N86	N	1.173411	0.356139	0.334984
C87	C	0.711805	-0.563644	-0.078176
C88	C	1.211805	-0.063644	0.421824
C89	C	0.711808	-0.627251	-0.078167
C90	C	1.211808	-0.127251	0.421833
O91	O	0.744429	-0.660146	-0.004350
O92	O	1.244429	-0.160146	0.495650
N93	N	0.673438	-0.659068	-0.164931
N94	N	1.173438	-0.159068	0.335069
C95	C	0.635059	-0.627274	-0.251700
C96	C	1.135059	-0.127274	0.248300
O97	O	0.602423	-0.660177	-0.325497
O98	O	1.102423	-0.160177	0.174503
C99	C	0.635054	-0.563667	-0.251701
C100	C	1.135054	-0.063667	0.248299
C101	C	0.673431	-0.531854	-0.164941
C102	C	1.173431	-0.031854	0.335059
C103	C	0.750178	-0.531831	0.008578
C104	C	1.250178	-0.031831	0.508578
C105	C	0.750176	-0.468227	0.008567
C106	C	1.250176	0.031773	0.508567
C107	C	0.711801	-0.436437	-0.078198
C108	C	1.211801	0.063563	0.421802
C109	C	0.673428	-0.468251	-0.164952
C110	C	1.173428	0.031749	0.335048
C111	C	0.596673	-0.531874	-0.338463
C112	C	1.096673	-0.031874	0.161537
C113	C	0.596671	-0.468263	-0.338457
C114	C	1.096671	0.031737	0.161543
C115	C	0.635048	-0.436450	-0.251697
C116	C	1.135048	0.063550	0.248303
C117	C	0.635052	-0.372858	-0.251727
C118	C	1.135052	0.127142	0.248273
N119	N	0.673422	-0.341041	-0.164964
N120	N	1.173422	0.158959	0.335036
C121	C	0.711796	-0.372831	-0.078199
C122	C	1.211796	0.127169	0.421801
C123	C	0.635072	-0.760851	-0.251688
C124	C	1.135072	-0.260851	0.248312
C125	C	0.635079	-0.824457	-0.251693
C126	C	1.135079	-0.324457	0.248307
C127	C	0.711827	-0.824430	-0.078159
C128	C	1.211827	-0.324430	0.421841
C129	C	0.711822	-0.760824	-0.078161
C130	C	1.211822	-0.260824	0.421839
C131	C	0.673442	-0.729035	-0.164925
C132	C	1.173442	-0.229035	0.335075
C133	C	0.711789	-0.239260	-0.078229
C134	C	1.211789	0.260740	0.421771
C135	C	0.711786	-0.175651	-0.078251
C136	C	1.211786	0.324349	0.421749
C137	C	0.635036	-0.175683	-0.251780
C138	C	1.135036	0.324317	0.248220
C139	C	0.635041	-0.239286	-0.251763
C140	C	1.135041	0.260714	0.248237
C141	C	0.673420	-0.271073	-0.164977
C142	C	1.173420	0.228927	0.335023
O143	O	0.602445	-0.339923	-0.325503
O144	O	1.102445	0.160077	0.174497
O145	O	0.744422	-0.339920	-0.004403
O146	O	1.244422	0.160080	0.495597
C147	C	0.777509	-0.000064	-0.154356
C148	C	1.277509	0.499936	0.345644
C149	C	0.840739	-0.000066	-0.156040
C150	C	1.340739	0.499934	0.343960
C151	C	0.676643	-0.000056	0.067142
C152	C	1.176643	0.499944	0.567142
C153	C	0.674946	-0.000053	0.208033
C154	C	1.174946	0.499947	0.708033
N155	N	0.673452	0.143748	-0.164923
N156	N	1.173452	0.643748	0.335077
C157	C	0.670215	-0.000055	-0.397091
C158	C	1.170215	0.499945	0.102909
C159	C	0.671912	-0.000055	-0.537982
C160	C	1.171912	0.499945	-0.037982
C161	C	0.609936	0.000179	0.389303
C162	C	1.109936	0.500179	0.889303
C163	C	0.611656	-0.000048	0.242741
C164	C	1.111656	0.499952	0.742741
C165	C	0.705395	-0.057760	0.270685
C166	C	1.205395	0.442240	0.770685
C167	C	0.703235	-0.057809	0.417158
C168	C	1.203235	0.442191	0.917158
C169	C	0.704541	0.057104	0.417752
C170	C	1.204541	0.557104	0.917752
C171	C	0.705124	0.057867	0.270790
C172	C	1.205124	0.557867	0.770790
H173	H	0.500583	-0.099983	-0.173813
H174	H	1.000583	0.400017	0.326187
H175	H	-0.045965	0.099887	-0.159038
H176	H	0.454035	0.599887	0.340962
F177	F	0.752637	-0.273080	0.014139
F178	F	1.252637	0.226920	0.514139
F179	F	0.555819	-0.434435	-0.430803
F180	F	1.055819	0.065565	0.069197
H181	H	0.392825	0.099900	-0.170836
H182	H	0.892825	0.599900	0.329164
H183	H	0.743038	-0.149750	-0.007600
H184	H	1.243038	0.350250	0.492400
H185	H	0.603798	-0.265189	-0.322423
H186	H	1.103798	0.234811	0.177577
H187	H	0.751874	-0.059910	0.249873
H188	H	1.251874	0.440090	0.749873
F189	F	0.791018	-0.434375	0.100914
F190	F	1.291018	0.065625	0.600914
F191	F	0.594241	-0.858308	-0.344051
F192	F	1.094241	-0.358308	0.155949
H193	H	0.585030	-0.040968	0.418672
H194	H	1.085030	0.459032	0.918672
F195	F	0.791024	-0.565655	0.100934
F196	F	1.291024	-0.065655	0.600934
F197	F	0.762728	-0.061242	0.481834
F198	F	1.262728	0.438758	0.981834
H199	H	0.119553	0.154974	-0.163467
H200	H	0.619553	0.654974	0.336533
H201	H	0.743071	-0.734925	-0.007513
H202	H	1.243071	-0.234925	0.492487
H203	H	0.682844	0.100557	0.229204
H204	H	1.182844	0.600557	0.729204
H205	H	0.119525	-0.155077	-0.163525
H206	H	0.619525	0.344923	0.336475
H207	H	0.227293	-0.155078	-0.166417
H208	H	0.727293	0.344922	0.333583
F209	F	0.594197	-0.141840	-0.344120
F210	F	1.094197	0.358160	0.155880
H211	H	-0.153751	-0.100000	-0.156221
H212	H	0.346249	0.400000	0.343779
H213	H	0.500609	0.099897	-0.173732
H214	H	1.000609	0.599897	0.326268
H215	H	0.392818	-0.099988	-0.170894
H216	H	0.892818	0.400012	0.329106
F217	F	0.677733	-0.113887	0.214075
F218	F	1.177733	0.386113	0.714075
F219	F	0.752668	-0.858276	0.014186
F220	F	1.252668	-0.358276	0.514186
H221	H	0.227317	0.154977	-0.166354
H222	H	0.727317	0.654977	0.333646
F223	F	0.673802	-0.114186	0.453027
F224	F	1.173802	0.385814	0.953027
H225	H	0.565424	-0.557767	-0.409110
H226	H	1.065424	-0.057767	0.090890
F227	F	0.594223	-0.727024	-0.344048
F228	F	1.094223	-0.227024	0.155952
F229	F	0.580339	0.054021	0.186028
F230	F	1.080339	0.554021	0.686028
H231	H	0.684063	0.100842	0.448638
H232	H	1.184063	0.600842	0.948638
F233	F	-0.038538	-0.113775	-0.159322
F234	F	0.461462	0.386225	0.340678
F235	F	0.577264	0.054271	0.425612
F236	F	1.077264	0.554271	0.925612
H237	H	0.587515	-0.041480	0.200172
H238	H	1.087515	0.458520	0.700172
F239	F	0.765437	0.062421	0.241128
F240	F	1.265437	0.562421	0.741128
H241	H	-0.153734	0.099878	-0.156167
H242	H	0.346266	0.599878	0.343833
F243	F	0.764292	0.057608	0.481464
F244	F	1.264292	0.557608	0.981464
