data_functionalizedCrystal
_audit_creation_method	'MofGen! by Chris Wilmer'
_symmetry_space_group_name_H-M	'P1'
_symmetry_Int_Tables_number	1
_symmetry_cell_setting	triclinic
loop_
_symmetry_equiv_pos_as_xyz
  x,y,z
_cell_length_a	16.994737
_cell_length_b	11.169417
_cell_length_c	11.169416
_cell_angle_alpha	90.011219
_cell_angle_beta	89.975325
_cell_angle_gamma	89.991189
loop_
_atom_site_label
_atom_site_type_symbol
_atom_site_fract_x
_atom_site_fract_y
_atom_site_fract_z
Zn1	Zn	0.445965	-1.834832	0.477755
Zn2	Zn	0.314074	-1.834760	0.678474
Zn3	Zn	0.314082	-1.634156	0.477807
Zn4	Zn	0.445943	-1.634125	0.678398
O5	O	0.380016	-1.734468	0.578109
O6	O	0.428475	-2.002772	0.504391
O7	O	0.203694	-1.808132	0.651908
O8	O	0.331589	-1.660820	0.309850
O9	O	0.331575	-2.002719	0.651859
O10	O	0.428483	-1.808255	0.309812
O11	O	0.203700	-1.660750	0.504479
O12	O	0.331568	-1.466203	0.504405
O13	O	0.556327	-1.660767	0.651729
O14	O	0.428446	-1.466180	0.651779
O15	O	0.556343	-1.808225	0.504318
O16	O	0.331554	-1.808102	0.846414
O17	O	0.428438	-1.660697	0.846358
C18	C	0.380010	-1.734421	0.889933
C19	C	0.380034	-1.734510	1.023333
C20	C	0.380006	-1.422644	0.578090
C21	C	0.380020	-1.289244	0.578111
C22	C	0.675076	-1.734539	0.577981
C23	C	0.585754	-1.734508	0.578020
C24	C	0.175076	-1.734503	0.578112
C25	C	0.085754	-1.734726	0.577810
Zn26	Zn	0.945937	-1.835207	0.677934
Zn27	Zn	0.945972	-1.634224	0.477647
Zn28	Zn	0.814100	-1.634462	0.678396
Zn29	Zn	0.814056	-1.834788	0.477373
O30	O	0.880016	-1.734670	0.577838
O31	O	1.056323	-1.808622	0.651287
O32	O	0.928511	-1.466306	0.504585
O33	O	0.831593	-1.661366	0.846284
O34	O	1.056348	-1.660960	0.504137
O35	O	0.928453	-1.808853	0.845945
O36	O	0.831626	-1.466481	0.652074
O37	O	0.703713	-1.660960	0.651808
O38	O	0.831518	-2.002793	0.503670
O39	O	0.703681	-1.808139	0.504118
O40	O	0.928410	-2.003101	0.651021
O41	O	0.928469	-1.660554	0.309662
O42	O	0.831551	-1.807908	0.309460
C43	C	0.380027	-2.047511	0.578128
C44	C	0.380031	-2.180911	0.578136
C45	C	0.380039	-1.734549	0.265066
C46	C	0.380049	-1.734583	0.131666
C47	C	0.880010	-1.734154	0.266013
C48	C	0.880027	-1.733895	0.132614
C49	C	0.879955	-2.047712	0.577264
C50	C	0.879929	-2.181112	0.577019
C51	C	0.879977	-1.735254	0.890879
C52	C	0.879840	-1.735685	1.024278
C53	C	0.880121	-1.422846	0.578494
C54	C	0.880295	-1.289448	0.579069
