data_functionalizedCrystal
_audit_creation_method	'MofGen! by Chris Wilmer'
_symmetry_space_group_name_H-M	'P1'
_symmetry_Int_Tables_number	1
_symmetry_cell_setting	triclinic
loop_
_symmetry_equiv_pos_as_xyz
  x,y,z
_cell_length_a	18.101397
_cell_length_b	13.032951
_cell_length_c	13.032268
_cell_angle_alpha	89.114265
_cell_angle_beta	97.146182
_cell_angle_gamma	97.178341
loop_
_atom_site_label
_atom_site_type_symbol
_atom_site_fract_x
_atom_site_fract_y
_atom_site_fract_z
Zn1	Zn	-0.500182	-1.498455	-0.780837
Zn2	Zn	-0.610520	-1.520193	-0.608849
Zn3	Zn	-0.469240	-1.348315	-0.587076
Zn4	Zn	-0.606509	-1.326442	-0.758969
O5	O	-0.546613	-1.423351	-0.683933
O6	O	-0.529446	-1.645258	-0.776286
O7	O	-0.580508	-1.515644	-0.462046
O8	O	-0.369720	-1.368288	-0.612819
O9	O	-0.610511	-1.661229	-0.649927
O10	O	-0.392453	-1.478595	-0.755174
O11	O	-0.476711	-1.389366	-0.446049
O12	O	-0.472821	-1.201494	-0.591615
O13	O	-0.603675	-1.331008	-0.905785
O14	O	-0.573672	-1.185424	-0.717904
O15	O	-0.525557	-1.457385	-0.921852
O16	O	-0.713612	-1.494435	-0.628723
O17	O	-0.710665	-1.352087	-0.739016
C18	C	-0.519454	-1.156142	-0.650024
C19	C	-0.507856	-1.041826	-0.635542
C20	C	-0.739012	-1.423271	-0.683885
C21	C	-0.821333	-1.423327	-0.683911
C22	C	-0.552649	-0.982948	-0.691477
C23	C	-0.540662	-0.864796	-0.676511
C24	C	-0.972051	-1.423385	-0.683954
C25	C	-1.005241	-1.513015	-0.614647
C26	C	-1.090817	-1.512854	-0.614330
C27	C	-1.120442	-1.423443	-0.683996
C28	C	-1.076119	-1.318685	-0.641072
C29	C	-0.990470	-1.319184	-0.640529
C30	C	-1.014925	-1.437553	-0.796272
C31	C	-1.100777	-1.440052	-0.796020
C32	C	-1.204306	-1.423470	-0.684021
C33	C	-0.888186	-1.423351	-0.683925
C34	C	-0.353467	-1.423457	-0.684007
C35	C	-0.271160	-1.423501	-0.684039
C36	C	-0.567620	-1.389332	-0.952178
C37	C	-0.576572	-1.374835	-1.066487
C38	C	-0.573869	-0.691604	-0.717968
C39	C	-0.585461	-0.805920	-0.732454
C40	C	-0.541912	-1.430901	-1.125400
C41	C	-0.551164	-1.415919	-1.243545
C42	C	-0.525640	-1.457297	-0.416739
C43	C	-0.516499	-1.471993	-0.302455
H44	H	-0.599869	-1.020012	-0.750449
H45	H	-1.094691	-1.250699	-0.689412
H46	H	-0.632683	-0.842978	-0.791433
C47	C	-0.492567	-1.510730	-1.075379
N48	N	-0.455400	-1.570860	-1.037706
C49	C	-1.132113	-1.618373	-0.652717
N50	N	-1.163214	-1.697857	-0.681622
H51	H	-0.613090	-1.315737	-1.103516
C52	C	-0.999164	-1.538002	-0.845500
N53	N	-0.987293	-1.613667	-0.882568
H54	H	-0.460630	-1.004761	-0.576578
H55	H	-0.994208	-1.591381	-0.642884
C56	C	-0.600506	-1.336079	-1.293560
N57	N	-0.637669	-1.275945	-1.331233
C58	C	-0.476860	-0.814734	-0.596842
N59	N	-0.428806	-0.777025	-0.536835
C60	C	-0.965230	-1.502016	-0.503247
N61	N	-0.935094	-1.493727	-0.419340
H62	H	-1.103151	-1.504563	-0.531397
C63	C	-1.141445	-1.544109	-0.839421
N64	N	-1.172081	-1.622485	-0.872108
C65	C	-0.985858	-1.349143	-0.866260
N66	N	-0.963959	-1.282552	-0.918968
H67	H	-0.479969	-1.531083	-1.265431
H68	H	-0.961903	-1.305603	-0.558026
C69	C	-0.959919	-1.226889	-0.704786
N70	N	-0.936911	-1.157374	-0.753186
C71	C	-1.128900	-1.356844	-0.871005
N72	N	-1.150079	-1.294162	-0.927480
C73	C	-1.093521	-1.299660	-0.530732
N74	N	-1.106625	-1.285338	-0.447621
