data_functionalizedCrystal
_audit_creation_method	'MofGen! by Chris Wilmer'
_symmetry_space_group_name_H-M	'P1'
_symmetry_Int_Tables_number	1
_symmetry_cell_setting	triclinic
loop_
_symmetry_equiv_pos_as_xyz
  x,y,z
_cell_length_a	8.559649
_cell_length_b	14.044190
_cell_length_c	7.088929
_cell_angle_alpha	83.202929
_cell_angle_beta	95.325015
_cell_angle_gamma	81.485221
loop_
_atom_site_label
_atom_site_type_symbol
_atom_site_fract_x
_atom_site_fract_y
_atom_site_fract_z
O1	O	2.100734	-0.021003	-0.158953
O2	O	2.600734	0.478997	0.341047
O3	O	1.642436	0.027448	-0.158972
O4	O	2.142436	0.527448	0.341028
O5	O	1.864704	-0.134263	-0.158925
O6	O	2.364704	0.365737	0.341075
O7	O	1.878467	0.140709	-0.159000
O8	O	2.378467	0.640709	0.341000
O9	O	1.894402	-0.155918	0.159056
O10	O	2.394402	0.344082	0.659056
O11	O	1.672134	0.005793	0.159009
O12	O	2.172134	0.505793	0.659009
O13	O	2.130432	-0.042657	0.159029
O14	O	2.630432	0.457343	0.659029
Cu15	Cu	1.903995	-0.020409	0.188053
Cu16	Cu	2.403995	0.479591	0.688053
Cu17	Cu	1.868874	0.005200	-0.187997
Cu18	Cu	2.368874	0.505200	0.312003
O19	O	1.908164	0.119054	0.158982
O20	O	2.408164	0.619054	0.658982
C21	C	1.598279	0.020293	0.000017
C22	C	2.098279	0.520293	0.500017
C23	C	1.422456	0.031222	0.000011
C24	C	1.922456	0.531222	0.500011
C25	C	1.873529	-0.179967	0.000071
C26	C	2.373529	0.320033	0.500071
C27	C	1.855563	-0.283886	0.000087
C28	C	2.355563	0.216114	0.500087
C29	C	1.950141	-0.541053	0.000016
C30	C	2.450141	-0.041053	0.500016
C31	C	1.822733	-0.474150	0.000024
C32	C	2.322733	0.025850	0.500024
C33	C	1.841004	-0.368278	0.000059
C34	C	2.341004	0.131722	0.500059
C35	C	1.931872	-0.646936	-0.000019
C36	C	2.431872	-0.146936	0.499981
C37	C	2.174589	-0.035502	0.000036
C38	C	2.674589	0.464498	0.500036
C39	C	2.350411	-0.046430	0.000029
C40	C	2.850411	0.453570	0.500029
C41	C	1.899338	0.164758	-0.000019
C42	C	2.399338	0.664758	0.499981
C43	C	1.917304	0.268678	-0.000047
C44	C	2.417304	0.768678	0.499953
N45	N	1.928708	-0.038423	0.452547
N46	N	2.428708	0.461577	0.952547
N47	N	1.844172	0.023205	-0.452490
N48	N	2.344172	0.523205	0.047510
H49	H	1.423238	-0.121273	0.000040
H50	H	1.923238	0.378727	0.500040
H51	H	1.349619	0.106071	-0.000020
H52	H	1.849619	0.606071	0.499980
H53	H	2.016340	-0.102286	0.534221
H54	H	2.516340	0.397714	1.034221
O55	O	1.660066	-0.503591	0.000030
O56	O	2.160066	-0.003591	0.500030
H57	H	1.671053	-0.583337	0.000029
H58	H	2.171053	-0.083337	0.500029
H59	H	2.072931	-0.518820	0.000041
H60	H	2.572931	-0.018820	0.500041
O61	O	1.728079	0.107790	0.439356
O62	O	2.228079	0.607790	0.939356
H63	H	1.730100	0.106286	0.283400
H64	H	2.230100	0.606286	0.783400
