data_functionalizedCrystal
_audit_creation_method	'MofGen! by Chris Wilmer'
_symmetry_space_group_name_H-M	'P1'
_symmetry_Int_Tables_number	1
_symmetry_cell_setting	triclinic
loop_
_symmetry_equiv_pos_as_xyz
  x,y,z
_cell_length_a	19.077236
_cell_length_b	19.121063
_cell_length_c	19.076919
_cell_angle_alpha	85.393653
_cell_angle_beta	90.112677
_cell_angle_gamma	94.855924
loop_
_atom_site_label
_atom_site_type_symbol
_atom_site_fract_x
_atom_site_fract_y
_atom_site_fract_z
Zn1	Zn	1.046920	-0.255828	0.451002
Zn2	Zn	1.546920	0.244172	0.951002
Zn3	Zn	1.046539	-0.368770	0.338113
Zn4	Zn	1.546539	0.131230	0.838113
Zn5	Zn	0.934152	-0.255459	0.328767
Zn6	Zn	1.434152	0.244541	0.828767
Zn7	Zn	0.923941	-0.378172	0.451236
Zn8	Zn	1.423941	0.121828	0.951236
O9	O	0.987888	-0.314557	0.392279
O10	O	1.487888	0.185443	0.892279
O11	O	1.145371	-0.267030	0.439841
O12	O	1.645371	0.232970	0.939841
O13	O	1.035745	-0.349650	0.238375
O14	O	1.535745	0.150350	0.738375
O15	O	0.953543	-0.156885	0.340972
O16	O	1.453543	0.343115	0.840972
O17	O	1.145091	-0.350008	0.356902
O18	O	1.645091	0.149992	0.856902
O19	O	1.036393	-0.157156	0.430778
O20	O	1.536393	0.342844	0.930778
O21	O	0.953174	-0.266400	0.231509
O22	O	1.453174	0.233600	0.731509
O23	O	0.834295	-0.275517	0.341199
O24	O	1.334295	0.224483	0.841199
O25	O	0.936140	-0.366033	0.549703
O26	O	1.436140	0.133967	1.049703
O27	O	0.826793	-0.365674	0.431176
O28	O	1.326793	0.134326	0.931176
O29	O	1.026492	-0.276147	0.549531
O30	O	1.526492	0.223853	1.049531
O31	O	1.025844	-0.468640	0.357129
O32	O	1.525844	0.031360	0.857129
O33	O	0.935771	-0.475548	0.440239
O34	O	1.435771	0.024452	0.940239
C35	C	0.805004	-0.321576	0.385199
C36	C	1.305004	0.178424	0.885199
C37	C	0.726764	-0.324597	0.382188
C38	C	1.226764	0.175403	0.882188
C39	C	0.690147	-0.282888	0.424026
C40	C	1.190147	0.217112	0.924026
C41	C	0.616632	-0.285723	0.421191
C42	C	1.116632	0.214277	0.921191
C43	C	0.579736	-0.330270	0.376519
C44	C	1.079736	0.169730	0.876519
C45	C	0.616359	-0.371980	0.334676
C46	C	1.116359	0.128020	0.834676
C47	C	0.689872	-0.369142	0.337509
C48	C	1.189872	0.130858	0.837509
C49	C	0.359860	-0.343381	0.363406
C50	C	0.859860	0.156619	0.863406
C51	C	0.286341	-0.346218	0.360578
C52	C	0.786341	0.153782	0.860578
C53	C	0.286620	-0.259959	0.447092
C54	C	0.786620	0.240041	0.947092
C55	C	0.360135	-0.257127	0.449924
C56	C	0.860135	0.242873	0.949924
C57	C	0.396751	-0.298835	0.408078
C58	C	0.896751	0.201165	0.908078
N59	N	0.504593	-0.333170	0.373621
N60	N	1.004593	0.166830	0.873621
N61	N	0.471894	-0.295931	0.410973
N62	N	0.971894	0.204069	0.910973
C63	C	0.979677	-0.497666	0.399740
C64	C	1.479677	0.002334	0.899740
C65	C	0.976227	-0.575999	0.402957
C66	C	1.476227	-0.075999	0.902957
C67	C	1.021536	-0.609180	0.361236
C68	C	1.521536	-0.109180	0.861236
C69	C	1.018296	-0.682783	0.364266
C70	C	1.518296	-0.182783	0.864266
C71	C	0.969743	-0.723203	0.409014
C72	C	1.469743	-0.223203	0.909014
C73	C	0.924432	-0.690016	0.450740
C74	C	1.424432	-0.190016	0.950740
C75	C	0.927676	-0.616415	0.447713
C76	C	1.427676	-0.116415	0.947713
C77	C	0.957603	-0.945612	0.420321
C78	C	1.457603	-0.445612	0.920321
C79	C	0.954361	-1.019218	0.423343
C80	C	1.454361	-0.519218	0.923343
C81	C	1.048226	-1.011979	0.336870
C82	C	1.548226	-0.511979	0.836870
C83	C	1.051463	-0.938377	0.333843
C84	C	1.551463	-0.438377	0.833843
C85	C	1.006155	-0.905197	0.375572
C86	C	1.506155	-0.405197	0.875572
C87	C	0.966428	-0.798436	0.412111
C88	C	1.466428	-0.298436	0.912111
C89	C	1.009473	-0.829965	0.372478
C90	C	1.509473	-0.329965	0.872478
C91	C	1.171486	-0.307511	0.399388
C92	C	1.671486	0.192489	0.899388
C93	C	1.249724	-0.304509	0.402417
C94	C	1.749724	0.195491	0.902417
C95	C	0.980219	-0.322180	0.575870
C96	C	1.480219	0.177820	1.075870
C97	C	0.976952	-0.325428	0.654106
C98	C	1.476952	0.174572	1.154106
C99	C	0.996150	-0.130734	0.384806
C100	C	1.496150	0.369266	0.884806
C101	C	0.999670	-0.052399	0.381622
C102	C	1.499670	0.447601	0.881622
C103	C	0.995569	-0.306912	0.209402
C104	C	1.495569	0.193088	0.709402
C105	C	0.998982	-0.303460	0.131164
C106	C	1.498982	0.196540	0.631164
C107	C	1.022455	-0.280158	0.690773
C108	C	1.522455	0.219842	1.190773
C109	C	1.019376	-0.283207	0.764283
C110	C	1.519376	0.216793	1.264283
C111	C	0.970797	-0.331531	0.801125
C112	C	1.470797	0.168469	1.301125
C113	C	0.925288	-0.376804	0.764453
C114	C	1.425288	0.123196	1.264453
C115	C	0.928364	-0.373750	0.690944
C116	C	1.428364	0.126250	1.190944
C117	C	0.956549	-0.345679	1.020983
C118	C	1.456549	0.154321	1.520983
C119	C	0.953478	-0.348731	1.094497
C120	C	1.453478	0.151269	1.594497
C121	C	1.047566	-0.255133	1.094322
C122	C	1.547566	0.244867	1.594322
C123	C	1.050641	-0.252086	1.020812
C124	C	1.550641	0.247914	1.520812
C125	C	1.005130	-0.297356	0.984146
C126	C	1.505130	0.202644	1.484146
N127	N	0.967650	-0.334651	0.876264
N128	N	1.467650	0.165349	1.376264
N129	N	1.008274	-0.294232	0.909008
N130	N	1.508274	0.205768	1.409008
H131	H	0.720182	-0.246615	0.460405
H132	H	1.220182	0.253385	0.960405
H133	H	0.913916	-0.388084	1.124492
H134	H	1.413916	0.111916	1.624492
N135	N	0.879278	-0.422576	0.651399
N136	N	1.379278	0.077424	1.151399
H137	H	0.887408	-0.473045	0.666660
H138	H	1.387408	0.026955	1.166660
H139	H	0.888616	-0.413250	0.599252
H140	H	1.388616	0.086750	1.099252
H141	H	0.586312	-0.408248	0.298300
H142	H	1.086312	0.091752	0.798300
N143	N	0.901995	-1.062816	0.471613
N144	N	1.401995	-0.562816	0.971613
H145	H	0.869244	-1.093454	0.442975
H146	H	1.369244	-0.593454	0.942975
H147	H	0.873834	-1.030583	0.497580
H148	H	1.373834	-0.530583	0.997580
N149	N	0.577138	-0.240723	0.466302
N150	N	1.077138	0.259277	0.966302
H151	H	0.611667	-0.212071	0.495030
H152	H	1.111667	0.287929	0.995030
H153	H	0.543990	-0.271977	0.498826
H154	H	1.043990	0.228023	0.998826
N155	N	0.246537	-0.394263	0.312396
N156	N	0.746537	0.105737	0.812396
H157	H	0.256625	-0.444593	0.325785
H158	H	0.756625	0.055407	0.825785
H159	H	0.261923	-0.380597	0.262181
H160	H	0.761923	0.119403	0.762181
N161	N	0.872895	-0.428930	0.804189
N162	N	1.372895	0.071070	1.304189
H163	H	0.844535	-0.457145	0.769804
H164	H	1.344535	0.042855	1.269804
H165	H	0.840334	-0.402761	0.832261
H166	H	1.340334	0.097239	1.332261
H167	H	0.890782	-0.589400	0.481688
H168	H	1.390782	-0.089400	0.981688
H169	H	1.061070	-0.576275	0.324794
H170	H	1.561070	-0.076275	0.824794
H171	H	0.919501	-0.382551	0.991139
H172	H	1.419501	0.117449	1.491139
H173	H	0.390170	-0.220855	0.486303
H174	H	0.890170	0.279145	0.986303
N175	N	1.067164	-0.718572	0.319267
N176	N	1.567164	-0.218572	0.819267
H177	H	1.098411	-0.681798	0.290457
H178	H	1.598411	-0.181798	0.790457
H179	H	1.038550	-0.748896	0.286822
H180	H	1.538550	-0.248896	0.786822
N181	N	1.096640	-0.206304	1.133875
N182	N	1.596640	0.293696	1.633875
H183	H	1.088503	-0.155838	1.118609
H184	H	1.588503	0.344162	1.618609
H185	H	1.146957	-0.214845	1.123466
H186	H	1.646957	0.285155	1.623466
H187	H	0.256799	-0.226002	0.481160
H188	H	0.756799	0.273998	0.981160
H189	H	1.062017	-0.240809	0.660781
H190	H	1.562017	0.259191	1.160781
H191	H	0.920710	-0.918602	0.454296
H192	H	1.420710	-0.418602	0.954296
H193	H	0.389664	-0.377343	0.329333
H194	H	0.889664	0.122657	0.829333
H195	H	0.719685	-0.403105	0.303439
H196	H	1.219685	0.096895	0.803439
H197	H	1.090999	-0.905468	0.297406
H198	H	1.590999	-0.405468	0.797406
H199	H	1.049008	-0.797053	0.336047
H200	H	1.549008	-0.297053	0.836047
H201	H	1.085115	-1.039002	0.302898
H202	H	1.585115	-0.539002	0.802898
N203	N	1.068452	-0.234365	0.803819
N204	N	1.568452	0.265635	1.303819
H205	H	1.118790	-0.242847	0.793424
H206	H	1.618790	0.257153	1.293424
H207	H	1.059075	-0.243642	0.855964
H208	H	1.559075	0.256358	1.355964
N209	N	0.872065	-0.733608	0.499008
N210	N	1.372065	-0.233608	0.999008
H211	H	0.876883	-0.785269	0.494593
H212	H	1.376883	-0.285269	0.994593
H213	H	0.822828	-0.722262	0.485538
H214	H	1.322828	-0.222262	0.985538
N215	N	0.914057	-0.842037	0.460366
N216	N	1.414057	-0.342037	0.960366
H217	H	0.864793	-0.830755	0.446919
H218	H	1.364793	-0.330755	0.946919
H219	H	0.923469	-0.830852	0.510545
H220	H	1.423469	-0.330852	1.010545
N221	N	1.103040	-0.199967	0.981076
N222	N	1.603040	0.300033	1.481076
H223	H	1.131400	-0.171750	1.015460
H224	H	1.631400	0.328250	1.515460
H225	H	1.077131	-0.167185	0.948139
H226	H	1.577131	0.332815	1.448139
