data_functionalizedCrystal
_audit_creation_method	'MofGen! by Chris Wilmer'
_symmetry_space_group_name_H-M	'P1'
_symmetry_Int_Tables_number	1
_symmetry_cell_setting	triclinic
loop_
_symmetry_equiv_pos_as_xyz
  x,y,z
_cell_length_a	31.640172
_cell_length_b	14.628931
_cell_length_c	14.628931
_cell_angle_alpha	60.000028
_cell_angle_beta	90.004023
_cell_angle_gamma	59.998086
loop_
_atom_site_label
_atom_site_type_symbol
_atom_site_fract_x
_atom_site_fract_y
_atom_site_fract_z
Zr1	Zr	0.407181	1.000469	-0.119845
O2	O	0.339691	1.191193	-0.265826
O3	O	0.427870	0.809758	-0.075094
O4	O	0.427870	1.000463	-0.265800
O5	O	0.339691	1.000488	0.075312
O6	O	0.497427	1.000444	-0.265780
O7	O	0.339691	1.000488	-0.075120
O8	O	0.497428	0.659307	0.075358
O9	O	0.339691	1.341625	-0.265826
O10	O	0.488604	0.888181	-0.055994
O11	O	0.436694	0.888196	0.056257
O12	O	0.436694	1.112727	-0.168275
O13	O	0.384784	1.112741	-0.056024
Zr14	Zr	0.518116	1.000440	0.120108
Zr15	Zr	0.518117	1.000439	-0.119813
Zr16	Zr	0.407181	1.000470	0.120076
Zr17	Zr	0.407181	1.240391	-0.119846
Zr18	Zr	0.518117	0.760518	0.120108
O19	O	0.497427	1.191151	0.075357
O20	O	0.497427	1.191150	-0.265780
O21	O	0.339691	1.191194	0.075311
O22	O	0.585606	0.809716	0.266088
O23	O	0.585606	0.809715	-0.075049
O24	O	0.427870	0.809759	0.266043
O25	O	0.585606	1.000421	-0.075049
O26	O	0.497427	1.000446	0.266062
O27	O	0.427870	1.000465	0.266042
O28	O	0.585606	1.000421	0.075383
O29	O	0.427870	1.341601	-0.265801
O30	O	0.497427	0.659308	0.266063
O31	O	0.585606	0.659283	0.266089
O32	O	0.585606	0.659283	0.075383
O33	O	0.339691	1.341626	-0.075121
O34	O	0.427870	1.341602	-0.075095
O35	O	0.488604	0.888182	0.168537
O36	O	0.540513	0.888167	0.056287
O37	O	0.488603	1.112713	-0.055994
O38	O	0.436694	1.112728	0.056256
C39	C	0.462649	0.700349	0.000132
C40	C	0.462649	0.598495	0.000132
C41	C	0.426232	0.631855	-0.078638
C42	C	0.426231	0.526587	-0.078639
C43	C	0.323885	1.000492	0.000091
C44	C	0.276790	1.000505	0.000078
C45	C	0.011881	0.883232	0.058763
C46	C	-0.165104	0.883209	0.058785
O47	O	-0.164946	0.783525	0.108672
N48	N	-0.214330	1.000419	0.000175
C49	C	-0.219309	1.117643	-0.058440
O50	O	-0.265240	1.217336	-0.108282
C51	C	-0.042325	1.117664	-0.058455
C52	C	0.006901	1.000446	0.000150
C53	C	0.061104	0.766024	0.117365
C54	C	0.105347	0.766031	0.117354
C55	C	0.100367	0.883245	0.058741
C56	C	0.051144	1.000453	0.000139
C57	C	-0.047304	1.234886	-0.117062
C58	C	-0.003053	1.234881	-0.117059
C59	C	0.046173	1.117663	-0.058453
C60	C	0.090407	1.117674	-0.058485
N61	N	0.139633	1.000465	0.000126
C62	C	0.144613	0.883250	0.058739
C63	C	-0.312227	1.117623	-0.058430
C64	C	-0.356473	1.117618	-0.058428
C65	C	-0.302265	0.883185	0.058800
C66	C	-0.258018	0.883191	0.058790
C67	C	-0.263001	1.000414	0.000181
C68	C	0.237526	0.883273	0.058711
C69	C	0.281770	0.883291	0.058691
C70	C	0.227559	1.117723	-0.058532
C71	C	0.183317	1.117707	-0.058517
C72	C	0.188304	1.000472	0.000113
O73	O	0.090288	1.217306	-0.108334
O74	O	0.190548	0.783572	0.108594
C75	C	-0.032363	0.883225	0.058774
C76	C	-0.081586	1.000433	0.000173
C77	C	-0.086566	1.117647	-0.058440
C78	C	-0.125832	1.000428	0.000175
C79	C	-0.120852	0.883213	0.058788
C80	C	-0.071626	0.766004	0.117398
C81	C	-0.027383	0.766010	0.117387
C82	C	-0.135792	1.234857	-0.117051
C83	C	-0.180033	1.234840	-0.117036
C84	C	-0.175053	1.117626	-0.058423
C85	C	0.601412	1.000417	0.000171
C86	C	0.648507	1.000404	0.000185
C87	C	0.462649	1.000454	-0.299974
C88	C	0.462649	1.000453	-0.401826
C89	C	0.462648	1.300560	0.000131
C90	C	0.462648	1.402413	0.000130
C91	C	0.436898	1.111843	-0.502934
C92	C	0.436898	1.111845	-0.608206
C93	C	0.462649	1.000455	0.300236
C94	C	0.462648	1.000456	0.402089
C95	C	0.601412	0.700311	0.000172
C96	C	0.648507	0.598445	0.000186
C97	C	0.462649	0.700349	0.300237
C98	C	0.462649	0.598497	0.402090
C99	C	0.601412	0.700312	0.300277
C100	C	0.648507	0.598446	0.402143
C101	C	0.323885	1.300597	-0.300014
C102	C	0.276790	1.402463	-0.401881
C103	C	0.323885	1.300598	0.000091
C104	C	0.276790	1.402464	0.000077
C105	C	0.462649	1.300559	-0.299974
C106	C	0.462649	1.402412	-0.401827
C107	C	0.643528	0.550615	-0.058427
C108	C	0.687774	0.454914	-0.058437
C109	C	0.737000	0.407039	0.000174
C110	C	0.741979	0.454878	0.058789
C111	C	0.697733	0.550584	0.058791
C112	C	0.697724	0.550601	0.391387
C113	C	0.741980	0.454901	0.487093
C114	C	0.737016	0.407040	0.593553
C115	C	0.687794	0.454895	0.604307
C116	C	0.643540	0.550600	0.508602
C117	C	0.227573	1.450319	-0.391125
C118	C	0.183318	1.546049	-0.486830
C119	C	0.188281	1.593915	-0.593290
C120	C	0.237504	1.546054	-0.604044
C121	C	0.281758	1.450333	-0.508340
C122	C	0.281770	1.450304	0.058680
C123	C	0.237523	1.546031	0.058663
C124	C	0.188297	1.593910	0.000049
C125	C	0.183318	1.546066	-0.058561
C126	C	0.227565	1.450347	-0.058550
C127	C	0.488400	0.553081	0.503198
C128	C	0.488400	0.447810	0.608469
H129	H	0.493826	0.374018	0.067576
Br130	Br	0.128254	1.723816	0.000045
Br131	Br	0.116507	1.611055	-0.138100
Br132	Br	0.425897	0.533428	0.387697
H133	H	0.152243	1.671857	-0.671210
H134	H	0.484696	0.905090	-0.393200
Br135	Br	0.374267	0.809350	-0.191049
H136	H	0.395052	0.554973	-0.146075
H137	H	0.773024	0.329108	0.000164
H138	H	0.223503	1.411398	-0.106268
H139	H	0.782065	0.415884	0.106507
Br140	Br	0.576726	0.615570	-0.137983
Br141	Br	0.525140	0.618173	0.517591
H142	H	0.440605	0.441458	0.511442
Br143	Br	0.244301	0.724167	0.138279
Br144	Br	0.514620	0.421001	0.112530
Br145	Br	0.348576	0.724199	0.138227
H146	H	0.683710	0.415975	-0.106167
H147	H	0.145426	0.670580	0.165072
Br148	Br	0.220823	1.385377	-0.246655
H149	H	0.484693	0.905086	-0.511178
H150	H	0.414849	1.207210	-0.694943
Br151	Br	-0.064876	0.606928	0.196938
H152	H	0.510447	0.408752	0.695206
Br153	Br	0.116523	1.610980	-0.472209
H154	H	0.241587	1.584970	0.106394
H155	H	0.065168	0.670569	0.165101
Br156	Br	0.681066	0.389928	0.748798
Br157	Br	-0.295515	0.724108	0.138344
Br158	Br	-0.191216	0.724105	0.138329
H159	H	0.414855	1.207206	-0.511561
Br160	Br	-0.423275	1.276705	-0.137988
Br161	Br	-0.318999	1.276727	-0.137981
Br162	Br	0.244231	1.611026	-0.748535
Br163	Br	-0.246838	1.393937	-0.196585
H164	H	0.701795	0.589515	0.106527
Br165	Br	-0.114102	1.393977	-0.196594
H166	H	0.143235	1.213155	-0.106253
Br167	Br	0.220810	1.276793	-0.138056
Br168	Br	-0.009820	1.393978	-0.196599
H169	H	0.701776	0.589555	0.304711
Br170	Br	0.808775	0.389973	0.472472
H171	H	0.012696	0.670560	0.165112
Br172	Br	0.797081	0.277153	0.723428
H173	H	0.603466	0.589543	0.517376
H174	H	0.321832	1.411369	-0.517111
H175	H	-0.139855	1.330309	-0.164784
H176	H	0.321848	1.411329	0.106418
