data_functionalizedCrystal
_audit_creation_method	'MofGen! by Chris Wilmer'
_symmetry_space_group_name_H-M	'P1'
_symmetry_Int_Tables_number	1
_symmetry_cell_setting	triclinic
loop_
_symmetry_equiv_pos_as_xyz
  x,y,z
_cell_length_a	17.640280
_cell_length_b	14.908783
_cell_length_c	14.908694
_cell_angle_alpha	83.203601
_cell_angle_beta	81.377015
_cell_angle_gamma	81.398086
loop_
_atom_site_label
_atom_site_type_symbol
_atom_site_fract_x
_atom_site_fract_y
_atom_site_fract_z
Zn1	Zn	-0.267317	1.471759	-0.533536
Zn2	Zn	-0.389601	1.489627	-0.355528
Zn3	Zn	-0.267338	1.311660	-0.373436
Zn4	Zn	-0.403646	1.350120	-0.495040
O5	O	-0.331976	1.405792	-0.439385
O6	O	-0.277652	1.599515	-0.518539
O7	O	-0.367514	1.457401	-0.232515
O8	O	-0.159113	1.309324	-0.418279
O9	O	-0.367494	1.612643	-0.387757
O10	O	-0.159098	1.426948	-0.535904
O11	O	-0.277688	1.326650	-0.245673
O12	O	-0.291306	1.191376	-0.380951
O13	O	-0.391431	1.374874	-0.625535
O14	O	-0.391451	1.219632	-0.470293
O15	O	-0.291270	1.464241	-0.653818
O16	O	-0.499686	1.494695	-0.350429
O17	O	-0.510005	1.392200	-0.452928
C18	C	-0.342905	1.172993	-0.423388
C19	C	-0.347601	1.073406	-0.416562
C20	C	-0.263015	0.872642	-0.540063
C21	C	-0.267425	0.779071	-0.533653
C22	C	-0.360824	0.792690	-0.397328
C23	C	-0.356415	0.886261	-0.403738
C24	C	-0.307510	0.926234	-0.475109
C25	C	-0.303105	1.019808	-0.481522
C26	C	-0.396500	1.033424	-0.345195
C27	C	-0.400909	0.939853	-0.338784
C28	C	-0.532906	1.449585	-0.395579
C29	C	-0.618862	1.468405	-0.376874
C30	C	-0.928557	1.263214	-0.581834
C31	C	-1.009325	1.280897	-0.564230
C32	C	-0.998517	1.387704	-0.457619
C33	C	-0.917747	1.370033	-0.475218
C34	C	-0.882773	1.307786	-0.537325
C35	C	-0.871963	1.414606	-0.430709
C36	C	-0.791200	1.396932	-0.448303
C37	C	-0.756220	1.334686	-0.510406
C38	C	-0.802010	1.290113	-0.554920
C39	C	-0.906938	1.476847	-0.368597
C40	C	-0.861154	1.521420	-0.324088
C41	C	-0.780389	1.503752	-0.341686
C42	C	-0.745410	1.441506	-0.403789
C43	C	-0.734599	1.548325	-0.297173
C44	C	-0.653836	1.530651	-0.314767
C45	C	-0.664646	1.423832	-0.421383
C46	C	-0.130260	1.361852	-0.483383
C47	C	-0.044301	1.343128	-0.502133
C48	C	-0.342915	1.421855	-0.673097
C49	C	-0.347577	1.428700	-0.772691
C50	C	-0.321004	1.639499	-0.455445
C51	C	-0.316328	1.739092	-0.462288
C52	C	-0.262803	1.305390	-0.973539
C53	C	-0.267181	1.311818	-1.067117
C54	C	-0.360713	1.447979	-1.053425
C55	C	-0.356335	1.441551	-0.959847
C56	C	-0.307378	1.370255	-0.919908
C57	C	-0.302997	1.363832	-0.826330
C58	C	-0.396533	1.499988	-0.812639
C59	C	-0.400910	1.506416	-0.906217
C60	C	-0.321021	1.389830	-0.206598
C61	C	-0.316133	1.383111	-0.107064
H62	H	-0.231191	0.735439	-0.586543
H63	H	-0.889640	1.572099	-0.273517
O64	O	-0.890832	1.196076	-0.648825
H65	H	-0.854258	1.231222	-0.705224
H66	H	-0.223199	0.905189	-0.598179
O67	O	-0.626916	1.356701	-0.488379
H68	H	-0.590415	1.300349	-0.453115
H69	H	-0.432737	1.077071	-0.292310
H70	H	-0.263285	1.052352	-0.539637
O71	O	-0.772322	1.615479	-0.230206
H72	H	-0.836174	1.620289	-0.225458
O73	O	-0.453650	0.896733	-0.261807
H74	H	-0.514233	0.928985	-0.265053
O75	O	-0.444602	1.569964	-0.754792
H76	H	-0.479369	1.620625	-0.798292
H77	H	-0.400631	0.760125	-0.339213
H78	H	-0.690457	1.320291	-0.524723
O79	O	-0.764278	1.222975	-0.621907
H80	H	-0.809681	1.194944	-0.649903
H81	H	-0.616558	1.566946	-0.278522
O82	O	-0.413517	1.524870	-1.096508
H83	H	-0.409069	1.518439	-1.170589
H84	H	-1.046600	1.244608	-0.600491
O85	O	-0.453710	1.583315	-0.949295
H86	H	-0.449262	1.576892	-1.023378
O87	O	-0.209995	1.228506	-0.930454
H88	H	-0.227399	1.162302	-0.940677
O89	O	-1.036252	1.454859	-0.390658
H90	H	-1.072843	1.419737	-0.334259
O91	O	-0.994047	1.495915	-0.349610
H92	H	-1.017637	1.523284	-0.413810
O93	O	-0.250194	1.286940	-0.783246
H94	H	-0.219939	1.242912	-0.836263
O95	O	-0.219099	1.241864	-1.124968
H96	H	-0.184317	1.191215	-1.081472
