data_functionalizedCrystal
_audit_creation_method	'MofGen! by Chris Wilmer'
_symmetry_space_group_name_H-M	'P1'
_symmetry_Int_Tables_number	1
_symmetry_cell_setting	triclinic
loop_
_symmetry_equiv_pos_as_xyz
  x,y,z
_cell_length_a	14.908571
_cell_length_b	13.032721
_cell_length_c	13.032268
_cell_angle_alpha	103.289627
_cell_angle_beta	85.702822
_cell_angle_gamma	85.672883
loop_
_atom_site_label
_atom_site_type_symbol
_atom_site_fract_x
_atom_site_fract_y
_atom_site_fract_z
Zn1	Zn	1.232048	0.593523	0.748408
Zn2	Zn	1.231951	0.748599	0.593348
Zn3	Zn	1.105258	0.561299	0.561133
Zn4	Zn	1.062071	0.758051	0.757901
O5	O	1.157832	0.665368	0.665197
O6	O	1.356192	0.623624	0.737348
O7	O	1.233178	0.706312	0.441834
O8	O	1.140192	0.418331	0.568520
O9	O	1.356121	0.737558	0.623427
O10	O	1.233344	0.442006	0.706110
O11	O	1.140098	0.568703	0.418165
O12	O	0.975372	0.577868	0.577725
O13	O	1.066586	0.753668	0.903882
O14	O	0.943643	0.722421	0.722289
O15	O	1.191467	0.632789	0.896908
O16	O	1.191302	0.897095	0.632631
O17	O	1.066492	0.904039	0.753527
C18	C	0.927315	0.647675	0.647542
C19	C	0.828692	0.640133	0.640017
C20	C	1.124220	0.697877	0.939641
C21	C	1.109896	0.711731	1.056592
C22	C	1.124221	0.938750	0.697630
C23	C	1.109919	1.055715	0.711546
C24	C	0.610376	0.776674	0.776256
C25	C	0.517710	0.769592	0.769190
C26	C	0.550694	0.618884	0.618824
C27	C	0.643360	0.625966	0.625890
C28	C	0.673196	0.704865	0.704608
C29	C	0.765864	0.711950	0.711669
C30	C	0.798846	0.561238	0.561308
C31	C	0.706181	0.554157	0.554242
C32	C	1.389249	0.683131	0.682922
C33	C	1.487866	0.690701	0.690475
C34	C	1.191596	0.390923	0.632663
C35	C	1.205984	0.273971	0.618798
C36	C	1.165338	1.104400	0.657985
C37	C	1.150557	1.225289	0.672367
C38	C	1.191374	0.632913	0.391817
C39	C	1.205906	0.618776	0.274844
C40	C	1.165299	0.658099	1.105282
C41	C	1.150496	0.672416	1.226157
H42	H	0.790155	0.776195	0.775763
N43	N	0.449957	0.847053	0.846464
H44	H	0.410768	0.887736	0.806469
H45	H	0.410843	0.807142	0.887280
H46	H	0.634669	0.840921	0.840346
H47	H	1.264380	1.226160	0.562296
H48	H	1.223687	0.601579	1.057479
N49	N	1.073131	0.747268	1.289456
H50	H	1.073518	0.746879	1.366832
H51	H	1.080015	0.821227	1.280277
H52	H	0.850006	0.502768	0.502965
N53	N	1.283260	0.543903	1.211550
H54	H	1.258748	0.487011	1.157414
H55	H	1.324634	0.584534	1.174241
N56	N	0.518504	0.533826	0.533895
H57	H	0.450268	0.540251	0.540284
H58	H	0.541903	0.542471	0.461907
N59	N	0.673997	0.469082	0.469324
H60	H	0.605761	0.475497	0.475711
H61	H	0.697394	0.477712	0.397330
N62	N	1.032542	0.786580	1.119908
H63	H	1.057051	0.843470	1.174050
H64	H	0.997625	0.820329	1.070742
N65	N	1.242690	1.041077	0.583146
H66	H	1.242286	0.963694	0.583483
H67	H	1.235809	1.050314	0.509199
N68	N	1.073211	1.288610	0.747224
H69	H	1.073616	1.365993	0.746889
H70	H	1.014186	1.262722	0.723680
N71	N	1.032577	1.119040	0.786400
H72	H	1.032982	1.196423	0.786064
H73	H	0.973552	1.093152	0.762855
