data_functionalizedCrystal
_audit_creation_method	'MofGen! by Chris Wilmer'
_symmetry_space_group_name_H-M	'P1'
_symmetry_Int_Tables_number	1
_symmetry_cell_setting	triclinic
loop_
_symmetry_equiv_pos_as_xyz
  x,y,z
_cell_length_a	18.050590
_cell_length_b	18.050590
_cell_length_c	18.050582
_cell_angle_alpha	89.975956
_cell_angle_beta	89.999872
_cell_angle_gamma	90.007719
loop_
_atom_site_label
_atom_site_type_symbol
_atom_site_fract_x
_atom_site_fract_y
_atom_site_fract_z
Zn1	Zn	1.135349	-0.295916	-0.419598
Zn2	Zn	1.135279	-0.420101	-0.295406
Zn3	Zn	1.011166	-0.295906	-0.295456
Zn4	Zn	1.011137	-0.420045	-0.419589
O5	O	1.073233	-0.357992	-0.357512
O6	O	1.239264	-0.312417	-0.403106
O7	O	1.118798	-0.403645	-0.191488
O8	O	1.027681	-0.191983	-0.311948
O9	O	1.239213	-0.403655	-0.311863
O10	O	1.118917	-0.191990	-0.403155
O11	O	1.027613	-0.312400	-0.191525
O12	O	0.907238	-0.312346	-0.311939
O13	O	1.027631	-0.403560	-0.523514
O14	O	0.907216	-0.403550	-0.403139
O15	O	1.118889	-0.312363	-0.523521
O16	O	1.118769	-0.524018	-0.311854
O17	O	1.027563	-0.523977	-0.403091
C18	C	0.880281	-0.357941	-0.357544
C19	C	0.797735	-0.357938	-0.357575
C20	C	0.598294	-0.407677	-0.407052
C21	C	0.548890	-0.339962	-0.425328
C22	C	0.646604	-0.357979	-0.357539
C23	C	0.548927	-0.425733	-0.339262
C24	C	0.500619	-0.358025	-0.357505
C25	C	0.598287	-0.290228	-0.375850
C26	C	0.598329	-0.376045	-0.289753
C27	C	0.548947	-0.308283	-0.308004
C28	C	0.730703	-0.357954	-0.357560
C29	C	0.416523	-0.358043	-0.357484
C30	C	1.073176	-0.550944	-0.357482
C31	C	1.073219	-0.633490	-0.357495
C32	C	1.122920	-0.832936	-0.307949
C33	C	1.141057	-0.882277	-0.375725
C34	C	1.073261	-0.784620	-0.357524
C35	C	1.055200	-0.882361	-0.289779
C36	C	1.073303	-0.930605	-0.357547
C37	C	1.091433	-0.832874	-0.425335
C38	C	1.005545	-0.832954	-0.339344
C39	C	1.023655	-0.882273	-0.407166
C40	C	1.073239	-0.700522	-0.357510
C41	C	1.073326	-1.014702	-0.357568
C42	C	1.266938	-0.358044	-0.357480
C43	C	1.349484	-0.358066	-0.357467
C44	C	1.073265	-0.357957	-0.551218
C45	C	1.073278	-0.357942	-0.633763
C46	C	1.073310	-0.164287	-0.357558
C47	C	1.073343	-0.081741	-0.357578
C48	C	1.023699	-0.407454	-0.882586
C49	C	1.005547	-0.339713	-0.833204
C50	C	1.073341	-0.357833	-0.930884
C51	C	1.091427	-0.425623	-0.833184
C52	C	1.073309	-0.357890	-0.784899
C53	C	1.055155	-0.290056	-0.882589
C54	C	1.141066	-0.376012	-0.882574
C55	C	1.122940	-0.308224	-0.833215
C56	C	1.073358	-0.357801	-1.014982
C57	C	1.073292	-0.357914	-0.700802
C58	C	1.073243	-0.357974	-0.164560
C59	C	1.073374	-0.357780	-0.082014
H60	H	1.164929	-0.811272	-0.266069
O61	O	0.624164	-0.221926	-0.394379
C62	C	0.731478	-0.145263	-0.415138
C63	C	0.702273	-0.222650	-0.394159
H64	H	0.794632	-0.145818	-0.414952
H65	H	0.710727	-0.129768	-0.472748
H66	H	0.710688	-0.102893	-0.373190
H67	H	0.723051	-0.265071	-0.436057
H68	H	0.723018	-0.238082	-0.336531
H69	H	0.527416	-0.266227	-0.266118
O70	O	1.209439	-0.908097	-0.393965
C71	C	1.339075	-0.912218	-0.362364
C72	C	1.261670	-0.882946	-0.341619
H73	H	1.381327	-0.891882	-0.320062
H74	H	1.338341	-0.975371	-0.362693
H75	H	1.354868	-0.891029	-0.419736
H76	H	1.245830	-0.904080	-0.284243
H77	H	1.262446	-0.819794	-0.341341
O78	O	0.973669	-0.908049	-0.457292
C79	C	0.953648	-0.981053	-0.567221
C80	C	1.010327	-0.951924	-0.510494
H81	H	0.983265	-1.016518	-0.610258
H82	H	0.910113	-1.015906	-0.537553
H83	H	0.925606	-0.932246	-0.595876
H84	H	1.038423	-1.000686	-0.481821
H85	H	1.053815	-0.917048	-0.540203
O86	O	0.624117	-0.457645	-0.457157
C87	C	0.628186	-0.495072	-0.585218
C88	C	0.598904	-0.438428	-0.528555
H89	H	0.607800	-0.479565	-0.642954
H90	H	0.691339	-0.494957	-0.584452
H91	H	0.607053	-0.552667	-0.570182
H92	H	0.619982	-0.380806	-0.543551
H93	H	0.535752	-0.438607	-0.529331
O94	O	1.036819	-0.908255	-0.221444
C95	C	0.945214	-0.911386	-0.124386
C96	C	0.965921	-0.882027	-0.201789
H97	H	0.887899	-0.890180	-0.108465
H98	H	0.944821	-0.974538	-0.125164
H99	H	0.987624	-0.891133	-0.082202
H100	H	0.923532	-0.902225	-0.244016
H101	H	0.966338	-0.818877	-0.200950
O102	O	1.109782	-0.806935	-0.493662
C103	C	1.130299	-0.699549	-0.570316
C104	C	1.109523	-0.728826	-0.492901
H105	H	1.130082	-0.636395	-0.569730
H106	H	1.187882	-0.720251	-0.585937
H107	H	1.088259	-0.720334	-0.612611
H108	H	1.151513	-0.708053	-0.450554
H109	H	1.051922	-0.708130	-0.477343
H110	H	0.527241	-0.483012	-0.323820
O111	O	0.937203	-0.807046	-0.321092
C112	C	0.831645	-0.734703	-0.359110
C113	C	0.909028	-0.764009	-0.379892
H114	H	0.808849	-0.699889	-0.406631
H115	H	0.792891	-0.783364	-0.348157
H116	H	0.835934	-0.699115	-0.307125
H117	H	0.904810	-0.799585	-0.431887
H118	H	0.947752	-0.715313	-0.390797
H119	H	1.198337	-0.391388	-0.904277
O120	O	0.523066	-0.321647	-0.493703
C121	C	0.519904	-0.230059	-0.590811
C122	C	0.549210	-0.250705	-0.513378
H123	H	0.541016	-0.172696	-0.606736
H124	H	0.540194	-0.272416	-0.633018
H125	H	0.456753	-0.229764	-0.589982
H126	H	0.612359	-0.250992	-0.514136
H127	H	0.528862	-0.208344	-0.471204
O128	O	0.624226	-0.394406	-0.221424
C129	C	0.627332	-0.485995	-0.124315
C130	C	0.597965	-0.465293	-0.201709
H131	H	0.606099	-0.543302	-0.108345
H132	H	0.690484	-0.486406	-0.125135
H133	H	0.607113	-0.443573	-0.082142
H134	H	0.618129	-0.507695	-0.243926
H135	H	0.534815	-0.464859	-0.200828
O136	O	1.109787	-0.493930	-0.807207
C137	C	1.195566	-0.566332	-0.734932
C138	C	1.174857	-0.488931	-0.764284
H139	H	1.248185	-0.562319	-0.700236
H140	H	1.148473	-0.588681	-0.699258
H141	H	1.205396	-0.605312	-0.783626
H142	H	1.165039	-0.449896	-0.715636
H143	H	1.221961	-0.466643	-0.799981
O144	O	0.973498	-0.457340	-0.908420
C145	C	0.845358	-0.494562	-0.912536
C146	C	0.902130	-0.438010	-0.883242
H147	H	0.787647	-0.478963	-0.892179
H148	H	0.846151	-0.494445	-0.975689
H149	H	0.860260	-0.552182	-0.891383
H150	H	0.887267	-0.380363	-0.904340
H151	H	0.901326	-0.438192	-0.820090
H152	H	0.948260	-0.324357	-0.811517
H153	H	1.039779	-0.232733	-0.904200
O154	O	1.172923	-0.258037	-0.807544
C155	C	1.210316	-0.129937	-0.803768
C156	C	1.153653	-0.186695	-0.832876
H157	H	1.194765	-0.072247	-0.824250
H158	H	1.210279	-0.130606	-0.740613
H159	H	1.267889	-0.144956	-0.824935
H160	H	1.096052	-0.171715	-0.811764
H161	H	1.153755	-0.186016	-0.896030
