data_functionalizedCrystal
_audit_creation_method	'MofGen! by Chris Wilmer'
_symmetry_space_group_name_H-M	'P1'
_symmetry_Int_Tables_number	1
_symmetry_cell_setting	triclinic
loop_
_symmetry_equiv_pos_as_xyz
  x,y,z
_cell_length_a	11.792241
_cell_length_b	11.026607
_cell_length_c	9.482900
_cell_angle_alpha	101.363848
_cell_angle_beta	99.398500
_cell_angle_gamma	83.610284
loop_
_atom_site_label
_atom_site_type_symbol
_atom_site_fract_x
_atom_site_fract_y
_atom_site_fract_z
O1	O	0.461983	-1.632118	-0.120906
O2	O	0.407791	-1.278456	-0.120907
O3	O	0.271422	-1.463868	-0.120897
O4	O	0.598353	-1.446706	-0.120917
O5	O	0.299264	-1.426207	0.120894
O6	O	0.435633	-1.240795	0.120883
O7	O	0.489825	-1.594458	0.120884
Cu8	Cu	0.465271	-1.414188	0.142961
Cu9	Cu	0.432345	-1.458726	-0.142984
O10	O	0.626195	-1.409046	0.120873
C11	C	0.242838	-1.443960	-0.000002
C12	C	0.116183	-1.440733	-0.000003
C13	C	0.411715	-1.214349	-0.000012
C14	C	0.381912	-1.079439	-0.000012
N15	N	0.488431	-1.382871	0.344079
C16	C	-0.115710	-1.434802	-0.000028
C17	C	0.013331	-1.438097	-0.000014
C18	C	0.654778	-1.428955	-0.000025
C19	C	0.781432	-1.432183	-0.000033
C20	C	0.485901	-1.658565	-0.000014
C21	C	0.515703	-1.793477	-0.000024
C22	C	0.464202	-1.006176	-0.000018
C23	C	0.433401	-0.866739	-0.000018
N24	N	0.409178	-1.490052	-0.344102
C25	C	0.439169	-1.449480	0.416282
C26	C	0.458448	-1.423433	0.583698
H27	H	0.557456	-1.046680	-0.000015
H28	H	0.382714	-1.525786	0.354159
C29	C	0.534713	-1.320341	0.667607
H30	H	0.537673	-1.316364	0.769121
H31	H	0.503118	-1.242951	0.642754
H32	H	0.610409	-1.338125	0.642727
C33	C	0.332913	-1.593146	0.571999
H34	H	0.304500	-1.631551	0.639011
H35	H	0.377230	-1.653325	0.512601
H36	H	0.269938	-1.558152	0.512640
C37	C	0.307415	-0.812043	-0.000010
H38	H	0.259782	-0.876087	0.000004
H39	H	0.282657	-0.776283	-0.084324
H40	H	0.302080	-0.750022	0.084322
C41	C	0.641688	-0.848177	-0.000040
H42	H	0.645864	-0.934720	-0.000051
H43	H	0.688175	-0.808654	0.084270
H44	H	0.668741	-0.834921	-0.084376
C45	C	0.255932	-1.024737	-0.000004
H46	H	0.208299	-1.088782	0.000010
H47	H	0.231174	-0.988977	-0.084318
H48	H	0.250597	-0.962717	0.084328
C49	C	0.564692	-1.279784	0.427994
H50	H	0.567652	-1.275807	0.529508
H51	H	0.533098	-1.202394	0.403141
H52	H	0.640388	-1.297568	0.403114
