data_functionalizedCrystal
_audit_creation_method	'MofGen! by Chris Wilmer'
_symmetry_space_group_name_H-M	'P1'
_symmetry_Int_Tables_number	1
_symmetry_cell_setting	triclinic
loop_
_symmetry_equiv_pos_as_xyz
  x,y,z
_cell_length_a	12.645331
_cell_length_b	12.645330
_cell_length_c	16.625539
_cell_angle_alpha	89.975749
_cell_angle_beta	89.983887
_cell_angle_gamma	90.018103
loop_
_atom_site_label
_atom_site_type_symbol
_atom_site_fract_x
_atom_site_fract_y
_atom_site_fract_z
Zn1	Zn	1.620711	-0.422026	-0.455836
Zn2	Zn	1.620599	-0.599312	-0.321013
Zn3	Zn	1.443432	-0.422064	-0.321027
Zn4	Zn	1.443408	-0.599249	-0.455813
O5	O	1.532037	-0.510663	-0.388422
O6	O	1.769044	-0.445554	-0.437955
O7	O	1.597060	-0.575842	-0.208182
O8	O	1.467005	-0.273712	-0.338925
O9	O	1.768961	-0.575805	-0.338901
O10	O	1.597252	-0.273684	-0.437969
O11	O	1.466896	-0.445619	-0.208193
O12	O	1.295081	-0.445558	-0.338903
O13	O	1.466964	-0.575698	-0.568649
O14	O	1.295064	-0.575735	-0.437930
O15	O	1.597229	-0.445493	-0.568666
O16	O	1.597037	-0.747651	-0.338879
O17	O	1.466855	-0.747605	-0.437916
C18	C	1.256608	-0.510644	-0.388416
C19	C	1.138778	-0.510662	-0.388433
C20	C	1.093920	-0.592696	-0.450639
C21	C	0.971360	-0.593033	-0.450454
C22	C	0.970828	-0.540499	-0.303355
C23	C	1.093426	-0.541079	-0.303715
C24	C	1.093631	-0.398617	-0.410560
C25	C	0.971025	-0.399236	-0.412434
C26	C	1.531960	-0.786093	-0.388411
C27	C	1.532024	-0.903923	-0.388433
C28	C	1.450464	-1.071502	-0.450930
C29	C	1.450047	-0.948942	-0.450729
C30	C	1.501782	-0.948516	-0.303460
C31	C	1.501284	-1.071114	-0.303839
C32	C	1.644324	-1.071011	-0.410221
C33	C	1.643636	-0.948405	-0.412079
C34	C	1.808543	-0.510682	-0.388429
C35	C	1.926373	-0.510690	-0.388432
C36	C	1.532106	-0.510584	-0.598731
C37	C	1.532136	-0.510550	-0.688353
C38	C	1.532144	-0.234157	-0.388451
C39	C	1.532189	-0.116327	-0.388464
C40	C	1.532185	-0.510431	-1.016528
C41	C	1.532168	-0.510468	-0.925220
C42	C	1.532161	-0.510492	-0.852443
C43	C	1.532143	-0.510526	-0.761129
C44	C	1.532030	-0.510665	-0.178932
C45	C	1.532206	-0.510400	-0.089311
H46	H	1.122641	-0.337503	-0.365257
Br47	Br	1.681653	-0.899824	-0.516312
H48	H	1.705211	-1.099998	-0.364725
Br49	Br	1.364662	-1.118942	-0.273117
Br50	Br	1.481580	-0.898678	-0.555746
H51	H	0.941305	-0.574438	-0.513527
Br52	Br	1.312775	-1.123032	-0.427235
Br53	Br	0.919974	-0.291982	-0.342491
H54	H	1.558226	-1.100770	-0.255710
Br55	Br	1.141043	-0.677572	-0.272562
Br56	Br	1.145218	-0.353217	-0.512219
Br57	Br	1.142889	-0.445788	-0.223791
H58	H	1.559420	-0.919356	-0.255646
Br59	Br	1.143148	-0.562092	-0.556092
H60	H	0.940099	-0.621498	-0.284334
H61	H	1.420666	-0.917905	-0.284694
Br62	Br	0.922419	-0.731437	-0.426013
Br63	Br	1.145222	-0.730294	-0.426476
H64	H	1.469211	-1.100914	-0.514144
H65	H	0.941687	-0.482584	-0.255733
Br66	Br	1.690307	-1.122420	-0.511740
H67	H	0.941974	-0.376748	-0.475046
Br68	Br	1.750475	-0.897308	-0.341777
H69	H	1.366916	-0.919708	-0.436315
