data_functionalizedCrystal
_audit_creation_method	'MofGen! by Chris Wilmer'
_symmetry_space_group_name_H-M	'P1'
_symmetry_Int_Tables_number	1
_symmetry_cell_setting	triclinic
loop_
_symmetry_equiv_pos_as_xyz
  x,y,z
_cell_length_a	19.288864
_cell_length_b	19.188930
_cell_length_c	18.366186
_cell_angle_alpha	89.988632
_cell_angle_beta	89.977106
_cell_angle_gamma	83.140512
loop_
_atom_site_label
_atom_site_type_symbol
_atom_site_fract_x
_atom_site_fract_y
_atom_site_fract_z
O1	O	0.921359	0.087099	-0.060791
O2	O	1.171359	0.337099	0.189209
O3	O	1.421359	0.587099	0.439209
O4	O	1.671359	0.837099	0.689209
O5	O	0.719099	0.098849	-0.060743
O6	O	0.969099	0.348849	0.189257
O7	O	1.219099	0.598849	0.439257
O8	O	1.469099	0.848849	0.689257
O9	O	0.826066	-0.008682	-0.060754
O10	O	1.076066	0.241318	0.189246
O11	O	1.326066	0.491318	0.439246
O12	O	1.576066	0.741318	0.689246
O13	O	0.814393	0.194630	-0.060780
O14	O	1.064393	0.444630	0.189220
O15	O	1.314393	0.694630	0.439220
O16	O	1.564393	0.944630	0.689220
O17	O	0.826048	-0.008687	0.060345
O18	O	1.076048	0.241313	0.310345
O19	O	1.326048	0.491313	0.560345
O20	O	1.576048	0.741313	0.810345
O21	O	0.719081	0.098843	0.060357
O22	O	0.969081	0.348843	0.310357
O23	O	1.219081	0.598843	0.560357
O24	O	1.469081	0.848843	0.810357
O25	O	0.921341	0.087094	0.060308
O26	O	1.171341	0.337094	0.310308
O27	O	1.421341	0.587094	0.560308
O28	O	1.671341	0.837094	0.810308
Zn29	Zn	0.820208	0.092968	0.079560
Zn30	Zn	1.070208	0.342968	0.329560
Zn31	Zn	1.320208	0.592968	0.579560
Zn32	Zn	1.570208	0.842968	0.829560
Zn33	Zn	0.820232	0.092975	-0.079994
Zn34	Zn	1.070232	0.342975	0.170006
Zn35	Zn	1.320232	0.592975	0.420006
Zn36	Zn	1.570232	0.842975	0.670006
O37	O	0.814374	0.194625	0.060320
O38	O	1.064374	0.444625	0.310320
O39	O	1.314374	0.694625	0.560320
O40	O	1.564374	0.944625	0.810320
C41	C	0.693214	0.098468	-0.000186
C42	C	0.943214	0.348468	0.249814
C43	C	1.193214	0.598468	0.499814
C44	C	1.443214	0.848468	0.749814
C45	C	0.616110	0.097333	-0.000167
C46	C	0.866110	0.347333	0.249833
C47	C	1.116110	0.597333	0.499833
C48	C	1.366110	0.847333	0.749833
C49	C	0.571419	0.160427	-0.000187
C50	C	0.821419	0.410427	0.249813
C51	C	1.071419	0.660427	0.499813
C52	C	1.321419	0.910427	0.749813
C53	C	0.498972	0.159361	-0.000195
C54	C	0.748972	0.409361	0.249805
C55	C	0.998972	0.659361	0.499805
C56	C	1.248972	0.909361	0.749805
C57	C	0.471219	0.095197	-0.000198
C58	C	0.721219	0.345197	0.249802
C59	C	0.971219	0.595197	0.499802
C60	C	1.221219	0.845197	0.749802
C61	C	0.515921	0.032095	-0.000174
C62	C	0.765921	0.282095	0.249826
C63	C	1.015921	0.532095	0.499826
C64	C	1.265921	0.782095	0.749826
C65	C	0.588366	0.033163	-0.000159
C66	C	0.838366	0.283163	0.249841
C67	C	1.088366	0.533163	0.499841
C68	C	1.338366	0.783163	0.749841
C69	C	0.362960	0.044759	-0.042642
C70	C	0.612960	0.294759	0.207358
C71	C	0.862960	0.544759	0.457358
C72	C	1.112960	0.794759	0.707358
C73	C	0.290515	0.043694	-0.042662
C74	C	0.540515	0.293694	0.207338
C75	C	0.790515	0.543694	0.457338
C76	C	1.040515	0.793694	0.707338
C77	C	0.247773	0.091900	-0.000241
C78	C	0.497773	0.341900	0.249759
C79	C	0.747773	0.591900	0.499759
C80	C	0.997773	0.841900	0.749759
C81	C	0.277483	0.141184	0.042190
C82	C	0.527483	0.391184	0.292190
C83	C	0.777483	0.641184	0.542190
C84	C	1.027483	0.891184	0.792190
C85	C	0.349929	0.142253	0.042205
C86	C	0.599929	0.392253	0.292205
C87	C	0.849929	0.642253	0.542205
C88	C	1.099929	0.892253	0.792205
C89	C	0.392665	0.094032	-0.000214
C90	C	0.642665	0.344032	0.249786
C91	C	0.892665	0.594032	0.499786
C92	C	1.142665	0.844032	0.749786
C93	C	0.124526	0.153843	-0.000268
C94	C	0.374526	0.403843	0.249732
C95	C	0.624526	0.653843	0.499732
C96	C	0.874526	0.903843	0.749732
C97	C	0.052078	0.152774	-0.000272
C98	C	0.302078	0.402774	0.249728
C99	C	0.552078	0.652774	0.499728
C100	C	0.802078	0.902774	0.749728
C101	C	0.069028	0.025506	-0.000259
C102	C	0.319028	0.275506	0.249741
C103	C	0.569028	0.525506	0.499741
C104	C	0.819028	0.775506	0.749741
C105	C	0.141475	0.026576	-0.000248
C106	C	0.391475	0.276576	0.249752
C107	C	0.641475	0.526576	0.499752
C108	C	0.891475	0.776576	0.749752
C109	C	0.169219	0.090747	-0.000256
C110	C	0.419219	0.340747	0.249744
C111	C	0.669219	0.590747	0.499744
C112	C	0.919219	0.840747	0.749744
C113	C	0.825679	-0.034696	-0.000202
C114	C	1.075679	0.215304	0.249798
C115	C	1.325679	0.465304	0.499798
C116	C	1.575679	0.715304	0.749798
C117	C	0.824544	-0.112200	-0.000196
C118	C	1.074544	0.137800	0.249804
C119	C	1.324544	0.387800	0.499804
C120	C	1.574544	0.637800	0.749804
C121	C	0.887309	-0.157129	-0.000207
C122	C	1.137309	0.092871	0.249793
C123	C	1.387309	0.342871	0.499793
C124	C	1.637309	0.592871	0.749793
C125	C	0.886243	-0.229953	-0.000219
C126	C	1.136243	0.020047	0.249781
C127	C	1.386243	0.270047	0.499781
C128	C	1.636243	0.520047	0.749781
C129	C	0.822408	-0.257844	-0.000204
C130	C	1.072408	-0.007844	0.249796
C131	C	1.322408	0.242156	0.499796
C132	C	1.572408	0.492156	0.749796
C133	C	0.759636	-0.212906	-0.000196
C134	C	1.009636	0.037094	0.249804
C135	C	1.259636	0.287094	0.499804
C136	C	1.509636	0.537094	0.749804
C137	C	0.760704	-0.140084	-0.000192
C138	C	1.010704	0.109916	0.249808
C139	C	1.260704	0.359916	0.499808
C140	C	1.510704	0.609916	0.749808
N141	N	0.773609	-0.365847	0.041020
N142	N	1.023609	-0.115847	0.291020
N143	N	1.273609	0.134153	0.541020
N144	N	1.523609	0.384153	0.791020
N145	N	0.772598	-0.435026	0.041018
N146	N	1.022598	-0.185026	0.291018
N147	N	1.272598	0.064974	0.541018
N148	N	1.522598	0.314974	0.791018
C149	C	0.819187	-0.477253	-0.000218
C150	C	1.069187	-0.227253	0.249782
C151	C	1.319187	0.022747	0.499782
C152	C	1.569187	0.272747	0.749782
N153	N	0.866835	-0.447689	-0.041442
N154	N	1.116835	-0.197689	0.208558
N155	N	1.366835	0.052311	0.458558
N156	N	1.616835	0.302311	0.708558
N157	N	0.867847	-0.378504	-0.041436
N158	N	1.117847	-0.128504	0.208564
N159	N	1.367847	0.121496	0.458564
N160	N	1.617847	0.371496	0.708564
C161	C	0.821243	-0.336807	-0.000209
C162	C	1.071243	-0.086807	0.249791
C163	C	1.321243	0.163193	0.499791
C164	C	1.571243	0.413193	0.749791
C165	C	0.880800	-0.601146	-0.000243
C166	C	1.130800	-0.351146	0.249757
C167	C	1.380800	-0.101146	0.499757
C168	C	1.630800	0.148854	0.749757
C169	C	0.879731	-0.673971	-0.000259
C170	C	1.129731	-0.423971	0.249741
C171	C	1.379731	-0.173971	0.499741
C172	C	1.629731	0.076029	0.749741
C173	C	0.753122	-0.656922	-0.000229
C174	C	1.003122	-0.406922	0.249771
C175	C	1.253122	-0.156922	0.499771
C176	C	1.503122	0.093078	0.749771
C177	C	0.754193	-0.584099	-0.000220
C178	C	1.004193	-0.334099	0.249780
C179	C	1.254193	-0.084099	0.499780
C180	C	1.504193	0.165901	0.749780
C181	C	0.818034	-0.556216	-0.000224
C182	C	1.068034	-0.306216	0.249776
C183	C	1.318034	-0.056216	0.499776
C184	C	1.568034	0.193784	0.749776
C185	C	0.947227	0.087475	-0.000250
C186	C	1.197227	0.337475	0.249750
C187	C	1.447227	0.587475	0.499750
C188	C	1.697227	0.837475	0.749750
C189	C	1.024330	0.088609	-0.000274
C190	C	1.274330	0.338609	0.249726
C191	C	1.524330	0.588609	0.499726
C192	C	1.774330	0.838609	0.749726
C193	C	0.814762	0.220638	-0.000234
C194	C	1.064762	0.470638	0.249766
C195	C	1.314762	0.720638	0.499766
C196	C	1.564762	0.970638	0.749766
C197	C	0.815896	0.298143	-0.000245
C198	C	1.065896	0.548143	0.249755
C199	C	1.315896	0.798143	0.499755
C200	C	1.565896	1.048143	0.749755
N201	N	0.820197	0.092963	0.188451
N202	N	1.070197	0.342963	0.438451
N203	N	1.320197	0.592963	0.688451
N204	N	1.570197	0.842963	0.938451
N205	N	0.820249	0.092974	-0.188885
N206	N	1.070249	0.342974	0.061115
N207	N	1.320249	0.592974	0.311115
N208	N	1.570249	0.842974	0.561115
C209	C	0.867577	0.045371	0.226546
C210	C	1.117577	0.295371	0.476546
C211	C	1.367577	0.545371	0.726546
C212	C	1.617577	0.795371	0.976546
C213	C	0.867582	0.045368	0.302774
C214	C	1.117582	0.295368	0.552774
C215	C	1.367582	0.545368	0.802774
C216	C	1.617582	0.795368	1.052774
C217	C	0.820213	0.092968	0.340903
C218	C	1.070213	0.342968	0.590903
C219	C	1.320213	0.592968	0.840903
C220	C	1.570213	0.842968	1.090903
C221	C	0.772823	0.140563	0.302799
C222	C	1.022823	0.390563	0.552799
C223	C	1.272823	0.640563	0.802799
C224	C	1.522823	0.890563	1.052799
C225	C	0.772816	0.140560	0.226573
C226	C	1.022816	0.390560	0.476573
C227	C	1.272816	0.640560	0.726573
C228	C	1.522816	0.890560	0.976573
C229	C	0.810919	0.156585	0.461657
C230	C	1.060919	0.406585	0.711657
C231	C	1.310919	0.656585	0.961657
C232	C	1.560919	0.906585	1.211657
C233	C	0.810932	0.156589	0.537882
C234	C	1.060932	0.406589	0.787882
C235	C	1.310932	0.656589	1.037882
C236	C	1.560932	0.906589	1.287882
C237	C	0.820232	0.092977	0.576011
C238	C	1.070232	0.342977	0.826011
C239	C	1.320232	0.592977	1.076011
C240	C	1.570232	0.842977	1.326011
C241	C	0.829535	0.029359	0.537906
C242	C	1.079535	0.279359	0.787906
C243	C	1.329535	0.529359	1.037906
C244	C	1.579535	0.779359	1.287906
C245	C	0.829527	0.029356	0.461679
C246	C	1.079527	0.279356	0.711679
C247	C	1.329527	0.529356	0.961679
C248	C	1.579527	0.779356	1.211679
C249	C	0.820215	0.092977	0.423558
C250	C	1.070215	0.342977	0.673558
C251	C	1.320215	0.592977	0.923558
C252	C	1.570215	0.842977	1.173558
C253	C	0.867620	0.045378	0.696761
C254	C	1.117620	0.295378	0.946761
C255	C	1.367620	0.545378	1.196761
C256	C	1.617620	0.795378	1.446761
C257	C	0.867620	0.045374	0.772990
C258	C	1.117620	0.295374	1.022990
C259	C	1.367620	0.545374	1.272990
C260	C	1.617620	0.795374	1.522990
C261	C	0.772864	0.140576	0.773014
C262	C	1.022864	0.390576	1.023014
C263	C	1.272864	0.640576	1.273014
C264	C	1.522864	0.890576	1.523014
C265	C	0.772862	0.140574	0.696786
C266	C	1.022862	0.390574	0.946786
C267	C	1.272862	0.640574	1.196786
C268	C	1.522862	0.890574	1.446786
C269	C	0.820243	0.092976	0.658664
C270	C	1.070243	0.342976	0.908664
C271	C	1.320243	0.592976	1.158664
C272	C	1.570243	0.842976	1.408664
H273	H	0.015690	0.204155	-0.000283
H274	H	0.265690	0.454155	0.249717
H275	H	0.515690	0.704155	0.499717
H276	H	0.765690	0.954155	0.749717
H277	H	0.046433	-0.026738	-0.000306
H278	H	0.296433	0.223262	0.249694
H279	H	0.546433	0.473262	0.499694
H280	H	0.796433	0.723262	0.749694
H281	H	0.707661	-0.235620	-0.000186
H282	H	0.957661	0.014380	0.249814
H283	H	1.207661	0.264380	0.499814
H284	H	1.457661	0.514380	0.749814
H285	H	0.837108	-0.022440	0.568948
H286	H	1.087108	0.227560	0.818948
H287	H	1.337108	0.477560	1.068948
H288	H	1.587108	0.727560	1.318948
H289	H	0.939293	-0.134431	-0.000213
H290	H	1.189293	0.115569	0.249787
H291	H	1.439293	0.365569	0.499787
H292	H	1.689293	0.615569	0.749787
H293	H	0.906200	0.006616	0.804008
H294	H	1.156200	0.256616	1.054008
H295	H	1.406200	0.506616	1.304008
H296	H	1.656200	0.756616	1.554008
H297	H	0.177864	-0.024802	-0.000236
H298	H	0.427864	0.225198	0.249764
H299	H	0.677864	0.475198	0.499764
H300	H	0.927864	0.725198	0.749764
H301	H	0.906199	0.006619	0.665721
H302	H	1.156199	0.256619	0.915721
H303	H	1.406199	0.506619	1.165721
H304	H	1.656199	0.756619	1.415721
H305	H	0.624755	-0.018218	-0.000144
H306	H	0.874755	0.231782	0.249856
H307	H	1.124755	0.481782	0.499856
H308	H	1.374755	0.731782	0.749856
H309	H	0.734293	0.179330	0.804059
H310	H	0.984293	0.429330	1.054059
H311	H	1.234293	0.679330	1.304059
H312	H	1.484293	0.929330	1.554059
H313	H	0.937355	-0.266541	-0.000231
H314	H	1.187355	-0.016541	0.249769
H315	H	1.437355	0.233459	0.499769
H316	H	1.687355	0.483459	0.749769
H317	H	0.493320	-0.020148	-0.000187
H318	H	0.743320	0.229852	0.249813
H319	H	0.993320	0.479852	0.499813
H320	H	1.243320	0.729852	0.749813
H321	H	0.374116	0.182379	0.076756
H322	H	0.624116	0.432379	0.326756
H323	H	0.874116	0.682379	0.576756
H324	H	1.124116	0.932379	0.826756
H325	H	0.930844	-0.710552	-0.000272
H326	H	1.180844	-0.460552	0.249728
H327	H	1.430844	-0.210552	0.499728
H328	H	1.680844	0.039448	0.749728
H329	H	0.709591	-0.103502	-0.000183
H330	H	0.959591	0.146498	0.249817
H331	H	1.209591	0.396498	0.499817
H332	H	1.459591	0.646498	0.749817
H333	H	0.734253	0.179319	0.333848
H334	H	0.984253	0.429319	0.583848
H335	H	1.234253	0.679319	0.833848
H336	H	1.484253	0.929319	1.083848
H337	H	0.701147	-0.679631	-0.000221
H338	H	0.951147	-0.429631	0.249779
H339	H	1.201147	-0.179631	0.499779
H340	H	1.451147	0.070369	0.749779
H341	H	0.932783	-0.578442	-0.000249
H342	H	1.182783	-0.328442	0.249751
H343	H	1.432783	-0.078442	0.499751
H344	H	1.682783	0.171558	0.749751
H345	H	0.703083	-0.547517	-0.000207
H346	H	0.953083	-0.297517	0.249793
H347	H	1.203083	-0.047517	0.499793
H348	H	1.453083	0.202483	0.749793
H349	H	0.803333	0.208389	0.430619
H350	H	1.053333	0.458389	0.680619
H351	H	1.303333	0.708389	0.930619
H352	H	1.553333	0.958389	1.180619
H353	H	0.734283	0.179330	0.665767
H354	H	0.984283	0.429330	0.915767
H355	H	1.234283	0.679330	1.165767
H356	H	1.484283	0.929330	1.415767
H357	H	0.594003	0.212680	-0.000195
H358	H	0.844003	0.462680	0.249805
H359	H	1.094003	0.712680	0.499805
H360	H	1.344003	0.962680	0.749805
H361	H	0.266331	0.003566	-0.077215
H362	H	0.516331	0.253566	0.172785
H363	H	0.766331	0.503566	0.422785
H364	H	1.016331	0.753566	0.672785
H365	H	0.906157	0.006613	0.195509
H366	H	1.156157	0.256613	0.445509
H367	H	1.406157	0.506613	0.695509
H368	H	1.656157	0.756613	0.945509
H369	H	0.803361	0.208391	0.568902
H370	H	1.053361	0.458391	0.818902
H371	H	1.303361	0.708391	1.068902
H372	H	1.553361	0.958391	1.318902
H373	H	0.906166	0.006612	0.333797
H374	H	1.156166	0.256612	0.583797
H375	H	1.406166	0.506612	0.833797
H376	H	1.656166	0.756612	1.083797
H377	H	0.734232	0.179316	0.195555
H378	H	0.984232	0.429316	0.445555
H379	H	1.234232	0.679316	0.695555
H380	H	1.484232	0.929316	0.945555
H381	H	0.837100	-0.022445	0.430657
H382	H	1.087100	0.227555	0.680657
H383	H	1.337100	0.477555	0.930657
H384	H	1.587100	0.727555	1.180657
H385	H	0.462577	0.210742	-0.000208
H386	H	0.712577	0.460742	0.249792
H387	H	0.962577	0.710742	0.499792
H388	H	1.212577	0.960742	0.749792
H389	H	0.242684	0.180439	0.076733
H390	H	0.492684	0.430439	0.326733
H391	H	0.742684	0.680439	0.576733
H392	H	0.992684	0.930439	0.826733
H393	H	0.397755	0.005502	-0.077191
H394	H	0.647755	0.255502	0.172809
H395	H	0.897755	0.505502	0.422809
H396	H	1.147755	0.755502	0.672809
H397	H	0.147116	0.206094	-0.000264
H398	H	0.397116	0.456094	0.249736
H399	H	0.647116	0.706094	0.499736
H400	H	0.897116	0.956094	0.749736
