data_functionalizedCrystal
_audit_creation_method	'MofGen! by Chris Wilmer'
_symmetry_space_group_name_H-M	'P1'
_symmetry_Int_Tables_number	1
_symmetry_cell_setting	triclinic
loop_
_symmetry_equiv_pos_as_xyz
  x,y,z
_cell_length_a	15.944551
_cell_length_b	15.944545
_cell_length_c	14.472310
_cell_angle_alpha	89.996829
_cell_angle_beta	89.991464
_cell_angle_gamma	83.497456
loop_
_atom_site_label
_atom_site_type_symbol
_atom_site_fract_x
_atom_site_fract_y
_atom_site_fract_z
O1	O	1.114533	0.108327	-0.076749
O2	O	1.614533	0.608327	0.423251
O3	O	0.869983	0.121683	-0.076773
O4	O	1.369983	0.621683	0.423227
O5	O	0.998939	-0.007270	-0.076749
O6	O	1.498939	0.492730	0.423251
O7	O	0.985577	0.237280	-0.076772
O8	O	1.485577	0.737280	0.423228
O9	O	0.998905	-0.007263	0.076933
O10	O	1.498905	0.492737	0.576933
O11	O	0.869950	0.121690	0.076909
O12	O	1.369950	0.621690	0.576909
O13	O	1.114500	0.108334	0.076933
O14	O	1.614500	0.608334	0.576933
Cu15	Cu	0.992222	0.115013	0.090954
Cu16	Cu	1.492222	0.615013	0.590954
Cu17	Cu	0.992261	0.115004	-0.090793
Cu18	Cu	1.492261	0.615004	0.409207
O19	O	0.985544	0.237287	0.076910
O20	O	1.485544	0.737287	0.576910
C21	C	0.838672	0.121132	0.000066
C22	C	1.338672	0.621132	0.500066
C23	C	0.745426	0.119470	0.000057
C24	C	1.245426	0.619470	0.500057
C25	C	0.998368	-0.038561	0.000093
C26	C	1.498368	0.461439	0.500093
C27	C	0.996708	-0.131807	0.000095
C28	C	1.496708	0.368193	0.500095
C29	C	0.530571	0.035565	0.000083
C30	C	1.030571	0.535565	0.500083
C31	C	0.469567	0.074524	-0.075694
C32	C	0.969567	0.574524	0.424306
C33	C	0.574700	0.116463	0.000068
C34	C	1.074700	0.616463	0.500068
C35	C	0.469556	0.074551	0.075824
C36	C	0.969556	0.574551	0.575824
C37	C	0.409788	0.113552	0.000083
C38	C	0.909788	0.613552	0.500083
C39	C	0.514924	0.155444	-0.075771
C40	C	1.014924	0.655444	0.424229
C41	C	0.514920	0.155459	0.075815
C42	C	1.014920	0.655459	0.575815
C43	C	0.453933	0.194476	0.000020
C44	C	0.953933	0.694476	0.500020
C45	C	0.669703	0.118137	0.000059
C46	C	1.169703	0.618137	0.500059
C47	C	0.314787	0.111884	0.000086
C48	C	0.814787	0.611884	0.500086
C49	C	0.911814	-0.402440	0.000068
C50	C	1.411814	0.097560	0.500068
C51	C	0.952760	-0.351858	-0.075701
C52	C	1.452760	0.148142	0.424299
C53	C	0.990787	-0.467451	0.000068
C54	C	1.490787	0.032549	0.500068
C55	C	0.952748	-0.351878	0.075817
C56	C	1.452748	0.148122	0.575817
C57	C	0.993692	-0.302537	0.000083
C58	C	1.493692	0.197463	0.500083
C59	C	1.031712	-0.418097	-0.075764
C60	C	1.531712	0.081903	0.424236
C61	C	1.031688	-0.418121	0.075822
C62	C	1.531688	0.081879	0.575822
C63	C	1.072692	-0.367571	0.000034
C64	C	1.572692	0.132429	0.500034
C65	C	0.989112	-0.562453	0.000059
C66	C	1.489112	-0.062453	0.500059
C67	C	0.995374	-0.207538	0.000086
C68	C	1.495374	0.292462	0.500086
C69	C	1.145810	0.108885	0.000093
C70	C	1.645810	0.608885	0.500093
C71	C	1.239056	0.110547	0.000095
C72	C	1.739056	0.610547	0.500095
C73	C	0.986114	0.268578	0.000066
C74	C	1.486114	0.768578	0.500066
C75	C	0.987774	0.361824	0.000057
C76	C	1.487774	0.861824	0.500057
N77	N	0.992200	0.115019	0.218785
N78	N	1.492200	0.615019	0.718785
N79	N	0.992289	0.114992	-0.218624
N80	N	1.492289	0.614992	0.281376
C81	C	0.992260	0.115001	0.592876
C82	C	1.492260	0.615001	1.092876
C83	C	0.923027	0.183770	0.553697
C84	C	1.423027	0.683770	1.053697
C85	C	0.923186	0.184020	0.446609
C86	C	1.423186	0.684020	0.946609
C87	C	0.992229	0.115010	0.407285
C88	C	1.492229	0.615010	0.907285
C89	C	1.079872	0.134157	0.446128
C90	C	1.579872	0.634157	0.946128
C91	C	1.079483	0.134646	0.553250
C92	C	1.579483	0.634646	1.053250
C93	C	0.974632	0.026881	0.553411
C94	C	1.474632	0.526881	1.053411
C95	C	0.972622	0.027468	0.446284
C96	C	1.472622	0.527468	0.946284
C97	C	0.992218	0.115013	0.302397
C98	C	1.492218	0.615013	0.802397
C99	C	0.992277	0.114999	0.697764
C100	C	1.492277	0.614999	1.197764
H101	H	0.449471	0.040305	-0.139752
H102	H	0.949471	0.540305	0.360248
O103	O	1.162849	-0.347046	-0.000012
O104	O	1.662849	0.152954	0.499988
H105	H	1.174341	-0.310239	0.062921
H106	H	1.674341	0.189761	0.562921
H107	H	0.919368	-0.322960	0.139873
H108	H	1.419368	0.177040	0.639873
O109	O	1.035086	-0.043491	0.410835
O110	O	1.535086	0.456509	0.910835
H111	H	1.000977	-0.089017	0.371763
H112	H	1.500977	0.410983	0.871763
H113	H	0.858040	0.172612	0.420348
H114	H	1.358040	0.672612	0.920348
O115	O	1.075816	-0.456467	0.160683
O116	O	1.575816	0.043533	0.660683
H117	H	1.074711	-0.525938	0.159535
H118	H	1.574711	-0.025938	0.659535
O119	O	0.836449	0.168926	0.587859
O120	O	1.336449	0.668926	1.087859
H121	H	0.841834	0.112380	0.633132
H122	H	1.341834	0.612380	1.133132
H123	H	0.934128	0.248794	0.580602
H124	H	1.434128	0.748794	1.080602
O125	O	0.908603	-0.313518	-0.160556
O126	O	1.408603	0.186482	0.339444
H127	H	0.884839	-0.364106	-0.202497
H128	H	1.384839	0.135894	0.297503
H129	H	0.534925	0.189631	-0.139905
H130	H	1.034925	0.689631	0.360095
H131	H	0.934444	0.249413	0.420970
H132	H	1.434444	0.749413	0.920970
H133	H	0.843802	-0.418092	-0.000012
H134	H	1.343802	0.081908	0.499988
H135	H	0.420773	0.261684	-0.000029
H136	H	0.920773	0.761684	0.499971
O137	O	1.100058	0.219770	0.586339
O138	O	1.600058	0.719770	1.086339
H139	H	1.110187	0.260200	0.525830
H140	H	1.610187	0.760200	1.025830
H141	H	0.535037	0.189650	0.139876
H142	H	1.035037	0.689650	0.639876
H143	H	0.563906	-0.031573	-0.000004
H144	H	1.063906	0.468427	0.499996
H145	H	1.025120	-0.024295	0.578747
H146	H	1.525120	0.475705	1.078747
O147	O	1.075870	-0.456245	-0.160718
O148	O	1.575870	0.043755	0.339282
H149	H	1.074264	-0.525656	-0.160077
H150	H	1.574264	-0.025656	0.339923
H151	H	1.132611	0.086533	0.579165
H152	H	1.632611	0.586533	1.079165
H153	H	0.912110	0.008470	0.580475
H154	H	1.412110	0.508470	1.080475
O155	O	1.149754	0.069582	0.412391
O156	O	1.649754	0.569582	0.912391
H157	H	1.122696	0.023048	0.367468
H158	H	1.622696	0.523048	0.867468
O159	O	1.100945	0.218318	0.410592
O160	O	1.600945	0.718318	0.910592
H161	H	1.049137	0.246638	0.365277
H162	H	1.549137	0.746638	0.865277
H163	H	0.908150	0.012937	0.420897
H164	H	1.408150	0.512937	0.920897
H165	H	0.449457	0.040322	0.139886
H166	H	0.949457	0.540322	0.639886
