data_functionalizedCrystal
_audit_creation_method	'MofGen! by Chris Wilmer'
_symmetry_space_group_name_H-M	'P1'
_symmetry_Int_Tables_number	1
_symmetry_cell_setting	triclinic
loop_
_symmetry_equiv_pos_as_xyz
  x,y,z
_cell_length_a	12.759401
_cell_length_b	13.897448
_cell_length_c	12.759393
_cell_angle_alpha	89.967728
_cell_angle_beta	89.979062
_cell_angle_gamma	90.019217
loop_
_atom_site_label
_atom_site_type_symbol
_atom_site_fract_x
_atom_site_fract_y
_atom_site_fract_z
Zn1	Zn	1.606245	-0.383929	-0.594007
Zn2	Zn	1.606126	-0.545255	-0.418322
Zn3	Zn	1.430543	-0.383980	-0.418342
Zn4	Zn	1.430526	-0.545188	-0.593959
O5	O	1.518360	-0.464588	-0.506158
O6	O	1.753250	-0.405336	-0.570714
O7	O	1.582793	-0.523912	-0.271303
O8	O	1.453907	-0.248992	-0.441673
O9	O	1.753163	-0.523862	-0.441638
O10	O	1.582994	-0.248954	-0.570734
O11	O	1.453793	-0.405423	-0.271318
O12	O	1.283520	-0.405358	-0.441627
O13	O	1.453878	-0.523747	-0.740987
O14	O	1.283507	-0.523797	-0.570652
O15	O	1.582977	-0.405271	-0.741022
O16	O	1.582776	-0.680228	-0.441592
O17	O	1.453763	-0.680179	-0.570632
C18	C	1.245393	-0.464576	-0.506137
C19	C	1.128616	-0.464595	-0.506153
C20	C	1.073775	-0.526359	-0.573230
C21	C	0.964051	-0.526363	-0.573251
C22	C	0.964019	-0.402834	-0.439108
C23	C	1.073741	-0.402827	-0.439093
C24	C	0.814153	-0.560974	-0.697110
C25	C	0.759308	-0.622754	-0.764179
C26	C	0.794901	-0.716889	-0.780123
C27	C	0.885336	-0.749263	-0.728984
C28	C	0.940175	-0.687488	-0.661908
C29	C	0.904584	-0.593340	-0.645984
C30	C	1.223641	-0.368225	-0.315232
C31	C	1.278482	-0.306455	-0.248150
C32	C	1.242892	-0.212318	-0.232195
C33	C	1.152453	-0.179948	-0.283315
C34	C	1.097612	-0.241718	-0.350397
C35	C	1.133209	-0.335854	-0.366354
C36	C	1.518283	-0.715203	-0.506127
C37	C	1.518347	-0.822416	-0.506149
C38	C	1.518457	-1.018711	-0.506215
C39	C	1.518393	-0.909479	-0.506182
C40	C	1.792393	-0.464601	-0.506179
C41	C	1.909170	-0.464606	-0.506188
C42	C	1.518439	-0.464496	-0.780191
C43	C	1.518472	-0.464456	-0.896968
C44	C	1.518466	-0.212995	-0.506211
C45	C	1.518511	-0.105781	-0.506234
C46	C	1.585699	-0.402756	-0.951850
C47	C	1.585717	-0.402714	-1.061574
C48	C	1.451278	-0.526082	-1.061524
C49	C	1.451255	-0.526118	-0.951802
C50	C	1.623336	-0.288908	-1.211556
C51	C	1.690579	-0.227216	-1.266442
C52	C	1.793093	-0.212425	-1.230851
C53	C	1.828384	-0.259340	-1.140376
C54	C	1.761146	-0.321039	-1.085496
C55	C	1.658618	-0.335812	-1.121085
C56	C	1.413648	-0.639925	-0.801818
C57	C	1.346414	-0.701630	-0.746936
C58	C	1.243899	-0.716431	-0.782525
C59	C	1.208612	-0.669533	-0.873003
C60	C	1.275845	-0.607828	-0.927885
C61	C	1.378359	-0.593026	-0.892289
C62	C	1.518342	-0.464611	-0.233190
C63	C	1.518512	-0.464379	-0.116414
H64	H	0.785172	-0.484319	-0.684145
H65	H	1.189162	-0.766685	-0.737835
H66	H	1.375158	-0.739825	-0.673271
N67	N	1.933099	-0.244238	-1.104005
N68	N	1.964590	-0.286124	-1.023225
H69	H	2.038545	-0.275456	-0.997533
N70	N	1.116112	-0.083782	-0.267020
N71	N	1.173593	-0.014050	-0.290048
H72	H	1.147930	0.053869	-0.278534
H73	H	1.847843	-0.162193	-1.275547
H74	H	1.539859	-0.300938	-1.240538
H75	H	0.914301	-0.825921	-0.741963
N76	N	1.654518	-0.179305	-1.358856
N77	N	1.562977	-0.192507	-1.390619
H78	H	1.537513	-0.158673	-1.455889
N79	N	1.382624	-0.589075	-1.117528
N80	N	1.389533	-0.678087	-1.105253
H81	H	1.341040	-0.722577	-1.144800
H82	H	1.247106	-0.569642	-1.001558
N83	N	0.907947	-0.339749	-0.370619
N84	N	0.809981	-0.339764	-0.370639
H85	H	0.770380	-0.295210	-0.322266
N86	N	1.797166	-0.368971	-0.993086
N87	N	1.798091	-0.458844	-0.989288
H88	H	1.823530	-0.492693	-0.924018
H89	H	1.497122	-0.627871	-0.772827
N90	N	1.129813	-0.589458	-0.641732
N91	N	1.080829	-0.644601	-0.701617
H92	H	1.120403	-0.689167	-0.750000
N93	N	1.032539	-0.720563	-0.609675
N94	N	1.064306	-0.804621	-0.623909
H95	H	1.129543	-0.827983	-0.587023
N96	N	1.005248	-0.208653	-0.402649
N97	N	1.001542	-0.207862	-0.500540
H98	H	0.936313	-0.184512	-0.537448
H99	H	0.750238	-0.767190	-0.834733
H100	H	1.252634	-0.444876	-0.328227
H101	H	0.685676	-0.596386	-0.805817
N102	N	1.298914	-0.149236	-0.163655
N103	N	1.379652	-0.178147	-0.118002
H104	H	1.419215	-0.133596	-0.069598
H105	H	1.640429	-0.352544	-0.907207
N106	N	1.370857	-0.339509	-0.195910
N107	N	1.366008	-0.409909	-0.135084
H108	H	1.431249	-0.433248	-0.098188
N109	N	1.103893	-0.684663	-0.909354
N110	N	1.043874	-0.739756	-0.860344
H111	H	0.969915	-0.750448	-0.886015
