data_functionalizedCrystal
_audit_creation_method	'MofGen! by Chris Wilmer'
_symmetry_space_group_name_H-M	'P1'
_symmetry_Int_Tables_number	1
_symmetry_cell_setting	triclinic
loop_
_symmetry_equiv_pos_as_xyz
  x,y,z
_cell_length_a	20.919309
_cell_length_b	14.395555
_cell_length_c	14.395555
_cell_angle_alpha	60.000749
_cell_angle_beta	89.999957
_cell_angle_gamma	57.442980
loop_
_atom_site_label
_atom_site_type_symbol
_atom_site_fract_x
_atom_site_fract_y
_atom_site_fract_z
Zr1	Zr	0.641785	0.944205	-0.085642
O2	O	0.535419	1.150023	-0.239981
O3	O	0.674389	0.746724	-0.038327
O4	O	0.674394	0.940510	-0.232123
O5	O	0.535413	0.956244	0.106681
O6	O	0.784024	0.928112	-0.225926
O7	O	0.535414	0.956237	-0.046186
O8	O	0.784014	0.581463	0.120738
O9	O	0.535422	1.302892	-0.239983
O10	O	0.770113	0.815610	-0.013526
O11	O	0.688297	0.824868	0.095933
O12	O	0.688303	1.053027	-0.132237
O13	O	0.606488	1.062285	-0.022778
Zr14	Zr	0.816630	0.924442	0.168046
Zr15	Zr	0.816631	0.924431	-0.075760
Zr16	Zr	0.641784	0.944216	0.158163
Zr17	Zr	0.641790	1.188014	-0.085646
Zr18	Zr	0.816625	0.680634	0.168049
O19	O	0.784026	1.121923	0.120731
O20	O	0.784028	1.121907	-0.225929
O21	O	0.535417	1.150039	0.106679
O22	O	0.922996	0.718624	0.322385
O23	O	0.922998	0.718608	-0.024275
O24	O	0.674387	0.746740	0.308332
O25	O	0.923002	0.912403	-0.024278
O26	O	0.784021	0.928137	0.314526
O27	O	0.674391	0.940535	0.308330
O28	O	0.923001	0.912410	0.128589
O29	O	0.674402	1.287175	-0.232128
O30	O	0.784013	0.581472	0.314531
O31	O	0.922993	0.565755	0.322387
O32	O	0.922994	0.565746	0.128594
O33	O	0.535421	1.302901	-0.046191
O34	O	0.674401	1.287184	-0.038335
O35	O	0.770112	0.815620	0.214640
O36	O	0.851927	0.806362	0.105181
O37	O	0.770118	1.043779	-0.013529
O38	O	0.688302	1.053037	0.095929
C39	C	0.729201	0.629356	0.041206
C40	C	0.729199	0.525853	0.041207
C41	C	0.684592	0.470308	0.100893
C42	C	0.652263	0.488216	-0.008209
C43	C	0.761508	0.323552	0.150276
C44	C	0.696825	0.545192	-0.067961
C45	C	0.806113	0.380460	0.090605
C46	C	0.773803	0.398412	-0.018561
C47	C	0.510502	0.959058	0.028840
C48	C	0.436275	0.967452	0.024644
C49	C	0.444105	0.847470	0.084633
C50	C	0.374358	0.855366	0.080688
C51	C	0.296782	0.983245	0.016747
C52	C	0.288954	1.103236	-0.043243
C53	C	0.358700	1.095339	-0.039291
C54	C	0.084058	1.013289	0.001721
C55	C	0.014310	1.021177	-0.002230
C56	C	0.099719	0.773306	0.121704
C57	C	0.169463	0.765420	0.125645
C58	C	0.161629	0.885411	0.065659
C59	C	0.225489	0.991319	0.012711
C60	C	0.232921	0.877336	0.069703
C61	C	0.947913	0.909589	0.053564
C62	C	1.022140	0.901195	0.057759
C63	C	0.729209	0.934310	-0.263762
C64	C	0.729210	0.934305	-0.367264
C65	C	0.729214	1.239291	0.041197
C66	C	0.729216	1.342794	0.041196
C67	C	0.773820	0.804854	-0.363126
C68	C	0.696891	0.875745	-0.460497
C69	C	0.806120	0.863421	-0.454322
C70	C	0.652236	1.005201	-0.463274
C71	C	0.761519	0.992853	-0.457082
C72	C	0.684545	1.063840	-0.554473
C73	C	0.729206	0.934337	0.346165
C74	C	0.729205	0.934342	0.449667
C75	C	0.947907	0.604622	0.053568
C76	C	1.022131	0.492724	0.057765
C77	C	0.729199	0.629370	0.346169
C78	C	0.729197	0.525872	0.449673
C79	C	0.947905	0.604636	0.358531
C80	C	1.022129	0.492743	0.466230
C81	C	0.510510	1.264011	-0.276128
C82	C	0.436286	1.375904	-0.383827
C83	C	0.510508	1.264025	0.028836
C84	C	0.436284	1.375923	0.024639
C85	C	0.729216	1.239277	-0.263766
C86	C	0.729218	1.342775	-0.367269
C87	C	1.014282	0.445003	-0.002239
C88	C	1.084017	0.339877	0.001682
C89	C	1.161601	0.282468	0.065613
C90	C	1.169449	0.330199	0.125618
C91	C	1.099715	0.435330	0.121690
C92	C	1.099700	0.435363	0.459671
C93	C	1.169448	0.330241	0.560856
C94	C	1.161623	0.282493	0.668600
C95	C	1.084045	0.339883	0.675157
C96	C	1.014298	0.445010	0.573972
C97	C	0.358715	1.433295	-0.377267
C98	C	0.288967	1.538448	-0.478453
C99	C	0.296792	1.586201	-0.586197
C100	C	0.374370	1.528805	-0.592753
C101	C	0.444117	1.423661	-0.491569
C102	C	0.444133	1.423654	0.084632
C103	C	0.374398	1.528807	0.080685
C104	C	0.296814	1.586219	0.016750
C105	C	0.288966	1.538483	-0.043250
C106	C	0.358700	1.433340	-0.039309
C107	C	0.684584	0.470332	0.445538
C108	C	0.761514	0.323535	0.542906
C109	C	0.652289	0.488220	0.536737
C110	C	0.806171	0.380370	0.545680
C111	C	0.696891	0.545135	0.539494
C112	C	0.773866	0.398342	0.636882
H113	H	0.811524	0.367200	-0.069113
H114	H	0.232625	0.661287	0.177690
H115	H	1.106117	0.474171	0.170559
N116	N	0.797752	1.058337	-0.453735
H117	H	0.796985	1.058636	-0.383731
H118	H	0.764645	1.155537	-0.525882
H119	H	0.352329	1.394422	-0.289547
N120	N	1.108162	0.486831	0.343477
H121	H	1.138968	0.523700	0.336109
H122	H	1.052188	0.562087	0.280424
N123	N	1.075532	0.288409	-0.063034
H124	H	1.102563	0.187731	-0.006893
H125	H	1.102538	0.302379	-0.121453
N126	N	0.382797	1.580316	-0.708970
H127	H	0.413594	1.502643	-0.716351
H128	H	0.413582	1.617206	-0.716287
N129	N	0.205283	1.600393	-0.112182
H130	H	0.174437	1.701504	-0.173849
H131	H	0.174530	1.586845	-0.059195
H132	H	1.218376	0.196864	0.068802
N133	N	0.527781	1.361760	-0.498652
H134	H	0.522147	1.407970	-0.582264
H135	H	0.558572	1.260657	-0.459169
N136	N	0.892368	0.321093	0.549454
H137	H	0.931404	0.223893	0.621569
H138	H	0.906310	0.378036	0.549930
H139	H	0.811649	0.367043	0.718646
N140	N	0.823718	0.659872	-0.254656
H141	H	0.799204	0.615812	-0.255171
H142	H	0.823781	0.660938	-0.185039
N143	N	1.253118	0.268325	0.553779
H144	H	1.283967	0.281765	0.593198
H145	H	1.247422	0.314542	0.470146
N146	N	1.236848	0.169098	0.777737
H147	H	1.270417	0.199151	0.779672
H148	H	1.270347	0.084655	0.779601
N149	N	0.221564	1.699591	-0.695330
H150	H	0.221523	1.780302	-0.742147
H151	H	0.171278	1.728578	-0.674724
H152	H	1.077686	0.300991	0.762895
H153	H	1.232627	0.283442	0.177669
H154	H	0.669537	0.639882	0.536961
H155	H	0.871137	0.335941	0.132421
N156	N	0.075606	1.142701	-0.062997
H157	H	0.015878	1.224906	-0.104112
H158	H	0.102688	1.144804	-0.121328
N159	N	0.382869	1.580298	0.145386
H160	H	0.355830	1.566463	0.203782
H161	H	0.355858	1.680953	0.089148
H162	H	0.587248	0.532749	0.533976
H163	H	0.646818	0.501808	0.151285
H164	H	0.240038	1.671833	0.013551
H165	H	0.587224	0.532755	-0.050000
H166	H	0.788825	0.228858	0.242518
N167	N	0.930608	0.506905	-0.071193
H168	H	0.924073	0.547999	-0.154873
H169	H	0.887667	0.580688	-0.064489
H170	H	0.669431	0.639852	-0.160250
N171	N	0.350228	1.381863	-0.104019
H172	H	0.290496	1.434193	-0.145114
H173	H	0.377293	1.281182	-0.047810
N174	N	0.527774	0.709542	0.153588
H175	H	0.522147	0.634734	0.190992
H176	H	0.558573	0.700865	0.215202
N177	N	0.634686	0.511862	0.337066
H178	H	0.659199	0.428948	0.337579
H179	H	0.634625	0.582642	0.267451
H180	H	0.380740	0.757664	0.129539
H181	H	0.106088	0.675616	0.170541
N182	N	0.930634	0.506888	0.581055
H183	H	0.936268	0.460677	0.664667
H184	H	0.899840	0.493429	0.541572
H185	H	0.296086	0.773218	0.121769
H186	H	-0.048857	1.125317	-0.054303
N187	N	0.205286	1.241165	-0.112197
H188	H	0.162289	1.227965	-0.105600
H189	H	0.198830	1.293908	-0.195841
N190	N	0.205297	1.600339	-0.471376
H191	H	0.198771	1.641404	-0.428767
H192	H	0.198820	1.526808	-0.428823
N193	N	0.350259	1.224747	-0.103990
H194	H	0.290533	1.306957	-0.145098
H195	H	0.377340	1.226868	-0.162323
H196	H	0.162319	1.095438	-0.039350
H197	H	0.507300	1.376917	0.136702
N198	N	0.797718	0.198079	0.546183
H199	H	0.756118	0.182608	0.544865
H200	H	0.847633	0.115759	0.619040
H201	H	0.587161	1.065101	-0.466131
H202	H	0.669557	0.826258	-0.462973
N203	N	0.634406	1.208744	-0.663101
H204	H	0.576306	1.262054	-0.667242
H205	H	0.635295	1.207160	-0.732457
H206	H	0.871166	0.803467	-0.451544
