data_functionalizedCrystal
_audit_creation_method	'MofGen! by Chris Wilmer'
_symmetry_space_group_name_H-M	'P1'
_symmetry_Int_Tables_number	1
_symmetry_cell_setting	triclinic
loop_
_symmetry_equiv_pos_as_xyz
  x,y,z
_cell_length_a	11.792254
_cell_length_b	14.971494
_cell_length_c	13.448316
_cell_angle_alpha	89.998062
_cell_angle_beta	90.005028
_cell_angle_gamma	96.091922
loop_
_atom_site_label
_atom_site_type_symbol
_atom_site_fract_x
_atom_site_fract_y
_atom_site_fract_z
O1	O	1.506115	-0.122649	0.082687
O2	O	1.175695	-0.135272	0.082689
O3	O	1.349756	0.001203	0.082686
O4	O	1.332054	-0.259124	0.082690
O5	O	1.349738	0.001205	-0.082698
O6	O	1.175677	-0.135271	-0.082695
O7	O	1.506097	-0.122648	-0.082697
Cu8	Cu	1.340886	-0.128959	-0.097797
Cu9	Cu	1.340906	-0.128961	0.097789
O10	O	1.332036	-0.259123	-0.082694
C11	C	1.133400	-0.134476	-0.000003
C12	C	1.007403	-0.132096	-0.000002
C13	C	0.905078	-0.130162	0.000002
C14	C	0.776707	-0.127744	0.000003
C15	C	1.348954	0.034532	-0.000005
C16	C	1.346576	0.133838	-0.000000
C17	C	1.548392	-0.123444	-0.000003
C18	C	1.674389	-0.125824	0.000003
C19	C	1.332838	-0.292451	-0.000001
C20	C	1.335216	-0.391758	0.000001
C21	C	1.345471	0.180486	0.090152
C22	C	1.343230	0.273795	0.090153
C23	C	1.342102	0.320453	0.000001
C24	C	1.343203	0.273798	-0.090158
C25	C	1.345437	0.180491	-0.090158
C26	C	1.338552	0.468280	-0.090151
C27	C	1.336321	0.561594	-0.090151
C28	C	1.336345	0.561584	0.090160
C29	C	1.338578	0.468277	0.090160
C30	C	1.339682	0.421628	0.000000
N31	N	1.340880	-0.128958	-0.235361
C32	C	1.409786	-0.183577	-0.287397
C33	C	1.409800	-0.183573	-0.391500
C34	C	1.340901	-0.128954	-0.443566
C35	C	1.271992	-0.074328	-0.391523
C36	C	1.271985	-0.074328	-0.287422
C37	C	1.272010	-0.074334	-0.608503
C38	C	1.272015	-0.074336	-0.712612
C39	C	1.409825	-0.183580	-0.712581
C40	C	1.409818	-0.183579	-0.608480
C41	C	1.340907	-0.128955	-0.556444
N42	N	1.340921	-0.128955	0.235353
H43	H	1.346396	0.142504	0.163564
H44	H	1.342335	0.311772	0.163564
H45	H	1.346320	0.142509	-0.163569
H46	H	1.335392	0.599580	-0.163561
H47	H	1.342278	0.311794	-0.163561
H48	H	1.339505	0.430290	0.163569
H49	H	1.339426	0.430299	-0.163568
H50	H	1.465916	-0.228059	-0.566091
H51	H	1.215897	-0.029852	-0.566139
H52	H	1.335444	0.599569	0.163571
H53	H	1.465884	-0.228060	-0.245012
H54	H	1.465930	-0.228061	-0.754954
H55	H	1.215911	-0.029861	-0.755001
H56	H	1.465912	-0.228048	-0.433862
H57	H	1.215899	-0.029852	-0.433923
H58	H	1.215874	-0.029851	-0.245056
