data_functionalizedCrystal
_audit_creation_method	'MofGen! by Chris Wilmer'
_symmetry_space_group_name_H-M	'P1'
_symmetry_Int_Tables_number	1
_symmetry_cell_setting	triclinic
loop_
_symmetry_equiv_pos_as_xyz
  x,y,z
_cell_length_a	12.837932
_cell_length_b	12.811415
_cell_length_c	16.176319
_cell_angle_alpha	84.562354
_cell_angle_beta	89.993097
_cell_angle_gamma	89.412215
loop_
_atom_site_label
_atom_site_type_symbol
_atom_site_fract_x
_atom_site_fract_y
_atom_site_fract_z
O1	O	1.376639	0.272991	-0.089211
O2	O	1.074774	0.259504	-0.088202
O3	O	1.233300	0.114214	-0.077305
O4	O	1.218113	0.418281	-0.100108
O5	O	1.233278	0.114202	0.060189
O6	O	1.074753	0.259492	0.049293
O7	O	1.376617	0.272979	0.048283
Cu8	Cu	1.225683	0.266234	0.061342
Cu9	Cu	1.225709	0.266249	-0.101261
O10	O	1.218091	0.418269	0.037386
C11	C	1.036123	0.254942	-0.019113
C12	C	0.920987	0.241356	-0.018095
C13	C	1.232437	0.075018	-0.005621
C14	C	1.229888	-0.041755	0.003131
C15	C	1.225102	-0.261162	-0.130336
C16	C	1.222706	-0.370882	-0.122117
C17	C	1.222693	-0.370915	0.027788
C18	C	1.225089	-0.261196	0.019569
C19	C	1.226295	-0.206323	-0.059496
C20	C	1.228698	-0.096602	-0.067714
C21	C	1.228677	-0.096637	0.082190
C22	C	1.226282	-0.206357	0.090409
C23	C	0.770654	0.127794	-0.009577
C24	C	0.878835	0.140553	-0.010534
C25	C	0.854950	0.329405	-0.024697
C26	C	0.746768	0.316645	-0.023739
C27	C	0.704625	0.215837	-0.016181
C28	C	0.596441	0.203078	-0.015229
C29	C	0.572558	0.391929	-0.029386
C30	C	0.680739	0.404688	-0.030343
C31	C	1.415268	0.277540	-0.020807
C32	C	1.530404	0.291127	-0.021831
C33	C	1.218954	0.457465	-0.034300
C34	C	1.221503	0.574238	-0.043057
N35	N	1.225672	0.266224	0.175708
N36	N	1.225727	0.266252	-0.215626
C37	C	1.295888	0.201921	0.223795
C38	C	1.295893	0.201920	0.310342
C39	C	1.225687	0.266229	0.348800
C40	C	1.155463	0.330535	0.300707
C41	C	1.155453	0.330529	0.214162
C42	C	1.155498	0.330558	0.649734
C43	C	1.155515	0.330561	0.736285
C44	C	1.295938	0.201949	0.745914
C45	C	1.295929	0.201943	0.659368
C46	C	1.225702	0.266245	0.611283
C47	C	1.225696	0.266243	0.517439
C48	C	1.225697	0.266237	0.442642
H49	H	1.229683	-0.051927	-0.132093
F50	F	0.502277	0.485636	-0.036418
F51	F	1.080716	0.398966	0.162985
H52	H	1.226093	-0.216485	-0.194714
F53	F	1.229956	-0.038266	0.157588
H54	H	1.098294	0.382892	0.332025
F55	F	1.224990	-0.264767	0.174551
H56	H	0.562130	0.120995	-0.009078
H57	H	0.889283	0.411479	-0.030843
H58	H	0.736340	0.045712	-0.003431
H59	H	1.221731	-0.415527	-0.179803
H60	H	0.715068	0.486764	-0.036494
H61	H	1.353118	0.149588	0.785074
F62	F	1.221385	-0.429331	0.111928
F63	F	0.949105	0.046846	-0.003504
F64	F	1.370619	0.133478	0.182873
H65	H	1.353068	0.149559	0.349494
H66	H	1.353101	0.149581	0.628059
H67	H	1.098340	0.382931	0.767595
F68	F	1.080762	0.398994	0.598564
