data_functionalizedCrystal
_audit_creation_method	'MofGen! by Chris Wilmer'
_symmetry_space_group_name_H-M	'P1'
_symmetry_Int_Tables_number	1
_symmetry_cell_setting	triclinic
loop_
_symmetry_equiv_pos_as_xyz
  x,y,z
_cell_length_a	18.101395
_cell_length_b	16.959455
_cell_length_c	16.959447
_cell_angle_alpha	90.015228
_cell_angle_beta	89.970532
_cell_angle_gamma	89.974126
loop_
_atom_site_label
_atom_site_type_symbol
_atom_site_fract_x
_atom_site_fract_y
_atom_site_fract_z
Zn1	Zn	-0.294918	-1.208323	-0.446932
Zn2	Zn	0.205082	-0.708323	0.053068
Zn3	Zn	-0.418771	-1.208220	-0.314756
Zn4	Zn	0.081229	-0.708220	0.185244
Zn5	Zn	-0.294937	-1.076152	-0.314768
Zn6	Zn	0.205063	-0.576152	0.185232
Zn7	Zn	-0.418711	-1.076091	-0.446892
Zn8	Zn	0.081289	-0.576091	0.053108
O9	O	-0.356834	-1.142196	-0.380837
O10	O	0.143166	-0.642196	0.119163
O11	O	-0.311365	-1.318920	-0.429411
O12	O	0.188635	-0.818920	0.070589
O13	O	-0.402377	-1.190683	-0.204146
O14	O	0.097623	-0.690683	0.295854
O15	O	-0.191302	-1.093753	-0.332322
O16	O	0.308698	-0.593753	0.167678
O17	O	-0.402359	-1.318845	-0.332301
O18	O	0.097641	-0.818845	0.167699
O19	O	-0.191288	-1.190859	-0.429422
O20	O	0.308712	-0.690859	0.070578
O21	O	-0.311397	-1.093653	-0.204155
O22	O	0.188603	-0.593653	0.295845
O23	O	-0.311338	-0.965533	-0.332283
O24	O	0.188662	-0.465533	0.167717
O25	O	-0.402257	-1.093649	-0.557509
O26	O	0.097743	-0.593649	-0.057509
O27	O	-0.402275	-0.965488	-0.429354
O28	O	0.097725	-0.465488	0.070646
O29	O	-0.311307	-1.190800	-0.557538
O30	O	0.188693	-0.690800	-0.057538
O31	O	-0.522396	-1.190624	-0.332262
O32	O	-0.022396	-0.690624	0.167738
O33	O	-0.522352	-1.093550	-0.429342
O34	O	-0.022352	-0.593550	0.070658
C35	C	-0.356803	-0.936830	-0.380816
C36	C	0.143197	-0.436830	0.119184
C37	C	-0.356807	-0.848974	-0.380825
C38	C	0.143193	-0.348974	0.119175
C39	C	-0.309421	-0.477497	-0.330387
C40	C	0.190579	0.022503	0.169613
C41	C	-0.404261	-0.477499	-0.431311
C42	C	0.095739	0.022501	0.068689
C43	C	-0.404254	-0.560045	-0.431308
C44	C	0.095746	-0.060045	0.068692
C45	C	-0.356830	-0.601321	-0.380842
C46	C	0.143170	-0.101321	0.119158
C47	C	-0.309414	-0.560050	-0.330380
C48	C	0.190586	-0.060050	0.169620
C49	C	-0.451674	-0.601321	-0.481763
C50	C	0.048326	-0.101321	0.018237
C51	C	-0.451669	-0.683872	-0.481761
C52	C	0.048331	-0.183872	0.018239
C53	C	-0.404241	-0.725150	-0.431299
C54	C	0.095759	-0.225150	0.068701
C55	C	-0.356822	-0.683874	-0.380836
C56	C	0.143178	-0.183874	0.119164
C57	C	-0.309399	-0.725150	-0.330370
C58	C	0.190601	-0.225150	0.169630
C59	C	-0.261976	-0.683876	-0.279910
C60	C	0.238024	-0.183876	0.220090
C61	C	-0.261986	-0.601327	-0.279918
C62	C	0.238014	-0.101327	0.220082
C63	C	-0.404231	-0.807698	-0.431291
C64	C	0.095769	-0.307698	0.068709
C65	C	-0.309391	-0.807703	-0.330363
C66	C	0.190609	-0.307703	0.169637
C67	C	-0.549245	-1.142091	-0.380814
C68	C	-0.049245	-0.642091	0.119186
C69	C	-0.631559	-1.142118	-0.380830
C70	C	-0.131559	-0.642118	0.119170
C71	C	-0.930650	-1.142291	-0.380873
C72	C	-0.430650	-0.642291	0.119127
C73	C	-0.899328	-1.081356	-0.442105
C74	C	-0.399328	-0.581356	0.057895
C75	C	-0.813710	-1.081066	-0.441913
C76	C	-0.313710	-0.581066	0.058087
C77	C	-0.782268	-1.142205	-0.380852
C78	C	-0.282268	-0.642205	0.119148
C79	C	-0.813420	-1.119658	-0.297548
C80	C	-0.313420	-0.619658	0.202452
C81	C	-0.899065	-1.119266	-0.297914
C82	C	-0.399065	-0.619266	0.202086
C83	C	-0.899000	-1.225907	-0.402213
C84	C	-0.399000	-0.725907	0.097787
C85	C	-0.813349	-1.225415	-0.404040
C86	C	-0.313349	-0.725415	0.095960
C87	C	-0.698408	-1.142158	-0.380836
C88	C	-0.198408	-0.642158	0.119164
C89	C	-1.014509	-1.142337	-0.380884
C90	C	-0.514509	-0.642337	0.119116
C91	C	-0.163673	-1.142324	-0.380878
C92	C	0.336327	-0.642324	0.119122
C93	C	-0.081358	-1.142379	-0.380895
C94	C	0.418642	-0.642379	0.119105
C95	C	-0.356773	-1.142229	-0.587005
C96	C	0.143227	-0.642229	-0.087005
C97	C	-0.356747	-1.142243	-0.674862
C98	C	0.143253	-0.642243	-0.174862
C99	C	-0.356858	-0.348365	-0.380855
C100	C	0.143142	0.151635	0.119145
C101	C	-0.356845	-0.436221	-0.380853
C102	C	0.143155	0.063779	0.119147
C103	C	-0.404022	-1.091756	-1.046325
C104	C	0.095978	-0.591756	-0.546325
C105	C	-0.309315	-1.192920	-1.046351
C106	C	0.190685	-0.692920	-0.546351
C107	C	-0.309331	-1.192899	-0.963805
C108	C	0.190669	-0.692899	-0.463805
C109	C	-0.356694	-1.142306	-0.922515
C110	C	0.143306	-0.642306	-0.422515
C111	C	-0.404041	-1.091735	-0.963771
C112	C	0.095959	-0.591735	-0.463771
C113	C	-0.261990	-1.243475	-0.922542
C114	C	0.238010	-0.743475	-0.422542
C115	C	-0.262004	-1.243456	-0.839991
C116	C	0.237996	-0.743456	-0.339991
C117	C	-0.309364	-1.192859	-0.798700
C118	C	0.190636	-0.692859	-0.298700
C119	C	-0.356713	-1.142285	-0.839962
C120	C	0.143287	-0.642285	-0.339962
C121	C	-0.404076	-1.091693	-0.798672
C122	C	0.095924	-0.591693	-0.298672
C123	C	-0.451421	-1.041114	-0.839932
C124	C	0.048579	-0.541114	-0.339932
C125	C	-0.451401	-1.041138	-0.922480
C126	C	0.048599	-0.541138	-0.422480
C127	C	-0.309384	-1.192836	-0.716152
C128	C	0.190616	-0.692836	-0.216152
C129	C	-0.404094	-1.091672	-0.716118
C130	C	0.095906	-0.591672	-0.216118
C131	C	-0.356842	-1.142209	-0.175471
C132	C	0.143158	-0.642209	0.324529
C133	C	-0.356660	-1.142348	-0.087615
C134	C	0.143340	-0.642348	0.412385
H135	H	-0.442876	-0.443888	-0.472393
H136	H	0.057124	0.056112	0.027607
H137	H	-0.270838	-1.234018	-0.682562
H138	H	0.229162	-0.734018	-0.182562
H139	H	-0.920548	-1.246464	-0.461923
H140	H	-0.420548	-0.746464	0.038077
H141	H	-0.919255	-1.271306	-0.357615
H142	H	-0.419255	-0.771306	0.142385
O143	O	-0.786446	-1.176590	-0.235459
O144	O	-0.286446	-0.676590	0.264541
H145	H	-0.750461	-1.221664	-0.263383
H146	H	-0.250461	-0.721664	0.236617
O147	O	-0.926518	-1.175508	-0.235427
O148	O	-0.426518	-0.675508	0.264573
H149	H	-0.987836	-1.175657	-0.235227
H150	H	-0.487836	-0.675657	0.264773
O151	O	-0.502820	-0.556807	-0.536193
O152	O	-0.002820	-0.056807	-0.036193
H153	H	-0.494850	-0.492472	-0.527728
H154	H	0.005150	0.007528	-0.027728
H155	H	-0.490283	-0.717471	-0.522849
H156	H	0.009717	-0.217471	-0.022849
H157	H	-0.793282	-1.019089	-0.427778
H158	H	-0.293282	-0.519089	0.072222
H159	H	-0.223453	-1.284640	-0.806405
H160	H	0.276547	-0.784640	-0.306405
H161	H	-0.270768	-0.841304	-0.289273
H162	H	0.229232	-0.341304	0.210727
H163	H	-0.223367	-0.717493	-0.238818
H164	H	0.276633	-0.217493	0.261182
H165	H	-0.442844	-0.841299	-0.472372
H166	H	0.057156	-0.341299	0.027628
H167	H	-0.223434	-1.284669	-0.956166
H168	H	0.276566	-0.784669	-0.456166
H169	H	-0.223378	-0.567715	-0.238836
H170	H	0.276622	-0.067715	0.261164
H171	H	-0.270809	-0.443888	-0.289306
H172	H	0.229191	0.056112	0.210694
H173	H	-0.919103	-1.058143	-0.279837
H174	H	-0.419103	-0.558143	0.220163
O175	O	-0.785098	-1.039551	-0.273167
O176	O	-0.285098	-0.539551	0.226833
H177	H	-0.748845	-1.015666	-0.320242
H178	H	-0.248845	-0.515666	0.179758
H179	H	-0.792645	-1.095172	-0.503683
H180	H	-0.292645	-0.595172	-0.003683
H181	H	-0.270759	-1.234114	-1.079974
H182	H	0.229241	-0.734114	-0.579974
H183	H	-0.792985	-1.242417	-0.465347
H184	H	-0.292985	-0.742417	0.034653
H185	H	-0.919875	-1.095322	-0.504074
H186	H	-0.419875	-0.595322	-0.004074
O187	O	-0.455162	-1.037086	-0.671584
O188	O	0.044838	-0.537086	-0.171584
H189	H	-0.488075	-1.001920	-0.714145
H190	H	0.011925	-0.501920	-0.214145
O191	O	-0.927899	-0.999752	-0.423617
O192	O	-0.427899	-0.499752	0.076383
H193	H	-0.964310	-1.002404	-0.371006
H194	H	-0.464310	-0.502404	0.128994
O195	O	-0.502500	-0.986538	-0.795400
O196	O	-0.002500	-0.486538	-0.295400
H197	H	-0.540193	-1.021877	-0.757776
H198	H	-0.040193	-0.521877	-0.257776
O199	O	-0.785014	-1.288723	-0.349245
O200	O	-0.285014	-0.788723	0.150755
H201	H	-0.723791	-1.290779	-0.352310
H202	H	-0.223791	-0.790779	0.147690
H203	H	-0.442568	-1.050574	-1.079922
H204	H	0.057432	-0.550574	-0.579922
O205	O	-0.502463	-0.986588	-0.966979
O206	O	-0.002463	-0.486588	-0.466979
H207	H	-0.494497	-0.995109	-1.031316
H208	H	0.005503	-0.495109	-0.531316
