data_functionalizedCrystal
_audit_creation_method	'MofGen! by Chris Wilmer'
_symmetry_space_group_name_H-M	'P1'
_symmetry_Int_Tables_number	1
_symmetry_cell_setting	triclinic
loop_
_symmetry_equiv_pos_as_xyz
  x,y,z
_cell_length_a	10.654550
_cell_length_b	27.732048
_cell_length_c	9.730223
_cell_angle_alpha	89.993758
_cell_angle_beta	89.996251
_cell_angle_gamma	83.563778
loop_
_atom_site_label
_atom_site_type_symbol
_atom_site_fract_x
_atom_site_fract_y
_atom_site_fract_z
O1	O	1.664980	0.067884	-0.114419
O2	O	1.299230	0.074351	-0.114399
O3	O	1.493465	0.000792	-0.114384
O4	O	1.470746	0.141444	-0.114435
O5	O	1.493462	0.000793	0.114196
O6	O	1.299228	0.074353	0.114181
O7	O	1.664978	0.067886	0.114161
Zn8	Zn	1.482102	0.071120	0.150463
Zn9	Zn	1.482105	0.071117	-0.150701
O10	O	1.470743	0.141445	0.114145
C11	C	1.252451	0.073878	-0.000106
C12	C	1.113067	0.072457	-0.000097
C13	C	1.031761	0.115768	-0.000133
C14	C	0.900796	0.114430	-0.000156
C15	C	0.932457	0.026466	-0.000114
C16	C	1.063419	0.027805	-0.000080
C17	C	1.013480	0.166553	-0.000163
C18	C	0.882516	0.165215	-0.000187
C19	C	1.492987	-0.017217	-0.000090
C20	C	1.491551	-0.070881	-0.000078
C21	C	1.597290	-0.409038	-0.000155
C22	C	1.591962	-0.610731	-0.000174
O23	O	1.688653	-0.641384	-0.000239
N24	N	1.476789	-0.630572	-0.000166
C25	C	1.362940	-0.599986	-0.000163
O26	O	1.264856	-0.621490	-0.000171
C27	C	1.368269	-0.398294	-0.000154
C28	C	1.483449	-0.378456	-0.000147
C29	C	1.712461	-0.389199	-0.000150
C30	C	1.713792	-0.338779	-0.000138
C31	C	1.599951	-0.308197	-0.000131
C32	C	1.484780	-0.328036	-0.000135
C33	C	1.254421	-0.367709	-0.000160
C34	C	1.255764	-0.317284	-0.000161
C35	C	1.370944	-0.297446	-0.000155
C36	C	1.372271	-0.247034	-0.000115
N37	N	1.487444	-0.227193	-0.000123
C38	C	1.601284	-0.257775	-0.000131
C39	C	1.360150	-0.705877	-0.000165
C40	C	1.358817	-0.756300	-0.000164
C41	C	1.587840	-0.767041	-0.000178
C42	C	1.589171	-0.716618	-0.000169
C43	C	1.475323	-0.686036	-0.000172
C44	C	1.604070	-0.151888	-0.000104
C45	C	1.605391	-0.101463	-0.000086
C46	C	1.376369	-0.090726	-0.000080
C47	C	1.375047	-0.141147	-0.000090
C48	C	1.488908	-0.171727	-0.000107
O49	O	1.275631	-0.216352	-0.000065
O50	O	1.699354	-0.236261	-0.000153
C51	C	1.595959	-0.459458	-0.000167
C52	C	1.480788	-0.479296	-0.000172
C53	C	1.366948	-0.448715	-0.000164
C54	C	1.479455	-0.529719	-0.000172
C55	C	1.593296	-0.560301	-0.000179
C56	C	1.708469	-0.540460	-0.000187
C57	C	1.709800	-0.490040	-0.000175
C58	C	1.251774	-0.468556	-0.000157
C59	C	1.250453	-0.518976	-0.000167
C60	C	1.364293	-0.549558	-0.000175
C61	C	1.711757	0.068360	-0.000135
C62	C	1.851141	0.069780	-0.000153
C63	C	1.471221	0.159454	-0.000152
C64	C	1.472657	0.213118	-0.000172
N65	N	1.482110	0.071121	0.355999
N66	N	1.482108	0.071112	-0.356238
C67	C	1.568138	0.038560	0.427932
C68	C	1.568135	0.038554	0.571815
C69	C	1.396071	0.103675	0.571820
C70	C	1.396069	0.103678	0.427939
C71	C	1.667482	0.000964	0.427930
C72	C	1.667479	0.000959	0.571813
H73	H	1.696787	-0.176781	-0.000123
H74	H	1.326007	0.130188	0.369373
N75	N	1.051227	0.192861	0.126546
H76	H	1.111995	0.170388	0.183115
H77	H	1.093309	0.222188	0.098240
N78	N	1.250823	-0.162548	-0.000092
H79	H	1.245160	-0.183237	0.084633
H80	H	1.178981	-0.135495	-0.000133
H81	H	1.160629	-0.383852	-0.000173
N82	N	1.641145	-0.048242	0.376207
H83	H	1.641141	-0.048260	0.272407
H84	H	1.708713	-0.073800	0.410877
H85	H	1.758171	0.012736	0.383294
H86	H	1.283683	-0.065818	-0.000069
N87	N	1.128977	-0.435579	-0.000136
H88	H	1.124422	-0.414426	0.084606
H89	H	1.124480	-0.414443	-0.084919
H90	H	0.836198	0.180563	0.098492
N91	N	1.713399	-0.695222	-0.000172
H92	H	1.719059	-0.674546	0.084564
H93	H	1.785234	-0.722278	-0.000223
H94	H	1.763642	0.009240	0.610855
H95	H	0.839980	0.184349	-0.095861
H96	H	1.326018	0.130181	0.630409
N97	N	1.629058	-0.045547	0.630949
H98	H	1.610492	-0.068013	0.553695
H99	H	1.700013	-0.061721	0.689386
H100	H	0.892018	-0.009888	-0.000121
N101	N	1.729630	-0.080069	-0.000074
H102	H	1.779460	-0.091188	-0.084813
H103	H	1.713105	-0.043490	-0.000008
N104	N	1.151117	-0.018909	-0.000007
H105	H	1.099789	-0.047397	0.000001
H106	H	1.206175	-0.020277	-0.084724
N107	N	1.838023	-0.317386	-0.000136
H108	H	1.909928	-0.344416	-0.000146
H109	H	1.843570	-0.296696	-0.084874
N110	N	1.835257	-0.422179	-0.000157
H111	H	1.908407	-0.401953	-0.000153
H112	H	1.839694	-0.443335	0.084585
H113	H	1.048457	0.182723	-0.098857
H114	H	1.680533	-0.791950	-0.000184
H115	H	1.803591	-0.473893	-0.000170
H116	H	1.265026	-0.772447	-0.000146
N117	N	1.237348	-0.672896	-0.000166
H118	H	1.164195	-0.693121	-0.000157
H119	H	1.232907	-0.651745	0.084573
N120	N	1.132967	-0.284300	-0.000172
H121	H	1.059808	-0.304522	-0.000177
H122	H	1.128521	-0.263150	0.084569
H123	H	1.801162	-0.565369	-0.000187
H124	H	1.156652	-0.535123	-0.000160
