data_functionalizedCrystal
_audit_creation_method	'MofGen! by Chris Wilmer'
_symmetry_space_group_name_H-M	'P1'
_symmetry_Int_Tables_number	1
_symmetry_cell_setting	triclinic
loop_
_symmetry_equiv_pos_as_xyz
  x,y,z
_cell_length_a	14.971486
_cell_length_b	14.971486
_cell_length_c	13.448316
_cell_angle_alpha	89.993189
_cell_angle_beta	89.998199
_cell_angle_gamma	83.614129
loop_
_atom_site_label
_atom_site_type_symbol
_atom_site_fract_x
_atom_site_fract_y
_atom_site_fract_z
O1	O	1.186947	0.116565	-0.082578
O2	O	0.926547	0.130524	-0.082605
O3	O	1.063727	-0.006656	-0.082584
O4	O	1.049768	0.253744	-0.082599
O5	O	1.063709	-0.006664	0.082800
O6	O	0.926530	0.130515	0.082779
O7	O	1.186930	0.116556	0.082806
Cu8	Cu	1.056728	0.123535	0.097893
Cu9	Cu	1.056749	0.123545	-0.097692
O10	O	1.049751	0.253736	0.082784
C11	C	0.893214	0.129895	0.000083
C12	C	0.793917	0.128024	0.000073
C13	C	0.736692	0.208614	0.000070
C14	C	0.643392	0.206850	0.000085
C15	C	0.607320	0.124497	0.000096
C16	C	0.664552	0.043902	0.000102
C17	C	0.757850	0.045666	0.000095
C18	C	0.470090	0.040231	0.000116
C19	C	0.376786	0.038466	0.000122
C20	C	0.355632	0.201415	0.000106
C21	C	0.448930	0.203179	0.000099
C22	C	0.506156	0.122584	0.000103
C23	C	1.063094	-0.039985	0.000108
C24	C	1.061223	-0.139282	0.000107
C25	C	1.141812	-0.196507	0.000116
C26	C	1.140049	-0.289807	0.000106
C27	C	1.057696	-0.325879	0.000093
C28	C	0.977101	-0.268646	0.000081
C29	C	0.978865	-0.175349	0.000084
C30	C	0.973430	-0.463109	0.000077
C31	C	0.971665	-0.556413	0.000076
C32	C	1.134614	-0.577567	0.000099
C33	C	1.136378	-0.484269	0.000102
C34	C	1.055782	-0.427043	0.000091
C35	C	1.220263	0.117185	0.000115
C36	C	1.319561	0.119056	0.000119
C37	C	1.050384	0.287065	0.000091
C38	C	1.052254	0.386362	0.000085
N39	N	1.056721	0.123527	0.235457
N40	N	1.056764	0.123545	-0.235257
C41	C	1.117483	0.062809	0.287507
C42	C	1.117488	0.062809	0.391610
C43	C	1.056735	0.123531	0.443662
C44	C	0.995967	0.184252	0.391605
C45	C	0.995958	0.184248	0.287504
C46	C	0.995992	0.184258	0.608585
C47	C	0.996002	0.184264	0.712693
C48	C	1.117522	0.062819	0.712692
C49	C	1.117513	0.062815	0.608591
C50	C	1.056745	0.123537	0.556541
H51	H	0.478296	0.270239	0.000080
H52	H	0.347419	-0.028593	0.000133
O53	O	0.897158	-0.303791	-0.000064
C54	C	0.891263	-0.357100	-0.085730
H55	H	0.961740	-0.380258	-0.114278
H56	H	0.855540	-0.418232	-0.066470
H57	H	0.851742	-0.315918	-0.145713
O58	O	1.176609	0.003804	0.442017
C59	C	1.230222	-0.049798	0.373752
H60	H	1.231250	-0.013127	0.299537
H61	H	1.301642	-0.063307	0.403818
H62	H	1.201128	-0.116303	0.362702
H63	H	1.205673	-0.336396	0.000115
H64	H	1.166987	0.013374	0.566210
O65	O	1.176516	0.003708	0.763135
C66	C	1.161881	-0.084865	0.737730
H67	H	1.127395	-0.084814	0.662153
H68	H	1.229071	-0.128795	0.734161
H69	H	1.117344	-0.112606	0.796332
H70	H	0.309033	0.267039	0.000107
O71	O	0.525553	-0.038142	0.000071
C72	C	0.473711	-0.111209	0.000101
H73	H	0.404100	-0.088578	-0.031199
H74	H	0.508063	-0.167674	-0.047920
H75	H	0.467050	-0.136458	0.079445
O76	O	0.936931	0.243331	0.558176
C77	C	0.883298	0.296916	0.626438
H78	H	0.919974	0.297987	0.700641
H79	H	0.869728	0.368326	0.596349
H80	H	0.816825	0.267767	0.637523
O81	O	0.936861	0.243268	0.442010
C82	C	0.883241	0.296871	0.373743
H83	H	0.882191	0.260194	0.299543
H84	H	0.811829	0.310394	0.403828
H85	H	0.912343	0.363369	0.362655
O86	O	1.216320	-0.449122	-0.000019
C87	C	1.222231	-0.395797	-0.085683
H88	H	1.151760	-0.372635	-0.114246
H89	H	1.257948	-0.334667	-0.066414
H90	H	1.261765	-0.436965	-0.145658
O91	O	1.176358	0.003750	0.236862
C92	C	1.128365	-0.051526	0.176714
H93	H	1.058430	-0.015984	0.161098
H94	H	1.165676	-0.065676	0.103517
H95	H	1.122180	-0.117614	0.216888
H96	H	1.208874	-0.167145	0.000132
H97	H	0.804443	-0.019958	0.000097
O98	O	1.212824	-0.633279	0.000053
C99	C	1.193612	-0.723362	0.000064
H100	H	1.123355	-0.727007	-0.031255
H101	H	1.244980	-0.765565	-0.047952
H102	H	1.196967	-0.750355	0.079404
O103	O	0.937058	0.243269	0.236829
C104	C	0.985007	0.298544	0.176612
H105	H	1.054958	0.263036	0.161013
H106	H	0.947682	0.312627	0.103410
H107	H	0.991152	0.364665	0.216716
O108	O	0.891648	-0.591417	-0.000125
C109	C	0.842526	-0.562162	-0.085781
H110	H	0.890695	-0.542690	-0.145632
H111	H	0.804428	-0.618724	-0.114547
H112	H	0.792735	-0.501419	-0.066430
H113	H	0.635175	-0.023152	0.000126
H114	H	0.907800	-0.416517	0.000066
O115	O	0.936947	0.243117	0.763373
C116	C	0.881727	0.195108	0.823591
H117	H	0.917292	0.125177	0.839180
H118	H	0.867626	0.232412	0.896797
H119	H	0.815611	0.188914	0.783491
H120	H	0.596802	0.272474	0.000081
O121	O	0.771579	0.288691	0.000102
C122	C	0.701059	0.359442	0.000078
H123	H	0.637658	0.334296	0.031397
H124	H	0.720617	0.416931	0.048088
H125	H	0.687879	0.384309	-0.079265
O126	O	0.900497	-0.119885	0.000120
C127	C	0.827431	-0.171727	0.000083
H128	H	0.850052	-0.241336	0.031399
H129	H	0.770951	-0.137373	0.048087
H130	H	0.802205	-0.178390	-0.079265
