data_functionalizedCrystal
_audit_creation_method	'MofGen! by Chris Wilmer'
_symmetry_space_group_name_H-M	'P1'
_symmetry_Int_Tables_number	1
_symmetry_cell_setting	triclinic
loop_
_symmetry_equiv_pos_as_xyz
  x,y,z
_cell_length_a	21.295418
_cell_length_b	21.295417
_cell_length_c	21.295411
_cell_angle_alpha	90.021644
_cell_angle_beta	90.043738
_cell_angle_gamma	90.046319
loop_
_atom_site_label
_atom_site_type_symbol
_atom_site_fract_x
_atom_site_fract_y
_atom_site_fract_z
Zn1	Zn	0.962356	-0.250415	0.356234
Zn2	Zn	1.295689	0.082918	0.689567
Zn3	Zn	1.629022	0.416251	1.022900
Zn4	Zn	0.962258	-0.355667	0.250959
Zn5	Zn	1.295592	-0.022334	0.584292
Zn6	Zn	1.628925	0.311000	0.917626
Zn7	Zn	0.857079	-0.250445	0.250943
Zn8	Zn	1.190412	0.082889	0.584277
Zn9	Zn	1.523746	0.416222	0.917610
Zn10	Zn	0.857048	-0.355680	0.356155
Zn11	Zn	1.190382	-0.022346	0.689489
Zn12	Zn	1.523715	0.310987	1.022822
O13	O	0.909685	-0.303052	0.303573
O14	O	1.243019	0.030282	0.636906
O15	O	1.576352	0.363615	0.970240
O16	O	1.050432	-0.264360	0.342308
O17	O	1.383766	0.068974	0.675641
O18	O	1.717099	0.402307	1.008975
O19	O	0.948278	-0.341716	0.162867
O20	O	1.281611	-0.008383	0.496201
O21	O	1.614945	0.324950	0.829534
O22	O	0.871098	-0.162351	0.264937
O23	O	1.204431	0.170982	0.598270
O24	O	1.537764	0.504315	0.931603
O25	O	1.050361	-0.341688	0.264963
O26	O	1.383694	-0.008354	0.598296
O27	O	1.717027	0.324979	0.931630
O28	O	0.948444	-0.162330	0.342293
O29	O	1.281778	0.171004	0.675626
O30	O	1.615111	0.504337	1.008960
O31	O	0.871003	-0.264410	0.162856
O32	O	1.204337	0.068923	0.496189
O33	O	1.537670	0.402257	0.829523
O34	O	0.768985	-0.264422	0.264861
O35	O	1.102319	0.068911	0.598194
O36	O	1.435652	0.402245	0.931527
O37	O	0.871046	-0.341709	0.444255
O38	O	1.204379	-0.008376	0.777589
O39	O	1.537712	0.324958	1.110922
O40	O	0.768963	-0.341738	0.342160
O41	O	1.102296	-0.008404	0.675493
O42	O	1.435630	0.324929	1.008826
O43	O	0.948415	-0.264372	0.444313
O44	O	1.281748	0.068962	0.777646
O45	O	1.615081	0.402295	1.110979
O46	O	0.948248	-0.443758	0.264887
O47	O	1.281582	-0.110425	0.598221
O48	O	1.614915	0.222909	0.931554
O49	O	0.870951	-0.443767	0.342175
O50	O	1.204284	-0.110434	0.675508
O51	O	1.537618	0.222899	1.008841
C52	C	0.746134	-0.303085	0.303500
C53	C	1.079467	0.030249	0.636834
C54	C	1.412800	0.363582	0.970167
C55	C	0.676166	-0.303114	0.303484
C56	C	1.009499	0.030219	0.636818
C57	C	1.342832	0.363553	0.970151
C58	C	0.643304	-0.343426	0.343674
C59	C	0.976637	-0.010092	0.677007
C60	C	1.309970	0.323241	1.010340
C61	C	0.577561	-0.343410	0.343702
C62	C	0.910894	-0.010077	0.677035
C63	C	1.244228	0.323257	1.010369
C64	C	0.544683	-0.303090	0.303530
C65	C	0.878016	0.030244	0.636863
C66	C	1.211350	0.363577	0.970196
C67	C	0.577553	-0.262770	0.263337
C68	C	0.910886	0.070563	0.596671
C69	C	1.244220	0.403896	0.930004
C70	C	0.643294	-0.262783	0.263315
C71	C	0.976627	0.070551	0.596648
C72	C	1.309961	0.403884	0.929982
N73	N	0.441407	-0.298163	0.248472
N74	N	0.774740	0.035171	0.581805
N75	N	1.108074	0.368504	0.915139
N76	N	0.378956	-0.298155	0.248495
N77	N	0.712289	0.035179	0.581829
N78	N	1.045622	0.368512	0.915162
C79	C	0.346608	-0.303050	0.303596
C80	C	0.679942	0.030284	0.636930
C81	C	1.013275	0.363617	0.970263
N82	N	0.379072	-0.307965	0.358675
N83	N	0.712405	0.025368	0.692008
N84	N	1.045739	0.358702	1.025341
N85	N	0.441529	-0.307976	0.358650
N86	N	0.774862	0.025357	0.691984
N87	N	1.108196	0.358691	1.025317
C88	C	0.473398	-0.303072	0.303550
C89	C	0.806731	0.030262	0.636883
C90	C	1.140064	0.363595	0.970217
C91	C	0.242461	-0.343346	0.343820
C92	C	0.575794	-0.010013	0.677153
C93	C	0.909128	0.323320	1.010486
C94	C	0.176717	-0.343326	0.343849
C95	C	0.510051	-0.009993	0.677182
C96	C	0.843384	0.323340	1.010516
C97	C	0.176710	-0.262690	0.263479
C98	C	0.510044	0.070643	0.596812
C99	C	0.843377	0.403977	0.930146
C100	C	0.242453	-0.262707	0.263455
C101	C	0.575786	0.070627	0.596789
C102	C	0.909119	0.403960	0.930122
C103	C	0.275324	-0.303038	0.303625
C104	C	0.608657	0.030295	0.636958
C105	C	0.941991	0.363628	0.970291
C106	C	0.909603	-0.466603	0.303538
C107	C	1.242936	-0.133270	0.636871
C108	C	1.576269	0.200063	0.970205
C109	C	0.909625	-0.536571	0.303544
C110	C	1.242958	-0.203238	0.636877
C111	C	1.576292	0.130095	0.970211
C112	C	0.949910	-0.569412	0.263342
C113	C	1.283243	-0.236079	0.596675
C114	C	1.616576	0.097254	0.930009
C115	C	0.949939	-0.635155	0.263356
C116	C	1.283272	-0.301822	0.596689
C117	C	1.616606	0.031512	0.930023
C118	C	0.909673	-0.668054	0.303566
C119	C	1.243006	-0.334721	0.636899
C120	C	1.576340	-0.001387	0.970233
C121	C	0.869386	-0.635205	0.343776
C122	C	1.202719	-0.301872	0.677109
C123	C	1.536052	0.031462	1.010443
C124	C	0.869362	-0.569464	0.343765
C125	C	1.202695	-0.236130	0.677098
C126	C	1.536028	0.097203	1.010432
N127	N	0.854606	-0.771336	0.308340
N128	N	1.187939	-0.438002	0.641674
N129	N	1.521272	-0.104669	0.975007
N130	N	0.854630	-0.833787	0.308347
N131	N	1.187964	-0.500454	0.641680
N132	N	1.521297	-0.167120	0.975014
C133	C	0.909743	-0.866129	0.303602
C134	C	1.243077	-0.532795	0.636935
C135	C	1.576410	-0.199462	0.970269
N136	N	0.964832	-0.833659	0.298838
N137	N	1.298166	-0.500326	0.632171
N138	N	1.631499	-0.166993	0.965504
N139	N	0.964807	-0.771202	0.298828
N140	N	1.298140	-0.437869	0.632161
N141	N	1.631474	-0.104535	0.965494
C142	C	0.909695	-0.739339	0.303582
C143	C	1.243028	-0.406006	0.636916
C144	C	1.576361	-0.072673	0.970249
C145	C	0.950063	-0.970255	0.263413
C146	C	1.283397	-0.636922	0.596746
C147	C	1.616730	-0.303588	0.930080
C148	C	0.950094	-1.035999	0.263431
C149	C	1.283427	-0.702665	0.596765
C150	C	1.616760	-0.369332	0.930098
C151	C	0.869535	-1.036048	0.343848
C152	C	1.202868	-0.702714	0.677181
C153	C	1.536201	-0.369381	1.010515
C154	C	0.869510	-0.970305	0.343833
C155	C	1.202843	-0.636972	0.677166
C156	C	1.536176	-0.303638	1.010500
C157	C	0.909773	-0.937413	0.303612
C158	C	1.243106	-0.604079	0.636945
C159	C	1.576440	-0.270746	0.970279
C160	C	1.073876	-0.303019	0.303646
C161	C	1.407209	0.030314	0.636979
C162	C	1.740542	0.363648	0.970313
C163	C	1.143844	-0.303005	0.303677
C164	C	1.477177	0.030328	0.637010
C165	C	1.810510	0.363662	0.970344
C166	C	0.909738	-0.303038	0.467763
C167	C	1.243071	0.030295	0.801097
C168	C	1.576404	0.363628	1.134430
C169	C	0.909760	-0.303033	0.537731
C170	C	1.243093	0.030301	0.871065
C171	C	1.576427	0.363634	1.204398
C172	C	0.909785	-0.138861	0.303622
C173	C	1.243119	0.194472	0.636955
C174	C	1.576452	0.527805	0.970288
C175	C	0.909828	-0.068893	0.303642
C176	C	1.243161	0.264440	0.636976
C177	C	1.576495	0.597773	0.970309
C178	C	0.909670	-0.303019	0.140021
C179	C	1.243003	0.030314	0.473355
C180	C	1.576336	0.363647	0.806688
C181	C	0.909769	-0.302848	0.070054
C182	C	1.243103	0.030486	0.403387
C183	C	1.576436	0.363819	0.736720
C184	C	0.950044	-0.262761	0.570629
C185	C	1.283377	0.070572	0.903962
C186	C	1.616711	0.403905	1.237296
C187	C	0.950043	-0.262734	0.636371
C188	C	1.283377	0.070599	0.969705
C189	C	1.616710	0.403933	1.303038
C190	C	0.909765	-0.302989	0.669214
C191	C	1.243098	0.030344	1.002547
C192	C	1.576431	0.363677	1.335881
C193	C	0.869473	-0.343263	0.636308
C194	C	1.202806	-0.009930	0.969642
C195	C	1.536139	0.323403	1.302975
C196	C	0.869470	-0.343285	0.570567
C197	C	1.202804	-0.009952	0.903900
C198	C	1.536137	0.323382	1.237234
N199	N	0.904908	-0.358058	0.772428
N200	N	1.238241	-0.024725	1.105761
N201	N	1.571575	0.308608	1.439094
N202	N	0.904914	-0.358036	0.834879
N203	N	1.238247	-0.024703	1.168213
N204	N	1.571581	0.308631	1.501546
C205	C	0.909769	-0.302926	0.867289
C206	C	1.243102	0.030408	1.200622
C207	C	1.576435	0.363741	1.533955
N208	N	0.914629	-0.247837	0.834888
N209	N	1.247963	0.085496	1.168221
N210	N	1.581296	0.418830	1.501554
N211	N	0.914627	-0.247860	0.772430
N212	N	1.247960	0.085473	1.105764
N213	N	1.581293	0.418807	1.439097
C214	C	0.909763	-0.302970	0.740499
C215	C	1.243096	0.030363	1.073833
C216	C	1.576429	0.363697	1.407166
C217	C	0.950054	-0.262621	0.971472
C218	C	1.283388	0.070712	1.304805
C219	C	1.616721	0.404045	1.638139
C220	C	0.950049	-0.262593	1.037216
C221	C	1.283382	0.070740	1.370549
C222	C	1.616716	0.404074	1.703882
C223	C	0.869482	-0.343128	1.037151
C224	C	1.202815	-0.009795	1.370485
C225	C	1.536148	0.323539	1.703818
C226	C	0.869484	-0.343151	0.971409
C227	C	1.202817	-0.009817	1.304742
C228	C	1.536150	0.323516	1.638076
C229	C	0.909773	-0.302898	0.938573
C230	C	1.243107	0.030435	1.271906
C231	C	1.576440	0.363769	1.605240
H232	H	0.269209	-0.229884	0.230726
H233	H	0.602543	0.103450	0.564059
H234	H	0.935876	0.436783	0.897392
H235	H	0.982696	-0.542633	0.230593
H236	H	1.316029	-0.209300	0.563927
H237	H	1.649363	0.124033	0.897260
F238	F	0.826534	-0.670219	0.386572
F239	F	1.159867	-0.336886	0.719906
F240	F	1.493201	-0.003553	1.053239
F241	F	0.826484	-0.534511	0.386556
F242	F	1.159817	-0.201178	0.719889
F243	F	1.493150	0.132156	1.053222
F244	F	0.826603	-0.386104	0.671263
F245	F	1.159937	-0.052771	1.004596
F246	F	1.493270	0.280563	1.337929
F247	F	0.678269	-0.219875	0.220538
F248	F	1.011603	0.113458	0.553871
F249	F	1.344936	0.446791	0.887205
H250	H	0.836704	-0.943564	0.376567
H251	H	1.170037	-0.610231	0.709900
H252	H	1.503370	-0.276898	1.043233
F253	F	0.992914	-0.935246	0.220607
F254	F	1.326247	-0.601913	0.553940
F255	F	1.659581	-0.268580	0.887273
H256	H	0.982852	-0.229795	1.064000
H257	H	1.316186	0.103538	1.397333
H258	H	1.649519	0.436871	1.730666
F259	F	0.826684	-1.071057	0.386647
F260	F	1.160017	-0.737723	0.719980
F261	F	1.493350	-0.404390	1.053313
H262	H	0.149962	-0.376152	0.376580
H263	H	0.483296	-0.042818	0.709913
H264	H	0.816629	0.290515	1.043247
F265	F	0.277447	-0.386267	0.386574
F266	F	0.610781	-0.052934	0.719907
F267	F	0.944114	0.280400	1.053241
F268	F	0.678284	-0.386348	0.386428
F269	F	1.011617	-0.053015	0.719761
F270	F	1.344951	0.280318	1.053095
H271	H	0.982746	-0.661899	0.230619
H272	H	1.316079	-0.328566	0.563952
H273	H	1.649412	0.004767	0.897285
H274	H	0.550779	-0.229940	0.230630
H275	H	0.884113	0.103393	0.563963
H276	H	1.217446	0.436727	0.897297
H277	H	0.982902	-1.062737	0.230695
H278	H	1.316235	-0.729403	0.564029
H279	H	1.649569	-0.396070	0.897362
F280	F	0.992911	-0.219860	0.671391
F281	F	1.326244	0.113474	1.004724
F282	F	1.659577	0.446807	1.338057
F283	F	0.992922	-0.219918	0.535686
F284	F	1.326255	0.113415	0.869020
F285	F	1.659588	0.446748	1.202353
F286	F	0.141723	-0.219774	0.220728
F287	F	0.475057	0.113559	0.554061
F288	F	0.808390	0.446892	0.887394
H289	H	0.550800	-0.376236	0.376431
H290	H	0.884133	-0.042903	0.709765
H291	H	1.217466	0.290430	1.043098
F292	F	0.826592	-0.386149	0.535554
F293	F	1.159926	-0.052816	0.868887
F294	F	1.493259	0.280517	1.202221
F295	F	0.992931	-0.219779	0.936523
F296	F	1.326264	0.113554	1.269857
F297	F	1.659597	0.446887	1.603190
F298	F	0.826609	-0.385966	1.072100
F299	F	1.159942	-0.052633	1.405434
F300	F	1.493276	0.280700	1.738767
H301	H	0.836683	-0.375948	0.944623
H302	H	1.170017	-0.042614	1.277957
H303	H	1.503350	0.290719	1.611290
