data_functionalizedCrystal
_audit_creation_method	'MofGen! by Chris Wilmer'
_symmetry_space_group_name_H-M	'P1'
_symmetry_Int_Tables_number	1
_symmetry_cell_setting	triclinic
loop_
_symmetry_equiv_pos_as_xyz
  x,y,z
_cell_length_a	19.121063
_cell_length_b	19.121274
_cell_length_c	13.032268
_cell_angle_alpha	80.115375
_cell_angle_beta	99.247498
_cell_angle_gamma	90.075254
loop_
_atom_site_label
_atom_site_type_symbol
_atom_site_fract_x
_atom_site_fract_y
_atom_site_fract_z
Zn1	Zn	-0.369692	-1.010918	-0.550121
Zn2	Zn	0.130308	-0.510918	-0.050121
Zn3	Zn	-0.473170	-1.020828	-0.381306
Zn4	Zn	0.026830	-0.520828	0.118694
Zn5	Zn	-0.350901	-0.908743	-0.380690
Zn6	Zn	0.149099	-0.408743	0.119310
Zn7	Zn	-0.483109	-0.887317	-0.565095
Zn8	Zn	0.016891	-0.387317	-0.065095
O9	O	-0.419218	-0.956951	-0.469303
O10	O	0.080782	-0.456951	0.030697
O11	O	-0.387124	-1.110868	-0.521719
O12	O	0.112876	-0.610868	-0.021719
O13	O	-0.444928	-1.019074	-0.233401
O14	O	0.055072	-0.519074	0.266599
O15	O	-0.254758	-0.927116	-0.396641
O16	O	0.245242	-0.427116	0.103359
O17	O	-0.463149	-1.118149	-0.397691
O18	O	0.036851	-0.618149	0.102309
O19	O	-0.268564	-1.002184	-0.521121
O20	O	0.231436	-0.502184	-0.021121
O21	O	-0.355097	-0.936725	-0.232948
O22	O	0.144903	-0.436725	0.267052
O23	O	-0.364734	-0.807265	-0.411161
O24	O	0.135266	-0.307265	0.088839
O25	O	-0.480088	-0.890599	-0.710932
O26	O	0.019912	-0.390599	-0.210932
O27	O	-0.461867	-0.791524	-0.546642
O28	O	0.038133	-0.291524	-0.046642
O29	O	-0.396761	-0.981408	-0.699931
O30	O	0.103239	-0.481408	-0.199931
O31	O	-0.573124	-0.998297	-0.412210
O32	O	-0.073124	-0.498297	0.087790
O33	O	-0.580426	-0.900208	-0.547239
O34	O	-0.080426	-0.400208	-0.047239
C35	C	-0.602353	-0.948020	-0.481438
C36	C	-0.102353	-0.448020	0.018562
C37	C	-0.680704	-0.944260	-0.486661
C38	C	-0.180704	-0.444260	0.013339
C39	C	-0.412340	-0.773819	-0.480460
C40	C	0.087660	-0.273819	0.019540
C41	C	-0.409417	-0.695472	-0.485259
C42	C	0.090583	-0.195472	0.014741
C43	C	-0.441629	-0.932508	-0.744832
C44	C	0.058371	-0.432508	-0.244832
C45	C	-0.451179	-0.922091	-0.862247
C46	C	0.048821	-0.422091	-0.362247
C47	C	-0.713694	-0.993594	-0.418866
C48	C	-0.213694	-0.493594	0.081134
C49	C	-0.787314	-0.990062	-0.423784
C50	C	-0.287314	-0.490062	0.076216
C51	C	-0.827942	-0.937192	-0.496493
C52	C	-0.327942	-0.437192	0.003507
C53	C	-0.794947	-0.887856	-0.564295
C54	C	-0.294947	-0.387856	-0.064295
C55	C	-0.721329	-0.891392	-0.559381
C56	C	-0.221329	-0.391392	-0.059381
C57	C	-1.050413	-0.923962	-0.514848
C58	C	-0.550413	-0.423962	-0.014848
C59	C	-1.124036	-0.920429	-0.519755
C60	C	-0.624036	-0.420429	-0.019755
C61	C	-1.116398	-1.022637	-0.379245
C62	C	-0.616398	-0.522637	0.120755
C63	C	-1.042779	-1.026165	-0.374334
C64	C	-0.542779	-0.526165	0.125666
C65	C	-1.009790	-0.976831	-0.442139
C66	C	-0.509790	-0.476831	0.057861
C67	C	-0.903194	-0.933579	-0.501519
C68	C	-0.403194	-0.433579	-0.001519
C69	C	-0.934541	-0.980448	-0.437117
C70	C	-0.434541	-0.480448	0.062883
C71	C	-0.235371	-0.965935	-0.457142
C72	C	0.264629	-0.465935	0.042858
C73	C	-0.157026	-0.969763	-0.451960
C74	C	0.342974	-0.469763	0.048040
C75	C	-0.447544	-0.662464	-0.422834
C76	C	0.052456	-0.162464	0.077166
C77	C	-0.444799	-0.588847	-0.427357
C78	C	0.055201	-0.088847	0.072643
C79	C	-0.403922	-0.548239	-0.494301
C80	C	0.096078	-0.048239	0.005699
C81	C	-0.365793	-0.581251	-0.556733
C82	C	0.134207	-0.081251	-0.056733
C83	C	-0.368543	-0.654867	-0.552215
C84	C	0.131457	-0.154867	-0.052215
C85	C	-0.393646	-0.325778	-0.511184
C86	C	0.106354	0.174222	-0.011184
C87	C	-0.390897	-0.252158	-0.515696
C88	C	0.109103	0.247842	-0.015696
C89	C	-0.469904	-0.259758	-0.386320
C90	C	0.030096	0.240242	0.113680
C91	C	-0.472647	-0.333375	-0.381803
C92	C	0.027353	0.166625	0.118197
C93	C	-0.434522	-0.366380	-0.444240
C94	C	0.065478	0.133620	0.055760
C95	C	-0.401113	-0.472991	-0.498923
C96	C	0.098887	0.027009	0.001077
C97	C	-0.437335	-0.441627	-0.439622
C98	C	0.062665	0.058373	0.060378
C99	C	-0.426113	-0.140800	-0.458088
C100	C	0.073887	0.359200	0.041912
C101	C	-0.429025	-0.219150	-0.453270
C102	C	0.070975	0.280850	0.046730
C103	C	-0.414208	-0.962378	-0.909150
C104	C	0.085792	-0.462378	-0.409150
C105	C	-0.424078	-0.951613	-1.030504
C106	C	0.075922	-0.451613	-0.530504
C107	C	-0.396845	-0.981343	-0.194840
C108	C	0.103155	-0.481343	0.305160
C109	C	-0.387102	-0.991905	-0.077404
C110	C	0.112898	-0.491905	0.422596
H111	H	-0.680619	-1.036644	-0.359655
H112	H	-0.180619	-0.536644	0.140345
Cl113	Cl	-0.484228	-0.886048	-1.107202
Cl114	Cl	0.015772	-0.386048	-0.607202
H115	H	-0.348136	-1.034365	-1.027724
H116	H	0.151864	-0.534365	-0.527724
H117	H	-0.936281	-0.890531	-0.560717
H118	H	-0.436281	-0.390531	-0.060717
Cl119	Cl	-0.991710	-1.092641	-0.282939
Cl120	Cl	-0.491710	-0.592641	0.217061
Cl121	Cl	-0.314410	-0.530201	-0.640900
Cl122	Cl	0.185590	-0.030201	-0.140900
H123	H	-0.480828	-0.695522	-0.368317
H124	H	0.019172	-0.195522	0.131683
H125	H	-0.500945	-0.232876	-0.335490
H126	H	-0.000945	0.267124	0.164510
Cl127	Cl	-0.828785	-1.052087	-0.338556
Cl128	Cl	-0.328785	-0.552087	0.161444
H129	H	-0.505933	-0.366433	-0.327289
H130	H	-0.005933	0.133567	0.172711
Cl131	Cl	-0.883465	-1.046913	-0.345719
Cl132	Cl	-0.383465	-0.546913	0.154281
H133	H	-0.337495	-0.681740	-0.603047
H134	H	0.162505	-0.181740	-0.103047
Cl135	Cl	-1.157874	-1.084656	-0.294016
Cl136	Cl	-0.657874	-0.584656	0.205984
H137	H	-0.375247	-1.004836	-0.859465
H138	H	0.124753	-0.504836	-0.359465
Cl139	Cl	-0.511327	-0.856530	-0.938949
Cl140	Cl	-0.011327	-0.356530	-0.438949
Cl141	Cl	-0.492715	-0.547357	-0.348850
Cl142	Cl	0.007285	-0.047357	0.151150
H143	H	-1.157116	-0.877383	-0.578981
H144	H	-0.657116	-0.377383	-0.078981
Cl145	Cl	-0.339501	-0.201109	-0.599854
Cl146	Cl	0.160499	0.298891	-0.099854
H147	H	-0.828033	-0.844811	-0.623500
H148	H	-0.328033	-0.344811	-0.123500
Cl149	Cl	-1.008952	-0.861941	-0.600089
Cl150	Cl	-0.508952	-0.361941	-0.100089
H151	H	-0.470621	-0.474692	-0.385122
H152	H	0.029379	0.025308	0.114878
H153	H	-0.362602	-0.352641	-0.562026
H154	H	0.137398	0.147359	-0.062026
Cl155	Cl	-0.679856	-0.829371	-0.644616
Cl156	Cl	-0.179856	-0.329371	-0.144616
Cl157	Cl	-0.349727	-0.421935	-0.583081
Cl158	Cl	0.150273	0.078065	-0.083081
