data_functionalizedCrystal
_audit_creation_method	'MofGen! by Chris Wilmer'
_symmetry_space_group_name_H-M	'P1'
_symmetry_Int_Tables_number	1
_symmetry_cell_setting	triclinic
loop_
_symmetry_equiv_pos_as_xyz
  x,y,z
_cell_length_a	19.077068
_cell_length_b	18.215407
_cell_length_c	18.215399
_cell_angle_alpha	89.980167
_cell_angle_beta	92.268164
_cell_angle_gamma	92.327501
loop_
_atom_site_label
_atom_site_type_symbol
_atom_site_fract_x
_atom_site_fract_y
_atom_site_fract_z
Zn1	Zn	-0.280200	1.113288	-0.427869
Zn2	Zn	-0.397902	1.108246	-0.309739
Zn3	Zn	-0.280223	0.990220	-0.304817
Zn4	Zn	-0.397863	0.985238	-0.432763
O5	O	-0.339047	1.049248	-0.368797
O6	O	-0.295821	1.215603	-0.412210
O7	O	-0.382318	1.092565	-0.206103
O8	O	-0.181729	1.010740	-0.317032
O9	O	-0.382295	1.211899	-0.325421
O10	O	-0.181712	1.101157	-0.407437
O11	O	-0.295860	1.005851	-0.202487
O12	O	-0.295822	0.886575	-0.321777
O13	O	-0.382229	1.002249	-0.535097
O14	O	-0.382251	0.882915	-0.415778
O15	O	-0.295783	1.096327	-0.531501
O16	O	-0.496388	1.087734	-0.330167
O17	O	-0.496359	0.997361	-0.420551
C18	C	-0.339035	0.858042	-0.368775
C19	C	-0.339047	0.776243	-0.368784
C20	C	-0.384121	0.586159	-0.417674
C21	C	-0.384124	0.509301	-0.417684
C22	C	-0.293986	0.513088	-0.319936
C23	C	-0.293980	0.589945	-0.319931
C24	C	-0.339052	0.626479	-0.368799
C25	C	-0.339060	0.472763	-0.368814
C26	C	-0.339062	0.389429	-0.368823
C27	C	-0.339050	0.709818	-0.368791
C28	C	-0.521911	1.041480	-0.376440
C29	C	-0.600141	1.038224	-0.379735
C30	C	-0.636886	1.083783	-0.334263
C31	C	-0.710391	1.080725	-0.337366
C32	C	-0.747151	1.032104	-0.385937
C33	C	-0.710401	0.986542	-0.431414
C34	C	-0.636897	0.989604	-0.428314
C35	C	-0.966985	1.017899	-0.400254
C36	C	-1.040495	1.014839	-0.403348
C37	C	-1.040479	1.109023	-0.309301
C38	C	-0.966974	1.112078	-0.306202
C39	C	-0.930231	1.066520	-0.351682
N40	N	-0.822285	1.028975	-0.389109
N41	N	-0.855098	1.069652	-0.348514
C42	C	-0.155469	1.057067	-0.361140
C43	C	-0.077239	1.060398	-0.357877
C44	C	-0.338999	1.049295	-0.560748
C45	C	-0.338978	1.049315	-0.642546
C46	C	-0.339060	1.241200	-0.368819
C47	C	-0.339065	1.322999	-0.368828
C48	C	-0.293923	1.098320	-0.828867
C49	C	-0.293903	1.098329	-0.905725
C50	C	-0.383924	1.000366	-0.909458
C51	C	-0.383940	1.000354	-0.832601
C52	C	-0.338941	1.049335	-0.792308
C53	C	-0.338904	1.049357	-0.946023
C54	C	-0.338882	1.049367	-1.029355
C55	C	-0.338962	1.049324	-0.708970
C56	C	-0.339045	1.049246	-0.177591
C57	C	-0.338867	1.049377	-0.095785
H58	H	-0.606961	1.123373	-0.294708
C59	C	-0.432869	0.947314	-0.953251
C60	C	-0.477985	0.987072	-0.999246
C61	C	-0.523091	0.938225	-1.039590
H62	H	-0.406021	0.916381	-0.982169
H63	H	-0.459723	0.918147	-0.920493
H64	H	-0.451134	1.016226	-1.032000
H65	H	-0.504849	1.018002	-0.970347
H66	H	-0.549945	0.909059	-1.006833
H67	H	-0.496237	0.907296	-1.068504
H68	H	-0.553711	0.965194	-1.070798
C69	C	-0.244936	1.151395	-0.945450
C70	C	-0.199798	1.111651	-0.987665
C71	C	-0.154670	1.160510	-1.024261
H72	H	-0.271768	1.182339	-0.976621
H73	H	-0.218100	1.180549	-0.910463
H74	H	-0.226632	1.082510	-1.022649
H75	H	-0.172951	1.080710	-0.956513
H76	H	-0.127834	1.189664	-0.989273
H77	H	-0.181508	1.191451	-1.055427
H78	H	-0.124035	1.133551	-1.052903
H79	H	-0.420822	0.476476	-0.457484
C80	C	-0.927193	0.968462	-0.449744
C81	C	-0.945029	0.983681	-0.523325
C82	C	-0.908392	0.938142	-0.568936
H83	H	-0.878140	0.977196	-0.441048
H84	H	-0.939307	0.918508	-0.439474
H85	H	-0.932911	1.033624	-0.533591
H86	H	-0.994076	0.974943	-0.532044
H87	H	-0.920506	0.888188	-0.558666
H88	H	-0.859341	0.946879	-0.560234
H89	H	-0.920494	0.948457	-0.618865
H90	H	-0.257291	0.483333	-0.280148
H91	H	-0.420598	0.960459	-0.802834
C92	C	-0.244944	1.151405	-0.785154
C93	C	-0.175304	1.138329	-0.800934
C94	C	-0.130161	1.187210	-0.760675
H95	H	-0.255147	1.200447	-0.798154
H96	H	-0.251352	1.144381	-0.734135
H97	H	-0.168899	1.145359	-0.851941
H98	H	-0.165078	1.089297	-0.787931
H99	H	-0.136568	1.180186	-0.709656
H100	H	-0.140370	1.236248	-0.773678
H101	H	-0.082905	1.178339	-0.771370
H102	H	-0.740305	1.117824	-0.300338
H103	H	-0.420820	0.615903	-0.457468
C104	C	-0.245019	0.633596	-0.266780
C105	C	-0.205566	0.585152	-0.223967
C106	C	-0.160463	0.625335	-0.174995
H107	H	-0.214323	0.664894	-0.293618
H108	H	-0.271888	0.662409	-0.235753
H109	H	-0.178699	0.556351	-0.254990
H110	H	-0.236243	0.553852	-0.197113
H111	H	-0.187331	0.654149	-0.143968
H112	H	-0.129771	0.656633	-0.201839
H113	H	-0.133693	0.592473	-0.145936
C114	C	-0.927192	1.164951	-0.253452
C115	C	-0.975105	1.204213	-0.214308
C116	C	-0.938483	1.252933	-0.165714
H117	H	-0.898557	1.138097	-0.220086
H118	H	-0.898491	1.198233	-0.280412
H119	H	-1.003793	1.170935	-0.187349
H120	H	-1.003741	1.231082	-0.247654
H121	H	-0.909783	1.286215	-0.192675
H122	H	-0.909849	1.226073	-0.132354
H123	H	-0.970986	1.279583	-0.139155
C124	C	-1.080499	1.158463	-0.260023
C125	C	-1.152739	1.145394	-0.273146
C126	C	-1.189626	1.190937	-0.227775
H127	H	-1.068582	1.148272	-0.210031
H128	H	-1.068443	1.208419	-0.270346
H129	H	-1.164790	1.095449	-0.262818
H130	H	-1.164677	1.155589	-0.323129
H131	H	-1.177570	1.240893	-0.238098
H132	H	-1.177704	1.180743	-0.177786
H133	H	-1.238644	1.182081	-0.236678
H134	H	-0.606981	0.952506	-0.465343
C135	C	-1.080500	0.962164	-0.456134
C136	C	-1.122652	1.002054	-0.505098
C137	C	-1.159523	0.953557	-0.553722
H138	H	-1.048173	0.935448	-0.482852
H139	H	-1.109256	0.928929	-0.429182
H140	H	-1.093899	1.035277	-0.532047
H141	H	-1.154992	1.028769	-0.478400
H142	H	-1.188280	0.920322	-0.526770
H143	H	-1.127192	0.926843	-0.580434
H144	H	-1.188133	0.980615	-0.586945
H145	H	-0.740337	0.946956	-0.470965
