data_functionalizedCrystal
_audit_creation_method	'MofGen! by Chris Wilmer'
_symmetry_space_group_name_H-M	'P1'
_symmetry_Int_Tables_number	1
_symmetry_cell_setting	triclinic
loop_
_symmetry_equiv_pos_as_xyz
  x,y,z
_cell_length_a	18.101398
_cell_length_b	29.839131
_cell_length_c	18.101390
_cell_angle_alpha	89.964218
_cell_angle_beta	89.975319
_cell_angle_gamma	90.036686
loop_
_atom_site_label
_atom_site_type_symbol
_atom_site_fract_x
_atom_site_fract_y
_atom_site_fract_z
Zn1	Zn	1.132071	-0.178893	-0.418824
Zn2	Zn	1.131943	-0.254029	-0.294976
Zn3	Zn	1.008229	-0.178907	-0.294985
Zn4	Zn	1.008158	-0.253990	-0.418765
O5	O	1.070100	-0.216455	-0.356888
O6	O	1.235687	-0.188870	-0.402416
O7	O	1.115509	-0.244086	-0.191344
O8	O	1.024739	-0.116038	-0.311441
O9	O	1.235593	-0.244072	-0.311426
O10	O	1.115725	-0.116028	-0.402425
O11	O	1.024616	-0.188894	-0.191351
O12	O	0.904586	-0.188857	-0.311384
O13	O	1.024619	-0.244007	-0.522406
O14	O	0.904534	-0.244020	-0.402324
O15	O	1.115657	-0.188833	-0.522449
O16	O	1.115440	-0.316891	-0.311369
O17	O	1.024495	-0.316863	-0.402315
C18	C	0.877690	-0.216437	-0.356849
C19	C	0.795375	-0.216440	-0.356850
C20	C	0.496284	-0.216468	-0.356912
C21	C	0.527618	-0.181587	-0.299974
C22	C	0.613236	-0.181680	-0.299731
C23	C	0.644667	-0.216453	-0.356881
C24	C	0.613535	-0.263779	-0.335553
C25	C	0.527890	-0.263585	-0.335157
C26	C	0.527903	-0.204434	-0.435313
C27	C	0.613554	-0.203380	-0.434885
C28	C	0.728527	-0.216448	-0.356865
C29	C	0.412425	-0.216476	-0.356926
C30	C	1.069966	-0.333177	-0.356851
C31	C	1.069977	-0.383112	-0.356860
C32	C	1.117541	-0.692757	-0.309601
C33	C	1.117632	-0.880430	-0.309629
O34	O	1.157967	-0.904697	-0.269420
N35	N	1.070254	-0.903897	-0.356943
C36	C	1.022852	-0.880442	-0.404257
O37	O	0.982561	-0.904708	-0.444506
C38	C	1.022765	-0.692770	-0.404231
C39	C	1.070142	-0.669306	-0.356909
C40	C	1.164914	-0.669293	-0.262283
C41	C	1.164888	-0.622377	-0.262273
C42	C	1.117489	-0.598926	-0.309582
C43	C	1.070115	-0.622390	-0.356899
C44	C	0.975368	-0.669317	-0.451548
C45	C	0.975351	-0.622395	-0.451539
C46	C	1.022728	-0.598931	-0.404217
C47	C	1.022690	-0.552024	-0.404198
N48	N	1.070068	-0.528557	-0.356884
C49	C	1.117468	-0.552008	-0.309576
C50	C	1.022900	-0.978973	-0.404266
C51	C	1.022921	-1.025891	-0.404272
C52	C	1.117702	-1.025875	-0.309645
C53	C	1.117677	-0.978957	-0.309636
C54	C	1.070279	-0.955506	-0.356952
C55	C	1.117409	-0.453483	-0.309559
C56	C	1.117376	-0.406563	-0.309551
C57	C	1.022598	-0.406582	-0.404181
C58	C	1.022627	-0.453498	-0.404186
C59	C	1.070039	-0.476947	-0.356872
O60	O	0.982382	-0.527728	-0.444393
O61	O	1.157765	-0.527734	-0.269344
C62	C	1.117567	-0.739673	-0.309610
C63	C	1.070194	-0.763137	-0.356928
C64	C	1.022794	-0.739686	-0.404237
C65	C	1.070215	-0.810055	-0.356934
C66	C	1.117614	-0.833506	-0.309625
C67	C	1.164993	-0.810039	-0.262311
C68	C	1.164967	-0.763124	-0.262302
C69	C	0.975416	-0.763152	-0.451550
C70	C	0.975445	-0.810068	-0.451556
C71	C	1.022845	-0.833519	-0.404247
C72	C	1.263262	-0.216473	-0.356927
C73	C	1.345576	-0.216481	-0.356943
C74	C	1.070144	-0.216414	-0.550050
C75	C	1.070163	-0.216396	-0.632364
C76	C	1.070255	-0.099276	-0.356941
C77	C	1.070320	-0.049342	-0.356963
C78	C	1.070203	-0.216368	-0.931455
C79	C	1.127670	-0.181777	-0.900157
C80	C	1.127491	-0.181648	-0.814539
C81	C	1.070184	-0.216382	-0.783072
C82	C	0.992171	-0.203516	-0.814140
C83	C	0.992515	-0.203256	-0.899785
C84	C	1.090061	-0.263915	-0.899865
C85	C	1.091774	-0.263673	-0.814215
C86	C	1.070168	-0.216391	-0.699213
C87	C	1.070213	-0.216359	-1.015314
C88	C	1.070099	-0.216463	-0.164477
C89	C	1.070224	-0.216354	-0.082163
H90	H	0.507058	-0.146386	-0.313196
F91	F	0.641518	-0.277349	-0.261447
H92	H	0.936818	-0.744062	-0.490076
H93	H	0.984003	-0.387481	-0.442696
H94	H	0.936755	-0.603304	-0.490072
H95	H	1.149184	-0.273375	-0.793909
H96	H	1.203517	-0.688382	-0.223758
H97	H	1.145950	-0.275630	-0.921513
F98	F	1.215394	-0.738157	-0.211937
H99	H	0.507639	-0.229840	-0.477737
F100	F	0.925015	-0.835035	-0.501924
H101	H	1.114347	-0.146424	-0.794068
F102	F	1.168102	-0.953988	-0.259270
F103	F	0.969764	-0.158589	-0.786127
H104	H	0.506341	-0.170525	-0.454703
H105	H	0.975678	-0.168500	-0.919777
H106	H	0.507160	-0.290454	-0.374819
F107	F	1.110711	-0.135993	-0.928310
F108	F	0.640168	-0.157863	-0.455913
F109	F	0.934640	-0.234749	-0.926846
H110	H	0.633892	-0.290464	-0.375726
H111	H	0.984335	-1.044991	-0.442799
F112	F	1.203106	-0.192175	-0.787083
F113	F	0.934686	-0.235435	-0.787503
F114	F	1.203532	-0.192176	-0.927094
F115	F	1.215437	-0.835006	-0.211960
F116	F	1.041038	-0.299172	-0.786220
H117	H	0.634287	-0.146587	-0.313101
F118	F	0.639970	-0.192076	-0.223797
F119	F	0.499436	-0.191860	-0.224485
F120	F	0.501726	-0.276922	-0.260242
H121	H	0.634953	-0.226934	-0.479582
H122	H	1.048209	-0.289690	-0.920109
H123	H	1.203468	-0.603276	-0.223742
F124	F	1.167803	-0.381593	-0.259182
H125	H	1.156018	-0.472569	-0.271034
F126	F	0.972191	-0.478471	-0.454537
H127	H	1.156297	-1.044977	-0.271125
H128	H	0.984301	-0.959883	-0.442797
F129	F	0.924948	-0.694279	-0.501922
