data_functionalizedCrystal
_audit_creation_method	'MofGen! by Chris Wilmer'
_symmetry_space_group_name_H-M	'P1'
_symmetry_Int_Tables_number	1
_symmetry_cell_setting	triclinic
loop_
_symmetry_equiv_pos_as_xyz
  x,y,z
_cell_length_a	11.026607
_cell_length_b	9.130313
_cell_length_c	11.026607
_cell_angle_alpha	89.999963
_cell_angle_beta	108.586017
_cell_angle_gamma	90.000251
loop_
_atom_site_label
_atom_site_type_symbol
_atom_site_fract_x
_atom_site_fract_y
_atom_site_fract_z
O1	O	1.726725	0.121796	0.533616
O2	O	1.360145	0.121798	0.472853
O3	O	1.513053	0.121792	0.319945
O4	O	1.573817	0.121802	0.686525
O5	O	1.513052	-0.121807	0.319949
O6	O	1.360144	-0.121801	0.472857
O7	O	1.726724	-0.121803	0.533621
Cu8	Cu	1.543434	-0.144044	0.503240
Cu9	Cu	1.543435	0.144039	0.503234
O10	O	1.573815	-0.121797	0.686529
C11	C	1.312485	-0.000001	0.461645
C12	C	1.170471	-0.000000	0.428228
N13	N	1.543442	-0.346667	0.503245
C14	C	1.116821	0.000003	0.520498
C15	C	0.970043	0.000004	0.485962
C16	C	1.611178	-0.423322	0.435571
C17	C	1.611171	-0.576659	0.435555
C18	C	1.475690	-0.576672	0.570897
C19	C	1.475690	-0.423338	0.570905
C20	C	1.678929	-0.346650	0.367911
C21	C	1.746672	-0.423305	0.300233
C22	C	1.746665	-0.576642	0.300217
C23	C	1.678915	-0.653324	0.367879
C24	C	1.774384	-0.000001	0.544828
C25	C	1.916398	0.000008	0.578245
C26	C	1.501843	-0.000006	0.272287
C27	C	1.468426	-0.000000	0.130273
N28	N	1.543435	0.346662	0.503221
C29	C	1.560695	0.000001	0.076624
C30	C	1.526160	0.000007	-0.070155
C31	C	1.585026	0.000004	0.734187
C32	C	1.618443	0.000008	0.876200
H33	H	0.907314	0.000039	0.381393
H34	H	1.421590	0.000017	-0.132884
H35	H	1.678943	-0.221796	0.367921
H36	H	1.665258	-0.000009	0.139357
H37	H	0.979125	0.000001	0.682816
C38	C	1.757902	0.000305	-0.040237
C39	C	1.818356	0.125649	-0.066442
C40	C	1.946818	0.125981	0.010521
H41	H	1.799292	-0.084544	-0.057798
H42	H	1.762642	0.000382	0.047317
H43	H	1.813623	0.125559	-0.153976
H44	H	1.777004	0.210518	-0.048875
H45	H	1.951558	0.126058	0.098075
H46	H	1.988195	0.041126	-0.007046
H47	H	1.987849	0.211031	-0.007240
C48	C	1.086900	-0.000303	0.288778
C49	C	1.113103	-0.125647	0.228324
C50	C	1.036133	-0.125984	0.099865
H51	H	1.104456	0.084546	0.247384
H52	H	0.999347	-0.000381	0.284043
H53	H	1.200635	-0.125555	0.233052
H54	H	1.095540	-0.210516	0.269680
H55	H	0.948580	-0.126062	0.095129
H56	H	1.053696	-0.041130	0.058483
H57	H	1.053893	-0.211035	0.058834
H58	H	1.363863	0.000010	0.067540
H59	H	1.801823	-0.360863	0.245136
H60	H	1.179555	-0.000002	0.625061
H61	H	1.801813	-0.639053	0.245101
H62	H	1.678905	-0.778181	0.367850
H63	H	1.420533	-0.639117	0.625986
H64	H	1.420532	-0.360926	0.626009
