data_functionalizedCrystal
_audit_creation_method	'MofGen! by Chris Wilmer'
_symmetry_space_group_name_H-M	'P1'
_symmetry_Int_Tables_number	1
_symmetry_cell_setting	triclinic
loop_
_symmetry_equiv_pos_as_xyz
  x,y,z
_cell_length_a	12.759401
_cell_length_b	19.805405
_cell_length_c	19.805399
_cell_angle_alpha	90.029301
_cell_angle_beta	89.983178
_cell_angle_gamma	89.972065
loop_
_atom_site_label
_atom_site_type_symbol
_atom_site_fract_x
_atom_site_fract_y
_atom_site_fract_z
Zn1	Zn	1.606138	0.269451	-0.382662
Zn2	Zn	1.606006	0.382640	-0.269470
Zn3	Zn	1.430450	0.269473	-0.269492
Zn4	Zn	1.430393	0.382607	-0.382622
O5	O	1.518247	0.326043	-0.326062
O6	O	1.753142	0.284471	-0.367654
O7	O	1.582686	0.367651	-0.174756
O8	O	1.453834	0.174754	-0.284530
O9	O	1.753045	0.367630	-0.284493
O10	O	1.582912	0.174738	-0.367675
O11	O	1.453706	0.284508	-0.174772
O12	O	1.283421	0.284476	-0.284491
O13	O	1.453737	0.367574	-0.477344
O14	O	1.283379	0.367595	-0.367608
O15	O	1.582857	0.284439	-0.477373
O16	O	1.582631	0.477352	-0.284455
O17	O	1.453609	0.477328	-0.367587
C18	C	1.245279	0.326034	-0.326048
C19	C	1.128503	0.326047	-0.326058
C20	C	1.518306	0.326000	-0.502604
C21	C	1.518331	0.325982	-0.577836
C22	C	1.518128	0.501899	-0.326029
C23	C	1.518174	0.577131	-0.326037
C24	C	1.073647	0.369393	-0.369269
C25	C	0.963922	0.369396	-0.369283
C26	C	0.963920	0.282705	-0.282869
C27	C	1.073642	0.282699	-0.282859
C28	C	0.814010	0.393693	-0.449076
C29	C	0.759150	0.437049	-0.492280
C30	C	0.794726	0.503105	-0.502548
C31	C	0.885159	0.525817	-0.469600
C32	C	0.940014	0.482464	-0.426390
C33	C	0.904440	0.416399	-0.416136
C34	C	1.223557	0.258409	-0.203065
C35	C	1.278413	0.215059	-0.159852
C36	C	1.242840	0.149003	-0.149578
C37	C	1.152402	0.126292	-0.182513
C38	C	1.097546	0.169642	-0.225727
C39	C	1.133127	0.235698	-0.236002
C40	C	1.792280	0.326052	-0.326075
C41	C	1.909057	0.326055	-0.326081
C42	C	1.518394	0.149500	-0.326109
C43	C	1.518457	0.074268	-0.326130
C44	C	1.585421	0.612465	-0.282796
C45	C	1.585466	0.683153	-0.282811
C46	C	1.518257	0.718506	-0.326065
C47	C	1.451007	0.683167	-0.369311
C48	C	1.450969	0.612480	-0.369299
C49	C	1.451162	0.968240	-0.369361
C50	C	1.451204	1.038932	-0.369368
C51	C	1.585659	1.038914	-0.282873
C52	C	1.585621	0.968227	-0.282861
C53	C	1.518375	0.932894	-0.326110
C54	C	1.518329	0.856245	-0.326094
C55	C	1.518297	0.795153	-0.326077
C56	C	1.585565	0.282691	-0.613197
C57	C	1.585575	0.282672	-0.683885
C58	C	1.518357	0.325947	-0.719212
C59	C	1.451115	0.369239	-0.683847
C60	C	1.451100	0.369255	-0.613160
C61	C	1.451175	0.369176	-0.968920
C62	C	1.451197	0.369158	-1.039612
C63	C	1.585650	0.282593	-1.039646
C64	C	1.585635	0.282609	-0.968959
C65	C	1.518390	0.325898	-0.933600
C66	C	1.518378	0.325918	-0.856951
C67	C	1.518374	0.325931	-0.795859
C68	C	1.518248	0.326036	-0.150206
C69	C	1.518427	0.325864	-0.074974
H70	H	1.118311	0.404688	-0.404446
C71	C	1.377271	1.077819	-0.416957
N72	N	1.321588	1.107109	-0.452799
H73	H	1.640344	0.939445	-0.247637
H74	H	1.252536	0.312196	-0.211433
C75	C	0.903564	0.235028	-0.235349
N76	N	0.858104	0.199118	-0.199554
H77	H	1.640224	0.711920	-0.247598
H78	H	1.396211	0.583711	-0.404512
H79	H	1.640400	0.247342	-1.068444
C80	C	0.734377	0.550795	-0.550076
N81	N	0.688921	0.586711	-0.585877
C82	C	1.377073	0.722058	-0.416888
N83	N	1.321380	0.751350	-0.452722
H84	H	1.640375	0.247372	-0.940199
H85	H	0.914111	0.579609	-0.477958
C86	C	1.659355	0.573583	-0.235211
N87	N	1.715046	0.544300	-0.199370
H88	H	1.640305	0.247454	-0.584439
H89	H	1.396406	0.939478	-0.404574
H90	H	1.023912	0.151144	-0.252549
H91	H	1.640418	1.067690	-0.247660
C92	C	1.659540	0.235050	-0.722778
N93	N	1.715253	0.199179	-0.752072
H94	H	1.013642	0.500957	-0.399565
C95	C	0.659680	0.412061	-0.528525
N96	N	0.584759	0.393242	-0.555825
C97	C	1.377241	0.416761	-1.078470
N98	N	1.321539	0.452614	-1.107738
H99	H	1.396435	0.404435	-0.940139
C100	C	0.774875	0.321025	-0.437792
N101	N	0.745392	0.266291	-0.429292
H102	H	1.396341	0.404499	-0.584370
C103	C	1.113269	0.053626	-0.171213
N104	N	1.083796	-0.001108	-0.162698
C105	C	1.377907	0.240040	-0.123630
N106	N	1.452850	0.258854	-0.096353
C107	C	1.303167	0.101326	-0.102021
N108	N	1.348596	0.065417	-0.066198
C109	C	1.377164	0.416835	-0.722709
N110	N	1.321461	0.452685	-0.751979
