data_functionalizedCrystal
_audit_creation_method	'MofGen! by Chris Wilmer'
_symmetry_space_group_name_H-M	'P1'
_symmetry_Int_Tables_number	1
_symmetry_cell_setting	triclinic
loop_
_symmetry_equiv_pos_as_xyz
  x,y,z
_cell_length_a	29.839134
_cell_length_b	29.839131
_cell_length_c	29.839125
_cell_angle_alpha	89.982291
_cell_angle_beta	90.021980
_cell_angle_gamma	89.963719
loop_
_atom_site_label
_atom_site_type_symbol
_atom_site_fract_x
_atom_site_fract_y
_atom_site_fract_z
Zn1	Zn	0.686720	0.178978	0.254125
Zn2	Zn	1.020053	0.512311	0.587458
Zn3	Zn	1.353386	0.845645	0.920792
Zn4	Zn	0.686652	0.254090	0.178995
Zn5	Zn	1.019985	0.587423	0.512328
Zn6	Zn	1.353318	0.920757	0.845662
Zn7	Zn	0.611602	0.178968	0.178995
Zn8	Zn	0.944936	0.512301	0.512328
Zn9	Zn	1.278269	0.845635	0.845661
Zn10	Zn	0.611550	0.254075	0.254083
Zn11	Zn	0.944883	0.587408	0.587417
Zn12	Zn	1.278217	0.920742	0.920750
O13	O	0.649131	0.216528	0.216549
O14	O	0.982464	0.549861	0.549883
O15	O	1.315798	0.883194	0.883216
O16	O	0.749578	0.188952	0.244176
O17	O	1.082911	0.522285	0.577510
O18	O	1.416244	0.855619	0.910843
O19	O	0.676690	0.244127	0.116128
O20	O	1.010023	0.577460	0.449461
O21	O	1.343356	0.910794	0.782794
O22	O	0.621617	0.116102	0.188978
O23	O	0.954950	0.449436	0.522311
O24	O	1.288284	0.782769	0.855645
O25	O	0.749528	0.244137	0.188979
O26	O	1.082861	0.577470	0.522312
O27	O	1.416195	0.910803	0.855645
O28	O	0.676805	0.116109	0.244176
O29	O	1.010139	0.449443	0.577509
O30	O	1.343472	0.782776	0.910843
O31	O	0.621551	0.188935	0.116127
O32	O	0.954885	0.522269	0.449461
O33	O	1.288218	0.855602	0.782794
O34	O	0.548728	0.188921	0.188938
O35	O	0.882062	0.522254	0.522271
O36	O	1.215395	0.855587	0.855604
O37	O	0.621528	0.244111	0.316956
O38	O	0.954861	0.577444	0.650289
O39	O	1.288195	0.910778	0.983623
O40	O	0.548690	0.244101	0.244105
O41	O	0.882023	0.577435	0.577438
O42	O	1.215357	0.910768	0.910772
O43	O	0.676755	0.188937	0.316987
O44	O	1.010088	0.522271	0.650320
O45	O	1.343421	0.855604	0.983653
O46	O	0.676639	0.316955	0.188938
O47	O	1.009972	0.650288	0.522272
O48	O	1.343306	0.983622	0.855605
O49	O	0.621462	0.316944	0.244105
O50	O	0.954796	0.650277	0.577439
O51	O	1.288129	0.983611	0.910772
C52	C	0.532408	0.216509	0.216517
C53	C	0.865742	0.549842	0.549850
C54	C	1.199075	0.883175	0.883184
C55	C	0.482474	0.216511	0.216514
C56	C	0.815807	0.549845	0.549847
C57	C	1.149141	0.883178	0.883181
C58	C	0.649050	0.333250	0.216527
C59	C	0.982383	0.666584	0.549861
C60	C	1.315717	0.999917	0.883194
C61	C	0.649056	0.383185	0.216533
C62	C	0.982390	0.716518	0.549866
C63	C	1.315723	1.049851	0.883199
C64	C	0.172820	0.245303	0.245240
C65	C	0.506153	0.578636	0.578573
C66	C	0.839487	0.911969	0.911907
C67	C	-0.014853	0.245315	0.245260
C68	C	0.318480	0.578649	0.578593
C69	C	0.651814	0.911982	0.911927
O70	O	-0.039127	0.269774	0.269665
O71	O	0.294207	0.603107	0.602998
O72	O	0.627540	0.936440	0.936331
N73	N	-0.038311	0.216544	0.216583
N74	N	0.295022	0.549877	0.549917
N75	N	0.628356	0.883211	0.883250
C76	C	-0.014848	0.187766	0.187902
C77	C	0.318485	0.521099	0.521235
C78	C	0.651819	0.854432	0.854568
O79	O	-0.039107	0.163291	0.163514
O80	O	0.294226	0.496624	0.496848
O81	O	0.627560	0.829958	0.830181
C82	C	0.172824	0.187751	0.187884
C83	C	0.506157	0.521084	0.521218
C84	C	0.839491	0.854418	0.854551
C85	C	0.196280	0.216527	0.216560
C86	C	0.529613	0.549861	0.549893
C87	C	0.862946	0.883194	0.883226
C88	C	0.196276	0.274076	0.273913
C89	C	0.529609	0.607410	0.607247
C90	C	0.862942	0.940743	0.940580
C91	C	0.243191	0.274075	0.273906
C92	C	0.576525	0.607408	0.607240
C93	C	0.909858	0.940741	0.940573
C94	C	0.266651	0.245299	0.245226
C95	C	0.599984	0.578633	0.578559
C96	C	0.933318	0.911966	0.911893
C97	C	0.243195	0.216526	0.216553
C98	C	0.576529	0.549859	0.549886
C99	C	0.909862	0.883192	0.883219
C100	C	0.196286	0.158971	0.159205
C101	C	0.529620	0.492304	0.492539
C102	C	0.862953	0.825637	0.825872
C103	C	0.243207	0.158969	0.159204
C104	C	0.576541	0.492302	0.492538
C105	C	0.909874	0.825635	0.825871
C106	C	0.266663	0.187745	0.187880
C107	C	0.599996	0.521078	0.521213
C108	C	0.933330	0.854412	0.854546
C109	C	0.313570	0.187749	0.187865
C110	C	0.646904	0.521082	0.521199
C111	C	0.980237	0.854415	0.854532
N112	N	0.337029	0.216520	0.216542
N113	N	0.670362	0.549853	0.549875
N114	N	1.003695	0.883186	0.883209
C115	C	0.313569	0.245295	0.245222
C116	C	0.646902	0.578628	0.578556
C117	C	0.980235	0.911962	0.911889
C118	C	-0.113379	0.187776	0.187912
C119	C	0.219955	0.521109	0.521246
C120	C	0.553288	0.854443	0.854579
C121	C	-0.160297	0.187780	0.187916
C122	C	0.173037	0.521113	0.521249
C123	C	0.506370	0.854447	0.854583
C124	C	-0.160298	0.245329	0.245275
C125	C	0.173035	0.578663	0.578608
C126	C	0.506368	0.911996	0.911942
C127	C	-0.113380	0.245327	0.245269
C128	C	0.219954	0.578661	0.578602
C129	C	0.553287	0.911994	0.911935
C130	C	-0.089921	0.216547	0.216589
C131	C	0.243413	0.549881	0.549922
C132	C	0.576746	0.883214	0.883256
C133	C	0.412095	0.245290	0.245205
C134	C	0.745428	0.578623	0.578538
C135	C	1.078761	0.911956	0.911872
C136	C	0.459014	0.245287	0.245194
C137	C	0.792348	0.578620	0.578528
C138	C	1.125681	0.911953	0.911861
C139	C	0.459012	0.187736	0.187837
C140	C	0.792345	0.521069	0.521170
C141	C	1.125678	0.854403	0.854504
C142	C	0.412096	0.187740	0.187846
C143	C	0.745430	0.521074	0.521179
C144	C	1.078763	0.854407	0.854513
C145	C	0.388639	0.216519	0.216534
C146	C	0.721972	0.549852	0.549867
C147	C	1.055306	0.883185	0.883200
O148	O	0.337873	0.163299	0.163477
O149	O	0.671206	0.496633	0.496810
O150	O	1.004540	0.829966	0.830144
O151	O	0.337836	0.269759	0.269613
O152	O	0.671169	0.603092	0.602946
O153	O	1.004502	0.936426	0.936280
C154	C	0.125905	0.245304	0.245247
C155	C	0.459238	0.578638	0.578580
C156	C	0.792571	0.911971	0.911914
C157	C	0.102449	0.216531	0.216574
C158	C	0.435782	0.549864	0.549907
C159	C	0.769116	0.883197	0.883240
C160	C	0.125909	0.187755	0.187893
C161	C	0.459242	0.521089	0.521227
C162	C	0.792575	0.854422	0.854560
C163	C	0.055531	0.216535	0.216577
C164	C	0.388864	0.549868	0.549911
C165	C	0.722198	0.883202	0.883244
C166	C	0.032071	0.245310	0.245258
C167	C	0.365405	0.578644	0.578591
C168	C	0.698738	0.911977	0.911924
C169	C	0.055529	0.274082	0.273934
C170	C	0.388863	0.607415	0.607268
C171	C	0.722196	0.940748	0.940601
C172	C	0.102445	0.274080	0.273927
C173	C	0.435778	0.607413	0.607261
C174	C	0.769112	0.940747	0.940594
C175	C	0.102451	0.158984	0.159217
C176	C	0.435784	0.492318	0.492550
C177	C	0.769117	0.825651	0.825883
C178	C	0.055535	0.158989	0.159226
C179	C	0.388868	0.492322	0.492559
C180	C	0.722202	0.825655	0.825892
C181	C	0.032075	0.187764	0.187906
C182	C	0.365409	0.521097	0.521239
C183	C	0.698742	0.854431	0.854573
C184	C	0.649143	0.216524	0.333728
C185	C	0.982476	0.549857	0.667061
C186	C	1.315810	0.883190	1.000395
C187	C	0.649148	0.216522	0.383662
C188	C	0.982482	0.549855	0.716996
C189	C	1.315815	0.883189	1.050329
C190	C	0.766309	0.216547	0.216582
C191	C	1.099643	0.549880	0.549916
C192	C	1.432976	0.883214	0.883249
C193	C	0.816244	0.216555	0.216596
C194	C	1.149577	0.549889	0.549930
C195	C	1.482910	0.883222	0.883263
C196	C	0.649225	0.099349	0.216582
C197	C	0.982558	0.432683	0.549915
C198	C	1.315891	0.766016	0.883248
C199	C	0.649265	0.049415	0.216595
C200	C	0.982598	0.382748	0.549929
C201	C	1.315931	0.716082	0.883262
C202	C	0.677914	0.692821	0.187866
C203	C	1.011247	1.026155	0.521199
C204	C	1.344580	1.359488	0.854533
C205	C	0.677969	0.880494	0.187883
C206	C	1.011303	1.213828	0.521217
C207	C	1.344636	1.547161	0.854550
O208	O	0.702441	0.904753	0.163493
O209	O	1.035774	1.238087	0.496826
O210	O	1.369107	1.571420	0.830159
N211	N	0.649224	0.903970	0.216583
N212	N	0.982557	1.237303	0.549917
N213	N	1.315891	1.570636	0.883250
C214	C	0.620465	0.880524	0.245283
C215	C	0.953799	1.213857	0.578616
C216	C	1.287132	1.547191	0.911950
O217	O	0.596020	0.904798	0.269698
O218	O	0.929354	1.238131	0.603031
O219	O	1.262687	1.571464	0.936365
C220	C	0.620412	0.692852	0.245268
C221	C	0.953746	1.026185	0.578601
C222	C	1.287079	1.359519	0.911934
C223	C	0.649156	0.669379	0.216563
C224	C	0.982489	1.002712	0.549896
C225	C	1.315823	1.336045	0.883229
C226	C	0.706656	0.669348	0.159164
C227	C	1.039989	1.002681	0.492497
C228	C	1.373322	1.336015	0.825830
C229	C	0.706640	0.622433	0.159158
C230	C	1.039973	0.955766	0.492491
C231	C	1.373306	1.289099	0.825824
C232	C	0.677882	0.598990	0.187854
C233	C	1.011215	0.932324	0.521188
C234	C	1.344549	1.265657	0.854521
C235	C	0.649140	0.622463	0.216557
C236	C	0.982474	0.955797	0.549890
C237	C	1.315807	1.289130	0.883223
C238	C	0.591656	0.669407	0.273969
C239	C	0.924989	1.002740	0.607303
C240	C	1.258323	1.336074	0.940636
C241	C	0.591646	0.622486	0.273964
C242	C	0.924979	0.955819	0.607297
C243	C	1.258313	1.289153	0.940630
C244	C	0.620390	0.599013	0.245259
C245	C	0.953723	0.932346	0.578592
C246	C	1.287057	1.265680	0.911925
C247	C	0.620367	0.552106	0.245248
C248	C	0.953700	0.885439	0.578581
C249	C	1.287033	1.218772	0.911914
N250	N	0.649112	0.528630	0.216548
N251	N	0.982445	0.861963	0.549881
N252	N	1.315778	1.195297	0.883214
C253	C	0.677869	0.552072	0.187851
C254	C	1.011203	0.885406	0.521184
C255	C	1.344536	1.218739	0.854518
C256	C	0.620494	0.979055	0.245289
C257	C	0.953828	1.312388	0.578622
C258	C	1.287161	1.645721	0.911955
C259	C	0.620507	1.025973	0.245292
C260	C	0.953840	1.359306	0.578625
C261	C	1.287174	1.692639	0.911959
C262	C	0.678012	1.025939	0.187893
C263	C	1.011345	1.359273	0.521226
C264	C	1.344678	1.692606	0.854559
C265	C	0.677996	0.979021	0.187887
C266	C	1.011330	1.312354	0.521221
C267	C	1.344663	1.645687	0.854554
C268	C	0.649239	0.955579	0.216589
C269	C	0.982573	1.288913	0.549922
C270	C	1.315906	1.622246	0.883255
C271	C	0.677834	0.453547	0.187841
C272	C	1.011167	0.786880	0.521174
C273	C	1.344500	1.120213	0.854507
C274	C	0.677814	0.406627	0.187836
C275	C	1.011147	0.739960	0.521169
C276	C	1.344481	1.073294	0.854503
C277	C	0.620311	0.406664	0.245237
C278	C	0.953644	0.739998	0.578570
C279	C	1.286978	1.073331	0.911903
C280	C	0.620329	0.453580	0.245240
C281	C	0.953662	0.786913	0.578573
C282	C	1.286996	1.120246	0.911907
C283	C	0.649094	0.477020	0.216540
C284	C	0.982427	0.810353	0.549874
C285	C	1.315761	1.143686	0.883207
O286	O	0.595912	0.527818	0.269629
O287	O	0.929245	0.861151	0.602962
O288	O	1.262578	1.194484	0.936296
O289	O	0.702318	0.527791	0.163447
O290	O	1.035651	0.861124	0.496780
O291	O	1.368984	1.194457	0.830114
C292	C	0.677930	0.739737	0.187872
C293	C	1.011263	1.073070	0.521205
C294	C	1.344596	1.406403	0.854538
C295	C	0.649188	0.763210	0.216574
C296	C	0.982521	1.096543	0.549907
C297	C	1.315855	1.429876	0.883241
C298	C	0.620430	0.739767	0.245271
C299	C	0.953764	1.073101	0.578604
C300	C	1.287097	1.406434	0.911937
C301	C	0.649200	0.810128	0.216578
C302	C	0.982534	1.143461	0.549911
C303	C	1.315867	1.476794	0.883244
C304	C	0.677958	0.833570	0.187881
C305	C	1.011291	1.166903	0.521214
C306	C	1.344625	1.500237	0.854548
C307	C	0.706703	0.810094	0.159181
C308	C	1.040037	1.143428	0.492514
C309	C	1.373370	1.476761	0.825848
C310	C	0.706687	0.763179	0.159175
C311	C	1.040021	1.096512	0.492508
C312	C	1.373354	1.429846	0.825842
C313	C	0.591685	0.763243	0.273971
C314	C	0.925018	1.096576	0.607304
C315	C	1.258352	1.429910	0.940637
C316	C	0.591703	0.810158	0.273974
C317	C	0.925036	1.143492	0.607307
C318	C	1.258370	1.476825	0.940640
C319	C	0.620461	0.833601	0.245277
C320	C	0.953794	1.166934	0.578611
C321	C	1.287127	1.500267	0.911944
C322	C	0.649145	0.216499	0.099827
C323	C	0.982478	0.549833	0.433160
C324	C	1.315811	0.883166	0.766494
C325	C	0.649227	0.216374	0.049893
C326	C	0.982560	0.549708	0.383226
C327	C	1.315893	0.883041	0.716560
C328	C	0.677935	0.187718	0.693325
C329	C	1.011268	0.521051	1.026658
C330	C	1.344602	0.854385	1.359991
C331	C	0.677957	0.187680	0.880998
C332	C	1.011291	0.521013	1.214331
C333	C	1.344624	0.854346	1.547665
O334	O	0.702399	0.163232	0.905279
O335	O	1.035733	0.496565	1.238612
O336	O	1.369066	0.829899	1.571946
N337	N	0.649208	0.216402	0.904448
N338	N	0.982541	0.549735	1.237781
N339	N	1.315875	0.883068	1.571114
C340	C	0.620449	0.245133	0.880976
C341	C	0.953782	0.578467	1.214310
C342	C	1.287115	0.911800	1.547643
O343	O	0.595993	0.269559	0.905228
O344	O	0.929326	0.602892	1.238561
O345	O	1.262659	0.936226	1.571895
C346	C	0.620424	0.245169	0.693304
C347	C	0.953758	0.578502	1.026637
C348	C	1.287091	0.911836	1.359971
C349	C	0.649179	0.216448	0.669857
C350	C	0.982512	0.549782	1.003190
C351	C	1.315846	0.883115	1.336523
C352	C	0.706687	0.158999	0.669877
C353	C	1.040020	0.492333	1.003211
C354	C	1.373354	0.825666	1.336544
C355	C	0.706683	0.159011	0.622962
C356	C	1.040016	0.492344	0.956295
C357	C	1.373349	0.825677	1.289629
C358	C	0.677927	0.187741	0.599494
C359	C	1.011260	0.521074	0.932827
C360	C	1.344593	0.854408	1.266160
C361	C	0.649175	0.216460	0.622941
C362	C	0.982508	0.549793	0.956274
C363	C	1.315842	0.883126	1.289608
C364	C	0.591663	0.273898	0.669833
C365	C	0.924997	0.607231	1.003167
C366	C	1.258330	0.940565	1.336500
C367	C	0.591659	0.273903	0.622912
C368	C	0.924992	0.607237	0.956246
C369	C	1.258326	0.940570	1.289579
C370	C	0.620414	0.245183	0.599465
C371	C	0.953747	0.578516	0.932798
C372	C	1.287080	0.911849	1.266132
C373	C	0.620415	0.245202	0.552558
C374	C	0.953748	0.578535	0.885891
C375	C	1.287081	0.911868	1.219224
N376	N	0.649164	0.216480	0.529108
N377	N	0.982498	0.549813	0.862441
N378	N	1.315831	0.883146	1.195774
C379	C	0.677920	0.187749	0.552576
C380	C	1.011254	0.521083	0.885909
C381	C	1.344587	0.854416	1.219243
C382	C	0.620464	0.245113	0.979507
C383	C	0.953797	0.578446	1.312840
C384	C	1.287131	0.911780	1.646173
C385	C	0.620471	0.245105	1.026425
C386	C	0.953804	0.578438	1.359758
C387	C	1.287137	0.911771	1.693091
C388	C	0.677979	0.187650	1.026443
C389	C	1.011312	0.520984	1.359777
C390	C	1.344645	0.854317	1.693110
C391	C	0.677974	0.187661	0.979524
C392	C	1.011308	0.520995	1.312858
C393	C	1.344641	0.854328	1.646191
C394	C	0.649214	0.216391	0.956057
C395	C	0.982547	0.549724	1.289390
C396	C	1.315880	0.883058	1.622724
C397	C	0.677910	0.187776	0.454050
C398	C	1.011243	0.521109	0.787383
C399	C	1.344576	0.854443	1.120717
C400	C	0.677904	0.187792	0.407130
C401	C	1.011238	0.521125	0.740464
C402	C	1.344571	0.854458	1.073797
C403	C	0.620395	0.245244	0.407116
C404	C	0.953728	0.578577	0.740449
C405	C	1.287061	0.911911	1.073783
C406	C	0.620401	0.245230	0.454032
C407	C	0.953735	0.578564	0.787365
C408	C	1.287068	0.911897	1.120698
C409	C	0.649161	0.216493	0.477497
C410	C	0.982494	0.549826	0.810831
C411	C	1.315827	0.883160	1.144164
O412	O	0.595982	0.269633	0.528248
O413	O	0.929315	0.602966	0.861581
O414	O	1.262649	0.936300	1.194914
O415	O	0.702366	0.163320	0.528316
O416	O	1.035699	0.496654	0.861650
O417	O	1.369032	0.829987	1.194983
C418	C	0.677939	0.187706	0.740240
C419	C	1.011273	0.521040	1.073574
C420	C	1.344606	0.854373	1.406907
C421	C	0.649187	0.216425	0.763688
C422	C	0.982521	0.549758	1.097021
C423	C	1.315854	0.883092	1.430354
C424	C	0.620431	0.245155	0.740219
C425	C	0.953765	0.578489	1.073553
C426	C	1.287098	0.911822	1.406886
C427	C	0.649194	0.216417	0.810605
C428	C	0.982527	0.549750	1.143939
C429	C	1.315861	0.883083	1.477272
C430	C	0.677950	0.187686	0.834074
C431	C	1.011283	0.521020	1.167407
C432	C	1.344617	0.854353	1.500740
C433	C	0.706699	0.158964	0.810624
C434	C	1.040033	0.492298	1.143957
C435	C	1.373366	0.825631	1.477291
C436	C	0.706695	0.158976	0.763708
C437	C	1.040029	0.492309	1.097042
C438	C	1.373362	0.825643	1.430375
C439	C	0.591682	0.273877	0.763669
C440	C	0.925015	0.607211	1.097002
C441	C	1.258349	0.940544	1.430336
C442	C	0.591689	0.273864	0.810585
C443	C	0.925022	0.607197	1.143918
C444	C	1.258355	0.940530	1.477251
C445	C	0.620445	0.245133	0.834053
C446	C	0.953778	0.578467	1.167386
C447	C	1.287111	0.911800	1.500719
H448	H	0.393001	0.268723	0.268566
H449	H	0.726334	0.602056	0.601900
H450	H	1.059668	0.935389	0.935233
N451	N	0.707383	1.049889	0.158574
N452	N	1.040716	1.383223	0.491908
N453	N	1.374049	1.716556	0.825241
N454	N	0.691605	1.076096	0.129932
N455	N	1.024938	1.409430	0.463265
N456	N	1.358272	1.742763	0.796598
H457	H	0.712348	1.093013	0.109228
H458	H	1.045682	1.426346	0.442561
H459	H	1.379015	1.759679	0.775894
N460	N	0.590932	0.382722	0.274550
N461	N	0.924265	0.716055	0.607883
N462	N	1.257598	1.049388	0.941216
N463	N	0.549480	0.388000	0.271530
N464	N	0.882814	0.721333	0.604864
N465	N	1.216147	1.054666	0.938197
H466	H	0.528732	0.371090	0.292235
H467	H	0.862065	0.704424	0.625569
H468	H	1.195399	1.037757	0.958902
H469	H	0.730097	0.135623	0.603875
H470	H	1.063430	0.468956	0.937209
H471	H	1.396764	0.802289	1.270542
N472	N	0.736078	0.129615	0.834593
N473	N	1.069412	0.462949	1.167927
N474	N	1.402745	0.796282	1.501260
N475	N	0.777531	0.132599	0.829369
N476	N	1.110864	0.465933	1.162702
N477	N	1.444197	0.799266	1.496035
H478	H	0.798277	0.111871	0.846298
H479	H	1.131611	0.445204	1.179632
H480	H	1.464944	0.778538	1.512965
N481	N	0.482971	0.158340	0.158539
N482	N	0.816305	0.491674	0.491872
N483	N	1.149638	0.825007	0.825205
N484	N	0.477712	0.161249	0.117078
N485	N	0.811046	0.494582	0.450412
N486	N	1.144379	0.827916	0.783745
H487	H	0.494634	0.140485	0.096388
H488	H	0.827967	0.473818	0.429721
H489	H	1.161300	0.807152	0.763055
H490	H	0.701402	0.959912	0.164514
H491	H	1.034736	1.293245	0.497847
H492	H	1.368069	1.626578	0.831180
H493	H	0.262305	0.135529	0.135852
H494	H	0.595638	0.468863	0.469185
H495	H	0.928972	0.802196	0.802519
N496	N	-0.089427	0.158373	0.158612
N497	N	0.243907	0.491706	0.491945
N498	N	0.577240	0.825040	0.825278
N499	N	-0.110382	0.132690	0.133011
N500	N	0.222951	0.466023	0.466345
N501	N	0.556285	0.799357	0.799678
H502	H	-0.093468	0.111925	0.112316
H503	H	0.239865	0.445258	0.445649
H504	H	0.573199	0.778591	0.778982
N505	N	0.707180	0.382648	0.158518
N506	N	1.040513	0.715982	0.491852
N507	N	1.373846	1.049315	0.825185
N508	N	0.735788	0.356432	0.174349
N509	N	1.069121	0.689765	0.507683
N510	N	1.402455	1.023098	0.841016
H511	H	0.756526	0.339497	0.153644
H512	H	1.089860	0.672830	0.486977
H513	H	1.423193	1.006164	0.820311
N514	N	0.736084	0.834038	0.129867
N515	N	1.069417	1.167372	0.463201
N516	N	1.402751	1.500705	0.796534
N517	N	0.761749	0.813080	0.104241
N518	N	1.095083	1.146413	0.437575
N519	N	1.428416	1.479746	0.770908
H520	H	0.782500	0.829991	0.083540
H521	H	1.115833	1.163325	0.416874
H522	H	1.449167	1.496658	0.750207
H523	H	0.596984	0.268637	0.388000
H524	H	0.930317	0.601970	0.721333
H525	H	1.263650	0.935304	1.054666
H526	H	0.597061	0.268497	1.045512
H527	H	0.930394	0.601830	1.378845
H528	H	1.263727	0.935164	1.712178
N529	N	0.736050	0.739212	0.129849
N530	N	1.069384	1.072546	0.463183
N531	N	1.402717	1.405879	0.796516
N532	N	0.761722	0.760156	0.104231
N533	N	1.095055	1.093490	0.437565
N534	N	1.428389	1.426823	0.770898
H535	H	0.782462	0.743233	0.083518
H536	H	1.115795	1.076566	0.416852
H537	H	1.449128	1.409900	0.750185
H538	H	0.177180	0.297509	0.297271
H539	H	0.510513	0.630842	0.630604
H540	H	0.843847	0.964176	0.963937
N541	N	0.591136	1.049940	0.274609
N542	N	0.924469	1.383273	0.607942
N543	N	1.257802	1.716606	0.941276
N544	N	0.565463	1.028998	0.300227
N545	N	0.898796	1.362331	0.633561
N546	N	1.232129	1.695664	0.966894
H547	H	0.544719	1.045923	0.320935
H548	H	0.878052	1.379256	0.654268
H549	H	1.211386	1.712589	0.987602
N550	N	0.591026	0.274557	0.477992
N551	N	0.924359	0.607890	0.811326
N552	N	1.257692	0.941223	1.144659
N553	N	0.562416	0.258726	0.504161
N554	N	0.895749	0.592059	0.837494
N555	N	1.229083	0.925392	1.170827
H556	H	0.541665	0.279432	0.521083
H557	H	0.874999	0.612766	0.854417
H558	H	1.208332	0.946099	1.187750
H559	H	0.597076	0.959972	0.268661
H560	H	0.930409	1.293305	0.601995
H561	H	1.263742	1.626638	0.935328
H562	H	0.730110	0.135588	0.744622
H563	H	1.063443	0.468922	1.077955
H564	H	1.396777	0.802255	1.411288
N565	N	0.388141	0.158349	0.158548
N566	N	0.721474	0.491682	0.491882
N567	N	1.054808	0.825015	0.825215
N568	N	0.409095	0.132660	0.132942
N569	N	0.742429	0.465993	0.466275
N570	N	1.075762	0.799327	0.799609
H571	H	0.392180	0.111898	0.112252
H572	H	0.725514	0.445232	0.445586
H573	H	1.058847	0.778565	0.778919
H574	H	0.568248	0.297285	0.688916
H575	H	0.901582	0.630619	1.022249
H576	H	1.234915	0.963952	1.355583
N577	N	0.267140	0.303471	0.303201
N578	N	0.600473	0.636805	0.636535
N579	N	0.933807	0.970138	0.969868
N580	N	0.246180	0.329158	0.328805
N581	N	0.579514	0.662491	0.662139
N582	N	0.912847	0.995825	0.995472
H583	H	0.263091	0.349920	0.349498
H584	H	0.596425	0.683254	0.682831
H585	H	0.929758	1.016587	1.016164
N586	N	0.736071	0.129657	0.693845
N587	N	1.069404	0.462990	1.027178
N588	N	1.402738	0.796324	1.360511
N589	N	0.764694	0.145464	0.720025
N590	N	1.098027	0.478798	1.053359
N591	N	1.431361	0.812131	1.386692
H592	H	0.785451	0.124742	0.736950
H593	H	1.118784	0.458076	1.070283
H594	H	1.452118	0.791409	1.403616
H595	H	0.701327	0.164374	0.473150
H596	H	1.034660	0.497707	0.806484
H597	H	1.367993	0.831040	1.139817
N598	N	0.482973	0.274676	0.274493
N599	N	0.816307	0.608009	0.607827
N600	N	1.149640	0.941342	0.941160
N601	N	0.509177	0.258912	0.303147
N602	N	0.842511	0.592246	0.636481
N603	N	1.175844	0.925579	0.969814
H604	H	0.526098	0.279667	0.323840
H605	H	0.859431	0.613000	0.657173
H606	H	1.192764	0.946334	0.990507
N607	N	0.707343	0.158315	0.955583
N608	N	1.040676	0.491648	1.288916
N609	N	1.374009	0.824982	1.622250
N610	N	0.704395	0.116860	0.960834
N611	N	1.037729	0.450193	1.294168
N612	N	1.371062	0.783527	1.627501
H613	H	0.725137	0.096131	0.943928
H614	H	1.058471	0.429465	1.277261
H615	H	1.391804	0.762798	1.610595
N616	N	0.172342	0.129575	0.129909
N617	N	0.505675	0.462908	0.463242
N618	N	0.839008	0.796241	0.796576
N619	N	0.193302	0.103886	0.104308
N620	N	0.526636	0.437219	0.437642
N621	N	0.859969	0.770552	0.770975
H622	H	0.176393	0.083123	0.083616
H623	H	0.509726	0.416456	0.416949
H624	H	0.843059	0.749789	0.750282
N625	N	0.707351	0.158307	1.050427
N626	N	1.040684	0.491640	1.383760
N627	N	1.374018	0.824973	1.717094
N628	N	0.707348	0.158306	1.092317
N629	N	1.040682	0.491640	1.425651
N630	N	1.374015	0.824973	1.758984
H631	H	0.728089	0.137582	1.109258
H632	H	1.061423	0.470915	1.442592
H633	H	1.394756	0.804248	1.775925
N634	N	0.707218	0.477479	0.158522
N635	N	1.040551	0.810812	0.491855
N636	N	1.373884	1.144145	0.825188
N637	N	0.732874	0.456507	0.132897
N638	N	1.066208	0.789841	0.466231
N639	N	1.399541	1.123174	0.799564
H640	H	0.753625	0.473409	0.112188
H641	H	1.086958	0.806742	0.445521
H642	H	1.420292	1.140075	0.778855
H643	H	0.121538	0.297512	0.297278
H644	H	0.454872	0.630846	0.630611
H645	H	0.788205	0.964179	0.963945
N646	N	0.562313	0.303197	0.834539
N647	N	0.895647	0.636531	1.167873
N648	N	1.228980	0.969864	1.501206
N649	N	0.562314	0.303184	0.876430
N650	N	0.895647	0.636518	1.209763
N651	N	1.228980	0.969851	1.543096
H652	H	0.541565	0.323897	0.893347
H653	H	0.874899	0.657231	1.226681
H654	H	1.208232	0.990564	1.560014
N655	N	-0.089429	0.274725	0.274561
N656	N	0.243904	0.608059	0.607894
N657	N	0.577237	0.941392	0.941228
N658	N	-0.110387	0.300416	0.300162
N659	N	0.222947	0.633749	0.633496
N660	N	0.556280	0.967083	0.966829
H661	H	-0.093474	0.321180	0.320852
H662	H	0.239859	0.654513	0.654185
H663	H	0.573192	0.987847	0.987519
N664	N	0.562302	0.303228	0.739708
N665	N	0.895636	0.636561	1.073041
N666	N	1.228969	0.969894	1.406375
N667	N	0.536637	0.328867	0.760656
N668	N	0.869970	0.662200	1.093989
N669	N	1.203303	0.995534	1.427322
H670	H	0.515886	0.349599	0.743735
H671	H	0.849220	0.682933	1.077068
H672	H	1.182553	1.016266	1.410402
N673	N	0.591080	0.274464	0.955546
N674	N	0.924414	0.607797	1.288879
N675	N	1.257747	0.941131	1.622213
N676	N	0.565416	0.300104	0.976494
N677	N	0.898749	0.633438	1.309827
N678	N	1.232083	0.966771	1.643161
H679	H	0.544664	0.320835	0.959574
H680	H	0.877997	0.654169	1.292907
H681	H	1.211331	0.987502	1.626241
N682	N	0.562274	0.303251	0.598949
N683	N	0.895607	0.636585	0.932282
N684	N	1.228941	0.969918	1.265615
N685	N	0.536604	0.328889	0.619893
N686	N	0.869937	0.662222	0.953227
N687	N	1.203271	0.995555	1.286560
H688	H	0.515851	0.349616	0.602970
H689	H	0.849184	0.682949	0.936304
H690	H	1.182518	1.016283	1.269637
N691	N	-0.184273	0.274723	0.274566
N692	N	0.149060	0.608057	0.607899
N693	N	0.482393	0.941390	0.941232
N694	N	-0.226164	0.274720	0.274561
N695	N	0.107170	0.608053	0.607894
N696	N	0.440503	0.941386	0.941227
H697	H	-0.243099	0.295477	0.295247
H698	H	0.090235	0.628810	0.628580
H699	H	0.423568	0.962144	0.961914
N700	N	0.031554	0.303476	0.303224
N701	N	0.364887	0.636809	0.636558
N702	N	0.698221	0.970143	0.969891
N703	N	-0.010336	0.303470	0.303221
N704	N	0.322997	0.636804	0.636554
N705	N	0.656330	0.970137	0.969887
H706	H	-0.027272	0.324228	0.323906
H707	H	0.306061	0.657561	0.657240
H708	H	0.639395	0.990894	0.990573
H709	H	0.036441	0.135556	0.135871
H710	H	0.369775	0.468889	0.469204
H711	H	0.703108	0.802223	0.802537
N712	N	0.736005	0.598466	0.129834
N713	N	1.069338	0.931799	0.463167
N714	N	1.402671	1.265133	0.796500
N715	N	0.761677	0.619410	0.104217
N716	N	1.095011	0.952743	0.437550
N717	N	1.428344	1.286077	0.770884
H718	H	0.782419	0.602487	0.083506
H719	H	1.115753	0.935820	0.416839
H720	H	1.449086	1.269153	0.750173
H721	H	0.568248	0.688511	0.297342
H722	H	0.901581	1.021844	0.630675
H723	H	1.234914	1.355178	0.964009
H724	H	0.596925	0.472692	0.268615
H725	H	0.930258	0.806026	0.601949
H726	H	1.263591	1.139359	0.935282
N727	N	-0.184246	0.158390	0.158615
N728	N	0.149087	0.491723	0.491948
N729	N	0.482421	0.825057	0.825282
N730	N	-0.163289	0.132701	0.133011
N731	N	0.170045	0.466035	0.466344
N732	N	0.503378	0.799368	0.799678
H733	H	-0.180201	0.111942	0.112317
H734	H	0.153132	0.445275	0.445650
H735	H	0.486466	0.778609	0.778984
N736	N	0.126403	0.129586	0.129917
N737	N	0.459736	0.462919	0.463250
N738	N	0.793070	0.796252	0.796584
N739	N	0.105448	0.103901	0.104318
N740	N	0.438781	0.437234	0.437651
N741	N	0.772115	0.770568	0.770984
H742	H	0.122362	0.083137	0.083621
H743	H	0.455696	0.416471	0.416954
H744	H	0.789029	0.749804	0.750287
N745	N	0.562314	0.739296	0.303287
N746	N	0.895648	1.072629	0.636621
N747	N	1.228981	1.405963	0.969954
N748	N	0.578089	0.713090	0.331932
N749	N	0.911423	1.046423	0.665266
N750	N	1.244756	1.379757	0.998599
H751	H	0.557344	0.696179	0.352639
H752	H	0.890677	1.029512	0.685972
H753	H	1.224011	1.362846	1.019306
N754	N	0.736039	0.693282	0.129847
N755	N	1.069372	1.026615	0.463181
N756	N	1.402705	1.359949	0.796514
N757	N	0.761697	0.672309	0.104226
N758	N	1.095031	1.005643	0.437560
N759	N	1.428364	1.338976	0.770893
H760	H	0.782449	0.689210	0.083518
H761	H	1.115783	1.022543	0.416851
H762	H	1.449116	1.355876	0.750185
H763	H	0.568229	0.603402	0.297337
H764	H	0.901562	0.936736	0.630670
H765	H	1.234896	1.270069	0.964004
N766	N	0.562333	0.834126	0.303297
N767	N	0.895666	1.167459	0.636630
N768	N	1.229000	1.500792	0.969963
N769	N	0.536660	0.813184	0.328915
N770	N	0.869994	1.146517	0.662249
N771	N	1.203327	1.479850	0.995582
H772	H	0.515920	0.830109	0.349627
H773	H	0.849253	1.163442	0.682960
H774	H	1.182587	1.496775	1.016293
H775	H	0.701321	0.164403	0.388042
H776	H	1.034655	0.497737	0.721375
H777	H	1.367988	0.831070	1.054708
