data_functionalizedCrystal
_audit_creation_method	'MofGen! by Chris Wilmer'
_symmetry_space_group_name_H-M	'P1'
_symmetry_Int_Tables_number	1
_symmetry_cell_setting	triclinic
loop_
_symmetry_equiv_pos_as_xyz
  x,y,z
_cell_length_a	16.120530
_cell_length_b	19.077068
_cell_length_c	16.120728
_cell_angle_alpha	84.936240
_cell_angle_beta	89.860094
_cell_angle_gamma	89.537851
loop_
_atom_site_label
_atom_site_type_symbol
_atom_site_fract_x
_atom_site_fract_y
_atom_site_fract_z
Zn1	Zn	1.229521	-0.356649	0.550595
Zn2	Zn	1.729521	0.143351	1.050595
Zn3	Zn	1.230903	-0.468632	0.416574
Zn4	Zn	1.730903	0.031368	0.916574
Zn5	Zn	1.098135	-0.344718	0.403978
Zn6	Zn	1.598135	0.155282	0.903978
Zn7	Zn	1.084865	-0.468020	0.548515
Zn8	Zn	1.584865	0.031980	1.048515
O9	O	1.160856	-0.409505	0.479916
O10	O	1.660856	0.090495	0.979916
O11	O	1.345807	-0.376753	0.538959
O12	O	1.845807	0.123247	1.038959
O13	O	1.219423	-0.447458	0.298326
O14	O	1.719423	0.052542	0.798326
O15	O	1.120538	-0.247833	0.419027
O16	O	1.620538	0.252167	0.919027
O17	O	1.346823	-0.459027	0.440495
O18	O	1.846823	0.040973	0.940495
O19	O	1.217067	-0.256599	0.526746
O20	O	1.717067	0.243401	1.026746
O21	O	1.121879	-0.356419	0.289072
O22	O	1.621879	0.143581	0.789072
O23	O	0.980272	-0.355825	0.417009
O24	O	1.480272	0.144175	0.917009
O25	O	1.097922	-0.457983	0.665368
O26	O	1.597922	0.042017	1.165368
O27	O	0.970523	-0.446414	0.523200
O28	O	1.470523	0.053586	1.023200
O29	O	1.204200	-0.376159	0.666897
O30	O	1.704200	0.123841	1.166897
O31	O	1.206556	-0.567019	0.438477
O32	O	1.706556	-0.067019	0.938477
O33	O	1.099263	-0.566569	0.535413
O34	O	1.599263	-0.066569	1.035413
C35	C	1.151641	-0.592327	0.488106
C36	C	1.651641	-0.092327	0.988106
C37	C	1.147773	-0.670544	0.491641
C38	C	1.647773	-0.170544	0.991641
C39	C	0.945293	-0.399759	0.468512
C40	C	1.445293	0.100241	0.968512
C41	C	0.853072	-0.395608	0.463654
C42	C	1.353072	0.104392	0.963654
C43	C	1.201857	-0.707504	0.442879
C44	C	1.701857	-0.207504	0.942879
C45	C	1.198224	-0.780998	0.446210
C46	C	1.698224	-0.280998	0.946210
C47	C	1.140502	-0.817528	0.498298
C48	C	1.640502	-0.317528	0.998298
C49	C	1.086416	-0.780562	0.547066
C50	C	1.586416	-0.280562	1.047066
C51	C	1.090054	-0.707071	0.543739
C52	C	1.590054	-0.207071	1.043739
C53	C	1.123632	-1.037302	0.513659
C54	C	1.623632	-0.537302	1.013659
C55	C	1.119997	-1.110798	0.516980
C56	C	1.619997	-0.610798	1.016980
C57	C	1.231806	-1.111229	0.416124
C58	C	1.731806	-0.611229	0.916124
C59	C	1.235435	-1.037735	0.412799
C60	C	1.735435	-0.537735	0.912799
C61	C	1.181352	-1.000776	0.461569
C62	C	1.681352	-0.500776	0.961569
N63	N	1.136786	-0.892650	0.501702
N64	N	1.636786	-0.392650	1.001702
N65	N	1.185073	-0.925656	0.458170
N66	N	1.685073	-0.425656	0.958170
C67	C	0.684224	-0.388013	0.454792
C68	C	1.184224	0.111987	0.954792
C69	C	0.638323	-0.431051	0.505103
C70	C	1.138323	0.068949	1.005103
C71	C	0.544370	-0.426825	0.500172
C72	C	1.044370	0.073175	1.000172
C73	C	0.778186	-0.392238	0.459722
C74	C	1.278186	0.107762	0.959722
C75	C	1.377261	-0.419289	0.491364
C76	C	1.877261	0.080711	0.991364
C77	C	1.469480	-0.423458	0.496243
C78	C	1.969480	0.076542	0.996243
C79	C	1.149427	-0.418333	0.697205
C80	C	1.649427	0.081667	1.197205
C81	C	1.144556	-0.422095	0.789800
C82	C	1.644556	0.077905	1.289800
C83	C	1.170129	-0.225971	0.471713
C84	C	1.670129	0.274029	0.971713
C85	C	1.174080	-0.147759	0.468218
C86	C	1.674080	0.352241	0.968218
C87	C	1.135634	-0.428947	0.959331
C88	C	1.635634	0.071053	1.459331
C89	C	1.186049	-0.390129	1.001353
C90	C	1.686049	0.109871	1.501353
C91	C	1.181085	-0.393941	1.095686
C92	C	1.681085	0.106059	1.595686
C93	C	1.140597	-0.425136	0.864990
C94	C	1.640597	0.074864	1.364990
C95	C	1.172240	-0.400730	1.263473
C96	C	1.672240	0.099270	1.763473
C97	C	1.177130	-0.396978	1.170879
C98	C	1.677130	0.103022	1.670879
H99	H	1.248857	-0.677766	0.400459
H100	H	1.748857	-0.177766	0.900459
H101	H	0.669588	-0.471071	0.551881
H102	H	1.169588	0.028929	1.051881
H103	H	1.232938	-0.354031	0.966483
H104	H	1.732938	0.145969	1.466483
N105	N	0.644997	-0.337812	0.396119
N106	N	1.144997	0.162188	0.896119
N107	N	0.567623	-0.334412	0.392150
N108	N	1.067623	0.165588	0.892150
H109	H	0.539910	-0.298960	0.350712
H110	H	1.039910	0.201040	0.850712
N111	N	1.076806	-0.474217	1.003074
N112	N	1.576806	0.025783	1.503074
N113	N	1.022689	-0.448986	1.047734
N114	N	1.522689	0.051014	1.547734
H115	H	0.981142	-0.480956	1.078640
H116	H	1.481142	0.019044	1.578640
N117	N	1.253487	-0.818742	0.396408
N118	N	1.753487	-0.318742	0.896408
N119	N	1.305023	-0.786118	0.349908
N120	N	1.805023	-0.286118	0.849908
H121	H	1.344060	-0.812774	0.314737
H122	H	1.844060	-0.312774	0.814737
H123	H	1.039422	-0.810312	0.589481
H124	H	1.539422	-0.310312	1.089481
N125	N	1.034820	-0.669314	0.593560
N126	N	1.534820	-0.169314	1.093560
N127	N	1.035818	-0.680860	0.671093
N128	N	1.535818	-0.180860	1.171093
H129	H	0.996811	-0.654194	0.706284
H130	H	1.496811	-0.154194	1.206284
N131	N	1.294387	-1.000437	0.359566
N132	N	1.794387	-0.500437	0.859566
N133	N	1.292562	-1.005327	0.282780
N134	N	1.792562	-0.505327	0.782780
H135	H	1.334194	-0.978989	0.245174
H136	H	1.834194	-0.478989	0.745174
N137	N	1.287040	-1.148993	0.366314
N138	N	1.787040	-0.648993	0.866314
N139	N	1.283786	-1.214609	0.369287
N140	N	1.783786	-0.714609	0.869287
H141	H	1.322799	-1.241282	0.334108
H142	H	1.822799	-0.741282	0.834108
H143	H	1.079594	-1.007215	0.553368
H144	H	1.579594	-0.507215	1.053368
N145	N	1.061021	-1.148103	0.570188
N146	N	1.561021	-0.648103	1.070188
N147	N	1.012734	-1.115097	0.613725
N148	N	1.512734	-0.615097	1.113725
H149	H	0.971081	-1.141443	0.651298
H150	H	1.471081	-0.641443	1.151298
