data_functionalizedCrystal
_audit_creation_method	'MofGen! by Chris Wilmer'
_symmetry_space_group_name_H-M	'P1'
_symmetry_Int_Tables_number	1
_symmetry_cell_setting	triclinic
loop_
_symmetry_equiv_pos_as_xyz
  x,y,z
_cell_length_a	19.077372
_cell_length_b	19.077391
_cell_length_c	19.076919
_cell_angle_alpha	90.062674
_cell_angle_beta	94.474666
_cell_angle_gamma	90.124953
loop_
_atom_site_label
_atom_site_type_symbol
_atom_site_fract_x
_atom_site_fract_y
_atom_site_fract_z
Zn1	Zn	-1.072145	0.250978	0.344976
Zn2	Zn	-0.738812	0.584311	0.678309
Zn3	Zn	-0.405478	0.917644	1.011642
Zn4	Zn	-1.081490	0.363375	0.222390
Zn5	Zn	-0.748157	0.696708	0.555724
Zn6	Zn	-0.414824	1.030041	0.889057
Zn7	Zn	-0.959001	0.250999	0.231820
Zn8	Zn	-0.625668	0.584332	0.565153
Zn9	Zn	-0.292335	0.917666	0.898486
Zn10	Zn	-0.959327	0.373154	0.344539
Zn11	Zn	-0.625994	0.706488	0.677872
Zn12	Zn	-0.292661	1.039821	1.011206
O13	O	-1.017991	0.309626	0.285931
O14	O	-0.684658	0.642960	0.619265
O15	O	-0.351324	0.976293	0.952598
O16	O	-1.171861	0.261786	0.324951
O17	O	-0.838528	0.595119	0.658284
O18	O	-0.505195	0.928452	0.991618
O19	O	-1.069016	0.344384	0.125165
O20	O	-0.735683	0.677717	0.458499
O21	O	-0.402350	1.011050	0.791832
O22	O	-0.969963	0.152835	0.250959
O23	O	-0.636629	0.486169	0.584292
O24	O	-0.303296	0.819502	0.917626
O25	O	-1.178727	0.344363	0.234888
O26	O	-0.845394	0.677696	0.568221
O27	O	-0.512061	1.011030	0.901555
O28	O	-1.053089	0.152820	0.334094
O29	O	-0.719756	0.486153	0.667428
O30	O	-0.386422	0.819486	1.000761
O31	O	-0.979024	0.261822	0.132093
O32	O	-0.645691	0.595155	0.465426
O33	O	-0.312358	0.928489	0.798760
O34	O	-0.860568	0.271305	0.250536
O35	O	-0.527235	0.604638	0.583869
O36	O	-0.193901	0.937972	0.917202
O37	O	-0.970518	0.361031	0.443073
O38	O	-0.637185	0.694365	0.776406
O39	O	-0.303852	1.027698	1.109739
O40	O	-0.860807	0.361052	0.333350
O41	O	-0.527474	0.694385	0.666683
O42	O	-0.194141	1.027719	1.000017
O43	O	-1.053405	0.271269	0.443394
O44	O	-0.720072	0.604602	0.776727
O45	O	-0.386738	0.937935	1.110060
O46	O	-1.069333	0.462833	0.234465
O47	O	-0.735999	0.796166	0.567798
O48	O	-0.402666	1.129499	0.901131
O49	O	-0.979580	0.470018	0.324207
O50	O	-0.646247	0.803351	0.657540
O51	O	-0.312913	1.136685	0.990873
C52	C	-0.835154	0.317243	0.292919
C53	C	-0.501820	0.650576	0.626252
C54	C	-0.168487	0.983909	0.959586
C55	C	-0.756935	0.320518	0.295924
C56	C	-0.423602	0.653852	0.629258
C57	C	-0.090269	0.987185	0.962591
C58	C	-0.316661	0.343961	0.317519
C59	C	0.016672	0.677294	0.650853
C60	C	0.350006	1.010628	0.984186
C61	C	-0.390156	0.340888	0.314682
C62	C	-0.056823	0.674221	0.648016
C63	C	0.276510	1.007555	0.981349
C64	C	-0.426750	0.292556	0.270224
C65	C	-0.093417	0.625889	0.603558
C66	C	0.239916	0.959222	0.936891
C67	C	-0.389846	0.247299	0.228596
C68	C	-0.056512	0.580632	0.561929
C69	C	0.276821	0.913965	0.895262
C70	C	-0.316352	0.250376	0.231430
C71	C	0.016981	0.583709	0.564763
C72	C	0.350315	0.917043	0.898096
C73	C	-0.646537	0.278338	0.257130
C74	C	-0.313204	0.611672	0.590463
C75	C	0.020130	0.945005	0.923796
C76	C	-0.720036	0.275263	0.254300
C77	C	-0.386702	0.608597	0.587634
C78	C	-0.053369	0.941930	0.920967
C79	C	-0.720341	0.368854	0.340387
C80	C	-0.387008	0.702187	0.673720
C81	C	-0.053675	1.035520	1.007053
C82	C	-0.646846	0.371924	0.343220
C83	C	-0.313513	0.705257	0.676553
C84	C	0.019821	1.038590	1.009886
C85	C	-0.609948	0.326669	0.301588
C86	C	-0.276615	0.660003	0.634922
C87	C	0.056719	0.993336	0.968255
N88	N	-0.501874	0.289412	0.267325
N89	N	-0.168541	0.622745	0.600658
N90	N	0.164792	0.956079	0.933991
N91	N	-0.534826	0.329817	0.304485
N92	N	-0.201492	0.663150	0.637818
N93	N	0.131841	0.996484	0.971151
C94	C	-1.025524	0.491877	0.278280
C95	C	-0.692191	0.825210	0.611613
C96	C	-0.358858	1.158544	0.944946
C97	C	-1.028810	0.569843	0.275027
C98	C	-0.695477	0.903176	0.608361
C99	C	-0.362144	1.236510	0.941694
C100	C	-0.201542	0.301977	0.278908
C101	C	0.131791	0.635310	0.612242
C102	C	0.465124	0.968643	0.945575
C103	C	-0.279761	0.298706	0.275895
C104	C	0.053572	0.632039	0.609229
C105	C	0.386905	0.965373	0.942562
C106	C	-0.983596	0.610238	0.320187
C107	C	-0.650262	0.943571	0.653521
C108	C	-0.316929	1.276905	0.986854
C109	C	-0.986687	0.683495	0.317129
C110	C	-0.653353	1.016828	0.650462
C111	C	-0.320020	1.350162	0.983795
C112	C	-1.034996	0.716356	0.268913
C113	C	-0.701663	1.049689	0.602246
C114	C	-0.368330	1.383022	0.935579
C115	C	-1.080213	0.675955	0.223748
C116	C	-0.746880	1.009289	0.557081
C117	C	-0.413546	1.342622	0.890414
C118	C	-1.077118	0.602700	0.226804
C119	C	-0.743785	0.936033	0.560137
C120	C	-0.410452	1.269366	0.893470
C121	C	-1.049263	0.935043	0.254763
C122	C	-0.715930	1.268376	0.588097
C123	C	-0.382597	1.601709	0.921430
C124	C	-1.052356	1.008304	0.251712
C125	C	-0.719023	1.341637	0.585046
C126	C	-0.385690	1.674970	0.918379
C127	C	-0.958828	1.015838	0.345093
C128	C	-0.625495	1.349171	0.678426
C129	C	-0.292162	1.682505	1.011759
C130	C	-0.955741	0.942581	0.348147
C131	C	-0.622407	1.275914	0.681481
C132	C	-0.289074	1.609247	1.014814
C133	C	-1.000955	0.902187	0.302980
C134	C	-0.667622	1.235520	0.636313
C135	C	-0.334288	1.568853	0.969647
N136	N	-1.038158	0.791236	0.265786
N137	N	-0.704825	1.124569	0.599120
N138	N	-0.371492	1.457903	0.932453
N139	N	-0.997789	0.827308	0.306103
N140	N	-0.664456	1.160641	0.639437
N141	N	-0.331122	1.493974	0.972770
C142	C	-1.010956	0.317238	0.469481
C143	C	-0.677622	0.650572	0.802814
C144	C	-0.344289	0.983905	1.136148
C145	C	-1.007958	0.320482	0.547699
C146	C	-0.674624	0.653816	0.881032
C147	C	-0.341291	0.987149	1.214365
C148	C	-1.010424	1.126664	0.293619
C149	C	-0.677091	1.459998	0.626952
C150	C	-0.343757	1.793331	0.960285
C151	C	-1.007141	1.048698	0.296872
C152	C	-0.673808	1.382032	0.630206
C153	C	-0.340475	1.715365	0.963539
C154	C	-1.025037	0.301992	0.103096
C155	C	-0.691704	0.635325	0.436429
C156	C	-0.358371	0.968658	0.769763
C157	C	-1.028164	0.298545	0.024882
C158	C	-0.694830	0.631878	0.358215
C159	C	-0.361497	0.965211	0.691548
C160	C	-1.049702	0.275274	0.584614
C161	C	-0.716368	0.608607	0.917947
C162	C	-0.383035	0.941940	1.251281
C163	C	-1.046876	0.278319	0.658108
C164	C	-0.713543	0.611653	0.991442
C165	C	-0.380209	0.944986	1.324775
C166	C	-1.002309	0.326577	0.694686
C167	C	-0.668976	0.659911	1.028020
C168	C	-0.335643	0.993244	1.361353
C169	C	-0.960561	0.371788	0.657766
C170	C	-0.627228	0.705121	0.991099
C171	C	-0.293894	1.038454	1.324433
C172	C	-0.963383	0.368738	0.584273
C173	C	-0.630050	0.702072	0.917606
C174	C	-0.296717	1.035405	1.250940
C175	C	-0.989237	0.340706	0.914469
C176	C	-0.655904	0.674039	1.247802
C177	C	-0.322571	1.007372	1.581135
C178	C	-0.986420	0.343753	0.987967
C179	C	-0.653086	0.677086	1.321300
C180	C	-0.319753	1.010420	1.654633
C181	C	-1.072734	0.250283	0.988304
C182	C	-0.739401	0.583617	1.321637
C183	C	-0.406067	0.916950	1.654971
C184	C	-1.075556	0.247241	0.914809
C185	C	-0.742222	0.580574	1.248143
C186	C	-0.408889	0.913908	1.581476
C187	C	-1.033804	0.292449	0.877896
C188	C	-0.700471	0.625782	1.211229
C189	C	-0.367138	0.959116	1.544563
N190	N	-0.999422	0.329693	0.769809
N191	N	-0.666088	0.663026	1.103143
N192	N	-0.332755	0.996360	1.436476
N193	N	-1.036689	0.289329	0.802774
N194	N	-0.703355	0.622663	1.136108
N195	N	-0.370022	0.955996	1.469441
H196	H	-0.286871	0.383315	0.353726
H197	H	0.046462	0.716648	0.687059
H198	H	0.379796	1.049981	1.020393
Cl199	Cl	-0.435850	0.186540	0.172703
Cl200	Cl	-0.102517	0.519874	0.506036
Cl201	Cl	0.230817	0.853207	0.839369
Cl202	Cl	-0.929850	0.734274	0.373912
Cl203	Cl	-0.596516	1.067608	0.707245
Cl204	Cl	-0.263183	1.400941	1.040578
Cl205	Cl	-1.105735	0.214607	0.538637
Cl206	Cl	-0.772401	0.547940	0.871971
Cl207	Cl	-0.439068	0.881273	1.205304
H208	H	-0.286309	0.213523	0.197537
H209	H	0.047024	0.546856	0.530870
H210	H	0.380358	0.880189	0.864203
Cl211	Cl	-1.113093	1.049613	0.191093
Cl212	Cl	-0.779759	1.382946	0.524427
Cl213	Cl	-0.446426	1.716280	0.857760
Cl214	Cl	-0.895009	0.901275	0.408767
Cl215	Cl	-0.561675	1.234609	0.742100
Cl216	Cl	-0.228342	1.567942	1.075433
Cl217	Cl	-0.936750	0.397539	0.868073
Cl218	Cl	-0.603417	0.730873	1.201406
Cl219	Cl	-0.270083	1.064206	1.534739
H220	H	-0.922017	1.048734	0.381865
H221	H	-0.588683	1.382068	0.715198
H222	H	-0.255350	1.715401	1.048531
H223	H	-0.750392	0.405698	0.374280
H224	H	-0.417058	0.739031	0.707613
H225	H	-0.083725	1.072365	1.040946
Cl226	Cl	-0.930385	0.404421	1.033949
Cl227	Cl	-0.597052	0.737755	1.367283
Cl228	Cl	-0.263718	1.071088	1.700616
H229	H	-0.749828	0.235897	0.218103
H230	H	-0.416495	0.569230	0.551436
H231	H	-0.083161	0.902564	0.884770
Cl232	Cl	-1.106116	0.884271	0.197993
Cl233	Cl	-0.772783	1.217605	0.531326
Cl234	Cl	-0.439450	1.550938	0.864659
H235	H	-1.113936	0.569811	0.190029
H236	H	-0.780603	0.903144	0.523362
H237	H	-0.447269	1.236477	0.856695
H238	H	-0.616503	0.241492	0.223228
H239	H	-0.283170	0.574825	0.556561
H240	H	0.050163	0.908158	0.889894
H241	H	-1.119545	0.702716	0.184486
H242	H	-0.786211	1.036050	0.517819
H243	H	-0.452878	1.369383	0.851153
Cl244	Cl	-0.922863	0.568935	0.380808
Cl245	Cl	-0.589530	0.902268	0.714142
Cl246	Cl	-0.256197	1.235601	1.047475
H247	H	-1.080870	0.241507	0.688161
H248	H	-0.747537	0.574841	1.021495
H249	H	-0.414203	0.908174	1.354828
Cl250	Cl	-1.131585	0.186572	0.868831
Cl251	Cl	-0.798251	0.519905	1.202165
Cl252	Cl	-0.464918	0.853238	1.535498
H253	H	-1.106725	0.213477	1.018367
H254	H	-0.773391	0.546810	1.351700
H255	H	-0.440058	0.880143	1.685034
Cl256	Cl	-0.904531	0.432453	0.703750
Cl257	Cl	-0.571198	0.765786	1.037083
Cl258	Cl	-0.237865	1.099120	1.370417
H259	H	-0.929383	0.405545	0.554218
H260	H	-0.596050	0.738878	0.887552
H261	H	-0.262717	1.072212	1.220885
H262	H	-0.617056	0.411282	0.379421
H263	H	-0.283723	0.744616	0.712754
H264	H	0.049610	1.077949	1.046087
Cl265	Cl	-0.436542	0.397784	0.367011
Cl266	Cl	-0.103208	0.731118	0.700344
Cl267	Cl	0.230125	1.064451	1.033677
