data_functionalizedCrystal
_audit_creation_method	'MofGen! by Chris Wilmer'
_symmetry_space_group_name_H-M	'P1'
_symmetry_Int_Tables_number	1
_symmetry_cell_setting	triclinic
loop_
_symmetry_equiv_pos_as_xyz
  x,y,z
_cell_length_a	6.817900
_cell_length_b	14.858572
_cell_length_c	11.102288
_cell_angle_alpha	93.467296
_cell_angle_beta	108.605689
_cell_angle_gamma	104.524003
loop_
_atom_site_label
_atom_site_type_symbol
_atom_site_fract_x
_atom_site_fract_y
_atom_site_fract_z
V1	V	-4.064547	-0.289960	-0.176639
V2	V	-3.564547	0.210040	0.323361
O3	O	-4.024474	-0.284441	0.007665
O4	O	-3.524474	0.215559	0.507665
O5	O	-4.041646	-0.287977	-0.349454
O6	O	-3.541646	0.212023	0.150546
O7	O	-4.020838	-0.416422	-0.174283
O8	O	-3.520838	0.083578	0.325717
O9	O	-4.045427	-0.155107	-0.168718
O10	O	-3.545427	0.344893	0.331282
V11	V	-4.544264	-0.273831	-0.154551
V12	V	-4.044264	0.226169	0.345449
O13	O	-4.334156	-0.325342	-0.225090
O14	O	-3.834156	0.174658	0.274910
O15	O	-4.724852	-0.238449	-0.106100
O16	O	-4.224852	0.261551	0.393900
O17	O	-4.343959	-0.275814	0.018263
O18	O	-3.843959	0.224186	0.518263
O19	O	-4.701734	-0.279350	-0.338855
O20	O	-4.201734	0.220650	0.161145
O21	O	-4.680781	-0.408684	-0.162472
O22	O	-4.180781	0.091316	0.337528
O23	O	-4.364767	-0.147369	-0.156907
O24	O	-3.864767	0.352631	0.343093
C25	C	-3.892698	-0.283403	-0.391571
C26	C	-3.392698	0.216597	0.108429
C27	C	-3.955291	-0.282625	-0.532852
C28	C	-3.455291	0.217375	-0.032852
C29	C	-4.167954	-0.286899	-0.605712
C30	C	-3.667954	0.213101	-0.105712
C31	C	-4.226759	-0.286175	-0.738461
C32	C	-3.726759	0.213825	-0.238461
C33	C	-3.860216	-0.276898	-0.725477
C34	C	-3.360216	0.223102	-0.225477
C35	C	-3.801417	-0.277629	-0.592732
C36	C	-3.301417	0.222371	-0.092732
C37	C	-3.866154	-0.447246	-0.168122
C38	C	-3.366154	0.052754	0.331878
C39	C	-3.911868	-0.550629	-0.167339
C40	C	-3.411868	-0.050629	0.332661
C41	C	-4.079186	-0.929197	-0.164478
C42	C	-3.579186	-0.429197	0.335522
C43	C	-4.032624	-0.823868	-0.165274
C44	C	-3.532624	-0.323868	0.334726
C45	C	-3.995529	-0.739916	-0.165910
C46	C	-3.495529	-0.239916	0.334090
C47	C	-3.948964	-0.634580	-0.166703
C48	C	-3.448964	-0.134580	0.333297
C49	C	-4.156249	-0.280385	0.060374
C50	C	-3.656249	0.219615	0.560374
C51	C	-4.072895	-0.281170	0.201653
C52	C	-3.572895	0.218830	0.701653
C53	C	-4.182793	-0.116540	-0.163073
C54	C	-3.682793	0.383460	0.336927
C55	C	-4.116316	-0.013156	-0.163849
C56	C	-3.616316	0.486844	0.336151
H57	H	-3.628238	-0.274152	-0.533407
H58	H	-3.128238	0.225848	-0.033407
H59	H	-4.293251	-0.290965	-0.556961
H60	H	-3.793251	0.209035	-0.056961
N61	N	-3.703070	-0.271776	-0.786667
N62	N	-3.203070	0.228224	-0.286667
N63	N	-3.659140	-0.204472	-0.845074
N64	N	-3.159140	0.295528	-0.345074
H65	H	-3.548152	-0.200851	-0.888290
H66	H	-3.048152	0.299149	-0.388290
N67	N	-4.443997	-0.290557	-0.812889
N68	N	-3.943997	0.209443	-0.312889
N69	N	-4.595999	-0.359603	-0.816620
N70	N	-4.095999	0.140397	-0.316620
H71	H	-4.749435	-0.362702	-0.869186
H72	H	-4.249435	0.137298	-0.369186
