data_functionalizedCrystal
_audit_creation_method	'MofGen! by Chris Wilmer'
_symmetry_space_group_name_H-M	'P1'
_symmetry_Int_Tables_number	1
_symmetry_cell_setting	triclinic
loop_
_symmetry_equiv_pos_as_xyz
  x,y,z
_cell_length_a	16.120484
_cell_length_b	12.759401
_cell_length_c	12.759393
_cell_angle_alpha	89.977503
_cell_angle_beta	87.135992
_cell_angle_gamma	87.073631
loop_
_atom_site_label
_atom_site_type_symbol
_atom_site_fract_x
_atom_site_fract_y
_atom_site_fract_z
Zn1	Zn	-0.331848	-1.584984	0.615227
Zn2	Zn	-0.471283	-1.575932	0.448439
Zn3	Zn	-0.331890	-1.409280	0.439560
Zn4	Zn	-0.471223	-1.400335	0.624068
O5	O	-0.401561	-1.492633	0.531823
O6	O	-0.350351	-1.730803	0.593118
O7	O	-0.452835	-1.553780	0.300243
O8	O	-0.215219	-1.440118	0.455447
O9	O	-0.452794	-1.724153	0.470580
O10	O	-0.215188	-1.569207	0.584508
O11	O	-0.350424	-1.431341	0.293719
O12	O	-0.350366	-1.261073	0.464019
O13	O	-0.452692	-1.424874	0.769913
O14	O	-0.452733	-1.254501	0.599576
O15	O	-0.350293	-1.560534	0.763418
O16	O	-0.587940	-1.545108	0.479153
O17	O	-0.587896	-1.416097	0.608186
C18	C	-0.401548	-1.219666	0.531794
C19	C	-0.401563	-1.102888	0.531808
C20	C	-0.454946	-1.044627	0.602291
C21	C	-0.454948	-0.934903	0.602309
C22	C	-0.348181	-0.941711	0.461352
C23	C	-0.348176	-1.051434	0.461340
C24	C	-0.618168	-1.478678	0.545615
C25	C	-0.710834	-1.472805	0.551550
C26	C	-0.880495	-1.462087	0.562408
C27	C	-0.921786	-1.523366	0.501256
C28	C	-1.016192	-1.517403	0.507297
C29	C	-0.786081	-1.468049	0.556368
C30	C	-0.184108	-1.506670	0.518001
C31	C	-0.091442	-1.512652	0.512110
C32	C	-0.401481	-1.492716	0.805852
C33	C	-0.401447	-1.492752	0.922626
C34	C	-0.401572	-0.766665	0.531846
C35	C	-0.401570	-0.883442	0.531838
C36	C	-0.401581	-1.492613	0.258857
C37	C	-0.401380	-1.492796	0.142068
C38	C	-0.348119	-1.563396	0.974107
C39	C	-0.348083	-1.563416	1.083829
C40	C	-0.454710	-1.422145	1.090580
C41	C	-0.454741	-1.422121	0.980860
H42	H	-0.498415	-1.086519	0.659673
C43	C	-0.290213	-1.639996	1.139914
C44	C	-0.301569	-1.624882	1.248466
C45	C	-0.248260	-1.695398	1.300163
H46	H	-0.302369	-1.709843	1.122850
H47	H	-0.234185	-1.628222	1.118422
H48	H	-0.357584	-1.636665	1.269950
H49	H	-0.289407	-1.555050	1.265560
H50	H	-0.192232	-1.683623	1.278670
H51	H	-0.260421	-1.765240	1.283091
H52	H	-0.255953	-1.685146	1.373819
H53	H	-0.498101	-1.364642	1.138007
C54	C	-0.290086	-0.885910	0.384961
C55	C	-0.207619	-0.917902	0.402776
C56	C	-0.154079	-0.866515	0.332429
H57	H	-0.302109	-0.903041	0.315072
H58	H	-0.297678	-0.812212	0.395062
H59	H	-0.200032	-0.991584	0.392666
H60	H	-0.195571	-0.900770	0.472651
H61	H	-0.161670	-0.792816	0.342531
H62	H	-0.166109	-0.883649	0.262545
H63	H	-0.098119	-0.888206	0.344513
C64	C	-0.513001	-0.871831	0.678877
C65	C	-0.559764	-0.940382	0.740565
C66	C	-0.613260	-0.882319	0.811106
H67	H	-0.481250	-0.831095	0.722800
H68	H	-0.549333	-0.826689	0.640952
H69	H	-0.523436	-0.985506	0.778487
H70	H	-0.591532	-0.981119	0.696671
H71	H	-0.649592	-0.837176	0.773181
H72	H	-0.581502	-0.841584	0.855022
H73	H	-0.645001	-0.928821	0.852963
C74	C	-0.290340	-1.640020	0.910697
C75	C	-0.301793	-1.624900	0.803589
C76	C	-0.248584	-1.695474	0.745148
H77	H	-0.234286	-1.628328	0.924990
H78	H	-0.302544	-1.709851	0.929406
H79	H	-0.289583	-1.555086	0.784887
H80	H	-0.357835	-1.636601	0.789265
H81	H	-0.260787	-1.765305	0.763857
H82	H	-0.192533	-1.683775	0.759450
H83	H	-0.256352	-1.685231	0.672470
H84	H	-0.304700	-1.098872	0.403944
C85	C	-0.928040	-1.386187	0.638151
C86	C	-1.013579	-1.395264	0.629124
C87	C	-1.057414	-1.325351	0.698866
H88	H	-0.913868	-1.402326	0.707914
H89	H	-0.913930	-1.316457	0.621807
H90	H	-1.027684	-1.464979	0.645476
H91	H	-1.027776	-1.379116	0.559377
H92	H	-1.043304	-1.255620	0.682522
H93	H	-1.043235	-1.341495	0.768624
H94	H	-1.115457	-1.331493	0.692744
H95	H	-0.886236	-1.580307	0.444363
C96	C	-0.512736	-1.345373	0.925153
C97	C	-0.559423	-1.283547	0.999634
C98	C	-0.612859	-1.212848	0.948356
H99	H	-0.480945	-1.301549	0.880317
H100	H	-0.549119	-1.383183	0.884693
H101	H	-0.523044	-1.245740	1.040077
H102	H	-0.591231	-1.327342	1.044473
H103	H	-0.649242	-1.250658	0.907896
H104	H	-0.581061	-1.169031	0.903522
H105	H	-0.644548	-1.170897	0.998884
