data_functionalizedCrystal
_audit_creation_method	'MofGen! by Chris Wilmer'
_symmetry_space_group_name_H-M	'P1'
_symmetry_Int_Tables_number	1
_symmetry_cell_setting	triclinic
loop_
_symmetry_equiv_pos_as_xyz
  x,y,z
_cell_length_a	19.076808
_cell_length_b	19.077142
_cell_length_c	19.076919
_cell_angle_alpha	89.925643
_cell_angle_beta	89.878360
_cell_angle_gamma	90.073311
loop_
_atom_site_label
_atom_site_type_symbol
_atom_site_fract_x
_atom_site_fract_y
_atom_site_fract_z
Zn1	Zn	-0.339436	-1.045197	-0.426273
Zn2	Zn	-0.452243	-1.045492	-0.304054
Zn3	Zn	-0.330036	-0.932777	-0.304455
Zn4	Zn	-0.451818	-0.923330	-0.416820
O5	O	-0.393383	-0.986699	-0.362901
O6	O	-0.358512	-1.143409	-0.413848
O7	O	-0.432276	-1.034617	-0.205933
O8	O	-0.233106	-0.951519	-0.324739
O9	O	-0.441391	-1.143626	-0.324055
O10	O	-0.240013	-1.034114	-0.414238
O11	O	-0.342491	-0.951806	-0.206228
O12	O	-0.342078	-0.833350	-0.315573
O13	O	-0.440667	-0.935419	-0.516248
O14	O	-0.431551	-0.826410	-0.398127
O15	O	-0.358100	-1.024954	-0.523193
O16	O	-0.550363	-1.025458	-0.314889
O17	O	-0.550051	-0.935706	-0.397737
C18	C	-0.385749	-0.804425	-0.355868
C19	C	-0.382501	-0.726446	-0.352875
C20	C	-0.575665	-0.979607	-0.355260
C21	C	-0.653649	-0.976636	-0.352017
C22	C	-0.427624	-0.686217	-0.394377
C23	C	-0.424562	-0.612947	-0.391569
C24	C	-0.376381	-0.579909	-0.347255
C25	C	-0.331254	-0.620144	-0.305751
C26	C	-0.334312	-0.693411	-0.308563
C27	C	-0.362229	-0.361167	-0.334246
C28	C	-0.359175	-0.287894	-0.331435
C29	C	-0.452483	-0.280703	-0.417255
C30	C	-0.455540	-0.353972	-0.420060
C31	C	-0.410410	-0.394200	-0.378559
N32	N	-0.373252	-0.505016	-0.344382
N33	N	-0.413536	-0.469092	-0.381436
C34	C	-0.693821	-1.018208	-0.397126
C35	C	-0.767096	-1.015414	-0.394080
C36	C	-0.800197	-0.971051	-0.345921
C37	C	-0.760019	-0.929475	-0.300810
C38	C	-0.686746	-0.932266	-0.303860
C39	C	-1.018960	-0.958093	-0.331802
C40	C	-1.092239	-0.955307	-0.328754
C41	C	-1.099311	-1.041246	-0.422025
C42	C	-1.026036	-1.044036	-0.425068
C43	C	-0.985865	-1.002457	-0.379960
N44	N	-0.875095	-0.968196	-0.342805
N45	N	-0.910968	-1.005309	-0.383080
C46	C	-0.210392	-0.993837	-0.370587
C47	C	-0.132411	-0.996879	-0.373863
C48	C	-0.400385	-0.979100	-0.545888
C49	C	-0.403368	-0.975862	-0.623866
C50	C	-0.401044	-0.169685	-0.369953
C51	C	-0.404298	-0.247664	-0.372937
C52	C	-0.361784	-1.020954	-0.664118
C53	C	-0.364584	-1.017903	-0.737386
C54	C	-0.408973	-0.969762	-0.770402
C55	C	-0.450559	-0.924665	-0.730146
C56	C	-0.447754	-0.927714	-0.656879
C57	C	-0.421966	-0.955644	-0.989140
C58	C	-0.424769	-0.952601	-1.062413
C59	C	-0.338793	-1.045837	-1.069649
C60	C	-0.335996	-1.048884	-0.996379
C61	C	-0.377579	-1.003785	-0.956129
N62	N	-0.411838	-0.966644	-0.845295
N63	N	-0.374710	-1.006900	-0.881238
C64	C	-0.386360	-0.994311	-0.180629
C65	C	-0.383185	-0.997693	-0.102664
H66	H	-0.461307	-0.580196	-0.425364
N67	N	-0.643413	-0.887426	-0.255210
H68	H	-0.675499	-0.858899	-0.224238
H69	H	-0.612950	-0.918513	-0.225135
N70	N	-0.285639	-0.736799	-0.263802
H71	H	-0.294003	-0.725702	-0.212714
H72	H	-0.294906	-0.788212	-0.272366
N73	N	-0.501153	-0.237310	-0.462013
H74	H	-0.472670	-0.206672	-0.494598
H75	H	-0.532130	-0.269403	-0.490468
N76	N	-0.288122	-1.100809	-0.960770
H77	H	-0.262202	-1.128913	-0.997388
H78	H	-0.253295	-1.074785	-0.930630
N79	N	-0.658130	-1.066057	-0.449074
H80	H	-0.627793	-1.037327	-0.481725
H81	H	-0.628020	-1.100928	-0.423064
N82	N	-0.479591	-0.721846	-0.442176
H83	H	-0.474684	-0.774366	-0.437660
H84	H	-0.528723	-0.707544	-0.428582
H85	H	-0.292021	-0.593238	-0.269672
H86	H	-0.325640	-1.060157	-0.637242
N87	N	-0.293940	-1.094467	-1.113067
H88	H	-0.242869	-1.086053	-1.101999
H89	H	-0.306502	-1.144678	-1.101781
N90	N	-0.472622	-0.900650	-1.098023
H91	H	-0.468083	-0.905560	-1.150545
H92	H	-0.522703	-0.910121	-1.083543
N93	N	-0.810402	-1.060258	-0.442748
H94	H	-0.841061	-1.092826	-0.414270
H95	H	-0.840816	-1.029170	-0.472871
N96	N	-0.319740	-1.066536	-0.780810
H97	H	-0.287197	-1.038026	-0.811470
H98	H	-0.291239	-1.097493	-0.748739
N99	N	-0.466791	-0.906981	-0.945733
H100	H	-0.495329	-0.876018	-0.977769
H101	H	-0.499299	-0.935510	-0.915057
H102	H	-0.494776	-0.380867	-0.456144
N103	N	-1.127943	-0.907458	-0.276808
H104	H	-1.091376	-0.881540	-0.248695
H105	H	-1.158099	-0.872630	-0.302822
N106	N	-0.307208	-0.252256	-0.283635
H107	H	-0.279081	-0.288858	-0.257771
H108	H	-0.274616	-0.221932	-0.312440
N109	N	-0.498420	-0.872726	-0.765752
H110	H	-0.493885	-0.877634	-0.818275
H111	H	-0.548497	-0.882210	-0.751266
N112	N	-0.492599	-0.879073	-0.613461
H113	H	-0.521144	-0.848112	-0.645493
H114	H	-0.525100	-0.907622	-0.582797
H115	H	-0.999088	-1.080159	-0.464282
N116	N	-0.313545	-0.404550	-0.289498
H117	H	-0.282558	-0.372501	-0.261002
H118	H	-0.342063	-0.435194	-0.256952
N119	N	-1.142638	-1.086088	-0.470676
H120	H	-1.194079	-1.077591	-0.461439
H121	H	-1.131279	-1.073535	-0.520882
H122	H	-0.786975	-0.893351	-0.261601
N123	N	-0.975638	-0.913257	-0.283146
H124	H	-1.007728	-0.884735	-0.252172
H125	H	-0.945179	-0.944350	-0.253073
