data_functionalizedCrystal
_audit_creation_method	'MofGen! by Chris Wilmer'
_symmetry_space_group_name_H-M	'P1'
_symmetry_Int_Tables_number	1
_symmetry_cell_setting	triclinic
loop_
_symmetry_equiv_pos_as_xyz
  x,y,z
_cell_length_a	29.839134
_cell_length_b	29.839131
_cell_length_c	29.839125
_cell_angle_alpha	90.017709
_cell_angle_beta	90.021980
_cell_angle_gamma	90.036281
loop_
_atom_site_label
_atom_site_type_symbol
_atom_site_fract_x
_atom_site_fract_y
_atom_site_fract_z
Zn1	Zn	0.686720	-0.178978	0.254125
Zn2	Zn	0.686652	-0.254090	0.178995
Zn3	Zn	0.611602	-0.178968	0.178995
Zn4	Zn	0.611550	-0.254075	0.254083
O5	O	0.649131	-0.216528	0.216549
O6	O	0.749578	-0.188952	0.244176
O7	O	0.676690	-0.244127	0.116128
O8	O	0.621617	-0.116102	0.188978
O9	O	0.749528	-0.244137	0.188979
O10	O	0.676805	-0.116109	0.244176
O11	O	0.621551	-0.188935	0.116127
O12	O	0.548728	-0.188921	0.188938
O13	O	0.621528	-0.244111	0.316956
O14	O	0.548690	-0.244101	0.244105
O15	O	0.676755	-0.188937	0.316987
O16	O	0.676639	-0.316955	0.188938
O17	O	0.621462	-0.316944	0.244105
C18	C	0.532408	-0.216509	0.216517
C19	C	0.482474	-0.216511	0.216514
C20	C	0.172820	-0.245303	0.245240
C21	C	-0.014853	-0.245315	0.245260
O22	O	-0.039127	-0.269774	0.269665
N23	N	-0.038311	-0.216544	0.216583
C24	C	-0.014848	-0.187766	0.187902
O25	O	-0.039107	-0.163291	0.163514
C26	C	0.172824	-0.187751	0.187884
C27	C	0.196280	-0.216527	0.216560
C28	C	0.196276	-0.274076	0.273913
C29	C	0.243191	-0.274075	0.273906
C30	C	0.266651	-0.245299	0.245226
C31	C	0.243195	-0.216526	0.216553
C32	C	0.196286	-0.158971	0.159205
C33	C	0.243207	-0.158969	0.159204
C34	C	0.266663	-0.187745	0.187880
C35	C	0.313570	-0.187749	0.187865
N36	N	0.337029	-0.216520	0.216542
C37	C	0.313569	-0.245295	0.245222
C38	C	-0.113379	-0.187776	0.187912
C39	C	-0.160297	-0.187780	0.187916
C40	C	-0.160298	-0.245329	0.245275
C41	C	-0.113380	-0.245327	0.245269
C42	C	-0.089921	-0.216547	0.216589
C43	C	0.412095	-0.245290	0.245205
C44	C	0.459014	-0.245287	0.245194
C45	C	0.459012	-0.187736	0.187837
C46	C	0.412096	-0.187740	0.187846
C47	C	0.388639	-0.216519	0.216534
O48	O	0.337873	-0.163299	0.163477
O49	O	0.337836	-0.269759	0.269613
C50	C	0.125905	-0.245304	0.245247
C51	C	0.102449	-0.216531	0.216574
C52	C	0.125909	-0.187755	0.187893
C53	C	0.055531	-0.216535	0.216577
C54	C	0.032071	-0.245310	0.245258
C55	C	0.055529	-0.274082	0.273934
C56	C	0.102445	-0.274080	0.273927
C57	C	0.102451	-0.158984	0.159217
C58	C	0.055535	-0.158989	0.159226
C59	C	0.032075	-0.187764	0.187906
C60	C	0.649050	-0.333250	0.216527
C61	C	0.649056	-0.383185	0.216533
C62	C	0.677914	-0.692821	0.187866
C63	C	0.677969	-0.880494	0.187883
O64	O	0.702441	-0.904753	0.163493
N65	N	0.649224	-0.903970	0.216583
C66	C	0.620465	-0.880524	0.245283
O67	O	0.596020	-0.904798	0.269698
C68	C	0.620412	-0.692852	0.245268
C69	C	0.649156	-0.669379	0.216563
C70	C	0.706656	-0.669348	0.159164
C71	C	0.706640	-0.622433	0.159158
C72	C	0.677882	-0.598990	0.187854
C73	C	0.649140	-0.622463	0.216557
C74	C	0.591656	-0.669407	0.273969
C75	C	0.591646	-0.622486	0.273964
C76	C	0.620390	-0.599013	0.245259
C77	C	0.620367	-0.552106	0.245248
N78	N	0.649112	-0.528630	0.216548
C79	C	0.677869	-0.552072	0.187851
C80	C	0.620494	-0.979055	0.245289
C81	C	0.620507	-1.025973	0.245292
C82	C	0.678012	-1.025939	0.187893
C83	C	0.677996	-0.979021	0.187887
C84	C	0.649239	-0.955579	0.216589
C85	C	0.677834	-0.453547	0.187841
C86	C	0.677814	-0.406627	0.187836
C87	C	0.620311	-0.406664	0.245237
C88	C	0.620329	-0.453580	0.245240
C89	C	0.649094	-0.477020	0.216540
O90	O	0.595912	-0.527818	0.269629
O91	O	0.702318	-0.527791	0.163447
C92	C	0.677930	-0.739737	0.187872
C93	C	0.649188	-0.763210	0.216574
C94	C	0.620430	-0.739767	0.245271
C95	C	0.649200	-0.810128	0.216578
C96	C	0.677958	-0.833570	0.187881
C97	C	0.706703	-0.810094	0.159181
C98	C	0.706687	-0.763179	0.159175
C99	C	0.591685	-0.763243	0.273971
C100	C	0.591703	-0.810158	0.273974
C101	C	0.620461	-0.833601	0.245277
C102	C	0.766309	-0.216547	0.216582
C103	C	0.816244	-0.216555	0.216596
C104	C	0.649143	-0.216524	0.333728
C105	C	0.649148	-0.216522	0.383662
C106	C	0.649225	-0.099349	0.216582
C107	C	0.649265	-0.049415	0.216595
C108	C	0.649145	-0.216499	0.099827
C109	C	0.649227	-0.216374	0.049893
C110	C	0.677935	-0.187718	0.693325
C111	C	0.677957	-0.187680	0.880998
O112	O	0.702399	-0.163232	0.905279
N113	N	0.649208	-0.216402	0.904448
C114	C	0.620449	-0.245133	0.880976
O115	O	0.595993	-0.269559	0.905228
C116	C	0.620424	-0.245169	0.693304
C117	C	0.649179	-0.216448	0.669857
C118	C	0.706687	-0.158999	0.669877
C119	C	0.706683	-0.159011	0.622962
C120	C	0.677927	-0.187741	0.599494
C121	C	0.649175	-0.216460	0.622941
C122	C	0.591663	-0.273898	0.669833
C123	C	0.591659	-0.273903	0.622912
C124	C	0.620414	-0.245183	0.599465
C125	C	0.620415	-0.245202	0.552558
N126	N	0.649164	-0.216480	0.529108
C127	C	0.677920	-0.187749	0.552576
C128	C	0.620464	-0.245113	0.979507
C129	C	0.620471	-0.245105	1.026425
C130	C	0.677979	-0.187650	1.026443
C131	C	0.677974	-0.187661	0.979524
C132	C	0.649214	-0.216391	0.956057
C133	C	0.677910	-0.187776	0.454050
C134	C	0.677904	-0.187792	0.407130
C135	C	0.620395	-0.245244	0.407116
C136	C	0.620401	-0.245230	0.454032
C137	C	0.649161	-0.216493	0.477497
O138	O	0.595982	-0.269633	0.528248
O139	O	0.702366	-0.163320	0.528316
C140	C	0.677939	-0.187706	0.740240
C141	C	0.649187	-0.216425	0.763688
C142	C	0.620431	-0.245155	0.740219
C143	C	0.649194	-0.216417	0.810605
C144	C	0.677950	-0.187686	0.834074
C145	C	0.706699	-0.158964	0.810624
C146	C	0.706695	-0.158976	0.763708
C147	C	0.591682	-0.273877	0.763669
C148	C	0.591689	-0.273864	0.810585
C149	C	0.620445	-0.245133	0.834053
H150	H	0.177197	-0.135539	0.135854
C151	C	0.699979	-1.040441	0.111851
C152	C	0.709626	-1.051730	0.156365
H153	H	0.719495	-1.056372	0.092395
H154	H	0.704100	-1.009147	0.107727
H155	H	0.669800	-1.048156	0.105242
H156	H	0.739804	-1.044012	0.162975
H157	H	0.705508	-1.083031	0.160492
H158	H	-0.179390	-0.164352	0.164561
H159	H	0.392998	-0.164309	0.164496
H160	H	0.568229	-0.603402	0.297337
H161	H	0.121538	-0.297512	0.297278
C162	C	0.566108	-0.299432	0.550983
C163	C	0.560044	-0.305485	0.597117
H164	H	0.546589	-0.318928	0.535060
H165	H	0.596282	-0.306017	0.543304
H166	H	0.559557	-0.269246	0.543298
H167	H	0.566598	-0.335670	0.604803
H168	H	0.529863	-0.298903	0.604800
H169	H	0.701388	-0.164274	0.960437
H170	H	0.730110	-0.135588	0.744622
C171	C	0.041039	-0.350189	0.295687
C172	C	0.029737	-0.305711	0.305463
H173	H	0.025112	-0.369712	0.315151
H174	H	0.072334	-0.354306	0.299792
H175	H	0.033329	-0.356715	0.265491
H176	H	0.037450	-0.299184	0.335658
H177	H	-0.001565	-0.301591	0.301362
H178	H	0.568248	-0.297285	0.688916
C179	C	0.614062	-0.506325	0.305668
C180	C	0.588732	-0.479387	0.276788
H181	H	0.594556	-0.522257	0.325144
H182	H	0.633611	-0.487993	0.322870
H183	H	0.631191	-0.526999	0.288574
H184	H	0.571605	-0.458710	0.293882
H185	H	0.569175	-0.497721	0.259585
C186	C	0.703509	-0.162122	1.098377
C187	C	0.709582	-0.156063	1.052245
H188	H	0.723015	-0.142618	1.114307
H189	H	0.710069	-0.192302	1.106062
H190	H	0.673326	-0.155549	1.106049
H191	H	0.739765	-0.162640	1.044572
H192	H	0.703026	-0.125877	1.044558
H193	H	0.597097	-1.045080	0.268662
H194	H	0.036441	-0.135556	0.135871
H195	H	0.568292	-0.829266	0.297349
C196	C	0.734659	-0.411314	0.131100
C197	C	0.709413	-0.380826	0.156283
H198	H	0.754169	-0.395386	0.111624
H199	H	0.715103	-0.429639	0.113897
H200	H	0.751833	-0.429590	0.150701
H201	H	0.692237	-0.362553	0.136682
H202	H	0.728972	-0.362494	0.173487
H203	H	0.597076	-0.959972	0.268661
H204	H	0.478121	-0.164309	0.164485
C205	C	0.155179	-0.152649	0.098787
C206	C	0.128234	-0.127354	0.127687
H207	H	0.171097	-0.133121	0.079321
H208	H	0.136854	-0.172196	0.081575
H209	H	0.175866	-0.169779	0.115867
H210	H	0.107544	-0.110226	0.110606
H211	H	0.146560	-0.107799	0.144900
C212	C	-0.118100	-0.130894	0.131214
C213	C	-0.087597	-0.156141	0.156381
H214	H	-0.102184	-0.111367	0.111745
H215	H	-0.136379	-0.113743	0.150822
H216	H	-0.136419	-0.150451	0.114000
H217	H	-0.069279	-0.136584	0.173598
H218	H	-0.069309	-0.173294	0.136771
C219	C	0.738304	-0.506234	0.181671
C220	C	0.709459	-0.479302	0.156297
H221	H	0.757831	-0.522130	0.162196
H222	H	0.721192	-0.526936	0.198754
H223	H	0.755458	-0.487899	0.201265
H224	H	0.692303	-0.497638	0.136705
H225	H	0.726573	-0.458598	0.139205
H226	H	0.596984	-0.268637	0.388000
C227	C	0.763487	-0.627127	0.102430
C228	C	0.738243	-0.596635	0.127611
H229	H	0.783002	-0.611202	0.082957
H230	H	0.743930	-0.645448	0.085225
H231	H	0.780655	-0.645406	0.122033
H232	H	0.721072	-0.578358	0.108008
H233	H	0.757802	-0.578306	0.144817
C234	C	0.767144	-0.722013	0.153021
C235	C	0.738301	-0.695092	0.127633
H236	H	0.786691	-0.737896	0.133557
H237	H	0.750032	-0.742726	0.170091
H238	H	0.784277	-0.703671	0.172629
H239	H	0.721166	-0.713434	0.108027
H240	H	0.755415	-0.674377	0.110555
H241	H	0.262285	-0.297506	0.297258
H242	H	0.478110	-0.268721	0.268545
H243	H	0.701321	-0.164403	0.388042
C244	C	0.531233	-0.722217	0.280169
C245	C	0.560063	-0.695201	0.305527
H246	H	0.511727	-0.738138	0.299654
H247	H	0.548357	-0.742896	0.263084
H248	H	0.514056	-0.703935	0.260577
H249	H	0.577243	-0.713484	0.325117
H250	H	0.542937	-0.674520	0.322620
H251	H	0.730115	-0.135573	0.829740
C252	C	0.734759	-0.130991	0.449343
C253	C	0.709525	-0.156191	0.479839
H254	H	0.754279	-0.111495	0.465265
H255	H	0.715196	-0.113808	0.431041
H256	H	0.751920	-0.150580	0.431045
H257	H	0.692361	-0.136602	0.498135
H258	H	0.729090	-0.173375	0.498148
C259	C	0.563624	-0.301893	1.021682
C260	C	0.588865	-0.276678	1.052195
H261	H	0.544109	-0.321382	1.037591
H262	H	0.583183	-0.319083	1.003387
H263	H	0.546457	-0.282313	1.003379
H264	H	0.606036	-0.296258	1.070496
H265	H	0.569305	-0.259487	1.070497
C266	C	0.684270	-0.926279	0.127456
C267	C	0.709594	-0.953221	0.156336
H268	H	0.703779	-0.910356	0.107975
H269	H	0.667149	-0.905601	0.144545
H270	H	0.664713	-0.944610	0.110254
H271	H	0.729149	-0.934890	0.173540
H272	H	0.726723	-0.973902	0.139244
H273	H	0.730104	-0.135601	0.688980
H274	H	0.596895	-0.387570	0.268600
C275	C	0.767164	-0.862789	0.153034
C276	C	0.738329	-0.835861	0.127645
H277	H	0.786694	-0.878693	0.133569
H278	H	0.750045	-0.883484	0.170119
H279	H	0.784315	-0.844451	0.172628
H280	H	0.721175	-0.854199	0.108053
H281	H	0.755450	-0.815163	0.110552
H282	H	0.730093	-0.744071	0.135801
C283	C	0.614160	-0.305558	0.926741
C284	C	0.588850	-0.276698	0.953716
H285	H	0.594642	-0.325056	0.910819
H286	H	0.633721	-0.322737	0.945047
H287	H	0.631275	-0.288451	0.906058
H288	H	0.571737	-0.293805	0.974401
H289	H	0.569280	-0.259517	0.935408
H290	H	0.596991	-0.268621	0.473123
C291	C	0.763521	-0.102216	0.627708
C292	C	0.738286	-0.127434	0.597193
H293	H	0.783029	-0.082718	0.611800
H294	H	0.780692	-0.121789	0.646007
H295	H	0.743955	-0.085030	0.646006
H296	H	0.757852	-0.144622	0.578896
H297	H	0.721114	-0.107858	0.578886
H298	H	-0.179407	-0.268759	0.268628
H299	H	0.568268	-0.744160	0.297340
H300	H	0.568274	-0.297256	0.829671
H301	H	0.568265	-0.297274	0.744566
C302	C	0.359368	-0.251634	0.305641
C303	C	0.386314	-0.276924	0.276737
H304	H	0.343455	-0.271165	0.325107
H305	H	0.338682	-0.234504	0.288567
H306	H	0.377696	-0.232086	0.322856
H307	H	0.367986	-0.296469	0.259519
H308	H	0.407003	-0.294061	0.293813
C309	C	0.200999	-0.330964	0.330601
C310	C	0.170494	-0.305713	0.305440
H311	H	0.185084	-0.350500	0.350061
H312	H	0.219314	-0.311413	0.347820
H313	H	0.219283	-0.348110	0.310986
H314	H	0.152213	-0.288564	0.325055
H315	H	0.152171	-0.325266	0.288220
H316	H	-0.094285	-0.268759	0.268619
H317	H	0.262305	-0.135529	0.135852
