data_functionalizedCrystal
_audit_creation_method	'MofGen! by Chris Wilmer'
_symmetry_space_group_name_H-M	'P1'
_symmetry_Int_Tables_number	1
_symmetry_cell_setting	triclinic
loop_
_symmetry_equiv_pos_as_xyz
  x,y,z
_cell_length_a	12.759401
_cell_length_b	18.050589
_cell_length_c	12.759393
_cell_angle_alpha	89.969175
_cell_angle_beta	89.982620
_cell_angle_gamma	90.028382
loop_
_atom_site_label
_atom_site_type_symbol
_atom_site_fract_x
_atom_site_fract_y
_atom_site_fract_z
Zn1	Zn	1.606145	-0.295611	-0.593988
Zn2	Zn	1.606001	-0.419822	-0.418311
Zn3	Zn	1.430450	-0.295650	-0.418328
Zn4	Zn	1.430394	-0.419764	-0.593953
O5	O	1.518248	-0.357712	-0.506145
O6	O	1.753147	-0.312095	-0.570692
O7	O	1.582678	-0.403391	-0.271292
O8	O	1.453840	-0.191720	-0.441651
O9	O	1.753041	-0.403352	-0.441623
O10	O	1.582923	-0.191692	-0.570708
O11	O	1.453701	-0.312162	-0.271304
O12	O	1.283422	-0.312107	-0.441617
O13	O	1.453745	-0.403254	-0.740979
O14	O	1.283381	-0.403292	-0.570648
O15	O	1.582868	-0.312040	-0.741005
O16	O	1.582623	-0.523739	-0.441589
O17	O	1.453605	-0.523696	-0.570632
C18	C	1.245280	-0.357698	-0.506131
C19	C	1.128504	-0.357710	-0.506149
C20	C	1.073648	-0.405267	-0.573225
C21	C	0.963924	-0.405276	-0.573236
C22	C	0.963921	-0.310170	-0.439088
C23	C	1.073644	-0.310158	-0.439083
C24	C	1.073648	-0.460177	-0.650671
C25	C	0.963924	-0.460187	-0.650683
C26	C	1.518121	-0.550664	-0.506127
C27	C	1.518163	-0.633210	-0.506155
C28	C	1.448072	-0.832664	-0.576304
C29	C	1.422460	-0.882113	-0.480436
C30	C	1.518266	-0.784340	-0.506169
C31	C	1.543930	-0.881973	-0.602048
C32	C	1.518364	-0.930325	-0.506191
C33	C	1.492603	-0.832702	-0.410250
C34	C	1.614118	-0.832557	-0.531927
C35	C	1.588542	-0.881984	-0.435992
C36	C	1.518207	-0.700242	-0.506158
C37	C	1.518423	-1.014422	-0.506191
C38	C	1.792281	-0.357726	-0.506160
C39	C	1.909058	-0.357732	-0.506166
C40	C	1.518316	-0.357636	-0.780178
C41	C	1.518345	-0.357604	-0.896955
C42	C	1.518404	-0.164006	-0.506185
C43	C	1.518470	-0.081460	-0.506203
C44	C	1.451216	-0.310093	-0.951829
C45	C	1.451247	-0.310071	-1.061554
C46	C	1.585547	-0.405073	-1.061519
C47	C	1.585510	-0.405098	-0.951797
C48	C	1.373682	-0.255241	-0.951850
C49	C	1.373713	-0.255219	-1.061574
C50	C	1.518240	-0.357733	-0.233178
C51	C	1.518415	-0.357556	-0.116401
H52	H	1.107645	-0.514785	-0.621388
C53	C	0.904167	-0.258633	-0.366305
C54	C	0.796335	-0.268834	-0.380645
C55	C	0.741259	-0.221379	-0.313600
H56	H	0.922050	-0.208714	-0.381728
H57	H	0.922058	-0.269453	-0.295665
H58	H	0.778450	-0.258009	-0.451269
H59	H	0.778420	-0.318743	-0.365214
H60	H	0.759151	-0.232199	-0.242961
H61	H	0.759151	-0.171464	-0.329029
H62	H	0.668090	-0.228299	-0.323314
C63	C	1.412406	-0.182401	-0.906341
C64	C	1.333385	-0.150902	-0.844633
C65	C	1.369025	-0.083807	-0.802683
H66	H	1.429969	-0.149442	-0.961694
H67	H	1.472617	-0.191217	-0.864371
H68	H	1.273192	-0.142083	-0.886601
H69	H	1.315813	-0.183840	-0.789264
H70	H	1.429236	-0.092623	-0.760713
H71	H	1.386587	-0.050854	-0.858042
H72	H	1.315419	-0.062430	-0.760802
C73	C	1.658212	-0.456781	-0.892166
C74	C	1.598655	-0.504401	-0.829185
C75	C	1.665593	-0.552031	-0.774250
H76	H	1.704024	-0.428477	-0.849283
H77	H	1.698196	-0.485103	-0.940514
H78	H	1.558688	-0.476082	-0.780842
H79	H	1.552845	-0.532721	-0.872042
H80	H	1.705578	-0.580353	-0.822598
H81	H	1.711403	-0.523721	-0.731373
H82	H	1.625193	-0.584351	-0.731518
H83	H	1.470842	-0.811148	-0.329152
C84	C	1.667884	-0.910730	-0.357003
C85	C	1.743458	-0.953310	-0.408923
C86	C	1.816564	-0.979798	-0.336191
H87	H	1.633167	-0.940456	-0.306275
H88	H	1.700943	-0.870082	-0.323185
H89	H	1.710402	-0.993952	-0.442723
H90	H	1.778202	-0.923600	-0.459645
H91	H	1.849624	-0.939150	-0.302374
H92	H	1.781838	-1.009521	-0.285468
H93	H	1.867855	-1.008686	-0.371410
C94	C	1.270741	-0.282815	-1.107005
C95	C	1.289407	-0.345585	-1.168655
C96	C	1.194579	-0.371039	-1.210508
H97	H	1.240286	-0.245070	-1.148998
H98	H	1.224211	-0.295262	-1.051574
H99	H	1.335920	-0.333135	-1.224077
H100	H	1.319847	-0.383345	-1.126685
H101	H	1.148048	-0.383486	-1.155077
H102	H	1.164130	-0.333290	-1.252496
H103	H	1.207229	-0.413635	-1.252334
C104	C	1.265252	-0.275888	-0.911986
C105	C	1.272002	-0.340227	-0.851025
C106	C	1.172145	-0.359264	-0.814273
H107	H	1.219967	-0.284491	-0.969793
H108	H	1.238226	-0.236556	-0.870581
H109	H	1.299013	-0.379550	-0.892428
H110	H	1.317267	-0.331642	-0.793203
H111	H	1.145119	-0.319931	-0.772868
H112	H	1.126868	-0.367863	-0.872086
H113	H	1.176713	-0.402915	-0.772899
H114	H	1.395550	-0.197693	-1.091370
H115	H	1.695113	-0.810775	-0.553739
H116	H	1.341446	-0.903897	-0.458669
H117	H	1.565598	-0.903616	-0.683124
C118	C	1.658603	-0.456508	-1.121119
C119	C	1.726016	-0.414449	-1.184103
C120	C	1.793341	-0.461804	-1.239007
H121	H	1.618524	-0.488870	-1.163998
H122	H	1.698640	-0.484794	-1.072752
H123	H	1.685983	-0.386176	-1.232464
H124	H	1.766118	-0.382088	-1.141250
H125	H	1.833379	-0.490090	-1.190640
H126	H	1.753254	-0.494164	-1.281879
H127	H	1.839095	-0.433274	-1.281740
C128	C	1.133013	-0.258488	-0.366155
C129	C	1.061481	-0.216862	-0.307407
C130	C	1.116134	-0.169259	-0.240205
H131	H	1.175846	-0.226096	-0.406313
H132	H	1.175766	-0.286830	-0.320244
H133	H	1.018746	-0.188521	-0.353312
H134	H	1.018646	-0.249233	-0.267227
H135	H	1.158887	-0.197601	-0.194294
H136	H	1.158965	-0.136872	-0.280372
H137	H	1.067608	-0.141015	-0.200330
C138	C	0.924365	-0.536896	-0.621366
C139	C	1.009860	-0.583809	-0.603421
C140	C	0.973459	-0.654472	-0.576401
H141	H	0.883043	-0.556154	-0.676959
H142	H	0.883010	-0.533750	-0.559598
H143	H	1.051197	-0.586957	-0.665182
H144	H	1.051191	-0.564574	-0.547824
H145	H	0.932105	-0.651327	-0.514633
H146	H	0.932137	-0.673723	-0.631998
H147	H	1.031462	-0.686309	-0.564213
C148	C	0.918789	-0.432825	-0.753912
C149	C	1.000733	-0.414682	-0.822287
C150	C	0.959193	-0.389479	-0.917390
H151	H	0.876920	-0.390198	-0.741676
H152	H	0.876906	-0.470672	-0.784289
H153	H	1.042599	-0.376837	-0.791915
H154	H	1.042609	-0.457297	-0.834552
H155	H	0.917309	-0.427327	-0.947767
H156	H	0.917325	-0.346854	-0.905144
H157	H	1.014785	-0.377172	-0.963797
C158	C	1.368980	-0.803740	-0.655417
C159	C	1.420836	-0.761036	-0.731001
C160	C	1.348013	-0.734388	-0.803897
H161	H	1.318387	-0.774062	-0.620529
H162	H	1.335008	-0.844315	-0.688499
H163	H	1.454792	-0.720467	-0.697922
H164	H	1.471424	-0.790699	-0.765915
H165	H	1.314040	-0.774963	-0.836980
H166	H	1.297423	-0.704712	-0.769000
H167	H	1.383188	-0.705416	-0.855195
H168	H	1.103460	-0.444839	-0.732077
