data_functionalizedCrystal
_audit_creation_method	'MofGen! by Chris Wilmer'
_symmetry_space_group_name_H-M	'P1'
_symmetry_Int_Tables_number	1
_symmetry_cell_setting	triclinic
loop_
_symmetry_equiv_pos_as_xyz
  x,y,z
_cell_length_a	15.995350
_cell_length_b	10.540539
_cell_length_c	9.616153
_cell_angle_alpha	89.999906
_cell_angle_beta	89.996782
_cell_angle_gamma	84.008933
loop_
_atom_site_label
_atom_site_type_symbol
_atom_site_fract_x
_atom_site_fract_y
_atom_site_fract_z
O1	O	1.111967	0.163613	-0.115521
O2	O	0.868313	0.183817	-0.115549
O3	O	0.995699	-0.011068	-0.115533
O4	O	0.984581	0.358498	-0.115537
O5	O	0.995681	-0.011064	0.115759
O6	O	0.868295	0.183822	0.115742
O7	O	1.111950	0.163617	0.115770
Zn8	Zn	0.990120	0.173720	0.152479
Zn9	Zn	0.990143	0.173714	-0.152258
O10	O	0.984563	0.358502	0.115754
C11	C	0.994856	-0.058357	0.000110
C12	C	0.992362	-0.199271	0.000103
C13	C	0.837104	0.182984	0.000093
C14	C	0.744139	0.180480	0.000082
C15	C	0.896779	-0.381384	-0.000427
C16	C	0.899307	-0.234801	0.000094
C17	C	1.037134	-0.261542	0.132187
C18	C	1.033958	-0.408043	0.132297
C19	C	1.035871	-0.408592	-0.130724
C20	C	1.036728	-0.261622	-0.132470
C21	C	0.406337	0.171487	0.000111
C22	C	0.452942	0.032693	0.000629
C23	C	0.549647	0.035198	0.000098
C24	C	0.573925	0.175948	0.000098
C25	C	0.533257	0.244403	-0.131976
C26	C	0.436600	0.240916	-0.132077
C27	C	0.436259	0.243789	0.130944
C28	C	0.533204	0.243756	0.132680
C29	C	0.668637	0.178476	0.000085
C30	C	0.311625	0.168962	0.000114
C31	C	1.143158	0.164450	0.000125
C32	C	1.236123	0.166954	0.000127
C33	C	0.985406	0.405792	0.000108
C34	C	0.987900	0.546705	0.000107
N35	N	0.990110	0.173723	0.360453
N36	N	0.990159	0.173701	-0.360232
C37	C	0.921759	0.277630	0.580815
C38	C	0.921909	0.278013	0.419647
C39	C	1.077651	0.202653	0.418913
C40	C	1.077278	0.203387	0.580130
C41	C	0.971792	0.040536	0.580364
C42	C	0.969783	0.041429	0.419137
H43	H	0.864077	-0.191715	-0.094590
Br44	Br	0.596487	-0.054490	0.157898
H45	H	1.094072	0.298665	0.378523
H46	H	0.415444	0.198416	0.231054
H47	H	0.933411	0.375893	0.621314
Br48	Br	1.147896	-0.488843	-0.132195
H49	H	0.860027	-0.409481	-0.095147
H50	H	1.005761	-0.439733	-0.230835
Br51	Br	0.383862	0.410750	-0.142067
Br52	Br	0.557854	0.416740	-0.140201
Br53	Br	0.559828	0.414836	0.145978
H54	H	0.560214	0.193784	0.230388
Br55	Br	0.941547	0.442741	0.355332
Br56	Br	0.421502	-0.059777	0.158498
H57	H	0.909306	0.012715	0.621094
Br58	Br	1.047323	-0.093516	0.352009
H59	H	1.129793	0.128973	0.380567
Br60	Br	0.419741	-0.059367	-0.156351
H61	H	0.405109	0.346120	0.131837
Br62	Br	0.813481	0.249372	0.353766
H63	H	0.860162	-0.411087	0.093754
Br64	Br	0.862444	0.004829	0.355462
H65	H	1.021664	-0.036804	0.618486
H66	H	0.863816	-0.192555	0.094927
H67	H	0.561354	0.196853	-0.230268
H68	H	1.000854	-0.435785	0.231025
H69	H	1.104572	-0.238333	-0.140438
Br70	Br	1.151034	-0.225857	0.140393
Br71	Br	1.145496	-0.489534	0.142315
H72	H	0.856510	0.260674	0.619618
Br73	Br	0.595526	-0.054697	-0.158252
H74	H	0.418001	0.190992	-0.230806
Br75	Br	0.985276	-0.189830	0.296008
H76	H	1.093342	0.300504	0.617719
Br77	Br	0.982594	-0.191956	-0.295359
H78	H	1.129808	0.130676	0.619125
