data_functionalizedCrystal
_audit_creation_method	'MofGen! by Chris Wilmer'
_symmetry_space_group_name_H-M	'P1'
_symmetry_Int_Tables_number	1
_symmetry_cell_setting	triclinic
loop_
_symmetry_equiv_pos_as_xyz
  x,y,z
_cell_length_a	16.625545
_cell_length_b	21.395364
_cell_length_c	21.395356
_cell_angle_alpha	90.024640
_cell_angle_beta	89.974643
_cell_angle_gamma	89.976941
loop_
_atom_site_label
_atom_site_type_symbol
_atom_site_fract_x
_atom_site_fract_y
_atom_site_fract_z
Zn1	Zn	-0.321076	-0.957876	-0.354289
Zn2	Zn	0.178924	-0.457876	0.145711
Zn3	Zn	-0.455912	-0.957789	-0.249516
Zn4	Zn	0.044088	-0.457789	0.250484
Zn5	Zn	-0.321092	-0.853092	-0.249524
Zn6	Zn	0.178908	-0.353092	0.250476
Zn7	Zn	-0.455864	-0.853069	-0.354254
Zn8	Zn	0.044136	-0.353069	0.145746
O9	O	-0.388486	-0.905457	-0.301896
O10	O	0.111514	-0.405457	0.198104
O11	O	-0.338976	-1.045542	-0.340402
O12	O	0.161024	-0.545542	0.159598
O13	O	-0.438055	-0.943874	-0.161839
O14	O	0.061945	-0.443874	0.338161
O15	O	-0.208257	-0.867038	-0.263439
O16	O	0.291743	-0.367038	0.236561
O17	O	-0.438040	-1.045479	-0.263426
O18	O	0.061960	-0.545479	0.236574
O19	O	-0.208246	-0.944022	-0.340410
O20	O	0.291754	-0.444022	0.159590
O21	O	-0.339003	-0.866954	-0.161845
O22	O	0.160997	-0.366954	0.338155
O23	O	-0.338956	-0.765411	-0.263405
O24	O	0.161044	-0.265411	0.236595
O25	O	-0.437957	-0.866998	-0.441937
O26	O	0.062043	-0.366998	0.058063
O27	O	-0.437973	-0.765394	-0.340350
O28	O	0.062027	-0.265394	0.159650
O29	O	-0.338929	-0.943999	-0.441962
O30	O	0.161071	-0.443999	0.058038
O31	O	-0.568738	-0.943852	-0.263392
O32	O	-0.068738	-0.443852	0.236608
O33	O	-0.568703	-0.866915	-0.340342
O34	O	-0.068703	-0.366915	0.159658
C35	C	-0.388461	-0.742669	-0.301875
C36	C	0.111539	-0.242669	0.198125
C37	C	-0.388470	-0.673028	-0.301881
C38	C	0.111530	-0.173028	0.198119
C39	C	-0.440125	-0.171239	-0.341911
C40	C	0.059875	0.328761	0.158089
C41	C	-0.440126	-0.236674	-0.341905
C42	C	0.059874	0.263326	0.158095
C43	C	-0.388492	-0.269389	-0.301906
C44	C	0.111508	0.230611	0.198094
C45	C	-0.336867	-0.236663	-0.261898
C46	C	0.163133	0.263337	0.238102
C47	C	-0.336873	-0.171229	-0.261900
C48	C	0.163127	0.328771	0.238100
C49	C	-0.315830	-0.373073	-0.297054
C50	C	0.184170	0.126927	0.202946
C51	C	-0.315823	-0.438506	-0.297056
C52	C	0.184177	0.061494	0.202944
C53	C	-0.388474	-0.471210	-0.301895
C54	C	0.111526	0.028790	0.198105
C55	C	-0.461135	-0.438473	-0.306745
C56	C	0.038865	0.061527	0.193255
C57	C	-0.461141	-0.373039	-0.306748
C58	C	0.038859	0.126961	0.193252
C59	C	-0.388480	-0.340342	-0.301899
C60	C	0.111520	0.159658	0.198101
C61	C	-0.440102	-0.574881	-0.341892
C62	C	0.059898	-0.074881	0.158108
C63	C	-0.440104	-0.640317	-0.341882
C64	C	0.059896	-0.140317	0.158118
C65	C	-0.336838	-0.640305	-0.261877
C66	C	0.163162	-0.140305	0.238123
C67	C	-0.336842	-0.574870	-0.261884
C68	C	0.163158	-0.074870	0.238116
C69	C	-0.388473	-0.542161	-0.301895
C70	C	0.111527	-0.042161	0.198105
C71	C	-0.597977	-0.905388	-0.301876
C72	C	-0.097977	-0.405388	0.198124
C73	C	-0.687598	-0.905417	-0.301889
C74	C	-0.187598	-0.405417	0.198111
C75	C	-0.760380	-0.905441	-0.301901
C76	C	-0.260380	-0.405441	0.198099
C77	C	-0.851689	-0.905477	-0.301915
C78	C	-0.351689	-0.405477	0.198085
C79	C	-0.924465	-0.905510	-0.301923
C80	C	-0.424465	-0.405510	0.198077
C81	C	-1.015780	-0.905546	-0.301936
C82	C	-0.515780	-0.405546	0.198064
C83	C	-0.178177	-0.905542	-0.301929
C84	C	0.321823	-0.405542	0.198071
C85	C	-0.088556	-0.905578	-0.301944
C86	C	0.411444	-0.405578	0.198056
C87	C	-0.388436	-0.905506	-0.465319
C88	C	0.111564	-0.405506	0.034681
C89	C	-0.388415	-0.905527	-0.534960
C90	C	0.111585	-0.405527	-0.034960
C91	C	-0.388507	-0.068880	-0.301913
C92	C	0.111493	0.431120	0.198087
C93	C	-0.388503	-0.138521	-0.301910
C94	C	0.111497	0.361479	0.198090
C95	C	-0.336832	-0.865485	-0.567667
C96	C	0.163168	-0.365485	-0.067667
C97	C	-0.336818	-0.865483	-0.633102
C98	C	0.163182	-0.365483	-0.133102
C99	C	-0.388376	-0.905534	-0.665829
C100	C	0.111624	-0.405534	-0.165829
C101	C	-0.439969	-0.945578	-0.633115
C102	C	0.060031	-0.445578	-0.133115
C103	C	-0.439988	-0.945575	-0.567680
C104	C	0.060012	-0.445575	-0.067680
C105	C	-0.394719	-0.961986	-0.769516
C106	C	0.105281	-0.461986	-0.269516
C107	C	-0.394694	-0.961991	-0.834949
C108	C	0.105306	-0.461991	-0.334949
C109	C	-0.388322	-0.905544	-0.867650
C110	C	0.111678	-0.405544	-0.367650
C111	C	-0.381958	-0.849091	-0.834909
C112	C	0.118042	-0.349091	-0.334909
C113	C	-0.381977	-0.849088	-0.769475
C114	C	0.118023	-0.349088	-0.269475
C115	C	-0.388362	-0.905542	-0.736781
C116	C	0.111638	-0.405542	-0.236781
C117	C	-0.336721	-0.865497	-0.971309
C118	C	0.163279	-0.365497	-0.471309
C119	C	-0.336711	-0.865493	-1.036745
C120	C	0.163289	-0.365493	-0.536745
C121	C	-0.439858	-0.945594	-1.036756
C122	C	0.060142	-0.445594	-0.536756
C123	C	-0.439872	-0.945592	-0.971321
C124	C	0.060128	-0.445592	-0.471321
C125	C	-0.388299	-0.905544	-0.938601
C126	C	0.111701	-0.405544	-0.438601
C127	C	-0.388478	-0.905444	-0.139108
C128	C	0.111522	-0.405444	0.360892
C129	C	-0.388272	-0.905544	-0.069467
C130	C	0.111728	-0.405544	0.430533
H131	H	-0.482144	-0.548248	-0.374470
H132	H	0.017856	-0.048248	0.125530
N133	N	-0.495808	-0.271972	-0.385050
N134	N	0.004192	0.228028	0.114950
H135	H	-0.483354	-0.260611	-0.429834
H136	H	0.016646	0.239389	0.070166
H137	H	-0.487941	-0.318376	-0.378923
H138	H	0.012059	0.181624	0.121077
N139	N	-0.401598	-1.022867	-0.734243
N140	N	0.098402	-0.522867	-0.234243
H141	H	-0.453781	-1.044166	-0.745629
H142	H	0.046219	-0.544166	-0.245629
H143	H	-0.354938	-1.050882	-0.745657
H144	H	0.145062	-0.550882	-0.245657
H145	H	-0.376797	-0.803122	-0.742820
H146	H	0.123203	-0.303122	-0.242820
N147	N	-0.281182	-0.822293	-0.668389
N148	N	0.218818	-0.322293	-0.168389
H149	H	-0.248515	-0.796922	-0.637732
H150	H	0.251485	-0.296922	-0.137732
H151	H	-0.243868	-0.847819	-0.695553
H152	H	0.256132	-0.347819	-0.195553
N153	N	-0.281134	-0.675583	-0.218744
N154	N	0.218866	-0.175583	0.281256
H155	H	-0.248426	-0.644924	-0.193407
H156	H	0.251574	-0.144924	0.306593
H157	H	-0.313897	-0.702713	-0.189701
H158	H	0.186103	-0.202713	0.310299
N159	N	-0.495586	-0.988771	-0.668408
N160	N	0.004414	-0.488771	-0.168408
H161	H	-0.487747	-0.982698	-0.714824
H162	H	0.012253	-0.482698	-0.214824
H163	H	-0.483053	-1.033525	-0.656990
H164	H	0.016947	-0.533525	-0.156990
H165	H	-0.376764	-0.803127	-0.861532
H166	H	0.123236	-0.303127	-0.361532
N167	N	-0.281162	-0.539576	-0.218742
N168	N	0.218838	-0.039576	0.281258
H169	H	-0.248451	-0.570228	-0.193401
H170	H	0.251549	-0.070228	0.306599
H171	H	-0.243892	-0.512448	-0.244297
H172	H	0.256108	-0.012448	0.255703
N173	N	-0.495495	-0.988786	-0.936035
N174	N	0.004505	-0.488786	-0.436035
H175	H	-0.532863	-0.963306	-0.908870
H176	H	-0.032863	-0.463306	-0.408870
H177	H	-0.528104	-1.014153	-0.966730
H178	H	-0.028104	-0.514153	-0.466730
N179	N	-0.281188	-0.135938	-0.218756
N180	N	0.218812	0.364062	0.281244
H181	H	-0.289027	-0.089522	-0.224828
H182	H	0.210973	0.410478	0.275172
H183	H	-0.293670	-0.147351	-0.173992
H184	H	0.206330	0.352649	0.326008
N185	N	-0.281103	-0.822303	-0.936012
N186	N	0.218897	-0.322303	-0.436012
H187	H	-0.248427	-0.796931	-0.966663
H188	H	0.251573	-0.296931	-0.466663
H189	H	-0.313927	-0.793294	-0.908844
H190	H	0.186073	-0.293294	-0.408844
H191	H	-0.399872	-1.007958	-0.861602
H192	H	0.100128	-0.507958	-0.361602
N193	N	-0.281080	-0.822299	-1.072025
N194	N	0.218920	-0.322299	-0.572025
H195	H	-0.248413	-0.796930	-1.041365
H196	H	0.251587	-0.296930	-0.541365
H197	H	-0.243766	-0.847820	-1.099193
H198	H	0.256234	-0.347820	-0.599193
H199	H	-0.481992	-0.978184	-0.541051
H200	H	0.018008	-0.478184	-0.041051
H201	H	-0.482170	-0.144612	-0.374489
H202	H	0.017830	0.355388	0.125511
H203	H	-0.256665	-0.346451	-0.293103
H204	H	0.243335	0.153549	0.206897
N205	N	-0.539504	-0.337728	-0.311973
N206	N	-0.039504	0.162272	0.188027
H207	H	-0.585531	-0.368370	-0.315037
H208	H	-0.085531	0.131630	0.184963
H209	H	-0.546924	-0.310562	-0.273786
H210	H	-0.046924	0.189438	0.226214
N211	N	-0.281171	-0.271940	-0.218753
N212	N	0.218829	0.228060	0.281247
H213	H	-0.313887	-0.299068	-0.189674
H214	H	0.186113	0.200932	0.310326
H215	H	-0.243852	-0.299071	-0.244308
H216	H	0.256148	0.200929	0.255692
H217	H	-0.520295	-0.465099	-0.310691
H218	H	-0.020295	0.034901	0.189309
N219	N	-0.495792	-0.675610	-0.385022
N220	N	0.004208	-0.175610	0.114978
H221	H	-0.528497	-0.644957	-0.410367
H222	H	-0.028497	-0.144957	0.089633
H223	H	-0.463016	-0.702784	-0.414057
H224	H	0.036984	-0.202784	0.085943
N225	N	-0.237459	-0.473814	-0.291822
N226	N	0.262541	0.026186	0.208178
H227	H	-0.229950	-0.500980	-0.330001
H228	H	0.270050	-0.000980	0.169999
H229	H	-0.191484	-0.443129	-0.288728
H230	H	0.308516	0.056871	0.211272
N231	N	-0.281201	-0.822300	-0.532376
N232	N	0.218799	-0.322300	-0.032376
H233	H	-0.248518	-0.796935	-0.563029
H234	H	0.251482	-0.296935	-0.063029
H235	H	-0.314013	-0.793284	-0.505206
H236	H	0.185987	-0.293284	-0.005206
N237	N	-0.495477	-0.988788	-1.072044
N238	N	0.004523	-0.488788	-0.572044
H239	H	-0.487640	-0.982714	-1.118460
H240	H	0.012360	-0.482714	-0.618460
H241	H	-0.482939	-1.033541	-1.060628
H242	H	0.017061	-0.533541	-0.560628
