data_functionalizedCrystal
_audit_creation_method	'MofGen! by Chris Wilmer'
_symmetry_space_group_name_H-M	'P1'
_symmetry_Int_Tables_number	1
_symmetry_cell_setting	triclinic
loop_
_symmetry_equiv_pos_as_xyz
  x,y,z
_cell_length_a	18.215407
_cell_length_b	12.645330
_cell_length_c	18.215398
_cell_angle_alpha	89.979496
_cell_angle_beta	89.983470
_cell_angle_gamma	90.015151
loop_
_atom_site_label
_atom_site_type_symbol
_atom_site_fract_x
_atom_site_fract_y
_atom_site_fract_z
Zn1	Zn	1.125106	-0.422149	-0.416083
Zn2	Zn	1.375106	-0.172149	-0.166083
Zn3	Zn	1.625106	0.077851	0.083917
Zn4	Zn	1.875106	0.327851	0.333917
Zn5	Zn	1.125031	-0.599423	-0.293028
Zn6	Zn	1.375031	-0.349423	-0.043028
Zn7	Zn	1.625031	-0.099423	0.206972
Zn8	Zn	1.875031	0.150577	0.456972
Zn9	Zn	1.002039	-0.422166	-0.293037
Zn10	Zn	1.252039	-0.172166	-0.043037
Zn11	Zn	1.502039	0.077834	0.206963
Zn12	Zn	1.752039	0.327834	0.456963
Zn13	Zn	1.002020	-0.599363	-0.416059
Zn14	Zn	1.252020	-0.349363	-0.166059
Zn15	Zn	1.502020	-0.099363	0.083941
Zn16	Zn	1.752020	0.150637	0.333941
O17	O	1.063549	-0.510775	-0.354552
O18	O	1.313549	-0.260775	-0.104552
O19	O	1.563549	-0.010775	0.145448
O20	O	1.813549	0.239225	0.395448
O21	O	1.228080	-0.445682	-0.399766
O22	O	1.478080	-0.195682	-0.149766
O23	O	1.728080	0.054318	0.100234
O24	O	1.978080	0.304318	0.350234
O25	O	1.108692	-0.575942	-0.190045
O26	O	1.358692	-0.325942	0.059955
O27	O	1.608692	-0.075942	0.309955
O28	O	1.858692	0.174058	0.559955
O29	O	1.018404	-0.273817	-0.309374
O30	O	1.268404	-0.023817	-0.059374
O31	O	1.518404	0.226183	0.190626
O32	O	1.768404	0.476183	0.440626
O33	O	1.228025	-0.575925	-0.309358
O34	O	1.478025	-0.325925	-0.059358
O35	O	1.728025	-0.075925	0.190642
O36	O	1.978025	0.174075	0.440642
O37	O	1.108821	-0.273804	-0.399775
O38	O	1.358821	-0.023804	-0.149775
O39	O	1.608821	0.226196	0.100225
O40	O	1.858821	0.476196	0.350225
O41	O	1.018331	-0.445712	-0.190052
O42	O	1.268331	-0.195712	0.059948
O43	O	1.518331	0.054288	0.309948
O44	O	1.768331	0.304288	0.559948
O45	O	0.899053	-0.445654	-0.309350
O46	O	1.149053	-0.195654	-0.059350
O47	O	1.399053	0.054346	0.190650
O48	O	1.649053	0.304346	0.440650
O49	O	1.018371	-0.575822	-0.519046
O50	O	1.268371	-0.325822	-0.269046
O51	O	1.518371	-0.075822	-0.019046
O52	O	1.768371	0.174178	0.230954
O53	O	0.899038	-0.575839	-0.399733
O54	O	1.149038	-0.325839	-0.149733
O55	O	1.399038	-0.075839	0.100267
O56	O	1.649038	0.174161	0.350267
O57	O	1.108802	-0.445624	-0.519064
O58	O	1.358802	-0.195624	-0.269064
O59	O	1.608802	0.054376	-0.019064
O60	O	1.858802	0.304376	0.230936
O61	O	1.108673	-0.747762	-0.309334
O62	O	1.358673	-0.497762	-0.059334
O63	O	1.608673	-0.247762	0.190666
O64	O	1.858673	0.002238	0.440666
O65	O	1.018298	-0.747718	-0.399724
O66	O	1.268298	-0.497718	-0.149724
O67	O	1.518298	-0.247718	0.100276
O68	O	1.768298	0.002282	0.350276
C69	C	0.872343	-0.510743	-0.354540
C70	C	1.122343	-0.260743	-0.104540
C71	C	1.372343	-0.010743	0.145460
C72	C	1.622343	0.239257	0.395460
C73	C	0.790544	-0.510754	-0.354553
C74	C	1.040544	-0.260754	-0.104553
C75	C	1.290544	-0.010754	0.145447
C76	C	1.540544	0.239246	0.395447
C77	C	0.525498	-0.578674	-0.401550
C78	C	0.775498	-0.328674	-0.151550
C79	C	1.025498	-0.078674	0.098450
C80	C	1.275498	0.171326	0.348450
C81	C	0.602357	-0.578665	-0.401546
C82	C	0.852357	-0.328665	-0.151546
C83	C	1.102357	-0.078665	0.098454
C84	C	1.352357	0.171335	0.348454
C85	C	0.602341	-0.442900	-0.307567
C86	C	0.852341	-0.192900	-0.057567
C87	C	1.102341	0.057100	0.192433
C88	C	1.352341	0.307100	0.442433
C89	C	0.525484	-0.442915	-0.307567
C90	C	0.775484	-0.192915	-0.057567
C91	C	1.025484	0.057085	0.192433
C92	C	1.275484	0.307085	0.442433
C93	C	0.487064	-0.510801	-0.354563
C94	C	0.737064	-0.260801	-0.104563
C95	C	0.987064	-0.010801	0.145437
C96	C	1.237064	0.239199	0.395437
C97	C	0.640780	-0.510776	-0.354559
C98	C	0.890780	-0.260776	-0.104559
C99	C	1.140780	-0.010776	0.145441
C100	C	1.390780	0.239224	0.395441
C101	C	0.724114	-0.510766	-0.354555
C102	C	0.974114	-0.260766	-0.104555
C103	C	1.224114	-0.010766	0.145445
C104	C	1.474114	0.239234	0.395445
C105	C	0.403725	-0.510813	-0.354566
C106	C	0.653725	-0.260813	-0.104566
C107	C	0.903725	-0.010813	0.145434
C108	C	1.153725	0.239187	0.395434
C109	C	1.063495	-0.786205	-0.354541
C110	C	1.313495	-0.536205	-0.104541
C111	C	1.563495	-0.286205	0.145459
C112	C	1.813495	-0.036205	0.395459
C113	C	1.063540	-0.904035	-0.354562
C114	C	1.313540	-0.654035	-0.104562
C115	C	1.563540	-0.404035	0.145438
C116	C	1.813540	-0.154035	0.395438
C117	C	1.006919	-1.071615	-0.411602
C118	C	1.256919	-0.821615	-0.161602
C119	C	1.506919	-0.571615	0.088398
C120	C	1.756919	-0.321615	0.338398
C121	C	1.006629	-0.949056	-0.411418
C122	C	1.256629	-0.699056	-0.161418
C123	C	1.506629	-0.449056	0.088582
C124	C	1.756629	-0.199056	0.338582
C125	C	1.042547	-0.948619	-0.277004
C126	C	1.292547	-0.698619	-0.027004
C127	C	1.542547	-0.448619	0.222996
C128	C	1.792547	-0.198619	0.472996
C129	C	1.042202	-1.071217	-0.277350
C130	C	1.292202	-0.821217	-0.027350
C131	C	1.542202	-0.571217	0.222650
C132	C	1.792202	-0.321217	0.472650
C133	C	1.141499	-1.071131	-0.374450
C134	C	1.391499	-0.821131	-0.124450
C135	C	1.641499	-0.571131	0.125550
C136	C	1.891499	-0.321131	0.375550
C137	C	1.141021	-0.948525	-0.376146
C138	C	1.391021	-0.698525	-0.126146
C139	C	1.641021	-0.448525	0.123854
C140	C	1.891021	-0.198525	0.373854
C141	C	1.255502	-0.510808	-0.354564
C142	C	1.505502	-0.260808	-0.104564
C143	C	1.755502	-0.010808	0.145436
C144	C	2.005502	0.239192	0.395436
C145	C	1.337301	-0.510823	-0.354569
C146	C	1.587301	-0.260823	-0.104569
C147	C	1.837301	-0.010823	0.145431
C148	C	2.087301	0.239177	0.395431
C149	C	1.063593	-0.510714	-0.546505
C150	C	1.313593	-0.260714	-0.296505
C151	C	1.563593	-0.010714	-0.046505
C152	C	1.813593	0.239286	0.203495
C153	C	1.063611	-0.510688	-0.628304
C154	C	1.313611	-0.260688	-0.378304
C155	C	1.563611	-0.010688	-0.128304
C156	C	1.813611	0.239312	0.121696
C157	C	1.063623	-0.234270	-0.354578
C158	C	1.313623	0.015730	-0.104578
C159	C	1.563623	0.265730	0.145422
C160	C	1.813623	0.515730	0.395422
C161	C	1.063654	-0.116440	-0.354589
C162	C	1.313654	0.133560	-0.104589
C163	C	1.563654	0.383560	0.145411
C164	C	1.813654	0.633560	0.395411
C165	C	1.110696	-0.578368	-0.893362
C166	C	1.360696	-0.328368	-0.643362
C167	C	1.610696	-0.078368	-0.393362
C168	C	1.860696	0.171632	-0.143362
C169	C	1.110685	-0.578405	-0.816503
C170	C	1.360685	-0.328405	-0.566503
C171	C	1.610685	-0.078405	-0.316503
C172	C	1.860685	0.171595	-0.066503
C173	C	1.016582	-0.442804	-0.816494
C174	C	1.266582	-0.192804	-0.566494
C175	C	1.516582	0.057196	-0.316494
C176	C	1.766582	0.307196	-0.066494
C177	C	1.016590	-0.442773	-0.893351
C178	C	1.266590	-0.192773	-0.643351
C179	C	1.516590	0.057227	-0.393351
C180	C	1.766590	0.307227	-0.143351
C181	C	1.063651	-0.510554	-0.931783
C182	C	1.313651	-0.260554	-0.681783
C183	C	1.563651	-0.010554	-0.431783
C184	C	1.813651	0.239446	-0.181783
C185	C	1.063632	-0.510621	-0.778067
C186	C	1.313632	-0.260621	-0.528067
C187	C	1.563632	-0.010621	-0.278067
C188	C	1.813632	0.239379	-0.028067
C189	C	1.063619	-0.510660	-0.694734
C190	C	1.313619	-0.260660	-0.444734
C191	C	1.563619	-0.010660	-0.194734
C192	C	1.813619	0.239340	0.055266
C193	C	1.063663	-0.510516	-1.015122
C194	C	1.313663	-0.260516	-0.765122
C195	C	1.563663	-0.010516	-0.515122
C196	C	1.813663	0.239484	-0.265122
C197	C	1.063548	-0.510759	-0.163346
C198	C	1.313548	-0.260759	0.086654
C199	C	1.563548	-0.010759	0.336654
C200	C	1.813548	0.239241	0.586654
C201	C	1.063672	-0.510487	-0.081547
C202	C	1.313672	-0.260487	0.168453
C203	C	1.563672	-0.010487	0.418453
C204	C	1.813672	0.239513	0.668453
H205	H	0.633646	-0.633935	-0.439807
H206	H	0.883646	-0.383935	-0.189807
H207	H	1.133646	-0.133935	0.060193
H208	H	1.383646	0.116065	0.310193
H209	H	0.494190	-0.387643	-0.269301
H210	H	0.744190	-0.137643	-0.019301
H211	H	0.994190	0.112357	0.230699
H212	H	1.244190	0.362357	0.480699
H213	H	0.978268	-0.387618	-0.785193
H214	H	1.228268	-0.137618	-0.535193
H215	H	1.478268	0.112382	-0.285193
H216	H	1.728268	0.362382	-0.035193
H217	H	1.148993	-0.633626	-0.785224
H218	H	1.398993	-0.383626	-0.535224
H219	H	1.648993	-0.133626	-0.285224
H220	H	1.898993	0.116374	-0.035224
H221	H	0.494219	-0.633951	-0.439817
H222	H	0.744219	-0.383951	-0.189817
H223	H	0.994219	-0.133951	0.060183
H224	H	1.244219	0.116049	0.310183
H225	H	0.633632	-0.387629	-0.269305
H226	H	0.883632	-0.137629	-0.019305
H227	H	1.133632	0.112371	0.230695
H228	H	1.383632	0.362371	0.480695
H229	H	1.019763	-0.918909	-0.468927
H230	H	1.269763	-0.668909	-0.218927
H231	H	1.519763	-0.418909	0.031073
H232	H	1.769763	-0.168909	0.281073
H233	H	0.948919	-0.919816	-0.398261
H234	H	1.198919	-0.669816	-0.148261
H235	H	1.448919	-0.419816	0.101739
H236	H	1.698919	-0.169816	0.351739
H237	H	1.019932	-1.101034	-0.469299
H238	H	1.269932	-0.851034	-0.219299
H239	H	1.519932	-0.601034	0.030701
H240	H	1.769932	-0.351034	0.280701
H241	H	1.081732	-1.100872	-0.233424
H242	H	1.331732	-0.850872	0.016576
H243	H	1.581732	-0.600872	0.266576
H244	H	1.831732	-0.350872	0.516576
H245	H	0.986236	-0.918002	-0.259875
H246	H	1.236236	-0.668002	-0.009875
H247	H	1.486236	-0.418002	0.240125
H248	H	1.736236	-0.168002	0.490125
H249	H	1.149015	-0.633560	-0.924651
H250	H	1.399015	-0.383560	-0.674651
H251	H	1.649015	-0.133560	-0.424651
H252	H	1.899015	0.116440	-0.174651
H253	H	0.978277	-0.387549	-0.924635
H254	H	1.228277	-0.137549	-0.674635
H255	H	1.478277	0.112451	-0.424635
H256	H	1.728277	0.362451	-0.174635
H257	H	1.156852	-0.919381	-0.433224
H258	H	1.406852	-0.669381	-0.183224
H259	H	1.656852	-0.419381	0.066776
H260	H	1.906852	-0.169381	0.316776
H261	H	0.949569	-1.102511	-0.398612
H262	H	1.199569	-0.852511	-0.148612
H263	H	1.449569	-0.602511	0.101388
H264	H	1.699569	-0.352511	0.351388
H265	H	0.985297	-1.099903	-0.260525
H266	H	1.235297	-0.849903	-0.010525
H267	H	1.485297	-0.599903	0.239475
H268	H	1.735297	-0.349903	0.489475
H269	H	1.082561	-0.919458	-0.233365
H270	H	1.332561	-0.669458	0.016635
H271	H	1.582561	-0.419458	0.266635
H272	H	1.832561	-0.169458	0.516635
H273	H	1.160649	-1.101982	-0.430044
H274	H	1.410649	-0.851982	-0.180044
H275	H	1.660649	-0.601982	0.069956
H276	H	1.910649	-0.351982	0.319956
H277	H	1.185518	-0.917873	-0.337645
H278	H	1.435518	-0.667873	-0.087645
H279	H	1.685518	-0.417873	0.162355
H280	H	1.935518	-0.167873	0.412355
H281	H	1.183768	-1.100117	-0.332926
H282	H	1.433768	-0.850117	-0.082926
H283	H	1.683768	-0.600117	0.167074
H284	H	1.933768	-0.350117	0.417074
