data_functionalizedCrystal
_audit_creation_method	'MofGen! by Chris Wilmer'
_symmetry_space_group_name_H-M	'P1'
_symmetry_Int_Tables_number	1
_symmetry_cell_setting	triclinic
loop_
_symmetry_equiv_pos_as_xyz
  x,y,z
_cell_length_a	6.817900
_cell_length_b	15.300992
_cell_length_c	11.168136
_cell_angle_alpha	93.625669
_cell_angle_beta	108.508683
_cell_angle_gamma	104.175078
loop_
_atom_site_label
_atom_site_type_symbol
_atom_site_fract_x
_atom_site_fract_y
_atom_site_fract_z
V1	V	-4.087791	-0.124772	-0.394079
O2	O	-4.070525	0.005982	-0.386187
O3	O	-4.042370	-0.247388	-0.391761
O4	O	-4.064420	-0.122859	-0.565779
O5	O	-4.048322	-0.119410	-0.210963
V6	V	-4.567790	-0.109131	-0.372132
O7	O	-4.356780	-0.159080	-0.442224
O8	O	-4.748998	-0.074823	-0.323987
O9	O	-4.390005	0.013485	-0.374450
O10	O	-4.702452	-0.239885	-0.380025
O11	O	-4.724656	-0.114493	-0.555248
O12	O	-4.367954	-0.111044	-0.200432
C13	C	-3.887285	-0.277279	-0.385641
C14	C	-3.931601	-0.377519	-0.384889
C15	C	-3.894918	-0.411731	-0.268863
C16	C	-3.936579	-0.505918	-0.268162
C17	C	-4.014907	-0.565892	-0.383487
C18	C	-4.051598	-0.531675	-0.499522
C19	C	-4.009952	-0.437489	-0.500223
C20	C	-4.138392	-0.727986	-0.498053
C21	C	-4.180037	-0.822178	-0.497352
C22	C	-4.065018	-0.796415	-0.265992
C23	C	-4.023372	-0.702229	-0.266693
C24	C	-4.060063	-0.668019	-0.382728
C25	C	-3.915412	-0.118428	-0.607618
C26	C	-3.977607	-0.117675	-0.747986
C27	C	-4.179417	-0.121616	-0.816690
C28	C	-4.243703	-0.120838	-0.961768
C29	C	-4.208431	0.043371	-0.380567
C30	C	-4.143354	0.143611	-0.381326
C31	C	-4.180304	-0.115478	-0.158587
C32	C	-4.097347	-0.116226	-0.018217
H33	H	-3.959581	-0.653400	-0.172784
O34	O	-3.828081	-0.112799	-0.805841
C35	C	-3.659395	-0.031786	-0.752382
H36	H	-3.720407	0.020224	-0.707661
H37	H	-3.600541	-0.002946	-0.830435
H38	H	-3.520837	-0.047126	-0.675826
H39	H	-3.906710	-0.533768	-0.173682
H40	H	-3.924462	-0.112858	-0.959166
O41	O	-3.819099	-0.353391	-0.156928
C42	C	-3.965624	-0.302518	-0.156403
H43	H	-4.067324	-0.301045	-0.258946
H44	H	-3.872867	-0.229855	-0.106589
H45	H	-4.075160	-0.335516	-0.103252
H46	H	-4.416590	-0.124217	-1.020829
O47	O	-4.029643	-0.829798	-0.153391
C48	C	-4.083182	-0.925787	-0.177495
H49	H	-4.201870	-0.951308	-0.279017
H50	H	-4.159894	-0.955794	-0.106732
H51	H	-3.931081	-0.947879	-0.166226
H52	H	-4.243814	-0.871007	-0.591260
H53	H	-4.168306	-0.700136	-0.592542
H54	H	-4.115392	-0.580513	-0.593422
H55	H	-4.039847	-0.409637	-0.594704
H56	H	-4.304598	-0.125561	-0.768103
