data_functionalizedCrystal
_audit_creation_method	'MofGen! by Chris Wilmer'
_symmetry_space_group_name_H-M	'P1'
_symmetry_Int_Tables_number	1
_symmetry_cell_setting	triclinic
loop_
_symmetry_equiv_pos_as_xyz
  x,y,z
_cell_length_a	21.606444
_cell_length_b	14.560438
_cell_length_c	14.560438
_cell_angle_alpha	60.000069
_cell_angle_beta	89.998731
_cell_angle_gamma	60.000721
loop_
_atom_site_label
_atom_site_type_symbol
_atom_site_fract_x
_atom_site_fract_y
_atom_site_fract_z
Zr1	Zr	0.596222	1.005315	-0.120539
O2	O	0.497400	1.196912	-0.267179
O3	O	0.626517	0.813715	-0.075589
O4	O	0.626517	1.005319	-0.267190
O5	O	0.497400	1.005305	0.075563
O6	O	0.728366	1.005326	-0.267195
O7	O	0.497400	1.005308	-0.075578
O8	O	0.728366	0.662581	0.075544
O9	O	0.497400	1.348050	-0.267176
O10	O	0.715446	0.892529	-0.056419
O11	O	0.639437	0.892522	0.056380
O12	O	0.639437	1.118111	-0.169205
O13	O	0.563428	1.118104	-0.056407
Zr14	Zr	0.758661	1.005321	0.120504
Zr15	Zr	0.758661	1.005325	-0.120548
Zr16	Zr	0.596223	1.005311	0.120513
Zr17	Zr	0.596223	1.246363	-0.120535
Zr18	Zr	0.758661	0.764273	0.120500
O19	O	0.728367	1.196921	0.075554
O20	O	0.728367	1.196927	-0.267191
O21	O	0.497400	1.196906	0.075566
O22	O	0.857484	0.813724	0.267144
O23	O	0.857483	0.813730	-0.075601
O24	O	0.626517	0.813709	0.267156
O25	O	0.857484	1.005331	-0.075598
O26	O	0.728367	1.005317	0.267155
O27	O	0.626517	1.005310	0.267160
O28	O	0.857484	1.005328	0.075543
O29	O	0.626517	1.348058	-0.267183
O30	O	0.728366	0.662578	0.267148
O31	O	0.857483	0.662586	0.267141
O32	O	0.857483	0.662589	0.075537
O33	O	0.497400	1.348047	-0.075572
O34	O	0.626517	1.348055	-0.075579
O35	O	0.715446	0.892525	0.169170
O36	O	0.791456	0.892532	0.056372
O37	O	0.715446	1.118114	-0.056415
O38	O	0.639437	1.118107	0.056384
C39	C	0.677441	0.703804	-0.000023
C40	C	0.677441	0.601473	-0.000025
C41	C	0.717116	0.553401	-0.058905
C42	C	0.717119	0.457241	-0.058895
C43	C	0.637767	0.457239	0.058877
C44	C	0.637769	0.553390	0.058873
C45	C	0.474256	1.005305	-0.000007
C46	C	0.405296	1.005301	-0.000003
C47	C	0.412573	0.887550	0.058866
C48	C	0.347776	0.887554	0.058867
C49	C	0.275703	1.005309	-0.000008
C50	C	0.268427	1.123069	-0.058879
C51	C	0.333224	1.123064	-0.058873
C52	C	0.007109	1.123092	-0.058904
C53	C	-0.057689	1.123087	-0.058909
C54	C	0.021661	0.887581	0.058836
C55	C	0.086458	0.887576	0.058842
C56	C	0.079177	1.005335	-0.000023
C57	C	0.149438	1.005330	-0.000022
C58	C	0.205442	1.005316	-0.000017
C59	C	0.880628	1.005331	-0.000028
C60	C	0.949587	1.005335	-0.000032
C61	C	0.677441	1.005323	-0.301537
C62	C	0.677441	1.005325	-0.403870
C63	C	0.677442	1.306832	-0.000012
C64	C	0.677442	1.409163	-0.000010
C65	C	0.733551	1.005330	-0.451949
C66	C	0.733553	1.005318	-0.548095
C67	C	0.621329	1.005302	-0.548077
C68	C	0.621331	1.005305	-0.451928
C69	C	0.677442	1.005313	0.301502
C70	C	0.677442	1.005311	0.403835
C71	C	0.880627	0.703817	-0.000034
C72	C	0.949587	0.601491	-0.000040
C73	C	0.677442	0.703799	0.301496
C74	C	0.677442	0.601466	0.403827
C75	C	0.880628	0.703812	0.301485
C76	C	0.949587	0.601483	0.403813
C77	C	0.474256	1.306824	-0.301521
C78	C	0.405297	1.409153	-0.403848
C79	C	0.474256	1.306819	-0.000001
C80	C	0.405297	1.409145	0.000005
C81	C	0.677442	1.306837	-0.301531
C82	C	0.677442	1.409170	-0.403863
C83	C	0.942294	0.553435	-0.058928
C84	C	1.007083	0.457302	-0.058956
C85	C	1.079163	0.409219	-0.000088
C86	C	1.086453	0.457284	0.058802
C87	C	1.021666	0.553422	0.058823
C88	C	1.021654	0.553432	0.392987
C89	C	1.086455	0.457297	0.489125
C90	C	1.079187	0.409208	0.596088
C91	C	1.007113	0.457269	0.606912
C92	C	0.942313	0.553409	0.510775
C93	C	0.333230	1.457215	-0.393022
C94	C	0.268429	1.553380	-0.489160
C95	C	0.275696	1.601474	-0.596123
C96	C	0.347771	1.553408	-0.606947
C97	C	0.412570	1.457251	-0.510810
C98	C	0.412589	1.457211	0.058883
C99	C	0.347801	1.553371	0.058884
C100	C	0.275721	1.601457	0.000013
C101	C	0.268430	1.553388	-0.058872
C102	C	0.333218	1.457236	-0.058880
C103	C	0.717117	0.553389	0.510778
C104	C	0.717108	0.457246	0.606925
C105	C	0.637748	0.457260	0.489157
C106	C	0.637753	0.553409	0.393012
H107	H	0.605460	0.592530	0.106825
C108	C	1.165743	0.404373	0.123561
H109	H	1.203278	0.340224	0.115120
H110	H	1.171442	0.473380	0.094504
H111	H	1.171430	0.366840	0.201030
C112	C	0.863044	0.606240	0.522697
H113	H	0.868003	0.563814	0.600171
H114	H	0.836104	0.697015	0.487645
H115	H	0.836125	0.590455	0.487650
H116	H	0.027583	0.791696	0.106770
C117	C	0.355834	1.606217	0.123673
H118	H	0.408042	1.563785	0.158747
H119	H	0.332219	1.696989	0.072868
H120	H	0.332206	1.590450	0.179395
C121	C	0.760764	0.606273	-0.123674
H122	H	0.784400	0.563857	-0.158728
H123	H	0.726523	0.697047	-0.179391
H124	H	0.798314	0.590504	-0.072845
C125	C	0.204461	1.707218	0.000033
H126	H	0.219134	1.728942	0.043542
H127	H	0.175145	1.782244	-0.074973
H128	H	0.175149	1.675698	0.031571
H129	H	1.145135	0.418176	0.480292
C130	C	0.189149	1.252598	-0.123644
H131	H	0.151600	1.235738	-0.115228
H132	H	0.183462	1.300984	-0.094568
H133	H	0.183473	1.300976	-0.201107
C134	C	0.863014	0.606318	-0.123690
H135	H	0.825465	0.670452	-0.115245
H136	H	0.857331	0.643833	-0.201150
H137	H	0.857331	0.537285	-0.094614
C138	C	0.325191	1.404356	-0.123634
H139	H	0.374095	1.340207	-0.115218
H140	H	0.298263	1.366860	-0.094549
H141	H	0.298268	1.473388	-0.201098
C142	C	0.204415	1.707238	-0.701867
H143	H	0.219060	1.729010	-0.767127
H144	H	0.175104	1.675716	-0.701861
H145	H	0.175110	1.782252	-0.701857
C146	C	0.760766	0.606263	0.522669
H147	H	0.755093	0.670403	0.450092
H148	H	0.741172	0.643770	0.562622
H149	H	0.812967	0.537228	0.562618
H150	H	1.027586	0.592572	0.305901
C151	C	1.150468	0.303459	0.701832
H152	H	1.135824	0.281702	0.767092
H153	H	1.179782	0.228448	0.701828
H154	H	1.179770	0.335004	0.701819
C155	C	0.760755	0.404360	0.724568
H156	H	0.784396	0.446748	0.717233
H157	H	0.726510	0.420119	0.764527
H158	H	0.798301	0.313579	0.764516
C159	C	0.355756	1.606309	-0.724609
H160	H	0.306838	1.670447	-0.780305
H161	H	0.382677	1.643824	-0.733066
H162	H	0.382667	1.537283	-0.733053
C163	C	-0.136972	1.252621	-0.123665
H164	H	-0.174518	1.235753	-0.115245
H165	H	-0.142658	1.300998	-0.094580
H166	H	-0.142656	1.301012	-0.201130
H167	H	0.001171	1.218978	-0.106857
C168	C	0.559626	1.005237	-0.600918
H169	H	0.526219	1.005205	-0.558496
H170	H	0.531898	1.080549	-0.676097
H171	H	0.582703	0.929879	-0.600732
C172	C	0.795268	1.005352	-0.399083
H173	H	0.787229	1.005369	-0.334942
H174	H	0.843708	0.930027	-0.377177
H175	H	0.792930	1.080698	-0.452521
C176	C	1.029696	0.606257	0.123619
H177	H	1.081905	0.563835	0.158681
H178	H	1.006073	0.697033	0.072822
H179	H	1.006078	0.590470	0.179351
H180	H	0.779244	1.005320	-0.587237
C181	C	0.999128	0.404351	0.724574
H182	H	1.048045	0.340201	0.780270
H183	H	0.972207	0.473354	0.733035
H184	H	0.972216	0.366817	0.733013
C185	C	0.559604	1.005313	-0.399040
H186	H	0.567646	1.005307	-0.334890
H187	H	0.511167	1.080643	-0.452460
H188	H	0.561933	0.929972	-0.377121
C189	C	0.594122	0.404358	0.123647
H190	H	0.599795	0.340219	0.115208
H191	H	0.613714	0.366850	0.201106
H192	H	0.541920	0.473392	0.094564
H193	H	0.327294	1.218949	-0.106797
C194	C	0.325220	1.404343	-0.275376
H195	H	0.273015	1.446764	-0.282713
H196	H	0.348840	1.313569	-0.235412
H197	H	0.348851	1.420112	-0.235430
C198	C	0.594103	0.404380	0.477269
H199	H	0.599789	0.340221	0.549846
H200	H	0.541904	0.473401	0.437320
H201	H	0.613705	0.366868	0.437316
C202	C	0.189157	1.606225	-0.477234
H203	H	0.194115	1.563788	-0.399761
H204	H	0.162226	1.696996	-0.512273
H205	H	0.162229	1.590463	-0.512297
H206	H	1.001132	0.418179	-0.106911
C207	C	0.189141	1.606283	-0.123616
H208	H	0.151606	1.670418	-0.115160
H209	H	0.183442	1.643799	-0.201080
H210	H	0.183453	1.537254	-0.094525
C211	C	1.150422	0.303458	-0.000108
H212	H	1.135749	0.281721	-0.043604
H213	H	1.179741	0.334959	-0.031631
H214	H	1.179731	0.228428	0.074907
H215	H	0.145141	0.791687	0.106781
H216	H	0.471249	1.418119	-0.519638
C217	C	0.491868	1.404332	0.123647
H218	H	0.486921	1.446749	0.158700
H219	H	0.518794	1.313559	0.179366
H220	H	0.518795	1.420096	0.072820
H221	H	0.605440	0.592556	0.305922
H222	H	0.471255	0.791659	0.106815
H223	H	0.353707	0.791669	0.106807
H224	H	0.749426	0.418102	-0.106838
