data_functionalizedCrystal
_audit_creation_method	'MofGen! by Chris Wilmer'
_symmetry_space_group_name_H-M	'P1'
_symmetry_Int_Tables_number	1
_symmetry_cell_setting	triclinic
loop_
_symmetry_equiv_pos_as_xyz
  x,y,z
_cell_length_a	18.050589
_cell_length_b	17.077404
_cell_length_c	18.050583
_cell_angle_alpha	89.979917
_cell_angle_beta	90.028091
_cell_angle_gamma	89.972675
loop_
_atom_site_label
_atom_site_type_symbol
_atom_site_fract_x
_atom_site_fract_y
_atom_site_fract_z
Zn1	Zn	-0.295652	-1.200015	0.419972
Zn2	Zn	-0.419857	-1.199913	0.295791
Zn3	Zn	-0.295683	-1.068750	0.295792
Zn4	Zn	-0.419803	-1.068702	0.419936
O5	O	-0.357749	-1.134345	0.357873
O6	O	-0.312138	-1.309848	0.403514
O7	O	-0.403420	-1.182491	0.191867
O8	O	-0.191754	-1.086225	0.312280
O9	O	-0.403390	-1.309773	0.312279
O10	O	-0.191731	-1.182665	0.403514
O11	O	-0.312191	-1.086126	0.191867
O12	O	-0.312138	-0.958897	0.312245
O13	O	-0.403298	-1.086144	0.523865
O14	O	-0.403328	-0.958862	0.403453
O15	O	-0.312085	-1.182619	0.523892
O16	O	-0.523774	-1.182445	0.312244
O17	O	-0.523734	-1.086045	0.403452
C18	C	-0.357731	-0.930397	0.357846
C19	C	-0.357742	-0.843147	0.357852
C20	C	-0.405295	-0.802160	0.405266
C21	C	-0.405296	-0.720179	0.405275
C22	C	-0.357745	-0.679188	0.357866
C23	C	-0.310186	-0.720181	0.310449
C24	C	-0.310183	-0.802160	0.310444
C25	C	-0.310198	-0.549311	0.310461
C26	C	-0.310202	-0.467327	0.310465
C27	C	-0.405310	-0.467330	0.405293
C28	C	-0.405307	-0.549309	0.405288
C29	C	-0.357749	-0.590297	0.357870
C30	C	-0.550701	-1.134250	0.357860
C31	C	-0.633246	-1.134282	0.357880
C32	C	-0.832703	-1.081911	0.407462
C33	C	-0.882148	-1.062778	0.339694
C34	C	-0.784377	-1.134359	0.357890
C35	C	-0.882013	-1.153531	0.425665
C36	C	-0.930362	-1.134432	0.357905
C37	C	-0.832735	-1.115188	0.290086
C38	C	-0.832596	-1.205974	0.376103
C39	C	-0.882019	-1.186868	0.308288
C40	C	-0.700279	-1.134315	0.357882
C41	C	-1.014458	-1.134476	0.357905
C42	C	-0.164043	-1.134462	0.357901
C43	C	-0.081497	-1.134511	0.357913
C44	C	-0.357682	-1.134388	0.551578
C45	C	-0.357654	-1.134406	0.634124
C46	C	-0.357762	-0.339089	0.357892
C47	C	-0.357755	-0.426339	0.357880
C48	C	-0.357761	-1.134348	0.164920
C49	C	-0.357580	-1.134482	0.082375
C50	C	-0.308002	-1.186918	0.882964
C51	C	-0.375766	-1.206072	0.833556
C52	C	-0.357607	-1.134456	0.931245
C53	C	-0.289870	-1.115314	0.833571
C54	C	-0.357626	-1.134433	0.785259
C55	C	-0.425406	-1.153648	0.882924
C56	C	-0.339465	-1.062857	0.882943
C57	C	-0.407275	-1.081984	0.833557
C58	C	-0.357594	-1.134472	1.015343
C59	C	-0.357646	-1.134418	0.701163
H60	H	-0.271467	-0.686800	0.271851
H61	H	-0.266097	-1.231326	0.904657
H62	H	-0.391122	-1.266613	0.811860
O63	O	-0.263970	-0.841857	0.264311
C64	C	-0.221990	-0.788100	0.222478
H65	H	-0.252407	-0.729647	0.219860
H66	H	-0.213999	-0.811764	0.163976
H67	H	-0.165619	-0.779421	0.249768
H68	H	-0.444031	-0.582682	0.443889
O69	O	-0.806897	-1.028818	0.457319
C70	C	-0.832165	-0.953431	0.437851
H71	H	-0.846057	-0.951997	0.376251
H72	H	-0.787028	-0.908620	0.450193
H73	H	-0.883842	-0.938716	0.471368
O74	O	-0.493719	-1.173075	0.908796
C75	C	-0.492879	-1.172872	0.986902
H76	H	-0.433693	-1.181626	1.007367
H77	H	-0.529321	-1.222382	1.008463
H78	H	-0.514942	-1.114445	1.008033
H79	H	-0.903659	-1.169717	0.482976
O80	O	-0.908207	-0.990573	0.321419
C81	C	-0.952239	-0.961476	0.379746
H82	H	-0.973828	-1.012428	0.414362
H83	H	-1.000998	-0.927312	0.355878
H84	H	-0.917498	-0.921161	0.416164
O85	O	-0.806900	-1.095769	0.221747
C86	C	-0.728794	-1.095951	0.222567
H87	H	-0.708322	-1.087173	0.281738
H88	H	-0.707293	-1.046446	0.186067
H89	H	-0.707609	-1.154379	0.200560
O90	O	-0.321250	-0.990635	0.908891
C91	C	-0.380117	-0.960924	0.951832
H92	H	-0.433929	-0.990943	0.934938
H93	H	-0.385303	-0.895153	0.942315
H94	H	-0.368723	-0.972651	1.012966
O95	O	-0.907662	-1.239730	0.258129
C96	C	-0.882402	-1.219275	0.186803
H97	H	-0.868673	-1.154143	0.185331
H98	H	-0.927482	-1.232500	0.144365
H99	H	-0.830629	-1.254642	0.173037
O100	O	-0.457485	-1.029134	0.807868
C101	C	-0.528788	-1.049585	0.833166
H102	H	-0.530202	-1.114713	0.846968
H103	H	-0.571247	-1.036380	0.788082
H104	H	-0.542572	-1.014200	0.884903
H105	H	-0.810816	-1.266489	0.391526
O106	O	-0.263950	-0.427433	0.264532
C107	C	-0.216034	-0.380085	0.306927
H108	H	-0.242324	-0.367809	0.363149
H109	H	-0.206013	-0.322432	0.276704
H110	H	-0.161022	-0.411727	0.315210
O111	O	-0.221467	-1.096095	0.807797
C112	C	-0.169344	-1.151586	0.832957
H113	H	-0.191343	-1.181482	0.884956
H114	H	-0.114899	-1.120844	0.846280
H115	H	-0.159640	-1.197300	0.787981
H116	H	-0.444019	-0.835529	0.443870
H117	H	-0.444032	-0.433954	0.443904
O118	O	-0.451568	-0.680485	0.451349
C119	C	-0.493530	-0.734244	0.493198
H120	H	-0.496052	-0.792668	0.462772
H121	H	-0.552057	-0.710538	0.501007
H122	H	-0.466415	-0.742997	0.549653
H123	H	-0.271464	-0.582681	0.271855
