data_functionalizedCrystal
_audit_creation_method	'MofGen! by Chris Wilmer'
_symmetry_space_group_name_H-M	'P1'
_symmetry_Int_Tables_number	1
_symmetry_cell_setting	triclinic
loop_
_symmetry_equiv_pos_as_xyz
  x,y,z
_cell_length_a	16.120530
_cell_length_b	19.805405
_cell_length_c	19.805399
_cell_angle_alpha	90.029301
_cell_angle_beta	92.915522
_cell_angle_gamma	87.121765
loop_
_atom_site_label
_atom_site_type_symbol
_atom_site_fract_x
_atom_site_fract_y
_atom_site_fract_z
Zn1	Zn	-1.274516	0.322020	-0.435096
Zn2	Zn	-0.774516	0.822020	0.064904
Zn3	Zn	-1.274411	0.435204	-0.321900
Zn4	Zn	-0.774411	0.935204	0.178100
Zn5	Zn	-1.135102	0.316291	-0.316191
Zn6	Zn	-0.635102	0.816291	0.183809
Zn7	Zn	-1.135057	0.429423	-0.429319
Zn8	Zn	-0.635057	0.929423	0.070681
O9	O	-1.204772	0.375735	-0.375627
O10	O	-0.704772	0.875735	0.124373
O11	O	-1.391168	0.341851	-0.424888
O12	O	-0.891168	0.841851	0.075112
O13	O	-1.255907	0.419452	-0.226425
O14	O	-0.755907	0.919452	0.273575
O15	O	-1.153659	0.222337	-0.331992
O16	O	-0.653659	0.722337	0.168008
O17	O	-1.391091	0.425007	-0.341723
O18	O	-0.891091	0.925007	0.158277
O19	O	-1.256085	0.226546	-0.419351
O20	O	-0.756085	0.726546	0.080649
O21	O	-1.153557	0.332087	-0.222231
O22	O	-0.653557	0.832087	0.277769
O23	O	-1.018431	0.326482	-0.326390
O24	O	-0.518431	0.826482	0.173610
O25	O	-1.153582	0.415154	-0.524803
O26	O	-0.653582	0.915154	-0.024803
O27	O	-1.018398	0.409599	-0.409506
O28	O	-0.518398	0.909599	0.090494
O29	O	-1.256042	0.336245	-0.529048
O30	O	-0.756042	0.836245	-0.029048
O31	O	-1.255863	0.529151	-0.336122
O32	O	-0.755863	1.029151	0.163878
O33	O	-1.153480	0.524904	-0.415042
O34	O	-0.653480	1.024904	0.084958
C35	C	-1.204678	0.551587	-0.375590
C36	C	-0.704678	1.051587	0.124410
C37	C	-1.204714	0.626820	-0.375600
C38	C	-0.704714	1.126820	0.124400
C39	C	-0.988164	0.366792	-0.366702
C40	C	-0.488164	0.866792	0.133298
C41	C	-0.895499	0.362983	-0.362900
C42	C	-0.395499	0.862983	0.137100
C43	C	-1.422225	0.384712	-0.384587
C44	C	-0.922225	0.884712	0.115413
C45	C	-1.514890	0.388538	-0.388405
C46	C	-1.014890	0.888538	0.111595
C47	C	-0.725838	0.356012	-0.355964
C48	C	-0.225838	0.856012	0.144036
C49	C	-0.684546	0.395507	-0.395339
C50	C	-0.184546	0.895507	0.104661
C51	C	-0.590141	0.391628	-0.391480
C52	C	-0.090141	0.891628	0.108520
C53	C	-0.820252	0.359890	-0.359822
C54	C	-0.320252	0.859890	0.140178
C55	C	-1.204819	0.375694	-0.552171
C56	C	-0.704819	0.875694	-0.052171
C57	C	-1.204838	0.375677	-0.627404
C58	C	-0.704838	0.875677	-0.127404
C59	C	-1.204889	0.199197	-0.375679
C60	C	-0.704889	0.699197	0.124321
C61	C	-1.204938	0.123967	-0.375702
C62	C	-0.704938	0.623967	0.124298
C63	C	-1.258077	0.664356	-0.334554
C64	C	-0.758077	1.164356	0.165446
C65	C	-1.258112	0.735045	-0.334570
C66	C	-0.758112	1.235045	0.165430
C67	C	-1.204780	0.768199	-0.375630
C68	C	-0.704780	1.268199	0.124370
C69	C	-1.151415	0.730658	-0.416681
C70	C	-0.651415	1.230658	0.083319
C71	C	-1.151385	0.659970	-0.416668
C72	C	-0.651385	1.159970	0.083332
C73	C	-1.151538	1.015737	-0.416736
C74	C	-0.651538	1.515737	0.083264
C75	C	-1.151571	1.086430	-0.416745
C76	C	-0.651571	1.586430	0.083255
C77	C	-1.258266	1.090812	-0.334639
C78	C	-0.758266	1.590812	0.165361
C79	C	-1.258235	1.020124	-0.334626
C80	C	-0.758235	1.520124	0.165374
C81	C	-1.204874	0.982590	-0.375679
C82	C	-0.704874	1.482590	0.124321
C83	C	-1.204837	0.905940	-0.375662
C84	C	-0.704837	1.405940	0.124338
C85	C	-1.204812	0.844847	-0.375644
C86	C	-0.704812	1.344847	0.124356
C87	C	-1.258190	0.334587	-0.664960
C88	C	-0.758190	0.834587	-0.164960
C89	C	-1.258199	0.334567	-0.735648
C90	C	-0.758199	0.834567	-0.235648
C91	C	-1.204859	0.375642	-0.768781
C92	C	-0.704859	0.875642	-0.268781
C93	C	-1.151501	0.416734	-0.731220
C94	C	-0.651501	0.916734	-0.231220
C95	C	-1.151489	0.416749	-0.660533
C96	C	-0.651489	0.916749	-0.160533
C97	C	-1.151548	0.416672	-1.016296
C98	C	-0.651548	0.916672	-0.516296
C99	C	-1.151566	0.416656	-1.086989
C100	C	-0.651566	0.916656	-0.586989
C101	C	-1.258258	0.334491	-1.091412
C102	C	-0.758258	0.834491	-0.591412
C103	C	-1.258246	0.334506	-1.020724
C104	C	-0.758246	0.834506	-0.520724
C105	C	-1.204885	0.375595	-0.983169
C106	C	-0.704885	0.875595	-0.483169
C107	C	-1.204876	0.375614	-0.906521
C108	C	-0.704876	0.875614	-0.406521
C109	C	-1.204873	0.375627	-0.845429
C110	C	-0.704873	0.875627	-0.345429
C111	C	-1.204773	0.375728	-0.199771
C112	C	-0.704773	0.875728	0.300229
C113	C	-1.204915	0.375562	-0.124545
C114	C	-0.704915	0.875562	0.375455
H115	H	-0.690290	0.319290	-0.319359
H116	H	-0.190290	0.819290	0.180641
O117	O	-1.310036	0.771615	-0.294858
O118	O	-0.810036	1.271615	0.205142
C119	C	-1.298682	0.841117	-0.303717
C120	C	-0.798682	1.341117	0.196283
H121	H	-1.271189	0.849589	-0.354755
H122	H	-0.771189	1.349589	0.145245
H123	H	-1.361196	0.870468	-0.301909
H124	H	-0.861196	1.370468	0.198091
H125	H	-1.254481	0.859497	-0.261650
H126	H	-0.754481	1.359497	0.238350
H127	H	-0.720096	0.432231	-0.431947
H128	H	-0.220096	0.932231	0.068053
H129	H	-1.301660	0.993133	-0.301189
H130	H	-0.801660	1.493133	0.198811
H131	H	-1.301629	0.301141	-0.637989
H132	H	-0.801629	0.801141	-0.137989
O133	O	-1.309938	0.294558	-0.988465
O134	O	-0.809938	0.794558	-0.488465
C135	C	-1.262480	0.248883	-0.945652
C136	C	-0.762480	0.748883	-0.445652
H137	H	-1.199289	0.270158	-0.932445
H138	H	-0.699289	0.770158	-0.432445
H139	H	-1.296432	0.241210	-0.897349
H140	H	-0.796432	0.741210	-0.397349
H141	H	-1.253344	0.198346	-0.972540
H142	H	-0.753344	0.698346	-0.472540
H143	H	-1.301502	0.637367	-0.301115
H144	H	-0.801502	1.137367	0.198885
H145	H	-1.301718	1.121381	-0.301214
H146	H	-0.801718	1.621381	0.198786
H147	H	-1.108111	0.450140	-0.985728
H148	H	-0.608111	0.950140	-0.485728
H149	H	-1.108143	1.113421	-0.450186
H150	H	-0.608143	1.613421	0.049814
H151	H	-1.108088	0.985182	-0.450162
H152	H	-0.608088	1.485182	0.049838
O153	O	-1.099635	0.762967	-0.456504
O154	O	-0.599635	1.262967	0.043496
C155	C	-1.111116	0.833408	-0.447726
C156	C	-0.611116	1.333408	0.052274
H157	H	-1.138463	0.844207	-0.396638
H158	H	-0.638463	1.344207	0.103362
H159	H	-1.048675	0.857735	-0.449707
H160	H	-0.548675	1.357735	0.050293
H161	H	-1.155490	0.855242	-0.489735
H162	H	-0.655490	1.355242	0.010265
O163	O	-1.099472	0.623607	-0.456561
O164	O	-0.599472	1.123607	0.043439
C165	C	-1.052422	0.668026	-0.492818
C166	C	-0.552422	1.168026	0.007182
H167	H	-1.049570	0.718316	-0.464982
H168	H	-0.549570	1.218316	0.035018
H169	H	-0.986724	0.644929	-0.497293
H170	H	-0.486724	1.144929	0.002707
H171	H	-1.082925	0.676750	-0.545499
H172	H	-0.582925	1.176750	-0.045499
H173	H	-1.301646	0.301110	-0.766223
H174	H	-0.801646	0.801110	-0.266223
O175	O	-1.310009	0.294588	-1.127994
O176	O	-0.810009	0.794588	-0.627994
C177	C	-1.298598	0.303389	-1.197491
C178	C	-0.798598	0.803389	-0.697491
H179	H	-1.234245	0.322895	-1.204485
H180	H	-0.734245	0.822895	-0.704485
H181	H	-1.304293	0.252917	-1.224601
H182	H	-0.804293	0.752917	-0.724601
H183	H	-1.348028	0.341469	-1.219582
H184	H	-0.848028	0.841469	-0.719582
H185	H	-1.108127	0.450105	-1.113963
H186	H	-0.608127	0.950105	-0.613963
H187	H	-1.108068	0.450175	-0.758202
H188	H	-0.608068	0.950175	-0.258202
O189	O	-1.099647	0.456736	-0.624153
O190	O	-0.599647	0.956736	-0.124153
C191	C	-1.052560	0.492979	-0.668552
C192	C	-0.552560	0.992979	-0.168552
H193	H	-1.086712	0.496713	-0.720351
H194	H	-0.586712	0.996713	-0.220351
H195	H	-1.043641	0.545946	-0.647748
H196	H	-0.543641	1.045946	-0.147748
H197	H	-0.989255	0.465585	-0.673460
H198	H	-0.489255	0.965585	-0.173460
