data_functionalizedCrystal
_audit_creation_method	'MofGen! by Chris Wilmer'
_symmetry_space_group_name_H-M	'P1'
_symmetry_Int_Tables_number	1
_symmetry_cell_setting	triclinic
loop_
_symmetry_equiv_pos_as_xyz
  x,y,z
_cell_length_a	23.532407
_cell_length_b	23.532407
_cell_length_c	22.610064
_cell_angle_alpha	89.999397
_cell_angle_beta	89.997161
_cell_angle_gamma	82.848678
loop_
_atom_site_label
_atom_site_type_symbol
_atom_site_fract_x
_atom_site_fract_y
_atom_site_fract_z
O1	O	0.755263	0.069127	-0.049117
O2	O	0.589400	0.079130	-0.049135
O3	O	0.677333	-0.008803	-0.049114
O4	O	0.667330	0.157060	-0.049137
O5	O	0.677318	-0.008790	0.049255
O6	O	0.589385	0.079143	0.049234
O7	O	0.755248	0.069140	0.049252
Zn8	Zn	0.672314	0.074144	0.064862
Zn9	Zn	0.672334	0.074127	-0.064744
O10	O	0.667315	0.157073	0.049232
C11	C	0.568176	0.078882	0.000048
C12	C	0.504959	0.078116	0.000041
C13	C	0.105856	0.125350	0.000061
C14	C	0.046456	0.124638	0.000065
O15	O	0.009711	0.168424	0.000081
N16	N	0.023830	0.072362	0.000071
C17	C	0.060607	0.020794	0.000080
O18	O	0.035908	-0.023737	0.000086
C19	C	0.120006	0.021506	0.000080
C20	C	0.142629	0.073785	0.000068
C21	C	0.128479	0.177625	0.000050
C22	C	0.187876	0.178336	0.000045
C23	C	0.224649	0.126772	0.000052
C24	C	0.202025	0.074497	0.000063
C25	C	0.156783	-0.030062	0.000093
C26	C	0.216185	-0.029345	0.000094
C27	C	0.238808	0.022934	0.000082
C28	C	0.298194	0.023643	0.000065
N29	N	0.320820	0.075920	0.000059
C30	C	0.284048	0.127484	0.000052
C31	C	-0.064135	0.019302	0.000080
C32	C	-0.123533	0.018589	0.000075
C33	C	-0.137680	0.122434	0.000061
C34	C	-0.078281	0.123146	0.000062
C35	C	-0.041509	0.071578	0.000074
C36	C	0.408784	0.128974	0.000042
C37	C	0.468186	0.129680	0.000034
C38	C	0.482329	0.025836	0.000051
C39	C	0.422932	0.025129	0.000055
C40	C	0.386160	0.076702	0.000052
O41	O	0.334974	-0.020119	0.000052
O42	O	0.308755	0.172007	0.000054
C43	C	0.677071	-0.030013	0.000072
C44	C	0.676305	-0.093230	0.000076
C45	C	0.723539	-0.492333	0.000049
C46	C	0.722827	-0.551733	0.000044
O47	O	0.766613	-0.588478	0.000027
N48	N	0.670551	-0.574359	0.000039
C49	C	0.618983	-0.537582	0.000032
O50	O	0.574452	-0.562281	0.000027
C51	C	0.619695	-0.478182	0.000033
C52	C	0.671974	-0.455560	0.000044
C53	C	0.775814	-0.469710	0.000060
C54	C	0.776525	-0.410313	0.000065
C55	C	0.724961	-0.373540	0.000060
C56	C	0.672685	-0.396164	0.000050
C57	C	0.568127	-0.441406	0.000022
C58	C	0.568844	-0.382004	0.000021
C59	C	0.621123	-0.359381	0.000033
C60	C	0.621832	-0.299995	0.000050
N61	N	0.674109	-0.277368	0.000056
C62	C	0.725673	-0.314141	0.000061
C63	C	0.617491	-0.662324	0.000031
C64	C	0.616778	-0.721722	0.000034
C65	C	0.720623	-0.735869	0.000045
C66	C	0.721335	-0.676470	0.000046
C67	C	0.669767	-0.639698	0.000036
C68	C	0.727163	-0.189405	0.000073
C69	C	0.727869	-0.130003	0.000081
C70	C	0.624025	-0.115860	0.000067
C71	C	0.623318	-0.175257	0.000062
C72	C	0.674891	-0.212029	0.000063
O73	O	0.578070	-0.263215	0.000065
O74	O	0.770196	-0.289433	0.000058
C75	C	0.776472	0.069388	0.000069
C76	C	0.839689	0.070154	0.000071
C77	C	0.667577	0.178283	0.000045
C78	C	0.668343	0.241500	0.000036
N79	N	0.672304	0.074155	0.153314
N80	N	0.672349	0.074111	-0.153196
C81	C	0.711273	0.035196	0.561965
C82	C	0.711276	0.035192	0.623884
O83	O	0.744384	0.002076	0.655911
N84	N	0.672334	0.074115	0.654851
C85	C	0.633383	0.113041	0.623895
O86	O	0.600259	0.146147	0.655920
C87	C	0.633377	0.113042	0.561976
C88	C	0.672326	0.074120	0.531013
C89	C	0.750218	-0.003724	0.531001
C90	C	0.750215	-0.003719	0.469085
C91	C	0.711268	0.035206	0.438133
C92	C	0.672323	0.074125	0.469097
C93	C	0.594424	0.151965	0.531021
C94	C	0.594422	0.151962	0.469098
C95	C	0.633370	0.113040	0.438134
C96	C	0.633374	0.113054	0.376229
N97	N	0.672316	0.074131	0.345262
C98	C	0.711263	0.035207	0.376214
C99	C	0.633396	0.113035	0.753928
C100	C	0.633403	0.113037	0.815846
C101	C	0.711296	0.035187	0.815831
C102	C	0.711291	0.035188	0.753913
C103	C	0.672338	0.074112	0.722962
C104	C	0.711255	0.035220	0.246187
C105	C	0.711251	0.035230	0.184266
C106	C	0.633357	0.113078	0.184286
C107	C	0.633363	0.113071	0.246202
C108	C	0.672314	0.074137	0.277151
O109	O	0.600281	0.146152	0.344163
O110	O	0.744376	0.002101	0.344182
H111	H	0.206289	0.220908	0.000035
C112	C	0.788251	-0.041729	0.239936
C113	C	0.754072	-0.007575	0.280200
H114	H	0.814686	-0.068145	0.260935
H115	H	0.764659	-0.062090	0.215788
H116	H	0.808594	-0.018114	0.215785
H117	H	0.733725	-0.031190	0.304349
H118	H	0.777667	0.012787	0.304358
H119	H	0.525555	-0.459814	0.000009
C120	C	0.558032	-0.587318	0.050596
C121	C	0.560803	-0.621904	0.000029
H122	H	0.523037	-0.562365	0.050591
H123	H	0.559909	-0.610785	0.084892
H124	H	0.589267	-0.565341	0.050592
H125	H	0.529570	-0.643884	0.000034
H126	H	0.558921	-0.598434	-0.034277
C127	C	0.509383	-0.306999	0.050581
C128	C	0.512158	-0.341583	0.000012
H129	H	0.474389	-0.282044	0.050572
H130	H	0.511255	-0.330467	0.084876
H131	H	0.540619	-0.285023	0.050582
H132	H	0.480923	-0.363561	0.000013
H133	H	0.510280	-0.318112	-0.034292
C134	C	0.837582	-0.351731	-0.050499
C135	C	0.833993	-0.385452	0.000068
H136	H	0.873062	-0.336384	-0.050496
H137	H	0.835146	-0.374610	-0.084795
H138	H	0.806977	-0.321325	-0.050493
H139	H	0.864596	-0.415861	0.000060
H140	H	0.836435	-0.362572	0.034374
H141	H	0.138375	-0.072634	0.000103
C142	C	0.490361	-0.076883	0.000065
C143	C	0.522756	-0.030842	0.000056
H144	H	0.515322	-0.111873	0.000066
H145	H	0.466900	-0.074998	0.034367
H146	H	0.466898	-0.075005	-0.034241
H147	H	0.546216	-0.032717	0.034363
H148	H	0.546227	-0.032728	-0.034250
C149	C	0.364336	-0.035925	-0.050499
C150	C	0.398060	-0.032336	0.000063
H151	H	0.348987	-0.071404	-0.050490
H152	H	0.333936	-0.005321	-0.050495
H153	H	0.387217	-0.033494	-0.084803
H154	H	0.375178	-0.034763	0.034367
H155	H	0.428464	-0.062949	0.000065
H156	H	0.582043	-0.085909	0.000065
C157	C	0.788833	0.022384	0.684228
C158	C	0.754065	-0.007617	0.719860
H159	H	0.815232	-0.004050	0.663205
H160	H	0.765636	0.045576	0.656947
H161	H	0.809219	0.045968	0.708371
H162	H	0.733677	-0.031197	0.695717
H163	H	0.777265	-0.030818	0.747145
C164	C	0.556410	0.189987	0.809626
C165	C	0.590593	0.155825	0.849877
H166	H	0.529976	0.216398	0.830635
H167	H	0.579999	0.210353	0.785477
H168	H	0.536064	0.166376	0.785474
H169	H	0.610942	0.179435	0.874026
H170	H	0.567001	0.135457	0.874036
C171	C	0.788763	0.022378	0.114533
C172	C	0.753989	-0.007595	0.150187
H173	H	0.815125	-0.004073	0.093487
H174	H	0.765565	0.045594	0.087273
H175	H	0.809190	0.045934	0.138664
H176	H	0.733559	-0.031149	0.126056
H177	H	0.777190	-0.030821	0.177451
H178	H	0.580748	-0.193677	0.000069
C179	C	0.786607	-0.264408	0.050643
C180	C	0.783852	-0.229819	0.000077
H181	H	0.821603	-0.289360	0.050645
H182	H	0.784717	-0.240943	0.084941
H183	H	0.755373	-0.286386	0.050628
H184	H	0.815084	-0.207837	0.000094
H185	H	0.785747	-0.253287	-0.034229
C186	C	0.830446	-0.149963	0.000087
C187	C	0.785339	-0.105137	0.000089
H188	H	0.865924	-0.134612	0.000087
H189	H	0.828004	-0.172836	0.034386
H190	H	0.828007	-0.172834	-0.034221
H191	H	0.787776	-0.082268	0.034399
H192	H	0.787783	-0.082254	-0.034215
H193	H	0.817806	-0.499645	0.000061
C194	C	0.053485	0.237066	-0.050533
C195	C	0.088064	0.234311	0.000038
H196	H	0.028535	0.272063	-0.050541
H197	H	0.076957	0.235174	-0.084827
H198	H	0.031504	0.205834	-0.050520
H199	H	0.110047	0.265541	0.000022
H200	H	0.064589	0.236209	0.034341
C201	C	0.823907	-0.696434	0.000052
C202	C	0.778802	-0.651607	0.000049
H203	H	0.859386	-0.681085	0.000049
H204	H	0.821464	-0.719303	0.034356
H205	H	0.821466	-0.719310	-0.034252
H206	H	0.781241	-0.628733	0.034356
H207	H	0.781247	-0.628728	-0.034258
C208	C	0.528057	-0.727938	-0.050545
C209	C	0.559312	-0.746586	0.000027
H210	H	0.492579	-0.743290	-0.050552
H211	H	0.521107	-0.687304	-0.050537
H212	H	0.549284	-0.740584	-0.084842
H213	H	0.538085	-0.733936	0.034324
H214	H	0.566260	-0.787228	0.000025
H215	H	0.781933	-0.035423	0.556197
H216	H	0.743008	0.003492	0.841044
C217	C	0.827200	-0.080674	0.475310
C218	C	0.793022	-0.046510	0.435055
H219	H	0.853625	-0.107096	0.454303
H220	H	0.847551	-0.057070	0.499454
H221	H	0.803602	-0.101033	0.499465
H222	H	0.816620	-0.026148	0.410902
H223	H	0.772670	-0.070117	0.410901
H224	H	0.601677	0.144736	0.728731
H225	H	0.762610	-0.765821	0.000047
H226	H	0.562709	0.183658	0.556223
H227	H	-0.141947	-0.023982	0.000076
H228	H	0.562700	0.183658	0.443901
H229	H	-0.034198	-0.022693	0.000084
H230	H	0.486602	0.172255	0.000024
H231	H	0.601653	0.144770	0.271413
C232	C	0.599346	0.211843	0.165212
C233	C	0.590548	0.155861	0.150254
H234	H	0.572917	0.238252	0.144197
H235	H	0.593767	0.217413	0.206514
H236	H	0.637319	0.217831	0.155061
H237	H	0.552575	0.149872	0.160410
H238	H	0.596121	0.150289	0.108943
C239	C	0.400783	0.231692	0.000016
C240	C	0.368371	0.185664	0.000031
H241	H	0.375833	0.266689	0.000003
H242	H	0.424241	0.229815	0.034318
H243	H	0.424250	0.229792	-0.034289
H244	H	0.344908	0.187561	0.034339
H245	H	0.344903	0.187542	-0.034274
H246	H	-0.059867	0.165717	0.000055
C247	C	0.224199	-0.132064	0.000109
C248	C	0.256605	-0.086032	0.000100
H249	H	0.249152	-0.167059	0.000107
H250	H	0.200739	-0.130177	0.034412
H251	H	0.200733	-0.130180	-0.034195
H252	H	0.280067	-0.087914	0.034407
H253	H	0.280074	-0.087921	-0.034207
C254	C	-0.212695	0.181868	-0.050507
C255	C	-0.178110	0.179116	0.000058
H256	H	-0.237657	0.216858	-0.050506
H257	H	-0.189229	0.179990	-0.084805
H258	H	-0.234664	0.150626	-0.050496
H259	H	-0.156138	0.210356	0.000045
H260	H	-0.201579	0.181000	0.034365
