data_functionalizedCrystal
_audit_creation_method	'MofGen! by Chris Wilmer'
_symmetry_space_group_name_H-M	'P1'
_symmetry_Int_Tables_number	1
_symmetry_cell_setting	triclinic
loop_
_symmetry_equiv_pos_as_xyz
  x,y,z
_cell_length_a	18.101398
_cell_length_b	18.101395
_cell_length_c	16.625539
_cell_angle_alpha	89.972352
_cell_angle_beta	89.988670
_cell_angle_gamma	90.026661
loop_
_atom_site_label
_atom_site_type_symbol
_atom_site_fract_x
_atom_site_fract_y
_atom_site_fract_z
Zn1	Zn	1.132133	-0.294916	-0.455714
Zn2	Zn	1.465466	0.038417	-0.122381
Zn3	Zn	1.798799	0.371750	0.210952
Zn4	Zn	1.132025	-0.418765	-0.320883
Zn5	Zn	1.465358	-0.085432	0.012450
Zn6	Zn	1.798692	0.247901	0.345784
Zn7	Zn	1.008288	-0.294932	-0.320916
Zn8	Zn	1.341621	0.038401	0.012417
Zn9	Zn	1.674955	0.371734	0.345750
Zn10	Zn	1.008242	-0.418711	-0.455695
Zn11	Zn	1.341576	-0.085377	-0.122361
Zn12	Zn	1.674909	0.247956	0.210972
O13	O	1.070172	-0.356831	-0.388302
O14	O	1.403505	-0.023498	-0.054969
O15	O	1.736839	0.309836	0.278365
O16	O	1.235751	-0.311361	-0.437823
O17	O	1.569084	0.021972	-0.104489
O18	O	1.902418	0.355306	0.228844
O19	O	1.115585	-0.402368	-0.208055
O20	O	1.448918	-0.069035	0.125278
O21	O	1.782252	0.264299	0.458612
O22	O	1.024780	-0.191297	-0.338820
O23	O	1.358114	0.142036	-0.005487
O24	O	1.691447	0.475369	0.327847
O25	O	1.235672	-0.402352	-0.338763
O26	O	1.569005	-0.069019	-0.005429
O27	O	1.902339	0.264314	0.327904
O28	O	1.115768	-0.191285	-0.437855
O29	O	1.449102	0.142048	-0.104522
O30	O	1.782435	0.475381	0.228811
O31	O	1.024676	-0.311389	-0.208080
O32	O	1.358009	0.021945	0.125254
O33	O	1.691343	0.355278	0.458587
O34	O	0.904649	-0.311336	-0.338801
O35	O	1.237982	0.021997	-0.005468
O36	O	1.571316	0.355331	0.327866
O37	O	1.024702	-0.402260	-0.568530
O38	O	1.358036	-0.068926	-0.235196
O39	O	1.691369	0.264407	0.098137
O40	O	0.904615	-0.402275	-0.437822
O41	O	1.237949	-0.068942	-0.104488
O42	O	1.571282	0.264391	0.228845
O43	O	1.115724	-0.311308	-0.568544
O44	O	1.449057	0.022025	-0.235211
O45	O	1.782391	0.355358	0.098123
O46	O	1.115541	-0.522391	-0.338744
O47	O	1.448874	-0.189058	-0.005410
O48	O	1.782207	0.144276	0.327923
O49	O	1.024598	-0.522351	-0.437789
O50	O	1.357931	-0.189018	-0.104456
O51	O	1.691265	0.144316	0.228877
C52	C	0.877761	-0.356802	-0.388313
C53	C	1.211095	-0.023469	-0.054980
C54	C	1.544428	0.309865	0.278353
C55	C	0.795447	-0.356807	-0.388337
C56	C	1.128781	-0.023474	-0.055004
C57	C	1.462114	0.309859	0.278329
C58	C	0.496356	-0.356851	-0.388304
C59	C	0.829690	-0.023518	-0.054970
C60	C	1.163023	0.309816	0.278363
C61	C	0.527685	-0.414344	-0.450297
C62	C	0.861018	-0.081011	-0.116964
C63	C	1.194352	0.252322	0.216369
C64	C	0.613303	-0.414164	-0.450552
C65	C	0.946637	-0.080831	-0.117219
C66	C	1.279970	0.252502	0.216115
C67	C	0.644739	-0.356830	-0.388320
C68	C	0.978072	-0.023497	-0.054987
C69	C	1.311406	0.309837	0.278346
C70	C	0.613685	-0.278827	-0.411539
C71	C	0.947018	0.054506	-0.078206
C72	C	1.280352	0.387839	0.255128
C73	C	0.528040	-0.279173	-0.411980
C74	C	0.861373	0.054161	-0.078646
C75	C	1.194707	0.387494	0.254687
C76	C	0.527902	-0.376673	-0.302942
C77	C	0.861235	-0.043339	0.030392
C78	C	1.194568	0.289994	0.363725
C79	C	0.613552	-0.378384	-0.303398
C80	C	0.946885	-0.045051	0.029936
C81	C	1.280218	0.288282	0.363269
C82	C	0.728598	-0.356813	-0.388328
C83	C	1.061932	-0.023480	-0.054995
C84	C	1.395265	0.309853	0.278338
C85	C	0.412497	-0.356862	-0.388297
C86	C	0.745830	-0.023529	-0.054964
C87	C	1.079163	0.309804	0.278369
C88	C	1.070073	-0.549242	-0.388278
C89	C	1.403406	-0.215908	-0.054945
C90	C	1.736740	0.117425	0.278388
C91	C	1.070098	-0.631556	-0.388295
C92	C	1.403432	-0.298222	-0.054962
C93	C	1.736765	0.035111	0.278371
C94	C	1.070261	-0.930647	-0.388339
C95	C	1.403594	-0.597313	-0.055005
C96	C	1.736927	-0.263980	0.278328
C97	C	1.013175	-0.899327	-0.450810
C98	C	1.346508	-0.565994	-0.117477
C99	C	1.679841	-0.232661	0.215857
C100	C	1.012903	-0.813709	-0.450615
C101	C	1.346237	-0.480376	-0.117281
C102	C	1.679570	-0.147043	0.216052
C103	C	1.070180	-0.782264	-0.388318
C104	C	1.403513	-0.448931	-0.054984
C105	C	1.736847	-0.115598	0.278349
C106	C	1.049049	-0.813414	-0.303344
C107	C	1.382382	-0.480081	0.029990
C108	C	1.715715	-0.146748	0.363323
C109	C	1.048681	-0.899060	-0.303717
C110	C	1.382014	-0.565726	0.029616
C111	C	1.715347	-0.232393	0.362949
C112	C	1.148603	-0.898996	-0.410093
C113	C	1.481936	-0.565663	-0.076760
C114	C	1.815270	-0.232330	0.256573
C115	C	1.148142	-0.813345	-0.411957
C116	C	1.481476	-0.480012	-0.078624
C117	C	1.814809	-0.146679	0.254710
C118	C	1.070136	-0.698405	-0.388301
C119	C	1.403469	-0.365071	-0.054967
C120	C	1.736802	-0.031738	0.278366
C121	C	1.070303	-1.014506	-0.388350
C122	C	1.403637	-0.681173	-0.055017
C123	C	1.736970	-0.347839	0.278317
C124	C	1.263334	-0.356861	-0.388291
C125	C	1.596667	-0.023528	-0.054958
C126	C	1.930000	0.309806	0.278375
C127	C	1.345648	-0.356874	-0.388287
C128	C	1.678981	-0.023540	-0.054953
C129	C	2.012315	0.309793	0.278380
C130	C	1.070220	-0.356776	-0.598611
C131	C	1.403553	-0.023443	-0.265278
C132	C	1.736887	0.309891	0.068056
C133	C	1.070241	-0.356752	-0.688232
C134	C	1.403574	-0.023419	-0.354899
C135	C	1.736907	0.309914	-0.021566
C136	C	1.070292	-0.163669	-0.388344
C137	C	1.403625	0.169664	-0.055010
C138	C	1.736958	0.502997	0.278323
C139	C	1.070343	-0.081355	-0.388361
C140	C	1.403676	0.251978	-0.055028
C141	C	1.737009	0.585312	0.278306
C142	C	1.070275	-0.356670	-1.016408
C143	C	1.403608	-0.023336	-0.683075
C144	C	1.736941	0.309997	-0.349741
C145	C	1.070263	-0.356695	-0.925100
C146	C	1.403597	-0.023362	-0.591766
C147	C	1.736930	0.309972	-0.258433
C148	C	1.070258	-0.356712	-0.852323
C149	C	1.403591	-0.023378	-0.518990
C150	C	1.736925	0.309955	-0.185656
C151	C	1.070246	-0.356736	-0.761009
C152	C	1.403579	-0.023403	-0.427675
C153	C	1.736912	0.309931	-0.094342
C154	C	1.070167	-0.356833	-0.178811
C155	C	1.403500	-0.023499	0.154522
C156	C	1.736833	0.309834	0.487855
C157	C	1.070290	-0.356648	-0.089191
C158	C	1.403623	-0.023314	0.244143
C159	C	1.736956	0.310019	0.577476
H160	H	0.634298	-0.472007	-0.436000
H161	H	0.967631	-0.138674	-0.102667
H162	H	1.300965	0.194659	0.230667
H163	H	0.634048	-0.234829	-0.367794
H164	H	0.967381	0.098504	-0.034461
H165	H	1.300715	0.431837	0.298873
Br166	Br	0.647485	-0.392306	-0.555970
Br167	Br	0.980818	-0.058973	-0.222637
Br168	Br	1.314152	0.274361	0.110697
Br169	Br	0.494768	-0.251152	-0.515989
Br170	Br	0.828101	0.082181	-0.182655
Br171	Br	1.161435	0.415514	0.150678
H172	H	0.506176	-0.401396	-0.513179
H173	H	0.839510	-0.068063	-0.179846
H174	H	1.172843	0.265271	0.153487
H175	H	1.089319	-0.793047	-0.255529
H176	H	1.422653	-0.459714	0.077804
H177	H	1.755986	-0.126381	0.411138
Br178	Br	0.649460	-0.250296	-0.514418
Br179	Br	0.982793	0.083037	-0.181085
Br180	Br	1.316127	0.416371	0.152248
H181	H	1.026265	-0.919876	-0.514022
H182	H	1.359598	-0.586542	-0.180689
H183	H	1.692931	-0.253209	0.152645
H184	H	0.955459	-0.920909	-0.436582
H185	H	1.288792	-0.587576	-0.103249
H186	H	1.622125	-0.254243	0.230084
H187	H	0.954834	-0.793282	-0.436205
H188	H	1.288168	-0.459948	-0.102872
H189	H	1.621501	-0.126615	0.230461
Br190	Br	0.493495	-0.205357	-0.340006
Br191	Br	0.826829	0.127976	-0.006673
Br192	Br	1.160162	0.461309	0.326661
Br193	Br	0.491863	-0.469846	-0.267762
Br194	Br	0.825197	-0.136513	0.065571
Br195	Br	1.158530	0.196821	0.398905
Br196	Br	0.953232	-0.932463	-0.272998
Br197	Br	1.286565	-0.599130	0.060335
Br198	Br	1.619898	-0.265796	0.393668
H199	H	0.634950	-0.339550	-0.254727
H200	H	0.968284	-0.006216	0.078606
H201	H	1.301617	0.327117	0.411939
Br202	Br	1.034937	-0.778598	-0.555633
Br203	Br	1.368271	-0.445264	-0.222299
Br204	Br	1.701604	-0.111931	0.111034
Br205	Br	0.647376	-0.474060	-0.274214
Br206	Br	0.980709	-0.140727	0.059119
Br207	Br	1.314043	0.192607	0.392453
Br208	Br	0.494134	-0.306876	-0.225952
Br209	Br	0.827468	0.026457	0.107381
Br210	Br	1.160801	0.359791	0.440714
H211	H	1.088456	-0.919780	-0.255585
H212	H	1.421789	-0.586447	0.077748
H213	H	1.755123	-0.253114	0.411082
Br214	Br	1.174706	-0.779410	-0.516190
Br215	Br	1.508039	-0.446077	-0.182857
Br216	Br	1.841372	-0.112744	0.150477
H217	H	1.167868	-0.920546	-0.471000
H218	H	1.501202	-0.587212	-0.137667
H219	H	1.834535	-0.253879	0.195667
H220	H	0.992387	-0.792025	-0.284583
H221	H	1.325721	-0.458692	0.048751
H222	H	1.659054	-0.125359	0.382084
Br223	Br	1.222788	-0.777657	-0.341653
Br224	Br	1.556122	-0.444323	-0.008319
Br225	Br	1.889455	-0.110990	0.325014
H226	H	0.507069	-0.472376	-0.435908
H227	H	0.840403	-0.139043	-0.102575
H228	H	1.173736	0.194290	0.230759
Br229	Br	1.219495	-0.932768	-0.334270
Br230	Br	1.552828	-0.599435	-0.000937
Br231	Br	1.886162	-0.266101	0.332396
