data_functionalizedCrystal
_audit_creation_method	'MofGen! by Chris Wilmer'
_symmetry_space_group_name_H-M	'P1'
_symmetry_Int_Tables_number	1
_symmetry_cell_setting	triclinic
loop_
_symmetry_equiv_pos_as_xyz
  x,y,z
_cell_length_a	14.044220
_cell_length_b	14.044220
_cell_length_c	12.503552
_cell_angle_alpha	93.839891
_cell_angle_beta	93.839943
_cell_angle_gamma	86.811122
loop_
_atom_site_label
_atom_site_type_symbol
_atom_site_fract_x
_atom_site_fract_y
_atom_site_fract_z
O1	O	0.225121	-1.282207	-0.089210
O2	O	0.216814	-1.005537	-0.089237
O3	O	0.082632	-1.139718	-0.089214
O4	O	0.359303	-1.148025	-0.089234
O5	O	0.092732	-1.129615	0.089427
O6	O	0.226914	-0.995434	0.089403
O7	O	0.235221	-1.272104	0.089430
Cu8	Cu	0.231989	-1.132846	0.105728
Cu9	Cu	0.220045	-1.144794	-0.105535
O10	O	0.369402	-1.137922	0.089407
C11	C	0.052060	-1.131031	0.000107
C12	C	-0.054082	-1.120187	0.000107
C13	C	0.218228	-0.964864	0.000080
C14	C	0.207383	-0.858721	0.000070
C15	C	0.233807	-1.312777	0.000111
C16	C	0.244651	-1.418920	0.000114
C17	C	-0.248421	-1.100361	0.000090
C18	C	-0.299551	-1.177275	0.000094
C19	C	-0.407687	-1.166244	0.000084
C20	C	-0.140274	-1.111391	0.000099
C21	C	0.399974	-1.146609	0.000084
C22	C	0.506117	-1.157454	0.000077
N23	N	0.240390	-1.124449	0.254319
C24	C	0.187558	-0.664382	0.000092
C25	C	0.264472	-0.613253	0.000091
C26	C	0.253441	-0.505116	0.000104
C27	C	0.198587	-0.772529	0.000080
N28	N	0.211637	-1.153198	-0.254126
C29	C	0.199276	-1.165545	0.526760
C30	C	0.252749	-1.112106	0.473426
C31	C	0.245871	-1.118975	0.351504
C32	C	0.206153	-1.158676	0.648693
H33	H	-0.285859	-1.026234	0.000080
O34	O	0.352942	-0.657863	0.000255
C35	C	0.408083	-0.625902	0.092750
H36	H	0.358663	-0.597111	0.157437
H37	H	0.455456	-0.687986	0.123780
H38	H	0.454718	-0.566767	0.071829
O39	O	0.099189	-0.619578	0.000049
C40	C	0.107712	-0.520018	0.000084
H41	H	0.178365	-0.504967	-0.033732
H42	H	0.046034	-0.487519	-0.051780
H43	H	0.105627	-0.487063	0.085789
O44	O	0.138565	-1.226418	0.472133
C45	C	0.163626	-1.320725	0.499504
H46	H	0.204954	-1.319191	0.581190
H47	H	0.096053	-1.361441	0.503217
H48	H	0.210136	-1.357801	0.436241
O49	O	0.313407	-1.051316	0.528300
C50	C	0.260923	-0.984434	0.593341
H51	H	0.190355	-1.015162	0.610058
H52	H	0.303896	-0.968338	0.672475
H53	H	0.246078	-0.915719	0.550086
O54	O	-0.254739	-1.265645	0.000161
C55	C	-0.155181	-1.257134	0.000142
H56	H	-0.136309	-1.182658	0.033949
H57	H	-0.116835	-1.312948	0.052022
H58	H	-0.131895	-1.268914	-0.085557
