data_functionalizedCrystal
_audit_creation_method	'MofGen! by Chris Wilmer'
_symmetry_space_group_name_H-M	'P1'
_symmetry_Int_Tables_number	1
_symmetry_cell_setting	triclinic
loop_
_symmetry_equiv_pos_as_xyz
  x,y,z
_cell_length_a	11.792241
_cell_length_b	19.188930
_cell_length_c	10.268362
_cell_angle_alpha	89.989600
_cell_angle_beta	89.999626
_cell_angle_gamma	83.669099
loop_
_atom_site_label
_atom_site_type_symbol
_atom_site_fract_x
_atom_site_fract_y
_atom_site_fract_z
O1	O	1.505476	0.095695	-0.108190
O2	O	1.174988	0.105558	-0.108222
O3	O	1.349769	-0.000975	-0.108179
O4	O	1.330695	0.202228	-0.108232
O5	O	1.349754	-0.000980	0.108421
O6	O	1.174973	0.105553	0.108379
O7	O	1.505461	0.095691	0.108411
Cu8	Cu	1.340216	0.100622	0.128172
Cu9	Cu	1.340233	0.100627	-0.127983
O10	O	1.330680	0.202224	0.108368
C11	C	1.132699	0.104936	0.000075
C12	C	1.006713	0.103082	0.000064
C13	C	0.776051	0.099672	0.000102
C14	C	0.904408	0.101566	0.000081
C15	C	1.349144	-0.026992	0.000125
C16	C	1.347290	-0.104507	0.000136
C17	C	1.449846	-0.148850	0.000152
C18	C	1.448104	-0.221684	0.000131
C19	C	1.343800	-0.250171	0.000120
C20	C	1.241230	-0.205818	0.000096
C21	C	1.242975	-0.132986	0.000104
N22	N	1.264067	-0.358629	0.073825
N23	N	1.262416	-0.427817	0.073820
C24	C	1.338536	-0.469609	0.000093
N25	N	1.416387	-0.439602	-0.073614
N26	N	1.418041	-0.370407	-0.073603
C27	C	1.341896	-0.329144	0.000110
C28	C	1.439211	-0.592928	0.000084
C29	C	1.437464	-0.665762	0.000055
C30	C	1.230588	-0.649895	0.000034
C31	C	1.232337	-0.577062	0.000050
C32	C	1.336652	-0.548583	0.000081
C33	C	1.547751	0.096313	0.000111
C34	C	1.673737	0.098167	0.000114
C35	C	1.331305	0.228240	0.000062
C36	C	1.333159	0.305755	0.000042
N37	N	1.340211	0.100617	0.308338
N38	N	1.340247	0.100625	-0.308149
C39	C	1.340228	0.100625	0.574009
C40	C	1.340215	0.100623	0.426171
H41	H	1.534787	-0.125667	0.000173
O42	O	1.129236	-0.677524	-0.000209
C43	C	0.951868	-0.686196	-0.112409
C44	C	1.066623	-0.654869	-0.112304
H45	H	0.901203	-0.667879	-0.203015
H46	H	0.968165	-0.745871	-0.112500
H47	H	0.901245	-0.667987	-0.021725
H48	H	1.117305	-0.673024	-0.202973
H49	H	1.050246	-0.595197	-0.112146
H50	H	1.159459	-0.096881	0.000091
O51	O	1.540635	-0.565373	0.000034
C52	C	1.745640	-0.588796	0.000105
C53	C	1.630859	-0.620091	0.000138
H54	H	1.818616	-0.633020	0.000217
H55	H	1.751704	-0.555107	-0.090559
H56	H	1.751570	-0.555083	0.090735
H57	H	1.624852	-0.653836	-0.090430
H58	H	1.624844	-0.653740	0.090863
H59	H	1.156305	-0.229017	0.000084
O60	O	1.547836	-0.264669	0.000208
C61	C	1.753210	-0.272726	0.000176
C62	C	1.640350	-0.223968	0.000118
H63	H	1.828037	-0.239839	0.000076
H64	H	1.757625	-0.307217	0.090844
H65	H	1.757512	-0.307225	-0.090450
H66	H	1.635973	-0.189425	0.090684
H67	H	1.635982	-0.189525	-0.090609
O68	O	1.537064	-0.708867	-0.000165
C69	C	1.655143	-0.800313	-0.112341
C70	C	1.542314	-0.751525	-0.112266
H71	H	1.659413	-0.834824	-0.202950
H72	H	1.730035	-0.767476	-0.112400
H73	H	1.659473	-0.834790	-0.021660
H74	H	1.537873	-0.717038	-0.202931
H75	H	1.467475	-0.784404	-0.112139
H76	H	1.148825	-0.540957	0.000044
