data_functionalizedCrystal
_audit_creation_method	'MofGen! by Chris Wilmer'
_symmetry_space_group_name_H-M	'P1'
_symmetry_Int_Tables_number	1
_symmetry_cell_setting	triclinic
loop_
_symmetry_equiv_pos_as_xyz
  x,y,z
_cell_length_a	18.050591
_cell_length_b	18.050589
_cell_length_c	18.050583
_cell_angle_alpha	89.968291
_cell_angle_beta	90.020859
_cell_angle_gamma	89.968854
loop_
_atom_site_label
_atom_site_type_symbol
_atom_site_fract_x
_atom_site_fract_y
_atom_site_fract_z
Zn1	Zn	1.135267	0.295677	0.420032
Zn2	Zn	1.635267	0.795677	0.920032
Zn3	Zn	1.135161	0.419890	0.295852
Zn4	Zn	1.635161	0.919890	0.795852
Zn5	Zn	1.011084	0.295710	0.295846
Zn6	Zn	1.511084	0.795710	0.795846
Zn7	Zn	1.011020	0.419822	0.419990
Zn8	Zn	1.511020	0.919822	0.919990
O9	O	1.073133	0.357774	0.357930
O10	O	1.573133	0.857774	0.857930
O11	O	1.239178	0.312168	0.403579
O12	O	1.739178	0.812168	0.903579
O13	O	1.118685	0.403459	0.191926
O14	O	1.618685	0.903459	0.691926
O15	O	1.027628	0.191781	0.312334
O16	O	1.527628	0.691781	0.812334
O17	O	1.239100	0.403427	0.312345
O18	O	1.739100	0.903427	0.812345
O19	O	1.118865	0.191756	0.403573
O20	O	1.618865	0.691756	0.903573
O21	O	1.027526	0.312225	0.191922
O22	O	1.527526	0.812225	0.691922
O23	O	0.907151	0.312159	0.312293
O24	O	1.407151	0.812159	0.812293
O25	O	1.027520	0.403311	0.523920
O26	O	1.527520	0.903311	1.023920
O27	O	0.907104	0.403344	0.403502
O28	O	1.407104	0.903344	0.903502
O29	O	1.118803	0.312102	0.523951
O30	O	1.618803	0.812102	1.023951
O31	O	1.118623	0.523805	0.312304
O32	O	1.618623	1.023805	0.812304
O33	O	1.027417	0.523755	0.403508
O34	O	1.527417	1.023755	0.903508
C35	C	0.880181	0.357748	0.357893
C36	C	1.380181	0.857748	0.857893
C37	C	0.797635	0.357755	0.357894
C38	C	1.297635	0.857755	0.857894
C39	C	0.548814	0.308118	0.308413
C40	C	1.048814	0.808118	0.808413
C41	C	0.598249	0.290020	0.376187
C42	C	1.098249	0.790020	0.876187
C43	C	0.500515	0.357793	0.357955
C44	C	1.000515	0.857793	0.857955
C45	C	0.598161	0.375836	0.290154
C46	C	1.098161	0.875836	0.790154
C47	C	0.646500	0.357772	0.357922
C48	C	1.146500	0.857772	0.857922
C49	C	0.548863	0.339661	0.425766
C50	C	1.048863	0.839661	0.925766
C51	C	0.548771	0.425508	0.339687
C52	C	1.048771	0.925508	0.839687
C53	C	0.598184	0.407437	0.407509
C54	C	1.098184	0.907437	0.907509
C55	C	0.416417	0.357803	0.357973
C56	C	0.916417	0.857803	0.857973
C57	C	0.730597	0.357763	0.357911
C58	C	1.230597	0.857763	0.857911
C59	C	1.073022	0.550727	0.357918
C60	C	1.573022	1.050727	0.857918
C61	C	1.073042	0.633272	0.357938
C62	C	1.573042	1.133272	0.857938
C63	C	1.023470	0.832723	0.407518
C64	C	1.523470	1.332723	0.907518
C65	C	1.005366	0.882172	0.339749
C66	C	1.505366	1.382172	0.839749
C67	C	1.073098	0.784403	0.357948
C68	C	1.573098	1.284403	0.857948
C69	C	1.091222	0.882035	0.425725
C70	C	1.591222	1.382035	0.925725
C71	C	1.073150	0.930388	0.357964
C72	C	1.573150	1.430388	0.857964
C73	C	1.054958	0.832765	0.290144
C74	C	1.554958	1.332765	0.790144
C75	C	1.140846	0.832624	0.376165
C76	C	1.640846	1.332624	0.876165
C77	C	1.122767	0.882050	0.308350
C78	C	1.622767	1.382050	0.808350
C79	C	1.073066	0.700304	0.357940
C80	C	1.573066	1.200304	0.857940
C81	C	1.073183	1.014484	0.357965
C82	C	1.573183	1.514484	0.857965
C83	C	1.266839	0.357801	0.357968
C84	C	1.766839	0.857801	0.857968
C85	C	1.349385	0.357813	0.357984
C86	C	1.849385	0.857813	0.857984
C87	C	1.073166	0.357695	0.551636
C88	C	1.573166	0.857695	1.051636
C89	C	1.073180	0.357661	0.634181
C90	C	1.573180	0.857661	1.134181
C91	C	1.073237	1.164069	0.357959
C92	C	1.573237	1.664069	0.857959
C93	C	1.073209	1.081523	0.357973
C94	C	1.573209	1.581523	0.857973
C95	C	1.073143	0.357800	0.164978
C96	C	1.573143	0.857800	0.664978
C97	C	1.073273	0.357624	0.082432
C98	C	1.573273	0.857624	0.582432
C99	C	1.122870	0.308038	0.833649
C100	C	1.622870	0.808038	1.333649
C101	C	1.055138	0.289858	0.883037
C102	C	1.555138	0.789858	1.383037
C103	C	1.073210	0.357649	0.785312
C104	C	1.573210	0.857649	1.285312
C105	C	1.140969	0.375782	0.883006
C106	C	1.640969	0.875782	1.383006
C107	C	1.073245	0.357635	0.931297
C108	C	1.573245	0.857635	1.431297
C109	C	1.005442	0.339433	0.833612
C110	C	1.505442	0.839433	1.333612
C111	C	1.091318	0.425389	0.833577
C112	C	1.591318	0.925389	1.333577
C113	C	1.023540	0.407234	0.882943
C114	C	1.523540	0.907234	1.382943
C115	C	1.073191	0.357655	0.701213
C116	C	1.573191	0.857655	1.201213
C117	C	1.073256	0.357629	1.015394
C118	C	1.573256	0.857629	1.515394
H119	H	0.527023	0.482766	0.324226
H120	H	1.027023	0.982766	0.824226
H121	H	0.527138	0.266086	0.266582
H122	H	1.027138	0.766086	0.766582
H123	H	0.619818	0.391106	0.232830
H124	H	1.119818	0.891106	0.732830
H125	H	0.981448	0.811063	0.449378
H126	H	1.481448	1.311063	0.949378
H127	H	0.981511	0.449183	0.904450
H128	H	1.481511	0.949183	1.404450
H129	H	1.164758	0.903573	0.266389
H130	H	1.664758	1.403573	0.766389
H131	H	0.948099	0.903952	0.324355
H132	H	1.448099	1.403952	0.824355
H133	H	1.106645	0.482665	0.811837
H134	H	1.606645	0.982665	1.311837
H135	H	0.948138	0.324024	0.812007
H136	H	1.448138	0.824024	1.312007
H137	H	1.198100	0.810845	0.391592
H138	H	1.698100	1.310845	0.891592
H139	H	0.619968	0.232744	0.391638
H140	H	1.119968	0.732744	0.891638
H141	H	0.527298	0.324324	0.483107
H142	H	1.027298	0.824324	0.983107
H143	H	1.198257	0.391124	0.904705
H144	H	1.698257	0.891124	1.404705
H145	H	1.039582	0.811211	0.232816
H146	H	1.539582	1.311211	0.732816
H147	H	1.106532	0.903678	0.483037
H148	H	1.606532	1.403678	0.983037
H149	H	0.619724	0.449437	0.449439
H150	H	1.119724	0.949437	0.949439
H151	H	1.164797	0.266058	0.812002
H152	H	1.664797	0.766058	1.312002
H153	H	1.039832	0.232565	0.904762
H154	H	1.539832	0.732565	1.404762
