data_functionalizedCrystal
_audit_creation_method	'MofGen! by Chris Wilmer'
_symmetry_space_group_name_H-M	'P1'
_symmetry_Int_Tables_number	1
_symmetry_cell_setting	triclinic
loop_
_symmetry_equiv_pos_as_xyz
  x,y,z
_cell_length_a	13.032891
_cell_length_b	13.032721
_cell_length_c	11.169417
_cell_angle_alpha	82.831859
_cell_angle_beta	97.173550
_cell_angle_gamma	90.903621
loop_
_atom_site_label
_atom_site_type_symbol
_atom_site_fract_x
_atom_site_fract_y
_atom_site_fract_z
Zn1	Zn	1.519987	-0.609602	0.988811
Zn2	Zn	1.498074	-0.781536	0.809995
Zn3	Zn	1.348063	-0.587715	0.759911
Zn4	Zn	1.326138	-0.759650	0.982403
O5	O	1.423066	-0.684625	0.885280
O6	O	1.660987	-0.650728	0.988732
O7	O	1.478180	-0.755825	0.635402
O8	O	1.389216	-0.446708	0.771996
O9	O	1.644887	-0.777047	0.857357
O10	O	1.515528	-0.462788	0.940168
O11	O	1.367968	-0.613425	0.598605
O12	O	1.201248	-0.592203	0.765783
O13	O	1.351847	-0.739746	1.151202
O14	O	1.185140	-0.718523	0.929247
O15	O	1.494267	-0.629506	1.155909
O16	O	1.456920	-0.922543	0.851144
O17	O	1.330599	-0.906463	0.977811
C18	C	1.155881	-0.650614	0.841386
C19	C	1.041574	-0.636088	0.822639
C20	C	0.864516	-0.677200	0.875700
C21	C	0.982657	-0.692218	0.895074
C22	C	1.389030	-0.951821	0.919248
C23	C	1.374564	-1.066140	0.933835
C24	C	1.430670	-1.125036	0.877729
C25	C	1.415720	-1.243191	0.892805
C26	C	1.691294	-0.718771	0.929346
C27	C	1.805597	-0.733321	0.948124
C28	C	1.423056	-0.684626	1.198321
C29	C	1.423051	-0.684626	1.331720
C30	C	1.457262	-0.416390	0.851210
C31	C	1.471835	-0.302085	0.836691
C32	C	1.423061	-0.684642	1.573457
C33	C	1.423054	-0.684628	1.440054
H34	H	0.842617	-0.792482	1.024477
O35	O	1.508970	-1.075977	0.799321
H36	H	1.587087	-1.106734	0.835851
O37	O	1.337426	-1.292257	0.971224
H38	H	1.298606	-1.231143	1.010036
O39	O	1.550139	-1.253024	0.758283
H40	H	1.529990	-1.271400	0.663796
H41	H	1.315464	-1.103192	0.993035
O42	O	0.815471	-0.598836	0.774563
H43	H	0.846287	-0.520737	0.788382
O44	O	1.031675	-0.770584	0.996232
H45	H	1.116775	-0.770079	0.995578
H46	H	1.004561	-0.576913	0.746290
