data_functionalizedCrystal
_audit_creation_method	'MofGen! by Chris Wilmer'
_symmetry_space_group_name_H-M	'P1'
_symmetry_Int_Tables_number	1
_symmetry_cell_setting	triclinic
loop_
_symmetry_equiv_pos_as_xyz
  x,y,z
_cell_length_a	14.971486
_cell_length_b	19.188930
_cell_length_c	13.448316
_cell_angle_alpha	89.988273
_cell_angle_beta	89.998199
_cell_angle_gamma	83.379455
loop_
_atom_site_label
_atom_site_type_symbol
_atom_site_fract_x
_atom_site_fract_y
_atom_site_fract_z
O1	O	1.186467	0.090988	-0.082589
O2	O	1.686467	0.590988	0.417411
O3	O	0.926009	0.101884	-0.082618
O4	O	1.426009	0.601884	0.417382
O5	O	1.063754	-0.005195	-0.082583
O6	O	1.563754	0.494805	0.417417
O7	O	1.048722	0.198067	-0.082624
O8	O	1.548722	0.698067	0.417376
O9	O	1.063737	-0.005202	0.082801
O10	O	1.563737	0.494798	0.582801
O11	O	0.925992	0.101877	0.082766
O12	O	1.425992	0.601877	0.582766
O13	O	1.186450	0.090981	0.082795
O14	O	1.686450	0.590981	0.582795
Cu15	Cu	1.056219	0.096429	0.097881
Cu16	Cu	1.556219	0.596429	0.597881
Cu17	Cu	1.056239	0.096437	-0.097704
Cu18	Cu	1.556239	0.596437	0.402296
O19	O	1.048704	0.198061	0.082760
O20	O	1.548704	0.698061	0.582760
C21	C	0.892678	0.101393	0.000071
C22	C	1.392678	0.601393	0.500071
C23	C	0.793389	0.099933	0.000061
C24	C	1.293389	0.599933	0.500061
C25	C	0.735831	0.162839	0.000050
C26	C	1.235831	0.662839	0.500050
C27	C	0.642539	0.161463	0.000065
C28	C	1.142539	0.661463	0.500065
C29	C	0.606806	0.097180	0.000084
C30	C	1.106806	0.597180	0.500084
C31	C	0.664371	0.034269	0.000098
C32	C	1.164371	0.534269	0.500098
C33	C	0.757662	0.035646	0.000090
C34	C	1.257662	0.535646	0.500090
C35	C	0.469924	0.031403	0.000112
C36	C	0.969924	0.531403	0.500112
C37	C	0.376627	0.030026	0.000119
C38	C	0.876627	0.530026	0.500119
C39	C	0.354801	0.157221	0.000087
C40	C	0.854801	0.657221	0.500087
C41	C	0.448092	0.158598	0.000079
C42	C	0.948092	0.658598	0.500079
C43	C	0.505650	0.095686	0.000091
C44	C	1.005650	0.595686	0.500091
C45	C	1.063259	-0.031211	0.000112
C46	C	1.563259	0.468789	0.500112
C47	C	1.061797	-0.108721	0.000120
C48	C	1.561797	0.391279	0.500120
C49	C	1.142622	-0.153384	0.000134
C50	C	1.642622	0.346616	0.500134
C51	C	1.141249	-0.226213	0.000118
C52	C	1.641249	0.273787	0.500118
C53	C	1.059047	-0.254374	0.000108
C54	C	1.559047	0.245626	0.500108
C55	C	0.978212	-0.209700	0.000089
C56	C	1.478212	0.290300	0.500089
C57	C	0.979587	-0.136874	0.000095
C58	C	1.479587	0.363126	0.500095
N59	N	0.996208	-0.362583	0.056384
N60	N	1.496208	0.137417	0.556384
N61	N	0.994907	-0.431766	0.056381
N62	N	1.494907	0.068234	0.556381
C63	C	1.054899	-0.473796	0.000087
C64	C	1.554899	0.026204	0.500087
N65	N	1.116254	-0.444030	-0.056190
N66	N	1.616254	0.055970	0.443810
N67	N	1.117558	-0.374842	-0.056182
N68	N	1.617558	0.125158	0.443818
C69	C	1.057547	-0.333341	0.000101
C70	C	1.557547	0.166659	0.500101
C71	C	1.134240	-0.597429	0.000082
C72	C	1.634240	-0.097429	0.500082
C73	C	1.132864	-0.670258	0.000060
C74	C	1.632864	-0.170258	0.500060
C75	C	0.969825	-0.653744	0.000041
C76	C	1.469825	-0.153744	0.500041
C77	C	0.971203	-0.580916	0.000053
C78	C	1.471203	-0.080916	0.500053
C79	C	1.053413	-0.552763	0.000078
C80	C	1.553413	-0.052763	0.500078
C81	C	1.219780	0.091472	0.000104
C82	C	1.719780	0.591472	0.500104
C83	C	1.319070	0.092932	0.000107
C84	C	1.819070	0.592932	0.500107
C85	C	1.049200	0.224077	0.000063
C86	C	1.549200	0.724077	0.500063
C87	C	1.050661	0.301586	0.000048
C88	C	1.550661	0.801586	0.500048
N89	N	1.056211	0.096423	0.235446
N90	N	1.556211	0.596423	0.735446
N91	N	1.056254	0.096437	-0.235268
N92	N	1.556254	0.596437	0.264732
C93	C	1.117224	0.049028	0.287501
C94	C	1.617224	0.549028	0.787501
C95	C	1.117229	0.049027	0.391604
C96	C	1.617229	0.549027	0.891604
C97	C	1.056226	0.096426	0.443650
C98	C	1.556226	0.596426	0.943650
C99	C	0.995207	0.143823	0.391587
C100	C	1.495207	0.643823	0.891587
C101	C	0.995198	0.143820	0.287486
C102	C	1.495198	0.643820	0.787486
C103	C	0.995232	0.143828	0.608567
C104	C	1.495232	0.643828	1.108567
C105	C	0.995242	0.143832	0.712676
C106	C	1.495242	0.643832	1.212676
C107	C	1.117263	0.049035	0.712686
C108	C	1.617263	0.549035	1.212686
C109	C	1.117254	0.049032	0.608585
C110	C	1.617254	0.549032	1.108585
C111	C	1.056236	0.096430	0.556529
C112	C	1.556236	0.596430	1.056529
H113	H	0.635271	-0.018072	0.000128
H114	H	1.135271	0.481928	0.500128
F115	F	1.182157	-0.001418	0.232120
F116	F	1.682157	0.498582	0.732120
H117	H	0.516786	-0.019826	0.000124
H118	H	1.016786	0.480174	0.500124
F119	F	0.818919	-0.031308	0.000106
F120	F	1.318919	0.468692	0.500106
H121	H	0.945515	0.182413	0.245103
H122	H	1.445515	0.682413	0.745103
F123	F	0.486119	0.227015	0.000049
F124	F	0.986119	0.727015	0.500049
H125	H	0.945542	0.182423	0.566187
H126	H	1.445542	0.682423	1.066187
F127	F	0.773852	0.231259	0.000023
F128	F	1.273852	0.731259	0.500023
F129	F	0.890727	-0.239672	0.000072
F130	F	1.390727	0.260328	0.500072
F131	F	1.230117	-0.123426	0.000139
F132	F	1.730117	0.376574	0.500139
F133	F	0.581285	0.228417	0.000049
F134	F	1.081285	0.728417	0.500049
F135	F	0.930278	0.194266	0.446979
F136	F	1.430278	0.694266	0.946979
F137	F	1.227277	-0.273756	0.000130
F138	F	1.727277	0.226244	0.500130
H139	H	1.166909	0.010434	0.433988
H140	H	1.666909	0.510434	0.933988
H141	H	0.307932	0.208445	0.000082
H142	H	0.807932	0.708445	0.500082
F143	F	0.338600	-0.038391	0.000165
F144	F	0.838600	0.461609	0.500165
H145	H	0.913768	-0.100507	0.000084
H146	H	1.413768	0.399493	0.500084
H147	H	0.902894	-0.676672	0.000028
H148	H	1.402894	-0.176672	0.500028
H149	H	1.201180	-0.574506	0.000098
H150	H	1.701180	-0.074506	0.500098
H151	H	1.198683	-0.706623	0.000065
H152	H	1.698683	-0.206623	0.500065
F153	F	1.182184	-0.001410	0.553193
F154	F	1.682184	0.498590	1.053193
F155	F	0.885178	-0.533380	0.000043
F156	F	1.385178	-0.033380	0.500043
H157	H	1.166946	0.010442	0.755076
H158	H	1.666946	0.510442	1.255076
F159	F	0.930312	0.194280	0.768060
F160	F	1.430312	0.694280	1.268060
