data_functionalizedCrystal
_audit_creation_method	'MofGen! by Chris Wilmer'
_symmetry_space_group_name_H-M	'P1'
_symmetry_Int_Tables_number	1
_symmetry_cell_setting	triclinic
loop_
_symmetry_equiv_pos_as_xyz
  x,y,z
_cell_length_a	18.050589
_cell_length_b	11.169417
_cell_length_c	18.050582
_cell_angle_alpha	90.013423
_cell_angle_beta	89.981795
_cell_angle_gamma	89.972841
loop_
_atom_site_label
_atom_site_type_symbol
_atom_site_fract_x
_atom_site_fract_y
_atom_site_fract_z
Zn1	Zn	-0.295728	-1.834715	-0.419905
Zn2	Zn	-0.419911	-1.834571	-0.295725
Zn3	Zn	-0.295737	-1.634030	-0.295733
Zn4	Zn	-0.419878	-1.633946	-0.419877
O5	O	-0.357813	-1.734316	-0.357810
O6	O	-0.312211	-2.002646	-0.403441
O7	O	-0.403457	-1.807944	-0.191801
O8	O	-0.191811	-1.660747	-0.312220
O9	O	-0.403448	-2.002540	-0.312206
O10	O	-0.191804	-1.808190	-0.403449
O11	O	-0.312227	-1.660607	-0.191807
O12	O	-0.312195	-1.466069	-0.312192
O13	O	-0.403392	-1.660604	-0.523805
O14	O	-0.403401	-1.466008	-0.403400
O15	O	-0.312179	-1.808108	-0.523826
O16	O	-0.523831	-1.807862	-0.312178
O17	O	-0.523807	-1.660464	-0.403392
C18	C	-0.357796	-1.422491	-0.357794
C19	C	-0.357806	-1.289091	-0.357805
C20	C	-0.550766	-1.734171	-0.357798
C21	C	-0.633311	-1.734219	-0.357817
C22	C	-0.832776	-1.654142	-0.407402
C23	C	-0.882209	-1.624895	-0.339635
C24	C	-0.784442	-1.734336	-0.357827
C25	C	-0.882090	-1.763643	-0.425601
C26	C	-0.930427	-1.734448	-0.357842
C27	C	-0.832788	-1.705031	-0.290024
C28	C	-0.832664	-1.843831	-0.376036
C29	C	-0.882075	-1.814625	-0.308223
C30	C	-0.700343	-1.734269	-0.357819
C31	C	-1.014523	-1.734516	-0.357842
C32	C	-0.164108	-1.734494	-0.357839
C33	C	-0.081562	-1.734570	-0.357851
C34	C	-0.357781	-1.734363	-0.551516
C35	C	-0.357766	-1.734383	-0.634061
C36	C	-0.357826	-1.047358	-0.357820
C37	C	-0.357815	-1.180758	-0.357810
C38	C	-0.407300	-1.654231	-0.833501
C39	C	-0.425455	-1.763729	-0.882892
C40	C	-0.357710	-1.734442	-0.785192
C41	C	-0.339534	-1.625005	-0.882883
C42	C	-0.357656	-1.734489	-0.931177
C43	C	-0.375900	-1.843997	-0.833496
C44	C	-0.289948	-1.705199	-0.833482
C45	C	-0.308077	-1.814772	-0.882851
C46	C	-0.357742	-1.734413	-0.701093
C47	C	-0.357624	-1.734531	-1.015274
C48	C	-0.357793	-1.734338	-0.164858
C49	C	-0.357598	-1.734550	-0.082312
H50	H	-0.811128	-1.586225	-0.449266
C51	C	-0.911346	-1.797071	-0.503024
N52	N	-0.933379	-1.822241	-0.561341
H53	H	-0.449292	-1.586463	-0.811832
C54	C	-0.251391	-1.906540	-0.911942
N55	N	-0.208698	-1.975662	-0.933855
C56	C	-0.911142	-1.906304	-0.251530
N57	N	-0.933037	-1.975351	-0.208826
H58	H	-0.324184	-1.532435	-0.904577
C59	C	-0.212586	-1.671699	-0.804134
N60	N	-0.154317	-1.646453	-0.782027
H61	H	-0.903989	-1.532351	-0.324247
H62	H	-0.811221	-1.680181	-0.232698
C63	C	-0.502839	-1.797179	-0.912216
N64	N	-0.561126	-1.822366	-0.934301
H65	H	-0.391316	-1.936593	-0.811893
H66	H	-0.810887	-1.936353	-0.391456
