data_functionalizedCrystal
_audit_creation_method	'MofGen! by Chris Wilmer'
_symmetry_space_group_name_H-M	'P1'
_symmetry_Int_Tables_number	1
_symmetry_cell_setting	triclinic
loop_
_symmetry_equiv_pos_as_xyz
  x,y,z
_cell_length_a	14.853567
_cell_length_b	10.654554
_cell_length_c	9.130313
_cell_angle_alpha	89.997363
_cell_angle_beta	90.002734
_cell_angle_gamma	84.060887
loop_
_atom_site_label
_atom_site_type_symbol
_atom_site_fract_x
_atom_site_fract_y
_atom_site_fract_z
O1	O	1.197239	0.163955	-0.121703
O2	O	0.934885	0.183487	-0.121729
O3	O	1.072092	-0.009081	-0.121700
O4	O	1.060032	0.356522	-0.121731
O5	O	1.072090	-0.009076	0.121898
O6	O	0.934883	0.183492	0.121870
O7	O	1.197238	0.163960	0.121896
Cu8	Cu	1.066060	0.173726	0.144126
Cu9	Cu	1.066062	0.173720	-0.143958
O10	O	1.060031	0.356527	0.121868
C11	C	0.901290	0.182604	0.000068
C12	C	0.801192	0.179952	0.000058
C13	C	1.071205	-0.055867	0.000100
C14	C	1.068553	-0.195282	0.000101
C15	C	0.982781	-0.376953	0.000061
C16	C	0.985272	-0.245957	0.000080
C17	C	1.149348	-0.275611	0.000089
C18	C	1.146856	-0.406604	0.000060
C19	C	0.888052	-0.359832	0.000062
C20	C	0.890544	-0.228836	0.000081
C21	C	0.387985	0.054352	0.000102
C22	C	0.367931	0.283127	0.000081
C23	C	0.461978	0.285620	0.000076
C24	C	0.519033	0.172478	0.000082
C25	C	0.482041	0.056843	0.000092
C26	C	0.498978	0.401254	0.000051
C27	C	0.593030	0.403752	0.000044
C28	C	0.650087	0.290609	0.000060
C29	C	0.613089	0.174968	0.000073
C30	C	0.670144	0.061826	0.000078
C31	C	0.633148	-0.053815	0.000101
C32	C	0.539097	-0.056301	0.000109
C33	C	0.744138	0.293094	0.000053
C34	C	0.764200	0.064317	0.000069
C35	C	1.230832	0.164843	0.000096
C36	C	1.330930	0.167495	0.000096
C37	C	1.060918	0.403314	0.000064
C38	C	1.063570	0.542729	0.000053
N39	N	1.066065	0.173730	0.346748
N40	N	1.066064	0.173707	-0.346581
C41	C	1.126836	0.088490	0.423413
C42	C	1.126834	0.088475	0.576750
C43	C	1.005286	0.258951	0.576744
C44	C	1.005285	0.258959	0.423410
C45	C	1.197014	-0.009929	0.423417
C46	C	1.197011	-0.009944	0.576754
H47	H	1.217157	-0.234341	0.000070
H48	H	1.212642	-0.471995	0.000037
H49	H	0.955793	0.328357	0.360991
N50	N	1.288771	0.017616	0.631907
H51	H	1.316076	-0.055454	0.693368
H52	H	1.329652	0.029958	0.545845
H53	H	0.857879	-0.395170	0.105224
H54	H	0.955800	0.328341	0.639178
H55	H	0.679614	-0.145935	0.000096
H56	H	0.452518	0.493368	0.000031
H57	H	1.181620	-0.106302	0.381803
N58	N	0.838960	-0.398198	-0.134957
H59	H	0.818856	-0.320835	-0.195197
H60	H	0.880910	-0.458492	-0.195129
N61	N	0.499185	-0.181011	0.000137
H62	H	0.460606	-0.187142	-0.090163
H63	H	0.549643	-0.252244	0.000202
H64	H	1.262469	0.019979	0.375862
N65	N	0.843277	-0.173067	0.135132
H66	H	0.887203	-0.128323	0.195396
H67	H	0.790568	-0.110906	0.104986
N68	N	0.852632	-0.167947	-0.139232
H69	H	0.889155	-0.203799	-0.225659
H70	H	0.787491	-0.185444	-0.151102
H71	H	0.810649	-0.027819	0.000079
N72	N	1.168026	-0.130486	0.639761
H73	H	1.154020	-0.188717	0.557425
H74	H	1.218472	-0.173038	0.702044
H75	H	0.357858	-0.039800	0.000126
H76	H	0.623144	0.497915	0.000026
N77	N	0.306400	0.405153	0.000059
H78	H	0.241205	0.386029	0.000062
H79	H	0.318461	0.455542	0.090360
N80	N	0.784043	0.417804	0.000012
H81	H	0.733628	0.489101	0.000001
H82	H	0.822632	0.423832	0.090314
