data_functionalizedCrystal
_audit_creation_method	'MofGen! by Chris Wilmer'
_symmetry_space_group_name_H-M	'P1'
_symmetry_Int_Tables_number	1
_symmetry_cell_setting	triclinic
loop_
_symmetry_equiv_pos_as_xyz
  x,y,z
_cell_length_a	27.732066
_cell_length_b	27.731993
_cell_length_c	15.455313
_cell_angle_alpha	92.646914
_cell_angle_beta	87.353257
_cell_angle_gamma	82.635246
loop_
_atom_site_label
_atom_site_type_symbol
_atom_site_fract_x
_atom_site_fract_y
_atom_site_fract_z
O1	O	-0.055267	-0.643076	-0.071890
O2	O	0.194733	-0.393076	0.178110
O3	O	0.444733	-0.143076	0.428110
O4	O	0.694733	0.106924	0.678110
O5	O	-0.064039	-0.502280	-0.071942
O6	O	0.185961	-0.252280	0.178058
O7	O	0.435961	-0.002280	0.428058
O8	O	0.685961	0.247720	0.678058
O9	O	0.010744	-0.577046	-0.071917
O10	O	0.260744	-0.327046	0.178083
O11	O	0.510744	-0.077046	0.428083
O12	O	0.760744	0.172954	0.678083
O13	O	-0.130050	-0.568310	-0.071915
O14	O	0.119950	-0.318310	0.178085
O15	O	0.369950	-0.068310	0.428085
O16	O	0.619950	0.181690	0.678085
O17	O	0.006485	-0.572771	0.072343
O18	O	0.256485	-0.322771	0.322343
O19	O	0.506485	-0.072771	0.572343
O20	O	0.756485	0.177229	0.822343
O21	O	-0.068298	-0.498005	0.072318
O22	O	0.181702	-0.248005	0.322318
O23	O	0.431702	0.001995	0.572318
O24	O	0.681702	0.251995	0.822318
O25	O	-0.059526	-0.638800	0.072370
O26	O	0.190474	-0.388800	0.322370
O27	O	0.440474	-0.138800	0.572370
O28	O	0.690474	0.111200	0.822370
Cu29	Cu	-0.064301	-0.568012	0.085516
Cu30	Cu	0.185699	-0.318012	0.335516
Cu31	Cu	0.435699	-0.068012	0.585516
Cu32	Cu	0.685699	0.181988	0.835516
Cu33	Cu	-0.059264	-0.573068	-0.085089
Cu34	Cu	0.190736	-0.323068	0.164911
Cu35	Cu	0.440736	-0.073068	0.414911
Cu36	Cu	0.690736	0.176932	0.664911
O37	O	-0.134309	-0.564034	0.072345
O38	O	0.115691	-0.314034	0.322345
O39	O	0.365691	-0.064034	0.572345
O40	O	0.615691	0.185966	0.822345
C41	C	-0.065988	-0.482136	0.000181
C42	C	0.184012	-0.232136	0.250181
C43	C	0.434012	0.017864	0.500181
C44	C	0.684012	0.267864	0.750181
C45	C	-0.065445	-0.428480	0.000161
C46	C	0.184555	-0.178480	0.250161
C47	C	0.434555	0.071520	0.500161
C48	C	0.684555	0.321520	0.750161
C49	C	0.026621	-0.574724	0.000210
C50	C	0.276621	-0.324724	0.250210
C51	C	0.526621	-0.074724	0.500210
C52	C	0.776621	0.175276	0.750210
C53	C	0.080276	-0.574168	0.000203
C54	C	0.330276	-0.324168	0.250203
C55	C	0.580276	-0.074168	0.500203
C56	C	0.830276	0.175832	0.750203
C57	C	0.457339	-0.526198	0.000185
C58	C	0.707339	-0.276198	0.250185
C59	C	0.957339	-0.026198	0.500185
C60	C	1.207339	0.223802	0.750185
C61	C	0.255680	-0.528245	0.000183
C62	C	0.505680	-0.278245	0.250183
C63	C	0.755680	-0.028245	0.500183
C64	C	1.005680	0.221755	0.750183
O65	O	0.224421	-0.491025	0.000134
O66	O	0.474421	-0.241025	0.250134
O67	O	0.724421	0.008975	0.500134
O68	O	0.974421	0.258975	0.750134
N69	N	0.236560	-0.572580	0.000199
N70	N	0.486560	-0.322580	0.250199
N71	N	0.736560	-0.072580	0.500199
N72	N	0.986560	0.177420	0.750199
C73	C	0.267860	-0.616407	0.000210
C74	C	0.517860	-0.366407	0.250210
C75	C	0.767860	-0.116407	0.500210
C76	C	1.017860	0.133593	0.750210
O77	O	0.246971	-0.654164	0.000214
O78	O	0.496971	-0.404164	0.250214
O79	O	0.746971	-0.154164	0.500214
O80	O	0.996971	0.095836	0.750214
C81	C	0.469519	-0.614359	0.000206
C82	C	0.719519	-0.364359	0.250206
C83	C	0.969519	-0.114359	0.500206
C84	C	1.219519	0.135641	0.750206
C85	C	0.488635	-0.570021	0.000199
C86	C	0.738635	-0.320021	0.250199
C87	C	0.988635	-0.070021	0.500199
C88	C	1.238635	0.179979	0.750199
C89	C	0.476456	-0.481863	0.000177
C90	C	0.726456	-0.231863	0.250177
C91	C	0.976456	0.018137	0.500177
C92	C	1.226456	0.268137	0.750177
C93	C	0.526868	-0.481352	0.000182
C94	C	0.776868	-0.231352	0.250182
C95	C	1.026868	0.018648	0.500182
C96	C	1.276868	0.268648	0.750182
C97	C	0.558163	-0.525175	0.000196
C98	C	0.808163	-0.275175	0.250196
C99	C	1.058163	-0.025175	0.500196
C100	C	1.308163	0.224825	0.750196
C101	C	0.539046	-0.569509	0.000204
C102	C	0.789046	-0.319509	0.250204
C103	C	1.039046	-0.069509	0.500204
C104	C	1.289046	0.180491	0.750204
C105	C	0.500817	-0.658185	0.000211
C106	C	0.750817	-0.408185	0.250211
C107	C	1.000817	-0.158185	0.500211
C108	C	1.250817	0.091815	0.750211
C109	C	0.551235	-0.657669	0.000208
C110	C	0.801235	-0.407669	0.250208
C111	C	1.051235	-0.157669	0.500208
C112	C	1.301235	0.092331	0.750208
C113	C	0.570350	-0.613331	0.000200
C114	C	0.820350	-0.363331	0.250200
C115	C	1.070350	-0.113331	0.500200
C116	C	1.320350	0.136669	0.750200
C117	C	0.620753	-0.612821	0.000223
C118	C	0.870753	-0.362821	0.250223
C119	C	1.120753	-0.112821	0.500223
C120	C	1.370753	0.137179	0.750223
N121	N	0.639873	-0.568486	0.000207
N122	N	0.889873	-0.318486	0.250207
N123	N	1.139873	-0.068486	0.500207
N124	N	1.389873	0.181514	0.750207
C125	C	0.608577	-0.524663	0.000193
C126	C	0.858577	-0.274663	0.250193
C127	C	1.108577	-0.024663	0.500193
C128	C	1.358577	0.225337	0.750193
C129	C	0.161985	-0.617479	0.000214
C130	C	0.411985	-0.367479	0.250214
C131	C	0.661985	-0.117479	0.500214
C132	C	0.911985	0.132521	0.750214
C133	C	0.111571	-0.617991	0.000216
C134	C	0.361571	-0.367991	0.250216
C135	C	0.611571	-0.117991	0.500216
C136	C	0.861571	0.132009	0.750216
C137	C	0.099394	-0.529829	0.000187
C138	C	0.349394	-0.279829	0.250187
C139	C	0.599394	-0.029829	0.500187
C140	C	0.849394	0.220171	0.750187
C141	C	0.149810	-0.529317	0.000191
C142	C	0.399810	-0.279317	0.250191
C143	C	0.649810	-0.029317	0.500191
C144	C	0.899810	0.220683	0.750191
C145	C	0.181105	-0.573144	0.000198
C146	C	0.431105	-0.323144	0.250198
C147	C	0.681105	-0.073144	0.500198
C148	C	0.931105	0.176856	0.750198
C149	C	0.714446	-0.523592	0.000205
C150	C	0.964446	-0.273592	0.250205
C151	C	1.214446	-0.023592	0.500205
C152	C	1.464446	0.226408	0.750205
C153	C	0.764863	-0.523084	0.000214
C154	C	1.014863	-0.273084	0.250214
C155	C	1.264863	-0.023084	0.500214
C156	C	1.514863	0.226916	0.750214
C157	C	0.777035	-0.611245	0.000238
C158	C	1.027035	-0.361245	0.250238
C159	C	1.277035	-0.111245	0.500238
C160	C	1.527035	0.138755	0.750238
C161	C	0.726623	-0.611753	0.000234
C162	C	0.976623	-0.361753	0.250234
C163	C	1.226623	-0.111753	0.500234
C164	C	1.476623	0.138247	0.750234
C165	C	0.695329	-0.567923	0.000215
C166	C	0.945329	-0.317923	0.250215
C167	C	1.195329	-0.067923	0.500215
C168	C	1.445329	0.182077	0.750215
O169	O	0.652041	-0.650021	0.000262
O170	O	0.902041	-0.400021	0.250262
O171	O	1.152041	-0.150021	0.500262
O172	O	1.402041	0.099979	0.750262
O173	O	0.629476	-0.486912	0.000170
O174	O	0.879476	-0.236912	0.250170
O175	O	1.129476	0.013088	0.500170
O176	O	1.379476	0.263088	0.750170
C177	C	0.406927	-0.526709	0.000180
C178	C	0.656927	-0.276709	0.250180
C179	C	0.906927	-0.026709	0.500180
C180	C	1.156927	0.223291	0.750180
C181	C	0.387811	-0.571044	0.000188
C182	C	0.637811	-0.321044	0.250188
C183	C	0.887811	-0.071044	0.500188
C184	C	1.137811	0.178956	0.750188
C185	C	0.419106	-0.614867	0.000202
C186	C	0.669106	-0.364867	0.250202
C187	C	0.919106	-0.114867	0.500202
C188	C	1.169106	0.135133	0.750202
C189	C	0.337396	-0.571556	0.000191
C190	C	0.587396	-0.321556	0.250191
C191	C	0.837396	-0.071556	0.500191
C192	C	1.087396	0.178444	0.750191
C193	C	0.306101	-0.527733	0.000177
C194	C	0.556101	-0.277733	0.250177
C195	C	0.806101	-0.027733	0.500177
C196	C	1.056101	0.222267	0.750177
C197	C	0.325220	-0.483398	0.000161
C198	C	0.575220	-0.233398	0.250161
C199	C	0.825220	0.016602	0.500161
C200	C	1.075220	0.266602	0.750161
C201	C	0.375632	-0.482886	0.000166
C202	C	0.625632	-0.232886	0.250166
C203	C	0.875632	0.017114	0.500166
C204	C	1.125632	0.267114	0.750166
C205	C	0.399987	-0.659202	0.000218
C206	C	0.649987	-0.409202	0.250218
C207	C	0.899987	-0.159202	0.500218
C208	C	1.149987	0.090798	0.750218
C209	C	0.349575	-0.659710	0.000213
C210	C	0.599575	-0.409710	0.250213
C211	C	0.849575	-0.159710	0.500213
C212	C	1.099575	0.090290	0.750213
C213	C	0.318279	-0.615887	0.000200
C214	C	0.568279	-0.365887	0.250200
C215	C	0.818279	-0.115887	0.500200
C216	C	1.068279	0.134113	0.750200
C217	C	-0.057577	-0.658945	0.000245
C218	C	0.192423	-0.408945	0.250245
C219	C	0.442423	-0.158945	0.500245
C220	C	0.692423	0.091055	0.750245
C221	C	-0.058120	-0.712601	0.000259
C222	C	0.191880	-0.462601	0.250259
C223	C	0.441880	-0.212601	0.500259
C224	C	0.691880	0.037399	0.750259
C225	C	0.849813	-0.566355	0.000218
C226	C	1.099813	-0.316355	0.250218
C227	C	1.349813	-0.066355	0.500218
C228	C	1.599813	0.183645	0.750218
C229	C	0.796158	-0.566907	0.000228
C230	C	1.046158	-0.316907	0.250228
C231	C	1.296158	-0.066907	0.500228
C232	C	1.546158	0.183093	0.750228
C233	C	-0.059194	-0.047649	-0.078433
C234	C	0.190806	0.202351	0.171567
C235	C	0.440806	0.452351	0.421567
C236	C	0.690806	0.702351	0.671567
C237	C	-0.061261	-0.249307	-0.078457
C238	C	0.188739	0.000693	0.171543
C239	C	0.438739	0.250693	0.421543
C240	C	0.688739	0.500693	0.671543
O241	O	-0.059534	-0.277362	-0.145336
O242	O	0.190466	-0.027362	0.104664
O243	O	0.440466	0.222638	0.354664
O244	O	0.690466	0.472638	0.604664
N245	N	-0.063841	-0.272197	0.000178
N246	N	0.186159	-0.022197	0.250178
N247	N	0.436159	0.227803	0.500178
N248	N	0.686159	0.477803	0.750178
C249	C	-0.065901	-0.244669	0.078824
C250	C	0.184099	0.005331	0.328824
C251	C	0.434099	0.255331	0.578824
C252	C	0.684099	0.505331	0.828824
O253	O	-0.068138	-0.268766	0.145707
O254	O	0.181862	-0.018766	0.395707
O255	O	0.431862	0.231234	0.645707
O256	O	0.681862	0.481234	0.895707
C257	C	-0.063831	-0.043012	0.078847
C258	C	0.186169	0.206988	0.328847
C259	C	0.436169	0.456988	0.578847
C260	C	0.686169	0.706988	0.828847
C261	C	-0.061256	-0.020125	0.000207
C262	C	0.188744	0.229875	0.250207
C263	C	0.438744	0.479875	0.500207
C264	C	0.688744	0.729875	0.750207
C265	C	-0.056619	-0.024761	-0.157067
C266	C	0.193381	0.225239	0.092933
C267	C	0.443381	0.475239	0.342933
C268	C	0.693381	0.725239	0.592933
C269	C	-0.056105	0.025651	-0.157060
C270	C	0.193895	0.275651	0.092940
C271	C	0.443895	0.525651	0.342940
C272	C	0.693895	0.775651	0.592940
C273	C	-0.058167	0.053175	-0.078420
C274	C	0.191833	0.303175	0.171580
C275	C	0.441833	0.553175	0.421580
C276	C	0.691833	0.803175	0.671580
C277	C	-0.060742	0.030287	0.000213
C278	C	0.189258	0.280287	0.250213
C279	C	0.439258	0.530287	0.500213
C280	C	0.689258	0.780287	0.750213
C281	C	-0.065888	-0.015486	0.157492
C282	C	0.184112	0.234514	0.407492
C283	C	0.434112	0.484514	0.657492
C284	C	0.684112	0.734514	0.907492
C285	C	-0.065369	0.034931	0.157491
C286	C	0.184631	0.284931	0.407491
C287	C	0.434631	0.534931	0.657491
C288	C	0.684631	0.784931	0.907491
C289	C	-0.062794	0.057818	0.078851
C290	C	0.187206	0.307818	0.328851
C291	C	0.437206	0.557818	0.578851
C292	C	0.687206	0.807818	0.828851
C293	C	-0.062290	0.108223	0.078860
C294	C	0.187710	0.358223	0.328860
C295	C	0.437710	0.608223	0.578860
C296	C	0.687710	0.858223	0.828860
N297	N	-0.059710	0.131113	0.000226
N298	N	0.190290	0.381113	0.250226
N299	N	0.440290	0.631113	0.500226
N300	N	0.690290	0.881113	0.750226
C301	C	-0.057648	0.103589	-0.078415
C302	C	0.192352	0.353589	0.171585
C303	C	0.442352	0.603589	0.421585
C304	C	0.692352	0.853589	0.671585
C305	C	-0.066989	-0.350542	0.078807
C306	C	0.183011	-0.100542	0.328807
C307	C	0.433011	0.149458	0.578807
C308	C	0.683011	0.399458	0.828807
C309	C	-0.067507	-0.400956	0.078801
C310	C	0.182493	-0.150956	0.328801
C311	C	0.432493	0.099044	0.578801
C312	C	0.682493	0.349044	0.828801
C313	C	-0.062865	-0.405590	-0.078480
C314	C	0.187135	-0.155590	0.171520
C315	C	0.437135	0.094410	0.421520
C316	C	0.687135	0.344410	0.671520
C317	C	-0.062351	-0.355175	-0.078474
C318	C	0.187649	-0.105175	0.171526
C319	C	0.437649	0.144825	0.421526
C320	C	0.687649	0.394825	0.671526
C321	C	-0.064409	-0.327652	0.000172
C322	C	0.185591	-0.077652	0.250172
C323	C	0.435591	0.172348	0.500172
C324	C	0.685591	0.422348	0.750172
C325	C	-0.056570	0.209458	-0.078395
C326	C	0.193430	0.459458	0.171605
C327	C	0.443430	0.709458	0.421605
C328	C	0.693430	0.959458	0.671605
C329	C	-0.056058	0.259875	-0.078381
C330	C	0.193942	0.509875	0.171619
C331	C	0.443942	0.759875	0.421619
C332	C	0.693942	1.009875	0.671619
C333	C	-0.060697	0.264504	0.078900
C334	C	0.189303	0.514504	0.328900
C335	C	0.439303	0.764504	0.578900
C336	C	0.689303	1.014504	0.828900
C337	C	-0.061211	0.214092	0.078887
C338	C	0.188789	0.464092	0.328887
C339	C	0.438789	0.714092	0.578887
C340	C	0.688789	0.964092	0.828887
C341	C	-0.059146	0.186570	0.000232
C342	C	0.190854	0.436570	0.250232
C343	C	0.440854	0.686570	0.500232
C344	C	0.690854	0.936570	0.750232
O345	O	-0.064010	0.136308	0.145704
O346	O	0.185990	0.386308	0.395704
O347	O	0.435990	0.636308	0.645704
O348	O	0.685990	0.886308	0.895704
O349	O	-0.055401	0.127694	-0.145288
O350	O	0.194599	0.377694	0.104712
O351	O	0.444599	0.627694	0.354712
O352	O	0.694599	0.877694	0.604712
C353	C	-0.059708	-0.098061	-0.078440
C354	C	0.190292	0.151939	0.171560
C355	C	0.440292	0.401939	0.421560
C356	C	0.690292	0.651939	0.671560
C357	C	-0.062284	-0.120949	0.000193
C358	C	0.187716	0.129051	0.250193
C359	C	0.437716	0.379051	0.500193
C360	C	0.687716	0.629051	0.750193
C361	C	-0.064346	-0.093425	0.078834
C362	C	0.185654	0.156575	0.328834
C363	C	0.435654	0.406575	0.578834
C364	C	0.685654	0.656575	0.828834
C365	C	-0.062802	-0.171362	0.000188
C366	C	0.187198	0.078638	0.250188
C367	C	0.437198	0.328638	0.500188
C368	C	0.687198	0.578638	0.750188
C369	C	-0.060740	-0.198886	-0.078452
C370	C	0.189260	0.051114	0.171548
C371	C	0.439260	0.301114	0.421548
C372	C	0.689260	0.551114	0.671548
C373	C	-0.058160	-0.175996	-0.157087
C374	C	0.191840	0.074004	0.092913
C375	C	0.441840	0.324004	0.342913
C376	C	0.691840	0.574004	0.592913
C377	C	-0.057646	-0.125585	-0.157080
C378	C	0.192354	0.124415	0.092920
C379	C	0.442354	0.374415	0.342920
C380	C	0.692354	0.624415	0.592920
C381	C	-0.066926	-0.116314	0.157468
C382	C	0.183074	0.133686	0.407468
C383	C	0.433074	0.383686	0.657468
C384	C	0.683074	0.633686	0.907468
C385	C	-0.067440	-0.166726	0.157455
C386	C	0.182560	0.083274	0.407455
C387	C	0.432560	0.333274	0.657455
C388	C	0.682560	0.583274	0.907455
C389	C	-0.065378	-0.194250	0.078815
C390	C	0.184622	0.055750	0.328815
C391	C	0.434622	0.305750	0.578815
C392	C	0.684622	0.555750	0.828815
N393	N	-0.067843	-0.564460	0.205511
N394	N	0.182157	-0.314460	0.455511
N395	N	0.432157	-0.064460	0.705511
N396	N	0.682157	0.185540	0.955511
N397	N	-0.055718	-0.576625	-0.205083
N398	N	0.194282	-0.326625	0.044917
N399	N	0.444282	-0.076625	0.294917
N400	N	0.694282	0.173375	0.544917
C401	C	-0.036084	-0.596234	0.250915
C402	C	0.213916	-0.346234	0.500915
C403	C	0.463916	-0.096234	0.750915
C404	C	0.713916	0.153766	1.000915
C405	C	-0.038768	-0.593551	0.341722
C406	C	0.211232	-0.343551	0.591722
C407	C	0.461232	-0.093551	0.841722
C408	C	0.711232	0.156449	1.091722
C409	C	-0.073212	-0.559097	0.387123
C410	C	0.176788	-0.309097	0.637123
C411	C	0.426788	-0.059097	0.887123
C412	C	0.676788	0.190903	1.137123
C413	C	-0.104972	-0.527320	0.341712
C414	C	0.145028	-0.277320	0.591712
C415	C	0.395028	-0.027320	0.841712
C416	C	0.645028	0.222680	1.091712
C417	C	-0.102287	-0.530000	0.250907
C418	C	0.147713	-0.280000	0.500907
C419	C	0.397713	-0.030000	0.750907
C420	C	0.647713	0.220000	1.000907
C421	C	-0.084793	-0.547528	0.658701
C422	C	0.165207	-0.297528	0.908701
C423	C	0.415207	-0.047528	1.158701
C424	C	0.665207	0.202472	1.408701
C425	C	-0.087477	-0.544851	0.749512
C426	C	0.162523	-0.294851	0.999512
C427	C	0.412523	-0.044851	1.249512
C428	C	0.662523	0.205149	1.499512
C429	C	-0.021271	-0.611082	0.749517
C430	C	0.228729	-0.361082	0.999517
C431	C	0.478729	-0.111082	1.249517
C432	C	0.728729	0.138918	1.499517
C433	C	-0.018590	-0.613762	0.658709
C434	C	0.231410	-0.363762	0.908709
C435	C	0.481410	-0.113762	1.158709
C436	C	0.731410	0.136238	1.408709
C437	C	-0.050349	-0.581983	0.613306
C438	C	0.199651	-0.331983	0.863306
C439	C	0.449651	-0.081983	1.113306
C440	C	0.699651	0.168017	1.363306
N441	N	-0.075957	-0.556356	0.479942
N442	N	0.174043	-0.306356	0.729942
N443	N	0.424043	-0.056356	0.979942
N444	N	0.674043	0.193644	1.229942
N445	N	-0.047602	-0.584722	0.520489
N446	N	0.202398	-0.334722	0.770489
N447	N	0.452398	-0.084722	1.020489
N448	N	0.702398	0.165278	1.270489
H449	H	0.780424	-0.486977	0.000212
H450	H	1.030424	-0.236977	0.250212
H451	H	1.280424	0.013023	0.500212
H452	H	1.530424	0.263023	0.750212
H453	H	-0.069612	-0.419585	0.142838
H454	H	0.180388	-0.169585	0.392838
H455	H	0.430388	0.080415	0.642838
H456	H	0.680388	0.330415	0.892838
H457	H	0.073905	-0.494147	0.000180
H458	H	0.323905	-0.244147	0.250180
H459	H	0.573905	0.005853	0.500180
H460	H	0.823905	0.255853	0.750180
H461	H	-0.054888	0.187055	-0.142442
H462	H	0.195112	0.437055	0.107558
H463	H	0.445112	0.687055	0.357558
H464	H	0.695112	0.937055	0.607558
H465	H	-0.128147	-0.504126	0.213939
H466	H	0.121853	-0.254126	0.463939
H467	H	0.371853	-0.004126	0.713939
H468	H	0.621853	0.245874	0.963939
H469	H	0.711058	-0.647857	0.000252
H470	H	0.961058	-0.397857	0.250252
H471	H	1.211058	-0.147857	0.500252
H472	H	1.461058	0.102143	0.750252
H473	H	0.009457	-0.641817	0.621746
H474	H	0.259457	-0.391817	0.871746
H475	H	0.509457	-0.141817	1.121746
H476	H	0.759457	0.108183	1.371746
H477	H	0.096011	-0.654095	0.000235
H478	H	0.346011	-0.404095	0.250235
H479	H	0.596011	-0.154095	0.500235
H480	H	0.846011	0.095905	0.750235
H481	H	-0.062378	0.286924	0.142926
H482	H	0.187622	0.536924	0.392926
H483	H	0.437622	0.786924	0.642926
H484	H	0.687622	1.036924	0.892926
H485	H	0.542427	-0.445247	0.000169
H486	H	0.792427	-0.195247	0.250169
H487	H	1.042427	0.054753	0.500169
H488	H	1.292427	0.304753	0.750169
H489	H	-0.115528	-0.516792	0.786473
H490	H	0.134472	-0.266792	1.036473
H491	H	0.384472	-0.016792	1.286473
H492	H	0.634472	0.233208	1.536473
H493	H	0.165370	-0.493213	0.000189
H494	H	0.415370	-0.243213	0.250189
H495	H	0.665370	0.006787	0.500189
H496	H	0.915370	0.256787	0.750189
H497	H	-0.053962	0.278508	-0.142422
H498	H	0.196038	0.528508	0.107578
H499	H	0.446038	0.778508	0.357578
H500	H	0.696038	1.028508	0.607578
H501	H	-0.110653	-0.521653	0.621741
H502	H	0.139347	-0.271653	0.871741
H503	H	0.389347	-0.021653	1.121741
H504	H	0.639347	0.228347	1.371741
H505	H	0.004586	-0.636955	0.786492
H506	H	0.254586	-0.386955	1.036492
H507	H	0.504586	-0.136955	1.286492
H508	H	0.754586	0.113045	1.536492
H509	H	-0.012907	-0.619424	0.378691
H510	H	0.237093	-0.369424	0.628691
H511	H	0.487093	-0.119424	0.878691
H512	H	0.737093	0.130576	1.128691
H513	H	-0.133017	-0.499264	0.378682
H514	H	0.116983	-0.249264	0.628682
H515	H	0.366983	0.000736	0.878682
H516	H	0.616983	0.250736	1.128682
H517	H	0.688972	-0.487900	0.000189
H518	H	0.938972	-0.237900	0.250189
H519	H	1.188972	0.012100	0.500189
H520	H	1.438972	0.262100	0.750189
H521	H	-0.054005	0.044281	-0.221097
H522	H	0.195995	0.294281	0.028903
H523	H	0.445995	0.544281	0.278903
H524	H	0.695995	0.794281	0.528903
H525	H	-0.069541	-0.185356	0.221498
H526	H	0.180459	0.064644	0.471498
H527	H	0.430459	0.314644	0.721498
H528	H	0.680459	0.564644	0.971498
H529	H	0.450980	-0.446175	0.000163
H530	H	0.700980	-0.196175	0.250163
H531	H	0.950980	0.053825	0.500163
H532	H	1.200980	0.303825	0.750163
H533	H	0.485262	-0.694290	0.000216
H534	H	0.735262	-0.444290	0.250216
H535	H	0.985262	-0.194290	0.500216
H536	H	1.235262	0.055710	0.750216
H537	H	0.187462	-0.653170	0.000220
H538	H	0.437462	-0.403170	0.250220
H539	H	0.687462	-0.153170	0.500220
H540	H	0.937462	0.096830	0.750220
H541	H	0.576713	-0.693359	0.000208
H542	H	0.826713	-0.443359	0.250208
H543	H	1.076713	-0.193359	0.500208
H544	H	1.326713	0.056641	0.750208
H545	H	0.802525	-0.646925	0.000253
H546	H	1.052525	-0.396925	0.250253
H547	H	1.302525	-0.146925	0.500253
H548	H	1.552525	0.103075	0.750253
H549	H	0.391191	-0.446781	0.000161
H550	H	0.641191	-0.196781	0.250161
H551	H	0.891191	0.053219	0.500161
H552	H	1.141191	0.303219	0.750161
H553	H	0.299731	-0.447715	0.000155
H554	H	0.549731	-0.197715	0.250155
H555	H	0.799731	0.052285	0.500155
H556	H	1.049731	0.302285	0.750155
H557	H	-0.055549	-0.106954	-0.221117
H558	H	0.194451	0.143046	0.028883
H559	H	0.444451	0.393046	0.278883
H560	H	0.694451	0.643046	0.528883
H561	H	-0.056484	-0.198415	-0.221118
H562	H	0.193516	0.051585	0.028882
H563	H	0.443516	0.301585	0.278882
H564	H	0.693516	0.551585	0.528882
H565	H	-0.063318	0.195457	0.142922
H566	H	0.186682	0.445457	0.392922
H567	H	0.436682	0.695457	0.642922
H568	H	0.686682	0.945457	0.892922
H569	H	-0.068602	-0.093909	0.221508
H570	H	0.181398	0.156091	0.471508
H571	H	0.431398	0.406091	0.721508
H572	H	0.681398	0.656091	0.971508
H573	H	0.334016	-0.695818	0.000226
H574	H	0.584016	-0.445818	0.250226
H575	H	0.834016	-0.195818	0.500226
H576	H	1.084016	0.054182	0.750226
H577	H	-0.068663	-0.328137	0.142853
H578	H	0.181337	-0.078137	0.392853
H579	H	0.431337	0.171863	0.642853
H580	H	0.681337	0.421863	0.892853
H581	H	0.425463	-0.694889	0.000228
H582	H	0.675463	-0.444889	0.250228
H583	H	0.925463	-0.194889	0.500228
H584	H	1.175463	0.055111	0.750228
H585	H	-0.054938	-0.047166	-0.221109
H586	H	0.195062	0.202834	0.028891
H587	H	0.445062	0.452834	0.278891
H588	H	0.695062	0.702834	0.528891
H589	H	-0.060254	-0.336543	-0.142509
H590	H	0.189746	-0.086543	0.107491
H591	H	0.439746	0.163457	0.357491
H592	H	0.689746	0.413457	0.607491
H593	H	-0.067984	-0.034113	0.221529
H594	H	0.182016	0.215887	0.471529
H595	H	0.432016	0.465887	0.721529
H596	H	0.682016	0.715887	0.971529
H597	H	-0.061188	-0.428009	-0.142512
H598	H	0.188812	-0.178009	0.107488
H599	H	0.438812	0.071991	0.357488
H600	H	0.688812	0.321991	0.607488
H601	H	-0.008038	-0.624292	0.213956
H602	H	0.241962	-0.374292	0.463956
H603	H	0.491962	-0.124292	0.713956
H604	H	0.741962	0.125708	0.963956
H605	H	-0.067050	0.057338	0.221535
H606	H	0.182950	0.307338	0.471535
H607	H	0.432950	0.557338	0.721535
H608	H	0.682950	0.807338	0.971535
