data_functionalizedCrystal
_audit_creation_method	'MofGen! by Chris Wilmer'
_symmetry_space_group_name_H-M	'P1'
_symmetry_Int_Tables_number	1
_symmetry_cell_setting	triclinic
loop_
_symmetry_equiv_pos_as_xyz
  x,y,z
_cell_length_a	6.817900
_cell_length_b	16.305597
_cell_length_c	16.305550
_cell_angle_alpha	95.371930
_cell_angle_beta	103.455250
_cell_angle_gamma	103.455834
loop_
_atom_site_label
_atom_site_type_symbol
_atom_site_fract_x
_atom_site_fract_y
_atom_site_fract_z
V1	V	-4.026184	-0.117429	-0.263322
O2	O	-4.013844	0.004910	-0.258012
O3	O	-3.977574	-0.232137	-0.261808
O4	O	-3.977591	-0.115944	-0.378036
O5	O	-4.013827	-0.112087	-0.140980
V6	V	-4.509864	-0.102758	-0.248654
O7	O	-4.287097	-0.149611	-0.295498
O8	O	-4.699147	-0.070575	-0.216479
O9	O	-4.335267	0.011951	-0.250169
O10	O	-4.639601	-0.225097	-0.253965
O11	O	-4.639617	-0.108099	-0.370997
O12	O	-4.335250	-0.104243	-0.133941
C13	C	-3.822530	-0.260091	-0.257728
C14	C	-3.864072	-0.353868	-0.257254
C15	C	-4.015199	-0.694622	-0.255573
C16	C	-3.779480	-0.653779	-0.250966
C17	C	-3.735942	-0.556181	-0.251124
C18	C	-3.940222	-0.525570	-0.256407
C19	C	-4.023196	-0.550725	-0.177802
C20	C	-4.065002	-0.648256	-0.177220
C21	C	-4.153223	-0.674025	-0.338559
C22	C	-4.106392	-0.576516	-0.340014
C23	C	-3.897858	-0.430029	-0.256876
C24	C	-4.057566	-0.790162	-0.255098
C25	C	-3.822550	-0.111874	-0.405987
C26	C	-3.864102	-0.111419	-0.499768
C27	C	-4.015190	-0.109655	-0.840509
C28	C	-3.779145	-0.104421	-0.799567
C29	C	-3.735951	-0.105243	-0.702074
C30	C	-3.940232	-0.110530	-0.671463
C31	C	-4.107221	-0.193843	-0.722296
C32	C	-4.149085	-0.193372	-0.819844
C33	C	-4.069986	-0.032242	-0.794473
C34	C	-4.022057	-0.031583	-0.696629
C35	C	-3.897882	-0.111027	-0.575926
C36	C	-4.057549	-0.109164	-0.936046
C37	C	-4.153653	0.039900	-0.254247
C38	C	-4.091350	0.133676	-0.254726
C39	C	-4.153633	-0.108316	-0.105985
C40	C	-4.091320	-0.108767	-0.012204
H41	H	-4.173224	-0.530875	-0.178660
O42	O	-4.217146	-0.030201	-0.668341
H43	H	-4.270657	0.026283	-0.687087
O44	O	-3.568432	-0.025893	-0.655490
H45	H	-3.631860	0.011542	-0.612615
H46	H	-3.674445	-0.667116	-0.191115
O47	O	-4.379339	-0.203054	-0.856958
H48	H	-4.460326	-0.208058	-0.805218
O49	O	-4.297892	-0.036331	-0.830014
H50	H	-4.377776	-0.041088	-0.777925
O51	O	-4.310094	-0.202974	-0.697268
H52	H	-4.294012	-0.148099	-0.648213
O53	O	-4.027676	-0.556504	-0.417022
H54	H	-3.870966	-0.510390	-0.395854
H55	H	-4.235016	-0.675100	-0.177167
O56	O	-4.101162	-0.270998	-0.860283
H57	H	-4.130535	-0.271435	-0.930217
H58	H	-3.905201	-0.514946	-0.115910
O59	O	-3.567993	-0.510345	-0.171617
H60	H	-3.432377	-0.471869	-0.189968
O61	O	-3.638565	-0.024702	-0.815742
H62	H	-3.532159	-0.042751	-0.852132
H63	H	-4.125534	-0.706698	-0.398171
O64	O	-4.033751	-0.271494	-0.700227
H65	H	-4.153134	-0.329999	-0.736566
H66	H	-4.325854	-0.701034	-0.342754
O67	O	-4.308211	-0.550289	-0.351594
H68	H	-4.293171	-0.500315	-0.297695
O69	O	-3.719351	-0.178091	-0.841481
H70	H	-3.857022	-0.218421	-0.891344
O71	O	-3.933879	-0.663277	-0.094526
H72	H	-3.841260	-0.600949	-0.055329
H73	H	-3.978618	0.030884	-0.807685
H74	H	-3.669495	-0.161503	-0.685920
H75	H	-3.733628	-0.684409	-0.306909
H76	H	-3.669702	-0.539416	-0.307294
O77	O	-3.861758	0.050050	-0.650902
H78	H	-3.833360	0.051306	-0.580891
