data_functionalizedCrystal
_audit_creation_method	'MofGen! by Chris Wilmer'
_symmetry_space_group_name_H-M	'P1'
_symmetry_Int_Tables_number	1
_symmetry_cell_setting	triclinic
loop_
_symmetry_equiv_pos_as_xyz
  x,y,z
_cell_length_a	18.215407
_cell_length_b	10.686285
_cell_length_c	18.215399
_cell_angle_alpha	94.390852
_cell_angle_beta	90.019833
_cell_angle_gamma	85.632014
loop_
_atom_site_label
_atom_site_type_symbol
_atom_site_fract_x
_atom_site_fract_y
_atom_site_fract_z
Zn1	Zn	1.147639	-0.502344	0.393704
Zn2	Zn	1.480972	-0.169010	0.727037
Zn3	Zn	1.814306	0.164323	1.060371
Zn4	Zn	1.157027	-0.713359	0.261223
Zn5	Zn	1.490360	-0.380026	0.594557
Zn6	Zn	1.823694	-0.046693	0.927890
Zn7	Zn	1.024574	-0.502385	0.270649
Zn8	Zn	1.357907	-0.169051	0.603983
Zn9	Zn	1.691240	0.164282	0.937316
Zn10	Zn	1.034014	-0.713289	0.384251
Zn11	Zn	1.367347	-0.379956	0.717585
Zn12	Zn	1.700681	-0.046622	1.050918
O13	O	1.090813	-0.607844	0.327457
O14	O	1.424147	-0.274511	0.660790
O15	O	1.757480	0.058822	0.994124
O16	O	1.251869	-0.530347	0.376141
O17	O	1.585203	-0.197014	0.709475
O18	O	1.918536	0.136319	1.042808
O19	O	1.139435	-0.685420	0.159487
O20	O	1.472768	-0.352086	0.492821
O21	O	1.806102	-0.018753	0.826154
O22	O	1.033019	-0.325804	0.294874
O23	O	1.366352	0.007529	0.628207
O24	O	1.699685	0.340862	0.961540
O25	O	1.258767	-0.685380	0.278808
O26	O	1.592100	-0.352046	0.612142
O27	O	1.925433	-0.018713	0.945475
O28	O	1.123434	-0.325774	0.385281
O29	O	1.456768	0.007559	0.718615
O30	O	1.790101	0.340893	1.051948
O31	O	1.042122	-0.530418	0.166413
O32	O	1.375455	-0.197084	0.499746
O33	O	1.708788	0.136249	0.833079
O34	O	0.922841	-0.530350	0.285708
O35	O	1.256174	-0.197016	0.619041
O36	O	1.589508	0.136317	0.952375
O37	O	1.049109	-0.685260	0.488492
O38	O	1.382442	-0.351927	0.821825
O39	O	1.715775	-0.018593	1.155158
O40	O	0.929777	-0.685300	0.369171
O41	O	1.263110	-0.351967	0.702504
O42	O	1.596444	-0.018633	1.035837
O43	O	1.132588	-0.530279	0.495436
O44	O	1.465922	-0.196946	0.828770
O45	O	1.799255	0.136387	1.162103
O46	O	1.148589	-0.889925	0.269642
O47	O	1.481922	-0.556592	0.602976
O48	O	1.815256	-0.223258	0.936309
O49	O	1.058212	-0.889873	0.360030
O50	O	1.391545	-0.556540	0.693364
O51	O	1.724878	-0.223207	1.026697
C52	C	0.899606	-0.607823	0.327437
C53	C	1.232940	-0.274489	0.660770
C54	C	1.566273	0.058844	0.994104
C55	C	0.817808	-0.607844	0.327444
C56	C	1.151142	-0.274510	0.660778
C57	C	1.484475	0.058823	0.994111
C58	C	0.633251	-0.688653	0.370839
C59	C	0.966584	-0.355320	0.704172
C60	C	1.299917	-0.021987	1.037505
C61	C	0.556392	-0.688657	0.370848
C62	C	0.889726	-0.355324	0.704181
C63	C	1.223059	-0.021991	1.037514
C64	C	0.549129	-0.527058	0.284090
C65	C	0.882462	-0.193725	0.617424
C66	C	1.215796	0.139609	0.950757
C67	C	0.625986	-0.527049	0.284086
C68	C	0.959319	-0.193715	0.617419
C69	C	1.292653	0.139618	0.950753
C70	C	0.668045	-0.607853	0.327459
C71	C	1.001379	-0.274520	0.660792
C72	C	1.334712	0.058813	0.994125
C73	C	0.514330	-0.607867	0.327472
C74	C	0.847663	-0.274533	0.660805
C75	C	1.180996	0.058800	0.994139
C76	C	0.430996	-0.607870	0.327482
C77	C	0.764330	-0.274537	0.660815
C78	C	1.097663	0.058796	0.994148
C79	C	0.751384	-0.607848	0.327450
C80	C	1.084717	-0.274515	0.660784
C81	C	1.418051	0.058818	0.994117
C82	C	1.105463	-0.935683	0.312804
C83	C	1.438797	-0.602350	0.646137
C84	C	1.772130	-0.269016	0.979471
C85	C	1.111798	-1.075934	0.306560
C86	C	1.445131	-0.742601	0.639893
C87	C	1.778465	-0.409267	0.973226
C88	C	1.282767	-0.607867	0.327478
C89	C	1.616101	-0.274533	0.660811
C90	C	1.949434	0.058800	0.994144
C91	C	1.364567	-0.607876	0.327486
C92	C	1.697900	-0.274543	0.660820
C93	C	2.031233	0.058790	0.994153
C94	C	1.090854	-0.607757	0.519414
C95	C	1.424188	-0.274424	0.852747
C96	C	1.757521	0.058909	1.186081
C97	C	1.090872	-0.607720	0.601214
C98	C	1.424205	-0.274387	0.934548
C99	C	1.757538	0.058947	1.267881
C100	C	1.076126	-0.278725	0.342183
C101	C	1.409460	0.054608	0.675517
C102	C	1.742793	0.387942	1.008850
C103	C	1.069867	-0.138474	0.348459
C104	C	1.403201	0.194859	0.681792
C105	C	1.736534	0.528193	1.015126
C106	C	1.090811	-0.607840	0.136251
C107	C	1.424144	-0.274506	0.469584
C108	C	1.757478	0.058827	0.802918
C109	C	1.090920	-0.607521	0.054467
C110	C	1.424253	-0.274188	0.387800
C111	C	1.757587	0.059145	0.721133
C112	C	1.134353	-0.526946	0.793029
C113	C	1.467687	-0.193613	1.126363
C114	C	1.801020	0.139721	1.459696
C115	C	1.134360	-0.526909	0.869890
C116	C	1.467694	-0.193576	1.203223
C117	C	1.801027	0.139757	1.536556
C118	C	1.047434	-0.688299	0.862646
C119	C	1.380767	-0.354966	1.195980
C120	C	1.714100	-0.021632	1.529313
C121	C	1.047423	-0.688328	0.785788
C122	C	1.380756	-0.354995	1.119121
C123	C	1.714090	-0.021662	1.452454
C124	C	1.090887	-0.607654	0.750981
C125	C	1.424220	-0.274321	1.084314
C126	C	1.757554	0.059013	1.417648
C127	C	1.090905	-0.607588	0.904700
C128	C	1.424238	-0.274254	1.238033
C129	C	1.757571	0.059079	1.571367
C130	C	1.090912	-0.607548	0.988036
C131	C	1.424246	-0.274215	1.321369
C132	C	1.757579	0.059118	1.654702
C133	C	1.090879	-0.607691	0.667640
C134	C	1.424212	-0.274358	1.000974
C135	C	1.757545	0.058976	1.334307
H136	H	0.514875	-0.461271	0.248777
H137	H	0.848209	-0.127938	0.582110
H138	H	1.181542	0.205395	0.915443
H139	H	1.169742	-0.461252	0.764692
H140	H	1.503076	-0.127919	1.098026
H141	H	1.836409	0.205414	1.431359
H142	H	1.012048	-0.753984	0.890995
H143	H	1.345382	-0.420651	1.224329
H144	H	1.678715	-0.087317	1.557662
H145	H	1.012022	-0.754049	0.751551
H146	H	1.345356	-0.420716	1.084884
H147	H	1.678689	-0.087383	1.418217
H148	H	0.667493	-0.754447	0.406158
H149	H	1.000827	-0.421113	0.739491
H150	H	1.334160	-0.087780	1.072824
C151	C	0.664263	-0.438166	0.236364
C152	C	0.997596	-0.104833	0.569698
C153	C	1.330929	0.228501	0.903031
H154	H	0.628208	-0.390056	0.210526
H155	H	0.961541	-0.056722	0.543859
H156	H	1.294875	0.276611	0.877193
H157	H	0.691801	-0.383247	0.267021
H158	H	1.025135	-0.049913	0.600354
H159	H	1.358468	0.283420	0.933688
H160	H	0.696386	-0.486372	0.202096
H161	H	1.029719	-0.153039	0.535429
H162	H	1.363053	0.180295	0.868762
C163	C	1.182177	-0.438137	0.916139
C164	C	1.515510	-0.104803	1.249473
C165	C	1.848844	0.228530	1.582806
H166	H	1.208063	-0.390105	0.884399
H167	H	1.541397	-0.056771	1.217732
H168	H	1.874730	0.276562	1.551066
H169	H	1.151578	-0.383140	0.948578
H170	H	1.484911	-0.049807	1.281911
H171	H	1.818245	0.283526	1.615245
H172	H	1.216403	-0.486406	0.943966
H173	H	1.549737	-0.153073	1.277299
H174	H	1.883070	0.180261	1.610633
C175	C	1.014828	-1.065872	0.403381
C176	C	1.348162	-0.732539	0.736714
C177	C	1.681495	-0.399205	1.070047
H178	H	0.989368	-1.123912	0.428826
H179	H	1.322702	-0.790578	0.762159
H180	H	1.656035	-0.457245	1.095492
H181	H	1.040665	-1.014386	0.437738
H182	H	1.373998	-0.681053	0.771071
H183	H	1.707331	-0.347720	1.104404
H184	H	0.980485	-1.014535	0.377456
H185	H	1.313818	-0.681202	0.710789
H186	H	1.647152	-0.347868	1.044122
H187	H	1.152540	-1.129693	0.265903
H188	H	1.485873	-0.796360	0.599236
H189	H	1.819207	-0.463027	0.932569
H190	H	0.528066	-0.754451	0.406173
H191	H	0.861400	-0.421118	0.739507
H192	H	1.194733	-0.087784	1.072840
