data_functionalizedCrystal
_audit_creation_method	'MofGen! by Chris Wilmer'
_symmetry_space_group_name_H-M	'P1'
_symmetry_Int_Tables_number	1
_symmetry_cell_setting	triclinic
loop_
_symmetry_equiv_pos_as_xyz
  x,y,z
_cell_length_a	17.699104
_cell_length_b	17.699083
_cell_length_c	8.965430
_cell_angle_alpha	89.991076
_cell_angle_beta	90.004904
_cell_angle_gamma	96.712734
loop_
_atom_site_label
_atom_site_type_symbol
_atom_site_fract_x
_atom_site_fract_y
_atom_site_fract_z
O1	O	-1.004064	0.095790	-0.124101
O2	O	-0.783688	0.108226	-0.124092
O3	O	-0.900102	-0.008181	-0.124084
O4	O	-0.887650	0.212197	-0.124109
O5	O	-0.900096	-0.008192	0.123995
O6	O	-0.783682	0.108215	0.123987
O7	O	-1.004058	0.095779	0.123978
Cu8	Cu	-0.893869	0.101996	0.146634
Cu9	Cu	-0.893876	0.102009	-0.146748
O10	O	-0.887643	0.212186	0.123969
C11	C	-0.755488	0.107772	-0.000051
C12	C	-0.671471	0.106427	-0.000047
C13	C	-0.146600	0.167171	-0.000055
C14	C	-0.225543	0.168430	-0.000061
C15	C	-0.274161	0.100095	-0.000054
C16	C	-0.243831	0.030496	-0.000056
C17	C	-0.164889	0.029238	-0.000060
C18	C	-0.562197	0.035569	-0.000042
C19	C	-0.641144	0.036833	-0.000033
C20	C	-0.622852	0.174762	-0.000043
C21	C	-0.543909	0.173503	-0.000047
C22	C	-0.513587	0.103905	-0.000057
C23	C	-0.427987	0.102541	-0.000052
C24	C	-0.359759	0.101459	-0.000048
C25	C	-0.899653	-0.036383	-0.000044
C26	C	-0.898314	-0.120402	-0.000043
C27	C	-0.966647	-0.169017	-0.000044
C28	C	-0.965385	-0.247961	-0.000057
C29	C	-0.895789	-0.278287	-0.000059
C30	C	-0.827451	-0.229665	-0.000063
C31	C	-0.828714	-0.150723	-0.000060
C32	C	-0.822356	-0.548028	-0.000074
C33	C	-0.821098	-0.626976	-0.000072
C34	C	-0.959026	-0.645266	-0.000072
C35	C	-0.960289	-0.566324	-0.000069
C36	C	-0.891952	-0.517709	-0.000081
C37	C	-0.893321	-0.432110	-0.000069
C38	C	-0.894419	-0.363885	-0.000060
C39	C	-0.032258	0.096233	-0.000059
C40	C	-0.116275	0.097578	-0.000052
C41	C	-0.888093	0.240388	-0.000073
C42	C	-0.889431	0.324406	-0.000084
N43	N	-0.893869	0.101986	0.352983
C44	C	-0.947295	0.047736	0.549657
C45	C	-0.962464	0.115891	0.450171
C46	C	-0.878733	0.033837	0.450261
C47	C	-0.909086	0.170200	0.549606
C48	C	-0.825326	0.088102	0.549705
C49	C	-0.840466	0.156306	0.450264
N50	N	-0.893883	0.102011	0.646903
H51	H	-0.647550	0.231432	-0.000042
N52	N	-0.925253	0.242530	0.604081
N53	N	-0.936738	0.294058	0.514412
H54	H	-0.948159	0.345140	0.552885
N55	N	-0.752618	0.073340	0.604594
N56	N	-0.694324	0.116837	0.570949
H57	H	-0.642973	0.106405	0.609712
H58	H	-0.764421	-0.651664	-0.000071
N59	N	-1.028841	-0.694916	-0.000092
N60	N	-1.090974	-0.667828	-0.000087
H61	H	-1.140280	-0.702891	-0.000098
H62	H	-0.865925	-0.023807	0.406621
H63	H	-0.795289	0.202243	0.406898
H64	H	-0.107020	0.222818	-0.000049
H65	H	-0.537518	-0.021102	-0.000045
H66	H	-1.023320	-0.144333	-0.000034
N67	N	-0.256507	0.239525	-0.000081
N68	N	-0.213090	0.300533	-0.000087
H69	H	-0.234957	0.350748	-0.000107
H70	H	-1.020435	0.127650	0.406451
H71	H	-1.021028	-0.287541	-0.000055
N72	N	-0.494260	0.243313	-0.000040
N73	N	-0.521346	0.305447	-0.000044
H74	H	-0.486282	0.354752	-0.000042
N75	N	-0.690797	-0.032981	-0.000019
N76	N	-0.663715	-0.095116	-0.000025
H77	H	-0.698781	-0.144420	-0.000011
H78	H	-0.766711	-0.508455	-0.000083
H79	H	-0.992499	0.001899	0.593297
H80	H	-0.770785	-0.254362	-0.000073
H81	H	-0.283422	-0.025143	-0.000059
H82	H	-0.140200	-0.027432	-0.000060
N83	N	-1.031386	-0.535361	-0.000053
N84	N	-1.092394	-0.578777	-0.000055
H85	H	-1.142609	-0.556911	-0.000048
H86	H	-0.773070	-0.111140	-0.000060
