data_functionalizedCrystal
_audit_creation_method	'MofGen! by Chris Wilmer'
_symmetry_space_group_name_H-M	'P1'
_symmetry_Int_Tables_number	1
_symmetry_cell_setting	triclinic
loop_
_symmetry_equiv_pos_as_xyz
  x,y,z
_cell_length_a	10.654541
_cell_length_b	14.519709
_cell_length_c	9.730217
_cell_angle_alpha	89.995799
_cell_angle_beta	89.999932
_cell_angle_gamma	84.082037
loop_
_atom_site_label
_atom_site_type_symbol
_atom_site_fract_x
_atom_site_fract_y
_atom_site_fract_z
O1	O	1.666593	0.129520	-0.114251
O2	O	1.300995	0.141863	-0.114263
O3	O	1.493488	0.001504	-0.114245
O4	O	1.474101	0.269880	-0.114270
O5	O	1.493482	0.001502	0.114335
O6	O	1.300990	0.141862	0.114317
O7	O	1.666587	0.129519	0.114329
Zn8	Zn	1.483787	0.135690	0.150615
Zn9	Zn	1.483795	0.135692	-0.150549
O10	O	1.474095	0.269879	0.114310
C11	C	1.254203	0.140957	0.000025
C12	C	1.114786	0.138247	0.000021
C13	C	1.085201	0.306085	-0.000012
C14	C	1.004912	0.388727	-0.000034
C15	C	0.873919	0.386175	-0.000035
C16	C	0.823213	0.300972	-0.000010
C17	C	0.903502	0.218330	0.000012
C18	C	1.034496	0.220891	0.000009
C19	C	0.933086	0.050493	0.000055
C20	C	1.064080	0.053043	0.000046
C21	C	0.882380	-0.034710	0.000080
C22	C	0.962669	-0.117354	0.000092
C23	C	1.093670	-0.114798	0.000091
C24	C	1.144369	-0.029599	0.000068
C25	C	1.492581	-0.032862	0.000046
C26	C	1.489874	-0.135257	0.000046
C27	C	1.479906	-0.510204	0.000010
C28	C	1.482674	-0.405882	0.000021
C29	C	1.484890	-0.322734	0.000030
C30	C	1.487658	-0.218405	0.000037
C31	C	1.713380	0.130425	0.000037
C32	C	1.852797	0.133135	0.000033
C33	C	1.475002	0.304244	0.000017
C34	C	1.477709	0.406639	0.000007
N35	N	1.483791	0.135689	0.356151
N36	N	1.483801	0.135686	-0.356086
C37	C	1.654312	0.011436	0.356159
C38	C	1.739581	-0.050687	0.428102
C39	C	1.739594	-0.050688	0.571982
C40	C	1.654326	0.011440	0.643921
C41	C	1.569057	0.073564	0.571978
C42	C	1.569056	0.073559	0.428095
C43	C	1.398532	0.197810	0.571971
C44	C	1.398523	0.197816	0.428091
C45	C	1.313264	0.259938	0.643910
C46	C	1.227999	0.322067	0.571967
C47	C	1.227991	0.322066	0.428078
C48	C	1.313254	0.259940	0.356147
H49	H	0.775717	-0.036782	0.000086
C50	C	1.192582	0.467175	-0.000062
C51	C	1.060650	0.482380	-0.000062
H52	H	1.226986	0.524993	-0.000083
H53	H	1.220118	0.433124	0.079653
H54	H	1.220116	0.433107	-0.079770
H55	H	1.033116	0.516442	0.079652
H56	H	1.033104	0.516446	-0.079784
C57	C	1.561482	0.079079	0.850027
C58	C	1.654326	0.011432	0.802076
H59	H	1.561476	0.079068	0.947666
H60	H	1.578799	0.138135	0.817483
H61	H	1.481201	0.065899	0.817466
H62	H	1.734609	0.024615	0.834629
H63	H	1.637017	-0.047637	0.834634
C64	C	0.709437	0.480677	0.117445
C65	C	0.785659	0.477016	-0.000058
H66	H	0.654956	0.536761	0.117432
H67	H	0.660500	0.429575	0.117445
H68	H	0.761164	0.478192	0.197148
H69	H	0.733932	0.479494	-0.079762
H70	H	0.834600	0.528131	-0.000071
C71	C	0.627506	0.342998	-0.117512
C72	C	0.679223	0.298165	-0.000002
H73	H	0.538614	0.341258	-0.117507
H74	H	0.646212	0.405558	-0.117514
H75	H	0.662608	0.312571	-0.197210
H76	H	0.644128	0.328596	0.079697
H77	H	0.660507	0.235593	0.000013
C78	C	0.775000	-0.195789	0.000121
C79	C	0.906931	-0.211001	0.000117
H80	H	0.740590	-0.253605	0.000126
H81	H	0.747472	-0.161730	0.079823
H82	H	0.747465	-0.161727	-0.079599
H83	H	0.934467	-0.245057	0.079843
H84	H	0.934471	-0.245075	-0.079594
H85	H	1.313260	0.259936	0.238993
C86	C	1.109744	-0.280959	0.000127
C87	C	1.181920	-0.205644	0.000108
H88	H	1.164225	-0.337043	0.000127
H89	H	1.058043	-0.278459	0.079836
H90	H	1.058028	-0.278461	-0.079587
H91	H	1.233629	-0.208139	0.079827
H92	H	1.233642	-0.208145	-0.079609
H93	H	1.313273	0.259931	0.761065
H94	H	1.158575	0.372643	0.630549
H95	H	1.158550	0.372650	0.369509
H96	H	1.251028	-0.027510	0.000051
H97	H	1.191861	0.308172	-0.000042
C98	C	1.772661	0.030865	0.150049
C99	C	1.654310	0.011441	0.198004
H100	H	1.772661	0.030862	0.052411
H101	H	1.789950	0.089925	0.182591
H102	H	1.835637	-0.015029	0.182609
H103	H	1.591335	0.057340	0.165453
H104	H	1.637007	-0.047627	0.165448
H105	H	1.809004	-0.101273	0.369517
H106	H	1.809023	-0.101277	0.630559
