data_functionalizedCrystal
_audit_creation_method	'MofGen! by Chris Wilmer'
_symmetry_space_group_name_H-M	'P1'
_symmetry_Int_Tables_number	1
_symmetry_cell_setting	triclinic
loop_
_symmetry_equiv_pos_as_xyz
  x,y,z
_cell_length_a	21.395362
_cell_length_b	19.805405
_cell_length_c	21.395355
_cell_angle_alpha	90.017223
_cell_angle_beta	90.043940
_cell_angle_gamma	90.042604
loop_
_atom_site_label
_atom_site_type_symbol
_atom_site_fract_x
_atom_site_fract_y
_atom_site_fract_z
Zn1	Zn	0.957877	-0.269255	0.354591
Zn2	Zn	1.291210	0.064079	0.687925
Zn3	Zn	1.624543	0.397412	1.021258
Zn4	Zn	0.957787	-0.382425	0.249816
Zn5	Zn	1.291120	-0.049091	0.583149
Zn6	Zn	1.624453	0.284242	0.916483
Zn7	Zn	0.853092	-0.269286	0.249793
Zn8	Zn	1.186425	0.064047	0.583126
Zn9	Zn	1.519758	0.397380	0.916459
Zn10	Zn	0.853068	-0.382438	0.354521
Zn11	Zn	1.186402	-0.049105	0.687854
Zn12	Zn	1.519735	0.284228	1.021187
O13	O	0.905456	-0.325851	0.302180
O14	O	1.238789	0.007482	0.635514
O15	O	1.572123	0.340816	0.968847
O16	O	1.045543	-0.284248	0.340732
O17	O	1.378876	0.049085	0.674065
O18	O	1.712209	0.382419	1.007399
O19	O	0.943871	-0.367424	0.162135
O20	O	1.277204	-0.034091	0.495468
O21	O	1.610537	0.299243	0.828802
O22	O	0.867039	-0.174565	0.263714
O23	O	1.200373	0.158768	0.597047
O24	O	1.533706	0.492101	0.930381
O25	O	1.045476	-0.367393	0.263754
O26	O	1.378810	-0.034060	0.597087
O27	O	1.712143	0.299273	0.930421
O28	O	0.944024	-0.174542	0.340709
O29	O	1.277358	0.158791	0.674042
O30	O	1.610691	0.492124	1.007376
O31	O	0.866952	-0.284302	0.162118
O32	O	1.200285	0.049032	0.495451
O33	O	1.533619	0.382365	0.828784
O34	O	0.765411	-0.284315	0.263646
O35	O	1.098744	0.049018	0.596979
O36	O	1.432077	0.382352	0.930312
O37	O	0.866999	-0.367417	0.442208
O38	O	1.200333	-0.034084	0.775541
O39	O	1.533666	0.299250	1.108875
O40	O	0.765393	-0.367448	0.340589
O41	O	1.098727	-0.034114	0.673922
O42	O	1.432060	0.299219	1.007256
O43	O	0.944002	-0.284261	0.442260
O44	O	1.277335	0.049072	0.775593
O45	O	1.610668	0.382405	1.108926
O46	O	0.943848	-0.477143	0.263686
O47	O	1.277181	-0.143810	0.597019
O48	O	1.610515	0.189524	0.930352
O49	O	0.866912	-0.477153	0.340612
O50	O	1.200245	-0.143820	0.673945
O51	O	1.533578	0.189513	1.007279
C52	C	0.742668	-0.325887	0.302107
C53	C	1.076002	0.007447	0.635441
C54	C	1.409335	0.340780	0.968774
C55	C	0.673027	-0.325918	0.302091
C56	C	1.006360	0.007415	0.635425
C57	C	1.339694	0.340748	0.968758
C58	C	0.640321	-0.369263	0.342096
C59	C	0.973654	-0.035930	0.675429
C60	C	1.306988	0.297404	1.008762
C61	C	0.574886	-0.369246	0.342124
C62	C	0.908219	-0.035913	0.675457
C63	C	1.241552	0.297420	1.008790
C64	C	0.542159	-0.325892	0.302136
C65	C	0.875492	0.007441	0.635469
C66	C	1.208825	0.340774	0.968803
C67	C	0.574872	-0.282539	0.262129
C68	C	0.908206	0.050794	0.595462
C69	C	1.241539	0.384127	0.928795
C70	C	0.640306	-0.282553	0.262106
C71	C	0.973640	0.050781	0.595440
C72	C	1.306973	0.384114	0.928773
C73	C	0.438434	-0.320440	0.245731
C74	C	0.771767	0.012894	0.579064
C75	C	1.105100	0.346227	0.912397
C76	C	0.373001	-0.320431	0.245752
C77	C	0.706334	0.012902	0.579085
C78	C	1.039667	0.346235	0.912418
C79	C	0.340338	-0.325848	0.302205
C80	C	0.673671	0.007485	0.635538
C81	C	1.007005	0.340818	0.968872
C82	C	0.373116	-0.331287	0.358639
C83	C	0.706450	0.002046	0.691972
C84	C	1.039783	0.335379	1.025305
C85	C	0.438550	-0.331301	0.358616
C86	C	0.771884	0.002033	0.691950
C87	C	1.105217	0.335366	1.025283
C88	C	0.471206	-0.325873	0.302156
C89	C	0.804540	0.007460	0.635489
C90	C	1.137873	0.340794	0.968823
C91	C	0.236680	-0.369177	0.342243
C92	C	0.570013	-0.035844	0.675577
C93	C	0.903346	0.297490	1.008910
C94	C	0.171243	-0.369156	0.342272
C95	C	0.504576	-0.035822	0.675605
C96	C	0.837910	0.297511	1.008939
C97	C	0.171231	-0.282452	0.262272
C98	C	0.504564	0.050881	0.595605
C99	C	0.837897	0.384214	0.928938
C100	C	0.236666	-0.282470	0.262248
C101	C	0.569999	0.050863	0.595582
C102	C	0.903333	0.384197	0.928915
C103	C	0.269387	-0.325836	0.302233
C104	C	0.602720	0.007497	0.635566
C105	C	0.936053	0.340831	0.968900
C106	C	0.905384	-0.501707	0.302157
C107	C	1.238718	-0.168374	0.635491
C108	C	1.572051	0.164960	0.968824
C109	C	0.905411	-0.576939	0.302169
C110	C	1.238745	-0.243606	0.635502
C111	C	1.572078	0.089728	0.968835
C112	C	0.945474	-0.612213	0.342292
C113	C	1.278807	-0.278880	0.675625
C114	C	1.612140	0.054454	1.008958
C115	C	0.945496	-0.682901	0.342303
C116	C	1.278830	-0.349568	0.675637
C117	C	1.612163	-0.016235	1.008970
C118	C	0.905459	-0.718315	0.302188
C119	C	1.238792	-0.384981	0.635522
C120	C	1.572126	-0.051648	0.968855
C121	C	0.865392	-0.683036	0.262064
C122	C	1.198726	-0.349702	0.595397
C123	C	1.532059	-0.016369	0.928731
C124	C	0.865367	-0.612349	0.262056
C125	C	1.198700	-0.279015	0.595389
C126	C	1.532034	0.054318	0.928722
C127	C	0.865493	-0.968109	0.262096
C128	C	1.198826	-0.634776	0.595429
C129	C	1.532160	-0.301442	0.928763
C130	C	0.865523	-1.038801	0.262106
C131	C	1.198856	-0.705468	0.595439
C132	C	1.532189	-0.372134	0.928772
C133	C	0.945622	-1.038662	0.342343
C134	C	1.278956	-0.705328	0.675677
C135	C	1.612289	-0.371995	1.009010
C136	C	0.945597	-0.967975	0.342335
C137	C	1.278930	-0.634641	0.675669
C138	C	1.612264	-0.301308	1.009002
C139	C	0.905528	-0.932702	0.302213
C140	C	1.238861	-0.599369	0.635547
C141	C	1.572195	-0.266035	0.968880
C142	C	0.905503	-0.856053	0.302202
C143	C	1.238836	-0.522720	0.635535
C144	C	1.572170	-0.189387	0.968869
C145	C	0.905487	-0.794962	0.302196
C146	C	1.238820	-0.461628	0.635529
C147	C	1.572153	-0.128295	0.968863
C148	C	1.068879	-0.325816	0.302253
C149	C	1.402213	0.007518	0.635587
C150	C	1.735546	0.340851	0.968920
C151	C	1.138520	-0.325800	0.302285
C152	C	1.471854	0.007533	0.635618
C153	C	1.805187	0.340866	0.968951
C154	C	0.905508	-0.325837	0.465604
C155	C	1.238841	0.007496	0.798937
C156	C	1.572175	0.340829	1.132270
C157	C	0.905530	-0.325831	0.535245
C158	C	1.238863	0.007502	0.868578
C159	C	1.572197	0.340835	1.201911
C160	C	0.905545	-0.149308	0.302217
C161	C	1.238878	0.184025	0.635550
C162	C	1.572211	0.517358	0.968883
C163	C	0.905582	-0.074076	0.302232
C164	C	1.238916	0.259257	0.635566
C165	C	1.572249	0.592590	0.968899
C166	C	0.905440	-0.325816	0.139393
C167	C	1.238773	0.007518	0.472726
C168	C	1.572107	0.340851	0.806059
C169	C	0.905539	-0.325631	0.069752
C170	C	1.238873	0.007702	0.403085
C171	C	1.572206	0.341036	0.736418
C172	C	0.945623	-0.282530	0.567986
C173	C	1.278957	0.050803	0.901319
C174	C	1.612290	0.384136	1.234653
C175	C	0.945623	-0.282501	0.633421
C176	C	1.278956	0.050832	0.966755
C177	C	1.612289	0.384165	1.300088
C178	C	0.905535	-0.325785	0.666113
C179	C	1.238868	0.007548	0.999447
C180	C	1.572202	0.340881	1.332780
C181	C	0.865434	-0.369089	0.633364
C182	C	1.198767	-0.035756	0.966698
C183	C	1.532100	0.297577	1.300031
C184	C	0.865431	-0.369112	0.567930
C185	C	1.198765	-0.035779	0.901263
C186	C	1.532098	0.297554	1.234597
C187	C	0.900563	-0.386731	0.769778
C188	C	1.233896	-0.053398	1.103112
C189	C	1.567230	0.279936	1.436445
C190	C	0.900570	-0.386709	0.835211
C191	C	1.233903	-0.053376	1.168545
C192	C	1.567236	0.279958	1.501878
C193	C	0.905539	-0.325714	0.867934
C194	C	1.238872	0.007620	1.201267
C195	C	1.572205	0.340953	1.534601
C196	C	0.910514	-0.264738	0.835216
C197	C	1.243848	0.068595	1.168549
C198	C	1.577181	0.401928	1.501882
C199	C	0.910512	-0.264762	0.769782
C200	C	1.243845	0.068572	1.103115
C201	C	1.577178	0.401905	1.436448
C202	C	0.905533	-0.325765	0.737066
C203	C	1.238866	0.007569	1.070399
C204	C	1.572199	0.340902	1.403732
C205	C	0.945633	-0.282378	0.971628
C206	C	1.278967	0.050956	1.304961
C207	C	1.612300	0.384289	1.638294
C208	C	0.945628	-0.282347	1.037064
C209	C	1.278962	0.050986	1.370398
C210	C	1.612295	0.384319	1.703731
C211	C	0.865443	-0.368941	1.037006
C212	C	1.198776	-0.035608	1.370339
C213	C	1.532109	0.297725	1.703673
C214	C	0.865445	-0.368966	0.971571
C215	C	1.198778	-0.035632	1.304904
C216	C	1.532111	0.297701	1.638237
C217	C	0.905543	-0.325685	0.938885
C218	C	1.238877	0.007649	1.272219
C219	C	1.572210	0.340982	1.605552
H220	H	0.548222	-0.247239	0.229572
H221	H	0.881555	0.086094	0.562905
H222	H	1.214888	0.419427	0.896238
H223	H	0.548252	-0.404542	0.374702
H224	H	0.881585	-0.071209	0.708036
H225	H	1.214918	0.262124	1.041369
H226	H	0.465236	-0.335727	0.404567
H227	H	0.798569	-0.002394	0.737900
H228	H	1.131903	0.330939	1.071233
H229	H	0.978201	-0.939143	0.374998
H230	H	1.311534	-0.605810	0.708332
H231	H	1.644868	-0.272477	1.041665
H232	H	0.465022	-0.316026	0.199756
H233	H	0.798355	0.017308	0.533090
H234	H	1.131689	0.350641	0.866423
H235	H	0.832743	-0.583629	0.229385
H236	H	1.166077	-0.250296	0.562718
H237	H	1.499410	0.083037	0.896051
C238	C	0.989515	-0.573261	0.386416
C239	C	1.322848	-0.239928	0.719750
C240	C	1.656182	0.093405	1.053083
H241	H	0.983768	-0.526110	0.380662
H242	H	1.317101	-0.192777	0.713996
H243	H	1.650434	0.140557	1.047329
H244	H	0.980330	-0.584838	0.428504
H245	H	1.313663	-0.251504	0.761837
H246	H	1.646996	0.081829	1.095170
H247	H	1.031623	-0.584800	0.377297
H248	H	1.364956	-0.251467	0.710630
H249	H	1.698290	0.081867	1.043963
C250	C	0.676310	-0.416956	0.386084
C251	C	1.009644	-0.083622	0.719418
C252	C	1.342977	0.249711	1.052751
H253	H	0.647456	-0.442763	0.409918
H254	H	0.980790	-0.109430	0.743251
H255	H	1.314123	0.223903	1.076585
H256	H	0.701787	-0.446414	0.362063
H257	H	1.035120	-0.113080	0.695396
H258	H	1.368454	0.220253	1.028730
H259	H	0.701885	-0.391107	0.413421
H260	H	1.035218	-0.057773	0.746755
H261	H	1.368552	0.275560	1.080088
C262	C	0.989692	-1.077463	0.386483
C263	C	1.323026	-0.744130	0.719817
C264	C	1.656359	-0.410797	1.053150
H265	H	0.983970	-1.124634	0.380750
H266	H	1.317304	-0.791301	0.714083
H267	H	1.650637	-0.457967	1.047417
H268	H	1.031790	-1.065832	0.377365
H269	H	1.365123	-0.732499	0.710698
H270	H	1.698456	-0.399165	1.044031
H271	H	0.980494	-1.065868	0.428570
H272	H	1.313828	-0.732534	0.761903
H273	H	1.647161	-0.399201	1.095236
H274	H	0.978276	-0.247083	1.063721
H275	H	1.311609	0.086251	1.397054
H276	H	1.644943	0.419584	1.730388
C277	C	0.989722	-0.234918	0.532033
C278	C	1.323056	0.098416	0.865366
C279	C	1.656389	0.431749	1.198699
H280	H	0.983983	-0.241134	0.488372
H281	H	1.317316	0.092199	0.821706
H282	H	1.650649	0.425533	1.155039
H283	H	0.980577	-0.189440	0.542751
H284	H	1.313910	0.143894	0.876085
H285	H	1.647243	0.477227	1.209418
H286	H	1.031818	-0.244815	0.542786
H287	H	1.365151	0.088518	0.876120
H288	H	1.698485	0.421851	1.209453
H289	H	0.832796	-0.404177	1.063623
H290	H	1.166129	-0.070844	1.396956
H291	H	1.499463	0.262490	1.730290
C292	C	0.821349	-0.721985	0.217939
C293	C	1.154683	-0.388652	0.551273
C294	C	1.488016	-0.055319	0.884606
H295	H	0.797481	-0.690851	0.194047
H296	H	1.130815	-0.357518	0.527380
H297	H	1.464148	-0.024185	0.860713
H298	H	0.845338	-0.749544	0.190672
H299	H	1.178671	-0.416211	0.524005
H300	H	1.512005	-0.082877	0.857339
H301	H	0.794046	-0.749581	0.241881
H302	H	1.127379	-0.416248	0.575214
H303	H	1.460713	-0.082915	0.908547
C304	C	0.821348	-0.416602	0.935551
C305	C	1.154681	-0.083268	1.268884
C306	C	1.488014	0.250065	1.602217
H307	H	0.827084	-0.410413	0.891899
H308	H	1.160418	-0.077080	1.225232
H309	H	1.493751	0.256253	1.558566
H310	H	0.830494	-0.462073	0.946282
H311	H	1.163827	-0.128740	1.279615
H312	H	1.497160	0.204593	1.612949
H313	H	0.779253	-0.406697	0.946243
H314	H	1.112587	-0.073363	1.279576
H315	H	1.445920	0.259970	1.612910
C316	C	0.676284	-0.234875	0.218096
C317	C	1.009618	0.098458	0.551429
C318	C	1.342951	0.431791	0.884763
H319	H	0.647424	-0.209054	0.194282
H320	H	0.980757	0.124280	0.527615
H321	H	1.314091	0.457613	0.860948
H322	H	0.701865	-0.205430	0.242102
H323	H	1.035198	0.127903	0.575435
H324	H	1.368532	0.461237	0.908769
H325	H	0.701754	-0.260735	0.190742
H326	H	1.035087	0.072599	0.524075
H327	H	1.368421	0.405932	0.857409
C328	C	0.821330	-0.416747	0.531910
C329	C	1.154664	-0.083414	0.865244
C330	C	1.487997	0.249920	1.198577
H331	H	0.827069	-0.410560	0.488259
H332	H	1.160403	-0.077226	0.821592
H333	H	1.493736	0.256107	1.154925
H334	H	0.830475	-0.462219	0.542643
H335	H	1.163808	-0.128885	0.875976
H336	H	1.497141	0.204448	1.209310
H337	H	0.779236	-0.406840	0.542601
H338	H	1.112569	-0.073507	0.875934
H339	H	1.445902	0.259826	1.209267
C340	C	0.989732	-0.234874	0.669444
C341	C	1.323065	0.098459	1.002778
C342	C	1.656399	0.431793	1.336111
H343	H	1.013615	-0.209105	0.640606
H344	H	1.346949	0.124229	0.973940
H345	H	1.680282	0.457562	1.307273
H346	H	0.965786	-0.205377	0.694955
H347	H	1.299119	0.127956	1.028289
H348	H	1.632453	0.461289	1.361622
H349	H	1.017018	-0.260763	0.694987
H350	H	1.350351	0.072570	1.028320
H351	H	1.683684	0.405903	1.361653
H352	H	0.263295	-0.247178	0.229669
H353	H	0.596629	0.086156	0.563002
H354	H	0.929962	0.419489	0.896336
H355	H	0.896522	-0.436359	0.861846
H356	H	1.229856	-0.103026	1.195179
H357	H	1.563189	0.230308	1.528512
H358	H	0.832917	-1.067633	0.229439
H359	H	1.166250	-0.734299	0.562772
H360	H	1.499583	-0.400966	0.896105
C361	C	0.989567	-0.721700	0.386436
C362	C	1.322900	-0.388366	0.719770
C363	C	1.656234	-0.055033	1.053103
H364	H	1.013413	-0.690485	0.410320
H365	H	1.346747	-0.357152	0.743653
H366	H	1.680080	-0.023818	1.076987
H367	H	0.965598	-0.749291	0.413711
H368	H	1.298931	-0.415957	0.747045
H369	H	1.632265	-0.082624	1.080378
H370	H	1.016889	-0.749253	0.362502
H371	H	1.350222	-0.415919	0.695835
H372	H	1.683556	-0.082586	1.029168
C373	C	0.915977	-0.197696	0.733791
C374	C	1.249310	0.135637	1.067124
C375	C	1.582643	0.468970	1.400457
H376	H	0.915267	-0.206449	0.690135
H377	H	1.248600	0.126884	1.023468
H378	H	1.581933	0.460217	1.356802
H379	H	0.881908	-0.169229	0.744488
H380	H	1.215241	0.164104	1.077821
H381	H	1.548574	0.497438	1.411154
H382	H	0.954135	-0.176040	0.744539
H383	H	1.287468	0.157293	1.077872
H384	H	1.620802	0.490626	1.411205
C385	C	0.337197	-0.337244	0.420741
C386	C	0.670530	-0.003910	0.754074
C387	C	1.003863	0.329423	1.087408
H388	H	0.293532	-0.336449	0.412675
H389	H	0.626865	-0.003116	0.746008
H390	H	0.960199	0.330218	1.079342
H391	H	0.347905	-0.378483	0.440705
H392	H	0.681238	-0.045150	0.774039
H393	H	1.014571	0.288184	1.107372
H394	H	0.347985	-0.300463	0.447151
H395	H	0.681318	0.032870	0.780485
H396	H	1.014651	0.366203	1.113818
C397	C	0.272675	-0.416869	0.386230
C398	C	0.606008	-0.083536	0.719564
C399	C	0.939342	0.249798	1.052897
H400	H	0.243822	-0.442675	0.410068
H401	H	0.577155	-0.109341	0.743401
H402	H	0.910489	0.223992	1.076734
H403	H	0.298148	-0.446329	0.362207
H404	H	0.631481	-0.112996	0.695541
H405	H	0.964815	0.220338	1.028874
H406	H	0.298254	-0.391021	0.413564
H407	H	0.631587	-0.057687	0.746897
H408	H	0.964920	0.275646	1.080231
C409	C	0.916388	-0.197680	0.871201
C410	C	1.249721	0.135653	1.204534
C411	C	1.583054	0.468987	1.537868
H412	H	0.915794	-0.206408	0.914857
H413	H	1.249127	0.126925	1.248190
H414	H	1.582460	0.460259	1.581523
H415	H	0.954641	-0.176330	0.860354
H416	H	1.287975	0.157004	1.193687
H417	H	1.621308	0.490337	1.527020
H418	H	0.882463	-0.168949	0.860601
H419	H	1.215796	0.164385	1.193935
H420	H	1.549130	0.497718	1.527268
C421	C	0.821427	-0.929318	0.217956
C422	C	1.154761	-0.595984	0.551289
C423	C	1.488094	-0.262651	0.884622
H424	H	0.797594	-0.960534	0.194061
H425	H	1.130927	-0.627201	0.527394
H426	H	1.464261	-0.293868	0.860728
H427	H	0.794103	-0.901763	0.241879
H428	H	1.127436	-0.568430	0.575213
H429	H	1.460769	-0.235097	0.908546
H430	H	0.845405	-0.901729	0.190681
H431	H	1.178739	-0.568395	0.524015
H432	H	1.512072	-0.235062	0.857348
C433	C	0.989729	-0.234760	0.935671
C434	C	1.323062	0.098573	1.269005
C435	C	1.656395	0.431906	1.602338
H436	H	1.013600	-0.208958	0.964545
H437	H	1.346933	0.124375	1.297879
H438	H	1.680266	0.457709	1.631212
H439	H	1.017017	-0.260650	0.910165
H440	H	1.350351	0.072684	1.243498
H441	H	1.683684	0.406017	1.576832
H442	H	0.965766	-0.205284	0.910129
H443	H	1.299100	0.128049	1.243462
H444	H	1.632433	0.461382	1.576796
C445	C	0.894960	-0.453817	0.733790
C446	C	1.228293	-0.120484	1.067123
C447	C	1.561627	0.212849	1.400456
H448	H	0.891965	-0.490123	0.762645
H449	H	1.225299	-0.156790	1.095978
H450	H	1.558632	0.176543	1.429312
H451	H	0.858608	-0.452858	0.708287
H452	H	1.191941	-0.119524	1.041621
H453	H	1.525275	0.213809	1.374954
H454	H	0.930820	-0.459857	0.708240
H455	H	1.264153	-0.126524	1.041573
H456	H	1.597486	0.206809	1.374907
C457	C	0.821341	-0.416703	0.669322
C458	C	1.154675	-0.083370	1.002656
C459	C	1.488008	0.249963	1.335989
H460	H	0.827090	-0.410494	0.712982
H461	H	1.160423	-0.077161	1.046316
H462	H	1.493757	0.256173	1.379649
H463	H	0.779248	-0.406813	0.658570
H464	H	1.112581	-0.073480	0.991904
H465	H	1.445914	0.259854	1.325237
H466	H	0.830493	-0.462184	0.658604
H467	H	1.163826	-0.128851	0.991937
H468	H	1.497160	0.204483	1.325271
C469	C	0.336947	-0.314496	0.183676
C470	C	0.670281	0.018837	0.517010
C471	C	1.003614	0.352170	0.850343
H472	H	0.293300	-0.315287	0.191772
H473	H	0.626633	0.018046	0.525105
H474	H	0.959966	0.351380	0.858439
H475	H	0.347667	-0.273271	0.163680
H476	H	0.681000	0.060062	0.497013
H477	H	1.014333	0.393396	0.830347
H478	H	0.347628	-0.351295	0.157281
H479	H	0.680961	-0.017962	0.490615
H480	H	1.014295	0.315372	0.823948
H481	H	0.144615	-0.404451	0.374852
H482	H	0.477949	-0.071117	0.708186
H483	H	0.811282	0.262216	1.041519
C484	C	0.135239	-0.234755	0.218294
C485	C	0.468572	0.098578	0.551627
C486	C	0.801906	0.431911	0.884960
H487	H	0.091584	-0.240955	0.224036
H488	H	0.424917	0.092379	0.557369
H489	H	0.758251	0.425712	0.890702
H490	H	0.146017	-0.189298	0.227540
H491	H	0.479350	0.144035	0.560873
H492	H	0.812684	0.477369	0.894206
H493	H	0.145903	-0.244594	0.176171
H494	H	0.479236	0.088740	0.509504
H495	H	0.812569	0.422073	0.842838
