data_functionalizedCrystal
_audit_creation_method	'MofGen! by Chris Wilmer'
_symmetry_space_group_name_H-M	'P1'
_symmetry_Int_Tables_number	1
_symmetry_cell_setting	triclinic
loop_
_symmetry_equiv_pos_as_xyz
  x,y,z
_cell_length_a	12.837943
_cell_length_b	10.654541
_cell_length_c	11.295483
_cell_angle_alpha	94.135029
_cell_angle_beta	85.461227
_cell_angle_gamma	89.656434
loop_
_atom_site_label
_atom_site_type_symbol
_atom_site_fract_x
_atom_site_fract_y
_atom_site_fract_z
O1	O	1.384727	0.319125	-0.099003
O2	O	1.082806	0.302983	-0.099010
O3	O	1.240709	0.129073	-0.098999
O4	O	1.226824	0.493035	-0.099014
O5	O	1.226840	0.144321	0.099051
O6	O	1.068937	0.318232	0.099040
O7	O	1.370858	0.334373	0.099047
Cu8	Cu	1.218631	0.327695	0.117127
Cu9	Cu	1.235033	0.309662	-0.117090
O10	O	1.212955	0.508284	0.099036
C11	C	1.037211	0.305155	0.000014
C12	C	0.922018	0.288892	0.000012
C13	C	0.682463	0.484397	0.000021
C14	C	0.574227	0.469123	0.000019
C15	C	0.597309	0.243071	0.000016
C16	C	0.705544	0.258345	0.000017
C17	C	0.748117	0.379012	0.000018
C18	C	0.856355	0.394285	0.000011
C19	C	0.879434	0.168234	0.000016
C20	C	0.771198	0.152960	0.000014
C21	C	1.232755	0.089788	0.000025
C22	C	1.229706	-0.049989	0.000023
C23	C	1.418522	-0.057353	0.000043
C24	C	1.511493	-0.126701	0.000055
C25	C	1.508622	-0.258033	0.000051
C26	C	1.412770	-0.320020	0.000031
C27	C	1.319799	-0.250672	0.000019
C28	C	1.322680	-0.119337	0.000027
C29	C	1.130987	-0.243308	-0.000009
C30	C	1.133855	-0.111975	0.000004
C31	C	1.035135	-0.305294	-0.000028
C32	C	0.942161	-0.235946	-0.000032
C33	C	0.945036	-0.104606	-0.000027
C34	C	1.040884	-0.042627	-0.000008
C35	C	1.416452	0.332202	0.000020
C36	C	1.531646	0.348464	0.000015
C37	C	1.220908	0.547569	0.000009
C38	C	1.223958	0.687344	0.000003
N39	N	1.207102	0.340379	0.281862
N40	N	1.246569	0.296969	-0.281825
C41	C	1.329558	0.205592	0.531160
C42	C	1.320854	0.215188	0.655823
C43	C	1.180983	0.369157	0.655854
C44	C	1.189688	0.359562	0.531191
C45	C	1.263979	0.277778	0.468848
C46	C	1.272688	0.268191	0.344183
C47	C	1.132814	0.422153	0.344216
C48	C	1.124109	0.431748	0.468879
H49	H	0.891016	0.492538	0.000013
F50	F	0.727776	0.612817	0.000007
F51	F	1.063021	0.498988	0.277887
H52	H	1.420868	0.049585	0.000062
F53	F	0.504356	0.581289	0.000026
F54	F	0.840161	-0.301924	-0.000065
H55	H	1.589533	-0.076216	0.000081
F56	F	1.409724	-0.459800	-0.000038
F57	F	1.043951	0.097148	0.000005
F58	F	0.551980	0.114660	0.000029
H59	H	0.736519	0.054717	0.000027
H60	H	1.374254	0.156405	0.706554
F61	F	1.408633	0.118565	0.464810
F62	F	1.607572	-0.331841	0.000054
H63	H	1.120490	0.435734	0.706629
F64	F	1.351757	0.181154	0.277836
F65	F	1.045044	0.518780	0.535238
F66	F	1.032086	-0.445074	-0.000093
H67	H	0.932903	0.082421	0.000006
F68	F	0.846082	-0.030811	-0.000048
