data_functionalizedCrystal
_audit_creation_method	'MofGen! by Chris Wilmer'
_symmetry_space_group_name_H-M	'P1'
_symmetry_Int_Tables_number	1
_symmetry_cell_setting	triclinic
loop_
_symmetry_equiv_pos_as_xyz
  x,y,z
_cell_length_a	14.853567
_cell_length_b	12.837943
_cell_length_c	13.330367
_cell_angle_alpha	90.006691
_cell_angle_beta	90.008763
_cell_angle_gamma	90.768065
loop_
_atom_site_label
_atom_site_type_symbol
_atom_site_fract_x
_atom_site_fract_y
_atom_site_fract_z
O1	O	0.234384	-1.375797	-0.083389
O2	O	0.222806	-1.073974	-0.083395
O3	O	0.098049	-1.232948	-0.083395
O4	O	0.359141	-1.216823	-0.083389
O5	O	0.098069	-1.232923	0.083452
O6	O	0.222826	-1.073950	0.083452
O7	O	0.234404	-1.375772	0.083458
Cu8	Cu	0.228617	-1.224859	0.098690
Cu9	Cu	0.228593	-1.224888	-0.098627
O10	O	0.359161	-1.216799	0.083458
C11	C	0.218904	-1.035336	0.000027
C12	C	0.207238	-0.920242	0.000024
C13	C	0.064408	-1.232205	0.000026
C14	C	-0.035861	-1.230015	0.000017
C15	C	0.238306	-1.414411	0.000034
C16	C	0.249972	-1.529505	0.000030
C17	C	-0.457190	-1.126327	0.000034
C18	C	-0.462451	-1.315191	0.000038
C19	C	-0.368243	-1.317249	0.000032
C20	C	-0.318504	-1.223845	0.000029
C21	C	-0.362972	-1.128383	0.000031
C22	C	-0.323767	-1.412710	0.000040
C23	C	-0.229553	-1.414773	0.000035
C24	C	-0.179812	-1.321368	0.000024
C25	C	-0.224286	-1.225901	0.000026
C26	C	-0.174547	-1.132497	0.000022
C27	C	-0.219020	-1.037029	0.000016
C28	C	-0.313231	-1.034978	0.000020
C29	C	-0.085600	-1.323420	0.000020
C30	C	-0.080330	-1.134553	0.000019
C31	C	0.392802	-1.217542	0.000035
C32	C	0.493071	-1.219731	0.000037
N33	N	0.228634	-1.224846	0.237471
C34	C	0.347485	-0.679486	0.000042
C35	C	0.336528	-0.571344	0.000040
C36	C	0.174368	-0.595815	0.000025
C37	C	0.185325	-0.703957	0.000027
C38	C	0.271886	-0.745788	0.000034
C39	C	0.282842	-0.853931	0.000029
C40	C	0.120683	-0.878400	0.000022
C41	C	0.109726	-0.770259	0.000020
N42	N	0.228570	-1.224909	-0.237408
C43	C	0.288697	-1.287855	0.710086
C44	C	0.168455	-1.161951	0.710070
C45	C	0.168468	-1.161936	0.605051
C46	C	0.228595	-1.224883	0.552546
C47	C	0.288710	-1.287844	0.605058
C48	C	0.108349	-1.098984	0.552531
C49	C	0.108358	-1.098967	0.447506
C50	C	0.168491	-1.161909	0.394998
C51	C	0.228608	-1.224872	0.447517
C52	C	0.288735	-1.287818	0.395012
C53	C	0.348858	-1.350777	0.447529
C54	C	0.348842	-1.350786	0.552550
C55	C	0.168506	-1.161900	0.289977
C56	C	0.288748	-1.287808	0.289983
H57	H	-0.039838	-1.058491	0.000012
H58	H	-0.178510	-0.960980	0.000020
O59	O	-0.361195	-0.932015	0.000035
H60	H	-0.435062	-0.946280	0.000056
O61	O	0.353529	-1.355769	0.766727
H62	H	0.397687	-1.306146	0.814607
H63	H	0.059125	-0.932396	0.000009
O64	O	0.016366	-0.725141	0.000013
H65	H	0.021446	-0.638804	0.000009
H66	H	0.337716	-1.339062	0.247241
H67	H	0.119497	-1.110710	0.752826
H68	H	-0.493404	-1.048600	0.000025
O69	O	0.043505	-1.031095	0.609165
H70	H	0.001696	-0.987322	0.555006
H71	H	0.059403	-1.047702	0.404756
O72	O	0.103672	-1.094002	0.233330
H73	H	0.061861	-1.050231	0.287484
O74	O	-0.516091	-1.415932	0.000052
H75	H	-0.589074	-1.398464	0.000053
H76	H	-0.193351	-1.492508	0.000039
O77	O	-0.377409	-1.513450	0.000058
H78	H	-0.450391	-1.495980	0.000051
H79	H	-0.049395	-1.401148	0.000032
H80	H	0.353325	-0.887988	0.000036
H81	H	0.397810	-1.402032	0.404765
H82	H	0.417966	-0.713545	0.000046
H83	H	0.398088	-0.517364	0.000049
H84	H	0.103894	-0.561737	0.000103
H85	H	0.397789	-1.402046	0.595319
