data_functionalizedCrystal
_audit_creation_method	'MofGen! by Chris Wilmer'
_symmetry_space_group_name_H-M	'P1'
_symmetry_Int_Tables_number	1
_symmetry_cell_setting	triclinic
loop_
_symmetry_equiv_pos_as_xyz
  x,y,z
_cell_length_a	15.944545
_cell_length_b	19.188930
_cell_length_c	14.421503
_cell_angle_alpha	89.999163
_cell_angle_beta	89.995153
_cell_angle_gamma	83.320477
loop_
_atom_site_label
_atom_site_type_symbol
_atom_site_fract_x
_atom_site_fract_y
_atom_site_fract_z
O1	O	1.114196	0.090017	-0.077062
O2	O	0.869604	0.101124	-0.077079
O3	O	0.998958	-0.006067	-0.077052
O4	O	0.984841	0.197208	-0.077089
O5	O	0.998937	-0.006051	0.077171
O6	O	0.869582	0.101140	0.077145
O7	O	1.114174	0.090033	0.077161
Cu8	Cu	0.991876	0.095588	0.091235
Cu9	Cu	0.991902	0.095569	-0.091152
O10	O	0.984820	0.197224	0.077134
C11	C	0.838301	0.100672	0.000031
C12	C	0.745060	0.099292	0.000026
C13	C	0.474691	0.028726	0.000048
C14	C	0.525135	0.062755	0.076085
C15	C	0.409434	0.094370	0.000043
C16	C	0.525136	0.062757	-0.075967
C17	C	0.574339	0.096785	0.000033
C18	C	0.458650	0.128381	0.076142
C19	C	0.458648	0.128374	-0.075979
C20	C	0.509059	0.162451	0.000076
C21	C	0.314437	0.092977	0.000049
C22	C	0.669333	0.098183	0.000033
C23	C	0.998490	-0.032071	0.000062
C24	C	0.997118	-0.109579	0.000070
C25	C	1.073019	-0.154308	0.000080
C26	C	1.071730	-0.227135	0.000065
C27	C	0.994535	-0.255230	0.000059
C28	C	0.918624	-0.210491	0.000044
C29	C	0.919916	-0.137666	0.000050
N30	N	0.935522	-0.363381	0.052540
N31	N	0.934300	-0.432563	0.052537
C32	C	0.990640	-0.474649	0.000040
N33	N	1.048259	-0.444941	-0.052442
N34	N	1.049484	-0.375753	-0.052434
C35	C	0.993126	-0.334196	0.000052
C36	C	1.065148	-0.598346	0.000032
C37	C	1.063855	-0.671174	0.000011
C38	C	0.910748	-0.654528	0.000000
C39	C	0.912042	-0.581702	0.000011
C40	C	0.989245	-0.553615	0.000032
C41	C	1.145477	0.090486	0.000049
C42	C	1.238719	0.091866	0.000048
C43	C	0.985288	0.223228	0.000018
C44	C	0.986660	0.300736	0.000004
N45	N	0.991865	0.095601	0.219516
N46	N	0.991920	0.095551	-0.219434
C47	C	0.932041	0.145144	0.469157
C48	C	1.007890	0.158697	0.530962
C49	C	0.991885	0.095584	0.408677
C50	C	0.916055	0.082047	0.530967
C51	C	0.991898	0.095570	0.591399
C52	C	1.067773	0.109169	0.469121
C53	C	0.975888	0.032492	0.469120
C54	C	1.051792	0.046018	0.530897
C55	C	0.991877	0.095594	0.303416
C56	C	0.991916	0.095559	0.696658
H57	H	0.554166	0.035016	-0.140246
H58	H	0.459249	-0.027807	0.000133
H59	H	0.847895	-0.677402	-0.000009
Cl60	Cl	0.414002	0.171162	0.175498
Cl61	Cl	0.816618	-0.525467	0.000004
Cl62	Cl	1.130018	-0.018701	0.572496
Cl63	Cl	1.028801	0.241063	0.572903
H64	H	0.881484	0.187088	0.442049
H65	H	0.962321	-0.020841	0.441935
H66	H	1.131920	0.120677	0.442070
Cl67	Cl	1.170073	-0.119003	0.000079
H68	H	0.851922	0.070604	0.558135
H69	H	1.133539	-0.263561	0.000069
H70	H	0.554160	0.035038	0.140378
Cl71	Cl	0.821580	-0.245809	0.000029
Cl72	Cl	0.413806	0.171129	-0.175246
Cl73	Cl	0.532651	0.249801	0.000122
H74	H	0.858106	-0.101246	0.000043
Cl75	Cl	1.162200	-0.563034	0.000063
Cl76	Cl	1.159283	-0.727407	0.000017
