data_functionalizedCrystal
_audit_creation_method	'MofGen! by Chris Wilmer'
_symmetry_space_group_name_H-M	'P1'
_symmetry_Int_Tables_number	1
_symmetry_cell_setting	triclinic
loop_
_symmetry_equiv_pos_as_xyz
  x,y,z
_cell_length_a	17.699077
_cell_length_b	17.019294
_cell_length_c	16.776229
_cell_angle_alpha	86.114377
_cell_angle_beta	89.993415
_cell_angle_gamma	83.337580
loop_
_atom_site_label
_atom_site_type_symbol
_atom_site_fract_x
_atom_site_fract_y
_atom_site_fract_z
O1	O	1.004150	0.099735	-0.073122
O2	O	1.504150	0.599735	0.426878
O3	O	0.783780	0.112718	-0.074017
O4	O	1.283780	0.612718	0.425983
O5	O	0.900112	-0.008619	-0.065683
O6	O	1.400112	0.491381	0.434317
O7	O	0.887818	0.221071	-0.081457
O8	O	1.387818	0.721071	0.418543
O9	O	0.900097	-0.008626	0.066894
O10	O	1.400097	0.491374	0.566894
O11	O	0.783764	0.112711	0.058560
O12	O	1.283764	0.612711	0.558560
O13	O	1.004135	0.099727	0.059455
O14	O	1.504135	0.599727	0.559455
Zn15	Zn	0.893947	0.106218	0.080057
Zn16	Zn	1.393947	0.606218	0.580057
Zn17	Zn	0.893967	0.106227	-0.094619
Zn18	Zn	1.393967	0.606227	0.405381
O19	O	0.887802	0.221064	0.051120
O20	O	1.387802	0.721064	0.551120
C21	C	0.755575	0.112250	-0.007697
C22	C	1.255575	0.612250	0.492303
C23	C	0.671556	0.110857	-0.007603
C24	C	1.171556	0.610857	0.492397
C25	C	0.632079	0.110196	0.064711
C26	C	1.132079	0.610196	0.564711
C27	C	0.553136	0.108874	0.064802
C28	C	1.053136	0.608874	0.564802
C29	C	0.513669	0.108219	-0.007421
C30	C	1.013669	0.608219	0.492579
C31	C	0.553151	0.108877	-0.079740
C32	C	1.053151	0.608877	0.420260
C33	C	0.632094	0.110193	-0.079831
C34	C	1.132094	0.610193	0.420169
C35	C	0.234784	0.103569	-0.079377
C36	C	0.734784	0.603569	0.420623
C37	C	0.155836	0.102255	-0.079281
C38	C	0.655836	0.602255	0.420719
C39	C	0.155826	0.102250	0.065256
C40	C	0.655826	0.602250	0.565256
C41	C	0.234769	0.103566	0.065165
C42	C	0.734769	0.603566	0.565165
C43	C	0.274245	0.104220	-0.007153
C44	C	0.774245	0.604220	0.492847
C45	C	0.359844	0.105651	-0.007251
C46	C	0.859844	0.605651	0.492749
C47	C	0.428070	0.106793	-0.007324
C48	C	0.928070	0.606793	0.492676
C49	C	0.899638	-0.038011	0.002622
C50	C	1.399638	0.461989	0.502622
C51	C	0.898239	-0.125579	0.008631
C52	C	1.398239	0.374421	0.508631
C53	C	0.897592	-0.166710	-0.060813
C54	C	1.397592	0.333290	0.439187
C55	C	0.896273	-0.248988	-0.055165
C56	C	1.396273	0.251012	0.444835
C57	C	0.895606	-0.290135	0.019928
C58	C	1.395606	0.209865	0.519928
C59	C	0.896251	-0.248998	0.089378
C60	C	1.396251	0.251002	0.589378
C61	C	0.897565	-0.166720	0.083729
C62	C	1.397565	0.333280	0.583729
C63	C	0.891634	-0.538561	0.040600
C64	C	1.391634	-0.038561	0.540600
C65	C	0.890322	-0.620845	0.046244
C66	C	1.390322	-0.120845	0.546244
C67	C	0.890343	-0.620830	-0.098300
C68	C	1.390343	-0.120830	0.401700
C69	C	0.891661	-0.538551	-0.103942
C70	C	1.391661	-0.038551	0.396058
C71	C	0.892302	-0.497420	-0.034493
C72	C	1.392302	0.002580	0.465507
C73	C	0.894260	-0.374238	0.025703
C74	C	1.394260	0.125762	0.525703
C75	C	0.893643	-0.413319	-0.040269
C76	C	1.393643	0.086681	0.459731
C77	C	1.032340	0.100195	-0.006867
C78	C	1.532340	0.600195	0.493133
C79	C	1.116359	0.101589	-0.006966
C80	C	1.616359	0.601589	0.493034
C81	C	0.888276	0.250456	-0.017187
C82	C	1.388276	0.750456	0.482813
C83	C	0.889675	0.338024	-0.023201
C84	C	1.389675	0.838024	0.476799
N85	N	0.893939	0.106211	0.199268
N86	N	1.393939	0.606211	0.699268
N87	N	0.893982	0.106228	-0.213831
N88	N	1.393982	0.606228	0.286169
C89	C	0.945466	0.052505	0.244674
C90	C	1.445466	0.552505	0.744674
C91	C	0.945471	0.052504	0.328127
C92	C	1.445471	0.552504	0.828127
C93	C	0.893950	0.106214	0.366171
C94	C	1.393950	0.606214	0.866171
C95	C	0.842417	0.159922	0.320759
C96	C	1.342417	0.659922	0.820759
C97	C	0.842410	0.159918	0.237309
C98	C	1.342410	0.659918	0.737309
C99	C	0.842444	0.159938	0.657305
C100	C	1.342444	0.659938	1.157305
C101	C	0.842457	0.159939	0.740762
C102	C	1.342457	0.659939	1.240762
C103	C	0.945505	0.052523	0.748123
C104	C	1.445505	0.552523	1.248123
C105	C	0.945498	0.052519	0.664673
C106	C	1.445498	0.552519	1.164673
C107	C	0.893963	0.106225	0.619268
C108	C	1.393963	0.606225	1.119268
C109	C	0.893958	0.106224	0.528780
C110	C	1.393958	0.606224	1.028780
C111	C	0.893958	0.106219	0.456658
C112	C	1.393958	0.606219	0.956658
H113	H	0.664234	0.110733	-0.138716
H114	H	1.164234	0.610733	0.361284
H115	H	0.123676	0.101714	0.124141
H116	H	0.623676	0.601714	0.624141
Cl117	Cl	1.010243	-0.015017	0.196856
Cl118	Cl	1.510243	0.484983	0.696856
H119	H	0.266916	0.104099	-0.138263
H120	H	0.766916	0.604099	0.361737
Cl121	Cl	0.777644	0.227440	0.368584
Cl122	Cl	1.277644	0.727440	0.868584
Cl123	Cl	1.010248	-0.015014	0.385210
Cl124	Cl	1.510248	0.484986	0.885210
H125	H	0.894180	-0.379813	-0.101409
H126	H	1.394180	0.120187	0.398591
Cl127	Cl	0.503540	0.108024	-0.170534
Cl128	Cl	1.003540	0.608024	0.329466
Cl129	Cl	1.010271	-0.015001	0.616849
Cl130	Cl	1.510271	0.484999	1.116849
Cl131	Cl	0.777626	0.227435	0.180227
Cl132	Cl	1.277626	0.727435	0.680227
H133	H	0.664206	0.110736	0.123523
H134	H	1.164206	0.610736	0.623523
H135	H	0.898139	-0.133214	-0.121962
H136	H	1.398139	0.366786	0.378038
H137	H	0.895749	-0.282474	-0.111714
H138	H	1.395749	0.217526	0.388286
Cl139	Cl	1.010291	-0.014997	0.805208
Cl140	Cl	1.510291	0.485003	1.305208
H141	H	0.123705	0.101720	-0.138098
H142	H	0.623705	0.601720	0.361902
H143	H	0.889776	-0.654344	0.107397
H144	H	1.389776	-0.154344	0.607397
H145	H	0.892205	-0.505055	-0.165091
H146	H	1.392205	-0.005055	0.334909
H147	H	0.800500	0.203677	0.771735
H148	H	1.300500	0.703677	1.271735
Cl149	Cl	0.503510	0.108058	0.155714
Cl150	Cl	1.003510	0.608058	0.655714
Cl151	Cl	0.892428	-0.486863	0.127909
Cl152	Cl	1.392428	0.013137	0.627909
Cl153	Cl	0.893418	-0.425971	0.120104
Cl154	Cl	1.393418	0.074029	0.620104
Cl155	Cl	0.889536	-0.672541	-0.185602
Cl156	Cl	1.389536	-0.172541	0.314398
H157	H	0.895703	-0.282506	0.150520
H158	H	1.395703	0.217494	0.650520
Cl159	Cl	0.777662	0.227454	0.600230
Cl160	Cl	1.277662	0.727454	1.100230
Cl161	Cl	0.284379	0.104394	0.155963
Cl162	Cl	0.784379	0.604394	0.655963
H163	H	0.898081	-0.133231	0.140278
H164	H	1.398081	0.366769	0.640278
