data_functionalizedCrystal
_audit_creation_method	'MofGen! by Chris Wilmer'
_symmetry_space_group_name_H-M	'P1'
_symmetry_Int_Tables_number	1
_symmetry_cell_setting	triclinic
loop_
_symmetry_equiv_pos_as_xyz
  x,y,z
_cell_length_a	9.065215
_cell_length_b	15.712078
_cell_length_c	7.540329
_cell_angle_alpha	89.998083
_cell_angle_beta	89.997574
_cell_angle_gamma	102.297923
loop_
_atom_site_label
_atom_site_type_symbol
_atom_site_fract_x
_atom_site_fract_y
_atom_site_fract_z
O1	O	2.026180	0.127264	-0.147458
O2	O	1.602292	0.137707	-0.147466
O3	O	1.757845	0.006216	-0.147454
O4	O	1.870628	0.258754	-0.147470
O5	O	1.757830	0.006215	0.147511
O6	O	1.602278	0.137705	0.147499
O7	O	2.026166	0.127262	0.147507
Cu8	Cu	1.814220	0.132483	0.174436
Cu9	Cu	1.814237	0.132486	-0.174395
O10	O	1.870613	0.258753	0.147495
C11	C	1.546780	0.136703	0.000016
C12	C	1.381387	0.133704	0.000013
C13	C	1.739412	-0.026132	0.000027
C14	C	1.684494	-0.122516	0.000021
C15	C	2.150763	-0.485965	0.000012
C16	C	2.099125	-0.576531	0.000012
C17	C	1.840379	-0.557939	0.000006
C18	C	1.891996	-0.467370	0.000015
C19	C	2.047189	-0.431391	0.000016
C20	C	1.788422	-0.412795	0.000019
C21	C	1.840035	-0.322234	0.000019
C22	C	1.995222	-0.286248	0.000015
C23	C	2.098802	-0.340829	0.000016
C24	C	1.633229	-0.448776	0.000006
C25	C	1.529655	-0.394202	0.000010
C26	C	1.581268	-0.303639	0.000022
C27	C	1.736455	-0.267652	0.000018
C28	C	1.477688	-0.249057	0.000021
C29	C	1.529301	-0.158496	0.000020
C30	C	1.788068	-0.177091	0.000017
C31	C	2.081678	0.128266	0.000021
C32	C	2.247071	0.131265	0.000013
C33	C	1.889045	0.291101	0.000010
C34	C	1.943964	0.387485	0.000004
N35	N	1.814219	0.132482	0.419784
N36	N	1.814247	0.132481	-0.419743
H37	H	1.914442	-0.147795	0.000036
O38	O	1.428757	-0.105439	-0.000283
C39	C	1.336937	0.007646	-0.153040
C40	C	1.450862	-0.052406	-0.152928
H41	H	1.354790	0.050552	-0.276421
H42	H	1.217116	-0.033579	-0.153148
H43	H	1.354634	0.050468	-0.029542
H44	H	1.433303	-0.095238	-0.276404
H45	H	1.570642	-0.011129	-0.152727
H46	H	2.037243	-0.212507	0.000014
H47	H	2.225176	-0.311533	0.000035
O48	O	2.199950	-0.629421	0.000086
C49	C	2.462060	-0.638305	-0.000045
C50	C	2.348046	-0.578307	-0.000076
H51	H	2.581821	-0.597003	-0.000214
H52	H	2.444480	-0.681156	0.123424
H53	H	2.444273	-0.681181	-0.123461
H54	H	2.365765	-0.535377	0.123257
H55	H	2.365656	-0.535515	-0.123626
H56	H	2.277137	-0.456669	0.000031
H57	H	1.714020	-0.587246	-0.000001
H58	H	1.591211	-0.522518	-0.000004
H59	H	1.351329	-0.278365	0.000002
H60	H	1.403296	-0.423509	0.000002
