data_functionalizedCrystal
_audit_creation_method	'MofGen! by Chris Wilmer'
_symmetry_space_group_name_H-M	'P1'
_symmetry_Int_Tables_number	1
_symmetry_cell_setting	triclinic
loop_
_symmetry_equiv_pos_as_xyz
  x,y,z
_cell_length_a	19.188929
_cell_length_b	19.288864
_cell_length_c	17.766277
_cell_angle_alpha	89.976791
_cell_angle_beta	90.028158
_cell_angle_gamma	96.859491
loop_
_atom_site_label
_atom_site_type_symbol
_atom_site_fract_x
_atom_site_fract_y
_atom_site_fract_z
O1	O	-0.087099	0.921360	-0.062871
O2	O	-0.098849	0.719100	-0.062825
O3	O	0.008682	0.826066	-0.062803
O4	O	-0.194630	0.814393	-0.062893
O5	O	0.008688	0.826048	0.062386
O6	O	-0.098843	0.719081	0.062364
O7	O	-0.087094	0.921341	0.062317
Cu8	Cu	-0.092968	0.820209	0.073771
Cu9	Cu	-0.092974	0.820231	-0.074279
O10	O	-0.194625	0.814374	0.062295
C11	C	-0.098468	0.693214	-0.000224
C12	C	-0.097333	0.616110	-0.000203
C13	C	-0.160427	0.571419	-0.000243
C14	C	-0.159361	0.498972	-0.000251
C15	C	-0.095197	0.471219	-0.000234
C16	C	-0.032095	0.515921	-0.000190
C17	C	-0.033163	0.588366	-0.000175
C18	C	-0.044759	0.362960	-0.044096
C19	C	-0.043694	0.290515	-0.044116
C20	C	-0.091900	0.247773	-0.000278
C21	C	-0.141184	0.277483	0.043570
C22	C	-0.142252	0.349929	0.043585
C23	C	-0.094032	0.392665	-0.000250
C24	C	-0.153843	0.124526	-0.000326
C25	C	-0.152774	0.052078	-0.000329
C26	C	-0.025506	0.069028	-0.000275
C27	C	-0.026576	0.141475	-0.000265
C28	C	-0.090747	0.169219	-0.000293
C29	C	-0.220638	0.814762	-0.000311
C30	C	-0.298143	0.815896	-0.000347
C31	C	-0.343071	0.753132	-0.000317
C32	C	-0.415895	0.754198	-0.000301
C33	C	-0.443787	0.818032	-0.000298
C34	C	-0.398848	0.880805	-0.000332
C35	C	-0.326026	0.879737	-0.000357
N36	N	-0.551750	0.866819	0.042342
N37	N	-0.620928	0.867829	0.042367
C38	C	-0.663195	0.821254	-0.000227
N39	N	-0.633672	0.773619	-0.042837
N40	N	-0.564487	0.772607	-0.042858
C41	C	-0.522749	0.819197	-0.000273
C42	C	-0.787088	0.759641	-0.000180
C43	C	-0.859913	0.760709	-0.000168
C44	C	-0.842865	0.887318	-0.000192
C45	C	-0.770042	0.886248	-0.000212
C46	C	-0.742158	0.822407	-0.000202
C47	C	0.034696	0.825679	-0.000198
C48	C	0.112200	0.824544	-0.000167
C49	C	-0.087475	0.947227	-0.000286
C50	C	-0.088609	1.024330	-0.000311
N51	N	-0.092963	0.820199	0.177902
N52	N	-0.092974	0.820247	-0.178409
C53	C	-0.045372	0.867579	0.217298
C54	C	-0.045368	0.867583	0.296100
C55	C	-0.092969	0.820213	0.335502
C56	C	-0.140564	0.772824	0.296096
C57	C	-0.140561	0.772817	0.217296
C58	C	-0.156585	0.810919	0.460313
C59	C	-0.156589	0.810931	0.539112
C60	C	-0.092977	0.820232	0.578548
C61	C	-0.029359	0.829535	0.539176
C62	C	-0.029356	0.829528	0.460376
C63	C	-0.092977	0.820216	0.420948
C64	C	-0.045378	0.867619	0.703391
C65	C	-0.045374	0.867618	0.782194
C66	C	-0.140575	0.772863	0.782189
C67	C	-0.140573	0.772861	0.703387
C68	C	-0.092976	0.820242	0.663993
H69	H	-0.212680	0.594003	-0.000268
O70	O	-0.721575	0.953944	-0.000226
H71	H	-0.753202	0.998512	-0.000214
O72	O	0.037113	0.485995	-0.000172
H73	H	0.027257	0.428110	-0.000197
H74	H	0.022440	0.837108	0.571284
O75	O	-0.227413	0.450752	-0.000296
H76	H	-0.258126	0.460615	-0.051338
O77	O	-0.191926	0.721790	0.824690
H78	H	-0.246327	0.730484	0.809522
H79	H	-0.006613	0.906158	0.185226
H80	H	-0.179319	0.734254	0.328181
O81	O	-0.195393	0.381987	0.090879
H82	H	-0.167612	0.418736	0.132071
H83	H	-0.179316	0.734234	0.185218
H84	H	-0.006619	0.906198	0.671315
O85	O	-0.193182	0.231396	0.090863
H86	H	-0.184156	0.176030	0.083496
H87	H	-0.206094	0.147116	-0.000338
O88	O	-0.220829	0.003868	-0.000369
H89	H	-0.265626	0.035335	-0.000393
O90	O	0.034895	0.636572	-0.000136
H91	H	0.037454	0.669952	0.050899
O92	O	-0.191908	0.721756	0.660893
H93	H	-0.183904	0.729703	0.599479
H94	H	-0.208389	0.803334	0.428211
O95	O	-0.225201	0.800912	0.581577
H96	H	-0.269434	0.794434	0.540918
O97	O	0.005957	0.918694	0.338607
H98	H	0.039050	0.951644	0.297975
H99	H	0.022444	0.837101	0.428322
O100	O	-0.277562	0.947437	-0.000384
H101	H	-0.243940	0.949965	0.050629
H102	H	-0.006616	0.906199	0.814271
O103	O	0.043703	0.039108	-0.000257
H104	H	0.033847	-0.018777	-0.000278
H105	H	-0.764384	0.707658	-0.000168
H106	H	0.024802	0.177864	-0.000236
H107	H	-0.003566	0.266331	-0.079823
O108	O	-0.464363	0.686497	-0.000261
H109	H	-0.519685	0.697966	-0.000248
O110	O	-0.312995	0.684279	-0.000312
H111	H	-0.356476	0.640813	-0.000294
O112	O	-0.872945	0.956167	-0.000195
H113	H	-0.854921	0.986318	-0.051235
O114	O	-0.428925	0.949657	-0.000328
H115	H	-0.487111	0.939856	-0.000298
O116	O	0.007237	0.409063	-0.091379
H117	H	0.000227	0.394238	-0.151508
O118	O	-0.908378	0.693010	-0.000128
H119	H	-0.876751	0.648442	-0.000116
