data_functionalizedCrystal
_audit_creation_method	'MofGen! by Chris Wilmer'
_symmetry_space_group_name_H-M	'P1'
_symmetry_Int_Tables_number	1
_symmetry_cell_setting	triclinic
loop_
_symmetry_equiv_pos_as_xyz
  x,y,z
_cell_length_a	15.944551
_cell_length_b	17.038272
_cell_length_c	15.021413
_cell_angle_alpha	90.004029
_cell_angle_beta	89.997174
_cell_angle_gamma	87.305147
loop_
_atom_site_label
_atom_site_type_symbol
_atom_site_fract_x
_atom_site_fract_y
_atom_site_fract_z
O1	O	1.121728	0.100827	-0.073940
O2	O	1.621728	0.600827	0.426060
O3	O	0.878066	0.113259	-0.073962
O4	O	1.378066	0.613259	0.426038
O5	O	0.998449	-0.006773	-0.073944
O6	O	1.498449	0.493227	0.426056
O7	O	1.001345	0.220859	-0.073958
O8	O	1.501345	0.720859	0.426042
O9	O	0.998429	-0.006755	0.074120
O10	O	1.498429	0.493245	0.574120
O11	O	0.878046	0.113277	0.074102
O12	O	1.378046	0.613277	0.574102
O13	O	1.121708	0.100844	0.074125
O14	O	1.621708	0.600844	0.574125
Zn15	Zn	0.999874	0.107063	0.097622
Zn16	Zn	1.499874	0.607063	0.597622
Zn17	Zn	0.999900	0.107041	-0.097459
Zn18	Zn	1.499900	0.607041	0.402541
O19	O	1.001326	0.220876	0.074107
O20	O	1.501326	0.720876	0.574107
C21	C	0.846725	0.112752	0.000067
C22	C	1.346725	0.612752	0.500067
C23	C	0.753369	0.111205	0.000059
C24	C	1.253369	0.611205	0.500059
C25	C	0.995805	-0.035893	0.000088
C26	C	1.495805	0.464107	0.500088
C27	C	0.987945	-0.122688	0.000087
C28	C	1.487945	0.377312	0.500087
C29	C	0.532936	0.033105	0.000081
C30	C	1.032936	0.533105	0.500081
C31	C	0.474515	0.069363	-0.072924
C32	C	0.974515	0.569363	0.427076
C33	C	0.582443	0.108405	0.000070
C34	C	1.082443	0.608405	0.500070
C35	C	0.474519	0.069398	0.073055
C36	C	0.974519	0.569398	0.573055
C37	C	0.417337	0.105696	0.000084
C38	C	0.917337	0.605696	0.500084
C39	C	0.525252	0.144684	-0.072996
C40	C	1.025252	0.644684	0.427004
C41	C	0.525262	0.144709	0.073049
C42	C	1.025262	0.644709	0.573049
C43	C	0.466862	0.181022	0.000026
C44	C	0.966862	0.681022	0.500026
C45	C	0.677557	0.109964	0.000061
C46	C	1.177557	0.609964	0.500061
C47	C	0.322225	0.104143	0.000087
C48	C	0.822225	0.604143	0.500087
C49	C	1.060103	-0.172781	0.000094
C50	C	1.560103	0.327219	0.500094
C51	C	1.052713	-0.254334	0.000085
C52	C	1.552713	0.245666	0.500085
C53	C	0.973165	-0.285792	0.000075
C54	C	1.473165	0.214208	0.500075
C55	C	0.901002	-0.235693	0.000065
C56	C	1.401002	0.264307	0.500065
C57	C	0.908393	-0.154142	0.000068
C58	C	1.408393	0.345858	0.500068
C59	C	0.947056	-0.531558	0.000061
C60	C	1.447056	-0.031558	0.500061
C61	C	0.939671	-0.613115	0.000060
C62	C	1.439671	-0.113115	0.500060
C63	C	1.091383	-0.631751	0.000079
C64	C	1.591383	-0.131751	0.500079
C65	C	1.098766	-0.550197	0.000087
C66	C	1.598766	-0.050197	0.500087
C67	C	1.026603	-0.500105	0.000072
C68	C	1.526603	-0.000105	0.500072
C69	C	0.965610	-0.369152	0.000069
C70	C	1.465610	0.130848	0.500069
C71	C	1.034159	-0.416747	0.000073
C72	C	1.534159	0.083253	0.500073
C73	C	1.153049	0.101352	0.000093
C74	C	1.653049	0.601352	0.500093
C75	C	1.246405	0.102899	0.000096
C76	C	1.746405	0.602899	0.500096
C77	C	1.003969	0.249997	0.000073
C78	C	1.503969	0.749997	0.500073
C79	C	1.011829	0.336792	0.000068
C80	C	1.511829	0.836792	0.500068
N81	N	0.999863	0.107078	0.230759
N82	N	1.499863	0.607078	0.730759
N83	N	0.999917	0.107019	-0.230597
N84	N	1.499917	0.607019	0.269403
C85	C	0.944187	0.162555	0.470434
C86	C	1.444187	0.662555	0.970434
C87	C	1.021171	0.177734	0.529775
C88	C	1.521171	0.677734	1.029775
C89	C	0.999883	0.107059	0.412366
C90	C	1.499883	0.607059	0.912366
C91	C	0.922921	0.091897	0.529768
C92	C	1.422921	0.591897	1.029768
C93	C	0.999896	0.107041	0.587790
C94	C	1.499896	0.607041	1.087790
C95	C	1.076908	0.122273	0.470400
C96	C	1.576908	0.622273	0.970400
C97	C	0.978606	0.036405	0.470388
C98	C	1.478606	0.536405	0.970388
C99	C	1.055643	0.051554	0.529702
C100	C	1.555643	0.551554	1.029702
C101	C	0.999875	0.107070	0.311309
C102	C	1.499875	0.607070	0.811309
C103	C	0.999913	0.107029	0.688846
C104	C	1.499913	0.607029	1.188846
H105	H	0.561807	-0.029389	-0.000005
H106	H	1.061807	0.470611	0.499995
Cl107	Cl	1.128452	-0.020919	0.569635
Cl108	Cl	1.628452	0.479081	1.069635
Cl109	Cl	1.182096	-0.694727	0.000095
Cl110	Cl	1.682096	-0.194727	0.500095
H111	H	0.857830	0.079081	0.555848
H112	H	1.357830	0.579081	1.055848
Cl113	Cl	1.160111	-0.133242	0.000117
Cl114	Cl	1.660111	0.366758	0.500117
Cl115	Cl	0.817676	-0.091167	0.000055
Cl116	Cl	1.317676	0.408833	0.500055
H117	H	0.874891	-0.638725	0.000067
H118	H	1.374891	-0.138725	0.500067
Cl119	Cl	1.177435	0.142168	0.430313
Cl120	Cl	1.677435	0.642168	0.930313
H121	H	1.111472	-0.295117	0.000093
H122	H	1.611472	0.204883	0.500093
H123	H	1.163543	-0.524590	0.000096
H124	H	1.663543	-0.024590	0.500096
H125	H	0.888296	-0.490782	0.000049
H126	H	1.388296	0.009218	0.500049
Cl127	Cl	0.559626	0.193809	-0.168394
Cl128	Cl	1.059626	0.693809	0.331606
H129	H	0.452139	0.037507	-0.134642
H130	H	0.952139	0.537507	0.365358
H131	H	1.098927	-0.391130	0.000061
H132	H	1.598927	0.108870	0.500061
Cl133	Cl	1.048976	0.269969	0.570050
Cl134	Cl	1.548976	0.769969	1.070050
H135	H	0.836233	-0.261313	0.000051
H136	H	1.336233	0.238687	0.500051
Cl137	Cl	0.865610	-0.408707	0.000051
Cl138	Cl	1.365610	0.091293	0.500051
Cl139	Cl	0.422558	0.277604	-0.000040
Cl140	Cl	0.922558	0.777604	0.499960
H141	H	0.960575	-0.023318	0.444282
H142	H	1.460575	0.476682	0.944282
H143	H	0.547657	0.176539	0.134769
H144	H	1.047657	0.676539	0.634769
Cl145	Cl	0.439985	0.020218	0.168346
Cl146	Cl	0.939985	0.520218	0.668346
H147	H	0.897140	0.209524	0.444412
H148	H	1.397140	0.709524	0.944412
