data_functionalizedCrystal
_audit_creation_method	'MofGen! by Chris Wilmer'
_symmetry_space_group_name_H-M	'P1'
_symmetry_Int_Tables_number	1
_symmetry_cell_setting	triclinic
loop_
_symmetry_equiv_pos_as_xyz
  x,y,z
_cell_length_a	12.759401
_cell_length_b	18.050589
_cell_length_c	12.759393
_cell_angle_alpha	89.969379
_cell_angle_beta	89.981504
_cell_angle_gamma	90.028382
loop_
_atom_site_label
_atom_site_type_symbol
_atom_site_fract_x
_atom_site_fract_y
_atom_site_fract_z
Zn1	Zn	1.606157	-0.295612	-0.593988
Zn2	Zn	1.606010	-0.419823	-0.418311
Zn3	Zn	1.430459	-0.295651	-0.418328
Zn4	Zn	1.430406	-0.419766	-0.593953
O5	O	1.518258	-0.357713	-0.506145
O6	O	1.753158	-0.312097	-0.570692
O7	O	1.582683	-0.403391	-0.271292
O8	O	1.453849	-0.191722	-0.441651
O9	O	1.753050	-0.403354	-0.441623
O10	O	1.582934	-0.191693	-0.570708
O11	O	1.453706	-0.312163	-0.271304
O12	O	1.283431	-0.312108	-0.441617
O13	O	1.453759	-0.403256	-0.740979
O14	O	1.283392	-0.403294	-0.570648
O15	O	1.582882	-0.312041	-0.741005
O16	O	1.582632	-0.523740	-0.441589
O17	O	1.453616	-0.523698	-0.570632
C18	C	1.245290	-0.357699	-0.506131
C19	C	1.128514	-0.357711	-0.506149
C20	C	1.073659	-0.405268	-0.573225
C21	C	0.963935	-0.405277	-0.573236
C22	C	0.963930	-0.310171	-0.439088
C23	C	1.073652	-0.310159	-0.439083
C24	C	1.073661	-0.460179	-0.650671
C25	C	0.963937	-0.460188	-0.650683
C26	C	1.518131	-0.550665	-0.506127
C27	C	1.518173	-0.633211	-0.506155
C28	C	1.448083	-0.832666	-0.576304
C29	C	1.422469	-0.882114	-0.480436
C30	C	1.518276	-0.784341	-0.506169
C31	C	1.543942	-0.881974	-0.602048
C32	C	1.518374	-0.930326	-0.506191
C33	C	1.492611	-0.832703	-0.410250
C34	C	1.614129	-0.832558	-0.531927
C35	C	1.588551	-0.881985	-0.435992
C36	C	1.518217	-0.700243	-0.506158
C37	C	1.518433	-1.014423	-0.506191
C38	C	1.792291	-0.357727	-0.506160
C39	C	1.909068	-0.357733	-0.506166
C40	C	1.518331	-0.357638	-0.780178
C41	C	1.518363	-0.357606	-0.896955
C42	C	1.518414	-0.164007	-0.506185
C43	C	1.518480	-0.081462	-0.506203
C44	C	1.585606	-0.310106	-0.951832
C45	C	1.585631	-0.310079	-1.061557
C46	C	1.451166	-0.405059	-1.061516
C47	C	1.451136	-0.405081	-0.951794
C48	C	1.663242	-0.255273	-0.951857
C49	C	1.663267	-0.255246	-1.061581
C50	C	1.518245	-0.357734	-0.233178
C51	C	1.518417	-0.357557	-0.116401
H52	H	1.118311	-0.271429	-0.384470
N53	N	1.382487	-0.453539	-1.117541
N54	N	1.315579	-0.427382	-1.178765
H55	H	1.267071	-0.461620	-1.218334
N56	N	1.382427	-0.453595	-0.895754
N57	N	1.322411	-0.495977	-0.944733
H58	H	1.273879	-0.530241	-0.905156
H59	H	1.634172	-0.200598	-1.095627
N60	N	1.111054	-0.440941	-0.752797
N61	N	1.047420	-0.427390	-0.824753
H62	H	1.073828	-0.413803	-0.896879
N63	N	1.320842	-0.909424	-0.453084
N64	N	1.281064	-0.892775	-0.366717
H65	H	1.209288	-0.912060	-0.347403
N66	N	1.571152	-0.909129	-0.703746
N67	N	1.650712	-0.948673	-0.715294
H68	H	1.669923	-0.967851	-0.787120
H69	H	1.647952	-0.903503	-0.376622
H70	H	1.107657	-0.514786	-0.621388
N71	N	1.635937	-0.183125	-0.914533
N72	N	1.616716	-0.132276	-0.978217
H73	H	1.597423	-0.081324	-0.951859
H74	H	1.695124	-0.810777	-0.553739
N75	N	0.907872	-0.261602	-0.370596
N76	N	0.809907	-0.261614	-0.370614
H77	H	0.770315	-0.227311	-0.322240
H78	H	1.740507	-0.275891	-0.917821
N79	N	1.765344	-0.274560	-1.098931
N80	N	1.837238	-0.288196	-1.035265
H81	H	1.909329	-0.301834	-1.061642
N82	N	0.921295	-0.434417	-0.747709
N83	N	0.941915	-0.370518	-0.779422
H84	H	0.911801	-0.352311	-0.847944
H85	H	1.388636	-0.811010	-0.635531
N86	N	0.926540	-0.532322	-0.623148
N87	N	0.950160	-0.559982	-0.536491
H88	H	0.923749	-0.610924	-0.517042
N89	N	1.465296	-0.805659	-0.308521
N90	N	1.460801	-0.737471	-0.292107
H91	H	1.441500	-0.718368	-0.220265
