data_functionalizedCrystal
_audit_creation_method	'MofGen! by Chris Wilmer'
_symmetry_space_group_name_H-M	'P1'
_symmetry_Int_Tables_number	1
_symmetry_cell_setting	triclinic
loop_
_symmetry_equiv_pos_as_xyz
  x,y,z
_cell_length_a	19.288867
_cell_length_b	10.723024
_cell_length_c	18.366186
_cell_angle_alpha	89.999642
_cell_angle_beta	89.995121
_cell_angle_gamma	83.802469
loop_
_atom_site_label
_atom_site_type_symbol
_atom_site_fract_x
_atom_site_fract_y
_atom_site_fract_z
O1	O	0.922362	0.155663	-0.060522
O2	O	0.720239	0.176658	-0.060529
O3	O	0.825963	-0.015514	-0.060523
O4	O	0.816638	0.347834	-0.060529
O5	O	0.825949	-0.015507	0.060576
O6	O	0.720225	0.176665	0.060570
O7	O	0.922349	0.155669	0.060577
Zn8	Zn	0.821285	0.166168	0.079801
Zn9	Zn	0.821303	0.166159	-0.079753
O10	O	0.816625	0.347841	0.060571
C11	C	0.694351	0.175985	0.000020
C12	C	0.617234	0.173956	0.000017
C13	C	0.061581	0.159336	-0.065986
C14	C	0.134041	0.161235	-0.065988
C15	C	0.170268	0.162195	0.000023
C16	C	0.134032	0.161222	0.066042
C17	C	0.061574	0.159310	0.066042
C18	C	0.280085	0.238308	0.050595
C19	C	0.352541	0.240227	0.050591
C20	C	0.393752	0.168085	0.000023
C21	C	0.362498	0.094040	-0.050554
C22	C	0.290040	0.092128	-0.050553
C23	C	0.248837	0.164267	0.000029
C24	C	0.508550	0.171108	-0.065995
C25	C	0.581012	0.172999	-0.065995
C26	C	0.581000	0.172999	0.066037
C27	C	0.508541	0.171095	0.066035
C28	C	0.472320	0.170155	0.000017
C29	C	0.825277	-0.061996	0.000026
C30	C	0.823247	-0.200507	0.000023
C31	C	0.882405	-0.276732	0.000024
C32	C	0.880308	-0.419891	0.000022
C33	C	0.948236	0.156342	0.000027
C34	C	1.025353	0.158371	0.000024
C35	C	0.817310	0.394323	0.000020
C36	C	0.819340	0.532835	0.000018
N37	N	0.821277	0.166173	0.188692
N38	N	0.821315	0.166144	-0.188644
C39	C	0.863799	0.241620	0.773242
C40	C	0.863792	0.241632	0.697014
C41	C	0.821309	0.166146	0.658903
C42	C	0.778817	0.090665	0.697027
C43	C	0.778820	0.090664	0.773253
C44	C	0.818850	0.053645	0.538139
C45	C	0.818852	0.053643	0.461914
C46	C	0.821295	0.166149	0.423796
C47	C	0.823751	0.278659	0.461912
C48	C	0.823755	0.278658	0.538139
C49	C	0.821301	0.166138	0.576249
C50	C	0.863774	0.241644	0.303027
C51	C	0.863761	0.241659	0.226797
C52	C	0.778790	0.090680	0.226812
C53	C	0.778798	0.090677	0.303039
C54	C	0.821294	0.166157	0.341142
H55	H	0.610496	0.173775	0.119785
N56	N	0.469474	0.170066	-0.137192
H57	H	0.434150	0.246608	-0.140137
H58	H	0.503467	0.170906	-0.178972
H59	H	0.032095	0.158566	-0.119743
H60	H	0.744223	0.029201	0.804285
H61	H	0.771048	-0.241234	0.000017
N62	N	0.173128	0.162275	-0.137187
H63	H	0.139187	0.161388	-0.179008
H64	H	0.197926	0.240406	-0.140055
N65	N	0.256329	0.012266	-0.105095
H66	H	0.293426	-0.033150	-0.137132
H67	H	0.230514	-0.050951	-0.078436
N68	N	0.406935	0.016228	-0.105104
H69	H	0.457580	0.028667	-0.097431
H70	H	0.400471	-0.075269	-0.098335
N71	N	0.909626	0.323025	0.655895
H72	H	0.903177	0.311566	0.601824
H73	H	0.896346	0.413845	0.669215
H74	H	0.744196	0.029225	0.195783
N75	N	0.620092	0.174020	-0.137195
H76	H	0.586148	0.173134	-0.179013
H77	H	0.644897	0.252143	-0.140070
H78	H	0.930951	-0.485386	0.000026
H79	H	0.816857	-0.037970	0.430885
N80	N	0.469460	0.170059	0.137232
H81	H	0.503460	0.170088	0.179050
H82	H	0.434464	0.247042	0.140327
H83	H	0.898355	0.303129	0.195766
N84	N	0.752254	-0.380417	0.000027
H85	H	0.750269	-0.325736	-0.044861
H86	H	0.711315	-0.431721	0.000055
H87	H	0.898401	0.303084	0.804261
N88	N	0.816224	-0.067713	0.579246
H89	H	0.816598	-0.050644	0.633318
H90	H	0.772192	-0.105530	0.565929
N91	N	0.386239	0.320096	0.105140
H92	H	0.375482	0.292463	0.156101
H93	H	0.438383	0.310345	0.097406
H94	H	0.246537	0.297049	0.091781
H95	H	0.825752	0.370267	0.569170
N96	N	0.173101	0.162253	0.137240
H97	H	0.224500	0.163615	0.127224
H98	H	0.155168	0.239253	0.166068
N99	N	0.951552	-0.222798	0.000036
H100	H	0.978879	-0.252037	-0.044853
H101	H	0.943187	-0.128183	0.000067
N102	N	0.826391	0.400015	0.420812
H103	H	0.826013	0.382950	0.366739
H104	H	0.784498	0.460467	0.434145
H105	H	0.898373	0.303111	0.334052
H106	H	0.744207	0.029210	0.334072
H107	H	0.032078	0.158529	0.119797
H108	H	0.744226	0.029206	0.665992
