data_functionalizedCrystal
_audit_creation_method	'MofGen! by Chris Wilmer'
_symmetry_space_group_name_H-M	'P1'
_symmetry_Int_Tables_number	1
_symmetry_cell_setting	triclinic
loop_
_symmetry_equiv_pos_as_xyz
  x,y,z
_cell_length_a	14.519710
_cell_length_b	16.992695
_cell_length_c	15.455438
_cell_angle_alpha	87.167513
_cell_angle_beta	87.312537
_cell_angle_gamma	92.825816
loop_
_atom_site_label
_atom_site_type_symbol
_atom_site_fract_x
_atom_site_fract_y
_atom_site_fract_z
O1	O	1.235035	-0.099388	-0.072111
O2	O	1.735035	0.400612	0.427889
O3	O	0.967427	-0.111494	-0.072117
O4	O	1.467427	0.388506	0.427883
O5	O	1.100158	0.008703	-0.072107
O6	O	1.600158	0.508703	0.427893
O7	O	1.102304	-0.219585	-0.072121
O8	O	1.602304	0.280415	0.427879
O9	O	1.092562	0.001892	0.072151
O10	O	1.592562	0.501892	0.572151
O11	O	0.959831	-0.118305	0.072141
O12	O	1.459831	0.381695	0.572141
O13	O	1.227439	-0.106199	0.072147
O14	O	1.727439	0.393801	0.572147
Cu15	Cu	1.092941	-0.112874	0.085316
Cu16	Cu	1.592941	0.387126	0.585316
Cu17	Cu	1.101925	-0.104819	-0.085286
Cu18	Cu	1.601925	0.395181	0.414714
O19	O	1.094708	-0.226396	0.072138
O20	O	1.594708	0.273604	0.572138
C21	C	0.929229	-0.114335	0.000011
C22	C	1.429229	0.385665	0.500011
C23	C	0.826726	-0.112644	0.000009
C24	C	1.326726	0.387356	0.500009
C25	C	1.265637	-0.103358	0.000017
C26	C	1.765637	0.396642	0.500017
C27	C	1.368140	-0.105048	0.000013
C28	C	1.868140	0.394952	0.500013
C29	C	1.743483	-0.111272	0.000013
C30	C	2.243483	0.388728	0.500013
C31	C	1.639051	-0.109544	0.000012
C32	C	2.139051	0.390456	0.500012
C33	C	1.555815	-0.108160	0.000012
C34	C	2.055815	0.391840	0.500012
C35	C	1.451376	-0.106432	0.000014
C36	C	1.951376	0.393568	0.500014
C37	C	1.093600	0.034514	0.000022
C38	C	1.593600	0.534514	0.500022
C39	C	1.085364	0.121570	0.000021
C40	C	1.585364	0.621570	0.500021
C41	C	1.101266	-0.252207	0.000006
C42	C	1.601266	0.247793	0.500006
C43	C	1.109502	-0.339262	0.000001
C44	C	1.609502	0.160738	0.500001
N45	N	1.108243	-0.099148	-0.205279
N46	N	1.608243	0.400852	0.294721
C47	C	1.164824	0.171698	0.000024
C48	C	1.664824	0.671698	0.500024
C49	C	1.157081	0.253496	0.000016
C50	C	1.657081	0.753496	0.500016
C51	C	1.069877	0.285163	0.000011
C52	C	1.569877	0.785163	0.500011
C53	C	0.990412	0.235028	0.000006
C54	C	1.490412	0.735028	0.500006
C55	C	0.998156	0.153232	0.000008
C56	C	1.498156	0.653232	0.500008
C57	C	1.037781	0.528807	-0.000002
C58	C	1.537781	1.028807	0.499998
C59	C	1.030042	0.610609	-0.000001
C60	C	1.530042	1.110609	0.499999
C61	C	1.196713	0.629072	0.000007
C62	C	1.696713	1.129072	0.500007
C63	C	1.204449	0.547273	0.000015
C64	C	1.704449	1.047273	0.500015
C65	C	1.124984	0.497145	0.000005
C66	C	1.624984	0.997145	0.500005
N67	N	1.061960	0.368774	0.000005
N68	N	1.561960	0.868774	0.500005
N69	N	1.132902	0.413537	0.000004
N70	N	1.632902	0.913537	0.500004
C71	C	1.051732	-0.150104	-0.250699
C72	C	1.551732	0.349896	0.249301
C73	C	1.056500	-0.145782	-0.341504
C74	C	1.556500	0.354218	0.158496
C75	C	1.117784	-0.090509	-0.386889
C76	C	1.617784	0.409491	0.113111
C77	C	1.174297	-0.039548	-0.341463
C78	C	1.674297	0.460452	0.158537
C79	C	1.169524	-0.043866	-0.250659
C80	C	1.669524	0.456134	0.249341
C81	C	1.138370	-0.071896	-0.658461
C82	C	1.638370	0.428104	-0.158461
C83	C	1.143141	-0.067583	-0.749271
C84	C	1.643141	0.432417	-0.249271
C85	C	1.025341	-0.173817	-0.749307
C86	C	1.525341	0.326183	-0.249307
C87	C	1.020578	-0.178133	-0.658501
C88	C	1.520578	0.321867	-0.158501
C89	C	1.077088	-0.127170	-0.613083
C90	C	1.577088	0.372830	-0.113083
N91	N	1.122661	-0.086092	-0.479707
N92	N	1.622661	0.413908	0.020293
N93	N	1.072206	-0.131583	-0.520266
N94	N	1.572206	0.368417	-0.020266
N95	N	1.086630	-0.118539	0.205309
N96	N	1.586630	0.381461	0.705309
H97	H	1.235835	0.145922	0.000033
H98	H	1.735835	0.645922	0.500033
H99	H	0.959026	0.636388	0.000009
H100	H	1.459026	1.136388	0.500009
H101	H	0.979332	-0.215309	-0.786294
H102	H	1.479332	0.284691	-0.286294
C103	C	1.244493	0.308635	0.000033
C104	C	1.744493	0.808635	0.500033
N105	N	1.310336	0.350164	0.000050
N106	N	1.810336	0.850164	0.500050
C107	C	0.953154	-0.238934	-0.608585
C108	C	1.453154	0.261066	-0.108585
N109	N	0.902371	-0.284730	-0.570988
N110	N	1.402371	0.215270	-0.070988
C111	C	0.994464	-0.201944	-0.391462
C112	C	1.494464	0.298056	0.108538
N113	N	0.947783	-0.244286	-0.429089
N114	N	1.447783	0.255714	0.070911
C115	C	0.950365	0.473677	-0.000017
C116	C	1.450365	0.973677	0.499983
N117	N	0.884520	0.432150	-0.000032
N118	N	1.384520	0.932150	0.499968
H119	H	1.215541	-0.002372	-0.213679
H120	H	1.715541	0.497628	0.286321
H121	H	1.275459	0.521496	0.000019
H122	H	1.775459	1.021496	0.500019
H123	H	1.193050	-0.022570	-0.786219
H124	H	1.693050	0.477430	-0.286219
H125	H	1.261409	0.669894	0.000013
H126	H	1.761409	1.169894	0.500013
H127	H	0.919408	0.260818	-0.000004
H128	H	1.419408	0.760818	0.499996
H129	H	1.184385	-0.030400	-0.621489
H130	H	1.684385	0.469600	-0.121489
H131	H	0.933451	0.112417	0.000005
H132	H	1.433451	0.612417	0.500005
H133	H	1.224193	0.005461	-0.378420
H134	H	1.724193	0.505461	0.121580
C135	C	0.984313	-0.210909	-0.200784
C136	C	1.484313	0.289091	0.299216
N137	N	0.933528	-0.256707	-0.163191
N138	N	1.433528	0.243293	0.336809
