data_functionalizedCrystal
_audit_creation_method	'MofGen! by Chris Wilmer'
_symmetry_space_group_name_H-M	'P1'
_symmetry_Int_Tables_number	1
_symmetry_cell_setting	triclinic
loop_
_symmetry_equiv_pos_as_xyz
  x,y,z
_cell_length_a	19.188930
_cell_length_b	19.188930
_cell_length_c	18.266242
_cell_angle_alpha	90.011475
_cell_angle_beta	89.977082
_cell_angle_gamma	96.855221
loop_
_atom_site_label
_atom_site_type_symbol
_atom_site_fract_x
_atom_site_fract_y
_atom_site_fract_z
O1	O	0.926149	-0.087169	-0.061124
O2	O	0.722838	-0.098903	-0.061075
O3	O	0.830361	0.008620	-0.061087
O4	O	0.818627	-0.194691	-0.061113
O5	O	0.830343	0.008625	0.060675
O6	O	0.722820	-0.098897	0.060687
O7	O	0.926131	-0.087163	0.060638
Zn8	Zn	0.824473	-0.093029	0.079994
Zn9	Zn	0.824497	-0.093037	-0.080432
O10	O	0.818608	-0.194686	0.060649
C11	C	0.696818	-0.098520	-0.000188
C12	C	0.619313	-0.097380	-0.000169
C13	C	0.574389	-0.160470	-0.000188
C14	C	0.501566	-0.159399	-0.000196
C15	C	0.473669	-0.095233	-0.000199
C16	C	0.518603	-0.032133	-0.000175
C17	C	0.591425	-0.033207	-0.000160
N18	N	0.365695	-0.046188	-0.041663
N19	N	0.296516	-0.045172	-0.041679
C20	C	0.254260	-0.091994	-0.000243
N21	N	0.283795	-0.139881	0.041200
N22	N	0.352980	-0.140899	0.041213
C23	C	0.394707	-0.094062	-0.000215
C24	C	0.130372	-0.153928	-0.000270
C25	C	0.057547	-0.152853	-0.000274
C26	C	0.074586	-0.025586	-0.000261
C27	C	0.147409	-0.026662	-0.000250
C28	C	0.175298	-0.090835	-0.000258
C29	C	0.829972	0.034634	-0.000204
C30	C	0.828831	0.112138	-0.000197
C31	C	0.952151	-0.087546	-0.000252
C32	C	1.029656	-0.088687	-0.000276
C33	C	0.818997	-0.220700	-0.000236
C34	C	0.820138	-0.298204	-0.000247
N35	N	0.824461	-0.093024	0.189481
C36	C	0.891922	0.157062	-0.000209
C37	C	0.890850	0.229886	-0.000220
C38	C	0.826684	0.257782	-0.000206
C39	C	0.763585	0.212849	-0.000198
C40	C	0.764658	0.140026	-0.000194
N41	N	0.777631	0.365789	0.041244
N42	N	0.776615	0.434968	0.041242
C43	C	0.823446	0.477191	-0.000220
N44	N	0.871341	0.447624	-0.041669
N45	N	0.872359	0.378439	-0.041664
C46	C	0.825513	0.336745	-0.000210
C47	C	0.885379	0.601079	-0.000245
C48	C	0.884305	0.673904	-0.000261
C49	C	0.757038	0.656865	-0.000231
C50	C	0.758114	0.584042	-0.000222
C51	C	0.822287	0.556154	-0.000226
N52	N	0.824513	-0.093037	-0.189919
C53	C	0.872088	-0.045436	0.227785
C54	C	0.872092	-0.045433	0.304430
C55	C	0.824477	-0.093030	0.342768
C56	C	0.776841	-0.140621	0.304455
C57	C	0.776834	-0.140618	0.227812
N58	N	0.815401	-0.154837	0.463094
N59	N	0.815413	-0.154838	0.535902
C60	C	0.824496	-0.093040	0.573691
N61	N	0.833582	-0.031239	0.535920
N62	N	0.833574	-0.031240	0.463106
C63	C	0.824480	-0.093038	0.425875
C64	C	0.872131	-0.045444	0.695101
C65	C	0.872130	-0.045440	0.771748
C66	C	0.776882	-0.140634	0.771772
C67	C	0.776879	-0.140632	0.695127
C68	C	0.824507	-0.093038	0.656796
H69	H	0.153080	-0.206181	-0.000267
C70	C	0.628402	0.074931	-0.062740
C71	C	0.640812	0.036147	-0.000147
H72	H	0.658896	0.117745	-0.062734
H73	H	0.581046	0.084754	-0.062740
H74	H	0.636859	0.048599	-0.105197
H75	H	0.632349	0.062477	0.042310
H76	H	0.688179	0.026326	-0.000141
C77	C	0.735463	-0.261596	0.328037
C78	C	0.724499	-0.192941	0.346590
H79	H	0.703141	-0.293894	0.354046
H80	H	0.782029	-0.269064	0.340575
H81	H	0.728641	-0.268395	0.276907
H82	H	0.731325	-0.186141	0.397720
H83	H	0.677922	-0.185471	0.334057
C84	C	0.632213	0.574518	-0.000182
C85	C	0.688761	0.534657	-0.000196
H86	H	0.589396	0.544027	-0.000163
H87	H	0.634445	0.603262	-0.042644
H88	H	0.634441	0.603289	0.042278
H89	H	0.686535	0.505889	-0.042660
H90	H	0.686528	0.505900	0.042270
H91	H	0.910868	-0.006681	0.196579
H92	H	0.711340	0.235567	-0.000187
H93	H	0.910910	-0.006688	0.663892
C94	C	0.048025	-0.278757	-0.000304
C95	C	0.008163	-0.222209	-0.000296
H96	H	0.017535	-0.321574	-0.000322
H97	H	0.076758	-0.276532	0.042160
H98	H	0.076807	-0.276521	-0.042763
H99	H	-0.020616	-0.224442	0.042166
H100	H	-0.020582	-0.224435	-0.042764
H101	H	0.910911	-0.006685	0.802935
H102	H	0.910877	-0.006680	0.335623
C103	C	0.939168	0.793098	-0.000293
C104	C	0.953660	0.723289	-0.000281
H105	H	0.981987	0.823586	-0.000311
H106	H	0.912846	0.801543	0.042169
H107	H	0.912854	0.801511	-0.042753
H108	H	0.979970	0.714875	0.042183
H109	H	0.979994	0.714841	-0.042747
H110	H	0.704792	0.679578	-0.000222
C111	C	0.960419	0.529043	-0.062847
C112	C	0.955913	0.570414	-0.000259
H113	H	1.003961	0.510109	-0.062853
H114	H	0.957365	0.557087	-0.105303
H115	H	0.922991	0.491867	-0.062825
H116	H	0.993338	0.607593	-0.000284
H117	H	0.958974	0.542368	0.042207
C118	C	0.761383	-0.235676	0.141607
C119	C	0.724484	-0.192936	0.185703
H120	H	0.729065	-0.267972	0.115607
H121	H	0.790361	-0.260718	0.171488
H122	H	0.789741	-0.207322	0.107811
H123	H	0.696131	-0.221289	0.219503
H124	H	0.695494	-0.167892	0.155819
H125	H	0.713281	0.103448	-0.000184
H126	H	0.738100	-0.179386	0.663938
C127	C	-0.029475	0.032568	-0.000286
C128	C	0.043931	0.044948	-0.000268
H129	H	-0.048401	0.076115	-0.000294
H130	H	-0.044929	0.006609	0.042168
H131	H	-0.044879	0.006594	-0.042754
H132	H	0.059335	0.070917	0.042203
H133	H	0.059391	0.070918	-0.042727
C134	C	0.681830	-0.156023	0.858005
C135	C	0.724540	-0.192953	0.813905
H136	H	0.649517	-0.188323	0.884021
H137	H	0.656807	-0.127027	0.828124
H138	H	0.710202	-0.127681	0.891787
H139	H	0.696168	-0.221291	0.780119
H140	H	0.749565	-0.221961	0.843788
H141	H	0.597091	-0.212725	-0.000196
H142	H	0.464982	-0.210776	-0.000210
H143	H	0.495885	0.020111	-0.000188
C144	C	0.156934	0.099239	-0.000247
C145	C	0.196795	0.042690	-0.000240
H146	H	0.187424	0.142055	-0.000244
H147	H	0.128155	0.097015	0.042206
H148	H	0.128197	0.097002	-0.042717
H149	H	0.225528	0.044924	0.042233
H150	H	0.225586	0.044916	-0.042697
H151	H	0.944176	0.134360	-0.000214
H152	H	0.942228	0.266470	-0.000233
