data_functionalizedCrystal
_audit_creation_method	'MofGen! by Chris Wilmer'
_symmetry_space_group_name_H-M	'P1'
_symmetry_Int_Tables_number	1
_symmetry_cell_setting	triclinic
loop_
_symmetry_equiv_pos_as_xyz
  x,y,z
_cell_length_a	19.121102
_cell_length_b	19.120786
_cell_length_c	19.121175
_cell_angle_alpha	90.075695
_cell_angle_beta	85.212968
_cell_angle_gamma	89.915559
loop_
_atom_site_label
_atom_site_type_symbol
_atom_site_fract_x
_atom_site_fract_y
_atom_site_fract_z
Zn1	Zn	1.077294	-0.343949	-0.428332
Zn2	Zn	1.327294	-0.093949	-0.178332
Zn3	Zn	1.577294	0.156051	0.071668
Zn4	Zn	1.827294	0.406051	0.321668
Zn5	Zn	1.067213	-0.455747	-0.305679
Zn6	Zn	1.317213	-0.205747	-0.055679
Zn7	Zn	1.567213	0.044253	0.194321
Zn8	Zn	1.817213	0.294253	0.444321
Zn9	Zn	0.955083	-0.333535	-0.306134
Zn10	Zn	1.205083	-0.083535	-0.056134
Zn11	Zn	1.455083	0.166465	0.193866
Zn12	Zn	1.705083	0.416465	0.443866
Zn13	Zn	0.954615	-0.455701	-0.418293
Zn14	Zn	1.204615	-0.205701	-0.168293
Zn15	Zn	1.454615	0.044299	0.081707
Zn16	Zn	1.704615	0.294299	0.331707
O17	O	1.013551	-0.397233	-0.364609
O18	O	1.263551	-0.147233	-0.114609
O19	O	1.513551	0.102767	0.135391
O20	O	1.763551	0.352767	0.385391
O21	O	1.174225	-0.363157	-0.416072
O22	O	1.424225	-0.113157	-0.166072
O23	O	1.674225	0.136843	0.083928
O24	O	1.924225	0.386843	0.333928
O25	O	1.048316	-0.435196	-0.207470
O26	O	1.298316	-0.185196	0.042530
O27	O	1.548316	0.064804	0.292530
O28	O	1.798316	0.314804	0.542530
O29	O	0.975710	-0.237002	-0.326735
O30	O	1.225710	0.012998	-0.076735
O31	O	1.475710	0.262998	0.173265
O32	O	1.725710	0.512998	0.423265
O33	O	1.166819	-0.445294	-0.325960
O34	O	1.416819	-0.195294	-0.075960
O35	O	1.666819	0.054706	0.174040
O36	O	1.916819	0.304706	0.424040
O37	O	1.065498	-0.244654	-0.416513
O38	O	1.315498	0.005346	-0.166513
O39	O	1.565498	0.255346	0.083487
O40	O	1.815498	0.505346	0.333487
O41	O	0.965934	-0.345407	-0.207804
O42	O	1.215934	-0.095407	0.042196
O43	O	1.465934	0.154593	0.292196
O44	O	1.715934	0.404593	0.542196
O45	O	0.856753	-0.345363	-0.317001
O46	O	1.106753	-0.095363	-0.067001
O47	O	1.356753	0.154637	0.182999
O48	O	1.606753	0.404637	0.432999
O49	O	0.974911	-0.445216	-0.517894
O50	O	1.224911	-0.195216	-0.267894
O51	O	1.474911	0.054784	-0.017894
O52	O	1.724911	0.304784	0.232106
O53	O	0.856408	-0.435117	-0.399404
O54	O	1.106408	-0.185117	-0.149404
O55	O	1.356408	0.064883	0.100596
O56	O	1.606408	0.314883	0.350596
O57	O	1.065044	-0.363113	-0.525269
O58	O	1.315044	-0.113113	-0.275269
O59	O	1.565044	0.136887	-0.025269
O60	O	1.815044	0.386887	0.224731
O61	O	1.047861	-0.553655	-0.316226
O62	O	1.297861	-0.303655	-0.066226
O63	O	1.547861	-0.053655	0.183774
O64	O	1.797861	0.196345	0.433774
O65	O	0.965136	-0.553621	-0.398963
O66	O	1.215136	-0.303621	-0.148963
O67	O	1.465136	-0.053621	0.101037
O68	O	1.715136	0.196379	0.351037
C69	C	0.831101	-0.389105	-0.357163
C70	C	1.081101	-0.139105	-0.107163
C71	C	1.331101	0.110895	0.142837
C72	C	1.581101	0.360895	0.392837
C73	C	0.753047	-0.385646	-0.353993
C74	C	1.003047	-0.135646	-0.103993
C75	C	1.253047	0.114354	0.146007
C76	C	1.503047	0.364354	0.396007
C77	C	1.005374	-0.579027	-0.356472
C78	C	1.255374	-0.329027	-0.106472
C79	C	1.505374	-0.079027	0.143528
C80	C	1.755374	0.170973	0.393528
C81	C	1.001940	-0.656804	-0.353017
C82	C	1.251940	-0.406804	-0.103017
C83	C	1.501940	-0.156804	0.146983
C84	C	1.751940	0.093196	0.396983
C85	C	0.716211	-0.430815	-0.395334
C86	C	0.966211	-0.180815	-0.145334
C87	C	1.216211	0.069185	0.104666
C88	C	1.466211	0.319185	0.354666
C89	C	0.642872	-0.427556	-0.392359
C90	C	0.892872	-0.177556	-0.142359
C91	C	1.142872	0.072444	0.107641
C92	C	1.392872	0.322444	0.357641
C93	C	0.606371	-0.379130	-0.348040
C94	C	0.856371	-0.129130	-0.098040
C95	C	1.106371	0.120870	0.151960
C96	C	1.356371	0.370870	0.401960
C97	C	0.643212	-0.333955	-0.306699
C98	C	0.893212	-0.083955	-0.056699
C99	C	1.143212	0.166045	0.193301
C100	C	1.393212	0.416045	0.443301
C101	C	0.716550	-0.337212	-0.309677
C102	C	0.966550	-0.087212	-0.059677
C103	C	1.216550	0.162788	0.190323
C104	C	1.466550	0.412788	0.440323
C105	C	0.384947	-0.366952	-0.336908
C106	C	0.634947	-0.116952	-0.086908
C107	C	0.884947	0.133048	0.163092
C108	C	1.134947	0.383048	0.413092
C109	C	0.311604	-0.363700	-0.333931
C110	C	0.561604	-0.113700	-0.083931
C111	C	0.811604	0.136300	0.166069
C112	C	1.061604	0.386300	0.416069
C113	C	0.311269	-0.457301	-0.419592
C114	C	0.561269	-0.207301	-0.169592
C115	C	0.811269	0.042699	0.080408
C116	C	1.061269	0.292699	0.330408
C117	C	0.384608	-0.460556	-0.422564
C118	C	0.634608	-0.210556	-0.172564
C119	C	0.884608	0.039444	0.077436
C120	C	1.134608	0.289444	0.327436
C121	C	0.421443	-0.415379	-0.381225
C122	C	0.671443	-0.165379	-0.131225
C123	C	0.921443	0.084621	0.118775
C124	C	1.171443	0.334621	0.368775
C125	C	0.531407	-0.375798	-0.344997
C126	C	0.781407	-0.125798	-0.094997
C127	C	1.031407	0.124202	0.155003
C128	C	1.281407	0.374202	0.405003
C129	C	0.496406	-0.418708	-0.384272
C130	C	0.746406	-0.168708	-0.134272
C131	C	0.996406	0.081292	0.115728
C132	C	1.246406	0.331292	0.365728
C133	C	1.047043	-0.697267	-0.398172
C134	C	1.297043	-0.447267	-0.148172
C135	C	1.547043	-0.197267	0.101828
C136	C	1.797043	0.052733	0.351828
C137	C	1.043814	-0.770346	-0.394926
C138	C	1.293814	-0.520346	-0.144926
C139	C	1.543814	-0.270346	0.105074
C140	C	1.793814	-0.020346	0.355074
C141	C	0.995486	-0.802961	-0.346523
C142	C	1.245486	-0.552961	-0.096523
C143	C	1.495486	-0.302961	0.153477
C144	C	1.745486	-0.052961	0.403477
C145	C	0.950378	-0.762492	-0.301366
C146	C	1.200378	-0.512492	-0.051366
C147	C	1.450378	-0.262492	0.198634
C148	C	1.700378	-0.012492	0.448634
C149	C	0.953604	-0.689415	-0.304615
C150	C	1.203604	-0.439415	-0.054615
C151	C	1.453604	-0.189415	0.195385
C152	C	1.703604	0.060585	0.445385
C153	C	0.983406	-1.023412	-0.334375
C154	C	1.233406	-0.773412	-0.084375
C155	C	1.483406	-0.523412	0.165625
C156	C	1.733406	-0.273412	0.415625
C157	C	0.980185	-1.096495	-0.331128
C158	C	1.230185	-0.846495	-0.081128
C159	C	1.480185	-0.596495	0.168872
C160	C	1.730185	-0.346495	0.418872
C161	C	1.073620	-1.104344	-0.424690
C162	C	1.323620	-0.854344	-0.174690
C163	C	1.573620	-0.604344	0.075310
C164	C	1.823620	-0.354344	0.325310
C165	C	1.076845	-1.031264	-0.427932
C166	C	1.326845	-0.781264	-0.177932
C167	C	1.576845	-0.531264	0.072068
C168	C	1.826845	-0.281264	0.322068
C169	C	1.031735	-0.990802	-0.382778
C170	C	1.281735	-0.740802	-0.132778
C171	C	1.531735	-0.490802	0.117222
C172	C	1.781735	-0.240802	0.367222
C173	C	0.992186	-0.877659	-0.343203
C174	C	1.242186	-0.627659	-0.093203
C175	C	1.492186	-0.377659	0.156797
C176	C	1.742186	-0.127659	0.406797
C177	C	1.035032	-0.916105	-0.386101
C178	C	1.285032	-0.666105	-0.136101
C179	C	1.535032	-0.416105	0.113899
C180	C	1.785032	-0.166105	0.363899
C181	C	1.196714	-0.405393	-0.372085
C182	C	1.446714	-0.155393	-0.122085
C183	C	1.696714	0.094607	0.127915
C184	C	1.946714	0.344607	0.377915
C185	C	1.274767	-0.408870	-0.375271
C186	C	1.524767	-0.158870	-0.125271
C187	C	1.774767	0.091130	0.124729
C188	C	2.024767	0.341130	0.374729
C189	C	1.021050	-0.405321	-0.547775
C190	C	1.271050	-0.155321	-0.297775
C191	C	1.521050	0.094679	-0.047775
C192	C	1.771050	0.344679	0.202225
C193	C	1.024245	-0.408768	-0.625829
C194	C	1.274245	-0.158768	-0.375829
C195	C	1.524245	0.091232	-0.125829
C196	C	1.774245	0.341232	0.124171
C197	C	1.021781	-0.214730	-0.372794
C198	C	1.271781	0.035270	-0.122794
C199	C	1.521781	0.285270	0.127206
C200	C	1.771781	0.535270	0.377206
C201	C	1.025287	-0.136958	-0.376283
C202	C	1.275287	0.113042	-0.126283
C203	C	1.525287	0.363042	0.123717
C204	C	1.775287	0.613042	0.373717
C205	C	0.982857	-0.363640	-0.662672
C206	C	1.232857	-0.113640	-0.412672
C207	C	1.482857	0.136360	-0.162672
C208	C	1.732857	0.386360	0.087328
C209	C	0.985857	-0.366884	-0.736012
C210	C	1.235857	-0.116884	-0.486012
C211	C	1.485857	0.133116	-0.236012
C212	C	1.735857	0.383116	0.013988
C213	C	1.030248	-0.415253	-0.772507
C214	C	1.280248	-0.165253	-0.522507
C215	C	1.530248	0.084747	-0.272507
C216	C	1.780248	0.334747	-0.022507
C217	C	1.071638	-0.460386	-0.735658
C218	C	1.321638	-0.210386	-0.485658
C219	C	1.571638	0.039614	-0.235658
C220	C	1.821638	0.289614	0.014342
C221	C	1.068635	-0.457144	-0.662320
C222	C	1.318635	-0.207144	-0.412320
C223	C	1.568635	0.042856	-0.162320
C224	C	1.818635	0.292856	0.087680
C225	C	1.041460	-0.427381	-0.993934
C226	C	1.291460	-0.177381	-0.743934
C227	C	1.541460	0.072619	-0.493934
C228	C	1.791460	0.322619	-0.243934
C229	C	1.044462	-0.430618	-1.067278
C230	C	1.294462	-0.180618	-0.817278
C231	C	1.544462	0.069382	-0.567278
C232	C	1.794462	0.319382	-0.317278
C233	C	0.958679	-0.337117	-1.067626
C234	C	1.208679	-0.087117	-0.817626
C235	C	1.458679	0.162883	-0.567626
C236	C	1.708679	0.412883	-0.317626
C237	C	0.955682	-0.333877	-0.994286
C238	C	1.205682	-0.083877	-0.744286
C239	C	1.455682	0.166123	-0.494286
C240	C	1.705682	0.416123	-0.244286
C241	C	0.997069	-0.379012	-0.957444
C242	C	1.247069	-0.129012	-0.707444
C243	C	1.497069	0.120988	-0.457444
C244	C	1.747069	0.370988	-0.207444
C245	C	1.033317	-0.418569	-0.847472
C246	C	1.283317	-0.168569	-0.597472
C247	C	1.533317	0.081431	-0.347472
C248	C	1.783317	0.331431	-0.097472
C249	C	0.993997	-0.375699	-0.882480
C250	C	1.243997	-0.125699	-0.632480
C251	C	1.493997	0.124301	-0.382480
C252	C	1.743997	0.374301	-0.132480
C253	C	1.006124	-0.389128	-0.182161
C254	C	1.256124	-0.139128	0.067839
C255	C	1.506124	0.110872	0.317839
C256	C	1.756124	0.360872	0.567839
C257	C	1.003074	-0.385490	-0.104121
C258	C	1.253074	-0.135490	0.145879
C259	C	1.503074	0.114510	0.395879
C260	C	1.753074	0.364510	0.645879
H261	H	0.745925	-0.470252	-0.431420
H262	H	0.995925	-0.220252	-0.181420
H263	H	1.245925	0.029748	0.068580
H264	H	1.495925	0.279748	0.318580
H265	H	1.102343	-0.493887	-0.632323
H266	H	1.352343	-0.243887	-0.382323
H267	H	1.602343	0.006113	-0.132323
H268	H	1.852343	0.256113	0.117677
H269	H	0.946712	-0.324248	-0.632963
H270	H	1.196712	-0.074248	-0.382963
H271	H	1.446712	0.175752	-0.132963
H272	H	1.696712	0.425752	0.117037
H273	H	1.080614	-0.470007	-1.096990
H274	H	1.330614	-0.220007	-0.846990
H275	H	1.580614	0.029993	-0.596990
H276	H	1.830614	0.279993	-0.346990
H277	H	0.919532	-0.294491	-0.964576
H278	H	1.169532	-0.044491	-0.714576
H279	H	1.419532	0.205509	-0.464576
H280	H	1.669532	0.455509	-0.214576
H281	H	0.526129	-0.458133	-0.420359
H282	H	0.776129	-0.208133	-0.170359
H283	H	1.026129	0.041867	0.079641
H284	H	1.276129	0.291867	0.329641
H285	H	1.086400	-0.670717	-0.437584
H286	H	1.336400	-0.420717	-0.187584
H287	H	1.586400	-0.170717	0.062416
H288	H	1.836400	0.079283	0.312416
H289	H	0.924983	-0.300371	-1.097631
H290	H	1.174983	-0.050371	-0.847631
H291	H	1.424983	0.199629	-0.597631
H292	H	1.674983	0.449629	-0.347631
H293	H	1.110346	-1.137296	-0.461452
H294	H	1.360346	-0.887296	-0.211452
H295	H	1.610346	-0.637296	0.038548
H296	H	1.860346	-0.387296	0.288548
H297	H	0.957850	-0.336319	-0.852762
H298	H	1.207850	-0.086319	-0.602762
H299	H	1.457850	0.163681	-0.352762
H300	H	1.707850	0.413681	-0.102762
H301	H	0.916876	-0.656470	-0.267846
H302	H	1.166876	-0.406470	-0.017846
H303	H	1.416876	-0.156470	0.232154
H304	H	1.666876	0.093530	0.482154
H305	H	1.075152	-0.464141	-0.963945
H306	H	1.325152	-0.214141	-0.713945
H307	H	1.575152	0.035859	-0.463945
H308	H	1.825152	0.285859	-0.213945
H309	H	0.952838	-0.904222	-0.303790
H310	H	1.202838	-0.654222	-0.053790
H311	H	1.452838	-0.404222	0.196210
H312	H	1.702838	-0.154222	0.446210
H313	H	1.107780	-0.499772	-0.765378
H314	H	1.357780	-0.249772	-0.515378
H315	H	1.607780	0.000228	-0.265378
H316	H	1.857780	0.250228	-0.015378
H317	H	0.613487	-0.294523	-0.270617
H318	H	0.863487	-0.044523	-0.020617
H319	H	1.113487	0.205477	0.229383
H320	H	1.363487	0.455477	0.479383
H321	H	0.940826	-1.123047	-0.291711
H322	H	1.190826	-0.873047	-0.041711
H323	H	1.440826	-0.623047	0.208289
H324	H	1.690826	-0.373047	0.458289
H325	H	1.080547	-0.803288	-0.431691
H326	H	1.330547	-0.553288	-0.181691
H327	H	1.580547	-0.303288	0.068309
H328	H	1.830547	-0.053288	0.318309
H329	H	0.414322	-0.499991	-0.458651
H330	H	0.664322	-0.249991	-0.208651
H331	H	0.914322	0.000009	0.041349
H332	H	1.164322	0.250009	0.291349
H333	H	1.069461	-0.457952	-0.877195
H334	H	1.319461	-0.207952	-0.627195
H335	H	1.569461	0.042048	-0.377195
H336	H	1.819461	0.292048	-0.127195
H337	H	0.501679	-0.336371	-0.308911
H338	H	0.751679	-0.086371	-0.058911
H339	H	1.001679	0.163629	0.191089
H340	H	1.251679	0.413629	0.441089
H341	H	0.612883	-0.464338	-0.426022
H342	H	0.862883	-0.214338	-0.176022
H343	H	1.112883	0.035662	0.073978
H344	H	1.362883	0.285662	0.323978
H345	H	0.952151	-0.330138	-0.766006
H346	H	1.202151	-0.080138	-0.516006
H347	H	1.452151	0.169862	-0.266006
H348	H	1.702151	0.419862	-0.016006
H349	H	1.116198	-1.004711	-0.467346
H350	H	1.366198	-0.754711	-0.217346
H351	H	1.616198	-0.504711	0.032654
H352	H	1.866198	-0.254711	0.282654
H353	H	0.911025	-0.789053	-0.261957
H354	H	1.161025	-0.539053	-0.011957
H355	H	1.411025	-0.289053	0.238043
H356	H	1.661025	-0.039053	0.488043
H357	H	0.946676	-0.990473	-0.297608
H358	H	1.196676	-0.740473	-0.047608
H359	H	1.446676	-0.490473	0.202392
H360	H	1.696676	-0.240473	0.452392
H361	H	0.281270	-0.494080	-0.453249
H362	H	0.531270	-0.244080	-0.203249
H363	H	0.781270	0.005920	0.046751
H364	H	1.031270	0.255920	0.296751
H365	H	1.074379	-0.889548	-0.425514
H366	H	1.324379	-0.639548	-0.175514
H367	H	1.574379	-0.389548	0.074486
H368	H	1.824379	-0.139548	0.324486
H369	H	0.281887	-0.324258	-0.297846
H370	H	0.531887	-0.074258	-0.047846
H371	H	0.781887	0.175742	0.202154
H372	H	1.031887	0.425742	0.452154
H373	H	0.746542	-0.300427	-0.276017
H374	H	0.996542	-0.050427	-0.026017
H375	H	1.246542	0.199573	0.223983
H376	H	1.496542	0.449573	0.473983
H377	H	0.414929	-0.330171	-0.303241
H378	H	0.664929	-0.080171	-0.053241
H379	H	0.914929	0.169829	0.196759
H380	H	1.164929	0.419829	0.446759
