data_functionalizedCrystal
_audit_creation_method	'MofGen! by Chris Wilmer'
_symmetry_space_group_name_H-M	'P1'
_symmetry_Int_Tables_number	1
_symmetry_cell_setting	triclinic
loop_
_symmetry_equiv_pos_as_xyz
  x,y,z
_cell_length_a	14.971482
_cell_length_b	27.732048
_cell_length_c	13.448316
_cell_angle_alpha	90.008601
_cell_angle_beta	90.004522
_cell_angle_gamma	83.127632
loop_
_atom_site_label
_atom_site_type_symbol
_atom_site_fract_x
_atom_site_fract_y
_atom_site_fract_z
O1	O	1.185952	0.062980	0.082690
O2	O	1.685952	0.562980	0.582690
O3	O	0.925433	0.070526	0.082696
O4	O	1.425433	0.570526	0.582696
O5	O	1.063784	-0.003606	0.082674
O6	O	1.563784	0.496394	0.582674
O7	O	1.047601	0.137112	0.082712
O8	O	1.547601	0.637112	0.582712
O9	O	1.063770	-0.003607	-0.082710
O10	O	1.563770	0.496393	0.417290
O11	O	0.925419	0.070525	-0.082688
O12	O	1.425419	0.570525	0.417312
O13	O	1.185939	0.062980	-0.082694
O14	O	1.685939	0.562980	0.417306
Cu15	Cu	1.055678	0.066752	-0.097791
Cu16	Cu	1.555678	0.566752	0.402209
Cu17	Cu	1.055694	0.066753	0.097794
Cu18	Cu	1.555694	0.566753	0.597794
O19	O	1.047588	0.137112	-0.082671
O20	O	1.547588	0.637112	0.417329
C21	C	0.892106	0.070188	0.000005
C22	C	1.392106	0.570188	0.500005
C23	C	0.792825	0.069178	0.000006
C24	C	1.292825	0.569178	0.500006
C25	C	0.746181	0.068702	-0.090146
C26	C	1.246181	0.568702	0.409854
C27	C	0.652897	0.067745	-0.090147
C28	C	1.152897	0.567745	0.409853
C29	C	0.606259	0.067268	0.000005
C30	C	1.106259	0.567268	0.500005
C31	C	0.652911	0.067742	0.090164
C32	C	1.152911	0.567742	0.590164
C33	C	0.746193	0.068696	0.090164
C34	C	1.246193	0.568696	0.590164
C35	C	0.458480	0.065756	0.090157
C36	C	0.958480	0.565756	0.590157
C37	C	0.365191	0.064804	0.090157
C38	C	0.865191	0.564804	0.590157
C39	C	0.365184	0.064805	-0.090154
C40	C	0.865184	0.564805	0.409846
C41	C	0.458467	0.065759	-0.090154
C42	C	0.958467	0.565759	0.409846
C43	C	0.505111	0.066234	0.000005
C44	C	1.005111	0.566234	0.500005
C45	C	1.063437	-0.021615	-0.000021
C46	C	1.563437	0.478385	0.499979
C47	C	1.062414	-0.075275	-0.000029
C48	C	1.562414	0.424725	0.499971
C49	C	1.137731	-0.413743	0.000021
C50	C	1.637731	0.086257	0.500021
C51	C	1.133936	-0.615420	0.000035
C52	C	1.633936	-0.115420	0.500035
O53	O	1.202808	-0.646358	0.000076
O54	O	1.702808	-0.146358	0.500076
N55	N	1.051900	-0.634922	0.000036
N56	N	1.551900	-0.134922	0.500036
C57	C	0.970806	-0.604001	0.000040
C58	C	1.470806	-0.104001	0.500040
O59	O	0.900942	-0.625216	0.000051
O60	O	1.400942	-0.125216	0.500051
C61	C	0.974602	-0.402325	0.000033
C62	C	1.474602	0.097675	0.500033
C63	C	1.056644	-0.382826	0.000022
C64	C	1.556644	0.117174	0.500022
C65	C	1.219766	-0.394244	0.000011
C66	C	1.719766	0.105756	0.500011
C67	C	1.220714	-0.343827	0.000002
C68	C	1.720714	0.156173	0.500002
C69	C	1.139627	-0.312910	0.000003
C70	C	1.639627	0.187090	0.500003
C71	C	1.057592	-0.332410	0.000013
C72	C	1.557592	0.167590	0.500013
C73	C	0.893510	-0.371405	0.000044
C74	C	1.393510	0.128595	0.500044
C75	C	0.894466	-0.320983	0.000045
C76	C	1.394466	0.179017	0.500045
C77	C	0.976508	-0.301484	0.000034
C78	C	1.476508	0.198516	0.500034
C79	C	0.977453	-0.251076	0.000005
C80	C	1.477453	0.248924	0.500005
N81	N	1.059489	-0.231574	0.000004
N82	N	1.559489	0.268426	0.500004
C83	C	1.140576	-0.262491	0.000003
C84	C	1.640576	0.237509	0.500003
C85	C	0.968819	-0.709884	0.000041
C86	C	1.468819	-0.209884	0.500041
C87	C	0.967870	-0.760303	0.000041
C88	C	1.467870	-0.260303	0.500041
C89	C	1.131000	-0.771719	0.000038
C90	C	1.631000	-0.271719	0.500038
C91	C	1.131949	-0.721299	0.000031
C92	C	1.631949	-0.221299	0.500031
C93	C	1.050856	-0.690382	0.000040
C94	C	1.550856	-0.190382	0.500040
C95	C	1.142561	-0.156613	-0.000017
C96	C	1.642561	0.343387	0.499983
C97	C	1.143502	-0.106192	-0.000030
C98	C	1.643502	0.393808	0.499970
C99	C	0.980372	-0.094780	-0.000021
C100	C	1.480372	0.405220	0.499979
C101	C	0.979431	-0.145197	-0.000014
C102	C	1.479431	0.354803	0.499986
C103	C	1.060532	-0.176113	-0.000008
C104	C	1.560532	0.323887	0.499992
O105	O	0.908618	-0.220109	-0.000026
O106	O	1.408618	0.279891	0.499974
O107	O	1.210430	-0.241267	0.000013
O108	O	1.710430	0.258733	0.500013
C109	C	1.136783	-0.464159	0.000029
C110	C	1.636783	0.035841	0.500029
C111	C	1.054748	-0.483658	0.000039
C112	C	1.554748	0.016342	0.500039
C113	C	0.973661	-0.452741	0.000041
C114	C	1.473661	0.047259	0.500041
C115	C	1.053799	-0.534077	0.000039
C116	C	1.553799	-0.034077	0.500039
C117	C	1.134886	-0.564994	0.000038
C118	C	1.634886	-0.064994	0.500038
C119	C	1.216923	-0.545493	0.000037
C120	C	1.716923	-0.045493	0.500037
C121	C	1.217871	-0.495076	0.000028
C122	C	1.717871	0.004924	0.500028
C123	C	0.891625	-0.472243	0.000042
C124	C	1.391625	0.027757	0.500042
C125	C	0.890683	-0.522660	0.000049
C126	C	1.390683	-0.022660	0.500049
C127	C	0.971771	-0.553577	0.000048
C128	C	1.471771	-0.053577	0.500048
C129	C	1.219265	0.063317	-0.000000
C130	C	1.719265	0.563317	0.500000
C131	C	1.318546	0.064327	0.000005
C132	C	1.818546	0.564327	0.500005
C133	C	1.047934	0.155121	0.000025
C134	C	1.547934	0.655121	0.500025
C135	C	1.048957	0.208780	0.000040
C136	C	1.548957	0.708780	0.500040
N137	N	1.055673	0.066751	-0.235356
N138	N	1.555673	0.566751	0.264644
C139	C	1.109511	0.096117	-0.287385
C140	C	1.609511	0.596117	0.212615
C141	C	1.109522	0.096115	-0.391488
C142	C	1.609522	0.596115	0.108512
C143	C	1.055690	0.066749	-0.443560
C144	C	1.555690	0.566749	0.056440
C145	C	1.001849	0.037381	-0.391524
C146	C	1.501849	0.537381	0.108476
C147	C	1.001843	0.037381	-0.287423
C148	C	1.501843	0.537381	0.212577
C149	C	1.001863	0.037384	-0.608504
C150	C	1.501863	0.537384	-0.108504
C151	C	1.001867	0.037385	-0.712613
C152	C	1.501867	0.537385	-0.212613
C153	C	1.109542	0.096118	-0.712569
C154	C	1.609542	0.596118	-0.212569
C155	C	1.109536	0.096118	-0.608468
C156	C	1.609536	0.596118	-0.108468
C157	C	1.055694	0.066750	-0.556439
C158	C	1.555694	0.566750	-0.056439
N159	N	1.055706	0.066750	0.235358
N160	N	1.555706	0.566750	0.735358
H161	H	0.496455	0.066144	0.163574
H162	H	0.996455	0.566144	0.663574
H163	H	1.153367	0.120032	-0.566073
H164	H	1.653367	0.620032	-0.066073
H165	H	0.327201	0.064418	-0.163565
H166	H	0.827201	0.564418	0.336435
Cl167	Cl	1.177233	0.133036	-0.777976
Cl168	Cl	1.677233	0.633036	-0.277976
H169	H	0.958002	0.013469	-0.245062
H170	H	1.458002	0.513469	0.254938
Cl171	Cl	0.792514	-0.282119	0.000058
Cl172	Cl	1.292514	0.217881	0.500058
Cl173	Cl	0.934189	0.000456	-0.543098
Cl174	Cl	1.434189	0.500456	-0.043098
H175	H	0.496436	0.066150	-0.163563
H176	H	0.996436	0.566150	0.336437
H177	H	0.825592	-0.447075	0.000045
H178	H	1.325592	0.052925	0.500045
H179	H	0.614932	0.067350	0.163567
H180	H	1.114932	0.567350	0.663567
H181	H	0.327221	0.064415	0.163566
H182	H	0.827221	0.564415	0.663566
H183	H	1.153343	0.120032	-0.244995
H184	H	1.653343	0.620032	0.255005
Cl185	Cl	0.934197	0.000465	-0.778074
Cl186	Cl	1.434197	0.500465	-0.278074
Cl187	Cl	0.804833	0.069292	0.203503
Cl188	Cl	1.304833	0.569292	0.703503
H189	H	1.282947	-0.570674	0.000032
H190	H	1.782947	-0.070674	0.500032
H191	H	0.784145	0.069094	-0.163558
H192	H	1.284145	0.569094	0.336442
Cl193	Cl	0.594260	0.067155	-0.203486
Cl194	Cl	1.094260	0.567155	0.296514
H195	H	1.210313	-0.090319	-0.000041
H196	H	1.710313	0.409681	0.499959
Cl197	Cl	1.232938	-0.810595	0.000041
Cl198	Cl	1.732938	-0.310595	0.500041
H199	H	1.153365	0.120026	-0.433845
H200	H	1.653365	0.620026	0.066155
Cl201	Cl	1.244519	-0.195471	-0.000011
Cl202	Cl	1.744519	0.304529	0.499989
H203	H	1.287521	-0.327956	-0.000003
H204	H	1.787521	0.172044	0.499997
H205	H	1.285801	-0.419412	0.000013
H206	H	1.785801	0.080588	0.500013
Cl207	Cl	1.235090	-0.696792	0.000018
Cl208	Cl	1.735090	-0.196792	0.500018
H209	H	0.901063	-0.776174	0.000033
H210	H	1.401063	-0.276174	0.500033
Cl211	Cl	0.866862	-0.671024	0.000052
Cl212	Cl	1.366862	-0.171024	0.500052
H213	H	0.826703	-0.387271	0.000059
H214	H	1.326703	0.112729	0.500059
H215	H	0.912626	-0.161074	-0.000032
H216	H	1.412626	0.338926	0.499968
H217	H	0.958022	0.013469	-0.433930
H218	H	1.458022	0.513469	0.066070
Cl219	Cl	1.321015	-0.470572	0.000023
Cl220	Cl	1.821015	0.029428	0.500023
Cl221	Cl	0.878439	-0.055904	-0.000018
Cl222	Cl	1.378439	0.444096	0.499982
Cl223	Cl	0.787534	-0.547166	0.000058
Cl224	Cl	1.287534	-0.047166	0.500058
