data_functionalizedCrystal
_audit_creation_method	'MofGen! by Chris Wilmer'
_symmetry_space_group_name_H-M	'P1'
_symmetry_Int_Tables_number	1
_symmetry_cell_setting	triclinic
loop_
_symmetry_equiv_pos_as_xyz
  x,y,z
_cell_length_a	15.297475
_cell_length_b	15.299816
_cell_length_c	15.296720
_cell_angle_alpha	69.242954
_cell_angle_beta	88.382886
_cell_angle_gamma	72.651123
loop_
_atom_site_label
_atom_site_type_symbol
_atom_site_fract_x
_atom_site_fract_y
_atom_site_fract_z
Zn1	Zn	1.356907	-0.745292	0.873593
Zn2	Zn	1.401320	-0.883184	0.754304
Zn3	Zn	1.228314	-0.691495	0.691223
Zn4	Zn	1.228239	-0.873771	0.873576
O5	O	1.303695	-0.798436	0.798174
O6	O	1.489051	-0.790038	0.884175
O7	O	1.396989	-0.839181	0.619698
O8	O	1.226816	-0.564640	0.689021
O9	O	1.521681	-0.891346	0.796535
O10	O	1.321293	-0.604165	0.823008
O11	O	1.269882	-0.698348	0.573353
O12	O	1.102052	-0.689221	0.689006
O13	O	1.226689	-0.875303	0.999817
O14	O	1.101997	-0.823138	0.822980
O15	O	1.321221	-0.780910	0.999828
O16	O	1.396917	-1.015926	0.796519
O17	O	1.269755	-1.009011	0.884148
C18	C	1.069289	-0.749321	0.749147
C19	C	0.969009	-0.728336	0.728199
C20	C	0.686429	-0.948428	0.947897
C21	C	0.780649	-0.968151	0.967578
C22	C	0.827743	-0.908199	0.907735
C23	C	0.780609	-0.828520	0.828208
C24	C	0.686382	-0.808799	0.808521
C25	C	0.827696	-0.768570	0.768359
C26	C	0.780562	-0.688891	0.688831
C27	C	0.686344	-0.669174	0.669149
C28	C	0.639250	-0.729126	0.728992
C29	C	0.921923	-0.788291	0.788045
C30	C	0.921876	-0.648663	0.648669
C31	C	0.827657	-0.628939	0.628988
C32	C	1.338168	-1.047219	0.847202
C33	C	1.352994	-1.153671	0.868224
C34	C	1.198278	-1.371756	0.648359
C35	C	1.184344	-1.271739	0.628609
C36	C	1.226505	-1.242217	0.688511
C37	C	1.282604	-1.312723	0.768166
C38	C	1.296534	-1.412750	0.787922
C39	C	1.324761	-1.283210	0.828074
C40	C	1.380859	-1.353716	0.907729
C41	C	1.394788	-1.453733	0.927481
C42	C	1.352626	-1.483255	0.867579
C43	C	1.310831	-1.183183	0.808318
C44	C	1.409086	-1.224177	0.947881
C45	C	1.423021	-1.324194	0.967631
C46	C	1.539017	-0.847743	0.847394
C47	C	1.639297	-0.868755	0.868368
C48	C	1.268993	-0.833057	1.033470
C49	C	1.254204	-0.847811	1.133739
C50	C	1.269109	-0.548689	0.748980
C51	C	1.254370	-0.442262	0.728016
C52	C	1.338305	-0.763890	0.563791
C53	C	1.353230	-0.748903	0.463506
C54	C	1.409399	-0.692828	1.416409
C55	C	1.423299	-0.678969	1.322202
C56	C	1.381026	-0.721178	1.275082
C57	C	1.324851	-0.777249	1.322177
C58	C	1.310956	-0.791116	1.416395
C59	C	1.282583	-0.819466	1.275068
C60	C	1.226409	-0.875537	1.322163
C61	C	1.212515	-0.889401	1.416371
C62	C	1.254788	-0.847192	1.463492
C63	C	1.296479	-0.805599	1.180850
C64	C	1.198036	-0.903887	1.180836
C65	C	1.184136	-0.917746	1.275042
H66	H	0.904461	-0.924262	0.923764
C67	C	0.504250	-0.624851	0.624915
C68	C	0.535678	-0.707443	0.707358
H69	H	0.440307	-0.611465	0.611566
H70	H	0.536417	-0.637209	0.574377
H71	H	0.514698	-0.569862	0.632898
H72	H	0.525236	-0.762434	0.699372
H73	H	0.503500	-0.695091	0.757907
H74	H	1.469039	-0.633318	1.283865
H75	H	0.648078	-0.997237	0.996609
H76	H	1.342216	-0.759944	1.142514
H77	H	1.138398	-0.963399	1.313400
H78	H	1.265155	-1.125785	0.743462
H79	H	1.443817	-0.658474	1.454785
H80	H	0.647973	-0.604302	0.604385
C81	C	1.153060	-1.076625	0.584230
C82	C	1.211197	-1.132276	0.666798
H83	H	1.143616	-1.008750	0.570820
H84	H	1.095697	-1.089386	0.592093
H85	H	1.180447	-1.093988	0.533778
H86	H	1.183807	-1.114918	0.717252
H87	H	1.268570	-1.119509	0.658941
C88	C	1.033846	-1.202637	0.546546
C89	C	1.122691	-1.194248	0.541050
H90	H	0.995786	-1.154800	0.492482
H91	H	1.009374	-1.192363	0.601125
H92	H	1.036123	-1.266436	0.549742
H93	H	1.120415	-1.130450	0.537860
H94	H	1.147168	-1.204514	0.486456
C95	C	1.420374	-1.516083	1.095499
C96	C	1.456453	-1.531230	1.015039
H97	H	1.458450	-1.563921	1.149551
H98	H	1.360107	-1.521773	1.099225
H99	H	1.418112	-1.452285	1.092293
H100	H	1.458708	-1.595026	1.018242
H101	H	1.516735	-1.525549	1.011313
C102	C	1.176017	-1.506891	0.616684
C103	C	1.151941	-1.404210	0.582521
H104	H	1.147411	-1.526923	0.576031
H105	H	1.156105	-1.529399	0.677740
H106	H	1.240863	-1.533986	0.619436
H107	H	1.087095	-1.377115	0.579775
H108	H	1.171847	-1.381692	0.521449
H109	H	0.789267	-0.564064	0.564236
C110	C	1.066286	-0.616884	0.616961
C111	C	0.973633	-0.582754	0.582885
H112	H	1.098239	-0.576195	0.576352
H113	H	1.092598	-0.682465	0.619555
H114	H	1.070855	-0.615124	0.678082
H115	H	0.969063	-0.584521	0.521766
H116	H	0.947313	-0.517156	0.580280
H117	H	1.363972	-1.564697	0.883652
C118	C	1.448575	-1.386555	1.135650
C119	C	1.484668	-1.401703	1.055196
H120	H	1.486635	-1.434404	1.189708
H121	H	1.388302	-1.392227	1.139355
H122	H	1.446324	-1.322763	1.132454
H123	H	1.486912	-1.465492	1.058388
H124	H	1.544958	-1.396039	1.051490
C125	C	1.270488	-0.962951	1.621204
C126	C	1.239510	-0.862427	1.567049
H127	H	1.261052	-0.972353	1.685135
H128	H	1.334138	-0.988561	1.615331
H129	H	1.237269	-0.996110	1.599881
H130	H	1.272733	-0.829269	1.588368
H131	H	1.175848	-0.836805	1.572927
H132	H	1.443416	-1.200142	0.996660
H133	H	1.392347	-0.709890	1.198375
C134	C	1.175615	-0.926267	1.036409
C135	C	1.151562	-0.950285	1.129049
H136	H	1.146922	-0.954906	1.004435
H137	H	1.240443	-0.950712	1.036413
H138	H	1.155777	-0.856892	1.005548
H139	H	1.171407	-1.019660	1.159912
H140	H	1.086720	-0.925844	1.129050
H141	H	1.166782	-0.935067	1.454716
H142	H	0.819019	-1.033028	1.032328
C143	C	0.934940	-0.863725	0.956032
C144	C	0.973726	-0.875863	0.875463
H145	H	0.966926	-0.917788	1.010004
H146	H	0.872095	-0.860563	0.952865
H147	H	0.939512	-0.804596	0.959874
H148	H	0.969149	-0.934989	0.871618
H149	H	1.036587	-0.879035	0.878631
