data_functionalizedCrystal
_audit_creation_method	'MofGen! by Chris Wilmer'
_symmetry_space_group_name_H-M	'P1'
_symmetry_Int_Tables_number	1
_symmetry_cell_setting	triclinic
loop_
_symmetry_equiv_pos_as_xyz
  x,y,z
_cell_length_a	13.033808
_cell_length_b	13.032721
_cell_length_c	19.076919
_cell_angle_alpha	80.861841
_cell_angle_beta	80.860566
_cell_angle_gamma	103.361820
loop_
_atom_site_label
_atom_site_type_symbol
_atom_site_fract_x
_atom_site_fract_y
_atom_site_fract_z
Zn1	Zn	1.550535	-0.235881	0.285676
Zn2	Zn	1.534816	-0.406571	0.183922
Zn3	Zn	1.379876	-0.251548	0.183913
Zn4	Zn	1.347964	-0.438415	0.320261
O5	O	1.453298	-0.333104	0.243443
O6	O	1.698070	-0.238640	0.257708
O7	O	1.521039	-0.379236	0.084274
O8	O	1.422447	-0.099831	0.182934
O9	O	1.686521	-0.364045	0.182950
O10	O	1.547830	-0.088320	0.257699
O11	O	1.407205	-0.265341	0.084267
O12	O	1.226023	-0.296220	0.216470
O13	O	1.368060	-0.418319	0.415320
O14	O	1.202578	-0.433510	0.316645
O15	O	1.516887	-0.269518	0.389911
O16	O	1.490096	-0.560434	0.216486
O17	O	1.352817	-0.583830	0.316654
C18	C	1.175505	-0.370021	0.270309
C19	C	1.056660	-0.385842	0.281822
C20	C	1.416316	-0.610929	0.270336
C21	C	1.400592	-0.729772	0.281856
C22	C	0.892423	-0.341217	0.249348
C23	C	1.015256	-0.324866	0.237447
C24	C	1.461559	-0.771140	0.237457
C25	C	1.445309	-0.893971	0.249362
C26	C	1.732175	-0.296043	0.216472
C27	C	1.851016	-0.280250	0.204979
C28	C	1.440667	-0.345723	0.429175
C29	C	1.435285	-0.351101	0.508323
C30	C	1.490452	-0.054191	0.216457
C31	C	1.506285	0.064665	0.204957
C32	C	1.465951	-0.320448	0.058420
C33	C	1.471581	-0.314742	-0.020777
C34	C	1.510239	-0.276158	0.532280
C35	C	1.505169	-0.281209	0.606648
C36	C	1.425149	-0.361207	0.657060
C37	C	1.350187	-0.436154	0.633099
C38	C	1.355253	-0.431098	0.558732
C39	C	1.401685	-0.384632	0.880895
C40	C	1.396626	-0.389684	0.955267
C41	C	1.551608	-0.234737	0.928810
C42	C	1.556671	-0.229692	0.854443
C43	C	1.481705	-0.304635	0.830489
N44	N	1.419967	-0.366374	0.733077
N45	N	1.486884	-0.299463	0.754473
H46	H	0.836937	-0.405522	0.296144
H47	H	1.070739	-0.260564	0.190643
H48	H	0.906502	-0.215952	0.158179
H49	H	1.001178	-0.450149	0.328623
H50	H	1.525791	-0.715624	0.190634
H51	H	1.381081	-0.949485	0.296193
H52	H	1.570521	-0.879821	0.158132
H53	H	1.336368	-0.785290	0.328683
H54	H	1.575403	-0.211017	0.491238
H55	H	1.331461	-0.454832	0.996312
H56	H	1.566207	-0.220185	0.626149
H57	H	1.294208	-0.492115	0.539229
H58	H	1.621834	-0.164551	0.813401
H59	H	1.612639	-0.173722	0.948322
H60	H	1.340656	-0.445669	0.861401
H61	H	1.285030	-0.501287	0.674151
