data_functionalizedCrystal
_audit_creation_method	'MofGen! by Chris Wilmer'
_symmetry_space_group_name_H-M	'P1'
_symmetry_Int_Tables_number	1
_symmetry_cell_setting	triclinic
loop_
_symmetry_equiv_pos_as_xyz
  x,y,z
_cell_length_a	19.288857
_cell_length_b	15.537862
_cell_length_c	18.366186
_cell_angle_alpha	89.991974
_cell_angle_beta	89.991598
_cell_angle_gamma	65.198771
loop_
_atom_site_label
_atom_site_type_symbol
_atom_site_fract_x
_atom_site_fract_y
_atom_site_fract_z
O1	O	-0.225912	1.250950	-0.060500
O2	O	0.274088	1.750950	0.439500
O3	O	-0.145607	0.976333	-0.060514
O4	O	0.354393	1.476333	0.439486
O5	O	-0.288874	1.121580	-0.060498
O6	O	0.211126	1.621580	0.439502
O7	O	-0.082645	1.105703	-0.060516
O8	O	0.417355	1.605703	0.439484
O9	O	-0.288873	1.121556	0.060602
O10	O	0.211127	1.621556	0.560602
O11	O	-0.145607	0.976308	0.060586
O12	O	0.354393	1.476308	0.560586
O13	O	-0.225911	1.250925	0.060599
O14	O	0.274089	1.750925	0.560599
Zn15	Zn	-0.185758	1.113613	0.079820
Zn16	Zn	0.314242	1.613613	0.579820
Zn17	Zn	-0.185760	1.113645	-0.079734
Zn18	Zn	0.314240	1.613645	0.420266
O19	O	-0.082644	1.105678	0.060583
O20	O	0.417356	1.605678	0.560583
C21	C	-0.137205	0.941187	0.000034
C22	C	0.362795	1.441187	0.500034
C23	C	-0.112177	0.836501	0.000030
C24	C	0.387823	1.336501	0.500030
C25	C	-0.010729	0.677438	0.000018
C26	C	0.489271	1.177438	0.500018
C27	C	-0.034254	0.775808	0.000022
C28	C	0.465746	1.275808	0.500022
C29	C	-0.166606	0.798841	0.000037
C30	C	0.333394	1.298841	0.500037
C31	C	-0.143092	0.700471	0.000036
C32	C	0.356908	1.200471	0.500036
C33	C	-0.065152	0.639777	0.000026
C34	C	0.434848	1.139777	0.500026
C35	C	-0.197515	0.662809	0.000045
C36	C	0.302485	1.162809	0.500045
C37	C	-0.174003	0.564448	0.000040
C38	C	0.325997	1.064448	0.500040
C39	C	-0.096067	0.503748	0.000027
C40	C	0.403933	1.003748	0.500027
C41	C	-0.041640	0.541415	0.000021
C42	C	0.458360	1.041415	0.500021
C43	C	-0.275455	0.723505	0.000050
C44	C	0.224545	1.223505	0.500050
C45	C	-0.329878	0.685843	0.000058
C46	C	0.170122	1.185843	0.500058
C47	C	-0.306366	0.587480	0.000059
C48	C	0.193634	1.087480	0.500059
C49	C	-0.228430	0.526780	0.000046
C50	C	0.271570	1.026780	0.500046
C51	C	-0.360793	0.549813	0.000065
C52	C	0.139207	1.049813	0.500065
C53	C	-0.337281	0.451451	0.000060
C54	C	0.162719	0.951451	0.500060
C55	C	-0.204918	0.428419	0.000042
C56	C	0.295082	0.928419	0.500042
C57	C	-0.314623	1.121058	0.000053
C58	C	0.185377	1.621058	0.500053
C59	C	-0.391344	1.119528	0.000055
C60	C	0.108656	1.619528	0.500055
C61	C	-0.427377	1.118828	-0.065957
C62	C	0.072623	1.618828	0.434043
C63	C	-0.499460	1.117377	-0.065962
C64	C	0.000540	1.617377	0.434038
C65	C	-0.535515	1.116645	0.000047
C66	C	-0.035515	1.616645	0.500047
C67	C	-0.499472	1.117341	0.066068
C68	C	0.000528	1.617341	0.566068
C69	C	-0.427386	1.118782	0.066071
C70	C	0.072614	1.618782	0.566071
C71	C	-0.668977	1.169589	0.050618
C72	C	-0.168977	1.669589	0.550618
C73	C	-0.741063	1.168153	0.050611
C74	C	-0.241063	1.668153	0.550611
C75	C	-0.757849	1.112195	0.000039
C76	C	-0.257849	1.612195	0.500039
C77	C	-0.702544	1.057685	-0.050539
C78	C	-0.202544	1.557685	0.449461
C79	C	-0.630458	1.059126	-0.050535
C80	C	-0.130458	1.559126	0.449465
C81	C	-0.613679	1.115082	0.000051
C82	C	-0.113679	1.615082	0.500051
C83	C	-0.872042	1.109920	-0.065983
C84	C	-0.372042	1.609920	0.434017
C85	C	-0.944125	1.108463	-0.065986
C86	C	-0.444125	1.608463	0.434014
C87	C	-0.944138	1.108436	0.066046
C88	C	-0.444138	1.608436	0.566046
C89	C	-0.872053	1.109884	0.066047
C90	C	-0.372053	1.609884	0.566047
C91	C	-0.836011	1.110630	0.000030
C92	C	-0.336011	1.610630	0.500030
C93	C	-0.056896	1.106200	0.000031
C94	C	0.443104	1.606200	0.500031
C95	C	0.019826	1.107730	0.000025
C96	C	0.519826	1.607730	0.500025
C97	C	-0.234313	1.286071	0.000050
C98	C	0.265687	1.786071	0.500050
C99	C	-0.259341	1.390757	0.000050
C100	C	0.240659	1.890757	0.500050
N101	N	-0.185760	1.113598	0.188711
N102	N	0.314240	1.613598	0.688711
N103	N	-0.185766	1.113668	-0.188625
N104	N	0.314234	1.613668	0.311375
C105	C	-0.249180	1.177934	0.226818
C106	C	0.250820	1.677934	0.726818
C107	C	-0.249185	1.177940	0.303046
C108	C	0.250815	1.677940	0.803046
C109	C	-0.185759	1.113619	0.341164
C110	C	0.314241	1.613619	0.841164
C111	C	-0.122332	1.049270	0.303047
C112	C	0.377668	1.549270	0.803047
C113	C	-0.122333	1.049260	0.226821
C114	C	0.377667	1.549260	0.726821
C115	C	-0.119316	1.100992	0.461918
C116	C	0.380684	1.600992	0.961918
C117	C	-0.119317	1.101009	0.538143
C118	C	0.380683	1.601009	1.038143
C119	C	-0.185757	1.113645	0.576271
C120	C	0.314243	1.613645	1.076271
C121	C	-0.252205	1.126285	0.538165
C122	C	0.247795	1.626285	1.038165
C123	C	-0.252205	1.126275	0.461939
C124	C	0.247795	1.626275	0.961939
C125	C	-0.185752	1.113622	0.423818
C126	C	0.314248	1.613622	0.923818
C127	C	-0.249187	1.177992	0.697033
C128	C	0.250813	1.677992	1.197033
C129	C	-0.249191	1.177991	0.773263
C130	C	0.250809	1.677991	1.273263
C131	C	-0.122334	1.049326	0.773262
C132	C	0.377666	1.549326	1.273262
C133	C	-0.122335	1.049322	0.697034
C134	C	0.377665	1.549322	1.197034
C135	C	-0.185762	1.113660	0.658925
C136	C	0.314238	1.613660	1.158925
H137	H	0.021826	0.491994	0.000023
H138	H	0.521826	0.991994	0.500023
H139	H	-0.842693	1.110522	-0.119737
H140	H	-0.342693	1.610522	0.380263
Br141	Br	-0.725312	0.981733	-0.119176
Br142	Br	-0.225312	1.481733	0.380824
Br143	Br	-0.823147	1.110830	0.155639
Br144	Br	-0.323147	1.610830	0.655639
Br145	Br	-0.036256	0.961938	0.175099
Br146	Br	0.463744	1.461938	0.675099
Br147	Br	-0.342377	1.143418	0.410225
Br148	Br	0.157623	1.643418	0.910225
H149	H	-0.141452	0.378998	0.000043
H150	H	0.358548	0.878998	0.500043
Br151	Br	0.095048	0.595058	0.000022
Br152	Br	0.595048	1.095058	0.500022
Br153	Br	-0.435650	0.768221	0.000071
Br154	Br	0.064350	1.268221	0.500071
H155	H	-0.655318	1.215156	0.091805
H156	H	-0.155318	1.715156	0.591805
H157	H	-0.398035	1.119432	-0.119713
H158	H	0.101965	1.619432	0.380287
Br159	Br	0.039616	0.826917	0.000008
Br160	Br	0.539616	1.326917	0.500008
Br161	Br	-0.272377	0.881218	0.000050
Br162	Br	0.227623	1.381218	0.500050
H163	H	-0.424251	0.599244	0.000066
H164	H	0.075749	1.099244	0.500066
Br165	Br	-0.036260	0.962021	0.824987
Br166	Br	0.463740	1.462021	1.324987
H167	H	-0.300827	1.230320	0.195792
H168	H	0.199173	1.730320	0.695792
H169	H	-0.585431	1.014740	-0.091716
H170	H	-0.085431	1.514740	0.408284
Br171	Br	-0.816114	1.242137	0.119247
Br172	Br	-0.316114	1.742137	0.619247
H173	H	-0.294596	0.803596	0.000040
H174	H	0.205404	1.303596	0.500040
H175	H	-0.070690	0.996937	0.666005
H176	H	0.429310	1.496937	1.166005
H177	H	-0.065205	1.090685	0.430880
H178	H	0.434795	1.590685	0.930880
H179	H	-0.065213	1.090723	0.569163
H180	H	0.434787	1.590723	1.069163
Br181	Br	-0.548397	1.116336	0.155653
Br182	Br	-0.048397	1.616336	0.655653
H183	H	-0.306307	1.136575	0.569207
H184	H	0.193693	1.636575	1.069207
H185	H	-0.300835	1.230377	0.666003
H186	H	0.199165	1.730377	1.166003
Br187	Br	-0.993025	1.107501	-0.155581
Br188	Br	-0.493025	1.607501	0.344419
H189	H	-0.300839	1.230379	0.804290
H190	H	0.199161	1.730379	1.304290
Br191	Br	-0.036257	0.961969	0.354775
Br192	Br	0.463743	1.461969	0.854775
H193	H	-0.381598	0.420787	0.000066
H194	H	0.118402	0.920787	0.500066
H195	H	-0.528802	1.116800	-0.119718
H196	H	-0.028802	1.616800	0.380282
H197	H	-0.398047	1.119349	0.119827
H198	H	0.101953	1.619349	0.619827
H199	H	-0.973491	1.107834	0.119792
H200	H	-0.473491	1.607834	0.619792
Br201	Br	-0.064154	0.370255	0.000016
Br202	Br	0.435846	0.870255	0.500016
H203	H	-0.300831	1.230332	0.334079
H204	H	0.199169	1.730332	0.834079
