data_functionalizedCrystal
_audit_creation_method	'MofGen! by Chris Wilmer'
_symmetry_space_group_name_H-M	'P1'
_symmetry_Int_Tables_number	1
_symmetry_cell_setting	triclinic
loop_
_symmetry_equiv_pos_as_xyz
  x,y,z
_cell_length_a	19.805407
_cell_length_b	21.295417
_cell_length_c	19.805407
_cell_angle_alpha	90.015533
_cell_angle_beta	90.007450
_cell_angle_gamma	90.027018
loop_
_atom_site_label
_atom_site_type_symbol
_atom_site_fract_x
_atom_site_fract_y
_atom_site_fract_z
Zn1	Zn	1.034651	-0.250757	0.382677
Zn2	Zn	1.367984	0.082576	0.716010
Zn3	Zn	1.701318	0.415909	1.049344
Zn4	Zn	1.034580	-0.356000	0.269484
Zn5	Zn	1.367913	-0.022667	0.602818
Zn6	Zn	1.701246	0.310667	0.936151
Zn7	Zn	0.921486	-0.250744	0.269505
Zn8	Zn	1.254819	0.082590	0.602838
Zn9	Zn	1.588153	0.415923	0.936172
Zn10	Zn	0.921423	-0.355988	0.382635
Zn11	Zn	1.254756	-0.022655	0.715968
Zn12	Zn	1.588089	0.310679	1.049301
O13	O	0.978035	-0.303372	0.326075
O14	O	1.311368	0.029961	0.659409
O15	O	1.644702	0.363294	0.992742
O16	O	1.129358	-0.264729	0.367671
O17	O	1.462691	0.068604	0.701004
O18	O	1.796025	0.401938	1.034338
O19	O	1.019574	-0.342037	0.174771
O20	O	1.352908	-0.008704	0.508104
O21	O	1.686241	0.324630	0.841437
O22	O	0.936554	-0.162656	0.284544
O23	O	1.269887	0.170677	0.617877
O24	O	1.603221	0.504011	0.951211
O25	O	1.129306	-0.342050	0.284509
O26	O	1.462639	-0.008717	0.617842
O27	O	1.795972	0.324616	0.951175
O28	O	1.019696	-0.162666	0.367691
O29	O	1.353029	0.170667	0.701024
O30	O	1.686362	0.504000	1.034358
O31	O	0.936485	-0.264706	0.174786
O32	O	1.269818	0.068628	0.508119
O33	O	1.603152	0.401961	0.841453
O34	O	0.826761	-0.264694	0.284503
O35	O	1.160094	0.068640	0.617836
O36	O	1.493428	0.401973	0.951170
O37	O	0.936446	-0.342029	0.477357
O38	O	1.269779	-0.008696	0.810690
O39	O	1.603113	0.324637	1.144023
O40	O	0.826714	-0.342016	0.367619
O41	O	1.160048	-0.008683	0.700952
O42	O	1.493381	0.324651	1.034285
O43	O	1.019634	-0.264717	0.477388
O44	O	1.352968	0.068616	0.810721
O45	O	1.686301	0.401949	1.144055
O46	O	1.019513	-0.444088	0.284468
O47	O	1.352846	-0.110754	0.617801
O48	O	1.686180	0.222579	0.951134
O49	O	0.936377	-0.444079	0.367599
O50	O	1.269710	-0.110746	0.700932
O51	O	1.603043	0.222588	1.034265
C52	C	0.802179	-0.303353	0.326059
C53	C	1.135512	0.029981	0.659392
C54	C	1.468846	0.363314	0.992726
C55	C	0.726947	-0.303359	0.326068
C56	C	1.060280	0.029974	0.659401
C57	C	1.393614	0.363307	0.992735
C58	C	0.691631	-0.263169	0.369436
C59	C	1.024964	0.070164	0.702770
C60	C	1.358297	0.403497	1.036103
C61	C	0.620942	-0.263173	0.369439
C62	C	0.954275	0.070161	0.702772
C63	C	1.287609	0.403494	1.036106
C64	C	0.585571	-0.303370	0.326076
C65	C	0.918905	0.029964	0.659409
C66	C	1.252238	0.363297	0.992743
C67	C	0.620893	-0.343561	0.282703
C68	C	0.954226	-0.010228	0.616036
C69	C	1.287559	0.323105	0.949370
C70	C	0.691580	-0.343554	0.282697
C71	C	1.024913	-0.010221	0.616031
C72	C	1.358246	0.323112	0.949364
C73	C	0.335819	-0.343590	0.282724
C74	C	0.669153	-0.010256	0.616057
C75	C	1.002486	0.323077	0.949390
C76	C	0.265127	-0.343595	0.282734
C77	C	0.598460	-0.010261	0.616067
C78	C	0.931794	0.323072	0.949401
C79	C	0.265182	-0.263208	0.369465
C80	C	0.598515	0.070125	0.702798
C81	C	0.931848	0.403459	1.036132
C82	C	0.335869	-0.263201	0.369460
C83	C	0.669202	0.070132	0.702793
C84	C	1.002535	0.403466	1.036126
C85	C	0.371184	-0.303390	0.326084
C86	C	0.704517	0.029943	0.659418
C87	C	1.037851	0.363277	0.992751
C88	C	0.447832	-0.303385	0.326081
C89	C	0.781166	0.029948	0.659414
C90	C	1.114499	0.363282	0.992748
C91	C	0.508924	-0.303378	0.326082
C92	C	0.842257	0.029955	0.659416
C93	C	1.175591	0.363289	0.992749
C94	C	0.977949	-0.466924	0.326041
C95	C	1.311282	-0.133591	0.659374
C96	C	1.644615	0.199743	0.992708
C97	C	0.977974	-0.536892	0.326049
C98	C	1.311307	-0.203559	0.659382
C99	C	1.644640	0.129775	0.992716
C100	C	1.021241	-0.569707	0.369375
C101	C	1.354574	-0.236373	0.702708
C102	C	1.687907	0.096960	1.036041
C103	C	1.021265	-0.635449	0.369391
C104	C	1.354598	-0.302116	0.702725
C105	C	1.687931	0.031217	1.036058
C106	C	0.978029	-0.668374	0.326070
C107	C	1.311362	-0.335041	0.659404
C108	C	1.644695	-0.001708	0.992737
C109	C	0.934753	-0.635552	0.282742
C110	C	1.268086	-0.302218	0.616075
C111	C	1.601420	0.031115	0.949408
C112	C	0.934726	-0.569811	0.282731
C113	C	1.268059	-0.236477	0.616064
C114	C	1.601392	0.096856	0.949398
N115	N	0.972928	-0.771622	0.266835
N116	N	1.306261	-0.438288	0.600168
N117	N	1.639594	-0.104955	0.933501
N118	N	0.972958	-0.834073	0.266847
N119	N	1.306291	-0.500740	0.600180
N120	N	1.639624	-0.167406	0.933514
C121	C	0.978108	-0.866449	0.326101
C122	C	1.311441	-0.533116	0.659434
C123	C	1.644774	-0.199783	0.992768
N124	N	0.983239	-0.834015	0.385344
N125	N	1.316573	-0.500681	0.718677
N126	N	1.649906	-0.167348	1.052010
N127	N	0.983213	-0.771557	0.385331
N128	N	1.316546	-0.438224	0.718664
N129	N	1.649880	-0.104891	1.051998
C130	C	0.978053	-0.739660	0.326077
C131	C	1.311386	-0.406327	0.659411
C132	C	1.644720	-0.072993	0.992744
C133	C	1.021403	-0.970549	0.369448
C134	C	1.354736	-0.637216	0.702782
C135	C	1.688070	-0.303883	1.036115
C136	C	1.021422	-1.036293	0.369466
C137	C	1.354755	-0.702960	0.702799
C138	C	1.688089	-0.369627	1.036133
C139	C	0.934914	-1.036394	0.282811
C140	C	1.268247	-0.703061	0.616144
C141	C	1.601581	-0.369728	0.949477
C142	C	0.934891	-0.970652	0.282799
C143	C	1.268225	-0.637319	0.616132
C144	C	1.601558	-0.303985	0.949465
C145	C	0.978139	-0.937733	0.326117
C146	C	1.311473	-0.604400	0.659450
C147	C	1.644806	-0.271067	0.992783
C148	C	1.154578	-0.303393	0.326092
C149	C	1.487911	0.029941	0.659426
C150	C	1.821244	0.363274	0.992759
C151	C	1.229810	-0.303401	0.326099
C152	C	1.563143	0.029932	0.659433
C153	C	1.896476	0.363266	0.992766
C154	C	0.978041	-0.303374	0.502618
C155	C	1.311374	0.029960	0.835951
C156	C	1.644708	0.363293	1.169285
C157	C	0.978043	-0.303374	0.577850
C158	C	1.311377	0.029959	0.911183
C159	C	1.644710	0.363293	1.244517
C160	C	0.978140	-0.139182	0.326125
C161	C	1.311473	0.194151	0.659458
C162	C	1.644807	0.527485	0.992791
C163	C	0.978185	-0.069214	0.326145
C164	C	1.311518	0.264119	0.659479
C165	C	1.644851	0.597453	0.992812
C166	C	1.021354	-0.263124	0.613211
C167	C	1.354688	0.070210	0.946545
C168	C	1.688021	0.403543	1.279878
C169	C	1.021348	-0.263122	0.683900
C170	C	1.354682	0.070212	1.017233
C171	C	1.688015	0.403545	1.350567
C172	C	0.978035	-0.303374	0.719226
C173	C	1.311368	0.029959	1.052559
C174	C	1.644701	0.363293	1.385892
C175	C	0.934719	-0.343626	0.683859
C176	C	1.268053	-0.010293	1.017193
C177	C	1.601386	0.323041	1.350526
C178	C	0.934722	-0.343624	0.613172
C179	C	1.268055	-0.010291	0.946505
C180	C	1.601389	0.323042	1.279839
C181	C	0.934706	-0.343633	0.968932
C182	C	1.268039	-0.010300	1.302266
C183	C	1.601373	0.323033	1.635599
C184	C	0.934708	-0.343633	1.039625
C185	C	1.268041	-0.010300	1.372958
C186	C	1.601374	0.323033	1.706291
C187	C	1.021332	-0.263131	1.039660
C188	C	1.354665	0.070202	1.372994
C189	C	1.687999	0.403536	1.706327
C190	C	1.021335	-0.263129	0.968973
C191	C	1.354668	0.070204	1.302307
C192	C	1.688002	0.403537	1.635640
C193	C	0.978017	-0.303379	0.933613
C194	C	1.311351	0.029955	1.266946
C195	C	1.644684	0.363288	1.600280
C196	C	0.978023	-0.303379	0.856965
C197	C	1.311357	0.029954	1.190298
C198	C	1.644690	0.363287	1.523631
C199	C	0.978032	-0.303377	0.795873
C200	C	1.311365	0.029957	1.129206
C201	C	1.644698	0.363290	1.462539
C202	C	0.978022	-0.303384	1.150219
C203	C	1.311356	0.029950	1.483553
C204	C	1.644689	0.363283	1.816886
C205	C	0.978016	-0.303379	1.074987
C206	C	1.311349	0.029954	1.408321
C207	C	1.644682	0.363287	1.741654
H208	H	0.236420	-0.230482	0.404781
H209	H	0.569753	0.102852	0.738114
H210	H	0.903086	0.436185	1.071448
C211	C	0.582097	-0.218965	0.417145
C212	C	0.915430	0.114368	0.750479
C213	C	1.248764	0.447702	1.083812
H214	H	0.613287	-0.195030	0.442975
H215	H	0.946620	0.138303	0.776309
H216	H	1.279953	0.471637	1.109642
H217	H	0.554529	-0.191500	0.391312
H218	H	0.887862	0.141833	0.724645
H219	H	1.221195	0.475166	1.057979
H220	H	0.554518	-0.243095	0.446592
H221	H	0.887851	0.090238	0.779926
H222	H	1.221185	0.423572	1.113259
H223	H	0.720333	-0.376281	0.247382
H224	H	1.053667	-0.042947	0.580715
H225	H	1.387000	0.290386	0.914049
C226	C	1.068952	-0.934336	0.417115
C227	C	1.402285	-0.601003	0.750449
C228	C	1.735618	-0.267670	1.083782
H229	H	1.094713	-0.963298	0.442934
H230	H	1.428046	-0.629965	0.776267
H231	H	1.761380	-0.296632	1.109600
H232	H	1.098459	-0.908672	0.391261
H233	H	1.431792	-0.575338	0.724594
H234	H	1.765126	-0.242005	1.057928
H235	H	1.043008	-0.908706	0.446575
H236	H	1.376342	-0.575373	0.779908
H237	H	1.709675	-0.242040	1.113241
H238	H	0.364564	-0.376315	0.247405
H239	H	0.697898	-0.042981	0.580739
H240	H	1.031231	0.290352	0.914072
C241	C	1.068811	-0.533500	0.417023
C242	C	1.402144	-0.200166	0.750356
C243	C	1.735478	0.133167	1.083689
H244	H	1.094581	-0.562463	0.442831
H245	H	1.427914	-0.229129	0.776164
H246	H	1.761247	0.104204	1.109497
H247	H	1.098309	-0.507841	0.391151
H248	H	1.431643	-0.174508	0.724484
H249	H	1.764976	0.158825	1.057817
H250	H	1.042886	-0.507863	0.446492
H251	H	1.376220	-0.174530	0.779826
H252	H	1.709553	0.158803	1.113159
C253	C	0.887302	-0.934551	0.235138
C254	C	1.220635	-0.601218	0.568471
C255	C	1.553968	-0.267884	0.901804
H256	H	0.893473	-0.890683	0.241340
H257	H	1.226807	-0.557350	0.574673
H258	H	1.560140	-0.224016	0.908006
H259	H	0.897244	-0.945334	0.189671
H260	H	1.230577	-0.612000	0.523004
H261	H	1.563911	-0.278667	0.856337
H262	H	0.841820	-0.945358	0.245010
H263	H	1.175153	-0.612025	0.578344
H264	H	1.508486	-0.278691	0.911677
H265	H	1.056492	-0.662172	0.404680
H266	H	1.389826	-0.328839	0.738013
H267	H	1.723159	0.004494	1.071347
C268	C	0.581987	-0.387778	0.235006
C269	C	0.915320	-0.054444	0.568339
C270	C	1.248653	0.278889	0.901672
H271	H	0.534829	-0.382031	0.241225
H272	H	0.868163	-0.048698	0.574558
H273	H	1.201496	0.284635	0.907891
H274	H	0.593563	-0.378500	0.189545
H275	H	0.926897	-0.045166	0.522879
H276	H	1.260230	0.288167	0.856212
H277	H	0.593558	-0.430088	0.244833
H278	H	0.926892	-0.096754	0.578166
H279	H	1.260225	0.236579	0.911499
H280	H	0.364664	-0.230471	0.404772
H281	H	0.697998	0.102863	0.738106
H282	H	1.031331	0.436196	1.071439
C283	C	1.068997	-0.218843	0.574359
C284	C	1.402330	0.114491	0.907693
C285	C	1.735664	0.447824	1.241026
H286	H	1.094785	-0.194866	0.605546
H287	H	1.428118	0.138467	0.938879
H288	H	1.761451	0.471800	1.272213
H289	H	1.098475	-0.242921	0.546779
H290	H	1.431809	0.090412	0.880113
H291	H	1.765142	0.423746	1.213446
H292	H	1.043116	-0.191410	0.546792
H293	H	1.376450	0.141924	0.880125
H294	H	1.709783	0.475257	1.213458
H295	H	1.056618	-0.230347	0.712688
H296	H	1.389951	0.102986	1.046021
H297	H	1.723285	0.436319	1.379355
H298	H	0.899548	-0.662364	0.247471
H299	H	1.232882	-0.329030	0.580804
H300	H	1.566215	0.004303	0.914138
H301	H	0.899447	-0.376394	0.584382
H302	H	1.232781	-0.043061	0.917715
H303	H	1.566114	0.290273	1.251048
H304	H	0.899491	-0.543092	0.247450
H305	H	1.232825	-0.209759	0.580783
H306	H	1.566158	0.123574	0.914116
C307	C	1.068977	-0.218852	0.930115
C308	C	1.402311	0.114481	1.263449
C309	C	1.735644	0.447814	1.596782
H310	H	1.062779	-0.224620	0.882952
H311	H	1.396113	0.108714	1.216285
H312	H	1.729446	0.442047	1.549619
H313	H	1.059098	-0.176557	0.941712
H314	H	1.392432	0.156777	1.275045
H315	H	1.725765	0.490110	1.608378
H316	H	1.114451	-0.228073	0.941703
H317	H	1.447785	0.105260	1.275037
H318	H	1.781118	0.438593	1.608370
C319	C	0.730532	-0.218952	0.417136
C320	C	1.063866	0.114381	0.750469
C321	C	1.397199	0.447715	1.083803
H322	H	0.699373	-0.195013	0.442960
H323	H	1.032706	0.138320	0.776293
H324	H	1.366039	0.471654	1.109627
H325	H	0.758105	-0.243070	0.446578
H326	H	1.091438	0.090263	0.779912
H327	H	1.424771	0.423596	1.113245
H328	H	0.758112	-0.191482	0.391292
H329	H	1.091445	0.141852	0.724625
H330	H	1.424778	0.475185	1.057958
C331	C	1.069019	-1.072390	0.417126
C332	C	1.402352	-0.739056	0.750460
C333	C	1.735685	-0.405723	1.083793
H334	H	1.094774	-1.043366	0.442917
H335	H	1.428107	-0.710033	0.776250
H336	H	1.761441	-0.376700	1.109583
H337	H	1.043118	-1.098043	0.446602
H338	H	1.376451	-0.764710	0.779935
H339	H	1.709785	-0.431377	1.113268
H340	H	1.098539	-1.098022	0.391259
H341	H	1.431873	-0.764689	0.724592
H342	H	1.765206	-0.431356	1.057925
C343	C	0.226220	-0.387809	0.235028
C344	C	0.559553	-0.054476	0.568361
C345	C	0.892887	0.278858	0.901695
H346	H	0.257376	-0.411739	0.209189
H347	H	0.590709	-0.078405	0.542523
H348	H	0.924043	0.254928	0.875856
H349	H	0.198640	-0.415278	0.260865
H350	H	0.531973	-0.081945	0.594199
H351	H	0.865306	0.251388	0.927532
H352	H	0.198649	-0.363680	0.205589
H353	H	0.531982	-0.030347	0.538922
H354	H	0.865315	0.302987	0.872256
C355	C	0.887351	-1.072604	0.235162
C356	C	1.220684	-0.739271	0.568496
C357	C	1.554018	-0.405938	0.901829
H358	H	0.893565	-1.116458	0.241372
H359	H	1.226898	-0.783124	0.574705
H360	H	1.560231	-0.449791	0.908038
H361	H	0.841863	-1.061860	0.245026
H362	H	1.175196	-0.728526	0.578360
H363	H	1.508530	-0.395193	0.911693
H364	H	0.897290	-1.061843	0.189689
H365	H	1.230623	-0.728509	0.523022
H366	H	1.563956	-0.395176	0.856355
H367	H	1.056601	-0.230356	1.068459
H368	H	1.389935	0.102978	1.401792
H369	H	1.723268	0.436311	1.735126
C370	C	0.887056	-0.387908	1.078482
C371	C	1.220389	-0.054575	1.411815
C372	C	1.553722	0.278759	1.745149
H373	H	0.861252	-0.411875	1.047299
H374	H	1.194586	-0.078541	1.380633
H375	H	1.527919	0.254792	1.713966
H376	H	0.912926	-0.415341	1.106053
H377	H	1.246259	-0.082008	1.439386
H378	H	1.579593	0.251326	1.772719
H379	H	0.857581	-0.363816	1.106059
H380	H	1.190915	-0.030483	1.439393
H381	H	1.524248	0.302850	1.772726
C382	C	0.887045	-0.387893	0.930045
C383	C	1.220378	-0.054560	1.263378
C384	C	1.553711	0.278774	1.596712
H385	H	0.861250	-0.411864	0.961210
H386	H	1.194583	-0.078531	1.294543
H387	H	1.527916	0.254802	1.627876
H388	H	0.857574	-0.363795	0.902483
H389	H	1.190908	-0.030461	1.235816
H390	H	1.524241	0.302872	1.569150
H391	H	0.912905	-0.415332	0.902456
H392	H	1.246239	-0.081999	1.235790
H393	H	1.579572	0.251335	1.569123
H394	H	0.899450	-0.376398	0.712627
H395	H	1.232783	-0.043064	1.045960
H396	H	1.566117	0.290269	1.379294
