data_functionalizedCrystal
_audit_creation_method	'MofGen! by Chris Wilmer'
_symmetry_space_group_name_H-M	'P1'
_symmetry_Int_Tables_number	1
_symmetry_cell_setting	triclinic
loop_
_symmetry_equiv_pos_as_xyz
  x,y,z
_cell_length_a	12.759401
_cell_length_b	19.120786
_cell_length_c	12.759393
_cell_angle_alpha	92.477171
_cell_angle_beta	90.018702
_cell_angle_gamma	92.464332
loop_
_atom_site_label
_atom_site_type_symbol
_atom_site_fract_x
_atom_site_fract_y
_atom_site_fract_z
Zn1	Zn	1.588333	-0.279607	0.576103
Zn2	Zn	2.088333	0.220393	1.076103
Zn3	Zn	1.580698	-0.397084	0.392909
Zn4	Zn	2.080698	0.102916	0.892909
Zn5	Zn	1.412633	-0.279642	0.400440
Zn6	Zn	1.912633	0.220358	0.900440
Zn7	Zn	1.405098	-0.397027	0.568553
Zn8	Zn	1.905098	0.102973	1.068553
O9	O	1.496691	-0.338340	0.484501
O10	O	1.996691	0.161660	0.984501
O11	O	1.734341	-0.295200	0.551810
O12	O	2.234341	0.204800	1.051810
O13	O	1.558362	-0.381543	0.246884
O14	O	2.058362	0.118457	0.746884
O15	O	1.442289	-0.181346	0.430053
O16	O	1.942289	0.318654	0.930053
O17	O	1.728731	-0.381509	0.417218
O18	O	2.228731	0.118491	0.917218
O19	O	1.571375	-0.181321	0.559112
O20	O	2.071375	0.318679	1.059112
O21	O	1.434886	-0.295259	0.252417
O22	O	1.934886	0.204741	0.752417
O23	O	1.264613	-0.295204	0.422732
O24	O	1.764613	0.204796	0.922732
O25	O	1.429446	-0.381413	0.716578
O26	O	1.929446	0.118587	1.216578
O27	O	1.259077	-0.381447	0.546244
O28	O	1.759077	0.118553	1.046244
O29	O	1.564069	-0.295145	0.722125
O30	O	2.064069	0.204855	1.222125
O31	O	1.551055	-0.495367	0.409897
O32	O	2.051055	0.004633	0.909897
O33	O	1.422043	-0.495326	0.538942
O34	O	1.922043	0.004674	1.038942
C35	C	1.223724	-0.338324	0.484487
C36	C	1.723724	0.161676	0.984487
C37	C	1.106947	-0.338333	0.484504
C38	C	1.606947	0.161667	0.984504
C39	C	0.945263	-0.293489	0.554691
C40	C	1.445263	0.206511	1.054691
C41	C	1.054988	-0.293476	0.554685
C42	C	1.554988	0.206524	1.054685
C43	C	1.049175	-0.383213	0.414332
C44	C	1.549175	0.116787	0.914332
C45	C	0.939452	-0.383230	0.414344
C46	C	1.439452	0.116770	0.914344
C47	C	1.484931	-0.520832	0.472806
C48	C	1.984931	-0.020832	0.972806
C49	C	1.479997	-0.598903	0.467838
C50	C	1.979997	-0.098903	0.967838
C51	C	1.544837	-0.635507	0.532753
C52	C	2.044837	-0.135507	1.032753
C53	C	1.540196	-0.708863	0.528086
C54	C	2.040196	-0.208863	1.028086
C55	C	1.470720	-0.745613	0.458499
C56	C	1.970720	-0.245613	0.958499
C57	C	1.405873	-0.709004	0.393582
C58	C	1.905873	-0.209004	0.893582
C59	C	1.410509	-0.635649	0.398254
C60	C	1.910509	-0.135649	0.898254
C61	C	1.453357	-0.967100	0.441033
C62	C	1.953357	-0.467100	0.941033
C63	C	1.448728	-1.040460	0.436363
C64	C	1.948728	-0.540460	0.936363
C65	C	1.583050	-1.040314	0.570870
C66	C	2.083050	-0.540314	1.070870
C67	C	1.587684	-0.966958	0.575531
C68	C	2.087684	-0.466958	1.075531
C69	C	1.522834	-0.930355	0.510618
C70	C	2.022834	-0.430355	1.010618
C71	C	1.465977	-0.820595	0.453726
C72	C	1.965977	-0.320595	0.953726
C73	C	1.527572	-0.855375	0.515397
C74	C	2.027572	-0.355375	1.015397
C75	C	1.770723	-0.338357	0.484516
C76	C	2.270723	0.161643	0.984516
C77	C	1.887499	-0.338364	0.484523
C78	C	2.387499	0.161636	0.984523
C79	C	1.496769	-0.338269	0.758539
C80	C	1.996769	0.161731	1.258539
C81	C	1.496802	-0.338239	0.875318
C82	C	1.996802	0.161761	1.375318
C83	C	1.508525	-0.155135	0.496265
C84	C	2.008525	0.344865	0.996265
C85	C	1.513567	-0.077064	0.501278
C86	C	2.013567	0.422936	1.001278
C87	C	1.496677	-0.338360	0.211532
C88	C	1.996677	0.161640	0.711532
C89	C	1.496860	-0.338192	0.094767
C90	C	1.996860	0.161808	0.594767
C91	C	1.432532	-0.293302	0.933061
C92	C	1.932532	0.206698	1.433061
C93	C	1.432558	-0.293281	1.042786
C94	C	1.932558	0.206719	1.542786
C95	C	1.561132	-0.383134	1.037016
C96	C	2.061132	0.116866	1.537016
C97	C	1.561100	-0.383158	0.927292
C98	C	2.061100	0.116842	1.427292
H99	H	0.892418	-0.419776	0.357204
H100	H	1.392418	0.080224	0.857204
Cl101	Cl	1.361383	-1.086660	0.348872
Cl102	Cl	1.861383	-0.586660	0.848872
Cl103	Cl	1.371820	-0.921095	0.359436
Cl104	Cl	1.871820	-0.421095	0.859436
H105	H	1.380222	-0.256689	1.089796
H106	H	1.880222	0.243311	1.589796
Cl107	Cl	1.318520	-0.755205	0.306111
Cl108	Cl	1.818520	-0.255205	0.806111
Cl109	Cl	1.114495	-0.439609	0.326109
Cl110	Cl	1.614495	0.060391	0.826109
H111	H	1.102015	-0.256935	0.611824
H112	H	1.602015	0.243065	1.111824
H113	H	1.357708	-0.605847	0.345395
H114	H	1.857708	-0.105847	0.845395
Cl115	Cl	1.632188	-0.589314	0.620233
Cl116	Cl	2.132188	-0.089314	1.120233
H117	H	1.593004	-0.738663	0.580939
H118	H	2.093004	-0.238663	1.080939
Cl119	Cl	1.641962	-0.439599	1.102363
Cl120	Cl	2.141962	0.060401	1.602363
H121	H	1.409412	-0.850525	0.397065
H122	H	1.909412	-0.350525	0.897065
H123	H	1.584136	-0.825451	0.572059
H124	H	2.084136	-0.325451	1.072059
Cl125	Cl	1.351696	-0.236835	0.867725
Cl126	Cl	1.851696	0.263165	1.367725
H127	H	0.902967	-0.256957	0.611835
H128	H	1.402967	0.243043	1.111835
Cl129	Cl	1.675028	-0.920763	0.663017
Cl130	Cl	2.175028	-0.420763	1.163017
Cl131	Cl	1.641898	-0.439658	0.854695
Cl132	Cl	2.141898	0.060342	1.354695
H133	H	1.635846	-1.070124	0.623720
H134	H	2.135846	-0.570124	1.123720
