data_functionalizedCrystal
_audit_creation_method	'MofGen! by Chris Wilmer'
_symmetry_space_group_name_H-M	'P1'
_symmetry_Int_Tables_number	1
_symmetry_cell_setting	triclinic
loop_
_symmetry_equiv_pos_as_xyz
  x,y,z
_cell_length_a	17.038272
_cell_length_b	14.971486
_cell_length_c	14.048226
_cell_angle_alpha	90.006640
_cell_angle_beta	90.000663
_cell_angle_gamma	87.362843
loop_
_atom_site_label
_atom_site_type_symbol
_atom_site_fract_x
_atom_site_fract_y
_atom_site_fract_z
O1	O	-1.037595	-0.194250	-0.079043
O2	O	-0.809961	-0.191166	-0.079071
O3	O	-0.929879	-0.062965	-0.079049
O4	O	-0.917677	-0.322451	-0.079064
O5	O	-0.929865	-0.062956	0.079272
O6	O	-0.809946	-0.191157	0.079251
O7	O	-1.037581	-0.194241	0.079279
Zn8	Zn	-0.923761	-0.192697	0.104402
Zn9	Zn	-0.923780	-0.192710	-0.104194
O10	O	-0.917662	-0.322442	0.079257
C11	C	-0.929326	-0.029595	0.000111
C12	C	-0.927691	0.069825	0.000110
C13	C	-0.780822	-0.188356	0.000087
C14	C	-0.694019	-0.179986	0.000076
C15	C	-1.066719	-0.197051	0.000119
C16	C	-1.153522	-0.205421	0.000124
C17	C	-0.643995	-0.256830	0.000072
C18	C	-0.562435	-0.248961	0.000086
C19	C	-0.530901	-0.164246	0.000096
C20	C	-0.580933	-0.087397	0.000103
C21	C	-0.662491	-0.095267	0.000096
C22	C	-0.285111	-0.136442	0.000124
C23	C	-0.203547	-0.128577	0.000127
C24	C	-0.185054	-0.290142	0.000112
C25	C	-0.266615	-0.298005	0.000100
C26	C	-0.316639	-0.221155	0.000111
C27	C	-0.447535	-0.156200	0.000107
C28	C	-0.400004	-0.229202	0.000107
C29	C	-0.918215	-0.355812	0.000095
C30	C	-0.919850	-0.455232	0.000090
N31	N	-0.923754	-0.192689	0.246762
C32	C	-0.998140	0.121776	0.000120
C33	C	-0.996598	0.215190	0.000110
C34	C	-0.924607	0.256653	0.000097
C35	C	-0.854153	0.204695	0.000085
C36	C	-0.855695	0.111282	0.000088
C37	C	-0.850944	0.399398	0.000081
C38	C	-0.849402	0.492817	0.000080
C39	C	-0.991847	0.503306	0.000103
C40	C	-0.993389	0.409893	0.000106
C41	C	-0.922935	0.357942	0.000096
N42	N	-0.923794	-0.192711	-0.246554
C43	C	-0.976870	-0.135948	0.296590
C44	C	-0.976876	-0.135948	0.396248
C45	C	-0.923768	-0.192694	0.446076
C46	C	-0.870645	-0.249438	0.396241
C47	C	-0.870637	-0.249433	0.296585
C48	C	-0.870668	-0.249446	0.603956
C49	C	-0.870677	-0.249452	0.703618
C50	C	-0.976907	-0.135961	0.703618
C51	C	-0.976898	-0.135956	0.603962
C52	C	-0.923777	-0.192701	0.554134
H53	H	-0.669662	-0.325813	0.000063
H54	H	-0.827400	-0.295638	0.436817
H55	H	-0.292283	-0.366988	0.000080
H56	H	-0.325831	-0.073865	0.000134
O57	O	-1.034176	-0.074750	0.449978
H58	H	-1.001238	-0.028734	0.495386
O59	O	-0.813382	-0.310635	0.757368
H60	H	-0.776430	-0.350078	0.705980
H61	H	-0.790780	0.526573	0.000086
O62	O	-0.774954	0.343362	0.000082
H63	H	-0.740504	0.358768	-0.064444
O64	O	-1.072586	0.271219	0.000135
H65	H	-1.107049	0.255789	-0.064379
H66	H	-1.056763	0.088024	0.000135
O67	O	-0.716453	-0.012388	0.000103
H68	H	-0.705241	0.027856	-0.064424
O69	O	-0.813360	-0.310645	0.550225
H70	H	-0.775317	-0.270063	0.504850
O71	O	-0.131103	-0.373027	0.000120
H72	H	-0.069092	-0.353327	0.000137
O73	O	-0.813351	-0.310636	0.242835
H74	H	-0.776428	-0.350103	0.294224
O75	O	-1.071034	0.365167	0.000108
H76	H	-1.119766	0.416983	0.000101
H77	H	-0.521707	-0.311535	0.000082
H78	H	-1.049214	0.545610	0.000108
O79	O	-0.776506	0.249415	0.000083
H80	H	-0.772401	0.291725	-0.064440
H81	H	-0.177876	-0.059589	0.000135
H82	H	-0.798329	0.068984	0.000080
O83	O	-1.034207	-0.074752	0.757345
H84	H	-1.001266	-0.028737	0.802752
O85	O	-1.034149	-0.074739	0.242847
H86	H	-1.071078	-0.035277	0.294242
O87	O	-0.546928	0.003977	0.000118
H88	H	-0.481811	-0.003458	0.000113
H89	H	-0.421851	-0.087226	0.000143
O90	O	-0.434007	-0.320573	0.000100
H91	H	-0.470717	-0.328023	-0.064436
O92	O	-1.034174	-0.074751	0.550212
H93	H	-1.071109	-0.035285	0.601600
