data_functionalizedCrystal
_audit_creation_method	'MofGen! by Chris Wilmer'
_symmetry_space_group_name_H-M	'P1'
_symmetry_Int_Tables_number	1
_symmetry_cell_setting	triclinic
loop_
_symmetry_equiv_pos_as_xyz
  x,y,z
_cell_length_a	18.215405
_cell_length_b	18.101398
_cell_length_c	18.215399
_cell_angle_alpha	90.027596
_cell_angle_beta	89.972459
_cell_angle_gamma	89.985297
loop_
_atom_site_label
_atom_site_type_symbol
_atom_site_fract_x
_atom_site_fract_y
_atom_site_fract_z
Zn1	Zn	-0.293149	-1.132169	-0.416270
Zn2	Zn	-0.416221	-1.132082	-0.293205
Zn3	Zn	-0.293155	-1.008327	-0.293201
Zn4	Zn	-0.416161	-1.008297	-0.416213
O5	O	-0.354672	-1.070219	-0.354722
O6	O	-0.309497	-1.235790	-0.399971
O7	O	-0.399923	-1.115641	-0.190220
O8	O	-0.190170	-1.024804	-0.309549
O9	O	-0.399917	-1.235726	-0.309555
O10	O	-0.190166	-1.115790	-0.399967
O11	O	-0.309507	-1.024719	-0.190217
O12	O	-0.309450	-0.904690	-0.309493
O13	O	-0.399816	-1.024753	-0.519205
O14	O	-0.399822	-0.904668	-0.399870
O15	O	-0.309440	-1.115761	-0.519247
O16	O	-0.519197	-1.115612	-0.309500
O17	O	-0.519154	-1.024668	-0.399874
C18	C	-0.354631	-0.877808	-0.354675
C19	C	-0.354631	-0.795494	-0.354673
C20	C	-0.354660	-0.496403	-0.354721
C21	C	-0.297518	-0.527717	-0.298138
C22	C	-0.297676	-0.613335	-0.297900
C23	C	-0.354645	-0.644785	-0.354697
C24	C	-0.432166	-0.613679	-0.333505
C25	C	-0.431844	-0.528033	-0.333108
C26	C	-0.334956	-0.528016	-0.432631
C27	C	-0.333235	-0.613666	-0.432210
C28	C	-0.354641	-0.728645	-0.354685
C29	C	-0.354669	-0.412543	-0.354732
C30	C	-0.545878	-1.070148	-0.354697
C31	C	-0.627677	-1.070185	-0.354711
C32	C	-0.815808	-1.117584	-0.401855
C33	C	-0.892666	-1.117611	-0.401869
C34	C	-0.892784	-1.022944	-0.307635
C35	C	-0.815927	-1.022914	-0.307625
C36	C	-0.777440	-1.070239	-0.354735
C37	C	-0.931156	-1.070295	-0.354758
C38	C	-1.014490	-1.070324	-0.354773
C39	C	-0.694101	-1.070209	-0.354721
C40	C	-0.162719	-1.070310	-0.354764
C41	C	-0.080920	-1.070349	-0.354782
C42	C	-0.354621	-1.070264	-0.546675
C43	C	-0.354599	-1.070283	-0.628474
C44	C	-0.354699	-0.263380	-0.354759
C45	C	-0.354674	-0.345695	-0.354746
C46	C	-0.307496	-1.117688	-0.816691
C47	C	-0.307475	-1.117697	-0.893550
C48	C	-0.401589	-1.022930	-0.893495
C49	C	-0.401606	-1.022918	-0.816638
C50	C	-0.354561	-1.070301	-0.778238
C51	C	-0.354522	-1.070322	-0.931954
C52	C	-0.354499	-1.070331	-1.015288
C53	C	-0.354582	-1.070291	-0.694899
C54	C	-0.354669	-1.070216	-0.163516
C55	C	-0.354483	-1.070341	-0.081718
H56	H	-0.276188	-0.634002	-0.448189
Cl57	Cl	-0.249194	-0.494702	-0.462374
H58	H	-0.439893	-0.984354	-0.924770
H59	H	-0.376577	-0.507766	-0.474791
H60	H	-0.371824	-0.635078	-0.476630
Cl61	Cl	-0.767427	-1.177074	-0.461081
H62	H	-0.784686	-0.984356	-0.269254
H63	H	-0.240190	-0.634368	-0.311183
H64	H	-0.269149	-1.156283	-0.924856
H65	H	-0.439931	-0.984325	-0.785328
H66	H	-0.923901	-1.156163	-0.440241
H67	H	-0.310396	-0.506169	-0.240743
Cl68	Cl	-0.499666	-0.645119	-0.395150
Cl69	Cl	-0.458419	-0.646739	-0.246521
H70	H	-0.924129	-0.984416	-0.269279
H71	H	-0.239854	-0.507139	-0.311273
Cl72	Cl	-0.317787	-0.644921	-0.208770
Cl73	Cl	-0.248351	-1.177252	-0.768420
H74	H	-0.475861	-0.507318	-0.372524
Cl75	Cl	-0.457640	-0.497136	-0.245172
