data_functionalizedCrystal
_audit_creation_method	'MofGen! by Chris Wilmer'
_symmetry_space_group_name_H-M	'P1'
_symmetry_Int_Tables_number	1
_symmetry_cell_setting	triclinic
loop_
_symmetry_equiv_pos_as_xyz
  x,y,z
_cell_length_a	10.489741
_cell_length_b	10.489741
_cell_length_c	13.930277
_cell_angle_alpha	89.995758
_cell_angle_beta	89.995477
_cell_angle_gamma	84.539174
loop_
_atom_site_label
_atom_site_type_symbol
_atom_site_fract_x
_atom_site_fract_y
_atom_site_fract_z
O1	O	1.694059	0.179967	-0.079771
O2	O	2.194059	0.679967	0.420229
O3	O	1.322863	0.196860	-0.079786
O4	O	1.822863	0.696860	0.420214
O5	O	1.516907	0.002816	-0.079772
O6	O	2.016907	0.502816	0.420228
O7	O	1.500015	0.374011	-0.079784
O8	O	2.000015	0.874011	0.420216
O9	O	1.516880	0.002811	0.079890
O10	O	2.016880	0.502811	0.579890
O11	O	1.322836	0.196855	0.079876
O12	O	1.822836	0.696855	0.579876
O13	O	1.694032	0.179963	0.079891
O14	O	2.194032	0.679963	0.579891
Zn15	Zn	1.508429	0.188408	0.105233
Zn16	Zn	2.008429	0.688408	0.605233
Zn17	Zn	1.508465	0.188414	-0.105128
Zn18	Zn	2.008465	0.688414	0.394872
O19	O	1.499987	0.374007	0.079877
O20	O	1.999987	0.874007	0.579877
C21	C	1.275318	0.195582	0.000043
C22	C	1.775318	0.695582	0.500043
C23	C	1.133688	0.191765	0.000038
C24	C	1.633688	0.691765	0.500038
C25	C	1.065548	0.068300	0.000051
C26	C	1.565548	0.568300	0.500051
C27	C	0.973435	0.126626	-0.078671
C28	C	1.473435	0.626626	0.421329
C29	C	0.973442	0.126651	0.078743
C30	C	1.473442	0.626651	0.578743
C31	C	1.043440	0.250141	-0.078749
C32	C	1.543440	0.750141	0.421251
C33	C	1.043457	0.250149	0.078736
C34	C	1.543457	0.750149	0.578736
C35	C	0.951371	0.308564	-0.000005
C36	C	1.451371	0.808564	0.499995
C37	C	1.515618	-0.044718	0.000058
C38	C	2.015618	0.455282	0.500058
C39	C	1.511801	-0.186348	0.000056
C40	C	2.011801	0.313652	0.500056
C41	C	1.388336	-0.254488	0.000044
C42	C	1.888336	0.245512	0.500044
C43	C	1.446646	-0.346613	0.078768
C44	C	1.946646	0.153387	0.578768
C45	C	1.446702	-0.346583	-0.078646
C46	C	1.946702	0.153417	0.421354
C47	C	1.570162	-0.276607	0.078845
C48	C	2.070162	0.223393	0.578845
C49	C	1.570201	-0.276568	-0.078640
C50	C	2.070201	0.223432	0.421360
C51	C	1.628600	-0.368665	0.000103
C52	C	2.128600	0.131335	0.500103
C53	C	1.741577	0.181241	0.000060
C54	C	2.241577	0.681241	0.500060
C55	C	1.883206	0.185058	0.000059
C56	C	2.383206	0.685058	0.500059
C57	C	1.501277	0.421541	0.000045
C58	C	2.001277	0.921541	0.500045
C59	C	1.505094	0.563170	0.000041
C60	C	2.005094	1.063170	0.500041
N61	N	1.508414	0.188404	0.248799
N62	N	2.008414	0.688404	0.748799
N63	N	1.508490	0.188409	-0.248694
N64	N	2.008490	0.688409	0.251306
C65	C	1.422539	0.274303	0.701063
C66	C	1.922539	0.774303	1.201063
C67	C	1.594427	0.102516	0.701044
C68	C	2.094427	0.602516	1.201044
C69	C	1.594412	0.102512	0.600548
C70	C	2.094412	0.602512	1.100548
C71	C	1.508460	0.188406	0.550305
C72	C	2.008460	0.688406	1.050305
C73	C	1.422524	0.274304	0.600558
C74	C	1.922524	0.774304	1.100558
C75	C	1.680355	0.016624	0.550288
C76	C	2.180355	0.516624	1.050288
C77	C	1.680344	0.016617	0.449786
C78	C	2.180344	0.516617	0.949786
C79	C	1.594386	0.102506	0.399541
C80	C	2.094386	0.602506	0.899541
C81	C	1.508445	0.188407	0.449800
C82	C	2.008445	0.688407	0.949800
C83	C	1.422493	0.274301	0.399557
C84	C	1.922493	0.774301	0.899557
C85	C	1.336545	0.360196	0.449814
C86	C	1.836545	0.860196	0.949814
C87	C	1.336565	0.360193	0.550313
C88	C	1.836565	0.860193	1.050313
C89	C	1.594366	0.102510	0.299042
C90	C	2.094366	0.602510	0.799042
C91	C	1.422478	0.274302	0.299052
C92	C	1.922478	0.774302	0.799052
H93	H	1.286824	-0.204837	0.000119
H94	H	1.786824	0.295163	0.500119
H95	H	1.352481	0.344243	0.258150
H96	H	1.852481	0.844243	0.758150
H97	H	1.750341	-0.053303	0.591199
H98	H	2.250341	0.446697	1.091199
H99	H	1.622346	-0.245777	0.145475
H100	H	2.122346	0.254223	0.645475
H101	H	1.266568	0.430138	0.408894
H102	H	1.766568	0.930138	0.908894
H103	H	1.664412	0.032589	0.741955
H104	H	2.164412	0.532589	1.241955
H105	H	1.266590	0.430127	0.591238
H106	H	1.766590	0.930127	1.091238
H107	H	1.394394	-0.377626	0.145319
H108	H	1.894394	0.122374	0.645319
H109	H	1.394457	-0.377545	-0.145207
H110	H	1.894457	0.122455	0.354793
H111	H	1.074492	0.302345	0.145290
H112	H	1.574492	0.802345	0.645290
H113	H	0.942453	0.074386	0.145296
H114	H	1.442453	0.574386	0.645296
H115	H	1.730204	-0.418089	0.000151
H116	H	2.230204	0.081911	0.500151
H117	H	1.622408	-0.245521	-0.145195
H118	H	2.122408	0.254479	0.354805
H119	H	1.352558	0.344235	0.741984
H120	H	1.852558	0.844235	1.241984
H121	H	0.942432	0.074387	-0.145222
H122	H	1.442432	0.574387	0.354778
H123	H	1.750326	-0.053324	0.408873
H124	H	2.250326	0.446676	0.908873
H125	H	1.664349	0.032580	0.258128
H126	H	2.164349	0.532580	0.758128
H127	H	1.074280	0.302343	-0.145377
H128	H	1.574280	0.802343	0.354623
H129	H	0.901947	0.410168	-0.000051
H130	H	1.401947	0.910168	0.499949
H131	H	1.115238	-0.033196	-0.000044
H132	H	1.615238	0.466804	0.499956
