data_functionalizedCrystal
_audit_creation_method	'MofGen! by Chris Wilmer'
_symmetry_space_group_name_H-M	'P1'
_symmetry_Int_Tables_number	1
_symmetry_cell_setting	triclinic
loop_
_symmetry_equiv_pos_as_xyz
  x,y,z
_cell_length_a	10.967819
_cell_length_b	14.044190
_cell_length_c	10.065875
_cell_angle_alpha	99.589132
_cell_angle_beta	69.228723
_cell_angle_gamma	88.855087
loop_
_atom_site_label
_atom_site_type_symbol
_atom_site_fract_x
_atom_site_fract_y
_atom_site_fract_z
O1	O	1.747813	0.069172	-0.524577
O2	O	1.372941	0.092639	-0.436415
O3	O	1.554741	-0.056950	-0.479144
O4	O	1.566013	0.218761	-0.481848
O5	O	1.520087	-0.028314	-0.244010
O6	O	1.338287	0.121275	-0.201281
O7	O	1.713159	0.097808	-0.289443
Zn8	Zn	1.520221	0.114088	-0.208030
Zn9	Zn	1.565879	0.076359	-0.517828
O10	O	1.531359	0.247397	-0.246715
C11	C	1.307348	0.107412	-0.307497
C12	C	1.163531	0.108758	-0.273673
C13	C	0.968733	0.095920	-0.345468
C14	C	1.117374	0.094524	-0.380418
C15	C	1.532486	-0.077836	-0.360414
C16	C	1.517787	-0.182732	-0.356945
C17	C	1.595163	-0.434754	-0.375196
C18	C	1.490945	-0.374795	-0.350676
C19	C	1.505883	-0.267921	-0.354165
C20	C	1.580226	-0.541638	-0.371707
C21	C	1.778752	0.083034	-0.418365
C22	C	1.922571	0.081688	-0.452198
C23	C	1.553614	0.268282	-0.365447
C24	C	1.568315	0.373177	-0.368926
N25	N	1.489070	0.139836	0.003397
N26	N	1.597040	0.050603	-0.729258
C27	C	1.555032	0.085312	0.055673
C28	C	1.531068	0.105135	0.218472
H29	H	1.187893	0.081311	-0.497676
H30	H	1.671253	-0.010760	0.194979
H31	H	1.093013	0.121982	-0.156414
H32	H	1.414851	0.201189	0.079167
N33	N	1.011046	0.065111	-0.599283
N34	N	1.131668	0.064000	-0.627466
H35	H	1.194155	0.052291	-0.731349
N36	N	1.364946	-0.411096	-0.321058
N37	N	1.352828	-0.499123	-0.318225
H38	H	1.263844	-0.524766	-0.297303
H39	H	1.456844	0.166492	0.294238
H40	H	0.898210	0.109143	-0.228218
H41	H	1.629241	0.023952	-0.020093
H42	H	1.695597	-0.405824	-0.398802
