data_functionalizedCrystal
_audit_creation_method	'MofGen! by Chris Wilmer'
_symmetry_space_group_name_H-M	'P1'
_symmetry_Int_Tables_number	1
_symmetry_cell_setting	triclinic
loop_
_symmetry_equiv_pos_as_xyz
  x,y,z
_cell_length_a	14.044220
_cell_length_b	14.044190
_cell_length_c	13.101039
_cell_angle_alpha	86.336293
_cell_angle_beta	93.659868
_cell_angle_gamma	93.190328
loop_
_atom_site_label
_atom_site_type_symbol
_atom_site_fract_x
_atom_site_fract_y
_atom_site_fract_z
O1	O	1.281975	0.225348	0.085126
O2	O	1.615308	0.558681	0.418459
O3	O	1.948642	0.892015	0.751792
O4	O	1.005305	0.217041	0.085151
O5	O	1.338638	0.550374	0.418484
O6	O	1.671972	0.883708	0.751817
O7	O	1.139483	0.082859	0.085118
O8	O	1.472816	0.416193	0.418452
O9	O	1.806149	0.749526	0.751785
O10	O	1.147797	0.359530	0.085158
O11	O	1.481131	0.692863	0.418491
O12	O	1.814464	1.026196	0.751825
O13	O	1.129857	0.092504	-0.085309
O14	O	1.463190	0.425838	0.248024
O15	O	1.796524	0.759171	0.581357
O16	O	0.995679	0.226686	-0.085277
O17	O	1.329013	0.560019	0.248056
O18	O	1.662346	0.893352	0.581390
O19	O	1.272349	0.234993	-0.085302
O20	O	1.605683	0.568326	0.248031
O21	O	1.939016	0.901660	0.581365
Zn22	Zn	1.132486	0.232371	-0.112348
Zn23	Zn	1.465819	0.565704	0.220985
Zn24	Zn	1.799153	0.899037	0.554318
Zn25	Zn	1.145168	0.219663	0.112197
Zn26	Zn	1.478502	0.552997	0.445530
Zn27	Zn	1.811835	0.886330	0.778864
O28	O	1.138172	0.369174	-0.085270
O29	O	1.471505	0.702508	0.248064
O30	O	1.804838	1.035841	0.581397
C31	C	0.964870	0.218228	-0.000060
C32	C	1.298204	0.551561	0.333273
C33	C	1.631537	0.884894	0.666607
C34	C	0.858728	0.207382	-0.000051
C35	C	1.192061	0.540716	0.333282
C36	C	1.525394	0.874049	0.666615
C37	C	0.664388	0.187557	-0.000075
C38	C	0.997722	0.520891	0.333259
C39	C	1.331055	0.854224	0.666592
C40	C	0.613261	0.264472	-0.000068
C41	C	0.946594	0.597805	0.333265
C42	C	1.279927	0.931138	0.666599
C43	C	0.505123	0.253441	-0.000081
C44	C	0.838457	0.586774	0.333253
C45	C	1.171790	0.920107	0.666586
C46	C	0.772535	0.198587	-0.000062
C47	C	1.105869	0.531920	0.333272
C48	C	1.439202	0.865254	0.666605
C49	C	1.131033	0.052060	-0.000098
C50	C	1.464366	0.385393	0.333235
C51	C	1.797700	0.718727	0.666569
C52	C	1.120185	-0.054083	-0.000106
C53	C	1.453519	0.279251	0.333227
C54	C	1.786852	0.612584	0.666561
C55	C	1.312784	0.233806	-0.000089
C56	C	1.646118	0.567140	0.333244
C57	C	1.979451	0.900473	0.666578
C58	C	1.418927	0.244651	-0.000091
C59	C	1.752260	0.577984	0.333242
C60	C	2.085594	0.911318	0.666576
C61	C	1.177288	-0.299543	-0.000071
C62	C	1.510621	0.033790	0.333262
C63	C	1.843954	0.367124	0.666596
C64	C	1.100371	-0.248418	-0.000071
C65	C	1.433705	0.084916	0.333262
C66	C	1.767038	0.418249	0.666595
C67	C	1.111398	-0.140280	-0.000091
C68	C	1.444732	0.193054	0.333243
C69	C	1.778065	0.526387	0.666576
C70	C	1.166262	-0.407691	-0.000052
C71	C	1.499595	-0.074358	0.333282
C72	C	1.832929	0.258976	0.666615
C73	C	1.146621	0.399974	-0.000051
C74	C	1.479955	0.733307	0.333282
C75	C	1.813288	1.066640	0.666616
C76	C	1.157470	0.506116	-0.000036
C77	C	1.490803	0.839449	0.333297
C78	C	1.824136	1.172783	0.666630
N79	N	1.123838	0.241043	-0.265595
N80	N	1.457171	0.574376	0.067738
N81	N	1.790504	0.907710	0.401072
C82	C	1.112072	0.252851	-0.474635
C83	C	1.445405	0.586184	-0.141301
C84	C	1.778739	0.919518	0.192032
C85	C	1.165586	0.199179	-0.525523
C86	C	1.498920	0.532512	-0.192190
C87	C	1.832253	0.865845	0.141143
C88	C	1.159040	0.205749	-0.641840
C89	C	1.492373	0.539082	-0.308507
C90	C	1.825706	0.872416	0.024827
C91	C	1.118618	0.246282	-0.358307
C92	C	1.451951	0.579615	-0.024974
C93	C	1.785284	0.912949	0.308359
N94	N	1.153824	0.210984	0.265444
N95	N	1.487157	0.544317	0.598777
N96	N	1.820490	0.877651	0.932110
H97	H	0.626948	0.113431	-0.000091
H98	H	0.960282	0.446764	0.333243
H99	H	1.293615	0.780097	0.666576
H100	H	1.251413	-0.262101	-0.000088
H101	H	1.584747	0.071232	0.333245
H102	H	1.918080	0.404566	0.666578
Br103	Br	0.675661	0.388033	-0.000047
Br104	Br	1.008994	0.721367	0.333287
Br105	Br	1.342327	1.054700	0.666620
Br106	Br	0.976812	-0.310821	-0.000056
Br107	Br	1.310145	0.022512	0.333278
Br108	Br	1.643478	0.355845	0.666611
Br109	Br	1.250580	0.114805	-0.452544
Br110	Br	1.583914	0.448138	-0.119211
Br111	Br	1.917247	0.781471	0.214122
H112	H	1.061345	0.303733	-0.518419
H113	H	1.394678	0.637066	-0.185086
H114	H	1.728011	0.970400	0.148247
