data_functionalizedCrystal
_audit_creation_method	'MofGen! by Chris Wilmer'
_symmetry_space_group_name_H-M	'P1'
_symmetry_Int_Tables_number	1
_symmetry_cell_setting	triclinic
loop_
_symmetry_equiv_pos_as_xyz
  x,y,z
_cell_length_a	18.215405
_cell_length_b	11.169417
_cell_length_c	11.169409
_cell_angle_alpha	90.022423
_cell_angle_beta	89.960260
_cell_angle_gamma	89.976177
loop_
_atom_site_label
_atom_site_type_symbol
_atom_site_fract_x
_atom_site_fract_y
_atom_site_fract_z
Zn1	Zn	-0.292946	-1.834850	-0.678540
Zn2	Zn	0.207054	-1.334850	-0.178540
Zn3	Zn	-0.416037	-1.834686	-0.477831
Zn4	Zn	0.083963	-1.334686	0.022169
Zn5	Zn	-0.292987	-1.634133	-0.477868
Zn6	Zn	0.207013	-1.134133	0.022132
Zn7	Zn	-0.415973	-1.634092	-0.678469
Zn8	Zn	0.084027	-1.134092	-0.178469
O9	O	-0.354486	-1.734440	-0.578177
O10	O	0.145514	-1.234440	-0.078177
O11	O	-0.309284	-2.002778	-0.651930
O12	O	0.190716	-1.502778	-0.151930
O13	O	-0.399758	-1.808030	-0.309886
O14	O	0.100242	-1.308030	0.190114
O15	O	-0.189997	-1.660844	-0.504533
O16	O	0.310003	-1.160844	-0.004533
O17	O	-0.399718	-2.002657	-0.504469
O18	O	0.100282	-1.502657	-0.004469
O19	O	-0.189967	-1.808310	-0.651966
O20	O	0.310033	-1.308310	-0.151966
O21	O	-0.309353	-1.660685	-0.309913
O22	O	0.190647	-1.160685	0.190087
O23	O	-0.309291	-1.466178	-0.504464
O24	O	0.190709	-0.966178	-0.004464
O25	O	-0.399609	-1.660775	-0.846428
O26	O	0.100391	-1.160775	-0.346428
O27	O	-0.399649	-1.466148	-0.651845
O28	O	0.100351	-0.966148	-0.151845
O29	O	-0.309222	-1.808270	-0.846480
O30	O	0.190778	-1.308270	-0.346480
O31	O	-0.519013	-1.807991	-0.504401
O32	O	-0.019013	-1.307991	-0.004401
O33	O	-0.518966	-1.660616	-0.651809
O34	O	-0.018966	-1.160616	-0.151809
C35	C	-0.354468	-1.422615	-0.578151
C36	C	0.145532	-0.922615	-0.078151
C37	C	-0.354478	-1.289215	-0.578169
C38	C	0.145522	-0.789215	-0.078169
C39	C	-0.545692	-1.734313	-0.578119
C40	C	-0.045692	-1.234313	-0.078119
C41	C	-0.627491	-1.734369	-0.578135
C42	C	-0.127491	-1.234369	-0.078135
C43	C	-0.815685	-1.811287	-0.501520
C44	C	-0.315685	-1.311287	-0.001520
C45	C	-0.892543	-1.811341	-0.501550
C46	C	-0.392543	-1.311341	-0.001550
C47	C	-0.892534	-1.657746	-0.654920
C48	C	-0.392534	-1.157746	-0.154920
C49	C	-0.815677	-1.657700	-0.654896
C50	C	-0.315677	-1.157700	-0.154896
C51	C	-0.777254	-1.734468	-0.578189
C52	C	-0.277254	-1.234468	-0.078189
C53	C	-0.930970	-1.734569	-0.578242
C54	C	-0.430970	-1.234569	-0.078242
C55	C	-1.014304	-1.734626	-0.578274
C56	C	-0.514304	-1.234626	-0.078274
C57	C	-0.693915	-1.734413	-0.578159
C58	C	-0.193915	-1.234413	-0.078159
C59	C	-0.162533	-1.734600	-0.578261
C60	C	0.337467	-1.234600	-0.078261
C61	C	-0.080734	-1.734668	-0.578297
C62	C	0.419266	-1.234668	-0.078297
C63	C	-0.354404	-1.734536	-0.891220
C64	C	0.145596	-1.234536	-0.391220
C65	C	-0.354369	-1.734577	-1.024620
C66	C	0.145631	-1.234577	-0.524620
C67	C	-0.354498	-1.047482	-0.578194
C68	C	0.145502	-0.547482	-0.078194
C69	C	-0.354487	-1.180882	-0.578177
C70	C	0.145513	-0.680882	-0.078177
C71	C	-0.354514	-1.734413	-0.266352
C72	C	0.145486	-1.234413	0.233648
C73	C	-0.354341	-1.734605	-0.132953
C74	C	0.145659	-1.234605	0.367047
H75	H	-0.784403	-1.873799	-0.439063
H76	H	-0.284403	-1.373799	0.060937
H77	H	-0.784385	-1.595144	-0.717335
H78	H	-0.284385	-1.095144	-0.217335
O79	O	-0.933998	-1.894205	-0.418869
O80	O	-0.433998	-1.394205	0.081131
H81	H	-0.969084	-1.840551	-0.357777
H82	H	-0.469084	-1.340551	0.142223
H83	H	-0.923828	-1.595242	-0.717369
H84	H	-0.423828	-1.095242	-0.217369
