data_functionalizedCrystal
_audit_creation_method	'MofGen! by Chris Wilmer'
_symmetry_space_group_name_H-M	'P1'
_symmetry_Int_Tables_number	1
_symmetry_cell_setting	triclinic
loop_
_symmetry_equiv_pos_as_xyz
  x,y,z
_cell_length_a	10.540510
_cell_length_b	10.489716
_cell_length_c	9.016244
_cell_angle_alpha	90.001835
_cell_angle_beta	89.992396
_cell_angle_gamma	84.521223
loop_
_atom_site_label
_atom_site_type_symbol
_atom_site_fract_x
_atom_site_fract_y
_atom_site_fract_z
O1	O	1.685921	0.179581	-0.123335
O2	O	1.316503	0.196558	-0.123335
O3	O	1.509634	0.002467	-0.123340
O4	O	1.492790	0.373671	-0.123329
O5	O	1.509606	0.002472	0.123341
O6	O	1.316475	0.196562	0.123346
O7	O	1.685892	0.179585	0.123346
Cu8	Cu	1.501181	0.188074	0.145870
Cu9	Cu	1.501215	0.188069	-0.145859
O10	O	1.492761	0.373675	0.123351
C11	C	1.269186	0.195295	0.000006
C12	C	1.128236	0.191510	0.000005
C13	C	0.910784	0.326343	-0.000558
C14	C	1.057380	0.330381	0.000007
C15	C	1.083457	0.120423	0.140866
C16	C	0.936696	0.117369	0.140975
C17	C	0.936922	0.114472	-0.139547
C18	C	1.083264	0.121059	-0.141399
C19	C	1.508354	-0.045062	-0.000004
C20	C	1.504568	-0.186693	-0.000018
C21	C	1.623002	-0.284393	-0.000004
C22	C	1.560433	-0.361742	-0.121627
C23	C	1.560377	-0.361702	0.121581
C24	C	1.442048	-0.262176	-0.121741
C25	C	1.442010	-0.262130	0.121576
C26	C	1.379354	-0.339429	-0.000076
C27	C	1.733210	0.180848	0.000002
C28	C	1.874160	0.184633	-0.000007
C29	C	1.494041	0.421205	0.000012
C30	C	1.497828	0.562835	0.000016
N31	N	1.501167	0.188077	0.351056
N32	N	1.501239	0.188056	-0.351045
C33	C	1.397537	0.291554	0.586092
C34	C	1.397767	0.291941	0.414200
C35	C	1.633892	0.218342	0.413395
C36	C	1.633327	0.219075	0.585340
C37	C	1.473388	0.053995	0.585596
C38	C	1.470343	0.054864	0.413642
H39	H	0.896469	0.165954	0.246274
N40	N	0.907814	-0.012919	0.148994
N41	N	0.845291	-0.058914	0.047676
H42	H	0.824897	-0.150929	0.053345
N43	N	1.623173	-0.416310	-0.250621
N44	N	1.738343	-0.403228	-0.272299
H45	H	1.782661	-0.441761	-0.363398
N46	N	1.665164	0.339647	0.359380
N47	N	1.763712	0.346489	0.283811
H48	H	1.785794	0.432164	0.245667
H49	H	1.392092	-0.218862	-0.224677
H50	H	1.276259	-0.363836	-0.000141
N51	N	1.379339	-0.207531	0.250585
N52	N	1.419741	-0.239670	0.376785
H53	H	1.375488	-0.201110	0.467910
N54	N	1.623122	-0.416243	0.250563
N55	N	1.738291	-0.403151	0.272197
H56	H	1.782614	-0.441669	0.363284
H57	H	1.378649	0.025187	0.629042
N58	N	1.273446	0.269062	0.638061
N59	N	1.250459	0.269912	0.774086
H60	H	1.162819	0.254023	0.810805
N61	N	1.142939	-0.007812	0.147469
N62	N	1.211419	-0.043088	0.255872
H63	H	1.253438	-0.133651	0.260536
H64	H	1.114301	0.169795	0.245699
N65	N	1.273879	0.269720	0.361345
N66	N	1.186646	0.253800	0.451448
H67	H	1.099080	0.238344	0.414128
N68	N	1.752232	-0.253459	-0.000120
N69	N	1.825421	-0.291217	0.103245
H70	H	1.916689	-0.269370	0.103161
N71	N	1.663861	0.341784	0.635617
N72	N	1.594540	0.440424	0.600158
H73	H	1.616101	0.527093	0.635656
N74	N	1.419710	0.415615	0.640291
N75	N	1.511554	0.428138	0.725014
H76	H	1.527219	0.515755	0.763295
N77	N	0.883684	0.169536	-0.273479
N78	N	0.798827	0.261168	-0.267709
H79	H	0.761223	0.300069	-0.362291
N80	N	1.420156	0.416738	0.362596
N81	N	1.435673	0.503817	0.453571
H82	H	1.451465	0.591967	0.417128
N83	N	1.119208	0.185923	-0.272131
N84	N	1.191324	0.128201	-0.365329
H85	H	1.216720	0.174013	-0.457655
H86	H	1.712967	0.146728	0.626921
N87	N	1.733057	0.126348	0.362079
N88	N	1.706952	0.037243	0.278788
H89	H	1.776984	-0.027731	0.242543
N90	N	1.347850	0.026098	0.362531
N91	N	1.283425	0.103351	0.280313
H92	H	1.196913	0.083039	0.244206
N93	N	1.558838	-0.046379	0.359730
N94	N	1.675098	-0.045665	0.386634
H95	H	1.737612	-0.117163	0.348559
N96	N	1.568243	-0.042634	0.636601
N97	N	1.656019	-0.013072	0.719252
H98	H	1.723014	-0.081306	0.755283
H99	H	0.914765	0.010208	-0.140502
N100	N	1.094200	0.400152	-0.126670
N101	N	1.011553	0.446200	-0.216115
H102	H	1.037549	0.495483	-0.305584
H103	H	0.867267	0.380136	0.099892
N104	N	1.144777	-0.006144	-0.152091
N105	N	1.120187	-0.076325	-0.258290
H106	H	1.163627	-0.166170	-0.265831
H107	H	0.868844	0.380444	-0.101578
H108	H	1.085774	0.386335	0.101155
