data_functionalizedCrystal
_audit_creation_method	'MofGen! by Chris Wilmer'
_symmetry_space_group_name_H-M	'P1'
_symmetry_Int_Tables_number	1
_symmetry_cell_setting	triclinic
loop_
_symmetry_equiv_pos_as_xyz
  x,y,z
_cell_length_a	27.732048
_cell_length_b	15.944545
_cell_length_c	15.021413
_cell_angle_alpha	89.990408
_cell_angle_beta	90.009246
_cell_angle_gamma	96.930587
loop_
_atom_site_label
_atom_site_type_symbol
_atom_site_fract_x
_atom_site_fract_y
_atom_site_fract_z
O1	O	-0.062322	1.113699	0.073959
O2	O	-0.070012	0.869048	0.073971
O3	O	0.004197	0.998972	0.073976
O4	O	-0.136531	0.983776	0.073954
O5	O	0.004192	0.998987	-0.074088
O6	O	-0.070016	0.869063	-0.074093
O7	O	-0.062327	1.113714	-0.074105
Zn8	Zn	-0.066172	0.991391	-0.097608
Zn9	Zn	-0.066166	0.991371	0.097473
O10	O	-0.136536	0.983791	-0.074111
C11	C	-0.069695	0.837766	-0.000059
C12	C	-0.068740	0.744532	-0.000053
C13	C	-0.019887	0.474538	-0.000055
C14	C	-0.043442	0.524819	-0.073064
C15	C	-0.065333	0.408933	-0.000068
C16	C	-0.043450	0.524785	0.072916
C17	C	-0.067004	0.573825	-0.000059
C18	C	-0.088876	0.457986	-0.073138
C19	C	-0.088877	0.457948	0.072908
C20	C	-0.112465	0.508196	-0.000120
C21	C	-0.064369	0.313943	-0.000074
C22	C	-0.067972	0.668811	-0.000060
C23	C	-0.154542	0.984102	-0.000081
C24	C	-0.208201	0.985063	-0.000090
C25	C	-0.546710	0.914333	-0.000044
C26	C	-0.748385	0.917897	-0.000033
O27	O	-0.779362	0.853220	0.000009
N28	N	-0.767842	0.994937	-0.000038
C29	C	-0.736876	1.071091	-0.000040
O30	O	-0.758052	1.136699	-0.000036
C31	C	-0.535202	1.067526	-0.000045
C32	C	-0.515748	0.990481	-0.000048
C33	C	-0.527256	0.837295	-0.000046
C34	C	-0.476841	0.836405	-0.000054
C35	C	-0.445879	0.912553	-0.000059
C36	C	-0.465333	0.989591	-0.000056
C37	C	-0.504237	1.143679	-0.000040
C38	C	-0.453816	1.142781	-0.000039
C39	C	-0.434362	1.065736	-0.000043
C40	C	-0.383955	1.064849	-0.000068
N41	N	-0.364499	0.987810	-0.000063
C42	C	-0.395460	0.911662	-0.000058
C43	C	-0.842758	1.072957	-0.000040
C44	C	-0.893176	1.073848	-0.000041
C45	C	-0.904682	0.920654	-0.000032
C46	C	-0.854263	0.919764	-0.000038
C47	C	-0.823302	0.995917	-0.000035
C48	C	-0.289583	0.909798	-0.000074
C49	C	-0.239162	0.908915	-0.000086
C50	C	-0.227661	1.062108	-0.000090
C51	C	-0.278077	1.062992	-0.000083
C52	C	-0.309038	0.986830	-0.000073
O53	O	-0.352950	1.129491	-0.000100
O54	O	-0.374275	0.846063	-0.000043
C55	C	-0.597126	0.915223	-0.000036
C56	C	-0.616580	0.992262	-0.000033
C57	C	-0.585618	1.068410	-0.000038
C58	C	-0.666998	0.993153	-0.000034
C59	C	-0.697960	0.917005	-0.000029
C60	C	-0.678504	0.839966	-0.000024
C61	C	-0.628088	0.839075	-0.000031
C62	C	-0.605074	1.145449	-0.000043
C63	C	-0.655491	1.146333	-0.000037
C64	C	-0.686453	1.070185	-0.000032
C65	C	0.022203	0.998661	-0.000051
C66	C	0.075862	0.997700	-0.000036
C67	C	-0.062643	1.144997	-0.000073
C68	C	-0.063599	1.238231	-0.000073
N69	N	-0.066176	0.991411	-0.230745
C70	C	-0.031854	1.051499	-0.470402
C71	C	-0.022465	0.975722	-0.529725
C72	C	-0.066170	0.991391	-0.412352
C73	C	-0.075531	1.067150	-0.529771
C74	C	-0.066163	0.991379	-0.587776
C75	C	-0.056760	0.915576	-0.470369
C76	C	-0.109844	1.007054	-0.470409
C77	C	-0.100473	0.931222	-0.529705
C78	C	-0.066173	0.991399	-0.311295
C79	C	-0.066161	0.991363	-0.688831
N80	N	-0.066159	0.991359	0.230611
H81	H	-0.024251	0.554007	-0.134781
O82	O	-0.111822	0.423046	0.146442
C83	C	-0.177565	0.325316	0.203707
C84	C	-0.151638	0.364790	0.120347
H85	H	-0.209755	0.278196	0.182638
H86	H	-0.191027	0.377148	0.245948
H87	H	-0.151082	0.291339	0.244255
H88	H	-0.178092	0.398762	0.079730
H89	H	-0.138167	0.312922	0.078172
H90	H	-0.314786	0.847780	-0.000065
H91	H	-0.002819	1.102278	-0.444363
O92	O	-0.084937	1.143662	-0.560758
C93	C	-0.059380	1.293492	-0.565768
C94	C	-0.048674	1.206895	-0.530625
H95	H	-0.030063	1.344637	-0.541435
H96	H	-0.096320	1.307376	-0.540294
H97	H	-0.059670	1.292561	-0.641653
H98	H	-0.048359	1.207762	-0.454743
H99	H	-0.011742	1.193046	-0.556167
O100	O	-0.835345	0.844945	-0.000191
C101	C	-0.785088	0.755048	-0.076858
C102	C	-0.806485	0.839804	-0.076810
H103	H	-0.761742	0.750871	-0.138789
H104	H	-0.815864	0.700747	-0.076914
H105	H	-0.761790	0.750802	-0.014862
H106	H	-0.829779	0.844132	-0.138795
H107	H	-0.775687	0.894064	-0.076708
H108	H	-0.108056	0.428932	-0.134927
O109	O	-0.020615	0.559515	0.146643
C110	C	-0.018177	0.563500	0.306955
C111	C	-0.044093	0.524118	0.223540
H112	H	-0.037142	0.534884	0.369146
H113	H	-0.019446	0.634700	0.306657
H114	H	0.021271	0.550029	0.306808
H115	H	-0.083552	0.537524	0.223632
H116	H	-0.042785	0.452929	0.223869
H117	H	-0.048797	0.851489	-0.444386
O118	O	-0.135040	0.870404	-0.560542
C119	C	-0.164224	0.721862	-0.565054
C120	C	-0.125043	0.790651	-0.530085
H121	H	-0.156160	0.657368	-0.540428
H122	H	-0.164181	0.722593	-0.640944
H123	H	-0.201361	0.734713	-0.539625
H124	H	-0.087886	0.777847	-0.555448
H125	H	-0.125128	0.789904	-0.454196
O126	O	-0.911990	1.148763	-0.000007
C127	C	-0.895242	1.300615	-0.000063
C128	C	-0.873874	1.215831	-0.000087
H129	H	-0.864436	1.354861	-0.000146
H130	H	-0.918535	1.304916	0.061918
H131	H	-0.918581	1.304828	-0.062012
H132	H	-0.850514	1.211560	0.061821
H133	H	-0.850609	1.211565	-0.062108
H134	H	-0.146769	1.020337	-0.444334
H135	H	-0.461007	0.773668	-0.000049
O136	O	0.026810	0.456507	-0.000285
C137	C	0.103521	0.470308	-0.077484
C138	C	0.050647	0.490771	-0.077339
H139	H	0.122812	0.498015	-0.139766
H140	H	0.103840	0.398879	-0.076904
H141	H	0.123064	0.498931	-0.015844
H142	H	0.031072	0.462202	-0.138969
H143	H	0.050363	0.562208	-0.077873
O144	O	-0.220347	0.833996	-0.000046
C145	C	-0.237089	0.682144	-0.000089
C146	C	-0.258460	0.766925	-0.000115
H147	H	-0.267894	0.627895	-0.000163
H148	H	-0.213783	0.677831	0.061887
H149	H	-0.213764	0.677945	-0.062042
H150	H	-0.281808	0.771180	0.061796
H151	H	-0.281739	0.771201	-0.062132
H152	H	-0.929900	0.858652	-0.000032
O153	O	-0.708605	0.766017	0.000140
C154	C	-0.772226	0.678153	0.076841
C155	C	-0.738154	0.761915	0.076769
H156	H	-0.796131	0.674818	0.138778
H157	H	-0.749690	0.622897	0.076900
H158	H	-0.796104	0.674761	0.014852
H159	H	-0.714269	0.765390	0.138747
H160	H	-0.760718	0.817133	0.076663
O161	O	-0.575052	1.219479	0.000066
C162	C	-0.549772	1.350121	0.076780
C163	C	-0.583804	1.266315	0.076763
H164	H	-0.556829	1.388004	0.138792
H165	H	-0.556866	1.388125	0.014854
H166	H	-0.510396	1.336246	0.076731
H167	H	-0.623192	1.280114	0.076844
H168	H	-0.576668	1.228337	0.138683
O169	O	-0.557279	0.763263	0.000074
C170	C	-0.582542	0.632603	0.076799
C171	C	-0.548511	0.716411	0.076773
H172	H	-0.575472	0.594708	0.138813
H173	H	-0.575459	0.594614	0.014875
H174	H	-0.621918	0.646476	0.076753
H175	H	-0.509123	0.702615	0.076850
H176	H	-0.555636	0.754375	0.138691
O177	O	-0.159199	0.526033	-0.000331
C178	C	-0.235943	0.511899	-0.077468
C179	C	-0.183027	0.491654	-0.077346
H180	H	-0.255227	0.484098	-0.139719
H181	H	-0.236357	0.583307	-0.076937
H182	H	-0.255429	0.483227	-0.015796
H183	H	-0.163509	0.520271	-0.139008
H184	H	-0.182648	0.420239	-0.077831
H185	H	-0.202443	1.124105	-0.000098
O186	O	0.021633	0.959931	-0.560668
C187	C	0.102630	0.931627	-0.523409
C188	C	0.052715	0.949515	-0.488252
H189	H	0.127770	0.923184	-0.464879
H190	H	0.119030	0.986887	-0.566208
H191	H	0.098028	0.871503	-0.565180
H192	H	0.057275	1.009613	-0.446444
H193	H	0.036332	0.894208	-0.445502
O194	O	-0.812666	1.146917	0.000116
C195	C	-0.749046	1.234812	0.076790
C196	C	-0.783101	1.151030	0.076739
H197	H	-0.725127	1.238157	0.138723
H198	H	-0.771596	1.290050	0.076841
H199	H	-0.725181	1.238226	0.014797
H200	H	-0.806973	1.147533	0.138721
H201	H	-0.760523	1.095831	0.076641
O202	O	-0.674441	1.221128	0.000086
C203	C	-0.724642	1.311058	0.076845
C204	C	-0.703225	1.226320	0.076795
H205	H	-0.747910	1.315292	0.138867
H206	H	-0.747999	1.315338	0.014929
H207	H	-0.693839	1.365310	0.076800
H208	H	-0.733997	1.172019	0.076871
H209	H	-0.679855	1.222114	0.138705
O210	O	-0.423809	1.216836	-0.000077
C211	C	-0.417723	1.368876	-0.000017
C212	C	-0.451758	1.285073	0.000006
H213	H	-0.440306	1.424068	0.000069
H214	H	-0.393846	1.372361	-0.061999
H215	H	-0.393814	1.372234	0.061930
H216	H	-0.475697	1.281658	-0.061900
H217	H	-0.475602	1.281623	0.062029
O218	O	-0.523150	1.218498	-0.000186
C219	C	-0.573418	1.308427	-0.076841
C220	C	-0.552023	1.223668	-0.076802
H221	H	-0.596774	1.312627	-0.138770
H222	H	-0.542641	1.362726	-0.076895
H223	H	-0.596706	1.312652	-0.014843
H224	H	-0.528741	1.219362	-0.138790
H225	H	-0.582823	1.169410	-0.076703
H226	H	-0.293917	1.125727	-0.000093
O227	O	-0.609171	0.764256	-0.000185
C228	C	-0.558919	0.674352	-0.076856
C229	C	-0.580315	0.759111	-0.076807
H230	H	-0.535576	0.670172	-0.138789
H231	H	-0.589696	0.620053	-0.076906
H232	H	-0.535618	0.670107	-0.014862
H233	H	-0.603610	0.763438	-0.138790
H234	H	-0.549515	0.813369	-0.076710
