data_functionalizedCrystal
_audit_creation_method	'MofGen! by Chris Wilmer'
_symmetry_space_group_name_H-M	'P1'
_symmetry_Int_Tables_number	1
_symmetry_cell_setting	triclinic
loop_
_symmetry_equiv_pos_as_xyz
  x,y,z
_cell_length_a	16.974885
_cell_length_b	8.559649
_cell_length_c	15.455313
_cell_angle_alpha	92.289439
_cell_angle_beta	90.969048
_cell_angle_gamma	76.599917
loop_
_atom_site_label
_atom_site_type_symbol
_atom_site_fract_x
_atom_site_fract_y
_atom_site_fract_z
O1	O	1.036738	0.203678	0.000582
O2	O	1.536738	0.703678	0.500582
O3	O	0.805832	0.228063	-0.015613
O4	O	1.305832	0.728063	0.484387
O5	O	0.941628	-0.016639	-0.006088
O6	O	1.441628	0.483361	0.493912
O7	O	0.900942	0.448380	-0.008944
O8	O	1.400942	0.948380	0.491056
O9	O	0.933866	-0.002703	0.137629
O10	O	1.433866	0.497297	0.637629
O11	O	0.798070	0.241998	0.128104
O12	O	1.298070	0.741998	0.628104
O13	O	1.028976	0.217614	0.144299
O14	O	1.528976	0.717614	0.644299
Cu15	Cu	0.912815	0.231078	0.149324
Cu16	Cu	1.412815	0.731078	0.649324
Cu17	Cu	0.921994	0.214598	-0.020638
Cu18	Cu	1.421994	0.714598	0.479362
O19	O	0.893180	0.462315	0.134774
O20	O	1.393180	0.962315	0.634774
C21	C	0.772664	0.233846	0.054191
C22	C	1.272664	0.733846	0.554191
C23	C	0.685398	0.230298	0.048070
C24	C	1.185398	0.730298	0.548070
C25	C	0.940831	-0.069187	0.065985
C26	C	1.440831	0.430813	0.565985
C27	C	0.950009	-0.246526	0.066624
C28	C	1.450009	0.253474	0.566624
C29	C	0.194646	0.209449	0.005149
C30	C	0.694646	0.709449	0.505149
C31	C	0.276642	0.212785	0.010911
C32	C	0.776642	0.712785	0.510911
C33	C	0.313399	0.222061	0.092134
C34	C	0.813399	0.722061	0.592134
C35	C	0.268158	0.227985	0.167599
C36	C	0.768158	0.727985	0.667599
C37	C	0.186166	0.224638	0.161835
C38	C	0.686166	0.724638	0.661835
C39	C	0.558165	0.232875	0.117772
C40	C	1.058165	0.732875	0.617772
C41	C	0.640162	0.236227	0.123530
C42	C	1.140162	0.736227	0.623530
C43	C	0.648641	0.221023	-0.033159
C44	C	1.148641	0.721023	0.466841
C45	C	0.566645	0.217686	-0.038915
C46	C	1.066645	0.717686	0.461085
C47	C	0.521413	0.223603	0.036550
C48	C	1.021413	0.723603	0.536550
N49	N	0.397210	0.225475	0.098026
N50	N	0.897210	0.725475	0.598026
N51	N	0.437605	0.220177	0.030657
N52	N	0.937605	0.720177	0.530657
C53	C	1.062145	0.211830	0.074493
C54	C	1.562145	0.711830	0.574493
C55	C	1.149411	0.215378	0.080608
C56	C	1.649411	0.715378	0.580608
C57	C	0.893978	0.514864	0.062699
C58	C	1.393978	1.014864	0.562699
C59	C	0.884800	0.692202	0.062054
C60	C	1.384800	1.192202	0.562054
N61	N	0.906364	0.242669	0.268867
N62	N	1.406364	0.742669	0.768867
N63	N	0.928451	0.202995	-0.140181
N64	N	1.428451	0.702995	0.359819
C65	C	0.964071	0.138749	0.318309
C66	C	1.464071	0.638749	0.818309
C67	C	0.959199	0.147529	0.408775
C68	C	1.459199	0.647529	0.908775
C69	C	0.896623	0.260238	0.449798
C70	C	1.396623	0.760238	0.949798
C71	C	0.838911	0.364162	0.400350
C72	C	1.338911	0.864162	0.900350
C73	C	0.843780	0.355373	0.309885
C74	C	1.343780	0.855373	0.809885
C75	C	0.875608	0.298131	0.719906
C76	C	1.375608	0.798131	1.219906
C77	C	0.870745	0.306915	0.810377
C78	C	1.370745	0.806915	1.310377
C79	C	0.991033	0.090279	0.818797
C80	C	1.491033	0.590279	1.318797
C81	C	0.995899	0.081507	0.728330
C82	C	1.495899	0.581507	1.228330
C83	C	0.938184	0.185425	0.678889
C84	C	1.438184	0.685425	1.178889
N85	N	0.891643	0.269218	0.542269
N86	N	1.391643	0.769218	1.042269
N87	N	0.943162	0.176436	0.586420
N88	N	1.443162	0.676436	1.086420
H89	H	0.164724	0.201907	-0.060992
H90	H	0.664724	0.701907	0.439008
O91	O	0.781528	0.467457	0.256566
O92	O	1.281528	0.967457	0.756566
H93	H	0.749529	0.395974	0.212979
H94	H	1.249529	0.895974	0.712979
H95	H	1.046853	-0.010269	0.694931
H96	H	1.546853	0.489731	1.194931
O97	O	0.801543	-0.197594	0.056216
O98	O	1.301543	0.302406	0.556216
H99	H	0.797332	-0.126481	-0.002883
H100	H	1.297332	0.373519	0.497117
H101	H	1.015029	0.046977	0.284915
H102	H	1.515029	0.546977	0.784915
H103	H	0.685478	0.216205	-0.094598
H104	H	1.185478	0.716205	0.405402
O105	O	0.509463	0.239074	0.199205
O106	O	1.009463	0.739074	0.699205
H107	H	0.485583	0.129051	0.201254
H108	H	0.985583	0.629051	0.701254
O109	O	0.325433	0.206399	-0.070476
O110	O	0.825433	0.706399	0.429524
H111	H	0.286096	0.199409	-0.127923
H112	H	0.786096	0.699409	0.372077
H113	H	1.006187	0.062909	0.449031
H114	H	1.506187	0.562909	0.949031
O115	O	1.033266	-0.356752	0.072470
O116	O	1.533266	0.143248	0.572470
H117	H	1.063434	-0.328152	0.133387
H118	H	1.563434	0.171848	0.633387
O119	O	1.053275	-0.021815	0.872119
O120	O	1.553275	0.478185	1.372119
H121	H	1.039375	0.003216	0.941917
H122	H	1.539375	0.503216	1.441917
H123	H	0.298093	0.235527	0.233732
H124	H	0.798093	0.735527	0.733732
H125	H	0.819786	0.398702	0.843773
H126	H	1.319786	0.898702	1.343773
H127	H	0.536724	0.210131	-0.105055
H128	H	1.036724	0.710131	0.394945
O129	O	0.813369	0.410222	0.666585
O130	O	1.313369	0.910222	1.166585
H131	H	0.769046	0.490083	0.710312
H132	H	1.269046	0.990083	1.210312
H133	H	0.787957	0.455926	0.433755
H134	H	1.287957	0.955926	0.933755
O135	O	0.679816	0.246208	0.211138
O136	O	1.179816	0.746208	0.711138
H137	H	0.634591	0.249739	0.262646
H138	H	1.134591	0.749739	0.762646
H139	H	0.149334	0.229483	0.223282
H140	H	0.649334	0.729483	0.723282
