data_functionalizedCrystal
_audit_creation_method	'MofGen! by Chris Wilmer'
_symmetry_space_group_name_H-M	'P1'
_symmetry_Int_Tables_number	1
_symmetry_cell_setting	triclinic
loop_
_symmetry_equiv_pos_as_xyz
  x,y,z
_cell_length_a	19.121063
_cell_length_b	18.215407
_cell_length_c	18.215399
_cell_angle_alpha	90.018561
_cell_angle_beta	92.409843
_cell_angle_gamma	87.539312
loop_
_atom_site_label
_atom_site_type_symbol
_atom_site_fract_x
_atom_site_fract_y
_atom_site_fract_z
Zn1	Zn	-0.279774	-1.112552	-0.428578
Zn2	Zn	0.053559	-0.779219	-0.095245
Zn3	Zn	0.386892	-0.445885	0.238088
Zn4	Zn	-0.397229	-1.107204	-0.310755
Zn5	Zn	-0.063895	-0.773871	0.022579
Zn6	Zn	0.269438	-0.440538	0.355912
Zn7	Zn	-0.279780	-0.989484	-0.305529
Zn8	Zn	0.053554	-0.656151	0.027805
Zn9	Zn	0.386887	-0.322818	0.361138
Zn10	Zn	-0.397172	-0.984197	-0.433780
Zn11	Zn	-0.063838	-0.650864	-0.100446
Zn12	Zn	0.269495	-0.317530	0.232887
O13	O	-0.338489	-1.048359	-0.369660
O14	O	-0.005155	-0.715026	-0.036327
O15	O	0.328178	-0.381693	0.297006
O16	O	-0.295377	-1.214826	-0.412959
O17	O	0.037957	-0.881493	-0.079626
O18	O	0.371290	-0.548159	0.253708
O19	O	-0.381675	-1.091563	-0.207078
O20	O	-0.048341	-0.758230	0.126255
O21	O	0.284992	-0.424897	0.459588
O22	O	-0.181495	-1.010260	-0.317488
O23	O	0.151838	-0.676927	0.015846
O24	O	0.485172	-0.343594	0.349179
O25	O	-0.381670	-1.210897	-0.326394
O26	O	-0.048336	-0.877564	0.006939
O27	O	0.284997	-0.544230	0.340272
O28	O	-0.181491	-1.100678	-0.407892
O29	O	0.151842	-0.767344	-0.074558
O30	O	0.485176	-0.434011	0.258775
O31	O	-0.295385	-1.005075	-0.203239
O32	O	0.037948	-0.671742	0.130095
O33	O	0.371281	-0.338408	0.463428
O34	O	-0.295330	-0.885800	-0.322531
O35	O	0.038003	-0.552466	0.010802
O36	O	0.371336	-0.219133	0.344135
O37	O	-0.381573	-1.001249	-0.536073
O38	O	-0.048239	-0.667915	-0.202740
O39	O	0.285094	-0.334582	0.130594
O40	O	-0.381578	-0.881915	-0.416757
O41	O	-0.048244	-0.548582	-0.083423
O42	O	0.285089	-0.215248	0.249910
O43	O	-0.295321	-1.095551	-0.532252
O44	O	0.038012	-0.762217	-0.198918
O45	O	0.371345	-0.428884	0.134415
O46	O	-0.495505	-1.086436	-0.331438
O47	O	-0.162172	-0.753103	0.001895
O48	O	0.171162	-0.419770	0.335229
O49	O	-0.495463	-0.996063	-0.421824
O50	O	-0.162130	-0.662730	-0.088491
O51	O	0.171203	-0.329397	0.244843
C52	C	-0.338449	-0.857155	-0.369642
C53	C	-0.005116	-0.523822	-0.036308
C54	C	0.328218	-0.190488	0.297025
C55	C	-0.338449	-0.775356	-0.369652
C56	C	-0.005115	-0.442023	-0.036319
C57	C	0.328218	-0.108689	0.297015
C58	C	-0.293617	-0.512334	-0.414805
C59	C	0.039716	-0.179001	-0.081472
C60	C	0.373049	0.154333	0.251861
C61	C	-0.293610	-0.589193	-0.414804
C62	C	0.039724	-0.255860	-0.081470
C63	C	0.373057	0.077474	0.251863
C64	C	-0.383336	-0.585127	-0.324517
C65	C	-0.050003	-0.251794	0.008816
C66	C	0.283330	0.081540	0.342149
C67	C	-0.383347	-0.508269	-0.324523
C68	C	-0.050014	-0.174936	0.008810
C69	C	0.283320	0.158398	0.342143
C70	C	-0.338484	-0.471875	-0.369666
C71	C	-0.005150	-0.138542	-0.036333
C72	C	0.328183	0.194792	0.297001
C73	C	-0.338465	-0.625592	-0.369658
C74	C	-0.005132	-0.292258	-0.036325
C75	C	0.328202	0.041075	0.297008
C76	C	-0.338457	-0.708926	-0.369656
C77	C	-0.005124	-0.375592	-0.036323
C78	C	0.328210	-0.042259	0.297010
C79	C	-0.338493	-0.388535	-0.369670
C80	C	-0.005159	-0.055202	-0.036336
C81	C	0.328174	0.278131	0.296997
C82	C	-0.520968	-1.040116	-0.377779
C83	C	-0.187635	-0.706782	-0.044445
C84	C	0.145698	-0.373449	0.288888
C85	C	-0.599034	-1.036656	-0.381276
C86	C	-0.265700	-0.703323	-0.047943
C87	C	0.067633	-0.369990	0.285391
C88	C	-0.635708	-1.082120	-0.335899
C89	C	-0.302374	-0.748787	-0.002566
C90	C	0.030959	-0.415453	0.330768
C91	C	-0.709058	-1.078871	-0.339193
C92	C	-0.375725	-0.745538	-0.005860
C93	C	-0.042392	-0.412204	0.327474
C94	C	-0.745734	-1.030154	-0.387861
C95	C	-0.412401	-0.696820	-0.054527
C96	C	-0.079067	-0.363487	0.278806
C97	C	-0.709055	-0.984688	-0.433242
C98	C	-0.375722	-0.651355	-0.099909
C99	C	-0.042388	-0.318021	0.233424
C100	C	-0.635706	-0.987942	-0.429952
C101	C	-0.302372	-0.654608	-0.096619
C102	C	0.030961	-0.321275	0.236715
C103	C	-0.967202	-1.017978	-0.400152
C104	C	-0.633869	-0.684645	-0.066819
C105	C	-0.300536	-0.351312	0.266515
C106	C	-1.040557	-1.014727	-0.403437
C107	C	-0.707224	-0.681393	-0.070104
C108	C	-0.373890	-0.348060	0.263229
C109	C	-1.040555	-1.108911	-0.309388
C110	C	-0.707222	-0.775578	0.023945
C111	C	-0.373889	-0.442244	0.357278
C112	C	-0.967204	-1.112157	-0.306099
C113	C	-0.633871	-0.778823	0.027234
C114	C	-0.300538	-0.445490	0.360568
C115	C	-0.930532	-1.066694	-0.351484
C116	C	-0.597198	-0.733361	-0.018150
C117	C	-0.263865	-0.400027	0.315183
C118	C	-0.820711	-1.026830	-0.391227
C119	C	-0.487377	-0.693496	-0.057894
C120	C	-0.154044	-0.360163	0.275440
C121	C	-0.855557	-1.070022	-0.348121
C122	C	-0.522223	-0.736689	-0.014787
C123	C	-0.188890	-0.403355	0.318546
C124	C	-0.155296	-1.056655	-0.361527
C125	C	0.178037	-0.723322	-0.028193
C126	C	0.511370	-0.389989	0.305140
C127	C	-0.077231	-1.060191	-0.358060
C128	C	0.256102	-0.726857	-0.024727
C129	C	0.589436	-0.393524	0.308606
C130	C	-0.338440	-1.048406	-0.561611
C131	C	-0.005107	-0.715073	-0.228278
C132	C	0.328226	-0.381740	0.105055
C133	C	-0.338420	-1.048426	-0.643409
C134	C	-0.005086	-0.715093	-0.310076
C135	C	0.328247	-0.381760	0.023257
C136	C	-0.338517	-0.240311	-0.369676
C137	C	-0.005184	0.093022	-0.036342
C138	C	0.328149	0.426356	0.296991
C139	C	-0.338500	-0.322111	-0.369673
C140	C	-0.005167	0.011223	-0.036339
C141	C	0.328167	0.344556	0.296994
C142	C	-0.293467	-1.097548	-0.829613
C143	C	0.039867	-0.764215	-0.496279
C144	C	0.373200	-0.430882	-0.162946
C145	C	-0.293446	-1.097558	-0.906471
C146	C	0.039887	-0.764225	-0.573137
C147	C	0.373221	-0.430891	-0.239804
C148	C	-0.383264	-0.999361	-0.910439
C149	C	-0.049931	-0.666028	-0.577105
C150	C	0.283403	-0.332695	-0.243772
C151	C	-0.383280	-0.999349	-0.833582
C152	C	-0.049947	-0.666015	-0.500249
C153	C	0.283386	-0.332682	-0.166915
C154	C	-0.338383	-1.048446	-0.793171
C155	C	-0.005049	-0.715113	-0.459838
C156	C	0.328284	-0.381780	-0.126504
C157	C	-0.338346	-1.048469	-0.946886
C158	C	-0.005012	-0.715135	-0.613552
C159	C	0.328321	-0.381802	-0.280219
C160	C	-0.338324	-1.048479	-1.030218
C161	C	-0.004991	-0.715145	-0.696885
C162	C	0.328343	-0.381812	-0.363552
C163	C	-0.338403	-1.048435	-0.709833
C164	C	-0.005070	-0.715102	-0.376500
C165	C	0.328263	-0.381769	-0.043166
C166	C	-0.338486	-1.048357	-0.178454
C167	C	-0.005153	-0.715024	0.154879
C168	C	0.328181	-0.381690	0.488213
C169	C	-0.338309	-1.048489	-0.096648
C170	C	-0.004976	-0.715155	0.236686
C171	C	0.328358	-0.381822	0.570019
H172	H	-0.419887	-0.475326	-0.287765
H173	H	-0.086553	-0.141993	0.045568
H174	H	0.246780	0.191341	0.378901
H175	H	-0.605851	-1.121787	-0.296266
H176	H	-0.272518	-0.788454	0.037068
H177	H	0.060816	-0.455121	0.370401
Br178	Br	-1.090331	-0.948594	-0.469478
Br179	Br	-0.756998	-0.615260	-0.136145
Br180	Br	-0.423665	-0.281927	0.197188
H181	H	-0.738915	-1.115892	-0.302242
H182	H	-0.405582	-0.782558	0.031092
H183	H	-0.072248	-0.449225	0.364425
H184	H	-0.738922	-0.945025	-0.472872
H185	H	-0.405589	-0.611691	-0.139539
H186	H	-0.072256	-0.278358	0.193795
H187	H	-0.256870	-1.137540	-0.936138
H188	H	0.076464	-0.804207	-0.602804
H189	H	0.409797	-0.470874	-0.269471
H190	H	-0.937349	-0.980959	-0.437104
H191	H	-0.604016	-0.647626	-0.103771
H192	H	-0.270683	-0.314293	0.229562
H193	H	-0.257087	-0.482704	-0.451563
H194	H	0.076247	-0.149371	-0.118230
H195	H	0.409580	0.183963	0.215103
H196	H	-0.257076	-0.622132	-0.451561
H197	H	0.076258	-0.288798	-0.118228
H198	H	0.409591	0.044535	0.215105
Br199	Br	-0.585933	-0.926243	-0.491542
Br200	Br	-0.252600	-0.592910	-0.158209
Br201	Br	0.080734	-0.259576	0.175125
Br202	Br	-0.444218	-0.634524	-0.263253
Br203	Br	-0.110884	-0.301191	0.070080
Br204	Br	0.222449	0.032143	0.403413
H205	H	-0.825693	-1.109691	-0.308498
H206	H	-0.492360	-0.776357	0.024835
H207	H	-0.159027	-0.443024	0.358169
H208	H	-0.419820	-0.959390	-0.943351
H209	H	-0.086486	-0.626056	-0.610017
H210	H	0.246847	-0.292723	-0.276684
H211	H	-1.070422	-1.145925	-0.272440
H212	H	-0.737089	-0.812592	0.060893
H213	H	-0.403755	-0.479258	0.394227
Br214	Br	-0.917435	-1.178285	-0.240057
Br215	Br	-0.584102	-0.844952	0.093276
Br216	Br	-0.250768	-0.511618	0.426609
Br217	Br	-0.870491	-0.960717	-0.457275
Br218	Br	-0.537157	-0.627383	-0.123942
Br219	Br	-0.203824	-0.294050	0.209391
Br220	Br	-0.444236	-0.932699	-0.784121
Br221	Br	-0.110903	-0.599366	-0.450787
Br222	Br	0.222430	-0.266032	-0.117454
Br223	Br	-0.232533	-1.164179	-0.774771
Br224	Br	0.100800	-0.830845	-0.441438
Br225	Br	0.434134	-0.497512	-0.108105
