data_functionalizedCrystal
_audit_creation_method	'MofGen! by Chris Wilmer'
_symmetry_space_group_name_H-M	'P1'
_symmetry_Int_Tables_number	1
_symmetry_cell_setting	triclinic
loop_
_symmetry_equiv_pos_as_xyz
  x,y,z
_cell_length_a	15.995350
_cell_length_b	14.519709
_cell_length_c	13.596369
_cell_angle_alpha	90.006934
_cell_angle_beta	89.998321
_cell_angle_gamma	96.413740
loop_
_atom_site_label
_atom_site_type_symbol
_atom_site_fract_x
_atom_site_fract_y
_atom_site_fract_z
O1	O	1.111164	-0.118875	-0.081710
O2	O	1.611164	0.381125	0.418290
O3	O	0.867411	-0.133554	-0.081731
O4	O	1.367411	0.366446	0.418269
O5	O	0.995750	0.008036	-0.081711
O6	O	1.495750	0.508036	0.418289
O7	O	0.982825	-0.260464	-0.081730
O8	O	1.482825	0.239536	0.418270
O9	O	0.995738	0.008043	0.081872
O10	O	1.495738	0.508043	0.581872
O11	O	0.867398	-0.133546	0.081852
O12	O	1.367398	0.366454	0.581852
O13	O	1.111152	-0.118867	0.081873
O14	O	1.611152	0.381133	0.581873
Zn15	Zn	0.989273	-0.126206	0.107835
Zn16	Zn	1.489273	0.373794	0.607835
Zn17	Zn	0.989290	-0.126215	-0.107693
Zn18	Zn	1.489290	0.373785	0.392307
O19	O	0.982812	-0.260457	0.081853
O20	O	1.482812	0.239543	0.581853
C21	C	0.995142	0.042398	0.000081
C22	C	1.495142	0.542398	0.500081
C23	C	0.993337	0.144776	0.000081
C24	C	1.493337	0.644776	0.500081
C25	C	0.836209	-0.132943	0.000058
C26	C	1.336209	0.367057	0.500058
C27	C	0.743256	-0.131124	0.000051
C28	C	1.243256	0.368876	0.500051
C29	C	0.405499	-0.124590	0.000072
C30	C	0.905499	0.375410	0.500072
C31	C	0.452782	-0.023752	0.000444
C32	C	0.952782	0.476248	0.500444
C33	C	0.549475	-0.025572	0.000068
C34	C	1.049475	0.474428	0.500068
C35	C	0.573064	-0.127831	0.000062
C36	C	1.073064	0.372169	0.500062
C37	C	0.532059	-0.177572	-0.093352
C38	C	1.032059	0.322428	0.406648
C39	C	0.435419	-0.175039	-0.093423
C40	C	0.935419	0.324961	0.406577
C41	C	0.435069	-0.177114	0.092601
C42	C	0.935069	0.322886	0.592601
C43	C	0.532014	-0.177090	0.093829
C44	C	1.032014	0.322910	0.593829
C45	C	0.667764	-0.129668	0.000053
C46	C	1.167764	0.370332	0.500053
C47	C	0.310798	-0.122756	0.000074
C48	C	0.810798	0.377244	0.500074
C49	C	1.142354	-0.119478	0.000082
C50	C	1.642354	0.380522	0.500082
C51	C	1.235307	-0.121297	0.000083
C52	C	1.735307	0.378703	0.500083
C53	C	0.983421	-0.294819	0.000059
C54	C	1.483421	0.205181	0.500059
C55	C	0.985226	-0.397197	0.000052
C56	C	1.485226	0.102803	0.500052
N57	N	0.989267	-0.126198	0.254927
N58	N	1.489267	0.373802	0.754927
C59	C	0.986691	0.519660	0.000055
C60	C	1.486691	1.019660	0.500055
C61	C	0.988537	0.415355	0.000062
C62	C	1.488537	0.915355	0.500062
C63	C	0.990014	0.332221	0.000069
C64	C	1.490014	0.832221	0.500069
C65	C	0.991859	0.227910	0.000075
C66	C	1.491859	0.727910	0.500075
N67	N	0.989302	-0.126215	-0.254785
N68	N	1.489302	0.373785	0.245215
C69	C	0.989289	-0.126216	0.656218
C70	C	1.489289	0.373784	1.156218
C71	C	0.989280	-0.126215	0.544566
C72	C	1.489280	0.373785	1.044566
C73	C	0.989278	-0.126208	0.455576
C74	C	1.489278	0.373792	0.955576
C75	C	0.989269	-0.126205	0.343917
C76	C	1.489269	0.373795	0.843917
H77	H	0.577840	0.013526	0.067031
H78	H	1.077840	0.513526	0.567031
H79	H	0.414478	-0.144144	0.163406
H80	H	0.914478	0.355856	0.663406
H81	H	0.403282	-0.249072	-0.097666
H82	H	0.903282	0.250928	0.402334
H83	H	0.434194	0.016558	0.067434
H84	H	0.934194	0.516558	0.567434
H85	H	0.403419	-0.251460	0.093229
H86	H	0.903419	0.248540	0.593229
H87	H	0.547490	-0.251660	0.099467
H88	H	1.047490	0.248340	0.599467
H89	H	0.560387	-0.143030	-0.162867
H90	H	1.060387	0.356970	0.337133
H91	H	0.559271	-0.140779	0.162936
H92	H	1.059271	0.359221	0.662936
H93	H	0.577279	0.013785	-0.067006
H94	H	1.077279	0.513785	0.432994
H95	H	0.433133	0.016366	-0.066172
H96	H	0.933133	0.516366	0.433828
H97	H	0.417062	-0.138772	-0.163247
H98	H	0.917062	0.361228	0.336753
H99	H	0.546296	-0.252699	-0.096830
H100	H	1.046296	0.247301	0.403170
