data_functionalizedCrystal
_audit_creation_method	'MofGen! by Chris Wilmer'
_symmetry_space_group_name_H-M	'P1'
_symmetry_Int_Tables_number	1
_symmetry_cell_setting	triclinic
loop_
_symmetry_equiv_pos_as_xyz
  x,y,z
_cell_length_a	16.959455
_cell_length_b	16.625545
_cell_length_c	16.959447
_cell_angle_alpha	90.030053
_cell_angle_beta	89.985678
_cell_angle_gamma	89.979016
loop_
_atom_site_label
_atom_site_type_symbol
_atom_site_fract_x
_atom_site_fract_y
_atom_site_fract_z
Zn1	Zn	1.208362	0.321051	-0.446910
Zn2	Zn	1.208275	0.455899	-0.314732
Zn3	Zn	1.076190	0.321077	-0.314748
Zn4	Zn	1.076146	0.455839	-0.446871
O5	O	1.142243	0.388466	-0.380815
O6	O	1.318961	0.338954	-0.429386
O7	O	1.190736	0.438050	-0.204123
O8	O	1.093778	0.208241	-0.332302
O9	O	1.318898	0.438026	-0.332276
O10	O	1.190884	0.208222	-0.429401
O11	O	1.093694	0.338997	-0.204135
O12	O	0.965574	0.338939	-0.332264
O13	O	1.093702	0.437923	-0.557487
O14	O	0.965541	0.437947	-0.429334
O15	O	1.190841	0.338895	-0.557516
O16	O	1.190693	0.568723	-0.332238
O17	O	1.093618	0.568679	-0.429319
C18	C	0.936877	0.388440	-0.380797
C19	C	0.849021	0.388448	-0.380808
C20	C	1.142163	0.597957	-0.380790
C21	C	1.142201	0.687578	-0.380805
C22	C	0.477538	0.336870	-0.330376
C23	C	0.477552	0.440129	-0.431299
C24	C	0.560098	0.440117	-0.431295
C25	C	0.601368	0.388482	-0.380829
C26	C	0.560091	0.336859	-0.330368
C27	C	0.601381	0.491746	-0.481749
C28	C	0.683932	0.491737	-0.481745
C29	C	0.725203	0.440097	-0.431283
C30	C	0.683921	0.388471	-0.380821
C31	C	0.725191	0.336836	-0.330355
C32	C	0.683910	0.285205	-0.279897
C33	C	0.601362	0.285219	-0.279906
C34	C	0.807751	0.440083	-0.431274
C35	C	0.807744	0.336824	-0.330347
C36	C	1.142330	1.015754	-0.380900
C37	C	1.142292	0.924445	-0.380876
C38	C	1.142265	0.851669	-0.380852
C39	C	1.142228	0.760355	-0.380829
C40	C	1.348412	0.388494	-0.380834
C41	C	1.436268	0.388505	-0.380842
C42	C	1.142276	0.388400	-0.586984
C43	C	1.142290	0.388371	-0.674840
C44	C	1.142339	1.178157	-0.380867
C45	C	1.142362	1.088536	-0.380913
C46	C	1.091809	0.439845	-1.046303
C47	C	1.192960	0.336727	-1.046329
C48	C	1.192939	0.336744	-0.963783
C49	C	1.142353	0.388313	-0.922493
C50	C	1.091788	0.439866	-0.963750
C51	C	1.243509	0.285199	-0.922520
C52	C	1.243491	0.285214	-0.839969
C53	C	1.192900	0.336780	-0.798678
C54	C	1.142332	0.388334	-0.839940
C55	C	1.091746	0.439903	-0.798650
C56	C	1.041174	0.491453	-0.839910
C57	C	1.041198	0.491431	-0.922459
C58	C	1.192876	0.336802	-0.716130
C59	C	1.091725	0.439923	-0.716097
C60	C	1.142256	0.388475	-0.175449
C61	C	1.142395	0.388276	-0.087593
H62	H	0.841340	0.294771	-0.289256
O63	O	0.723881	0.235026	-0.230797
C64	C	0.715175	0.132576	-0.130724
C65	C	0.669807	0.189370	-0.186275
H66	H	0.671476	0.095636	-0.094725
H67	H	0.753771	0.169507	-0.089274
H68	H	0.753874	0.090496	-0.167094
H69	H	0.631065	0.231461	-0.149969
H70	H	0.631260	0.152389	-0.227727
H71	H	1.000027	0.533403	-0.956060
H72	H	0.567773	0.533790	-0.522829
O73	O	1.242082	0.286850	-0.676016
C74	C	1.348750	0.276045	-0.582782
C75	C	1.293083	0.332712	-0.628173
H76	H	1.389988	0.313101	-0.544078
H77	H	1.384970	0.239203	-0.626437
H78	H	1.312458	0.233868	-0.544183
H79	H	1.329314	0.374938	-0.666773
H80	H	1.256861	0.369498	-0.584475
O81	O	0.723905	0.541910	-0.530837
C82	C	0.715201	0.644363	-0.630910
C83	C	0.669832	0.587573	-0.575365
H84	H	0.671503	0.681308	-0.666913
H85	H	0.753845	0.607427	-0.672355
H86	H	0.753852	0.686437	-0.594535
H87	H	0.631138	0.545487	-0.611677
H88	H	0.631237	0.624559	-0.533918
H89	H	1.050632	0.481814	-1.079901
H90	H	1.284698	0.243219	-0.956144
H91	H	1.234150	0.294746	-1.079951
O92	O	0.561141	0.235140	-0.230924
C93	C	0.433961	0.189351	-0.186260
C94	C	0.479416	0.246121	-0.241753
H95	H	0.367879	0.198197	-0.195008
H96	H	0.450102	0.203417	-0.122477
H97	H	0.450260	0.124362	-0.200252
H98	H	0.463142	0.311130	-0.227832
H99	H	0.463271	0.231985	-0.305520
H100	H	1.284669	0.243239	-0.806382
H101	H	0.841358	0.482122	-0.472354
H102	H	1.050524	0.481911	-0.682485
H103	H	0.443946	0.482173	-0.472381
O104	O	0.437408	0.286834	-0.281279
C105	C	0.344135	0.275852	-0.174623
C106	C	0.389547	0.332611	-0.230163
H107	H	0.305417	0.312839	-0.133293
H108	H	0.387778	0.238961	-0.138496
H109	H	0.305549	0.233725	-0.211008
H110	H	0.428135	0.374787	-0.193839
H111	H	0.345862	0.369445	-0.266293
O112	O	0.992062	0.541471	-0.799676
C113	C	0.947253	0.587234	-0.672484
C114	C	1.002895	0.530537	-0.717954
H115	H	0.956003	0.578426	-0.606404
H116	H	0.883508	0.573061	-0.688650
H117	H	0.961093	0.652240	-0.688744
H118	H	0.989126	0.465512	-0.701718
H119	H	1.066623	0.544780	-0.701784
