data_functionalizedCrystal
_audit_creation_method	'MofGen! by Chris Wilmer'
_symmetry_space_group_name_H-M	'P1'
_symmetry_Int_Tables_number	1
_symmetry_cell_setting	triclinic
loop_
_symmetry_equiv_pos_as_xyz
  x,y,z
_cell_length_a	12.594516
_cell_length_b	11.169417
_cell_length_c	11.169409
_cell_angle_alpha	90.021683
_cell_angle_beta	89.968646
_cell_angle_gamma	89.985009
loop_
_atom_site_label
_atom_site_type_symbol
_atom_site_fract_x
_atom_site_fract_y
_atom_site_fract_z
Zn1	Zn	-0.423686	-1.834915	-0.678610
Zn2	Zn	-0.601712	-1.834784	-0.477931
Zn3	Zn	-0.423745	-1.634201	-0.477938
Zn4	Zn	-0.601620	-1.634188	-0.678569
O5	O	-0.512691	-1.734522	-0.578262
O6	O	-0.447316	-2.002847	-0.652004
O7	O	-0.578168	-1.808127	-0.309982
O8	O	-0.274791	-1.660886	-0.504578
O9	O	-0.578111	-2.002751	-0.504566
O10	O	-0.274748	-1.808349	-0.652011
O11	O	-0.447416	-1.660759	-0.309987
O12	O	-0.447326	-1.466249	-0.504538
O13	O	-0.577953	-1.660864	-0.846524
O14	O	-0.578010	-1.466240	-0.651941
O15	O	-0.447226	-1.808337	-0.846555
O16	O	-0.750646	-1.808115	-0.504525
O17	O	-0.750578	-1.660738	-0.651934
C18	C	-0.512665	-1.422697	-0.578237
C19	C	-0.512680	-1.289297	-0.578254
C20	C	-0.789232	-1.734443	-0.578250
C21	C	-0.907537	-1.734519	-0.578286
C22	C	-0.976792	-1.654353	-0.658404
C23	C	-1.047666	-1.625107	-0.548890
C24	C	-1.047462	-1.763875	-0.687818
C25	C	-0.976853	-1.705215	-0.468713
C26	C	-0.976643	-1.844034	-0.607715
C27	C	-1.047485	-1.814829	-0.498126
C28	C	-0.235070	-1.734634	-0.578300
C29	C	-0.116764	-1.734681	-0.578316
C30	C	-0.512573	-1.734614	-0.891305
C31	C	-0.512522	-1.734653	-1.024705
C32	C	-0.512708	-1.047564	-0.578279
C33	C	-0.512693	-1.180964	-0.578262
C34	C	-0.512732	-1.734499	-0.266437
C35	C	-0.512482	-1.734692	-0.133038
H36	H	-0.945751	-1.586438	-0.726060
H37	H	-1.078479	-1.788639	-0.780437
H38	H	-0.945427	-1.936553	-0.632634
H39	H	-1.078885	-1.532568	-0.524024
C40	C	-0.935134	-1.671604	-0.343563
H41	H	-0.859704	-1.671707	-0.344327
H42	H	-0.959902	-1.728246	-0.286613
H43	H	-0.960044	-1.594101	-0.322552
C44	C	-1.089167	-1.906506	-0.406520
H45	H	-1.130615	-1.965195	-0.446573
H46	H	-1.131707	-1.866710	-0.348604
H47	H	-1.030886	-1.944187	-0.367880
