data_functionalizedCrystal
_audit_creation_method	'MofGen! by Chris Wilmer'
_symmetry_space_group_name_H-M	'P1'
_symmetry_Int_Tables_number	1
_symmetry_cell_setting	triclinic
loop_
_symmetry_equiv_pos_as_xyz
  x,y,z
_cell_length_a	19.121063
_cell_length_b	19.121141
_cell_length_c	21.395356
_cell_angle_alpha	92.464120
_cell_angle_beta	92.411537
_cell_angle_gamma	89.873858
loop_
_atom_site_label
_atom_site_type_symbol
_atom_site_fract_x
_atom_site_fract_y
_atom_site_fract_z
Zn1	Zn	-0.324937	-1.059881	-0.406931
Zn2	Zn	0.008397	-0.726548	-0.073598
Zn3	Zn	0.341730	-0.393215	0.259736
Zn4	Zn	-0.442171	-1.054780	-0.306417
Zn5	Zn	-0.108837	-0.721446	0.026917
Zn6	Zn	0.224496	-0.388113	0.360250
Zn7	Zn	-0.319944	-0.942635	-0.297518
Zn8	Zn	0.013389	-0.609302	0.035815
Zn9	Zn	0.346723	-0.275969	0.369148
Zn10	Zn	-0.437125	-0.937606	-0.406508
Zn11	Zn	-0.103792	-0.604273	-0.073175
Zn12	Zn	0.229541	-0.270940	0.260159
O13	O	-0.381044	-0.998726	-0.354344
O14	O	-0.047711	-0.665392	-0.021010
O15	O	0.285623	-0.332059	0.312323
O16	O	-0.344689	-1.157310	-0.397499
O17	O	-0.011356	-0.823977	-0.064165
O18	O	0.321978	-0.490643	0.269168
O19	O	-0.425979	-1.039873	-0.217558
O20	O	-0.092646	-0.706539	0.115775
O21	O	0.240688	-0.373206	0.449109
O22	O	-0.222503	-0.962428	-0.308485
O23	O	0.110831	-0.629095	0.024848
O24	O	0.444164	-0.295761	0.358182
O25	O	-0.430820	-1.153562	-0.323651
O26	O	-0.097487	-0.820228	0.009682
O27	O	0.235846	-0.486895	0.343015
O28	O	-0.226171	-1.048568	-0.388870
O29	O	0.107162	-0.715235	-0.055537
O30	O	0.440496	-0.381902	0.277796
O31	O	-0.336180	-0.957481	-0.211020
O32	O	-0.002846	-0.624147	0.122313
O33	O	0.330487	-0.290814	0.455646
O34	O	-0.331287	-0.843863	-0.308075
O35	O	0.002046	-0.510529	0.025258
O36	O	0.335379	-0.177196	0.358592
O37	O	-0.422221	-0.953857	-0.494242
O38	O	-0.088888	-0.620524	-0.160909
O39	O	0.244446	-0.287190	0.172424
O40	O	-0.417380	-0.840168	-0.388149
O41	O	-0.084046	-0.506835	-0.054816
O42	O	0.249287	-0.173502	0.278517
O43	O	-0.339797	-1.043692	-0.494553
O44	O	-0.006463	-0.710359	-0.161220
O45	O	0.326870	-0.377025	0.172113
O46	O	-0.539605	-1.034997	-0.323241
O47	O	-0.206272	-0.701663	0.010092
O48	O	0.127062	-0.368330	0.343426
O49	O	-0.535898	-0.948910	-0.396778
O50	O	-0.202565	-0.615577	-0.063444
O51	O	0.130769	-0.282243	0.269889
C52	C	-0.373245	-0.816578	-0.347101
C53	C	-0.039911	-0.483245	-0.013768
C54	C	0.293422	-0.149911	0.319566
C55	C	-0.369925	-0.738654	-0.344018
C56	C	-0.036592	-0.405320	-0.010685
C57	C	0.296742	-0.071987	0.322649
C58	C	-0.413257	-0.700136	-0.384200
C59	C	-0.079924	-0.366803	-0.050866
C60	C	0.253410	-0.033470	0.282467
C61	C	-0.410128	-0.626919	-0.381305
C62	C	-0.076795	-0.293585	-0.047972
C63	C	0.256538	0.039748	0.285361
C64	C	-0.363671	-0.592219	-0.338226
C65	C	-0.030338	-0.258886	-0.004893
C66	C	0.302995	0.074448	0.328440
C67	C	-0.320335	-0.630742	-0.298043
C68	C	0.012999	-0.297408	0.035290
C69	C	0.346332	0.035925	0.368624
C70	C	-0.323460	-0.703958	-0.300941
C71	C	0.009873	-0.370625	0.032393
C72	C	0.343207	-0.037292	0.365726
C73	C	-0.351985	-0.371248	-0.327398
C74	C	-0.018652	-0.037915	0.005936
C75	C	0.314681	0.295419	0.339269
C76	C	-0.348865	-0.298026	-0.324502
C77	C	-0.015531	0.035307	0.008832
C78	C	0.317802	0.368641	0.342165
C79	C	-0.438658	-0.294208	-0.407765
C80	C	-0.105325	0.039125	-0.074432
C81	C	0.228009	0.372459	0.258901
C82	C	-0.441782	-0.367426	-0.410657
C83	C	-0.108449	-0.034093	-0.077323
C84	C	0.224884	0.299241	0.256010
C85	C	-0.398443	-0.405942	-0.370476
C86	C	-0.065110	-0.072609	-0.037142
C87	C	0.268224	0.260724	0.296191
C88	C	-0.360474	-0.517379	-0.335266
C89	C	-0.027141	-0.184045	-0.001932
C90	C	0.306193	0.149288	0.331401
C91	C	-0.401637	-0.480781	-0.373440
C92	C	-0.068304	-0.147448	-0.040106
C93	C	0.265029	0.185885	0.293227
C94	C	-0.563189	-0.990873	-0.360944
C95	C	-0.229856	-0.657540	-0.027610
C96	C	0.103477	-0.324206	0.305723
C97	C	-0.641115	-0.987578	-0.363791
C98	C	-0.307781	-0.654244	-0.030457
C99	C	0.025552	-0.320911	0.302876
C100	C	-0.679632	-1.030885	-0.326876
C101	C	-0.346299	-0.697552	0.006457
C102	C	-0.012966	-0.364218	0.339791
C103	C	-0.752851	-1.027790	-0.329558
C104	C	-0.419518	-0.694457	0.003776
C105	C	-0.086185	-0.361123	0.337109
C106	C	-0.787551	-0.981384	-0.369151
C107	C	-0.454218	-0.648050	-0.035817
C108	C	-0.120885	-0.314717	0.297516
C109	C	-0.749029	-0.938074	-0.406069
C110	C	-0.415695	-0.604741	-0.072736
C111	C	-0.082362	-0.271408	0.260597
C112	C	-0.675811	-0.941173	-0.403391
C113	C	-0.342478	-0.607840	-0.070057
C114	C	-0.009144	-0.274507	0.263276
C115	C	-1.008526	-0.969786	-0.379155
C116	C	-0.675192	-0.636452	-0.045822
C117	C	-0.341859	-0.303119	0.287512
C118	C	-1.081749	-0.966688	-0.381829
C119	C	-0.748415	-0.633355	-0.048496
C120	C	-0.415082	-0.300022	0.284837
C121	C	-1.085566	-1.056405	-0.305318
C122	C	-0.752233	-0.723072	0.028015
C123	C	-0.418900	-0.389739	0.361348
C124	C	-1.012347	-1.059497	-0.302640
C125	C	-0.679014	-0.726164	0.030693
C126	C	-0.345680	-0.392831	0.364026
C127	C	-0.973831	-1.016191	-0.339561
C128	C	-0.640497	-0.682857	-0.006228
C129	C	-0.307164	-0.349524	0.327105
C130	C	-0.862393	-0.978217	-0.371891
C131	C	-0.529060	-0.644884	-0.038558
C132	C	-0.195726	-0.311551	0.294776
C133	C	-0.898991	-1.019361	-0.336824
C134	C	-0.565657	-0.686028	-0.003491
C135	C	-0.232324	-0.352694	0.329843
C136	C	-0.198188	-1.006628	-0.347732
C137	C	0.135145	-0.673295	-0.014399
C138	C	0.468478	-0.339961	0.318934
C139	C	-0.120266	-1.009996	-0.344915
C140	C	0.213067	-0.676662	-0.011582
C141	C	0.546400	-0.343329	0.321752
C142	C	-0.381003	-0.998783	-0.517767
C143	C	-0.047670	-0.665449	-0.184434
C144	C	0.285664	-0.332116	0.148899
C145	C	-0.380986	-0.998807	-0.587409
C146	C	-0.047652	-0.665474	-0.254076
C147	C	0.285681	-0.332140	0.079258
C148	C	-0.388871	-0.181585	-0.361607
C149	C	-0.055537	0.151749	-0.028274
C150	C	0.277796	0.485082	0.305059
C151	C	-0.392197	-0.259509	-0.364683
C152	C	-0.058863	0.073824	-0.031350
C153	C	0.274470	0.407158	0.301983
C154	C	-0.334222	-0.955918	-0.616708
C155	C	-0.000889	-0.622584	-0.283375
C156	C	0.332444	-0.289251	0.049958
C157	C	-0.334209	-0.955916	-0.682143
C158	C	-0.000876	-0.622582	-0.348810
C159	C	0.332457	-0.289249	-0.015477
C160	C	-0.380952	-0.998816	-0.718277
C161	C	-0.047619	-0.665483	-0.384943
C162	C	0.285714	-0.332149	-0.051610
C163	C	-0.427724	-1.041708	-0.688970
C164	C	-0.094391	-0.708375	-0.355636
C165	C	0.238942	-0.375041	-0.022303
C166	C	-0.427741	-1.041704	-0.623536
C167	C	-0.094408	-0.708370	-0.290203
C168	C	0.238926	-0.375037	0.043131
C169	C	-0.389164	-1.061747	-0.824669
C170	C	-0.055831	-0.728414	-0.491335
C171	C	0.277502	-0.395081	-0.158002
C172	C	-0.389143	-1.061753	-0.890101
C173	C	-0.055810	-0.728420	-0.556768
C174	C	0.277524	-0.395087	-0.223435
C175	C	-0.380906	-0.998830	-0.920096
C176	C	-0.047572	-0.665496	-0.586763
C177	C	0.285761	-0.332163	-0.253429
C178	C	-0.372675	-0.935899	-0.884650
C179	C	-0.039342	-0.602566	-0.551317
C180	C	0.293992	-0.269232	-0.217983
C181	C	-0.372691	-0.935894	-0.819216
C182	C	-0.039358	-0.602561	-0.485883
C183	C	0.293975	-0.269228	-0.152550
C184	C	-0.380940	-0.998826	-0.789229
C185	C	-0.047607	-0.665492	-0.455895
C186	C	0.285727	-0.332159	-0.122562
C187	C	-0.334126	-0.955935	-1.020347
C188	C	-0.000793	-0.622601	-0.687014
C189	C	0.332541	-0.289268	-0.353681
C190	C	-0.334118	-0.955932	-1.085783
C191	C	-0.000784	-0.622598	-0.752450
C192	C	0.332549	-0.289265	-0.419117
C193	C	-0.427629	-1.041730	-1.092609
C194	C	-0.094296	-0.708397	-0.759275
C195	C	0.239037	-0.375064	-0.425942
C196	C	-0.427641	-1.041727	-1.027174
C197	C	-0.094308	-0.708394	-0.693840
C198	C	0.239026	-0.375060	-0.360507
C199	C	-0.380885	-0.998830	-0.991047
C200	C	-0.047552	-0.665497	-0.657713
C201	C	0.285781	-0.332164	-0.324380
C202	C	-0.381036	-0.998711	-0.191555
C203	C	-0.047703	-0.665378	0.141778
C204	C	0.285630	-0.332045	0.475112
C205	C	-0.380862	-0.998831	-0.121912
C206	C	-0.047529	-0.665498	0.211421
C207	C	0.285805	-0.332165	0.544754
H208	H	-0.322650	-0.489118	-0.300189
H209	H	0.010684	-0.155785	0.033144
H210	H	0.344017	0.177548	0.366477
H211	H	-0.445415	-0.595561	-0.414025
H212	H	-0.112081	-0.262228	-0.080692
H213	H	0.221252	0.071106	0.252642
C214	C	-0.398196	-1.130978	-0.929086
C215	C	-0.064863	-0.797645	-0.595752
C216	C	0.268471	-0.464311	-0.262419
N217	N	-0.405016	-1.183120	-0.958447
N218	N	-0.071683	-0.849787	-0.625114
N219	N	0.261650	-0.516453	-0.291781
C220	C	-0.464364	-0.738299	-0.431590
C221	C	-0.131031	-0.404965	-0.098257
C222	C	0.202302	-0.071632	0.235077
N223	N	-0.502858	-0.767041	-0.467288
N224	N	-0.169524	-0.433707	-0.133955
N225	N	0.163809	-0.100374	0.199379
C226	C	-0.633442	-0.893532	-0.444000
C227	C	-0.300109	-0.560199	-0.110667
C228	C	0.033225	-0.226865	0.222667
N229	N	-0.601530	-0.857649	-0.474590
N230	N	-0.268197	-0.524316	-0.141257
N231	N	0.065136	-0.190982	0.192077
C232	C	-0.398230	-1.130972	-0.791682
C233	C	-0.064897	-0.797639	-0.458348
C234	C	0.268436	-0.464306	-0.125015
N235	N	-0.405060	-1.183111	-0.766836
N236	N	-0.071727	-0.849777	-0.433503
N237	N	0.261607	-0.516444	-0.100170
C238	C	-0.795217	-1.075428	-0.288944
C239	C	-0.461884	-0.742094	0.044389
C240	C	-0.128551	-0.408761	0.377722
N241	N	-0.827127	-1.111309	-0.258351
N242	N	-0.493794	-0.777976	0.074982
N243	N	-0.160460	-0.444643	0.408315
H244	H	-0.465687	-1.076662	-1.122028
H245	H	-0.132354	-0.743329	-0.788694
H246	H	0.200980	-0.409995	-0.455361
H247	H	-0.777287	-0.900292	-0.438310
H248	H	-0.443954	-0.566959	-0.104976
H249	H	-0.110621	-0.233626	0.228357
C250	C	-0.900570	-0.927163	-0.415435
C251	C	-0.567237	-0.593830	-0.082102
C252	C	-0.233903	-0.260497	0.251232
N253	N	-0.929327	-0.888708	-0.448231
N254	N	-0.595994	-0.555375	-0.114898
N255	N	-0.262661	-0.222042	0.218435
C256	C	-0.282795	-0.908724	-0.576972
C257	C	0.050538	-0.575391	-0.243639
C258	C	0.383871	-0.242057	0.089694
N259	N	-0.244062	-0.873176	-0.547042
N260	N	0.089272	-0.539842	-0.213709
N261	N	0.422605	-0.206509	0.119624
C262	C	-0.641469	-1.081935	-0.283319
C263	C	-0.308136	-0.748601	0.050015
C264	C	0.025198	-0.415268	0.383348
N265	N	-0.612727	-1.120388	-0.250511
N266	N	-0.279393	-0.787055	0.082822
N267	N	0.053940	-0.453722	0.416155
C268	C	-0.282761	-0.908736	-0.714379
C269	C	0.050572	-0.575403	-0.381046
C270	C	0.383905	-0.242069	-0.047713
N271	N	-0.244009	-0.873201	-0.738658
N272	N	0.089325	-0.539868	-0.405325
N273	N	0.422658	-0.206535	-0.071991
H274	H	-0.984096	-1.097285	-0.270401
H275	H	-0.650763	-0.763952	0.062933
H276	H	-0.317429	-0.430618	0.396266
C277	C	-0.492892	-0.405590	-0.458044
C278	C	-0.159559	-0.072256	-0.124711
C279	C	0.173775	0.261077	0.208623
N280	N	-0.531392	-0.434334	-0.493735
N281	N	-0.198059	-0.101001	-0.160401
N282	N	0.135275	0.232332	0.172932
H283	H	-0.365991	-0.884654	-0.790359
H284	H	-0.032658	-0.551321	-0.457025
H285	H	0.300676	-0.217987	-0.123692
H286	H	-0.465783	-1.076638	-0.718394
H287	H	-0.132450	-0.743304	-0.385060
H288	H	0.200884	-0.409971	-0.051727
H289	H	-0.465820	-1.076632	-0.599681
H290	H	-0.132487	-0.743299	-0.266348
H291	H	0.200846	-0.409966	0.066985
C292	C	-0.363620	-0.866676	-0.917639
C293	C	-0.030287	-0.533343	-0.584306
C294	C	0.303047	-0.200009	-0.250973
N295	N	-0.356801	-0.814539	-0.942490
N296	N	-0.023468	-0.481206	-0.609156
N297	N	0.309866	-0.147873	-0.275823
H298	H	-0.296039	-0.921001	-1.109637
H299	H	0.037294	-0.587667	-0.776304
H300	H	0.370627	-0.254334	-0.442971
C301	C	-0.486323	-0.251835	-0.451966
C302	C	-0.152989	0.081499	-0.118633
C303	C	0.180344	0.414832	0.214701
N304	N	-0.522223	-0.219919	-0.485262
N305	N	-0.188890	0.113414	-0.151928
N306	N	0.144444	0.446748	0.181405
H307	H	-0.311026	-0.269776	-0.289425
H308	H	0.022308	0.063557	0.043908
H309	H	0.355641	0.396890	0.377242
C310	C	-0.275793	-0.746327	-0.256736
C311	C	0.057540	-0.412993	0.076597
C312	C	0.390874	-0.079660	0.409930
N313	N	-0.239888	-0.778238	-0.223441
N314	N	0.093446	-0.444905	0.109892
N315	N	0.426779	-0.111571	0.443226
C316	C	-0.452741	-0.518953	-0.420824
C317	C	-0.119407	-0.185620	-0.087490
C318	C	0.213926	0.147714	0.245843
N319	N	-0.491235	-0.547710	-0.456511
N320	N	-0.157902	-0.214377	-0.123178
N321	N	0.175432	0.118957	0.210156
C322	C	-1.127940	-1.104041	-0.264710
C323	C	-0.794607	-0.770708	0.068623
C324	C	-0.461274	-0.437375	0.401957
N325	N	-1.159856	-1.139924	-0.234123
N326	N	-0.826523	-0.806591	0.099210
N327	N	-0.493190	-0.473258	0.432543
H328	H	-0.316701	-0.402599	-0.294675
H329	H	0.016632	-0.069266	0.038659
H330	H	0.349966	0.264068	0.371992
H331	H	-0.282505	-0.602484	-0.262970
H332	H	0.050828	-0.269150	0.070364
H333	H	0.384161	0.064183	0.403697
H334	H	-1.109999	-0.928907	-0.414082
H335	H	-0.776666	-0.595574	-0.080749
H336	H	-0.443333	-0.262240	0.252585
C337	C	-0.282701	-0.908741	-0.980605
C338	C	0.050632	-0.575407	-0.647272
C339	C	0.383965	-0.242074	-0.313939
N340	N	-0.243969	-0.873192	-0.950673
N341	N	0.089364	-0.539859	-0.617340
N342	N	0.422697	-0.206525	-0.284007
H343	H	-0.465719	-1.076654	-1.003318
H344	H	-0.132386	-0.743321	-0.669985
H345	H	0.200948	-0.409987	-0.336651
H346	H	-0.977171	-0.934522	-0.409216
H347	H	-0.643838	-0.601189	-0.075883
H348	H	-0.310505	-0.267856	0.257450
H349	H	-0.870736	-1.057148	-0.304590
H350	H	-0.537403	-0.723815	0.028744
H351	H	-0.204069	-0.390481	0.362077
