data_functionalizedCrystal
_audit_creation_method	'MofGen! by Chris Wilmer'
_symmetry_space_group_name_H-M	'P1'
_symmetry_Int_Tables_number	1
_symmetry_cell_setting	triclinic
loop_
_symmetry_equiv_pos_as_xyz
  x,y,z
_cell_length_a	17.699083
_cell_length_b	17.699083
_cell_length_c	16.176319
_cell_angle_alpha	89.994467
_cell_angle_beta	90.002042
_cell_angle_gamma	83.283015
loop_
_atom_site_label
_atom_site_type_symbol
_atom_site_fract_x
_atom_site_fract_y
_atom_site_fract_z
O1	O	1.004076	0.095699	0.068716
O2	O	1.504076	0.595699	0.568716
O3	O	0.783698	0.108151	0.068725
O4	O	1.283698	0.608151	0.568725
O5	O	0.900113	-0.008264	0.068713
O6	O	1.400113	0.491736	0.568713
O7	O	0.887661	0.212114	0.068728
O8	O	1.387661	0.712114	0.568728
O9	O	0.900102	-0.008243	-0.068781
O10	O	1.400102	0.491757	0.431219
O11	O	0.783687	0.108172	-0.068768
O12	O	1.283687	0.608172	0.431232
O13	O	1.004065	0.095720	-0.068777
O14	O	1.504065	0.595720	0.431223
Cu15	Cu	0.893875	0.101948	-0.081327
Cu16	Cu	1.393875	0.601948	0.418673
Cu17	Cu	0.893888	0.101923	0.081274
Cu18	Cu	1.393888	0.601923	0.581274
O19	O	0.887650	0.212135	-0.068765
O20	O	1.387650	0.712135	0.431235
C21	C	0.899662	-0.036451	-0.000034
C22	C	1.399662	0.463549	0.499966
C23	C	0.898323	-0.120469	-0.000034
C24	C	1.398323	0.379531	0.499966
C25	C	0.755495	0.107716	-0.000021
C26	C	1.255495	0.607716	0.499979
C27	C	0.671477	0.106377	-0.000018
C28	C	1.171477	0.606377	0.499982
C29	C	0.966656	-0.169090	-0.000038
C30	C	1.466656	0.330910	0.499962
C31	C	0.965394	-0.248033	-0.000031
C32	C	1.465394	0.251967	0.499969
C33	C	0.895798	-0.278354	-0.000025
C34	C	1.395798	0.221646	0.499975
C35	C	0.827459	-0.229727	-0.000019
C36	C	1.327459	0.270273	0.499981
C37	C	0.828722	-0.150785	-0.000020
C38	C	1.328722	0.349215	0.499980
C39	C	0.822364	-0.548090	-0.000012
C40	C	1.322364	-0.048090	0.499988
C41	C	0.821106	-0.627038	-0.000013
C42	C	1.321106	-0.127038	0.499987
C43	C	0.959036	-0.645338	-0.000023
C44	C	1.459036	-0.145338	0.499977
C45	C	0.960299	-0.566396	-0.000024
C46	C	1.460299	-0.066396	0.499976
C47	C	0.891961	-0.517776	-0.000013
C48	C	1.391961	-0.017776	0.499987
C49	C	0.893330	-0.432177	-0.000020
C50	C	1.393330	0.067823	0.499980
C51	C	0.894427	-0.363951	-0.000025
C52	C	1.394427	0.136049	0.499975
C53	C	1.032268	0.096156	-0.000030
C54	C	1.532268	0.596156	0.499970
C55	C	1.116286	0.097494	-0.000028
C56	C	1.616286	0.597494	0.499972
C57	C	1.164907	0.029161	-0.000030
C58	C	1.664907	0.529161	0.499970
C59	C	1.243850	0.030423	-0.000032
C60	C	1.743850	0.530423	0.499968
C61	C	1.274171	0.100020	-0.000027
C62	C	1.774171	0.600020	0.499973
C63	C	1.225544	0.168358	-0.000028
C64	C	1.725544	0.668358	0.499972
C65	C	1.146602	0.167095	-0.000031
C66	C	1.646602	0.667095	0.499969
C67	C	1.543907	0.173453	-0.000016
C68	C	2.043907	0.673453	0.499984
C69	C	1.622855	0.174711	-0.000010
C70	C	2.122855	0.674711	0.499990
C71	C	1.641155	0.036781	-0.000017
C72	C	2.141155	0.536781	0.499983
C73	C	1.562213	0.035518	-0.000020
C74	C	2.062213	0.535518	0.499980
C75	C	1.513593	0.103857	-0.000025
C76	C	2.013593	0.603857	0.499975
C77	C	1.427994	0.102487	-0.000024
C78	C	1.927994	0.602487	0.499976
C79	C	1.359769	0.101390	-0.000023
C80	C	1.859769	0.601390	0.499977
C81	C	0.888102	0.240322	-0.000017
C82	C	1.388102	0.740322	0.499983
C83	C	0.889440	0.324340	-0.000011
C84	C	1.389440	0.824340	0.499989
N85	N	0.893871	0.101965	-0.195692
N86	N	1.393871	0.601965	0.304308
C87	C	0.848080	0.056059	-0.761084
C88	C	1.348080	0.556059	-0.261084
C89	C	0.848079	0.056065	-0.674537
C90	C	1.348079	0.556065	-0.174537
C91	C	0.893891	0.101917	-0.631268
C92	C	1.393891	0.601917	-0.131268
C93	C	0.939714	0.147759	-0.674550
C94	C	1.439714	0.647759	-0.174550
C95	C	0.939719	0.147749	-0.761096
C96	C	1.439719	0.647749	-0.261096
C97	C	0.939696	0.147802	-0.325522
C98	C	1.439696	0.647802	0.174478
C99	C	0.939685	0.147811	-0.238971
C100	C	1.439685	0.647811	0.261029
C101	C	0.848055	0.056118	-0.238963
C102	C	1.348055	0.556118	0.261037
C103	C	0.848060	0.056108	-0.325508
C104	C	1.348060	0.556108	0.174492
C105	C	0.893886	0.101947	-0.368783
C106	C	1.393886	0.601947	0.131217
C107	C	0.893888	0.101939	-0.462628
C108	C	1.393888	0.601939	0.037372
C109	C	0.893886	0.101929	-0.537425
C110	C	1.393886	0.601929	-0.037425
N111	N	0.893898	0.101900	0.195640
N112	N	1.393898	0.601900	0.695640
H113	H	1.023330	-0.144409	-0.000048
H114	H	1.523330	0.355591	0.499952
C115	C	0.797672	0.005640	-0.626936
C116	C	1.297672	0.505640	-0.126936
N117	N	0.759703	-0.032343	-0.591084
N118	N	1.259703	0.467657	-0.091084
H119	H	1.647538	0.231388	-0.000010
H120	H	2.147538	0.731388	0.499990
C121	C	0.750902	-0.263082	-0.000020
C122	C	1.250902	0.236918	0.499980
N123	N	0.693238	-0.288205	-0.000027
N124	N	1.193238	0.211795	0.499973
H125	H	1.680751	-0.018863	-0.000016
H126	H	2.180751	0.481137	0.499984
C127	C	0.797681	0.005618	-0.808671
C128	C	1.297681	0.505618	-0.308671
N129	N	0.759722	-0.032378	-0.844512
N130	N	1.259722	0.467622	-0.344512
H131	H	0.810744	0.018791	-0.203718
H132	H	1.310744	0.518791	0.296282
H133	H	1.014680	-0.684934	-0.000027
H134	H	1.514680	-0.184934	0.499973
H135	H	1.107015	0.222739	-0.000033
H136	H	1.607015	0.722739	0.499967
C137	C	0.990091	0.198248	-0.191377
C138	C	1.490091	0.698248	0.308623
N139	N	1.028055	0.236234	-0.155529
N140	N	1.528055	0.736234	0.344471
H141	H	0.977029	0.185077	-0.796331
H142	H	1.477029	0.685077	-0.296331
H143	H	0.810752	0.018774	-0.360734
H144	H	1.310752	0.518774	0.139266
H145	H	1.504329	0.229099	-0.000016
H146	H	2.004329	0.729099	0.499984
C147	C	0.990070	0.198262	-0.373114
C148	C	1.490070	0.698262	0.126886
N149	N	1.028002	0.236283	-0.408963
N150	N	1.528002	0.736283	0.091037
C151	C	1.131562	-0.047402	-0.000037
C152	C	1.631562	0.452598	0.499963
N153	N	1.106449	-0.105072	-0.000047
N154	N	1.606449	0.394928	0.499953
H155	H	0.773078	-0.111198	-0.000017
H156	H	1.273078	0.388802	0.499983
C157	C	1.528865	-0.041043	-0.000032
C158	C	2.028865	0.458957	0.499968
N159	N	1.503749	-0.098711	-0.000048
N160	N	2.003749	0.401289	0.499952
H161	H	1.021038	-0.287618	-0.000036
H162	H	1.521038	0.212382	0.499964
C163	C	1.258899	0.244915	-0.000025
C164	C	1.758899	0.744915	0.499975
N165	N	1.284022	0.302580	-0.000020
N166	N	1.784022	0.802580	0.499980
H167	H	0.977019	0.185089	-0.639314
H168	H	1.477019	0.685089	-0.139314
H169	H	0.764429	-0.651721	-0.000010
H170	H	1.264429	-0.151721	0.499990
C171	C	1.036860	-0.533048	-0.000030
C172	C	1.536860	-0.033048	0.499970
N173	N	1.094528	-0.507932	-0.000031
N174	N	1.594528	-0.007932	0.499969
C175	C	0.747189	-0.494617	0.000004
C176	C	1.247189	0.005383	0.500004
N177	N	0.690564	-0.454339	0.000019
N178	N	1.190564	0.045661	0.500019
C179	C	1.297330	-0.044749	-0.000034
C180	C	1.797330	0.455251	0.499966
N181	N	1.337612	-0.101373	-0.000035
N182	N	1.837612	0.398627	0.499965
