data_functionalizedCrystal
_audit_creation_method	'MofGen! by Chris Wilmer'
_symmetry_space_group_name_H-M	'P1'
_symmetry_Int_Tables_number	1
_symmetry_cell_setting	triclinic
loop_
_symmetry_equiv_pos_as_xyz
  x,y,z
_cell_length_a	6.817900
_cell_length_b	11.102188
_cell_length_c	9.582880
_cell_angle_alpha	90.973498
_cell_angle_beta	111.207034
_cell_angle_gamma	108.603875
loop_
_atom_site_label
_atom_site_type_symbol
_atom_site_fract_x
_atom_site_fract_y
_atom_site_fract_z
V1	V	-4.142606	-0.175303	-0.466601
O2	O	-4.101057	0.008976	-0.457719
O3	O	-4.119161	-0.348126	-0.463410
O4	O	-4.132944	-0.172364	-0.670102
O5	O	-4.087178	-0.168003	-0.249596
V6	V	-4.617980	-0.153289	-0.440646
O7	O	-4.421738	-0.223590	-0.523537
O8	O	-4.789045	-0.105002	-0.383710
O9	O	-4.418219	0.019534	-0.443837
O10	O	-4.776927	-0.337568	-0.449528
O11	O	-4.790805	-0.160589	-0.657651
O12	O	-4.404435	-0.156228	-0.237145
C13	C	-3.968979	-0.390265	-0.456050
C14	C	-4.031355	-0.531549	-0.454797
C15	C	-3.991361	-0.579932	-0.317163
C16	C	-4.049994	-0.712685	-0.315992
C17	C	-4.188608	-0.748660	-0.590101
C18	C	-4.129990	-0.615910	-0.591271
C19	C	-3.986559	-0.166061	-0.719704
C20	C	-4.060109	-0.164801	-0.886067
C21	C	-4.231743	0.061666	-0.451194
C22	C	-4.148607	0.202949	-0.452456
C23	C	-4.214161	-0.162535	-0.187536
C24	C	-4.119849	-0.163788	-0.021171
H25	H	-4.017425	-0.752072	-0.203917
H26	H	-4.268919	-0.817362	-0.701213
H27	H	-4.162574	-0.576518	-0.703356
Br28	Br	-3.857507	-0.465446	-0.131950
