data_functionalizedCrystal
_audit_creation_method	'MofGen! by Chris Wilmer'
_symmetry_space_group_name_H-M	'P1'
_symmetry_Int_Tables_number	1
_symmetry_cell_setting	triclinic
loop_
_symmetry_equiv_pos_as_xyz
  x,y,z
_cell_length_a	16.956995
_cell_length_b	8.597304
_cell_length_c	15.455313
_cell_angle_alpha	85.021039
_cell_angle_beta	87.515363
_cell_angle_gamma	80.732763
loop_
_atom_site_label
_atom_site_type_symbol
_atom_site_fract_x
_atom_site_fract_y
_atom_site_fract_z
O1	O	1.062188	0.057230	-0.076467
O2	O	0.830655	0.111859	-0.080537
O3	O	0.950172	-0.142792	-0.061511
O4	O	0.942672	0.311881	-0.095493
O5	O	0.943336	-0.128286	0.081668
O6	O	0.823819	0.126365	0.062641
O7	O	1.055353	0.071736	0.066712
Cu8	Cu	0.938962	0.100375	0.077750
Cu9	Cu	0.947046	0.083220	-0.091575
O10	O	0.935836	0.326387	0.047686
C11	C	0.797561	0.121909	-0.009155
C12	C	0.709135	0.130225	-0.009772
C13	C	0.210547	0.192432	-0.014454
C14	C	0.293633	0.184606	-0.013868
C15	C	0.343043	0.037717	-0.002883
C16	C	0.309364	-0.101357	0.007508
C17	C	0.226280	-0.093530	0.006916
C18	C	0.592372	-0.001022	0.000027
C19	C	0.675461	-0.008838	0.000621
C20	C	0.659724	0.277126	-0.020757
C21	C	0.576639	0.284940	-0.021343
C22	C	0.542968	0.145866	-0.010956
N23	N	0.427970	0.029715	-0.002282
N24	N	0.458042	0.153869	-0.011564
C25	C	0.945568	-0.193445	0.014405
C26	C	0.942025	-0.365986	0.027295
C27	C	1.088447	0.061685	-0.004672
C28	C	1.176873	0.053369	-0.004061
C29	C	0.940440	0.377040	-0.028232
C30	C	0.943983	0.549580	-0.041128
N31	N	0.933283	0.112439	0.196844
N32	N	0.952731	0.071143	-0.210668
C33	C	0.984076	0.004289	0.250319
C34	C	0.979788	0.013426	0.340444
C35	C	0.924710	0.130721	0.377092
C36	C	0.873912	0.238876	0.323611
C37	C	0.878196	0.229731	0.233488
C38	C	0.906217	0.170153	0.645728
C39	C	0.901938	0.179293	0.735857
C40	C	1.007814	-0.046160	0.752684
C41	C	1.012097	-0.055289	0.662558
C42	C	0.961295	0.052861	0.609085
N43	N	0.920328	0.140066	0.469214
N44	N	0.965674	0.043507	0.516965
H45	H	0.321046	0.297845	-0.022339
Cl46	Cl	0.702059	0.451950	-0.033821
H47	H	0.857085	0.274815	0.765691
H48	H	0.864853	0.258216	0.602196
Cl49	Cl	1.053325	-0.143169	0.204256
Cl50	Cl	0.935237	-0.458170	0.132980
Cl51	Cl	0.804666	0.386329	0.369682
H52	H	0.948369	-0.390708	-0.109574
H53	H	1.021148	-0.074639	0.383983
Cl54	Cl	1.081339	-0.202745	0.616486
H55	H	0.836834	0.317796	0.189949
Cl56	Cl	1.071672	-0.182117	0.819911
H57	H	0.715691	-0.128459	0.009563
H58	H	0.198865	-0.206770	0.015378
Cl59	Cl	0.514529	0.469608	-0.035160
Cl60	Cl	0.148438	0.377104	-0.028257
H61	H	0.349601	-0.220958	0.016447
Cl62	Cl	0.550055	-0.175861	0.013065
