data_functionalizedCrystal
_audit_creation_method	'MofGen! by Chris Wilmer'
_symmetry_space_group_name_H-M	'P1'
_symmetry_Int_Tables_number	1
_symmetry_cell_setting	triclinic
loop_
_symmetry_equiv_pos_as_xyz
  x,y,z
_cell_length_a	8.597340
_cell_length_b	13.596369
_cell_length_c	8.559649
_cell_angle_alpha	89.998986
_cell_angle_beta	77.625043
_cell_angle_gamma	82.303879
loop_
_atom_site_label
_atom_site_type_symbol
_atom_site_fract_x
_atom_site_fract_y
_atom_site_fract_z
O1	O	2.053703	-0.092256	0.238048
O2	O	2.553703	0.407744	0.738048
O3	O	1.594580	-0.053346	0.256305
O4	O	2.094580	0.446654	0.756305
O5	O	1.864591	-0.076230	0.015207
O6	O	2.364591	0.423770	0.515207
O7	O	1.783692	-0.069372	0.479146
O8	O	2.283692	0.430628	0.979146
O9	O	1.864559	-0.239810	0.015220
O10	O	2.364559	0.260190	0.515220
O11	O	1.594548	-0.216926	0.256319
O12	O	2.094548	0.283074	0.756319
O13	O	2.053672	-0.255836	0.238061
O14	O	2.553672	0.244164	0.738061
Zn15	Zn	1.824105	-0.262353	0.247192
Zn16	Zn	2.324105	0.237647	0.747192
Zn17	Zn	1.824146	-0.046829	0.247175
Zn18	Zn	2.324146	0.453171	0.747175
O19	O	1.783661	-0.232952	0.479160
O20	O	2.283661	0.267048	0.979160
C21	C	1.536330	-0.130201	0.254350
C22	C	2.036330	0.369799	0.754350
C23	C	1.362814	-0.115495	0.248486
C24	C	1.862814	0.384505	0.748486
N25	N	1.824089	-0.409444	0.247203
N26	N	2.324089	0.090556	0.747203
C27	C	1.824096	-0.498442	0.247207
C28	C	2.324096	0.001558	0.747207
C29	C	1.824113	-0.610095	0.247196
C30	C	2.324113	-0.110095	0.747196
C31	C	1.824135	-0.699087	0.247178
C32	C	2.324135	-0.199087	0.747178
C33	C	1.824154	-0.810747	0.247169
C34	C	2.324154	-0.310747	0.747169
C35	C	2.111922	-0.178979	0.240016
C36	C	2.611922	0.321021	0.740016
C37	C	2.285438	-0.193678	0.245881
C38	C	2.785438	0.306322	0.745881
C39	C	1.870706	-0.158538	-0.044220
C40	C	2.370706	0.341462	0.455780
C41	C	1.888955	-0.160079	-0.221315
C42	C	2.388955	0.339921	0.278685
N43	N	1.824177	0.100260	0.247151
N44	N	2.324177	0.600260	0.747151
C45	C	1.777546	-0.150642	0.538587
C46	C	2.277546	0.349358	1.038587
C47	C	1.759297	-0.149095	0.715682
C48	C	2.259297	0.350905	1.215682
H49	H	1.296307	-0.037300	0.246230
H50	H	1.796307	0.462700	0.746230
H51	H	2.013929	-0.170678	-0.302868
H52	H	2.513929	0.329322	0.197132
H53	H	1.634331	-0.138507	-0.202774
H54	H	2.134331	0.361493	0.297226
H55	H	1.351940	-0.271868	0.248125
H56	H	1.851940	0.228132	0.748125
