data_functionalizedCrystal
_audit_creation_method	'MofGen! by Chris Wilmer'
_symmetry_space_group_name_H-M	'P1'
_symmetry_Int_Tables_number	1
_symmetry_cell_setting	triclinic
loop_
_symmetry_equiv_pos_as_xyz
  x,y,z
_cell_length_a	12.837932
_cell_length_b	12.837942
_cell_length_c	11.892095
_cell_angle_alpha	85.697431
_cell_angle_beta	94.311455
_cell_angle_gamma	94.829322
loop_
_atom_site_label
_atom_site_type_symbol
_atom_site_fract_x
_atom_site_fract_y
_atom_site_fract_z
O1	O	-1.408370	-0.266118	-0.094005
O2	O	-0.908370	0.233882	0.405995
O3	O	-1.105236	-0.252673	-0.094007
O4	O	-0.605236	0.247327	0.405993
O5	O	-1.250081	-0.107829	-0.093999
O6	O	-0.750081	0.392171	0.406001
O7	O	-1.263525	-0.410962	-0.094013
O8	O	-0.763525	0.089038	0.405987
O9	O	-1.238002	-0.119885	0.094008
O10	O	-0.738002	0.380115	0.594008
O11	O	-1.093157	-0.264729	0.094000
O12	O	-0.593157	0.235271	0.594000
O13	O	-1.396291	-0.278175	0.094002
O14	O	-0.896291	0.221825	0.594002
Zn15	Zn	-1.242807	-0.273366	0.123851
Zn16	Zn	-0.742807	0.226634	0.623851
Zn17	Zn	-1.258721	-0.257481	-0.123856
Zn18	Zn	-0.758721	0.242519	0.376144
O19	O	-1.251446	-0.423018	0.093994
O20	O	-0.751446	0.076982	0.593994
C21	C	-1.060128	-0.254159	-0.000004
C22	C	-0.560128	0.245841	0.499996
C23	C	-0.943712	-0.240614	-0.000004
C24	C	-0.443712	0.259386	0.499996
C25	C	-1.239500	-0.074788	0.000004
C26	C	-0.739500	0.425212	0.500004
C27	C	-1.225956	0.041627	0.000002
C28	C	-0.725956	0.541627	0.500002
C29	C	-1.441400	-0.276688	-0.000004
C30	C	-0.941400	0.223312	0.499996
C31	C	-1.557816	-0.290233	-0.000011
C32	C	-1.057816	0.209767	0.499989
C33	C	-0.782686	-0.127402	0.000003
C34	C	-0.282686	0.372598	0.500003
C35	C	-0.892069	-0.140122	0.000002
C36	C	-0.392069	0.359878	0.500002
C37	C	-0.885965	-0.328393	-0.000006
C38	C	-0.385965	0.171607	0.499994
C39	C	-0.776583	-0.315673	-0.000005
C40	C	-0.276583	0.184327	0.499995
C41	C	-0.724947	-0.215174	-0.000002
C42	C	-0.224947	0.284826	0.499998
C43	C	-0.615563	-0.202454	-0.000009
C44	C	-0.115563	0.297546	0.499991
C45	C	-0.609461	-0.390725	-0.000009
C46	C	-0.109461	0.109275	0.499991
C47	C	-0.718844	-0.403445	-0.000010
C48	C	-0.218844	0.096555	0.499990
C49	C	-1.262027	-0.456059	-0.000011
C50	C	-0.762027	0.043941	0.499989
C51	C	-1.275572	-0.572474	-0.000017
C52	C	-0.775572	-0.072474	0.499983
N53	N	-1.231953	-0.284207	0.292904
N54	N	-0.731953	0.215793	0.792904
C55	C	-1.388787	0.266502	-0.000021
C56	C	-0.888787	0.766502	0.499979
C57	C	-1.376066	0.375884	-0.000023
C58	C	-0.876066	0.875884	0.499977
C59	C	-1.187794	0.369778	-0.000012
C60	C	-0.687794	0.869778	0.499988
C61	C	-1.200515	0.260395	-0.000010
C62	C	-0.700515	0.760395	0.499990
C63	C	-1.301015	0.208761	-0.000013
C64	C	-0.801015	0.708761	0.499987
C65	C	-1.313734	0.099376	-0.000003
C66	C	-0.813734	0.599376	0.499997
C67	C	-1.125464	0.093271	-0.000000
C68	C	-0.625464	0.593271	0.500000
C69	C	-1.112743	0.202654	-0.000002
C70	C	-0.612743	0.702654	0.499998
N71	N	-1.269582	-0.246633	-0.292910
N72	N	-0.769582	0.253367	0.207090
C73	C	-1.345101	-0.171137	0.529558
C74	C	-0.845101	0.328863	1.029558
C75	C	-1.337523	-0.178723	0.647900
C76	C	-0.837523	0.321277	1.147900
C77	C	-1.209213	-0.306959	0.647931
C78	C	-0.709213	0.193041	1.147931
C79	C	-1.216791	-0.299373	0.529590
C80	C	-0.716791	0.200627	1.029590
C81	C	-1.284739	-0.231461	0.470407
C82	C	-0.784739	0.268539	0.970407
C83	C	-1.292322	-0.223881	0.352064
C84	C	-0.792322	0.276119	0.852064
C85	C	-1.164008	-0.352110	0.352097
C86	C	-0.664008	0.147890	0.852097
C87	C	-1.156429	-0.359696	0.470439
C88	C	-0.656429	0.140304	0.970439
H89	H	-0.573523	-0.120623	-0.000011
H90	H	-0.073523	0.379377	0.499989
H91	H	-1.347651	-0.168587	0.303879
H92	H	-0.847651	0.331413	0.803879
H93	H	-1.395566	0.057337	-0.000001
H94	H	-0.895566	0.557337	0.499999
H95	H	-1.470617	0.224460	-0.000012
H96	H	-0.970617	0.724460	0.499988
H97	H	-1.386674	-0.129601	0.696057
H98	H	-0.886674	0.370399	1.196057
O99	O	-1.135911	-0.380185	0.711766
O100	O	-0.635911	0.119815	1.211766
H101	H	-1.158748	-0.461666	0.689052
H102	H	-0.658748	0.038334	1.189052
H103	H	-1.114860	-0.401233	0.303923
H104	H	-0.614860	0.098767	0.803923
H105	H	-1.400434	-0.115849	0.481371
H106	H	-0.900434	0.384151	0.981371
H107	H	-0.562438	-0.462195	-0.000014
H108	H	-0.062438	0.037805	0.499986
O109	O	-0.726982	-0.019015	0.000007
O110	O	-0.226982	0.480985	0.500007
H111	H	-0.785509	0.039884	0.000015
H112	H	-0.285509	0.539884	0.500015
O113	O	-1.083153	-0.432949	0.534271
O114	O	-0.583153	0.067051	1.034271
H115	H	-1.088028	-0.428098	0.626500
H116	H	-0.588028	0.071902	1.126500
H117	H	-1.105972	0.411838	-0.000022
H118	H	-0.605972	0.911838	0.499978
O119	O	-0.954350	-0.045456	0.000005
O120	O	-0.454350	0.454544	0.500005
H121	H	-0.900064	0.026561	0.000000
H122	H	-0.400064	0.526561	0.500000
H123	H	-1.030919	0.244710	-0.000005
H124	H	-0.530919	0.744710	0.499995
H125	H	-1.447540	0.422893	-0.000033
H126	H	-0.947540	0.922893	0.499967
O127	O	-0.941666	-0.436782	0.000006
O128	O	-0.441666	0.063218	0.500006
H129	H	-0.996279	-0.442173	-0.076621
H130	H	-0.496279	0.057827	0.423379
O131	O	-0.774537	-0.511837	-0.000017
O132	O	-0.274537	-0.011837	0.499983
H133	H	-0.860299	-0.505938	-0.000023
H134	H	-0.360299	-0.005938	0.499977
H135	H	-1.053993	0.046246	0.000015
H136	H	-0.553993	0.546246	0.500015
