data_functionalizedCrystal
_audit_creation_method	'MofGen! by Chris Wilmer'
_symmetry_space_group_name_H-M	'P1'
_symmetry_Int_Tables_number	1
_symmetry_cell_setting	triclinic
loop_
_symmetry_equiv_pos_as_xyz
  x,y,z
_cell_length_a	13.032831
_cell_length_b	21.295417
_cell_length_c	13.033454
_cell_angle_alpha	82.776573
_cell_angle_beta	89.091650
_cell_angle_gamma	82.833712
loop_
_atom_site_label
_atom_site_type_symbol
_atom_site_fract_x
_atom_site_fract_y
_atom_site_fract_z
Zn1	Zn	1.498454	-0.305622	-0.780811
Zn2	Zn	1.831787	0.027711	-0.447478
Zn3	Zn	2.165120	0.361045	-0.114144
Zn4	Zn	1.520142	-0.425729	-0.608795
Zn5	Zn	1.853476	-0.092396	-0.275462
Zn6	Zn	2.186809	0.240937	0.057871
Zn7	Zn	1.348293	-0.308977	-0.587041
Zn8	Zn	1.681627	0.024356	-0.253707
Zn9	Zn	2.014960	0.357689	0.079626
Zn10	Zn	1.326412	-0.399351	-0.758935
Zn11	Zn	1.659746	-0.066018	-0.425601
Zn12	Zn	1.993079	0.267315	-0.092268
O13	O	1.423325	-0.359920	-0.683895
O14	O	1.756659	-0.026587	-0.350562
O15	O	2.089992	0.306747	-0.017229
O16	O	1.645250	-0.331189	-0.776253
O17	O	1.978583	0.002144	-0.442919
O18	O	2.311917	0.335477	-0.109586
O19	O	1.515580	-0.422686	-0.461982
O20	O	1.848913	-0.089352	-0.128649
O21	O	2.182247	0.243981	0.204685
O22	O	1.368293	-0.220445	-0.612796
O23	O	1.701626	0.112888	-0.279462
O24	O	2.034960	0.446221	0.053871
O25	O	1.661184	-0.419432	-0.649873
O26	O	1.994518	-0.086098	-0.316540
O27	O	2.327851	0.247235	0.016793
O28	O	1.478615	-0.217980	-0.755158
O29	O	1.811949	0.115353	-0.421825
O30	O	2.145282	0.448687	-0.088491
O31	O	1.389323	-0.336908	-0.445999
O32	O	1.722657	-0.003575	-0.112666
O33	O	2.055990	0.329758	0.220668
O34	O	1.201472	-0.311331	-0.591583
O35	O	1.534805	0.022003	-0.258250
O36	O	1.868138	0.355336	0.075084
O37	O	1.331000	-0.374474	-0.905764
O38	O	1.664333	-0.041141	-0.572431
O39	O	1.997667	0.292192	-0.239097
O40	O	1.185396	-0.377728	-0.717873
O41	O	1.518729	-0.044395	-0.384539
O42	O	1.852062	0.288939	-0.051206
O43	O	1.457398	-0.305612	-0.921837
O44	O	1.790731	0.027722	-0.588503
O45	O	2.124065	0.361055	-0.255170
O46	O	1.494363	-0.510317	-0.628661
O47	O	1.827696	-0.176984	-0.295327
O48	O	2.161030	0.156349	0.038006
O49	O	1.352031	-0.490937	-0.738967
O50	O	1.685364	-0.157604	-0.405634
O51	O	2.018697	0.175729	-0.072301
C52	C	1.156117	-0.342032	-0.649994
C53	C	1.489450	-0.008698	-0.316661
C54	C	1.822784	0.324635	0.016673
C55	C	1.041801	-0.334392	-0.635515
C56	C	1.375134	-0.001058	-0.302182
C57	C	1.708468	0.332275	0.031152
C58	C	1.423201	-0.523467	-0.683827
C59	C	1.756534	-0.190134	-0.350493
C60	C	2.089868	0.143199	-0.017160
C61	C	1.423237	-0.593437	-0.683844
C62	C	1.756571	-0.260104	-0.350510
C63	C	2.089904	0.073230	-0.017177
C64	C	0.982921	-0.363907	-0.691452
C65	C	1.316254	-0.030574	-0.358119
C66	C	1.649587	0.302759	-0.024785
C67	C	0.864769	-0.356012	-0.676489
C68	C	1.198102	-0.022679	-0.343155
C69	C	1.531435	0.310655	-0.009822
C70	C	1.480639	-0.624956	-0.758014
C71	C	1.813972	-0.291623	-0.424681
C72	C	2.147305	0.041711	-0.091347
C73	C	1.480672	-0.690699	-0.758044
C74	C	1.814005	-0.357366	-0.424711
C75	C	2.147338	-0.024032	-0.091377
C76	C	1.423317	-0.724922	-0.683887
C77	C	1.756650	-0.391589	-0.350553
C78	C	2.089983	-0.058256	-0.017220
C79	C	1.365903	-0.693395	-0.609710
C80	C	1.699237	-0.360061	-0.276377
C81	C	2.032570	-0.026728	0.056957
C82	C	1.365864	-0.627652	-0.609689
C83	C	1.699197	-0.294319	-0.276355
C84	C	2.032530	0.039015	0.056978
N85	N	1.426973	-0.835434	-0.592892
N86	N	1.760306	-0.502101	-0.259559
N87	N	2.093640	-0.168767	0.073774
N88	N	1.427016	-0.897887	-0.592917
N89	N	1.760349	-0.564553	-0.259583
N90	N	2.093683	-0.231220	0.073750
C91	C	1.423431	-0.923001	-0.683948
C92	C	1.756764	-0.589668	-0.350615
C93	C	2.090098	-0.256334	-0.017282
N94	N	1.419821	-0.883304	-0.774960
N95	N	1.753154	-0.549971	-0.441626
N96	N	2.086487	-0.216637	-0.108293
N97	N	1.419783	-0.820846	-0.774935
N98	N	1.753116	-0.487512	-0.441602
N99	N	2.086450	-0.154179	-0.108268
C100	C	1.423353	-0.796209	-0.683902
C101	C	1.756686	-0.462876	-0.350569
C102	C	2.090020	-0.129542	-0.017235
C103	C	1.480871	-1.025806	-0.758157
C104	C	1.814204	-0.692472	-0.424824
C105	C	2.147537	-0.359139	-0.091490
C106	C	1.480896	-1.091549	-0.758188
C107	C	1.814230	-0.758216	-0.424855
C108	C	2.147563	-0.424882	-0.091521
C109	C	1.366135	-1.094245	-0.609846
C110	C	1.699468	-0.760911	-0.276512
C111	C	2.032801	-0.427578	0.056821
C112	C	1.366103	-1.028501	-0.609823
C113	C	1.699436	-0.695168	-0.276490
C114	C	2.032769	-0.361835	0.056843
C115	C	1.423476	-0.994286	-0.683978
C116	C	1.756810	-0.660953	-0.350645
C117	C	2.090143	-0.327620	-0.017312
C118	C	1.691577	-0.377879	-0.717930
C119	C	2.024911	-0.044545	-0.384597
C120	C	2.358244	0.288788	-0.051263
C121	C	1.805890	-0.385532	-0.732433
C122	C	2.139224	-0.052198	-0.399100
C123	C	2.472557	0.281135	-0.065767
C124	C	1.389339	-0.336726	-0.952162
C125	C	1.722672	-0.003393	-0.618829
C126	C	2.056006	0.329940	-0.285496
C127	C	1.374856	-0.326842	-1.066482
C128	C	1.708189	0.006491	-0.733149
C129	C	2.041523	0.339824	-0.399815
C130	C	1.423476	-0.195734	-0.683990
C131	C	1.756809	0.137599	-0.350657
C132	C	2.090142	0.470933	-0.017324
C133	C	1.423540	-0.125768	-0.684031
C134	C	1.756873	0.207566	-0.350698
C135	C	2.090206	0.540899	-0.017364
C136	C	1.430868	-0.364877	-1.125357
C137	C	1.764202	-0.031543	-0.792024
C138	C	2.097535	0.301790	-0.458691
C139	C	1.415901	-0.354662	-1.243512
C140	C	1.749234	-0.021329	-0.910179
C141	C	2.082568	0.312004	-0.576846
C142	C	1.457239	-0.382982	-0.416680
C143	C	1.790572	-0.049649	-0.083346
C144	C	2.123905	0.283685	0.249987
C145	C	1.471921	-0.392702	-0.302386
C146	C	1.805254	-0.059368	0.030947
C147	C	2.138588	0.273965	0.364281
H148	H	0.827711	-0.324893	-0.617521
H149	H	1.161044	0.008441	-0.284188
H150	H	1.494378	0.341774	0.049145
O151	O	1.509078	-0.418025	-1.076270
O152	O	1.842412	-0.084692	-0.742937
O153	O	2.175745	0.248642	-0.409604
H154	H	1.488817	-0.464484	-1.094569
H155	H	1.822150	-0.131151	-0.761236
H156	H	2.155484	0.202183	-0.427902
H157	H	1.004739	-0.303275	-0.576552
H158	H	1.338072	0.030059	-0.243219
H159	H	1.671405	0.363392	0.090115
H160	H	1.527584	-0.997946	-0.818542
H161	H	1.860918	-0.664613	-0.485208
H162	H	2.194251	-0.331279	-0.151875
O163	O	1.550141	-0.445852	-1.253311
O164	O	1.883475	-0.112518	-0.919978
O165	O	2.216808	0.220815	-0.586644
H166	H	1.529883	-0.492311	-1.271612
H167	H	1.863217	-0.158978	-0.938279
H168	H	2.196550	0.174355	-0.604945
H169	H	1.527353	-0.597100	-0.818397
H170	H	1.860686	-0.263766	-0.485064
H171	H	2.194019	0.069567	-0.151731
H172	H	0.842945	-0.416644	-0.791411
H173	H	1.176278	-0.083311	-0.458078
H174	H	1.509612	0.250023	-0.124745
O175	O	1.032008	-0.405106	-0.769585
O176	O	1.365341	-0.071773	-0.436252
O177	O	1.698675	0.261560	-0.102918
H178	H	1.086776	-0.444326	-0.729624
H179	H	1.420110	-0.110993	-0.396291
H180	H	1.753443	0.222340	-0.062957
O181	O	1.542594	-0.724708	-0.838037
O182	O	1.875927	-0.391375	-0.504704
O183	O	2.209260	-0.058042	-0.171370
H184	H	1.582487	-0.689872	-0.889592
H185	H	1.915821	-0.356539	-0.556259
H186	H	2.249154	-0.023206	-0.222926
H187	H	1.319202	-0.721263	-0.549333
H188	H	1.652535	-0.387930	-0.215999
H189	H	1.985869	-0.054596	0.117334
H190	H	1.315826	-0.286715	-1.103551
H191	H	1.649159	0.046618	-0.770218
H192	H	1.982492	0.379951	-0.436884
H193	H	1.319120	-0.601989	-0.549289
H194	H	1.652453	-0.268655	-0.215956
H195	H	1.985786	0.064678	0.117377
O196	O	1.542804	-1.125549	-0.838194
O197	O	1.876137	-0.792216	-0.504861
O198	O	2.209471	-0.458882	-0.171528
H199	H	1.625757	-1.119821	-0.830848
H200	H	1.959090	-0.786487	-0.497514
H201	H	2.292423	-0.453154	-0.164181
O202	O	1.304276	-1.131147	-0.529853
O203	O	1.637609	-0.797813	-0.196520
O204	O	1.970943	-0.464480	0.136814
H205	H	1.313952	-1.182159	-0.542322
H206	H	1.647285	-0.848825	-0.208989
H207	H	1.980618	-0.515492	0.124344
H208	H	1.356866	-0.314532	-1.280577
H209	H	1.690200	0.018801	-0.947244
H210	H	2.023533	0.352134	-0.613910
O211	O	1.304213	-0.994502	-0.529808
O212	O	1.637546	-0.661168	-0.196475
O213	O	1.970880	-0.327835	0.136859
H214	H	1.264345	-1.029344	-0.478237
H215	H	1.597679	-0.696010	-0.144904
H216	H	1.931012	-0.362677	0.188430
