data_functionalizedCrystal
_audit_creation_method	'MofGen! by Chris Wilmer'
_symmetry_space_group_name_H-M	'P1'
_symmetry_Int_Tables_number	1
_symmetry_cell_setting	triclinic
loop_
_symmetry_equiv_pos_as_xyz
  x,y,z
_cell_length_a	13.339070
_cell_length_b	15.995292
_cell_length_c	12.376457
_cell_angle_alpha	101.276936
_cell_angle_beta	75.589755
_cell_angle_gamma	99.548955
loop_
_atom_site_label
_atom_site_type_symbol
_atom_site_fract_x
_atom_site_fract_y
_atom_site_fract_z
O1	O	1.361583	0.408207	-0.094016
O2	O	1.067069	0.353113	-0.094013
O3	O	1.222407	0.260646	-0.094016
O4	O	1.206244	0.500674	-0.094013
O5	O	1.183587	0.283722	0.093997
O6	O	1.028248	0.376189	0.094000
O7	O	1.322762	0.431283	0.093997
Zn8	Zn	1.169341	0.407400	0.123849
Zn9	Zn	1.220489	0.376996	-0.123866
O10	O	1.167423	0.523750	0.094000
C11	C	1.009972	0.355344	-0.000007
C12	C	0.897677	0.327604	-0.000006
C13	C	1.202340	0.240836	-0.000013
C14	C	1.200369	0.147423	-0.000021
C15	C	0.532832	0.543299	-0.000021
C16	C	0.638339	0.569364	-0.000025
C17	C	0.703179	0.508927	-0.000020
C18	C	0.662501	0.422418	-0.000011
C19	C	0.556985	0.396349	-0.000016
C20	C	0.727332	0.361977	-0.000015
C21	C	0.686654	0.275468	-0.000006
C22	C	0.581148	0.249403	-0.000010
C23	C	0.516309	0.309841	-0.000015
C24	C	0.832847	0.388046	-0.000010
C25	C	0.857000	0.241096	-0.000006
C26	C	0.751493	0.215030	-0.000001
C27	C	1.193117	-0.191998	-0.000011
C28	C	1.305149	-0.142587	0.000408
C29	C	1.307369	-0.045468	-0.000020
C30	C	1.196716	-0.023607	-0.000015
C31	C	1.162829	-0.078908	-0.107376
C32	C	1.161497	-0.176022	-0.107462
C33	C	1.115061	-0.150170	0.106344
C34	C	1.118924	-0.052538	0.107759
C35	C	1.198744	0.071559	-0.000022
C36	C	1.191087	-0.287166	-0.000012
C37	C	1.379860	0.429051	-0.000012
C38	C	1.492156	0.456791	-0.000020
C39	C	1.187491	0.543560	-0.000006
C40	C	1.189463	0.636971	-0.000005
N41	N	1.134441	0.428151	0.292908
N42	N	1.255397	0.356240	-0.292925
C43	C	1.336411	0.308054	0.647889
C44	C	1.360832	0.293529	0.529549
C45	C	1.304236	0.327183	0.470383
C46	C	1.223216	0.375365	0.529569
C47	C	1.198798	0.389897	0.647921
C48	C	1.166623	0.409026	0.470415
C49	C	1.085603	0.457208	0.529601
C50	C	1.061188	0.471737	0.647941
C51	C	1.117784	0.438083	0.707107
C52	C	1.191041	0.394494	0.352063
C53	C	1.053428	0.476337	0.352094
C54	C	1.029007	0.490862	0.470435
H55	H	0.789087	0.530154	-0.000026
H56	H	1.426798	0.254301	0.481364
N57	N	1.005541	-0.193974	0.107327
H58	H	0.984894	-0.187434	0.036529
H59	H	1.002692	-0.256993	0.110308
H60	H	1.218252	-0.059611	-0.187276
N61	N	0.973801	0.523700	0.711778
H62	H	0.989667	0.583308	0.691180
H63	H	0.906305	0.494736	0.691165
N64	N	1.278409	0.342513	0.288251
H65	H	1.249891	0.290412	0.239165
H66	H	1.333297	0.378958	0.239198
N67	N	1.344475	0.005744	0.101923
H68	H	1.410133	0.045055	0.076287
H69	H	1.288565	0.041149	0.150214
H70	H	1.143340	-0.014742	0.187183
N71	N	1.397447	0.271771	0.711712
H72	H	1.348673	0.231733	0.760826
H73	H	1.452474	0.239084	0.656199
N74	N	0.707605	0.121729	-0.000002
H75	H	0.745635	0.085584	-0.069696
H76	H	0.716850	0.102771	0.069743
N77	N	1.330570	0.311518	0.342745
H78	H	1.390481	0.275888	0.314229
H79	H	1.267673	0.279865	0.314347
N80	N	1.091442	0.453751	0.834749
H81	H	1.139587	0.425116	0.863244
H82	H	1.100244	0.517574	0.863163
H83	H	0.671453	0.639798	-0.000040
N84	N	0.941622	0.542826	0.534275
H85	H	0.934745	0.546922	0.618222
H86	H	0.957549	0.602405	0.513591
H87	H	1.007344	0.503743	0.303922
N88	N	0.462899	0.608473	-0.000035
H89	H	0.461580	0.653690	0.069657
H90	H	0.490421	0.636506	-0.069782
H91	H	0.865955	0.458482	-0.000013
H92	H	0.909794	0.191882	-0.000006
H93	H	0.430395	0.288622	-0.000012
H94	H	1.216889	-0.203670	-0.187719
N95	N	1.053947	-0.221391	-0.113932
H96	H	1.058807	-0.266223	-0.184307
H97	H	1.023428	-0.250019	-0.045063
H98	H	1.082227	-0.066447	-0.111364
H99	H	1.332468	-0.151094	0.077401
N100	N	0.537274	0.156098	-0.000016
H101	H	0.594355	0.121766	-0.000010
H102	H	0.479629	0.150639	0.069681
H103	H	1.133567	-0.160067	0.187723
H104	H	1.363934	-0.171017	-0.076153
H105	H	1.367446	-0.026267	-0.077115
N106	N	1.010154	-0.032703	0.116338
H107	H	1.009762	-0.004554	0.050188
H108	H	0.960576	-0.087775	0.115411
