data_functionalizedCrystal
_audit_creation_method	'MofGen! by Chris Wilmer'
_symmetry_space_group_name_H-M	'P1'
_symmetry_Int_Tables_number	1
_symmetry_cell_setting	triclinic
loop_
_symmetry_equiv_pos_as_xyz
  x,y,z
_cell_length_a	11.026623
_cell_length_b	11.026607
_cell_length_c	10.065875
_cell_angle_alpha	79.281265
_cell_angle_beta	100.714592
_cell_angle_gamma	108.586360
loop_
_atom_site_label
_atom_site_type_symbol
_atom_site_fract_x
_atom_site_fract_y
_atom_site_fract_z
O1	O	-1.712121	-0.548242	0.113495
O2	O	-1.345541	-0.487476	0.113496
O3	O	-1.498450	-0.334568	0.113490
O4	O	-1.559212	-0.701150	0.113500
O5	O	-1.527658	-0.305344	-0.113499
O6	O	-1.374749	-0.458252	-0.113494
O7	O	-1.741329	-0.519017	-0.113495
Zn8	Zn	-1.562676	-0.483994	-0.149534
Zn9	Zn	-1.524194	-0.522499	0.149535
O10	O	-1.588420	-0.671925	-0.113490
C11	C	-1.312485	-0.461654	0.000001
C12	C	-1.170471	-0.428236	0.000002
C13	C	-1.116821	-0.520506	0.000005
C14	C	-0.970043	-0.485969	0.000006
C15	C	-1.501844	-0.272296	-0.000003
C16	C	-1.468426	-0.130283	0.000002
C17	C	-0.774384	-0.544838	0.000002
C18	C	-0.916397	-0.578252	0.000009
N19	N	-1.497929	-0.548768	0.353641
C20	C	-1.585026	-0.734197	0.000007
C21	C	-1.618442	-0.876212	0.000011
C22	C	-1.560696	-0.076634	0.000004
C23	C	-1.526159	0.070144	0.000009
N24	N	-1.588949	-0.457717	-0.353641
C25	C	-1.553548	-0.493144	0.421418
C26	C	-1.533322	-0.513350	0.578586
H27	H	-1.179555	-0.625068	0.000000
H28	H	-1.470732	-0.575940	0.636909
C29	C	-0.960019	-0.795195	0.116708
C30	C	-1.001051	-0.719428	0.000018
H31	H	-1.012274	-0.882351	0.116709
H32	H	-0.967476	-0.764155	0.195845
H33	H	-0.872484	-0.790478	0.116694
H34	H	-1.088584	-0.724137	0.000038
H35	H	-0.993607	-0.750477	-0.079139
C36	C	-1.766506	-0.089896	0.000001
C37	C	-1.759612	0.039119	0.000007
H38	H	-1.853658	-0.142163	-0.000009
H39	H	-1.715098	-0.117708	0.079153
H40	H	-1.735455	-0.097314	-0.079160
H41	H	-1.790654	0.046539	0.079174
H42	H	-1.811039	0.066940	-0.079153
H43	H	-1.435344	-0.611354	0.411970
H44	H	-1.421588	0.132872	0.000018
C45	C	-1.763457	-0.460880	0.377134
C46	C	-1.638039	-0.408649	0.342695
H47	H	-1.815616	-0.408714	0.328531
H48	H	-1.760941	-0.463372	0.472415
H49	H	-1.798879	-0.545972	0.353790
H50	H	-1.602613	-0.323561	0.366049
H51	H	-1.640551	-0.406143	0.247393
C52	C	-1.621223	-0.247805	0.602058
C53	C	-1.673456	-0.373230	0.567645
H54	H	-1.673400	-0.195653	0.553469
H55	H	-1.536149	-0.212384	0.578691
H56	H	-1.618715	-0.250319	0.697353
H57	H	-1.675955	-0.370717	0.472350
H58	H	-1.758552	-0.408659	0.591003
C59	C	-0.896364	-0.299066	0.116688
C60	C	-0.885376	-0.344799	0.000004
H61	H	-0.844100	-0.211913	0.116680
H62	H	-0.868547	-0.350486	0.195829
H63	H	-0.983900	-0.303766	0.116674
H64	H	-0.797842	-0.340108	0.000023
H65	H	-0.913186	-0.293365	-0.079158
H66	H	-1.363862	-0.067550	0.000012
H67	H	-1.107734	-0.323677	0.000034
H68	H	-1.665260	-0.139367	-0.000005
