data_functionalizedCrystal
_audit_creation_method	'MofGen! by Chris Wilmer'
_symmetry_space_group_name_H-M	'P1'
_symmetry_Int_Tables_number	1
_symmetry_cell_setting	triclinic
loop_
_symmetry_equiv_pos_as_xyz
  x,y,z
_cell_length_a	17.699077
_cell_length_b	15.625429
_cell_length_c	16.176319
_cell_angle_alpha	71.916053
_cell_angle_beta	89.993140
_cell_angle_gamma	83.780415
loop_
_atom_site_label
_atom_site_type_symbol
_atom_site_fract_x
_atom_site_fract_y
_atom_site_fract_z
O1	O	1.004378	0.113983	-0.102900
O2	O	0.784038	0.128821	-0.107351
O3	O	0.900093	-0.009850	-0.065780
O4	O	0.888323	0.252653	-0.144471
O5	O	0.900077	-0.009859	0.071716
O6	O	0.784022	0.128812	0.030145
O7	O	1.004362	0.113974	0.034596
Cu8	Cu	0.894190	0.121392	0.044925
Cu9	Cu	0.894209	0.121402	-0.117680
O10	O	0.888307	0.252644	-0.006975
C11	C	0.755831	0.128286	-0.038445
C12	C	0.671809	0.126693	-0.037969
C13	C	0.632331	0.125938	0.037206
C14	C	0.553384	0.124428	0.037660
C15	C	0.513916	0.123679	-0.037064
C16	C	0.553400	0.124431	-0.112244
C17	C	0.632346	0.125935	-0.112695
C18	C	0.235021	0.118364	-0.110427
C19	C	0.156070	0.116863	-0.109971
C20	C	0.156059	0.116857	0.039928
C21	C	0.235005	0.118361	0.039477
C22	C	0.274483	0.119108	-0.035701
C23	C	0.360085	0.120745	-0.036191
C24	C	0.428314	0.122049	-0.036576
C25	C	0.899551	-0.043441	0.013035
C26	C	0.897952	-0.143518	0.043030
C27	C	0.892716	-0.472638	-0.233034
C28	C	0.891211	-0.566676	-0.204824
C29	C	0.891193	-0.566672	-0.054935
C30	C	0.892703	-0.472633	-0.083133
C31	C	0.893463	-0.425623	-0.172184
C32	C	0.893450	-0.425618	-0.022283
C33	C	0.894955	-0.331587	-0.050479
C34	C	0.895714	-0.284570	-0.139526
C35	C	0.894969	-0.331592	-0.200380
C36	C	0.892684	-0.472628	0.066767
C37	C	0.893431	-0.425613	0.127618
C38	C	0.894942	-0.331581	0.099422
C39	C	0.895700	-0.284565	0.010375
C40	C	0.895687	-0.284559	0.160276
C41	C	0.897192	-0.190528	0.132080
C42	C	0.897205	-0.190533	-0.017821
C43	C	1.032568	0.114509	-0.034312
C44	C	1.116591	0.116101	-0.034793
C45	C	0.888848	0.286235	-0.085791
C46	C	0.890447	0.386313	-0.115792
N47	N	0.894183	0.121384	0.159293
N48	N	0.894223	0.121403	-0.232045
C49	C	0.945587	0.060006	0.220957
C50	C	0.945591	0.060005	0.307504
C51	C	0.894193	0.121387	0.332384
C52	C	0.842783	0.182768	0.270713
C53	C	0.842776	0.182764	0.184168
C54	C	0.842809	0.182785	0.619736
C55	C	0.842821	0.182787	0.706287
C56	C	0.945624	0.060026	0.743072
C57	C	0.945617	0.060022	0.656528
C58	C	0.894205	0.121399	0.594865
C59	C	0.894200	0.121399	0.501021
C60	C	0.894201	0.121393	0.426225
H61	H	0.123908	0.116244	0.101142
O62	O	0.273456	0.119126	0.111978
C63	C	0.351604	0.120591	0.095467
H64	H	0.359287	0.149336	0.022439
H65	H	0.376844	0.164905	0.130052
H66	H	0.381873	0.048717	0.120559
O67	O	0.995397	0.000305	0.196742
C68	C	0.954778	-0.055267	0.163398
H69	H	0.895607	-0.019237	0.139621
H70	H	0.986348	-0.069639	0.106850
H71	H	0.949534	-0.121859	0.216757
O72	O	0.273429	0.119222	-0.183440
C73	C	0.310585	0.198151	-0.211600
H74	H	0.319584	0.224391	-0.154393
H75	H	0.368009	0.181658	-0.238387
H76	H	0.274211	0.252229	-0.264791
H77	H	0.521246	0.123798	0.098879
H78	H	0.123937	0.116252	-0.170824
H79	H	0.800964	0.232773	0.726540
H80	H	0.664488	0.126552	-0.173910
H81	H	0.987448	0.010026	0.357713
H82	H	0.521260	0.123815	-0.173084
H83	H	0.893342	-0.434362	-0.305548
H84	H	0.891450	-0.549193	0.089721
H85	H	0.897831	-0.152257	-0.090334
O86	O	0.897073	-0.193211	-0.166821
C87	C	0.832064	-0.151433	-0.138257
H88	H	0.809357	-0.202163	-0.079276
H89	H	0.847796	-0.090849	-0.119583
H90	H	0.786472	-0.127504	-0.192812
H91	H	0.890595	-0.604951	-0.254383
O92	O	0.792909	0.242332	0.559739
C93	C	0.803933	0.229191	0.478009
H94	H	0.832134	0.157466	0.487684
H95	H	0.746627	0.239325	0.442092
H96	H	0.841951	0.280153	0.438164
H97	H	0.895595	-0.293315	-0.272893
O98	O	0.890356	-0.612426	0.031537
C99	C	0.823980	-0.656442	0.049238
H100	H	0.801917	-0.667075	-0.012644
H101	H	0.837653	-0.724895	0.101482
H102	H	0.778696	-0.612951	0.073192
O103	O	0.995573	0.000307	0.632515
C104	C	1.040958	-0.053855	0.705497
H105	H	1.009935	-0.054823	0.767489
H106	H	1.052427	-0.125872	0.702085
H107	H	1.097211	-0.024668	0.705934
H108	H	0.892809	-0.463901	0.200123
H109	H	0.895060	-0.322847	0.232781
O110	O	0.670650	0.126504	0.109864
C111	C	0.659832	0.048094	0.178971
H112	H	0.644072	-0.006866	0.151591
H113	H	0.714597	0.022881	0.220527
H114	H	0.612082	0.064862	0.220678
H115	H	0.897784	-0.152245	0.181630
O116	O	0.792927	0.242362	0.295017
C117	C	0.803944	0.229193	0.384630
H118	H	0.864081	0.195407	0.406568
H119	H	0.795596	0.297482	0.397043
H120	H	0.761064	0.184042	0.422742
H121	H	0.987485	0.010046	0.793289
H122	H	0.800916	0.232744	0.133961
