data_functionalizedCrystal
_audit_creation_method	'MofGen! by Chris Wilmer'
_symmetry_space_group_name_H-M	'P1'
_symmetry_Int_Tables_number	1
_symmetry_cell_setting	triclinic
loop_
_symmetry_equiv_pos_as_xyz
  x,y,z
_cell_length_a	19.121102
_cell_length_b	19.121368
_cell_length_c	19.121175
_cell_angle_alpha	90.088238
_cell_angle_beta	94.787032
_cell_angle_gamma	90.107979
loop_
_atom_site_label
_atom_site_type_symbol
_atom_site_fract_x
_atom_site_fract_y
_atom_site_fract_z
Zn1	Zn	-1.077443	-0.343939	-0.428419
Zn2	Zn	-0.744109	-0.010606	-0.095086
Zn3	Zn	-0.410776	0.322727	0.238247
Zn4	Zn	-1.067410	-0.455733	-0.305795
Zn5	Zn	-0.734076	-0.122400	0.027538
Zn6	Zn	-0.400743	0.210933	0.360871
Zn7	Zn	-0.955227	-0.333525	-0.306219
Zn8	Zn	-0.621894	-0.000192	0.027115
Zn9	Zn	-0.288561	0.333142	0.360448
Zn10	Zn	-0.954812	-0.455687	-0.418409
Zn11	Zn	-0.621478	-0.122354	-0.085076
Zn12	Zn	-0.288145	0.210979	0.248257
O13	O	-1.013723	-0.397221	-0.364711
O14	O	-0.680390	-0.063888	-0.031377
O15	O	-0.347056	0.269445	0.301956
O16	O	-1.174382	-0.363147	-0.416165
O17	O	-0.841049	-0.029813	-0.082831
O18	O	-0.507716	0.303520	0.250502
O19	O	-1.048504	-0.435183	-0.207581
O20	O	-0.715170	-0.101850	0.125753
O21	O	-0.381837	0.231484	0.459086
O22	O	-0.975812	-0.236995	-0.326795
O23	O	-0.642479	0.096338	0.006538
O24	O	-0.309146	0.429671	0.339871
O25	O	-1.167011	-0.445281	-0.326073
O26	O	-0.833678	-0.111948	0.007260
O27	O	-0.500344	0.221385	0.340593
O28	O	-1.065603	-0.244647	-0.416575
O29	O	-0.732270	0.088687	-0.083242
O30	O	-0.398937	0.422020	0.250091
O31	O	-0.966084	-0.345397	-0.207892
O32	O	-0.632750	-0.012064	0.125441
O33	O	-0.299417	0.321270	0.458775
O34	O	-0.856902	-0.345352	-0.317089
O35	O	-0.523568	-0.012019	0.016244
O36	O	-0.190235	0.321314	0.349578
O37	O	-0.975104	-0.445203	-0.518008
O38	O	-0.641771	-0.111869	-0.184675
O39	O	-0.308437	0.221464	0.148659
O40	O	-0.856596	-0.435104	-0.399515
O41	O	-0.523263	-0.101771	-0.066182
O42	O	-0.189930	0.231562	0.267152
O43	O	-1.065200	-0.363102	-0.525362
O44	O	-0.731867	-0.029769	-0.192029
O45	O	-0.398534	0.303565	0.141305
O46	O	-1.048101	-0.553639	-0.316367
O47	O	-0.714767	-0.220305	0.016966
O48	O	-0.381434	0.113028	0.350299
O49	O	-0.965375	-0.553605	-0.399104
O50	O	-0.632042	-0.220271	-0.065771
O51	O	-0.298708	0.113062	0.267562
C52	C	-0.831269	-0.389094	-0.357262
C53	C	-0.497935	-0.055761	-0.023929
C54	C	-0.164602	0.277573	0.309404
C55	C	-0.753214	-0.385635	-0.354092
C56	C	-0.419881	-0.052301	-0.020758
C57	C	-0.086547	0.281032	0.312575
C58	C	-1.005624	-0.579010	-0.356620
C59	C	-0.672290	-0.245677	-0.023286
C60	C	-0.338957	0.087656	0.310047
C61	C	-1.002224	-0.656785	-0.353185
C62	C	-0.668891	-0.323451	-0.019851
C63	C	-0.335557	0.009882	0.313482
C64	C	-1.021225	-0.405309	-0.547878
C65	C	-0.687892	-0.071976	-0.214545
C66	C	-0.354558	0.261358	0.118789
C67	C	-1.024422	-0.408756	-0.625933
C68	C	-0.691089	-0.075422	-0.292600
C69	C	-0.357755	0.257911	0.040734
C70	C	-1.196889	-0.405381	-0.372188
C71	C	-0.863556	-0.072048	-0.038855
C72	C	-0.530223	0.261286	0.294478
C73	C	-1.274944	-0.408858	-0.375375
C74	C	-0.941611	-0.075525	-0.042042
C75	C	-0.608277	0.257809	0.291292
C76	C	-0.716397	-0.430803	-0.395443
C77	C	-0.383064	-0.097470	-0.062110
C78	C	-0.049730	0.235864	0.271223
C79	C	-0.643057	-0.427543	-0.392468
C80	C	-0.309724	-0.094210	-0.059135
C81	C	0.023610	0.239123	0.274199
C82	C	-0.606535	-0.379119	-0.348137
C83	C	-0.273201	-0.045785	-0.014804
C84	C	0.060132	0.287548	0.318530
C85	C	-0.643357	-0.333946	-0.306784
C86	C	-0.310023	-0.000612	0.026550
C87	C	0.023310	0.332721	0.359883
C88	C	-0.716696	-0.337202	-0.309763
C89	C	-0.383362	-0.003869	0.023570
C90	C	-0.050029	0.329465	0.356903
C91	C	-0.385105	-0.366942	-0.337001
C92	C	-0.051772	-0.033608	-0.003668
C93	C	0.281561	0.299725	0.329665
C94	C	-0.311761	-0.363690	-0.334023
C95	C	0.021572	-0.030356	-0.000690
C96	C	0.354906	0.302977	0.332643
C97	C	-0.311466	-0.457287	-0.419709
C98	C	0.021867	-0.123954	-0.086376
C99	C	0.355200	0.209380	0.246958
C100	C	-0.384807	-0.460542	-0.422681
C101	C	-0.051473	-0.127209	-0.089348
C102	C	0.281860	0.206124	0.243985
C103	C	-0.421623	-0.415367	-0.381331
C104	C	-0.088289	-0.082033	-0.047998
C105	C	0.245044	0.251300	0.285336
C106	C	-0.531569	-0.375787	-0.345093
C107	C	-0.198236	-0.042454	-0.011760
C108	C	0.135098	0.290879	0.321574
C109	C	-0.496587	-0.418695	-0.384379
C110	C	-0.163254	-0.085362	-0.051046
C111	C	0.170080	0.247971	0.282288
C112	C	-1.021873	-0.214724	-0.372849
C113	C	-0.688540	0.118610	-0.039516
C114	C	-0.355207	0.451943	0.293817
C115	C	-1.025347	-0.136954	-0.376317
C116	C	-0.692013	0.196379	-0.042984
C117	C	-0.358680	0.529713	0.290349
C118	C	-0.980232	-0.096433	-0.331205
C119	C	-0.646898	0.236900	0.002129
C120	C	-0.313565	0.570233	0.335462
C121	C	-0.983494	-0.023361	-0.334470
C122	C	-0.650161	0.309973	-0.001137
C123	C	-0.316828	0.643306	0.332196
C124	C	-1.031876	0.009190	-0.382846
C125	C	-0.698543	0.342523	-0.049513
C126	C	-0.365209	0.675856	0.283821
C127	C	-1.076993	-0.031337	-0.427963
C128	C	-0.743659	0.301997	-0.094630
C129	C	-0.410326	0.635330	0.238703
C130	C	-1.073726	-0.104408	-0.424701
C131	C	-0.740393	0.228925	-0.091367
C132	C	-0.407059	0.562259	0.241966
C133	C	-1.044074	0.229618	-0.395039
C134	C	-0.710741	0.562951	-0.061706
C135	C	-0.377408	0.896285	0.271627
C136	C	-1.047339	0.302695	-0.398297
C137	C	-0.714006	0.636028	-0.064964
C138	C	-0.380672	0.969361	0.268369
C139	C	-0.953839	0.310666	-0.304805
C140	C	-0.620506	0.643999	0.028529
C141	C	-0.287173	0.977332	0.361862
C142	C	-0.950580	0.237593	-0.301543
C143	C	-0.617247	0.570926	0.031790
C144	C	-0.283913	0.904259	0.365123
C145	C	-0.995694	0.197073	-0.346663
C146	C	-0.662361	0.530406	-0.013330
C147	C	-0.329028	0.863739	0.320003
C148	C	-1.035213	0.083881	-0.386184
C149	C	-0.701880	0.417215	-0.052850
C150	C	-0.368547	0.750548	0.280483
C151	C	-0.992353	0.122382	-0.343328
C152	C	-0.659019	0.455716	-0.009995
C153	C	-0.325686	0.789049	0.323338
C154	C	-0.983014	-0.363629	-0.662765
C155	C	-0.649681	-0.030296	-0.329432
C156	C	-0.316347	0.303038	0.003902
C157	C	-0.986015	-0.366873	-0.736105
C158	C	-0.652682	-0.033540	-0.402772
C159	C	-0.319348	0.299794	-0.069439
C160	C	-1.030428	-0.415241	-0.772613
C161	C	-0.697095	-0.081907	-0.439280
C162	C	-0.363761	0.251426	-0.105946
C163	C	-1.071837	-0.460372	-0.735776
C164	C	-0.738504	-0.127039	-0.402443
C165	C	-0.405171	0.206295	-0.069109
C166	C	-1.068832	-0.457131	-0.662436
C167	C	-0.735499	-0.123798	-0.329103
C168	C	-0.402166	0.209536	0.004230
C169	C	-1.041645	-0.427369	-0.994043
C170	C	-0.708311	-0.094036	-0.660709
C171	C	-0.374978	0.239298	-0.327376
C172	C	-1.044648	-0.430605	-1.067388
C173	C	-0.711315	-0.097272	-0.734054
C174	C	-0.377982	0.236061	-0.400721
C175	C	-0.958825	-0.337107	-1.067712
C176	C	-0.625491	-0.003773	-0.734379
C177	C	-0.292158	0.329560	-0.401045
C178	C	-0.955827	-0.333867	-0.994371
C179	C	-0.622493	-0.000534	-0.661038
C180	C	-0.289160	0.332800	-0.327705
C181	C	-0.997233	-0.379001	-0.957540
C182	C	-0.663900	-0.045667	-0.624207
C183	C	-0.330567	0.287666	-0.290874
C184	C	-1.033498	-0.418556	-0.847579
C185	C	-0.700165	-0.085223	-0.514246
C186	C	-0.366831	0.248110	-0.180912
C187	C	-0.994159	-0.375688	-0.882575
C188	C	-0.660826	-0.042355	-0.549242
C189	C	-0.327492	0.290979	-0.215909
C190	C	-1.006293	-0.389116	-0.182260
C191	C	-0.672959	-0.055783	0.151074
C192	C	-0.339626	0.277550	0.484407
C193	C	-1.003240	-0.385479	-0.104220
C194	C	-0.669907	-0.052145	0.229114
C195	C	-0.336574	0.281188	0.562447
H196	H	-0.746128	-0.470238	-0.431540
H197	H	-0.412795	-0.136905	-0.098207
H198	H	-0.079462	0.196429	0.235126
H199	H	-1.069658	-0.457938	-0.877312
H200	H	-0.736325	-0.124605	-0.543978
H201	H	-0.402992	0.208728	-0.210645
H202	H	-0.414538	-0.499976	-0.458779
H203	H	-0.081205	-0.166643	-0.125446
H204	H	0.252129	0.166690	0.207888
Cl205	Cl	-1.096030	0.124808	-0.447001
Cl206	Cl	-0.762697	0.458141	-0.113667
Cl207	Cl	-0.429364	0.791475	0.219666
Cl208	Cl	-0.596776	-0.484329	-0.444456
Cl209	Cl	-0.263443	-0.150996	-0.111123
Cl210	Cl	0.069891	0.182337	0.222211
Cl211	Cl	-0.265179	-0.514076	-0.471688
Cl212	Cl	0.068154	-0.180743	-0.138355
Cl213	Cl	0.401487	0.152590	0.194979
Cl214	Cl	-0.597443	-0.273064	-0.251058
Cl215	Cl	-0.264110	0.060270	0.082276
Cl216	Cl	0.069224	0.393603	0.415609
Cl217	Cl	-0.933923	-0.310171	-0.782403
Cl218	Cl	-0.600589	0.023163	-0.449069
Cl219	Cl	-0.267256	0.356496	-0.115736
Cl220	Cl	-0.938330	-0.314883	-0.836679
Cl221	Cl	-0.604996	0.018450	-0.503346
Cl222	Cl	-0.271663	0.351784	-0.170012
Cl223	Cl	-1.137809	0.009584	-0.488786
Cl224	Cl	-0.804475	0.342917	-0.155452
Cl225	Cl	-0.471142	0.676250	0.177881
H226	H	-0.946852	-0.324239	-0.633046
H227	H	-0.613519	0.009094	-0.299713
H228	H	-0.280186	0.342428	0.033621
H229	H	-1.080818	-0.469993	-1.097110
H230	H	-0.747484	-0.136660	-0.763777
H231	H	-0.414151	0.196674	-0.430443
H232	H	-0.282027	-0.324249	-0.297928
H233	H	0.051306	0.009085	0.035405
H234	H	0.384640	0.342418	0.368738
H235	H	-0.415072	-0.330161	-0.303325
H236	H	-0.081738	0.003172	0.030008
H237	H	0.251595	0.336505	0.363342
H238	H	-0.946758	0.009631	-0.297737
H239	H	-0.613425	0.342965	0.035597
H240	H	-0.280091	0.676298	0.368930
Cl241	Cl	-0.919410	-0.137346	-0.270383
Cl242	Cl	-0.586076	0.195987	0.062950
Cl243	Cl	-0.252743	0.529321	0.396284
Cl244	Cl	-0.762980	-0.280415	-0.257778
Cl245	Cl	-0.429647	0.052918	0.075556
Cl246	Cl	-0.096313	0.386252	0.408889
H247	H	-0.911184	0.211096	-0.262149
H248	H	-0.577851	0.544429	0.071184
H249	H	-0.244517	0.877762	0.404517
H250	H	-0.925113	-0.300362	-1.097708
H251	H	-0.591780	0.032971	-0.764374
H252	H	-0.258446	0.366305	-0.431041
Cl253	Cl	-0.485649	-0.314912	-0.289364
Cl254	Cl	-0.152316	0.018422	0.043969
Cl255	Cl	0.181018	0.351755	0.377302
Cl256	Cl	-0.542502	-0.479570	-0.440108
Cl257	Cl	-0.209169	-0.146237	-0.106774
Cl258	Cl	0.124165	0.187097	0.226559
Cl259	Cl	-1.120887	-0.513867	-0.616133
Cl260	Cl	-0.787553	-0.180534	-0.282799
Cl261	Cl	-0.454220	0.152800	0.050534
Cl262	Cl	-0.897125	0.361609	-0.248089
Cl263	Cl	-0.563792	0.694942	0.085244
Cl264	Cl	-0.230458	1.028275	0.418577
H265	H	-1.110458	-0.137399	-0.461441
H266	H	-0.777125	0.195934	-0.128108
H267	H	-0.443792	0.529267	0.205225
Cl268	Cl	-1.108168	0.343614	-0.459114
Cl269	Cl	-0.774835	0.676947	-0.125781
Cl270	Cl	-0.441502	1.010280	0.207552
H271	H	-1.080817	0.196635	-0.431772
H272	H	-0.747484	0.529968	-0.098438
H273	H	-0.414151	0.863302	0.234895
H274	H	-0.952958	0.095877	-0.303944
H275	H	-0.619625	0.429210	0.029389
H276	H	-0.286291	0.762543	0.362722
H277	H	-1.075353	-0.464127	-0.964063
H278	H	-0.742020	-0.130794	-0.630730
H279	H	-0.408686	0.202539	-0.297396
Cl280	Cl	-0.899992	-0.273058	-0.948481
Cl281	Cl	-0.566659	0.060275	-0.615148
Cl282	Cl	-0.233326	0.393609	-0.281815
Cl283	Cl	-1.127666	-0.521182	-0.781671
Cl284	Cl	-0.794333	-0.187849	-0.448338
Cl285	Cl	-0.461000	0.145485	-0.115004
