data_functionalizedCrystal
_audit_creation_method	'MofGen! by Chris Wilmer'
_symmetry_space_group_name_H-M	'P1'
_symmetry_Int_Tables_number	1
_symmetry_cell_setting	triclinic
loop_
_symmetry_equiv_pos_as_xyz
  x,y,z
_cell_length_a	9.065218
_cell_length_b	15.944551
_cell_length_c	8.140239
_cell_angle_alpha	89.995530
_cell_angle_beta	89.997198
_cell_angle_gamma	84.257312
loop_
_atom_site_label
_atom_site_type_symbol
_atom_site_fract_x
_atom_site_fract_y
_atom_site_fract_z
O1	O	1.957519	0.123161	-0.136622
O2	O	2.290852	0.456494	0.196711
O3	O	2.624186	0.789827	0.530045
O4	O	1.527998	0.133263	-0.136625
O5	O	1.861332	0.466596	0.196709
O6	O	2.194665	0.799930	0.530042
O7	O	1.754488	0.006026	-0.136608
O8	O	2.087821	0.339359	0.196725
O9	O	2.421155	0.672692	0.530058
O10	O	1.731029	0.250398	-0.136638
O11	O	2.064363	0.583731	0.196695
O12	O	2.397696	0.917064	0.530029
O13	O	1.754475	0.006024	0.136619
O14	O	2.087809	0.339358	0.469952
O15	O	2.421142	0.672691	0.803285
O16	O	1.527986	0.133261	0.136603
O17	O	1.861319	0.466595	0.469936
O18	O	2.194652	0.799928	0.803269
O19	O	1.957507	0.123159	0.136605
O20	O	2.290840	0.456492	0.469939
O21	O	2.624173	0.789826	0.803272
Zn22	Zn	1.742744	0.128210	0.179985
Zn23	Zn	2.076078	0.461543	0.513318
Zn24	Zn	2.409411	0.794877	0.846651
Zn25	Zn	1.742761	0.128212	-0.180004
Zn26	Zn	2.076094	0.461545	0.153329
Zn27	Zn	2.409427	0.794879	0.486663
O28	O	1.731017	0.250396	0.136589
O29	O	2.064350	0.583729	0.469922
O30	O	2.397684	0.917063	0.803256
C31	C	1.473028	0.132291	-0.000011
C32	C	1.806361	0.465625	0.333322
C33	C	2.139695	0.798958	0.666655
C34	C	1.309253	0.129388	-0.000012
C35	C	1.642586	0.462722	0.333322
C36	C	1.975920	0.796055	0.666655
C37	C	1.753508	-0.025276	0.000005
C38	C	2.086841	0.308057	0.333339
C39	C	2.420174	0.641390	0.666672
C40	C	1.750588	-0.118544	0.000006
C41	C	2.083922	0.214789	0.333340
C42	C	2.417255	0.548122	0.666673
C43	C	1.603221	-0.334518	-0.000017
C44	C	1.936554	-0.001184	0.333316
C45	C	2.269887	0.332149	0.666649
C46	C	1.671647	-0.395017	0.134701
C47	C	2.004980	-0.061684	0.468034
C48	C	2.338314	0.271649	0.801367
C49	C	1.745306	-0.289310	-0.000006
C50	C	2.078640	0.044023	0.333327
C51	C	2.411973	0.377356	0.666660
C52	C	1.671693	-0.394999	-0.134680
C53	C	2.005026	-0.061666	0.198654
C54	C	2.338360	0.271668	0.531987
C55	C	1.740194	-0.454262	-0.000026
C56	C	2.073527	-0.120928	0.333308
C57	C	2.406861	0.212405	0.666641
C58	C	1.813772	-0.348581	0.134823
C59	C	2.147105	-0.015248	0.468156
C60	C	2.480438	0.318085	0.801489
C61	C	1.813798	-0.348557	-0.134679
C62	C	2.147131	-0.015224	0.198655
C63	C	2.480464	0.318110	0.531988
C64	C	1.882327	-0.409038	0.000072
C65	C	2.215661	-0.075705	0.333405
C66	C	2.548994	0.257629	0.666739
C67	C	1.748247	-0.194286	0.000006
C68	C	2.081581	0.139048	0.333340
C69	C	2.414914	0.472381	0.666673
C70	C	1.737264	-0.549285	-0.000026
C71	C	2.070597	-0.215952	0.333307
C72	C	2.403931	0.117382	0.666640
C73	C	2.012477	0.124131	-0.000012
C74	C	2.345810	0.457464	0.333322
C75	C	2.679143	0.790797	0.666655
C76	C	2.176252	0.127034	-0.000022
C77	C	2.509585	0.460367	0.333311
C78	C	2.842919	0.793700	0.666645
C79	C	1.731997	0.281698	-0.000028
C80	C	2.065330	0.615032	0.333305
C81	C	2.398664	0.948365	0.666638
C82	C	1.734917	0.374966	-0.000040
C83	C	2.068250	0.708300	0.333293
C84	C	2.401583	1.041633	0.666627
N85	N	1.742744	0.128208	0.425667
N86	N	2.076077	0.461541	0.759000
N87	N	2.409410	0.794875	1.092334
N88	N	1.742773	0.128207	-0.425687
N89	N	2.076106	0.461541	-0.092353
N90	N	2.409439	0.794874	0.240980
H91	H	1.611545	-0.415581	0.248593
H92	H	1.944879	-0.082248	0.581927
H93	H	2.278212	0.251085	0.915260
H94	H	1.485283	-0.302103	0.000117
H95	H	1.818616	0.031230	0.333450
H96	H	2.151950	0.364563	0.666783
H97	H	1.873813	-0.328137	0.248841
H98	H	2.207146	0.005197	0.582174
H99	H	2.540479	0.338530	0.915508
H100	H	1.873848	-0.327971	-0.248577
H101	H	2.207181	0.005362	0.084756
H102	H	2.540515	0.338696	0.418090
H103	H	2.000369	-0.441303	0.000149
H104	H	2.333702	-0.107969	0.333482
H105	H	2.667035	0.225364	0.666816
H106	H	1.611583	-0.415531	-0.248581
H107	H	1.944916	-0.082197	0.084752
H108	H	2.278250	0.251136	0.418086
