data_functionalizedCrystal
_audit_creation_method	'MofGen! by Chris Wilmer'
_symmetry_space_group_name_H-M	'P1'
_symmetry_Int_Tables_number	1
_symmetry_cell_setting	triclinic
loop_
_symmetry_equiv_pos_as_xyz
  x,y,z
_cell_length_a	25.639242
_cell_length_b	25.639243
_cell_length_c	25.639240
_cell_angle_alpha	89.998274
_cell_angle_beta	89.975637
_cell_angle_gamma	90.007340
loop_
_atom_site_label
_atom_site_type_symbol
_atom_site_fract_x
_atom_site_fract_y
_atom_site_fract_z
Zn1	Zn	0.799213	0.295651	0.208384
Zn2	Zn	0.799157	0.208223	0.295784
Zn3	Zn	0.711800	0.208227	0.208353
Zn4	Zn	0.711744	0.295625	0.295778
O5	O	0.755479	0.251932	0.252075
O6	O	0.872371	0.284063	0.219993
O7	O	0.787569	0.135059	0.284176
O8	O	0.723442	0.219837	0.135192
O9	O	0.872330	0.219830	0.284206
O10	O	0.787664	0.284067	0.135214
O11	O	0.723388	0.135062	0.219940
O12	O	0.638627	0.219812	0.219935
O13	O	0.723347	0.368794	0.284196
O14	O	0.638587	0.284022	0.284166
O15	O	0.787610	0.368813	0.219987
O16	O	0.787515	0.219805	0.368949
O17	O	0.723293	0.284018	0.368944
C18	C	0.619636	0.251915	0.252046
C19	C	0.561522	0.251920	0.252047
C20	C	0.310358	0.285439	0.218699
C21	C	0.364962	0.285436	0.218693
O22	O	0.393224	0.313931	0.190317
N23	N	0.392248	0.251938	0.252069
C24	C	0.364927	0.218444	0.285455
O25	O	0.393150	0.189951	0.313843
C26	C	0.310324	0.218450	0.285462
C27	C	0.283040	0.251947	0.252081
C28	C	0.283075	0.318933	0.185321
C29	C	0.228474	0.318935	0.185325
C30	C	0.201157	0.285443	0.218708
C31	C	0.228440	0.251949	0.252086
C32	C	0.283003	0.184960	0.318851
C33	C	0.228396	0.184969	0.318856
C34	C	0.201113	0.218465	0.285475
C35	C	0.146522	0.218459	0.285473
N36	N	0.119236	0.251957	0.252098
C37	C	0.146553	0.285449	0.218715
C38	C	0.479598	0.218435	0.285438
C39	C	0.534200	0.218426	0.285428
C40	C	0.534231	0.285418	0.218667
C41	C	0.479628	0.285424	0.218674
C42	C	0.452312	0.251933	0.252062
C43	C	0.031888	0.285451	0.218727
C44	C	-0.022717	0.285449	0.218733
C45	C	-0.022744	0.218458	0.285496
C46	C	0.031857	0.218458	0.285488
C47	C	0.059172	0.251959	0.252102
O48	O	0.118226	0.189980	0.313837
O49	O	0.118324	0.313942	0.190337
C50	C	0.755479	0.388305	0.252094
C51	C	0.755479	0.446419	0.252102
C52	C	0.788939	0.806798	0.218645
C53	C	0.788939	0.861402	0.218642
O54	O	0.817379	0.889652	0.190199
N55	N	0.755482	0.888701	0.252072
C56	C	0.722020	0.861394	0.285504
O57	O	0.693563	0.889628	0.313939
C58	C	0.722018	0.806790	0.285504
C59	C	0.755481	0.779494	0.252075
C60	C	0.822398	0.779501	0.185219
C61	C	0.822398	0.724900	0.185223
C62	C	0.788940	0.697596	0.218653
C63	C	0.755481	0.724893	0.252079
C64	C	0.688554	0.779484	0.318933
C65	C	0.688555	0.724877	0.318930
C66	C	0.722017	0.697580	0.285501
C67	C	0.722024	0.642989	0.285513
N68	N	0.755480	0.615689	0.252083
C69	C	0.788938	0.642993	0.218653
C70	C	0.722027	0.976064	0.285501
C71	C	0.722031	1.030667	0.285504
C72	C	0.788948	1.030671	0.218641
C73	C	0.788946	0.976068	0.218641
C74	C	0.755483	0.948765	0.252071
C75	C	0.788938	0.528328	0.218664
C76	C	0.788937	0.473723	0.218672
C77	C	0.722018	0.473723	0.285533
C78	C	0.722020	0.528324	0.285527
C79	C	0.755482	0.555625	0.252088
O80	O	0.693596	0.614704	0.313940
O81	O	0.817386	0.614752	0.190218
C82	C	0.891852	0.251949	0.252103
C83	C	0.949966	0.251956	0.252116
C84	C	0.755406	0.251920	0.387917
C85	C	0.755423	0.251932	0.446031
C86	C	0.755478	1.116089	0.252070
C87	C	0.755487	1.057975	0.252072
C88	C	0.755565	0.251955	0.115702
C89	C	0.755602	0.251965	0.057588
C90	C	0.788916	0.285411	0.697185
C91	C	0.788900	0.285407	0.642581
O92	O	0.817317	0.313854	0.614311
N93	N	0.755481	0.251939	0.615305
C94	C	0.722078	0.218469	0.642637
O95	O	0.693651	0.190001	0.614422
C96	C	0.722097	0.218470	0.697240
C97	C	0.755515	0.251944	0.724513
C98	C	0.822332	0.318881	0.724458
C99	C	0.822347	0.318886	0.779059
C100	C	0.788946	0.285420	0.806386
C101	C	0.755530	0.251949	0.779113
C102	C	0.688697	0.184998	0.724570
C103	C	0.688719	0.185003	0.779177
C104	C	0.722137	0.218476	0.806450
C105	C	0.722144	0.218487	0.861041
N106	N	0.755564	0.251955	0.888317
C107	C	0.788964	0.285421	0.860990
C108	C	0.722042	0.218467	0.527966
C109	C	0.722020	0.218468	0.473364
C110	C	0.788843	0.285405	0.473312
C111	C	0.788862	0.285407	0.527915
C112	C	0.755462	0.251935	0.555242
C113	C	0.788993	0.285429	0.975655
C114	C	0.789003	0.285432	1.030260
C115	C	0.722182	0.218493	1.030307
C116	C	0.722170	0.218491	0.975707
C117	C	0.755579	0.251961	0.948382
O118	O	0.693743	0.190053	0.889346
O119	O	0.817392	0.313879	0.889211
H120	H	0.305311	0.346209	0.158136
H121	H	0.206158	0.157697	0.346046
H122	H	0.816184	0.550550	0.191433
O123	O	0.656027	0.806052	0.351334
C124	C	0.622267	0.837626	0.321562
H125	H	0.640731	0.845812	0.281943
H126	H	0.583524	0.816577	0.315810
C127	C	0.590105	0.879435	0.398992
C128	C	0.612784	0.889493	0.350333
H129	H	0.584253	0.911428	0.416739
H130	H	0.612848	0.858162	0.419050
H131	H	0.557822	0.861893	0.394191
H132	H	0.645070	0.907028	0.355134
H133	H	0.590046	0.910770	0.330276
H134	H	0.556409	0.191144	0.312605
O135	O	0.821393	0.318004	1.056776
C136	C	0.791610	0.351741	1.088388
H137	H	0.750423	0.354931	1.071963
H138	H	0.789835	0.335579	1.129774
C139	C	0.867697	0.402200	1.109373
C140	C	0.817112	0.406121	1.089197
H141	H	0.883428	0.435744	1.109875
H142	H	0.887763	0.379470	1.088078
H143	H	0.866211	0.388730	1.143860
H144	H	0.818599	0.419585	1.054709
H145	H	0.797046	0.428855	1.110487
H146	H	0.457360	0.191158	0.312625
O147	O	0.656310	0.152453	0.698027
C148	C	0.686098	0.118701	0.666436
H149	H	0.725700	0.137183	0.658219
H150	H	0.691888	0.079966	0.687484
C151	C	0.608680	0.086493	0.624686
C152	C	0.657318	0.109194	0.614590
H153	H	0.590927	0.080626	0.592706
H154	H	0.588611	0.109231	0.645971
H155	H	0.613512	0.054216	0.642228
H156	H	0.652486	0.141474	0.597055
H157	H	0.677386	0.086461	0.593301
H158	H	0.694776	0.953838	0.312726
H159	H	0.694952	0.191239	0.953500
H160	H	0.816199	0.312682	0.953413
H161	H	0.816188	0.451500	0.191450
H162	H	0.694779	0.451482	0.312752
H163	H	0.694778	0.550550	0.312752
H164	H	0.054122	0.312730	0.191541
H165	H	0.661299	0.702649	0.346147
O166	O	0.201951	0.351405	0.152849
C167	C	0.170357	0.321709	0.119035
H168	H	0.186799	0.280532	0.115729
H169	H	0.128968	0.319887	0.135201
C170	C	0.149353	0.397928	0.068791
C171	C	0.169549	0.347356	0.064726
H172	H	0.148852	0.413749	0.035292
H173	H	0.170636	0.417936	0.091573
H174	H	0.114864	0.396403	0.082265
H175	H	0.204040	0.348882	0.051260
H176	H	0.148272	0.327349	0.041941
H177	H	0.849563	0.346140	0.801260
H178	H	0.849533	0.346133	0.702213
O179	O	0.821372	0.317940	0.554325
C180	C	0.850833	0.347488	0.518489
H181	H	0.852648	0.326069	0.479568
H182	H	0.831648	0.387176	0.512691
C183	C	0.904253	0.381393	0.587556
C184	C	0.906485	0.355084	0.539753
H185	H	0.938580	0.386081	0.600673
H186	H	0.884403	0.361487	0.611700
H187	H	0.888262	0.414463	0.582718
H188	H	0.922469	0.322012	0.544593
H189	H	0.926338	0.374984	0.515611
H190	H	0.305208	0.157683	0.346034
O191	O	0.453208	0.318015	0.186235
C192	C	0.489035	0.347562	0.156761
H193	H	0.527952	0.349325	0.178176
H194	H	0.494849	0.328483	0.117019
C195	C	0.419949	0.401060	0.123021
C196	C	0.467746	0.403230	0.149325
H197	H	0.406817	0.435398	0.118432
H198	H	0.395811	0.381153	0.142876
H199	H	0.424800	0.385159	0.089905
H200	H	0.462893	0.419124	0.182443
H201	H	0.491883	0.423141	0.129475
H202	H	0.054072	0.191178	0.312665
H203	H	0.816193	0.953846	0.191420
H204	H	0.661521	0.157745	0.801424
H205	H	0.694802	0.191216	0.451162
O206	O	-0.049261	0.185852	0.317869
C207	C	-0.035921	0.133758	0.306369
H208	H	-0.020896	0.131181	0.264596
H209	H	-0.004240	0.120041	0.334378
C210	C	-0.102893	0.102029	0.363710
C211	C	-0.084444	0.098863	0.312401
H212	H	-0.132823	0.080503	0.367433
H213	H	-0.111880	0.137125	0.371459
H214	H	-0.076488	0.090599	0.387045
H215	H	-0.110846	0.110299	0.289069
H216	H	-0.075463	0.063768	0.304649
O217	O	0.854916	0.698469	0.152696
C218	C	0.884451	0.734286	0.123201
H219	H	0.863034	0.773205	0.121394
H220	H	0.924149	0.740099	0.142354
C221	C	0.918324	0.665185	0.069774
C222	C	0.892017	0.712985	0.067550
H223	H	0.922994	0.652045	0.035446
H224	H	0.898428	0.641054	0.089646
H225	H	0.951403	0.670035	0.085736
H226	H	0.858936	0.708133	0.051594
H227	H	0.911908	0.737115	0.047673
H228	H	0.556483	0.312690	0.191485
O229	O	0.854827	0.806040	0.152685
C230	C	0.825091	0.837633	0.118911
H231	H	0.783910	0.821182	0.115674
H232	H	0.823289	0.879019	0.135069
C233	C	0.901250	0.858666	0.068539
C234	C	0.850672	0.838458	0.064561
H235	H	0.917030	0.859177	0.035014
H236	H	0.921285	0.837383	0.091295
H237	H	0.899742	0.893152	0.082006
H238	H	0.852182	0.803970	0.051101
H239	H	0.830638	0.859735	0.041802
H240	H	0.816191	1.052912	0.191419
H241	H	0.694987	0.191246	1.052567
H242	H	-0.044928	0.312725	0.191548
O243	O	0.689606	1.057201	0.318039
C244	C	0.719351	1.088798	0.351807
H245	H	0.760530	1.072353	0.355040
H246	H	0.721156	1.130184	0.335646
C247	C	0.643200	1.109823	0.402186
C248	C	0.693776	1.089621	0.406160
H249	H	0.627424	1.110333	0.435713
H250	H	0.623160	1.088537	0.379435
H251	H	0.644712	1.144309	0.388716
H252	H	0.692264	1.055134	0.419624
H253	H	0.713816	1.110902	0.428915
O254	O	0.821276	0.317863	0.446680
C255	C	0.814082	0.310688	0.392638
H256	H	0.796986	0.270322	0.385202
H257	H	0.786209	0.341674	0.377160
C258	C	0.887966	0.365099	0.373693
C259	C	0.866972	0.315520	0.364559
H260	H	0.920590	0.368082	0.356371
H261	H	0.892812	0.369935	0.410101
H262	H	0.864734	0.390915	0.360794
H263	H	0.890201	0.289705	0.377464
H264	H	0.862131	0.310679	0.328152
H265	H	0.694839	0.191212	0.550212
