data_functionalizedCrystal
_audit_creation_method	'MofGen! by Chris Wilmer'
_symmetry_space_group_name_H-M	'P1'
_symmetry_Int_Tables_number	1
_symmetry_cell_setting	triclinic
loop_
_symmetry_equiv_pos_as_xyz
  x,y,z
_cell_length_a	10.540539
_cell_length_b	14.853567
_cell_length_c	13.930277
_cell_angle_alpha	90.000757
_cell_angle_beta	90.005158
_cell_angle_gamma	84.080211
loop_
_atom_site_label
_atom_site_type_symbol
_atom_site_fract_x
_atom_site_fract_y
_atom_site_fract_z
O1	O	-1.684495	-0.127051	-0.079777
O2	O	-1.314950	-0.139022	-0.079788
O3	O	-1.509593	-0.001861	-0.079785
O4	O	-1.489851	-0.264211	-0.079780
O5	O	-1.509566	-0.001858	0.079877
O6	O	-1.314923	-0.139019	0.079874
O7	O	-1.684468	-0.127048	0.079885
Zn8	Zn	-1.499691	-0.133033	0.105229
Zn9	Zn	-1.499727	-0.133037	-0.105132
O10	O	-1.489824	-0.264208	0.079882
C11	C	-1.508685	0.031734	0.000043
C12	C	-1.506005	0.131832	0.000035
C13	C	-1.267643	-0.138122	0.000042
C14	C	-1.126725	-0.135437	0.000037
C15	C	-1.731774	-0.127947	0.000054
C16	C	-1.872693	-0.130633	0.000052
C17	C	-0.944430	-0.032519	0.000408
C18	C	-1.091018	-0.035242	0.000038
C19	C	-1.064537	-0.183656	-0.091133
C20	C	-0.918030	-0.180237	-0.091200
C21	C	-0.917489	-0.182272	0.090366
C22	C	-1.064460	-0.183194	0.091561
C23	C	-1.490732	-0.297803	0.000052
C24	C	-1.493413	-0.397902	0.000054
N25	N	-1.499676	-0.133029	0.248795
C26	C	-1.379051	0.545071	0.000049
C27	C	-1.610292	0.565069	0.000056
C28	C	-1.612812	0.471021	0.000051
C29	C	-1.498450	0.413994	0.000046
C30	C	-1.381568	0.451014	0.000047
C31	C	-1.729693	0.433993	0.000059
C32	C	-1.732218	0.339940	0.000055
C33	C	-1.617854	0.282911	0.000043
C34	C	-1.500967	0.319937	0.000043
C35	C	-1.386605	0.262910	0.000038
C36	C	-1.269717	0.299934	0.000031
C37	C	-1.267204	0.393985	0.000035
C38	C	-1.620367	0.188860	0.000040
C39	C	-1.389122	0.168853	0.000036
N40	N	-1.499752	-0.133033	-0.248698
C41	C	-1.413535	-0.193747	0.701063
C42	C	-1.585953	-0.072320	0.701035
C43	C	-1.585938	-0.072317	0.600540
C44	C	-1.499721	-0.133031	0.550301
C45	C	-1.413520	-0.193748	0.600558
C46	C	-1.672146	-0.011607	0.550275
C47	C	-1.672136	-0.011602	0.449773
C48	C	-1.585912	-0.072313	0.399533
C49	C	-1.499706	-0.133032	0.449796
C50	C	-1.413490	-0.193746	0.399558
C51	C	-1.327277	-0.254461	0.449819
C52	C	-1.327296	-0.254459	0.550318
C53	C	-1.585892	-0.072315	0.299034
C54	C	-1.413474	-0.193747	0.299053
H55	H	-1.134039	0.002699	0.065393
H56	H	-0.886287	-0.149845	0.159472
C57	C	-1.232464	-0.321235	0.605613
N58	N	-1.161036	-0.371530	0.647265
C59	C	-1.138639	0.434719	0.000047
N60	N	-1.041804	0.465404	0.000065
H61	H	-1.176604	0.253490	0.000034
C62	C	-1.250479	0.585798	0.000050
N63	N	-1.153638	0.616474	0.000055
C64	C	-1.120258	-0.135578	0.182681
N65	N	-1.162283	-0.099705	0.251311
C66	C	-1.860796	0.299222	0.000055
N67	N	-1.957642	0.268553	0.000052
H68	H	-1.703400	0.611505	0.000068
H69	H	-1.087882	-0.256243	0.097067
C70	C	-1.232442	-0.321246	0.394544
N71	N	-1.161014	-0.371546	0.352907
C72	C	-1.680786	-0.005538	0.756301
N73	N	-1.752215	0.044767	0.797931
H74	H	-1.742333	0.037836	0.408856
H75	H	-1.343261	-0.243185	0.258155
C76	C	-1.318696	-0.260525	0.756351
N77	N	-1.247261	-0.310821	0.797995
H78	H	-1.742348	0.037821	0.591182
H79	H	-1.822800	0.480431	0.000072
C80	C	-1.680721	-0.005533	0.243751
N81	N	-1.752149	0.044773	0.202113
C82	C	-0.852607	-0.280038	0.091203
N83	N	-0.803731	-0.353673	0.091827
C84	C	-1.093647	-0.283059	-0.095721
N85	N	-1.115578	-0.357929	-0.099175
H86	H	-0.916269	0.007065	0.065791
C87	C	-0.904204	0.020736	-0.087421
N88	N	-0.873901	0.060846	-0.153573
C89	C	-1.122574	-0.138403	-0.182801
N90	N	-1.166285	-0.104313	-0.251843
H91	H	-1.133195	0.002964	-0.065431
H92	H	-1.715535	0.158719	0.000052
C93	C	-0.852153	-0.277582	-0.096809
N94	N	-0.802540	-0.350901	-0.101043
C95	C	-0.880463	-0.132085	-0.183265
N96	N	-0.852175	-0.095811	-0.252608
C97	C	-1.263312	0.106129	0.000027
N98	N	-1.168551	0.058887	0.000022
