data_functionalizedCrystal
_audit_creation_method	'MofGen! by Chris Wilmer'
_symmetry_space_group_name_H-M	'P1'
_symmetry_Int_Tables_number	1
_symmetry_cell_setting	triclinic
loop_
_symmetry_equiv_pos_as_xyz
  x,y,z
_cell_length_a	19.077068
_cell_length_b	19.805407
_cell_length_c	19.805399
_cell_angle_alpha	90.016886
_cell_angle_beta	92.267915
_cell_angle_gamma	87.672914
loop_
_atom_site_label
_atom_site_type_symbol
_atom_site_fract_x
_atom_site_fract_y
_atom_site_fract_z
Zn1	Zn	-0.280208	-1.023886	-0.393533
Zn2	Zn	0.219792	-0.523886	0.106467
Zn3	Zn	-0.397910	-1.019256	-0.284888
Zn4	Zn	0.102090	-0.519256	0.215112
Zn5	Zn	-0.280230	-0.910705	-0.280359
Zn6	Zn	0.219770	-0.410705	0.219641
Zn7	Zn	-0.397870	-0.906116	-0.398033
Zn8	Zn	0.102130	-0.406116	0.101967
O9	O	-0.339054	-0.964991	-0.339203
O10	O	0.160946	-0.464991	0.160797
O11	O	-0.295829	-1.117988	-0.379134
O12	O	0.204171	-0.617988	0.120866
O13	O	-0.382326	-1.004840	-0.189571
O14	O	0.117674	-0.504840	0.310429
O15	O	-0.181736	-0.929577	-0.291594
O16	O	0.318264	-0.429577	0.208406
O17	O	-0.382304	-1.114587	-0.299312
O18	O	0.117696	-0.614587	0.200688
O19	O	-0.181720	-1.012730	-0.374742
O20	O	0.318280	-0.512730	0.125258
O21	O	-0.295867	-0.925088	-0.186244
O22	O	0.204133	-0.425088	0.313756
O23	O	-0.295828	-0.815380	-0.295956
O24	O	0.204172	-0.315380	0.204044
O25	O	-0.382235	-0.921755	-0.492152
O26	O	0.117765	-0.421755	0.007848
O27	O	-0.382257	-0.812008	-0.382411
O28	O	0.117743	-0.312008	0.117589
O29	O	-0.295790	-1.008280	-0.488846
O30	O	0.204210	-0.508280	0.011154
O31	O	-0.496396	-1.000390	-0.303675
O32	O	0.003604	-0.500390	0.196325
O33	O	-0.496366	-0.917266	-0.386802
O34	O	0.003634	-0.417266	0.113198
C35	C	-0.339041	-0.789135	-0.339181
C36	C	0.160959	-0.289135	0.160819
C37	C	-0.339052	-0.713903	-0.339188
C38	C	0.160948	-0.213903	0.160812
C39	C	-0.521918	-0.957846	-0.346233
C40	C	-0.021918	-0.457846	0.153767
C41	C	-0.600148	-0.954851	-0.349263
C42	C	-0.100148	-0.454851	0.150737
C43	C	-0.339006	-0.965022	-0.515744
C44	C	0.160994	-0.465022	-0.015744
C45	C	-0.338985	-0.965036	-0.590975
C46	C	0.161015	-0.465036	-0.090975
C47	C	-0.636893	-0.996756	-0.307442
C48	C	-0.136893	-0.496756	0.192558
C49	C	-0.710399	-0.993943	-0.310296
C50	C	-0.210399	-0.493943	0.189704
C51	C	-0.747158	-0.949222	-0.354967
C52	C	-0.247158	-0.449222	0.145033
C53	C	-0.710408	-0.907315	-0.396793
C54	C	-0.210408	-0.407315	0.103207
C55	C	-0.636904	-0.910132	-0.393942
C56	C	-0.136904	-0.410132	0.106058
C57	C	-0.966992	-0.936157	-0.368134
C58	C	-0.466992	-0.436157	0.131866
C59	C	-1.040502	-0.933342	-0.370980
C60	C	-0.540502	-0.433342	0.129020
C61	C	-1.040487	-1.019971	-0.284484
C62	C	-0.540487	-0.519971	0.215516
C63	C	-0.966982	-1.022781	-0.281635
C64	C	-0.466982	-0.522781	0.218365
C65	C	-0.930238	-0.980877	-0.323462
C66	C	-0.430238	-0.480877	0.176538
N67	N	-0.822292	-0.946344	-0.357884
N68	N	-0.322292	-0.446344	0.142116
N69	N	-0.855105	-0.983758	-0.320549
N70	N	-0.355105	-0.483758	0.179451
C71	C	-0.155476	-0.972182	-0.332161
C72	C	0.344524	-0.472182	0.167839
C73	C	-0.077246	-0.975247	-0.329160
C74	C	0.422754	-0.475247	0.170840
C75	C	-0.339068	-1.141533	-0.339226
C76	C	0.160932	-0.641533	0.160774
C77	C	-0.339074	-1.216765	-0.339236
C78	C	0.160926	-0.716765	0.160764
C79	C	-0.384124	-0.676818	-0.384137
C80	C	0.115876	-0.176818	0.115863
C81	C	-0.384125	-0.606130	-0.384147
C82	C	0.115875	-0.106130	0.115853
C83	C	-0.339058	-0.572527	-0.339203
C84	C	0.160942	-0.072527	0.160797
C85	C	-0.293981	-0.609617	-0.294252
C86	C	0.206019	-0.109617	0.205748
C87	C	-0.293977	-0.680304	-0.294246
C88	C	0.206023	-0.180304	0.205754
C89	C	-0.293997	-0.324543	-0.294275
C90	C	0.206003	0.175457	0.205725
C91	C	-0.294006	-0.253851	-0.294283
C92	C	0.205994	0.246149	0.205717
C93	C	-0.384145	-0.250368	-0.384176
C94	C	0.115855	0.249632	0.115824
C95	C	-0.384140	-0.321056	-0.384170
C96	C	0.115860	0.178944	0.115830
C97	C	-0.339062	-0.358139	-0.339221
C98	C	0.160938	0.141861	0.160779
C99	C	-0.339060	-0.434788	-0.339212
C100	C	0.160940	0.065212	0.160788
C101	C	-0.339062	-0.495880	-0.339208
C102	C	0.160938	0.004120	0.160792
C103	C	-0.293962	-0.923521	-0.624586
C104	C	0.206038	-0.423521	-0.124586
C105	C	-0.293948	-0.923531	-0.695274
C106	C	0.206052	-0.423531	-0.195274
C107	C	-0.338954	-0.965059	-0.732350
C108	C	0.161046	-0.465059	-0.232350
C109	C	-0.383983	-1.006576	-0.698734
C110	C	0.116017	-0.506576	-0.198734
C111	C	-0.383999	-1.006562	-0.628048
C112	C	0.116001	-0.506562	-0.128048
C113	C	-0.383917	-1.006632	-0.983805
C114	C	0.116083	-0.506632	-0.483805
C115	C	-0.383895	-1.006644	-1.054496
C116	C	0.116105	-0.506644	-0.554496
C117	C	-0.293865	-0.923601	-1.051032
C118	C	0.206135	-0.423601	-0.551032
C119	C	-0.293882	-0.923587	-0.980345
C120	C	0.206118	-0.423587	-0.480345
C121	C	-0.338913	-0.965101	-0.946736
C122	C	0.161087	-0.465101	-0.446736
C123	C	-0.338928	-0.965088	-0.870088
C124	C	0.161072	-0.465088	-0.370088
C125	C	-0.338936	-0.965076	-0.808996
C126	C	0.161064	-0.465076	-0.308996
C127	C	-0.339052	-0.965000	-0.163347
C128	C	0.160948	-0.465000	0.336653
C129	C	-0.338875	-0.965126	-0.088109
C130	C	0.161125	-0.465126	0.411891
H131	H	-0.606968	-1.033170	-0.271063
H132	H	-0.106968	-0.533170	0.228937
H133	H	-0.420548	-1.040463	-1.084682
H134	H	0.079452	-0.540463	-0.584682
H135	H	-0.937082	-0.902036	-0.402191
H136	H	-0.437082	-0.402036	0.097809
H137	H	-1.070411	-1.054088	-0.250432
H138	H	-0.570411	-0.554088	0.249568
H139	H	-0.740343	-0.870905	-0.433168
H140	H	-0.240343	-0.370905	0.066832
H141	H	-0.606987	-0.876009	-0.427997
H142	H	-0.106987	-0.376009	0.072003
N143	N	-0.245330	-0.878800	-0.940364
N144	N	0.254670	-0.378800	-0.440364
H145	H	-0.256252	-0.830013	-0.953078
H146	H	0.243748	-0.330013	-0.453078
H147	H	-0.252188	-0.885146	-0.890496
H148	H	0.247812	-0.385146	-0.390496
N149	N	-0.432737	-0.713058	-0.432608
N150	N	0.067263	-0.213058	0.067392
H151	H	-0.461289	-0.678836	-0.461085
H152	H	0.038711	-0.178836	0.038915
H153	H	-0.404129	-0.743517	-0.462875
H154	H	0.095871	-0.243517	0.037125
N155	N	-0.245394	-0.217606	-0.245807
N156	N	0.254606	0.282394	0.254193
H157	H	-0.273960	-0.187156	-0.215494
H158	H	0.226040	0.312844	0.284506
H159	H	-0.216846	-0.251868	-0.217377
H160	H	0.283154	0.248132	0.282623
H161	H	-0.937054	-1.059196	-0.245260
H162	H	-0.437054	-0.559196	0.254740
H163	H	-0.420847	-0.220166	-0.420778
H164	H	0.079153	0.279834	0.079222
N165	N	-0.432747	-0.566130	-0.432618
N166	N	0.067253	-0.066130	0.067382
H167	H	-0.461303	-0.598143	-0.461083
H168	H	0.038697	-0.098143	0.038917
H169	H	-0.465277	-0.535525	-0.406257
H170	H	0.034723	-0.035525	0.093743
N171	N	-0.245307	-0.878811	-1.087282
N172	N	0.254693	-0.378811	-0.587282
H173	H	-0.252129	-0.885114	-1.137688
H174	H	0.247871	-0.385114	-0.637688
H175	H	-0.256269	-0.830044	-1.075332
H176	H	0.243731	-0.330044	-0.575332
H177	H	-0.257288	-0.889723	-0.722637
H178	H	0.242712	-0.389723	-0.222637
H179	H	-0.420591	-1.040427	-0.956449
H180	H	0.079409	-0.540427	-0.456449
H181	H	-1.070429	-0.896932	-0.407369
H182	H	-0.570429	-0.396932	0.092631
H183	H	-0.420841	-0.348411	-0.420765
H184	H	0.079159	0.151589	0.079235
N185	N	-0.245389	-0.364532	-0.245786
N186	N	0.254611	0.135468	0.254214
H187	H	-0.252220	-0.414412	-0.252599
H188	H	0.247780	0.085588	0.247401
H189	H	-0.195137	-0.354141	-0.254465
H190	H	0.304863	0.145859	0.245535
H191	H	-0.420631	-1.040385	-0.728927
H192	H	0.079369	-0.540385	-0.228927
H193	H	-0.257272	-0.710498	-0.257647
H194	H	0.242728	-0.210498	0.242353
N195	N	-0.750031	-1.039140	-0.265190
N196	N	-0.250031	-0.539140	0.234810
H197	H	-0.715591	-1.067894	-0.236455
H198	H	-0.215591	-0.567894	0.263545
H199	H	-0.780576	-1.010436	-0.235028
H200	H	-0.280576	-0.510436	0.264972
N201	N	-0.245385	-0.573378	-0.245764
N202	N	0.254615	-0.073378	0.254236
H203	H	-0.252233	-0.522969	-0.252580
H204	H	0.247767	-0.022969	0.247420
H205	H	-0.256291	-0.585300	-0.197831
H206	H	0.243709	-0.085300	0.302169
N207	N	-0.245411	-0.878737	-0.584600
N208	N	0.254589	-0.378737	-0.084600
H209	H	-0.216888	-0.852439	-0.616621
H210	H	0.283112	-0.352439	-0.116621
H211	H	-0.274062	-0.846284	-0.556364
H212	H	0.225938	-0.346284	-0.056364
H213	H	-0.420657	-1.040372	-0.600682
H214	H	0.079343	-0.540372	-0.100682
