data_functionalizedCrystal
_audit_creation_method	'MofGen! by Chris Wilmer'
_symmetry_space_group_name_H-M	'P1'
_symmetry_Int_Tables_number	1
_symmetry_cell_setting	triclinic
loop_
_symmetry_equiv_pos_as_xyz
  x,y,z
_cell_length_a	14.044220
_cell_length_b	12.837942
_cell_length_c	11.295657
_cell_angle_alpha	94.164587
_cell_angle_beta	94.229594
_cell_angle_gamma	94.008909
loop_
_atom_site_label
_atom_site_type_symbol
_atom_site_fract_x
_atom_site_fract_y
_atom_site_fract_z
O1	O	-1.274170	-0.245214	0.098893
O2	O	-0.997377	-0.236118	0.098923
O3	O	-1.129636	-0.089196	0.098902
O4	O	-1.141910	-0.392136	0.098915
O5	O	-1.142241	-0.102822	-0.099144
O6	O	-1.009982	-0.249744	-0.099122
O7	O	-1.286774	-0.258840	-0.099153
Cu8	Cu	-1.149529	-0.255536	-0.117221
Cu9	Cu	-1.134622	-0.239422	0.116991
O10	O	-1.154515	-0.405762	-0.099131
C11	C	-0.968005	-0.238950	-0.000096
C12	C	-0.861706	-0.227075	-0.000084
C13	C	-1.131792	-0.057005	-0.000120
C14	C	-1.119424	0.059216	-0.000117
C15	C	-1.316146	-0.256008	-0.000131
C16	C	-1.422444	-0.267883	-0.000135
C17	C	-0.667085	-0.205368	-0.000109
C18	C	-0.617059	-0.289585	-0.000110
C19	C	-0.508765	-0.277507	-0.000124
C20	C	-0.775389	-0.217444	-0.000095
C21	C	-1.152359	-0.437953	-0.000106
C22	C	-1.164726	-0.554173	-0.000102
N23	N	-1.160020	-0.266870	-0.281953
C24	C	-1.268103	0.286427	-0.000108
C25	C	-1.256487	0.395627	-0.000105
C26	C	-1.084576	0.386819	-0.000099
C27	C	-1.096192	0.277619	-0.000102
C28	C	-1.187958	0.227427	-0.000108
C29	C	-1.199574	0.118224	-0.000120
C30	C	-1.027664	0.109419	-0.000105
C31	C	-1.016048	0.218619	-0.000102
C32	C	-1.048511	-0.146426	-0.531288
C33	C	-1.056462	-0.155000	-0.655948
C34	C	-1.183866	-0.292595	-0.655936
C35	C	-1.175916	-0.284021	-0.531276
C36	C	-1.108237	-0.210934	-0.468956
C37	C	-1.100292	-0.202356	-0.344293
C38	C	-1.227691	-0.339955	-0.344283
C39	C	-1.235641	-0.348529	-0.468944
N40	N	-1.124138	-0.228080	0.281723
H41	H	-0.628586	-0.124203	-0.000119
N42	N	-1.367073	0.232281	-0.000134
H43	H	-1.416084	0.286228	-0.000140
H44	H	-1.370967	0.192211	0.073281
N45	N	-0.975527	-0.067592	-0.464066
H46	H	-0.979557	-0.071947	-0.375636
H47	H	-0.988950	0.005175	-0.485860
H48	H	-1.321748	0.443661	-0.000101
N49	N	-0.668041	-0.397111	-0.000071
H50	H	-0.654183	-0.441442	-0.073480
H51	H	-0.739279	-0.390529	-0.000011
H52	H	-1.238963	-0.352103	-0.706698
N53	N	-1.298546	0.064082	-0.000135
H54	H	-1.347553	0.118034	-0.000131
H55	H	-1.302434	0.024012	0.073280
H56	H	-1.007825	-0.102473	-0.706694
N57	N	-0.941220	0.045776	-0.000103
H58	H	-0.896943	0.067900	0.073314
H59	H	-0.906374	0.057834	-0.073565
H60	H	-1.009863	0.427706	-0.000080
H61	H	-1.290741	-0.408037	-0.519701
N62	N	-1.292119	-0.409529	-0.277051
H63	H	-1.251833	-0.453269	-0.225328
H64	H	-1.336188	-0.457060	-0.335526
N65	N	-0.917076	0.272757	-0.000091
H66	H	-0.921876	0.350889	-0.000088
H67	H	-0.886252	0.246700	-0.073511
N68	N	-1.027303	-0.123524	-0.277077
H69	H	-0.961002	-0.139168	-0.298774
H70	H	-1.031413	-0.127914	-0.188667
