data_functionalizedCrystal
_audit_creation_method	'MofGen! by Chris Wilmer'
_symmetry_space_group_name_H-M	'P1'
_symmetry_Int_Tables_number	1
_symmetry_cell_setting	triclinic
loop_
_symmetry_equiv_pos_as_xyz
  x,y,z
_cell_length_a	19.805407
_cell_length_b	19.805404
_cell_length_c	19.805384
_cell_angle_alpha	89.901832
_cell_angle_beta	89.933459
_cell_angle_gamma	90.026910
loop_
_atom_site_label
_atom_site_type_symbol
_atom_site_fract_x
_atom_site_fract_y
_atom_site_fract_z
Zn1	Zn	1.035046	-0.269053	-0.382691
Zn2	Zn	1.034859	-0.382381	-0.269503
Zn3	Zn	0.921765	-0.269206	-0.269519
Zn4	Zn	0.921818	-0.382200	-0.382654
O5	O	0.978372	-0.325710	-0.326092
O6	O	1.129738	-0.284098	-0.367685
O7	O	1.019755	-0.367509	-0.174788
O8	O	0.936848	-0.174469	-0.284553
O9	O	1.129600	-0.367360	-0.284527
O10	O	1.020076	-0.174356	-0.367700
O11	O	0.936666	-0.284360	-0.174800
O12	O	0.827055	-0.284184	-0.284517
O13	O	0.936939	-0.367050	-0.477376
O14	O	0.827095	-0.367199	-0.367637
O15	O	1.020127	-0.283921	-0.477403
O16	O	1.019807	-0.477074	-0.284491
O17	O	0.936757	-0.476940	-0.367622
C18	C	0.802516	-0.325689	-0.326075
C19	C	0.727284	-0.325696	-0.326084
C20	C	0.692012	-0.282418	-0.369451
C21	C	0.621324	-0.282422	-0.369453
C22	C	0.585908	-0.325707	-0.326092
C23	C	0.621185	-0.368987	-0.282721
C24	C	0.691872	-0.368980	-0.282716
C25	C	0.336112	-0.369018	-0.282742
C26	C	0.265420	-0.369023	-0.282752
C27	C	0.265564	-0.282459	-0.369480
C28	C	0.336251	-0.282452	-0.369474
C29	C	0.371521	-0.325729	-0.326101
C30	C	0.448169	-0.325724	-0.326097
C31	C	0.509261	-0.325716	-0.326099
C32	C	0.978286	-0.501566	-0.326066
C33	C	0.978311	-0.576798	-0.326077
C34	C	1.021783	-1.038636	-0.282900
C35	C	1.021751	-0.967947	-0.282887
C36	C	0.978461	-0.932560	-0.326128
C37	C	0.935195	-0.967864	-0.369379
C38	C	0.935224	-1.038551	-0.369389
C39	C	0.935077	-0.682791	-0.369342
C40	C	0.935053	-0.612099	-0.369331
C41	C	1.021604	-0.612187	-0.282840
C42	C	1.021633	-0.682874	-0.282850
C43	C	0.978365	-0.718172	-0.326099
C44	C	0.978399	-0.794821	-0.326112
C45	C	0.978430	-0.855913	-0.326119
C46	C	1.154915	-0.325732	-0.326109
C47	C	1.230147	-0.325741	-0.326116
C48	C	0.978560	-0.325448	-0.502635
C49	C	0.978640	-0.325337	-0.577867
C50	C	0.978477	-0.149167	-0.326133
C51	C	0.978521	-0.073935	-0.326150
C52	C	0.978223	-0.325922	-0.150235
C53	C	0.978274	-0.325843	-0.075003
C54	C	0.934726	-0.282833	-0.039697
C55	C	0.934780	-0.282758	0.030991
C56	C	0.978379	-0.325697	0.066372
C57	C	1.021933	-0.368709	0.031061
C58	C	1.021882	-0.368780	-0.039626
C59	C	1.022140	-0.368424	0.316133
C60	C	1.022186	-0.368351	0.386825
C61	C	0.935038	-0.282402	0.386751
C62	C	0.934987	-0.282472	0.316064
C63	C	0.978543	-0.325482	0.280759
C64	C	0.978484	-0.325561	0.204111
C65	C	0.978434	-0.325621	0.143019
H66	H	0.720589	-0.404221	-0.247402
H67	H	1.057038	-1.067444	-0.247692
O68	O	1.064256	-0.410464	-0.073956
C69	C	1.155615	-0.418993	-0.153941
C70	C	1.107674	-0.371711	-0.115096
H71	H	1.190721	-0.387681	-0.187223
H72	H	1.186834	-0.449659	-0.116543
H73	H	1.124741	-0.454652	-0.186852
H74	H	1.138496	-0.336011	-0.082184
H75	H	1.076452	-0.341092	-0.152530
H76	H	0.899317	-0.247735	0.059735
H77	H	1.056834	-0.583440	-0.247622
O78	O	0.586889	-0.411058	-0.240537
C79	C	0.594213	-0.496954	-0.154546
C80	C	0.633134	-0.449328	-0.202271
H81	H	0.631585	-0.527917	-0.123605
H82	H	0.561102	-0.465915	-0.119166
H83	H	0.561129	-0.532322	-0.185574
H84	H	0.666255	-0.413950	-0.171297
H85	H	0.666202	-0.480408	-0.237652
O86	O	0.586989	-0.240478	-0.411618
C87	C	0.507336	-0.231395	-0.503057
C88	C	0.546163	-0.278974	-0.455334
H89	H	0.474329	-0.262501	-0.538423
H90	H	0.474171	-0.196009	-0.472091
H91	H	0.544806	-0.200448	-0.534018
H92	H	0.508742	-0.309965	-0.424363
H93	H	0.579338	-0.314315	-0.486339
H94	H	0.720843	-0.247172	-0.404762
O95	O	0.231405	-0.240392	-0.411673
C96	C	0.239011	-0.154505	-0.497673
C97	C	0.277776	-0.202117	-0.449934
H98	H	0.276485	-0.123537	-0.528609
H99	H	0.205968	-0.185554	-0.533056
H100	H	0.205875	-0.119140	-0.466656
H101	H	0.310950	-0.237492	-0.480897
H102	H	0.310777	-0.171026	-0.414549
O103	O	0.231090	-0.411164	-0.240658
C104	C	0.209342	-0.526296	-0.207616
C105	C	0.248274	-0.478650	-0.255314
H106	H	0.223210	-0.580869	-0.219457
H107	H	0.223186	-0.514455	-0.153048
H108	H	0.152765	-0.518832	-0.215063
H109	H	0.304859	-0.486087	-0.247927
H110	H	0.234374	-0.490503	-0.309865
O111	O	1.064222	-0.410399	0.065532
C112	C	1.102952	-0.448357	0.174459
C113	C	1.055015	-0.401118	0.135507
H114	H	1.095535	-0.440860	0.231041
H115	H	1.091420	-0.503047	0.160780
H116	H	1.157432	-0.436103	0.160385
H117	H	1.000519	-0.413312	0.149560
H118	H	1.066605	-0.346442	0.149190
H119	H	1.056977	-0.939207	-0.247669
O120	O	0.892613	-0.240697	0.281801
C121	C	0.806151	-0.155461	0.289189
C122	C	0.854115	-0.202729	0.328075
H123	H	0.775003	-0.124761	0.326585
H124	H	0.836935	-0.119837	0.255960
H125	H	0.770973	-0.186831	0.256227
H126	H	0.889303	-0.171413	0.361074
H127	H	0.823289	-0.238354	0.361262
H128	H	0.365083	-0.247207	-0.404785
H129	H	1.056887	-0.711684	-0.247641
O130	O	0.370400	-0.410963	-0.240546
C131	C	0.450121	-0.420063	-0.149167
C132	C	0.411315	-0.372479	-0.196901
H133	H	0.483221	-0.388968	-0.113879
H134	H	0.412698	-0.450993	-0.118131
H135	H	0.483211	-0.455464	-0.180193
H136	H	0.378224	-0.337036	-0.165928
H137	H	0.448775	-0.341596	-0.227940
H138	H	0.899798	-0.583287	-0.404544
H139	H	0.899944	-0.939047	-0.404585
O140	O	0.893029	-0.716969	-0.411419
C141	C	0.807148	-0.709415	-0.497180
C142	C	0.854746	-0.670621	-0.449571
H143	H	0.776173	-0.671960	-0.528028
H144	H	0.838209	-0.742400	-0.532651
H145	H	0.771789	-0.742613	-0.466065
H146	H	0.890114	-0.637386	-0.480631
H147	H	0.823643	-0.637679	-0.414098
O148	O	0.892465	-0.241088	-0.074138
C149	C	0.882692	-0.149826	-0.154144
C150	C	0.930627	-0.197071	-0.115197
H151	H	0.913527	-0.114216	-0.187339
H152	H	0.847494	-0.181149	-0.187132
H153	H	0.851561	-0.119103	-0.116752
H154	H	0.961801	-0.227803	-0.152540
H155	H	0.965780	-0.165709	-0.082199
O156	O	0.893180	-1.072738	-0.411468
C157	C	0.807299	-1.065195	-0.497229
C158	C	0.854893	-1.026395	-0.449622
H159	H	0.776321	-1.027744	-0.528079
H160	H	0.838363	-1.098179	-0.532699
H161	H	0.771943	-1.098395	-0.466114
H162	H	0.890259	-0.993159	-0.480682
H163	H	0.823787	-0.993455	-0.414150
O164	O	0.892795	-0.240637	0.421152
C165	C	0.854217	-0.202458	0.530015
C166	C	0.902102	-0.249775	0.491143
H167	H	0.861714	-0.209840	0.586610
H168	H	0.865726	-0.147796	0.515994
H169	H	0.799718	-0.214744	0.516212
H170	H	0.956617	-0.237550	0.504926
H171	H	0.890534	-0.304423	0.505168
O172	O	1.064608	-0.410084	0.421090
C173	C	1.151022	-0.495369	0.413709
C174	C	1.103031	-0.448132	0.374820
H175	H	1.182089	-0.526153	0.376316
H176	H	1.186269	-0.464038	0.446636
H177	H	1.120195	-0.530921	0.446973
H178	H	1.133803	-0.412571	0.341518
H179	H	1.067782	-0.479505	0.341935
H180	H	1.057604	-0.403446	0.287396
