data_functionalizedCrystal
_audit_creation_method	'MofGen! by Chris Wilmer'
_symmetry_space_group_name_H-M	'P1'
_symmetry_Int_Tables_number	1
_symmetry_cell_setting	triclinic
loop_
_symmetry_equiv_pos_as_xyz
  x,y,z
_cell_length_a	19.188930
_cell_length_b	19.188930
_cell_length_c	17.666332
_cell_angle_alpha	89.988397
_cell_angle_beta	89.976766
_cell_angle_gamma	83.144779
loop_
_atom_site_label
_atom_site_type_symbol
_atom_site_fract_x
_atom_site_fract_y
_atom_site_fract_z
O1	O	0.926150	0.087169	-0.063200
O2	O	0.722838	0.098903	-0.063149
O3	O	0.830361	-0.008620	-0.063161
O4	O	0.818627	0.194692	-0.063188
O5	O	0.830342	-0.008625	0.062735
O6	O	0.722820	0.098897	0.062747
O7	O	0.926131	0.087163	0.062697
Cu8	Cu	0.824473	0.093030	0.074217
Cu9	Cu	0.824496	0.093036	-0.074670
O10	O	0.818608	0.194686	0.062709
C11	C	0.696818	0.098520	-0.000194
C12	C	0.619313	0.097380	-0.000174
C13	C	0.574389	0.160470	-0.000194
C14	C	0.501566	0.159399	-0.000203
C15	C	0.473669	0.095233	-0.000206
C16	C	0.518603	0.032133	-0.000181
C17	C	0.591425	0.033207	-0.000166
N18	N	0.365695	0.046188	-0.043078
N19	N	0.296517	0.045172	-0.043095
C20	C	0.254260	0.091994	-0.000252
N21	N	0.283795	0.139881	0.042599
N22	N	0.352979	0.140899	0.042612
C23	C	0.394707	0.094062	-0.000222
C24	C	0.130372	0.153928	-0.000280
C25	C	0.057547	0.152853	-0.000283
C26	C	0.074586	0.025586	-0.000270
C27	C	0.147409	0.026662	-0.000258
C28	C	0.175298	0.090835	-0.000267
C29	C	0.829972	-0.034634	-0.000211
C30	C	0.828831	-0.112138	-0.000204
C31	C	0.891922	-0.157062	-0.000216
C32	C	0.890850	-0.229886	-0.000228
C33	C	0.826684	-0.257782	-0.000212
C34	C	0.763585	-0.212849	-0.000205
C35	C	0.764658	-0.140026	-0.000200
N36	N	0.777630	-0.365789	0.042645
N37	N	0.776615	-0.434968	0.042642
C38	C	0.823446	-0.477191	-0.000227
N39	N	0.871341	-0.447624	-0.043084
N40	N	0.872359	-0.378439	-0.043079
C41	C	0.825513	-0.336745	-0.000218
C42	C	0.885379	-0.601079	-0.000253
C43	C	0.884305	-0.673904	-0.000270
C44	C	0.757038	-0.656865	-0.000239
C45	C	0.758114	-0.584042	-0.000230
C46	C	0.822287	-0.556154	-0.000233
C47	C	0.952151	0.087546	-0.000260
C48	C	1.029656	0.088687	-0.000285
C49	C	0.818997	0.220700	-0.000244
C50	C	0.820138	0.298204	-0.000255
N51	N	0.824463	0.093025	0.178937
N52	N	0.824512	0.093036	-0.179390
C53	C	0.872089	0.045437	0.218541
C54	C	0.872093	0.045433	0.297789
C55	C	0.824478	0.093030	0.337429
C56	C	0.776842	0.140621	0.297815
C57	C	0.776835	0.140619	0.218569
N58	N	0.815401	0.154837	0.461841
N59	N	0.815413	0.154837	0.537121
C60	C	0.824496	0.093040	0.576193
N61	N	0.833582	0.031239	0.537140
N62	N	0.833574	0.031240	0.461853
C63	C	0.824480	0.093038	0.423358
C64	C	0.872130	0.045444	0.701727
C65	C	0.872129	0.045440	0.780976
C66	C	0.776881	0.140634	0.781000
C67	C	0.776878	0.140632	0.701753
C68	C	0.824506	0.093038	0.662121
H69	H	0.051874	-0.026659	-0.000319
O70	O	0.601569	0.222758	-0.000108
C71	C	0.643139	0.227201	0.065106
H72	H	0.661426	0.172118	0.086868
H73	H	0.690754	0.254876	0.050436
H74	H	0.610852	0.258202	0.110749
H75	H	0.935683	-0.710481	-0.000284
O76	O	0.703305	-0.096483	-0.000151
C77	C	0.646437	-0.136716	-0.000163
H78	H	0.664321	-0.191131	0.023661
H79	H	0.602238	-0.109727	0.036400
H80	H	0.626768	-0.141825	-0.060559
O81	O	0.696873	-0.540327	-0.000109
C82	C	0.693669	-0.497721	0.065107
H83	H	0.749073	-0.494214	0.086833
H84	H	0.667497	-0.442903	0.050451
H85	H	0.661845	-0.521591	0.110770
O86	O	0.014005	0.214208	-0.000334
C87	C	0.054240	0.271074	-0.000320
H88	H	0.108659	0.253184	-0.024144
H89	H	0.027260	0.315266	-0.036883
H90	H	0.059335	0.290755	0.060076
H91	H	0.910869	0.006681	0.186275
O92	O	0.157504	0.216243	-0.000410
C93	C	0.199166	0.220672	-0.065595
H94	H	0.182076	0.184247	-0.111172
H95	H	0.192472	0.276966	-0.087481
H96	H	0.256637	0.204385	-0.050842
H97	H	0.738072	0.179374	0.330094
H98	H	0.628003	-0.018171	-0.000150
H99	H	0.464982	0.210776	-0.000217
H100	H	0.937632	-0.578372	-0.000259
H101	H	0.704792	-0.679578	-0.000230
H102	H	0.738109	0.179385	0.813275
H103	H	0.183988	-0.024713	-0.000246
O104	O	0.918424	-0.000825	0.336154
C105	C	0.960443	-0.042849	0.284180
H106	H	0.961143	-0.014228	0.227683
H107	H	1.016232	-0.053639	0.307054
H108	H	0.937933	-0.094660	0.275778
H109	H	0.738051	0.179371	0.186322
H110	H	0.495885	-0.020111	-0.000194
H111	H	0.944176	-0.134360	-0.000222
O112	O	0.952094	-0.273605	-0.000134
C113	C	0.955269	-0.316236	0.065078
H114	H	0.899854	-0.319751	0.086821
H115	H	0.981447	-0.371049	0.050411
H116	H	0.987072	-0.292383	0.110733
O117	O	0.701298	-0.240027	-0.000289
C118	C	0.696874	-0.281614	-0.065502
H119	H	0.751964	-0.299915	-0.087252
H120	H	0.669186	-0.329221	-0.050833
H121	H	0.665894	-0.249338	-0.111152
H122	H	0.910909	0.006688	0.669457
O123	O	0.918464	-0.000815	0.819333
C124	C	0.960487	-0.042830	0.767355
H125	H	0.961178	-0.014206	0.710858
H126	H	1.016278	-0.053611	0.790225
H127	H	0.937986	-0.094647	0.758951
H128	H	0.738099	0.179386	0.669505
