data_functionalizedCrystal
_audit_creation_method	'MofGen! by Chris Wilmer'
_symmetry_space_group_name_H-M	'P1'
_symmetry_Int_Tables_number	1
_symmetry_cell_setting	triclinic
loop_
_symmetry_equiv_pos_as_xyz
  x,y,z
_cell_length_a	8.597340
_cell_length_b	10.540510
_cell_length_c	7.088929
_cell_angle_alpha	83.716686
_cell_angle_beta	103.954719
_cell_angle_gamma	84.924190
loop_
_atom_site_label
_atom_site_type_symbol
_atom_site_fract_x
_atom_site_fract_y
_atom_site_fract_z
O1	O	2.103332	0.174329	0.187506
O2	O	1.638882	0.195051	0.110994
O3	O	1.881728	-0.000108	0.151001
O4	O	1.860486	0.369487	0.147500
O5	O	1.914181	-0.026247	0.474322
O6	O	1.671336	0.168911	0.434316
O7	O	2.135785	0.148189	0.510827
Cu8	Cu	1.906524	0.156163	0.502093
Cu9	Cu	1.868144	0.187077	0.119728
O10	O	1.892939	0.343347	0.470821
C11	C	1.595637	0.181212	0.262858
C12	C	1.418430	0.178905	0.233665
C13	C	1.896371	-0.060468	0.312397
C14	C	1.891634	-0.201377	0.311605
C15	C	2.060412	-0.420297	0.340137
C16	C	2.065390	-0.273683	0.340230
C17	C	1.784156	-0.230469	0.112324
C18	C	1.780321	-0.377186	0.111550
C19	C	1.813607	-0.406690	0.478630
C20	C	1.822093	-0.260614	0.482418
C21	C	2.179030	0.162028	0.358960
C22	C	2.356236	0.164337	0.388140
C23	C	1.878296	0.403708	0.309421
C24	C	1.883031	0.544618	0.310200
N25	N	1.933529	0.134420	0.771030
N26	N	1.841151	0.208810	-0.149207
H27	H	2.141396	-0.473520	0.483695
H28	H	1.336098	0.189613	0.079061
N29	N	2.132077	-0.464566	0.180444
H30	H	2.050140	-0.507249	0.088790
H31	H	2.162706	-0.388065	0.104540
H32	H	1.655551	-0.181460	0.084386
H33	H	1.832135	-0.189018	-0.014901
N34	N	1.465260	0.150147	0.592930
H35	H	1.547177	0.071765	0.614056
H36	H	1.522967	0.229131	0.609951
H37	H	2.148269	-0.255618	0.484041
N38	N	2.060375	0.032311	0.900076
H39	H	2.037314	-0.054904	0.861551
H40	H	2.170264	0.049691	0.883360
N41	N	2.140474	-0.222637	0.179877
H42	H	2.073876	-0.239444	0.048792
H43	H	2.144031	-0.127090	0.179426
H44	H	1.827254	-0.406749	-0.016450
N45	N	1.607070	-0.405328	0.072066
H46	H	1.533525	-0.322458	0.055233
H47	H	1.579221	-0.447026	-0.051540
H48	H	1.882872	-0.460646	0.627676
N49	N	1.925963	-0.238053	0.677474
H50	H	2.017686	-0.189662	0.655308
H51	H	1.858503	-0.186020	0.746915
N52	N	1.655517	-0.195447	0.469463
H53	H	1.660682	-0.100868	0.478392
H54	H	1.580365	-0.206421	0.340324
N55	N	1.640970	-0.434719	0.451826
H56	H	1.607827	-0.478739	0.331227
H57	H	1.631427	-0.492618	0.570796
H58	H	1.745411	0.285900	0.753375
