data_functionalizedCrystal
_audit_creation_method	'MofGen! by Chris Wilmer'
_symmetry_space_group_name_H-M	'P1'
_symmetry_Int_Tables_number	1
_symmetry_cell_setting	triclinic
loop_
_symmetry_equiv_pos_as_xyz
  x,y,z
_cell_length_a	6.394989
_cell_length_b	10.654550
_cell_length_c	9.130313
_cell_angle_alpha	90.000276
_cell_angle_beta	90.001550
_cell_angle_gamma	85.491321
loop_
_atom_site_label
_atom_site_type_symbol
_atom_site_fract_x
_atom_site_fract_y
_atom_site_fract_z
O1	O	-0.293442	-1.670947	-0.121679
O2	O	-0.321399	-1.305765	-0.121705
O3	O	-0.003431	-1.493540	-0.121693
O4	O	-0.611409	-1.483173	-0.121692
O5	O	-0.003422	-1.493526	0.121906
O6	O	-0.321389	-1.305752	0.121893
O7	O	-0.293432	-1.670934	0.121919
Cu8	Cu	-0.307410	-1.488342	0.144149
Cu9	Cu	-0.307421	-1.488357	-0.143935
O10	O	-0.611400	-1.483159	0.121907
C11	C	-0.319341	-1.258939	0.000091
C12	C	-0.313200	-1.119430	0.000080
C13	C	-0.295490	-1.717760	0.000120
C14	C	-0.301631	-1.857269	0.000121
N15	N	-0.307401	-1.488340	0.346772
C16	C	0.074425	-1.491483	0.000101
C17	C	0.310750	-1.485219	0.000099
N18	N	-0.307414	-1.488369	-0.346558
C19	C	-0.500414	-1.041927	0.000085
C20	C	-0.494631	-0.910845	0.000110
C21	C	-0.114403	-0.934782	0.000121
C22	C	-0.120188	-1.065861	0.000106
C23	C	-0.166665	-1.571516	0.423429
C24	C	-0.166665	-1.571528	0.576766
C25	C	-0.448157	-1.405184	0.576774
C26	C	-0.448145	-1.405167	0.423440
H27	H	-0.647080	-0.847747	0.000117
C28	C	-0.600720	-1.314686	0.659946
C29	C	-0.564877	-1.190718	0.622702
C30	C	-0.705362	-1.107318	0.699304
H31	H	-0.740459	-1.330352	0.634870
H32	H	-0.580559	-1.326527	0.762259
H33	H	-0.585055	-1.178883	0.520412
H34	H	-0.425165	-1.175013	0.647782
H35	H	-0.685201	-1.119158	0.801617
H36	H	-0.845092	-1.122995	0.674222
H37	H	-0.681050	-1.023197	0.674055
C38	C	0.094936	-0.876377	0.000059
C39	C	0.059938	-0.744994	0.000031
C40	C	0.252734	-0.691153	-0.000050
H41	H	0.172265	-0.902639	0.084983
H42	H	0.172119	-0.902701	-0.084924
H43	H	-0.017213	-0.718681	0.085006
H44	H	-0.017359	-0.718696	-0.084887
H45	H	0.329918	-0.717477	-0.085033
H46	H	0.330049	-0.717425	0.084876
H47	H	0.229015	-0.602005	-0.000083
H48	H	-0.562750	-1.337429	0.361022
H49	H	-0.657577	-1.085539	0.000075
H50	H	0.032274	-1.128967	0.000106
H51	H	-0.052060	-1.639239	0.361009
C52	C	-0.013777	-1.661977	0.659729
C53	C	0.109439	-1.734828	0.559760
C54	C	0.250292	-1.818176	0.636131
H55	H	0.074095	-1.615574	0.719560
H56	H	-0.089699	-1.715522	0.719503
H57	H	0.185355	-1.681289	0.500011
H58	H	0.021625	-1.781258	0.499926
H59	H	0.174370	-1.871721	0.695905
H60	H	0.338149	-1.771762	0.695959
H61	H	0.333897	-1.867623	0.568314
