data_functionalizedCrystal
_audit_creation_method	'MofGen! by Chris Wilmer'
_symmetry_space_group_name_H-M	'P1'
_symmetry_Int_Tables_number	1
_symmetry_cell_setting	triclinic
loop_
_symmetry_equiv_pos_as_xyz
  x,y,z
_cell_length_a	19.288864
_cell_length_b	10.489741
_cell_length_c	18.366186
_cell_angle_alpha	89.994090
_cell_angle_beta	89.977106
_cell_angle_gamma	83.837710
loop_
_atom_site_label
_atom_site_type_symbol
_atom_site_fract_x
_atom_site_fract_y
_atom_site_fract_z
O1	O	0.922420	0.159110	-0.060783
O2	O	0.720303	0.180573	-0.060733
O3	O	0.825960	-0.015860	-0.060755
O4	O	0.816762	0.355543	-0.060761
O5	O	0.825942	-0.015870	0.060344
O6	O	0.720285	0.180564	0.060366
O7	O	0.922402	0.159100	0.060316
Zn8	Zn	0.821340	0.169830	0.079568
Zn9	Zn	0.821364	0.169843	-0.079985
O10	O	0.816744	0.355534	0.060338
C11	C	0.694413	0.179878	-0.000177
C12	C	0.617295	0.177805	-0.000158
C13	C	0.573372	0.293063	-0.000171
C14	C	0.500912	0.291115	-0.000179
C15	C	0.472378	0.173903	-0.000189
C16	C	0.516311	0.058629	-0.000171
C17	C	0.588770	0.060580	-0.000156
C18	C	0.363505	0.081764	-0.042638
C19	C	0.291047	0.079818	-0.042658
C20	C	0.248892	0.167880	-0.000233
C21	C	0.279202	0.257911	0.042203
C22	C	0.351661	0.259862	0.042218
C23	C	0.393810	0.171774	-0.000205
C24	C	0.126399	0.281035	-0.000254
C25	C	0.053938	0.279082	-0.000257
C26	C	0.069339	0.046593	-0.000256
C27	C	0.141798	0.048549	-0.000245
C28	C	0.170324	0.165773	-0.000248
C29	C	0.825257	-0.063381	-0.000205
C30	C	0.823178	-0.204964	-0.000206
C31	C	0.755951	-0.271583	-0.000195
C32	C	0.787700	-0.364429	0.059505
C33	C	0.787734	-0.364394	-0.059889
C34	C	0.854954	-0.295944	0.059543
C35	C	0.854979	-0.295900	-0.059905
C36	C	0.886776	-0.388719	-0.000190
C37	C	0.948292	0.159796	-0.000241
C38	C	1.025409	0.161869	-0.000265
C39	C	0.817448	0.403055	-0.000213
C40	C	0.819526	0.544637	-0.000217
N41	N	0.821329	0.169821	0.188460
N42	N	0.821381	0.169842	-0.188876
C43	C	0.868130	0.082883	0.226550
C44	C	0.868134	0.082877	0.302778
C45	C	0.821344	0.169831	0.340912
C46	C	0.774535	0.256776	0.302812
C47	C	0.774527	0.256771	0.226586
C48	C	0.812826	0.286045	0.461672
C49	C	0.812838	0.286052	0.537897
C50	C	0.821364	0.169847	0.576020
C51	C	0.829893	0.053631	0.537908
C52	C	0.829885	0.053626	0.461682
C53	C	0.821347	0.169846	0.423567
C54	C	0.868172	0.082896	0.696766
C55	C	0.868172	0.082888	0.772995
C56	C	0.774576	0.256799	0.773027
C57	C	0.774573	0.256795	0.696800
C58	C	0.821375	0.169845	0.658673
H59	H	0.493075	-0.036806	-0.000189
H60	H	0.883407	-0.265494	-0.110393
H61	H	0.700678	-0.220682	-0.000121
N62	N	0.750021	-0.404653	0.126387
H63	H	0.700605	-0.361598	0.126358
H64	H	0.749341	-0.500790	0.126099
H65	H	0.836835	-0.040993	0.568946
N66	N	0.892594	-0.255977	0.126474
H67	H	0.893748	-0.159946	0.126076
H68	H	0.867362	-0.281563	0.171486
H69	H	0.942099	-0.439394	-0.000170
N70	N	0.750054	-0.404587	-0.126742
H71	H	0.700639	-0.361528	-0.126672
H72	H	0.775008	-0.378439	-0.171810
N73	N	0.918602	-0.010904	0.185429
H74	H	0.949592	0.037692	0.153783
H75	H	0.948203	-0.065957	0.221178
H76	H	0.018175	0.372944	-0.000264
H77	H	0.805898	0.380681	0.568921
H78	H	0.906281	0.012086	0.804009
N79	N	0.803630	0.411387	0.420557
H80	H	0.798237	0.485006	0.456265
H81	H	0.845860	0.418628	0.388909
H82	H	0.244881	0.329619	0.076750
H83	H	0.736437	0.327574	0.333865
H84	H	0.906246	0.012079	0.333797
N85	N	0.636143	-0.063747	-0.000148
H86	H	0.666573	-0.068116	-0.045034
H87	H	0.666481	-0.068050	0.044779
H88	H	0.736476	0.327594	0.804076
N89	N	0.839080	-0.071709	0.420575
H90	H	0.844484	-0.145328	0.456286
H91	H	0.796846	-0.078957	0.388971
N92	N	0.918646	-0.010883	0.655637
H93	H	0.948292	-0.065968	0.691337
H94	H	0.891774	-0.067145	0.624026
N95	N	0.258363	-0.017285	-0.088425
H96	H	0.231907	-0.072867	-0.055930
H97	H	0.225254	0.028835	-0.124713
N98	N	0.724104	0.350587	0.655713
H99	H	0.731200	0.337391	0.601638
H100	H	0.674761	0.336087	0.669063
N101	N	0.724044	0.350547	0.185503
H102	H	0.732491	0.441036	0.198758
H103	H	0.731163	0.337243	0.131441
N104	N	0.604130	0.419501	-0.000175
H105	H	0.588126	0.469981	0.044711
H106	H	0.656693	0.403157	-0.000193
N107	N	0.453525	0.415433	-0.000196
H108	H	0.482591	0.489989	-0.000194
H109	H	0.423155	0.419675	-0.045097
N110	N	0.384349	0.356948	0.087995
H111	H	0.417493	0.310903	0.124280
H112	H	0.410766	0.412516	0.055456
N113	N	0.157173	0.407461	-0.000252
H114	H	0.118349	0.480184	-0.000256
H115	H	0.186879	0.413329	0.044645
H116	H	0.177562	-0.045307	-0.000238
N117	N	0.038574	-0.079833	-0.000258
H118	H	-0.013993	-0.063582	-0.000267
H119	H	0.054626	-0.130252	-0.045147
H120	H	0.397822	0.010050	-0.077190
