data_functionalizedCrystal
_audit_creation_method	'MofGen! by Chris Wilmer'
_symmetry_space_group_name_H-M	'P1'
_symmetry_Int_Tables_number	1
_symmetry_cell_setting	triclinic
loop_
_symmetry_equiv_pos_as_xyz
  x,y,z
_cell_length_a	12.645331
_cell_length_b	25.639239
_cell_length_c	12.645323
_cell_angle_alpha	90.031874
_cell_angle_beta	90.018010
_cell_angle_gamma	90.039097
loop_
_atom_site_label
_atom_site_type_symbol
_atom_site_fract_x
_atom_site_fract_y
_atom_site_fract_z
Zn1	Zn	1.620577	-0.208141	0.599263
Zn2	Zn	1.620393	-0.295580	0.421981
Zn3	Zn	1.443291	-0.208161	0.422021
Zn4	Zn	1.443208	-0.295548	0.599211
O5	O	1.531867	-0.251857	0.510619
O6	O	1.768899	-0.219745	0.575751
O7	O	1.596858	-0.284005	0.273639
O8	O	1.466920	-0.134993	0.445571
O9	O	1.768765	-0.283986	0.445503
O10	O	1.597171	-0.134978	0.575790
O11	O	1.466742	-0.219779	0.273669
O12	O	1.294933	-0.219748	0.445521
O13	O	1.466778	-0.283931	0.747565
O14	O	1.294872	-0.283951	0.575702
O15	O	1.597090	-0.219714	0.747603
O16	O	1.596778	-0.368741	0.445452
O17	O	1.466600	-0.368717	0.575662
C18	C	1.256438	-0.251848	0.510611
C19	C	1.138607	-0.251857	0.510632
C20	C	1.093723	-0.292316	0.592409
C21	C	0.971162	-0.292482	0.592166
C22	C	0.970643	-0.266573	0.398772
C23	C	1.093241	-0.266859	0.399246
C24	C	1.093502	-0.196596	0.539739
C25	C	0.970897	-0.196901	0.542202
C26	C	1.531689	-0.387700	0.510570
C27	C	1.531710	-0.445814	0.510585
C28	C	1.599827	-0.806177	0.442934
C29	C	1.599868	-0.860781	0.442948
O30	O	1.657600	-0.889017	0.385376
N31	N	1.532054	-0.888096	0.510689
C32	C	1.464201	-0.860805	0.578428
O33	O	1.406523	-0.889053	0.636049
C34	C	1.464166	-0.806201	0.578418
C35	C	1.531978	-0.778889	0.510665
C36	C	1.667635	-0.778864	0.375188
C37	C	1.667592	-0.724263	0.375172
C38	C	1.599742	-0.696976	0.442904
C39	C	1.531935	-0.724288	0.510650
C40	C	1.396319	-0.778911	0.646162
C41	C	1.396290	-0.724304	0.646147
C42	C	1.464102	-0.696991	0.578394
C43	C	1.464042	-0.642400	0.578366
N44	N	1.531857	-0.615084	0.510625
C45	C	1.599707	-0.642372	0.442894
C46	C	1.464281	-0.975475	0.578444
C47	C	1.464309	-1.030078	0.578449
C48	C	1.599979	-1.030050	0.442971
C49	C	1.599944	-0.975447	0.442961
C50	C	1.532095	-0.948160	0.510703
C51	C	1.599611	-0.527707	0.442866
C52	C	1.599560	-0.473102	0.442854
C53	C	1.463894	-0.473134	0.578336
C54	C	1.463942	-0.527735	0.578345
C55	C	1.531809	-0.555020	0.510606
O56	O	1.406343	-0.614129	0.635912
O57	O	1.657385	-0.614118	0.385293
C58	C	1.808372	-0.251867	0.510628
C59	C	1.926202	-0.251871	0.510632
C60	C	1.531945	-0.251817	0.787124
C61	C	1.531979	-0.251800	0.904955
C62	C	1.532075	-0.115484	0.510691
C63	C	1.532164	-0.057370	0.510722
C64	C	1.531850	-0.251860	0.235189
C65	C	1.532023	-0.251730	0.117360
C66	C	1.449747	-0.292009	1.072495
C67	C	1.449962	-0.292208	0.949935
C68	C	1.643667	-0.266752	0.949462
C69	C	1.643216	-0.267005	1.072060
C70	C	1.503578	-0.196413	1.072168
C71	C	1.501086	-0.196745	0.949562
H72	H	1.122533	-0.166455	0.480183
H73	H	1.124470	-0.333032	0.573332
H74	H	1.423555	-0.182783	1.103082
H75	H	0.939884	-0.306522	0.373754
H76	H	1.409080	-1.052311	0.633611
H77	H	1.668196	-0.306766	0.918761
H78	H	1.468736	-0.333216	0.920609
H79	H	1.408648	-0.450908	0.633479
H80	H	1.667331	-0.307442	1.100659
H81	H	1.418893	-0.185469	0.920472
H82	H	1.556637	-0.165149	0.918944
H83	H	1.706594	-0.238941	1.101740
H84	H	1.123248	-0.283250	0.675595
H85	H	1.563505	-0.166404	1.101185
H86	H	0.941116	-0.283311	0.675094
H87	H	1.706611	-0.238343	0.920328
H88	H	0.941774	-0.333435	0.572855
H89	H	1.654878	-0.549916	0.387710
H90	H	0.941857	-0.185810	0.624524
H91	H	1.367140	-0.282851	0.919842
H92	H	1.121775	-0.307247	0.374646
H93	H	1.654780	-0.450866	0.387678
H94	H	1.722813	-0.702029	0.320005
H95	H	1.722892	-0.801076	0.320032
H96	H	1.655163	-0.953212	0.387792
H97	H	1.122933	-0.238650	0.336225
H98	H	0.941521	-0.238010	0.336168
H99	H	1.366679	-0.282742	1.101977
H100	H	1.409021	-0.953261	0.633605
H101	H	1.124468	-0.183162	0.619933
H102	H	1.655230	-1.052278	0.387824
H103	H	1.341094	-0.801139	0.701328
H104	H	1.468338	-0.332761	1.103302
H105	H	1.341041	-0.702089	0.701314
H106	H	1.408727	-0.549974	0.633518
H107	H	0.940296	-0.165167	0.487030
