data_functionalizedCrystal
_audit_creation_method	'MofGen! by Chris Wilmer'
_symmetry_space_group_name_H-M	'P1'
_symmetry_Int_Tables_number	1
_symmetry_cell_setting	triclinic
loop_
_symmetry_equiv_pos_as_xyz
  x,y,z
_cell_length_a	10.723024
_cell_length_b	15.944551
_cell_length_c	9.198806
_cell_angle_alpha	89.995864
_cell_angle_beta	89.996352
_cell_angle_gamma	83.983304
loop_
_atom_site_label
_atom_site_type_symbol
_atom_site_fract_x
_atom_site_fract_y
_atom_site_fract_z
O1	O	1.655699	0.117808	-0.120886
O2	O	2.155699	0.617808	0.379114
O3	O	1.292405	0.129085	-0.120892
O4	O	1.792405	0.629085	0.379108
O5	O	1.483973	0.001228	-0.120876
O6	O	1.983973	0.501228	0.379124
O7	O	1.464131	0.245664	-0.120902
O8	O	1.964131	0.745664	0.379098
O9	O	1.483958	0.001228	0.120909
O10	O	1.983958	0.501228	0.620909
O11	O	1.292389	0.129084	0.120893
O12	O	1.792389	0.629084	0.620893
O13	O	1.655684	0.117808	0.120899
O14	O	2.155684	0.617808	0.620899
Cu15	Cu	1.474035	0.123446	0.142973
Cu16	Cu	1.974035	0.623446	0.642973
Cu17	Cu	1.474053	0.123446	-0.142966
Cu18	Cu	1.974053	0.623446	0.357034
O19	O	1.464116	0.245664	0.120883
O20	O	1.964116	0.745664	0.620883
C21	C	1.245908	0.128264	0.000000
C22	C	1.745908	0.628264	0.500000
C23	C	1.107384	0.125809	-0.000001
C24	C	1.607384	0.625809	0.499999
C25	C	1.031498	0.197350	-0.000010
C26	C	1.531498	0.697350	0.499990
C27	C	0.888327	0.194814	-0.000012
C28	C	1.388327	0.694814	0.499988
C29	C	1.483141	-0.030070	0.000017
C30	C	1.983141	0.469930	0.500017
C31	C	1.480672	-0.123331	0.000018
C32	C	1.980672	0.376669	0.500018
C33	C	1.356026	-0.338901	-0.000004
C34	C	1.856026	0.161099	0.499996
C35	C	1.413900	-0.399587	0.119211
C36	C	1.913900	0.100413	0.619211
C37	C	1.476205	-0.294082	0.000006
C38	C	1.976205	0.205918	0.500006
C39	C	1.413944	-0.399570	-0.119170
C40	C	1.913944	0.100430	0.380830
C41	C	1.471880	-0.459020	-0.000011
C42	C	1.971880	0.040980	0.499989
C43	C	1.534111	-0.353540	0.119320
C44	C	2.034111	0.146460	0.619320
C45	C	1.534138	-0.353516	-0.119168
C46	C	2.034138	0.146484	0.380832
C47	C	1.592099	-0.414184	0.000077
C48	C	2.092099	0.085816	0.500077
C49	C	1.478692	-0.199066	0.000018
C50	C	1.978692	0.300934	0.500018
C51	C	1.469402	-0.554035	-0.000011
C52	C	1.969402	-0.054035	0.499989
C53	C	1.702181	0.118629	0.000003
C54	C	2.202181	0.618629	0.500003
C55	C	1.840704	0.121084	-0.000005
C56	C	2.340704	0.621084	0.499995
C57	C	1.464947	0.276963	-0.000013
C58	C	1.964947	0.776963	0.499987
C59	C	1.467417	0.370223	-0.000024
C60	C	1.967417	0.870223	0.499976
N61	N	1.474032	0.123445	0.344087
N62	N	1.974032	0.623445	0.844087
N63	N	1.474067	0.123441	-0.344080
N64	N	1.974067	0.623441	0.155920
C65	C	1.554469	0.069525	0.416290
C66	C	2.054469	0.569525	0.916290
C67	C	1.554488	0.069522	0.583703
C68	C	2.054488	0.569522	1.083703
H69	H	1.066360	0.062682	-0.000032
H70	H	1.566360	0.562682	0.499968
C71	C	1.345256	-0.427098	-0.255326
C72	C	1.845256	0.072902	0.244674
N73	N	1.293513	-0.447828	-0.357874
N74	N	1.793513	0.052172	0.142126
C75	C	1.221269	-0.294668	0.000157
C76	C	1.721269	0.205332	0.500157
N77	N	1.119774	-0.261349	0.000287
N78	N	1.619774	0.238651	0.500287
C79	C	1.726974	-0.458217	0.000173
C80	C	2.226974	0.041783	0.500173
N81	N	1.828560	-0.491385	0.000254
N82	N	2.328560	0.008615	0.500254
C83	C	1.602710	-0.326144	0.255634
C84	C	2.102710	0.173856	0.755634
N85	N	1.654373	-0.305506	0.358306
N86	N	2.154373	0.194494	0.858306
C87	C	1.086914	0.282635	-0.000014
C88	C	1.586914	0.782635	0.499986
N89	N	1.128651	0.346874	-0.000017
N90	N	1.628651	0.846874	0.499983
C91	C	1.381025	0.185809	0.572048
C92	C	1.881025	0.685809	1.072048
N93	N	1.310945	0.232784	0.508865
N94	N	1.810945	0.732784	1.008865
H95	H	0.823120	0.256060	-0.000025
H96	H	1.323120	0.756060	0.499975
C97	C	1.345221	-0.427150	0.255365
C98	C	1.845221	0.072850	0.755365
N99	N	1.293485	-0.447909	0.357910
N100	N	1.793485	0.052091	0.857910
H101	H	1.623358	0.023362	0.645795
H102	H	2.123358	0.523362	1.145795
C103	C	1.602756	-0.325924	-0.255333
C104	C	2.102756	0.174076	0.244667
N105	N	1.654431	-0.305140	-0.357905
N106	N	2.154431	0.194860	0.142095
H107	H	0.905903	0.059835	-0.000006
H108	H	1.405903	0.559835	0.499994
H109	H	1.623316	0.023361	0.354170
H110	H	2.123316	0.523361	0.854170
H111	H	1.405176	0.169603	0.406209
H112	H	1.905176	0.669603	0.906209
