data_functionalizedCrystal
_audit_creation_method	'MofGen! by Chris Wilmer'
_symmetry_space_group_name_H-M	'P1'
_symmetry_Int_Tables_number	1
_symmetry_cell_setting	triclinic
loop_
_symmetry_equiv_pos_as_xyz
  x,y,z
_cell_length_a	22.610064
_cell_length_b	14.519709
_cell_length_c	14.519709
_cell_angle_alpha	83.680145
_cell_angle_beta	90.003132
_cell_angle_gamma	89.997369
loop_
_atom_site_label
_atom_site_type_symbol
_atom_site_fract_x
_atom_site_fract_y
_atom_site_fract_z
O1	O	0.049109	-1.223874	-0.120879
O2	O	0.049127	-0.955397	-0.135115
O3	O	0.049112	-1.096754	0.006241
O4	O	0.049124	-1.082517	-0.262235
O5	O	-0.049257	-1.096729	0.006221
O6	O	-0.049242	-0.955372	-0.135136
O7	O	-0.049260	-1.223849	-0.120899
Zn8	Zn	-0.064869	-1.089606	-0.128021
Zn9	Zn	0.064736	-1.089639	-0.127994
O10	O	-0.049245	-1.082492	-0.262256
C11	C	-0.000055	-0.921025	-0.134462
C12	C	-0.000048	-0.818643	-0.132474
N13	N	-0.153322	-1.089591	-0.128039
C14	C	-0.000073	-1.096078	0.040591
C15	C	-0.000073	-1.094090	0.142972
C16	C	-0.561970	-1.152235	-0.065411
C17	C	-0.623890	-1.152240	-0.065404
O18	O	-0.655914	-1.205463	-0.012169
N19	N	-0.654859	-1.089639	-0.127975
C20	C	-0.623905	-1.027022	-0.190550
O21	O	-0.655933	-0.973775	-0.243770
C22	C	-0.561986	-1.027014	-0.190551
C23	C	-0.531020	-1.089626	-0.127983
C24	C	-0.531004	-1.214841	-0.002846
C25	C	-0.469088	-1.214837	-0.002855
C26	C	-0.438139	-1.152227	-0.065427
C27	C	-0.469105	-1.089622	-0.127991
C28	C	-0.531034	-0.964394	-0.253121
C29	C	-0.469111	-0.964391	-0.253117
C30	C	-0.438145	-1.027002	-0.190548
C31	C	-0.376240	-1.027009	-0.190571
N32	N	-0.345270	-1.089610	-0.128000
C33	C	-0.376220	-1.152219	-0.065428
C34	C	-0.753939	-1.027044	-0.190541
C35	C	-0.815856	-1.027056	-0.190544
C36	C	-0.815837	-1.152272	-0.065397
C37	C	-0.753918	-1.152264	-0.065399
C38	C	-0.722970	-1.089645	-0.127970
C39	C	-0.246193	-1.152207	-0.065450
C40	C	-0.184271	-1.152200	-0.065467
C41	C	-0.184296	-1.026981	-0.190610
C42	C	-0.246212	-1.026991	-0.190598
C43	C	-0.277159	-1.089607	-0.128010
O44	O	-0.344176	-0.973810	-0.243777
O45	O	-0.344185	-1.205449	-0.012209
N46	N	0.153189	-1.089662	-0.127968
C47	C	-0.000077	-1.258221	-0.121553
C48	C	-0.000080	-1.360602	-0.123541
C49	C	-0.000076	-0.443748	-0.125154
C50	C	-0.000068	-0.548056	-0.127187
C51	C	-0.000062	-0.631192	-0.128814
C52	C	-0.000055	-0.735507	-0.130847
C53	C	-0.000059	-1.083168	-0.296606
C54	C	-0.000055	-1.085156	-0.398987
C55	C	-0.000057	-1.086770	0.517868
C56	C	-0.000061	-1.088803	0.413560
C57	C	-0.000065	-1.090430	0.330423
C58	C	-0.000069	-1.092463	0.226109
H59	H	-0.159061	-1.203189	-0.014516
Cl60	Cl	-0.430166	-1.293545	0.075812
Cl61	Cl	-0.569902	-1.293560	0.075826
H62	H	-0.841047	-1.203251	-0.014446
Cl63	Cl	-0.854778	-0.948354	-0.269217
H64	H	-0.728709	-1.203247	-0.014450
Cl65	Cl	-0.715038	-0.948322	-0.269217
Cl66	Cl	-0.145379	-0.948276	-0.269270
H67	H	-0.271382	-1.203194	-0.014485
H68	H	-0.556238	-0.913410	-0.304070
Cl69	Cl	-0.430209	-0.885663	-0.331782
Cl70	Cl	-0.285139	-0.948286	-0.269268
