data_functionalizedCrystal
_audit_creation_method	'MofGen! by Chris Wilmer'
_symmetry_space_group_name_H-M	'P1'
_symmetry_Int_Tables_number	1
_symmetry_cell_setting	triclinic
loop_
_symmetry_equiv_pos_as_xyz
  x,y,z
_cell_length_a	12.759401
_cell_length_b	12.759400
_cell_length_c	12.759393
_cell_angle_alpha	89.969510
_cell_angle_beta	89.979062
_cell_angle_gamma	90.016209
loop_
_atom_site_label
_atom_site_type_symbol
_atom_site_fract_x
_atom_site_fract_y
_atom_site_fract_z
Zn1	Zn	1.606266	-0.418173	-0.594020
Zn2	Zn	1.606158	-0.593888	-0.418340
Zn3	Zn	1.430565	-0.418229	-0.418355
Zn4	Zn	1.430557	-0.593815	-0.593978
O5	O	1.518387	-0.506026	-0.506173
O6	O	1.753273	-0.441489	-0.570727
O7	O	1.582823	-0.570641	-0.271321
O8	O	1.453921	-0.271200	-0.441682
O9	O	1.753193	-0.570587	-0.441656
O10	O	1.583008	-0.271159	-0.570742
O11	O	1.453816	-0.441584	-0.271332
O12	O	1.283543	-0.441513	-0.441640
O13	O	1.453908	-0.570461	-0.741004
O14	O	1.283537	-0.570516	-0.570669
O15	O	1.583000	-0.441418	-0.741036
O16	O	1.582815	-0.740900	-0.441615
O17	O	1.453802	-0.740846	-0.570655
C18	C	1.245419	-0.506013	-0.506152
C19	C	1.128643	-0.506033	-0.506168
C20	C	1.073805	-0.573307	-0.573248
C21	C	0.964081	-0.573311	-0.573269
C22	C	0.964042	-0.438764	-0.439122
C23	C	1.073764	-0.438756	-0.439107
C24	C	1.518324	-0.778994	-0.506151
C25	C	1.518394	-0.895770	-0.506177
C26	C	1.585645	-0.950625	-0.439060
C27	C	1.585710	-1.060349	-0.439093
C28	C	1.451262	-1.060353	-0.573362
C29	C	1.451204	-0.950631	-0.573334
C30	C	1.652835	-0.895764	-0.371904
C31	C	1.720091	-0.950619	-0.304781
C32	C	1.720156	-1.060343	-0.304813
C33	C	1.652964	-1.115212	-0.371969
C34	C	1.792420	-0.506040	-0.506195
C35	C	1.909197	-0.506046	-0.506204
C36	C	1.518465	-0.505925	-0.780207
C37	C	1.518499	-0.505882	-0.896984
C38	C	1.518478	-0.231993	-0.506218
C39	C	1.518517	-0.115216	-0.506238
C40	C	1.585722	-0.438679	-0.951864
C41	C	1.585740	-0.438633	-1.061588
C42	C	1.451308	-0.573004	-1.061542
C43	C	1.451285	-0.573044	-0.951820
C44	C	1.518369	-0.506051	-0.233206
C45	C	1.518539	-0.505798	-0.116430
H46	H	1.118484	-0.628086	-0.627857
O47	O	0.910843	-0.373473	-0.373831
C48	C	0.877138	-0.322305	-0.195209
C49	C	0.937468	-0.396294	-0.269036
H50	H	0.898626	-0.340743	-0.110466
H51	H	0.898755	-0.237591	-0.213716
H52	H	0.789303	-0.333852	-0.206796
H53	H	1.025317	-0.384839	-0.257490
H54	H	0.915764	-0.480980	-0.250510
H55	H	1.640449	-0.383989	-0.907219
O56	O	1.385934	-0.897449	-0.638677
C57	C	1.334896	-0.863713	-0.817345
C58	C	1.408854	-0.924029	-0.743453
H59	H	1.353415	-0.885164	-0.902072
H60	H	1.250177	-0.885378	-0.798925
H61	H	1.346390	-0.775876	-0.805733
H62	H	1.397453	-1.011880	-0.755024
H63	H	1.493545	-0.902277	-0.761892
H64	H	1.396557	-1.105036	-0.628036
O65	O	1.386177	-0.638359	-1.114861
C66	C	1.372017	-0.780118	-1.238761
C67	C	1.445897	-0.706183	-1.178428
H68	H	1.420270	-0.834957	-1.290186
H69	H	1.323982	-0.828233	-1.180735
H70	H	1.317090	-0.731838	-1.290085
H71	H	1.500887	-0.754382	-1.127103
H72	H	1.493858	-0.658064	-1.236511
O73	O	1.650993	-0.373206	-1.114779
C74	C	1.702026	-0.194481	-1.148422
C75	C	1.628077	-0.268465	-1.088102
H76	H	1.683510	-0.109781	-1.126892
H77	H	1.786747	-0.212862	-1.126839
H78	H	1.690517	-0.206034	-1.236259
H79	H	1.639491	-0.256953	-1.000251
H80	H	1.543382	-0.250065	-1.109772
O81	O	1.127087	-0.373292	-0.374090
C82	C	1.251042	-0.231466	-0.360190
C83	C	1.190701	-0.305520	-0.433933
H84	H	1.302505	-0.176668	-0.408542
H85	H	1.193021	-0.183312	-0.312274
H86	H	1.302329	-0.279655	-0.305146
H87	H	1.139413	-0.257412	-0.489040
H88	H	1.248779	-0.353677	-0.481775
H89	H	1.396536	-0.627768	-0.907136
H90	H	0.919437	-0.628090	-0.627893
O91	O	1.785261	-0.897163	-0.239586
C92	C	1.844796	-0.728129	-0.180073
C93	C	1.770919	-0.788534	-0.253942
H94	H	1.833242	-0.640292	-0.191671
H95	H	1.826400	-0.749711	-0.095324
H96	H	1.929504	-0.749677	-0.198592
H97	H	1.686186	-0.767018	-0.235519
H98	H	1.789405	-0.766947	-0.338669
O99	O	1.785521	-1.113469	-0.239519
C100	C	1.918909	-1.101878	-0.106380
C101	C	1.844921	-1.041587	-0.180262
H102	H	1.966969	-1.043788	-0.058468
H103	H	1.870779	-1.153304	-0.051348
H104	H	1.973807	-1.153190	-0.154692
H105	H	1.790008	-0.990218	-0.132035
H106	H	1.893116	-0.990227	-0.235297
H107	H	1.653031	-1.204557	-0.371998
H108	H	1.652787	-0.806421	-0.371867
