data_functionalizedCrystal
_audit_creation_method	'MofGen! by Chris Wilmer'
_symmetry_space_group_name_H-M	'P1'
_symmetry_Int_Tables_number	1
_symmetry_cell_setting	triclinic
loop_
_symmetry_equiv_pos_as_xyz
  x,y,z
_cell_length_a	10.723024
_cell_length_b	10.723023
_cell_length_c	16.776229
_cell_angle_alpha	89.993342
_cell_angle_beta	90.004552
_cell_angle_gamma	95.532291
loop_
_atom_site_label
_atom_site_type_symbol
_atom_site_fract_x
_atom_site_fract_y
_atom_site_fract_z
O1	O	-0.175026	1.657194	-0.066276
O2	O	-0.191780	1.294041	-0.066279
O3	O	-0.001827	1.483994	-0.066276
O4	O	-0.364979	1.467241	-0.066279
O5	O	-0.001814	1.483968	0.066300
O6	O	-0.191768	1.294016	0.066297
O7	O	-0.175014	1.657168	0.066300
Zn8	Zn	-0.183389	1.475588	0.087348
Zn9	Zn	-0.183405	1.475621	-0.087327
O10	O	-0.364967	1.467215	0.066298
C11	C	-0.190555	1.247529	0.000009
C12	C	-0.186908	1.108974	0.000007
C13	C	-0.181518	0.904020	-0.068671
C14	C	-0.185288	1.047223	-0.068671
C15	C	-0.411473	1.468447	0.000009
C16	C	-0.550027	1.472095	0.000008
C17	C	-0.625010	1.365807	0.000007
C18	C	-0.768213	1.369575	0.000006
C19	C	0.044679	1.482762	0.000010
C20	C	0.183233	1.479114	0.000006
C21	C	-0.176239	1.703680	0.000011
C22	C	-0.179886	1.842235	0.000007
N23	N	-0.183377	1.475574	0.206560
N24	N	-0.183406	1.475645	-0.206538
C25	C	-0.099301	1.559711	0.248278
C26	C	-0.099300	1.559718	0.331730
C27	C	-0.183382	1.475593	0.373462
C28	C	-0.267463	1.391446	0.331738
C29	C	-0.267457	1.391434	0.248288
C30	C	-0.267488	1.391492	0.668285
C31	C	-0.267490	1.391513	0.751742
C32	C	-0.099331	1.559775	0.751728
C33	C	-0.099325	1.559763	0.668277
C34	C	-0.183400	1.475613	0.626560
C35	C	-0.183399	1.475605	0.536072
C36	C	-0.183391	1.475606	0.463949
H37	H	-0.181274	0.895356	0.058804
C38	C	-0.606520	1.598800	0.000011
N39	N	-0.649068	1.694238	0.000014
H40	H	-0.583188	1.272021	0.000002
C41	C	-0.855256	1.246645	0.000003
N42	N	-0.920820	1.154051	-0.000000
H43	H	-0.030837	1.628221	0.214305
H44	H	-0.752341	1.570110	0.000011
C45	C	-0.359957	1.298887	0.202398
N46	N	-0.429632	1.229178	0.167835
H47	H	-0.030868	1.628292	0.785703
H48	H	-0.030838	1.628228	0.365697
C49	C	-0.006825	1.652305	0.622376
N50	N	0.062852	1.722005	0.587805
H51	H	-0.335962	1.323003	0.785719
C52	C	-0.185012	1.037205	0.079447
N53	N	-0.183582	0.983139	0.139281
C54	C	-0.360136	1.299087	0.622408
N55	N	-0.429982	1.229542	0.587850
H56	H	-0.180117	0.850900	-0.127469
C57	C	-0.187183	1.119001	-0.148108
N58	N	-0.188608	1.173068	-0.207942
C59	C	-0.359942	1.298896	0.377647
N60	N	-0.429600	1.229184	0.412225
