data_functionalizedCrystal
_audit_creation_method	'MofGen! by Chris Wilmer'
_symmetry_space_group_name_H-M	'P1'
_symmetry_Int_Tables_number	1
_symmetry_cell_setting	triclinic
loop_
_symmetry_equiv_pos_as_xyz
  x,y,z
_cell_length_a	14.628931
_cell_length_b	14.628931
_cell_length_c	14.560438
_cell_angle_alpha	119.999898
_cell_angle_beta	90.000974
_cell_angle_gamma	120.000193
loop_
_atom_site_label
_atom_site_type_symbol
_atom_site_fract_x
_atom_site_fract_y
_atom_site_fract_z
Zr1	Zr	0.880614	-1.000578	-0.120523
O2	O	0.734650	-1.191286	-0.267172
O3	O	0.925361	-0.809871	-0.075568
O4	O	0.925356	-1.000580	-0.267172
O5	O	0.734658	-1.000575	0.075573
O6	O	1.075788	-1.000580	-0.267172
O7	O	0.734655	-1.000578	-0.075568
O8	O	1.075797	-0.659437	0.075573
O9	O	0.734649	-1.341718	-0.267172
O10	O	1.056710	-0.888311	-0.056394
O11	O	0.944447	-0.888309	0.056400
O12	O	0.944441	-1.112844	-0.169189
O13	O	0.832178	-1.112843	-0.056394
Zr14	Zr	1.120542	-1.000573	0.120529
Zr15	Zr	1.120536	-1.000577	-0.120523
Zr16	Zr	0.880621	-1.000574	0.120529
Zr17	Zr	0.880614	-1.240499	-0.120523
Zr18	Zr	1.120543	-0.760652	0.120529
O19	O	1.075796	-1.191280	0.075574
O20	O	1.075787	-1.191285	-0.267171
O21	O	0.734658	-1.191281	0.075573
O22	O	1.266507	-0.809865	0.267178
O23	O	1.266499	-0.809870	-0.075567
O24	O	0.925369	-0.809866	0.267177
O25	O	1.266499	-1.000576	-0.075567
O26	O	1.075801	-1.000571	0.267178
O27	O	0.925369	-1.000571	0.267178
O28	O	1.266502	-1.000574	0.075574
O29	O	0.925355	-1.341718	-0.267171
O30	O	1.075802	-0.659433	0.267177
O31	O	1.266508	-0.659433	0.267178
O32	O	1.266503	-0.659436	0.075573
O33	O	0.734654	-1.341715	-0.075567
O34	O	0.925360	-1.341715	-0.075567
O35	O	1.056716	-0.888307	0.169195
O36	O	1.168979	-0.888308	0.056400
O37	O	1.056710	-1.112842	-0.056394
O38	O	0.944447	-1.112840	0.056400
C39	C	1.000579	-0.700470	0.000002
C40	C	1.000579	-0.598617	0.000002
C41	C	0.700473	-1.000576	0.000002
C42	C	0.598620	-1.000577	0.000002
C43	C	0.944889	-0.553207	0.055956
C44	C	0.944888	-0.447937	0.055957
C45	C	0.608903	-0.889193	0.055956
C46	C	0.503634	-0.889191	0.055957
C47	C	1.300684	-1.000575	0.000003
C48	C	1.402537	-1.000574	0.000004
C49	C	1.000578	-0.300681	0.000003
C50	C	1.000578	-0.402534	0.000004
C51	C	1.000571	-1.000581	-0.301517
C52	C	1.000568	-1.000582	-0.403849
C53	C	0.941966	-1.117784	-0.510803
C54	C	0.941979	-1.117778	-0.606952
C55	C	1.059198	-0.883358	-0.489180
C56	C	1.059191	-0.883365	-0.393033
C57	C	1.000586	-1.000571	0.301522
C58	C	1.000589	-1.000569	0.403855
C59	C	1.300685	-0.700469	0.000003
C60	C	1.402538	-0.598616	0.000003
C61	C	1.000587	-0.700465	0.301522
C62	C	1.000589	-0.598611	0.403855
C63	C	1.300692	-0.700464	0.301522
C64	C	1.402548	-0.598609	0.403855
C65	C	0.700465	-1.300687	-0.301517
C66	C	0.598609	-1.402542	-0.403849
C67	C	0.700472	-1.300682	0.000003
C68	C	0.598619	-1.402535	0.000003
C69	C	1.000570	-1.300686	-0.301516
C70	C	1.000568	-1.402541	-0.403849
C71	C	1.391789	-0.550764	-0.058872
C72	C	1.487494	-0.455070	-0.058876
C73	C	1.604695	-0.455085	0.058879
C74	C	1.508991	-0.550784	0.058876
C75	C	1.059193	-0.550756	0.510809
C76	C	1.059182	-0.455062	0.606957
C77	C	0.941964	-0.455081	0.489184
C78	C	0.941968	-0.550780	0.393038
C79	C	1.509000	-0.550756	0.393057
C80	C	1.604701	-0.455061	0.489214
C81	C	1.487483	-0.455077	0.606964
C82	C	1.391785	-0.550777	0.510808
H83	H	0.897212	-0.408883	0.103864
H84	H	0.695641	-0.793835	0.103864
H85	H	0.894241	-0.589747	0.305945
H86	H	1.517752	-0.589749	0.106819
H87	H	0.897207	-0.592270	0.103854
H88	H	1.305101	-0.589743	0.519609
H89	H	1.106921	-0.589701	0.519622
H90	H	1.691379	-0.416126	0.106813
H91	H	0.894239	-0.416124	0.480391
O92	O	0.885013	-1.231760	-0.521507
C93	C	0.833271	-1.335202	-0.636529
H94	H	0.879243	-1.300833	-0.687799
H95	H	0.836420	-1.417180	-0.649933
H96	H	0.742313	-1.371240	-0.664866
O97	O	1.288441	-0.597014	-0.115985
C98	C	1.276173	-0.494888	-0.072673
H99	H	1.362325	-0.399154	-0.029554
H100	H	1.225839	-0.509319	-0.144330
H101	H	1.230435	-0.493608	-0.009115
H102	H	1.048264	-0.441574	-0.047898
H103	H	0.393899	-1.095939	-0.047908
O104	O	1.057317	-0.552232	-0.057327
C105	C	1.014269	-0.654299	-0.172276
H106	H	0.924967	-0.735708	-0.193147
H107	H	1.014363	-0.617745	-0.225480
H108	H	1.068665	-0.691977	-0.191152
H109	H	1.517769	-0.589701	0.305975
O110	O	0.885150	-1.231513	-0.710931
C111	C	0.897705	-1.206379	-0.793478
H112	H	0.976858	-1.105649	-0.756002
H113	H	0.904418	-1.281235	-0.867621
H114	H	0.821992	-1.211931	-0.823561
O115	O	1.116013	-0.408474	0.710936
C116	C	1.103461	-0.313732	0.793483
H117	H	1.024308	-0.329454	0.756008
H118	H	1.096748	-0.321503	0.867627
H119	H	1.179175	-0.213629	0.823564
H120	H	1.691377	-0.416103	0.480414
H121	H	1.478734	-0.416118	0.694054
H122	H	0.512264	-0.793831	0.103853
O123	O	0.495206	-1.114426	-0.057315
C124	C	0.482840	-1.185755	-0.172273
H125	H	0.568955	-1.152557	-0.181970
H126	H	0.432397	-1.292987	-0.208353
H127	H	0.437170	-1.169403	-0.219455
O128	O	1.116035	-0.769613	-0.478874
C129	C	1.103435	-0.794728	-0.586666
H130	H	1.024259	-0.895441	-0.650383
H131	H	1.096734	-0.719844	-0.585557
H132	H	1.179120	-0.789206	-0.611222
O133	O	1.116137	-0.769392	-0.289213
C134	C	1.167895	-0.665932	-0.300281
H135	H	1.121937	-0.700279	-0.386078
H136	H	1.164745	-0.583959	-0.231314
H137	H	1.258855	-0.629896	-0.292398
H138	H	1.478732	-0.416115	-0.106820
