data_functionalizedCrystal
_audit_creation_method	'MofGen! by Chris Wilmer'
_symmetry_space_group_name_H-M	'P1'
_symmetry_Int_Tables_number	1
_symmetry_cell_setting	triclinic
loop_
_symmetry_equiv_pos_as_xyz
  x,y,z
_cell_length_a	27.440280
_cell_length_b	21.606444
_cell_length_c	21.606444
_cell_angle_alpha	60.001331
_cell_angle_beta	90.005497
_cell_angle_gamma	59.997270
loop_
_atom_site_label
_atom_site_type_symbol
_atom_site_fract_x
_atom_site_fract_y
_atom_site_fract_z
Zr1	Zr	0.469493	0.677381	-0.081126
O2	O	0.391669	0.806515	-0.179961
O3	O	0.493351	0.548258	-0.050831
O4	O	0.493344	0.677382	-0.179949
O5	O	0.391679	0.677387	0.051011
O6	O	0.573547	0.677370	-0.179936
O7	O	0.391675	0.677391	-0.050843
O8	O	0.573558	0.446391	0.051033
O9	O	0.391668	0.908366	-0.179958
O10	O	0.563379	0.601355	-0.037897
O11	O	0.503528	0.601361	0.038106
O12	O	0.503520	0.753388	-0.113914
O13	O	0.443669	0.753393	-0.037911
Zr14	Zr	0.597413	0.677355	0.081340
Zr15	Zr	0.597407	0.677362	-0.081106
Zr16	Zr	0.469499	0.677374	0.081319
Zr17	Zr	0.469491	0.839821	-0.081121
Zr18	Zr	0.597415	0.514915	0.081335
O19	O	0.573555	0.806478	0.051044
O20	O	0.573546	0.806488	-0.179932
O21	O	0.391678	0.806505	0.051016
O22	O	0.675237	0.548221	0.180175
O23	O	0.675228	0.548231	-0.050802
O24	O	0.493360	0.548248	0.180146
O25	O	0.675227	0.677349	-0.050798
O26	O	0.573561	0.677354	0.180163
O27	O	0.493359	0.677366	0.180150
O28	O	0.675231	0.677345	0.051056
O29	O	0.493342	0.908351	-0.179942
O30	O	0.573563	0.446385	0.180155
O31	O	0.675238	0.446370	0.180172
O32	O	0.675233	0.446376	0.051049
O33	O	0.391673	0.908361	-0.050835
O34	O	0.493348	0.908345	-0.050819
O35	O	0.563385	0.601349	0.114128
O36	O	0.623237	0.601343	0.038125
O37	O	0.563378	0.753375	-0.037892
O38	O	0.503527	0.753381	0.038111
C39	C	0.533455	0.474180	0.000100
C40	C	0.533455	0.405220	0.000098
C41	C	0.564696	0.372819	-0.039576
C42	C	0.564698	0.308019	-0.039571
C43	C	0.533456	0.275626	0.000104
C44	C	0.502214	0.308029	0.039783
C45	C	0.502216	0.372823	0.039782
C46	C	0.502207	0.046720	0.039789
C47	C	0.502206	-0.018078	0.039786
C48	C	0.564689	-0.018084	-0.039563
C49	C	0.564691	0.046710	-0.039564
C50	C	0.533452	0.079104	0.000117
C51	C	0.533451	0.149367	0.000112
C52	C	0.533453	0.205369	0.000105
C53	C	0.373452	0.677392	0.000081
C54	C	0.319149	0.677400	0.000073
C55	C	0.013697	0.597994	0.039808
C56	C	-0.037322	0.597990	0.039815
O57	O	-0.037136	0.530497	0.073584
N58	N	-0.094084	0.677348	0.000134
C59	C	-0.099827	0.756716	-0.039550
O60	O	-0.152793	0.824217	-0.073301
C61	C	-0.048809	0.756720	-0.039552
C62	C	0.007952	0.677357	0.000125
C63	C	0.070456	0.518637	0.079483
C64	C	0.121471	0.518642	0.079475
C65	C	0.115726	0.598005	0.039792
C66	C	0.058967	0.677362	0.000117
C67	C	-0.054553	0.836088	-0.079231
C68	C	-0.003529	0.836085	-0.079229
C69	C	0.053233	0.756721	-0.039552
C70	C	0.104238	0.756729	-0.039574
N71	N	0.161000	0.677371	0.000107
C72	C	0.166744	0.598009	0.039790
C73	C	-0.206966	0.756702	-0.039542
C74	C	-0.257983	0.756699	-0.039545
C75	C	-0.195474	0.597972	0.039821
C76	C	-0.144456	0.597976	0.039819
C77	C	-0.150204	0.677344	0.000139
C78	C	0.273877	0.598025	0.039770
C79	C	0.324893	0.598038	0.039756
C80	C	0.262380	0.756764	-0.039607
C81	C	0.211367	0.756753	-0.039597
C82	C	0.217120	0.677376	0.000097
O83	O	0.104098	0.824187	-0.073323
O84	O	0.219712	0.530520	0.073543
C85	C	0.693454	0.677344	0.000132
C86	C	0.747757	0.677336	0.000141
C87	C	0.533445	0.677377	-0.203088
C88	C	0.533442	0.677380	-0.272050
C89	C	0.533451	0.880556	0.000113
C90	C	0.533451	0.949516	0.000116
C91	C	0.502196	0.756739	-0.344129
C92	C	0.502201	0.756736	-0.408924
C93	C	0.533449	0.677374	-0.401638
C94	C	0.564699	0.598009	-0.329552
C95	C	0.564697	0.598013	-0.264759
C96	C	0.564708	0.597994	-0.590855
C97	C	0.564707	0.597997	-0.655656
C98	C	0.502213	0.756718	-0.735020
C99	C	0.502211	0.756721	-0.670227
C100	C	0.533463	0.677357	-0.598146
C101	C	0.533458	0.677360	-0.527889
C102	C	0.533451	0.677370	-0.471894
C103	C	0.533461	0.677359	0.203301
C104	C	0.533464	0.677356	0.272264
C105	C	0.693456	0.474156	0.000126
C106	C	0.747759	0.405188	0.000132
C107	C	0.533463	0.474171	0.203295
C108	C	0.533466	0.405208	0.272255
C109	C	0.693464	0.474148	0.203320
C110	C	0.747770	0.405176	0.272289
C111	C	0.373442	0.880589	-0.203107
C112	C	0.319136	0.949560	-0.272075
C113	C	0.373450	0.880580	0.000088
C114	C	0.319147	0.949548	0.000082
C115	C	0.533443	0.880565	-0.203081
C116	C	0.533440	0.949528	-0.272041
C117	C	0.742016	0.372806	-0.039554
C118	C	0.793035	0.308012	-0.039564
C119	C	0.849797	0.275597	0.000119
C120	C	0.855539	0.307985	0.039806
C121	C	0.804521	0.372782	0.039811
C122	C	0.564713	0.372816	0.344329
C123	C	0.564713	0.308027	0.409131
C124	C	0.533471	0.275627	0.401857
C125	C	0.502220	0.308025	0.329775
C126	C	0.502217	0.372818	0.264975
C127	C	0.804520	0.372784	0.265005
C128	C	0.855551	0.307987	0.329802
C129	C	0.849832	0.275580	0.401883
C130	C	0.793076	0.307979	0.409166
C131	C	0.742046	0.372779	0.344369
C132	C	0.262386	0.981960	-0.264791
C133	C	0.211354	1.046777	-0.329588
C134	C	0.217074	1.079188	-0.401669
C135	C	0.273830	1.046785	-0.408952
C136	C	0.324860	0.981974	-0.344156
C137	C	0.324890	0.981937	0.039761
C138	C	0.273871	1.046749	0.039753
C139	C	0.217109	1.079166	0.000068
C140	C	0.211367	1.046775	-0.039617
C141	C	0.262385	0.981969	-0.039612
C142	C	0.564688	0.981908	-0.264743
C143	C	0.564697	1.046697	-0.329532
C144	C	0.533453	1.079110	-0.401619
C145	C	0.502203	1.046724	-0.408916
C146	C	0.502199	0.981932	-0.344127
H147	H	0.476773	0.073084	0.072104
H148	H	0.257717	0.955575	-0.206105
H149	H	0.476775	0.399205	0.072086
C150	C	0.599072	0.510706	-0.321529
C151	C	0.582757	0.445242	-0.279883
C152	C	0.617129	0.357935	-0.271856
C153	C	0.667816	0.336092	-0.305475
C154	C	0.684133	0.401557	-0.347124
C155	C	0.649761	0.488864	-0.355151
H156	H	0.545234	0.461411	-0.254994
H157	H	0.605050	0.309474	-0.241024
H158	H	0.693260	0.271462	-0.299532
H159	H	0.721657	0.385388	-0.372013
H160	H	0.661841	0.537325	-0.385983
C161	C	0.786793	0.272314	0.488460
C162	C	0.754011	0.334651	0.512312
C163	C	0.747732	0.298977	0.591609
C164	C	0.774235	0.200966	0.647054
C165	C	0.807019	0.138623	0.623203
C166	C	0.813298	0.174297	0.543906
H167	H	0.734390	0.407211	0.471268
H168	H	0.723462	0.345129	0.609265
H169	H	0.769587	0.174558	0.705755
H170	H	0.826641	0.066064	0.664248
H171	H	0.837568	0.128146	0.526251
C172	C	0.917981	0.272311	0.083463
C173	C	0.961654	0.281200	0.040932
C174	C	1.024097	0.245516	0.084595
C175	C	1.042868	0.200945	0.170789
C176	C	0.999194	0.192055	0.213325
C177	C	0.936751	0.227738	0.169662
H178	H	0.947759	0.314196	-0.022878
H179	H	1.056427	0.252097	0.053107
H180	H	1.089093	0.174530	0.203111
H181	H	1.013089	0.159058	0.277136
H182	H	0.904421	0.221157	0.201151
C183	C	0.599065	0.946255	-0.185453
C184	C	0.633443	0.981875	-0.177441
C185	C	0.667826	0.946222	-0.098153
C186	C	0.667832	0.874950	-0.026877
C187	C	0.633454	0.839326	-0.034887
C188	C	0.599070	0.874979	-0.114174
H189	H	0.633439	1.034639	-0.230205
H190	H	0.693275	0.972594	-0.092224
H191	H	0.693285	0.848557	0.031817
H192	H	0.633457	0.786562	0.017878
H193	H	0.573621	0.848607	-0.120103
H194	H	0.278569	0.533390	0.072093
H195	H	0.590137	0.281639	-0.071876
H196	H	0.476767	0.821340	-0.793718
C197	C	0.467838	0.844021	-0.678243
C198	C	0.501337	0.865840	-0.644603
C199	C	0.466966	0.953142	-0.652622
C200	C	0.399097	1.018625	-0.694281
C201	C	0.365595	0.996808	-0.727925
C202	C	0.399965	0.909506	-0.719906
H203	H	0.551581	0.817364	-0.613762
H204	H	0.491767	0.969293	-0.627717
H205	H	0.373653	1.083252	-0.700218
H206	H	0.315350	1.045284	-0.758766
H207	H	0.375164	0.893356	-0.744811
H208	H	0.165144	1.073180	-0.071927
C209	C	0.467848	0.272395	0.083427
C210	C	0.484170	0.227843	0.169618
C211	C	0.449802	0.192212	0.213262
C212	C	0.399112	0.201134	0.170715
C213	C	0.382788	0.245688	0.084519
C214	C	0.417156	0.281319	0.040875
H215	H	0.521695	0.221237	0.201119
H216	H	0.461886	0.159230	0.277070
H217	H	0.373671	0.174758	0.203022
H218	H	0.345262	0.252294	0.053019
H219	H	0.405071	0.314301	-0.022933
H220	H	0.371111	0.533407	0.072068
C221	C	0.387285	0.946332	-0.352176
C222	C	0.393569	0.981987	-0.431466
C223	C	0.455992	0.946351	-0.439493
C224	C	0.512132	0.875060	-0.368230
C225	C	0.505849	0.839402	-0.288934
C226	C	0.443426	0.875037	-0.280907
H227	H	0.352010	1.034764	-0.484225
H228	H	0.460643	0.972748	-0.498194
H229	H	0.558341	0.848681	-0.374172
H230	H	0.547408	0.786624	-0.236175
H231	H	0.438775	0.848640	-0.222206
H232	H	0.590154	0.533367	-0.649715
H233	H	0.175571	1.131936	0.000070
H234	H	0.476746	0.821365	-0.350070
H235	H	0.165146	1.073149	-0.323644
C236	C	-0.213294	0.844014	-0.083205
C237	C	-0.246099	0.909481	-0.169396
C238	C	-0.252430	0.996792	-0.213058
C239	C	-0.225955	1.018637	-0.170529
C240	C	-0.193147	0.953169	-0.084334
C241	C	-0.186816	0.865857	-0.040672
H242	H	-0.265700	0.893312	-0.200883
H243	H	-0.276717	1.045256	-0.276865
H244	H	-0.230641	1.083270	-0.202850
H245	H	-0.173546	0.969338	-0.052847
H246	H	-0.162529	0.817393	0.023136
C247	C	-0.009853	0.923393	-0.122882
C248	C	-0.042661	0.988870	-0.209072
C249	C	-0.048985	1.076176	-0.252726
C250	C	-0.022502	1.098006	-0.210190
C251	C	0.010308	1.032528	-0.123995
C252	C	0.016633	0.945222	-0.080341
H253	H	-0.062268	0.972711	-0.240564
H254	H	-0.073274	1.124647	-0.316533
H255	H	-0.027183	1.162636	-0.242505
H256	H	0.029915	1.048687	-0.092503
H257	H	0.040921	0.896751	-0.016534
C258	C	0.256061	0.946334	-0.083252
C259	C	0.193622	0.981992	-0.126894
C260	C	0.187293	0.946360	-0.170535
C261	C	0.243403	0.875071	-0.170535
C262	C	0.305847	0.839409	-0.126891
C263	C	0.312176	0.875041	-0.083250
H264	H	0.152082	1.034769	-0.126895
H265	H	0.141068	0.972760	-0.202843
H266	H	0.238718	0.848694	-0.202841
H267	H	0.347387	0.786632	-0.126890
H268	H	0.358401	0.848641	-0.050942
C269	C	0.599059	0.082342	-0.083205
C270	C	0.649744	0.073423	-0.040652
C271	C	0.684116	0.109052	-0.084289
C272	C	0.667801	0.153599	-0.170479
C273	C	0.617113	0.162520	-0.213037
C274	C	0.582742	0.126892	-0.169399
H275	H	0.661823	0.040445	0.023156
H276	H	0.721638	0.102448	-0.052784
H277	H	0.693245	0.179974	-0.202782
H278	H	0.605034	0.195499	-0.276844
H279	H	0.545219	0.133496	-0.200904
H280	H	0.278480	1.073182	-0.467648
H281	H	0.590128	-0.044469	-0.071872
H282	H	0.167685	0.454016	0.111781
H283	H	0.476774	0.399183	0.206292
C284	C	0.786709	0.272386	-0.083214
C285	C	0.724270	0.308033	-0.126847
C286	C	0.717943	0.272407	-0.170496
C287	C	0.774054	0.201134	-0.170511
C288	C	0.836497	0.165483	-0.126876
C289	C	0.842825	0.201109	-0.083227
H290	H	0.682730	0.360797	-0.126838
H291	H	0.671718	0.298799	-0.202797
H292	H	0.769370	0.174762	-0.202822
H293	H	0.878038	0.112719	-0.126885
H294	H	0.889049	0.174717	-0.050926
C295	C	0.905914	0.204313	0.000115
C296	C	0.916780	0.222134	-0.075164
C297	C	0.972894	0.150847	-0.075168
C298	C	1.018143	0.061740	0.000108
C299	C	1.007279	0.043915	0.075393
C300	C	0.951164	0.115201	0.075397
H301	H	0.883282	0.288100	-0.130893
H302	H	0.980936	0.164043	-0.130900
H303	H	1.059682	0.008969	0.000105
H304	H	1.040776	-0.022052	0.131122
H305	H	0.943122	0.102005	0.131129
C306	C	0.467833	1.082392	-0.488216
C307	C	0.501331	1.073492	-0.543671
C308	C	0.466957	1.109168	-0.622974
C309	C	0.399085	1.153743	-0.646821
C310	C	0.365584	1.162645	-0.591364
C311	C	0.399957	1.126969	-0.512062
H312	H	0.551577	1.040493	-0.526020
H313	H	0.491757	1.102578	-0.664026
H314	H	0.373640	1.180152	-0.705525
H315	H	0.315338	1.195643	-0.609016
H316	H	0.375157	1.133559	-0.471009
H317	H	-0.190804	0.533351	0.072130
C318	C	0.599096	0.272390	0.488414
C319	C	0.565609	0.281313	0.543872
C320	C	0.599992	0.245677	0.623153
C321	C	0.667862	0.201119	0.646976
C322	C	0.701353	0.192195	0.591516
C323	C	0.666970	0.227830	0.512235
H324	H	0.515365	0.314299	0.526239
H325	H	0.575200	0.252284	0.664208
H326	H	0.693315	0.174739	0.705664
H327	H	0.751598	0.159208	0.609150
H328	H	0.691762	0.221224	0.471180
H329	H	0.175517	1.131961	-0.454425
H330	H	0.165148	0.821377	-0.071915
C331	C	0.387324	0.946292	0.083413
C332	C	0.393629	0.981938	0.127049
C333	C	0.456061	0.946303	0.170699
C334	C	0.512188	0.875020	0.170714
C335	C	0.505885	0.839369	0.127077
C336	C	0.443453	0.875005	0.083426
H337	H	0.352079	1.034710	0.127040
H338	H	0.460727	0.972694	0.203002
H339	H	0.558404	0.848641	0.203026
H340	H	0.547435	0.786598	0.127086
H341	H	0.438787	0.848613	0.051124
H342	H	0.809205	0.399139	0.072133
C343	C	0.599079	0.408451	0.352344
C344	C	0.633441	0.372815	0.431632
C345	C	0.667807	0.408450	0.439654
C346	C	0.667810	0.479720	0.368388
C347	C	0.633447	0.515360	0.289094
C348	C	0.599082	0.479725	0.281072
H349	H	0.633440	0.320053	0.484393
H350	H	0.693245	0.382066	0.498354
H351	H	0.693250	0.506099	0.374327
H352	H	0.633448	0.568122	0.236333
H353	H	0.573644	0.506109	0.222373
H354	H	0.590134	0.399194	-0.071888
C355	C	0.076787	0.431327	0.123140
C356	C	0.109587	0.365863	0.102418
C357	C	0.115926	0.278546	0.146075
C358	C	0.089465	0.256693	0.210455
C359	C	0.056662	0.322158	0.231180
C360	C	0.050324	0.409476	0.187523
H361	H	0.129177	0.382039	0.054757
H362	H	0.140208	0.230084	0.130732
H363	H	0.094157	0.192055	0.242772
H364	H	0.037072	0.305982	0.278841
H365	H	0.026041	0.457937	0.202866
H366	H	0.533479	0.222869	0.454627
H367	H	0.476784	0.281635	0.323864
C368	C	0.810822	0.408427	0.185721
C369	C	0.873253	0.372790	0.177724
C370	C	0.879561	0.408432	0.098443
C371	C	0.823439	0.479710	0.027158
C372	C	0.761004	0.515351	0.035152
C373	C	0.754696	0.479709	0.114434
H374	H	0.914802	0.320022	0.230496
H375	H	0.925780	0.382048	0.092526
H376	H	0.828109	0.506094	-0.031531
H377	H	0.719455	0.568119	-0.017619
H378	H	0.708477	0.506093	0.120351
H379	H	0.278558	1.073111	0.072072
C380	C	0.905969	0.204293	0.473156
C381	C	0.968391	0.168662	0.465135
C382	C	1.024530	0.097374	0.536405
C383	C	1.018247	0.061716	0.615696
C384	C	0.955822	0.097347	0.623720
C385	C	0.899683	0.168636	0.552451
H386	H	0.973045	0.195058	0.406436
H387	H	1.070741	0.070998	0.530464
H388	H	1.059805	0.008944	0.668454
H389	H	0.951169	0.070951	0.682419
H390	H	0.853472	0.195012	0.558391
H391	H	0.476750	0.955575	-0.350080
H392	H	0.476759	0.821358	-0.467612
H393	H	0.901760	0.281614	0.323859
H394	H	0.590143	1.073059	-0.323576
H395	H	0.533461	1.131869	-0.454368
H396	H	0.590156	0.533371	-0.532172
H397	H	-0.098241	0.533351	0.072135
H398	H	0.476764	-0.044451	0.072096
H399	H	0.695839	0.399144	0.350311
H400	H	-0.100763	0.900714	-0.111540
H401	H	-0.304197	0.821325	-0.071864
H402	H	0.257713	0.821379	-0.071919
H403	H	0.590140	0.533390	-0.206069
H404	H	0.695802	0.399198	-0.071878
