data_functionalizedCrystal
_audit_creation_method	'MofGen! by Chris Wilmer'
_symmetry_space_group_name_H-M	'P1'
_symmetry_Int_Tables_number	1
_symmetry_cell_setting	triclinic
loop_
_symmetry_equiv_pos_as_xyz
  x,y,z
_cell_length_a	18.215407
_cell_length_b	18.215406
_cell_length_c	18.215399
_cell_angle_alpha	90.015166
_cell_angle_beta	89.979405
_cell_angle_gamma	89.999279
loop_
_atom_site_label
_atom_site_type_symbol
_atom_site_fract_x
_atom_site_fract_y
_atom_site_fract_z
Zn1	Zn	-1.125195	-0.292993	0.416196
Zn2	Zn	-0.875195	-0.042993	0.666196
Zn3	Zn	-0.625195	0.207007	0.916196
Zn4	Zn	-0.375195	0.457007	1.166196
Zn5	Zn	-1.125155	-0.416065	0.293157
Zn6	Zn	-0.875155	-0.166065	0.543157
Zn7	Zn	-0.625155	0.083935	0.793157
Zn8	Zn	-0.375155	0.333935	1.043157
Zn9	Zn	-1.002128	-0.293016	0.293142
Zn10	Zn	-0.752128	-0.043016	0.543142
Zn11	Zn	-0.502128	0.206984	0.793142
Zn12	Zn	-0.252128	0.456984	1.043142
Zn13	Zn	-1.002145	-0.416022	0.416181
Zn14	Zn	-0.752145	-0.166022	0.666181
Zn15	Zn	-0.502145	0.083978	0.916181
Zn16	Zn	-0.252145	0.333978	1.166181
O17	O	-1.063656	-0.354524	0.354669
O18	O	-0.813656	-0.104524	0.604669
O19	O	-0.563656	0.145476	0.854669
O20	O	-0.313656	0.395476	1.104669
O21	O	-1.228174	-0.309327	0.399888
O22	O	-0.978174	-0.059327	0.649888
O23	O	-0.728174	0.190673	0.899888
O24	O	-0.478174	0.440673	1.149888
O25	O	-1.108811	-0.399769	0.190171
O26	O	-0.858811	-0.149769	0.440171
O27	O	-0.608811	0.100231	0.690171
O28	O	-0.358811	0.350231	0.940171
O29	O	-1.018462	-0.190029	0.309465
O30	O	-0.768462	0.059971	0.559465
O31	O	-0.518462	0.309971	0.809465
O32	O	-0.268462	0.559971	1.059465
O33	O	-1.228145	-0.399747	0.309492
O34	O	-0.978145	-0.149747	0.559492
O35	O	-0.728145	0.100253	0.809492
O36	O	-0.478145	0.350253	1.059492
O37	O	-1.108879	-0.190012	0.399873
O38	O	-0.858879	0.059988	0.649873
O39	O	-0.608879	0.309988	0.899873
O40	O	-0.358879	0.559988	1.149873
O41	O	-1.018424	-0.309366	0.190160
O42	O	-0.768424	-0.059366	0.440160
O43	O	-0.518424	0.190634	0.690160
O44	O	-0.268424	0.440634	0.940160
O45	O	-0.899146	-0.309325	0.309450
O46	O	-0.649146	-0.059325	0.559450
O47	O	-0.399146	0.190675	0.809450
O48	O	-0.149146	0.440675	1.059450
O49	O	-1.018492	-0.399675	0.519167
O50	O	-0.768492	-0.149675	0.769167
O51	O	-0.518492	0.100325	1.019167
O52	O	-0.268492	0.350325	1.269167
O53	O	-0.899159	-0.399697	0.399846
O54	O	-0.649159	-0.149697	0.649846
O55	O	-0.399159	0.100303	0.899846
O56	O	-0.149159	0.350303	1.149846
O57	O	-1.108896	-0.309286	0.519178
O58	O	-0.858896	-0.059286	0.769178
O59	O	-0.608896	0.190714	1.019178
O60	O	-0.358896	0.440714	1.269178
O61	O	-1.108828	-0.519043	0.309477
O62	O	-0.858828	-0.269043	0.559477
O63	O	-0.608828	-0.019043	0.809477
O64	O	-0.358828	0.230957	1.059477
O65	O	-1.018454	-0.519012	0.399861
O66	O	-0.768454	-0.269012	0.649861
O67	O	-0.518454	-0.019012	0.899861
O68	O	-0.268454	0.230988	1.149861
C69	C	-0.872450	-0.354510	0.354645
C70	C	-0.622450	-0.104510	0.604645
C71	C	-0.372450	0.145490	0.854645
C72	C	-0.122450	0.395490	1.104645
C73	C	-0.790651	-0.354521	0.354653
C74	C	-0.540651	-0.104521	0.604653
C75	C	-0.290651	0.145479	0.854653
C76	C	-0.040651	0.395479	1.104653
C77	C	-1.063659	-0.545730	0.354685
C78	C	-0.813659	-0.295730	0.604685
C79	C	-0.563659	-0.045730	0.854685
C80	C	-0.313659	0.204270	1.104685
C81	C	-1.063727	-0.627529	0.354717
C82	C	-0.813727	-0.377529	0.604717
C83	C	-0.563727	-0.127529	0.854717
C84	C	-0.313727	0.122471	1.104717
C85	C	-0.602483	-0.401650	0.401660
C86	C	-0.352483	-0.151650	0.651660
C87	C	-0.102483	0.098350	0.901660
C88	C	0.147517	0.348350	1.151660
C89	C	-0.525624	-0.401652	0.401669
C90	C	-0.275624	-0.151652	0.651669
C91	C	-0.025624	0.098348	0.901669
C92	C	0.224376	0.348348	1.151669
C93	C	-0.525581	-0.307402	0.307681
C94	C	-0.275581	-0.057402	0.557681
C95	C	-0.025581	0.192598	0.807681
C96	C	0.224419	0.442598	1.057681
C97	C	-0.602438	-0.307397	0.307677
C98	C	-0.352438	-0.057397	0.557677
C99	C	-0.102438	0.192603	0.807677
C100	C	0.147562	0.442603	1.057677
C101	C	-0.640887	-0.354526	0.354665
C102	C	-0.390887	-0.104526	0.604665
C103	C	-0.140887	0.145474	0.854665
C104	C	0.109113	0.395474	1.104665
C105	C	-0.487171	-0.354532	0.354678
C106	C	-0.237171	-0.104532	0.604678
C107	C	0.012829	0.145468	0.854678
C108	C	0.262829	0.395468	1.104678
C109	C	-0.403837	-0.354533	0.354686
C110	C	-0.153837	-0.104533	0.604686
C111	C	0.096163	0.145467	0.854686
C112	C	0.346163	0.395467	1.104686
C113	C	-0.724226	-0.354523	0.354658
C114	C	-0.474226	-0.104523	0.604658
C115	C	-0.224226	0.145477	0.854658
C116	C	0.025774	0.395477	1.104658
C117	C	-1.063701	-0.354473	0.546622
C118	C	-0.813701	-0.104473	0.796622
C119	C	-0.563701	0.145527	1.046622
C120	C	-0.313701	0.395527	1.296622
C121	C	-1.063720	-0.354452	0.628421
C122	C	-0.813720	-0.104452	0.878421
C123	C	-0.563720	0.145548	1.128421
C124	C	-0.313720	0.395548	1.378421
C125	C	-0.255609	-0.354537	0.354690
C126	C	-0.005609	-0.104537	0.604690
C127	C	0.244391	0.145463	0.854690
C128	C	0.494391	0.395463	1.104690
C129	C	-0.337408	-0.354536	0.354690
C130	C	-0.087408	-0.104536	0.604690
C131	C	0.162592	0.145464	0.854690
C132	C	0.412592	0.395464	1.104690
C133	C	-1.063673	-0.162571	0.354669
C134	C	-0.813673	0.087429	0.604669
C135	C	-0.563673	0.337429	0.854669
C136	C	-0.313673	0.587429	1.104669
C137	C	-1.063681	-0.080772	0.354669
C138	C	-0.813681	0.169228	0.604669
C139	C	-0.563681	0.419228	0.854669
C140	C	-0.313681	0.669228	1.104669
C141	C	-1.016624	0.107414	0.307621
C142	C	-0.766624	0.357414	0.557621
C143	C	-0.516624	0.607414	0.807621
C144	C	-0.266624	0.857414	1.057621
C145	C	-1.016630	0.184273	0.307629
C146	C	-0.766630	0.434273	0.557629
C147	C	-0.516630	0.684273	0.807629
C148	C	-0.266630	0.934273	1.057629
C149	C	-1.110786	0.184279	0.401770
C150	C	-0.860786	0.434279	0.651770
C151	C	-0.610786	0.684279	0.901770
C152	C	-0.360786	0.934279	1.151770
C153	C	-1.110776	0.107422	0.401765
C154	C	-0.860776	0.357422	0.651765
C155	C	-0.610776	0.607422	0.901765
C156	C	-0.360776	0.857422	1.151765
C157	C	-1.063696	0.068991	0.354685
C158	C	-0.813696	0.318991	0.604685
C159	C	-0.563696	0.568991	0.854685
C160	C	-0.313696	0.818991	1.104685
C161	C	-1.063712	0.222707	0.354700
C162	C	-0.813712	0.472707	0.604700
C163	C	-0.563712	0.722707	0.854700
C164	C	-0.313712	0.972707	1.104700
C165	C	-1.063719	0.306041	0.354710
C166	C	-0.813719	0.556041	0.604710
C167	C	-0.563719	0.806041	0.854710
C168	C	-0.313719	1.056041	1.104710
C169	C	-1.063687	-0.014348	0.354676
C170	C	-0.813687	0.235652	0.604676
C171	C	-0.563687	0.485652	0.854676
C172	C	-0.313687	0.735652	1.104676
C173	C	-1.063654	-0.354522	0.163463
C174	C	-0.813654	-0.104522	0.413463
C175	C	-0.563654	0.145478	0.663463
C176	C	-0.313654	0.395478	0.913463
C177	C	-1.063777	-0.354336	0.081664
C178	C	-0.813777	-0.104336	0.331664
C179	C	-0.563777	0.145664	0.581664
C180	C	-0.313777	0.395664	0.831664
C181	C	-1.110810	-0.307342	0.816622
C182	C	-0.860810	-0.057342	1.066622
C183	C	-0.610810	0.192658	1.316622
C184	C	-0.360810	0.442658	1.566622
C185	C	-1.110819	-0.307321	0.893481
C186	C	-0.860819	-0.057321	1.143481
C187	C	-0.610819	0.192679	1.393481
C188	C	-0.360819	0.442679	1.643481
C189	C	-1.016681	-0.401447	0.893458
C190	C	-0.766681	-0.151447	1.143458
C191	C	-0.516681	0.098553	1.393458
C192	C	-0.266681	0.348553	1.643458
C193	C	-1.016669	-0.401465	0.816600
C194	C	-0.766669	-0.151465	1.066600
C195	C	-0.516669	0.098535	1.316600
C196	C	-0.266669	0.348535	1.566600
C197	C	-1.063738	-0.354413	0.778185
C198	C	-0.813738	-0.104413	1.028185
C199	C	-0.563738	0.145587	1.278185
C200	C	-0.313738	0.395587	1.528185
C201	C	-1.063759	-0.354374	0.931901
C202	C	-0.813759	-0.104374	1.181901
C203	C	-0.563759	0.145626	1.431901
C204	C	-0.313759	0.395626	1.681901
C205	C	-1.063768	-0.354352	1.015234
C206	C	-0.813768	-0.104352	1.265234
C207	C	-0.563768	0.145648	1.515234
C208	C	-0.313768	0.395648	1.765234
C209	C	-1.063728	-0.354435	0.694846
C210	C	-0.813728	-0.104435	0.944846
C211	C	-0.563728	0.145565	1.194846
C212	C	-0.313728	0.395565	1.444846
H213	H	-0.633786	-0.440023	0.439924
H214	H	-0.383786	-0.190023	0.689924
H215	H	-0.133786	0.059977	0.939924
H216	H	0.116214	0.309977	1.189924
F217	F	-1.160874	0.066527	0.451865
F218	F	-0.910874	0.316527	0.701865
F219	F	-0.660874	0.566527	0.951865
F220	F	-0.410874	0.816527	1.201865
H221	H	-1.149134	-0.269028	0.785346
H222	H	-0.899134	-0.019028	1.035346
H223	H	-0.649134	0.230972	1.285346
H224	H	-0.399134	0.480972	1.535346
H225	H	-1.149118	0.215577	0.440100
H226	H	-0.899118	0.465577	0.690100
H227	H	-0.649118	0.715577	0.940100
H228	H	-0.399118	0.965577	1.190100
H229	H	-1.149149	-0.268990	0.924773
H230	H	-0.899149	-0.018990	1.174773
H231	H	-0.649149	0.231010	1.424773
H232	H	-0.399149	0.481010	1.674773
F233	F	-0.966526	0.225162	0.257540
F234	F	-0.716526	0.475162	0.507540
F235	F	-0.466526	0.725162	0.757540
F236	F	-0.216526	0.975162	1.007540
H237	H	-0.978362	-0.439757	0.924745
H238	H	-0.728362	-0.189757	1.174745
H239	H	-0.478362	0.060243	1.424745
H240	H	-0.228362	0.310243	1.674745
F241	F	-0.966563	-0.451563	0.775690
F242	F	-0.716563	-0.201563	1.025690
F243	F	-0.466563	0.048437	1.275690
F244	F	-0.216563	0.298437	1.525690
H245	H	-0.494359	-0.440025	0.439938
H246	H	-0.244359	-0.190025	0.689938
H247	H	0.005641	0.059975	0.939938
H248	H	0.255641	0.309975	1.189938
H249	H	-0.633708	-0.269018	0.269408
H250	H	-0.383708	-0.019018	0.519408
H251	H	-0.133708	0.230982	0.769408
H252	H	0.116292	0.480982	1.019408
F253	F	-0.484654	-0.257249	0.257674
F254	F	-0.234654	-0.007249	0.507674
F255	F	0.015346	0.242751	0.757674
F256	F	0.265346	0.492751	1.007674
F257	F	-0.966515	0.066516	0.257517
F258	F	-0.716515	0.316516	0.507517
F259	F	-0.466515	0.566516	0.757517
F260	F	-0.216515	0.816516	1.007517
