data_functionalizedCrystal
_audit_creation_method	'MofGen! by Chris Wilmer'
_symmetry_space_group_name_H-M	'P1'
_symmetry_Int_Tables_number	1
_symmetry_cell_setting	triclinic
loop_
_symmetry_equiv_pos_as_xyz
  x,y,z
_cell_length_a	19.805407
_cell_length_b	19.120900
_cell_length_c	19.805399
_cell_angle_alpha	87.530940
_cell_angle_beta	90.017803
_cell_angle_gamma	87.529387
loop_
_atom_site_label
_atom_site_type_symbol
_atom_site_fract_x
_atom_site_fract_y
_atom_site_fract_z
Zn1	Zn	1.023204	0.279696	0.371181
Zn2	Zn	1.523204	0.779696	0.871181
Zn3	Zn	1.018275	0.397155	0.253160
Zn4	Zn	1.518275	0.897155	0.753160
Zn5	Zn	0.910018	0.279710	0.258008
Zn6	Zn	1.410018	0.779710	0.758008
Zn7	Zn	0.905141	0.397112	0.366312
Zn8	Zn	1.405141	0.897112	0.866312
O9	O	0.964159	0.338418	0.312166
O10	O	1.464159	0.838418	0.812166
O11	O	1.117266	0.295289	0.355534
O12	O	1.617266	0.795289	0.855534
O13	O	1.003893	0.381599	0.159086
O14	O	1.503893	0.881599	0.659086
O15	O	0.929135	0.181418	0.277087
O16	O	1.429135	0.681418	0.777087
O17	O	1.113645	0.381586	0.268825
O18	O	1.613645	0.881586	0.768825
O19	O	1.012293	0.181408	0.360235
O20	O	1.512293	0.681408	0.860235
O21	O	0.924357	0.295313	0.162648
O22	O	1.424357	0.795313	0.662648
O23	O	0.814655	0.295271	0.272367
O24	O	1.314655	0.795271	0.772367
O25	O	0.920823	0.381513	0.461676
O26	O	1.420823	0.881513	0.961676
O27	O	0.811071	0.381526	0.351937
O28	O	1.311071	0.881526	0.851937
O29	O	1.007564	0.295248	0.465253
O30	O	1.507564	0.795248	0.965253
O31	O	0.999164	0.495439	0.264104
O32	O	1.499164	0.995439	0.764104
O33	O	0.916045	0.495408	0.347236
O34	O	1.416045	0.995408	0.847236
C35	C	0.788304	0.338396	0.312150
C36	C	1.288304	0.838396	0.812150
C37	C	0.713072	0.338404	0.312159
C38	C	1.213072	0.838404	0.812159
C39	C	0.679610	0.293549	0.357371
C40	C	1.179610	0.793549	0.857371
C41	C	0.608922	0.293552	0.357373
C42	C	1.108922	0.793552	0.857373
C43	C	0.571696	0.338415	0.312166
C44	C	1.071696	0.838415	0.812166
C45	C	0.605162	0.383272	0.266950
C46	C	1.105162	0.883272	0.766950
C47	C	0.675850	0.383264	0.266944
C48	C	1.175850	0.883264	0.766944
C49	C	0.320088	0.383304	0.266969
C50	C	0.820088	0.883304	0.766969
C51	C	0.249395	0.383310	0.266979
C52	C	0.749395	0.883310	0.766979
C53	C	0.253160	0.293592	0.357398
C54	C	0.753160	0.793592	0.857398
C55	C	0.323847	0.293584	0.357393
C56	C	0.823847	0.793584	0.857393
C57	C	0.357308	0.338438	0.312174
C58	C	0.857308	0.838438	0.812174
C59	C	0.433956	0.338433	0.312171
C60	C	0.933956	0.838433	0.812171
C61	C	0.495048	0.338425	0.312172
C62	C	0.995048	0.838425	0.812172
C63	C	0.956559	0.520909	0.304630
C64	C	1.456559	1.020909	0.804630
C65	C	0.953369	0.598979	0.301430
C66	C	1.453369	1.098979	0.801430
C67	C	0.933142	1.040533	0.281175
C68	C	1.433142	1.540533	0.781175
C69	C	0.936141	0.967178	0.284183
C70	C	1.436141	1.467178	0.784183
C71	C	0.980906	0.930435	0.329011
C72	C	1.480906	1.430435	0.829011
C73	C	1.022671	0.967052	0.370839
C74	C	1.522671	1.467052	0.870839
C75	C	1.019668	1.040406	0.367834
C76	C	1.519668	1.540406	0.867834
C77	C	0.992132	0.708950	0.340253
C78	C	1.492132	1.208950	0.840253
C79	C	0.995132	0.635591	0.343253
C80	C	1.495132	1.135591	0.843253
C81	C	0.908601	0.635722	0.256597
C82	C	1.408601	1.135722	0.756597
C83	C	0.905606	0.709077	0.253594
C84	C	1.405606	1.209077	0.753594
C85	C	0.947368	0.745687	0.295425
C86	C	1.447368	1.245687	0.795425
C87	C	0.983973	0.855454	0.332084
C88	C	1.483973	1.355454	0.832084
C89	C	0.944297	0.820667	0.292354
C90	C	1.444297	1.320667	0.792354
C91	C	1.140701	0.338441	0.312182
C92	C	1.640701	0.838441	0.812182
C93	C	1.215933	0.338450	0.312188
C94	C	1.715933	0.838450	0.812188
C95	C	0.964199	0.338374	0.488710
C96	C	1.464199	0.838374	0.988710
C97	C	0.964216	0.338355	0.563943
C98	C	1.464216	0.838355	1.063943
C99	C	0.971767	1.155215	0.319751
C100	C	1.471767	1.655215	0.819751
C101	C	0.974905	1.077145	0.322999
C102	C	1.474905	1.577145	0.822999
C103	C	0.964161	0.338412	0.136310
C104	C	1.464161	0.838412	0.636310
C105	C	0.964283	0.338233	0.061086
C106	C	1.464283	0.838233	0.561086
C107	C	1.009383	0.293435	0.601151
C108	C	1.509383	0.793435	1.101151
C109	C	1.009391	0.293414	0.671840
C110	C	1.509391	0.793414	1.171840
C111	C	0.964234	0.338318	0.705320
C112	C	1.464234	0.838318	1.205320
C113	C	0.919063	0.383241	0.668107
C114	C	1.419063	0.883241	1.168107
C115	C	0.919052	0.383257	0.597419
C116	C	1.419052	0.883257	1.097419
C117	C	0.919104	0.383175	0.953183
C118	C	1.419104	0.883175	1.453183
C119	C	0.919119	0.383157	1.023876
C120	C	1.419119	0.883157	1.523876
C121	C	1.009442	0.293333	1.027604
C122	C	1.509442	0.793333	1.527604
C123	C	1.009431	0.293349	0.956916
C124	C	1.509431	0.793349	1.456916
C125	C	0.964258	0.338268	0.919710
C126	C	1.464258	0.838268	1.419710
C127	C	0.964249	0.338289	0.843060
C128	C	1.464249	0.838289	1.343060
C129	C	0.964246	0.338302	0.781968
C130	C	1.464246	0.838302	1.281968
H131	H	0.574847	0.419797	0.230138
H132	H	1.074847	0.919797	0.730138
O133	O	1.032683	0.744424	0.380973
O134	O	1.532683	1.244424	0.880973
C135	C	1.064568	0.766777	0.495215
C136	C	1.564568	1.266777	0.995215
C137	C	1.018605	0.726547	0.449180
C138	C	1.518605	1.226547	0.949180
H139	H	1.053193	0.752350	0.550369
H140	H	1.553193	1.252350	1.050369
H141	H	1.119750	0.752296	0.484009
H142	H	1.619750	1.252296	0.984009
H143	H	1.054756	0.825515	0.485340
H144	H	1.554756	1.325515	0.985340
H145	H	1.028358	0.667801	0.459028
H146	H	1.528358	1.167801	0.959028
H147	H	0.963439	0.741087	0.460395
H148	H	1.463439	1.241087	0.960395
H149	H	0.703093	0.419790	0.230128
H150	H	1.203093	0.919790	0.730128
O151	O	0.576523	0.249958	0.401357
O152	O	1.076523	0.749958	0.901357
C153	C	0.587718	0.160937	0.491017
C154	C	1.087718	0.660937	0.991017
C155	C	0.624493	0.210288	0.441251
C156	C	1.124493	0.710288	0.941251
H157	H	0.626486	0.128840	0.523274
H158	H	1.126486	0.628840	1.023274
H159	H	0.553313	0.193202	0.525072
H160	H	1.053313	0.693202	1.025072
H161	H	0.556122	0.124199	0.461508
H162	H	1.056122	0.624199	0.961508
H163	H	0.656125	0.247036	0.470705
H164	H	1.156125	0.747036	0.970705
H165	H	0.658857	0.177980	0.407196
H166	H	1.158857	0.677980	0.907196
O167	O	0.889597	1.076113	0.237611
O168	O	1.389597	1.576113	0.737611
C169	C	0.804112	1.068491	0.151954
C170	C	1.304112	1.568491	0.651954
C171	C	0.853388	1.028113	0.201269
C172	C	1.353388	1.528113	0.701269
H173	H	0.774834	1.029701	0.122548
H174	H	1.274834	1.529701	0.622548
H175	H	0.767253	1.102820	0.181560
H176	H	1.267253	1.602820	0.681560
H177	H	0.833809	1.102854	0.115209
H178	H	1.333809	1.602854	0.615209
H179	H	0.823746	0.993712	0.238025
H180	H	1.323746	1.493712	0.738025
H181	H	0.890246	0.993829	0.171618
H182	H	1.390246	1.493829	0.671618
H183	H	0.907846	0.850586	0.255858
H184	H	1.407846	1.350586	0.755858
O185	O	0.359906	0.249938	0.401331
O186	O	0.859906	0.749938	0.901331
C187	C	0.356176	0.160972	0.491041
C188	C	0.856176	0.660972	0.991041
C189	C	0.315259	0.210357	0.441309
C190	C	0.815259	0.710357	0.941309
H191	H	0.320097	0.128969	0.523386
H192	H	0.820097	0.628969	1.023386
H193	H	0.390768	0.124154	0.461572
H194	H	0.890768	0.624154	0.961572
H195	H	0.387962	0.193275	0.525016
H196	H	0.887962	0.693275	1.025016
H197	H	0.283435	0.178111	0.407322
H198	H	0.783435	0.678111	0.907322
H199	H	0.280710	0.247178	0.470820
H200	H	0.780710	0.747178	0.970820
H201	H	0.902133	0.937369	0.250127
H202	H	1.402133	1.437369	0.750127
H203	H	1.020423	0.825533	0.368583
H204	H	1.520423	1.325533	0.868583
O205	O	0.220550	0.250036	0.401256
O206	O	0.720550	0.750036	0.901256
C207	C	0.113321	0.210309	0.441370
C208	C	0.613321	0.710309	0.941370
C209	C	0.150163	0.259655	0.391655
C210	C	0.650163	0.759655	0.891655
H211	H	0.056406	0.218079	0.433635
H212	H	0.556406	0.718079	0.933635
H213	H	0.129520	0.153640	0.431915
H214	H	0.629520	0.653640	0.931915
H215	H	0.126766	0.222713	0.495407
H216	H	0.626766	0.722713	0.995407
H217	H	0.136736	0.247314	0.337600
H218	H	0.636736	0.747314	0.837600
H219	H	0.133961	0.316310	0.401169
H220	H	0.633961	0.816310	0.901169
H221	H	0.882293	0.419800	0.695373
H222	H	1.382293	0.919800	1.195373
O223	O	0.213336	0.426911	0.222995
O224	O	0.713336	0.926911	0.722995
C225	C	0.217057	0.515925	0.133328
C226	C	0.717057	1.015925	0.633328
C227	C	0.257976	0.466573	0.183088
C228	C	0.757976	0.966573	0.683088
H229	H	0.253130	0.548015	0.101061
H230	H	0.753130	1.048015	0.601061
H231	H	0.185305	0.483662	0.099283
H232	H	0.685305	0.983662	0.599283
H233	H	0.182432	0.552669	0.162842
H234	H	0.682432	1.052669	0.662842
H235	H	0.292638	0.429819	0.153630
H236	H	0.792638	0.929819	0.653630
H237	H	0.289683	0.498880	0.217134
H238	H	0.789683	0.998880	0.717134
O239	O	1.053181	0.249712	0.568667
O240	O	1.553181	0.749712	1.068667
C241	C	1.091045	0.130244	0.552027
C242	C	1.591045	0.630244	1.052027
C243	C	1.041396	0.179683	0.588844
C244	C	1.541396	0.679683	1.088844
H245	H	1.081544	0.073616	0.568337
H246	H	1.581544	0.573616	1.068337
H247	H	1.083283	0.137908	0.495107
H248	H	1.583283	0.637908	0.995107
H249	H	1.145103	0.142617	0.565416
H250	H	1.645103	0.642617	1.065416
H251	H	0.987318	0.167341	0.575510
H252	H	1.487318	0.667341	1.075510
H253	H	1.049217	0.172010	0.645755
H254	H	1.549217	0.672010	1.145755
H255	H	1.046205	0.256786	0.929660
H256	H	1.546205	0.756786	1.429660
O257	O	0.352655	0.426915	0.223142
O258	O	0.852655	0.926915	0.723142
C259	C	0.428479	0.521762	0.209963
C260	C	0.928479	1.021762	0.709963
C261	C	0.391647	0.472401	0.259673
C262	C	0.891647	0.972401	0.759673
H263	H	0.460001	0.558559	0.239479
H264	H	0.960001	1.058559	0.739479
H265	H	0.462943	0.489507	0.175957
H266	H	0.962943	0.989507	0.675957
H267	H	0.389713	0.553795	0.177647
H268	H	0.889713	1.053795	0.677647
H269	H	0.430364	0.440357	0.292034
H270	H	0.930364	0.940357	0.792034
H271	H	0.357171	0.504696	0.293633
H272	H	0.857171	1.004696	0.793633
O273	O	0.862060	0.744658	0.210032
O274	O	1.362060	1.244658	0.710032
C275	C	0.776579	0.737043	0.124369
C276	C	1.276579	1.237043	0.624369
C277	C	0.825850	0.696661	0.173686
C278	C	1.325850	1.196661	0.673686
H279	H	0.747300	0.698256	0.094960
H280	H	1.247300	1.198256	0.594960
H281	H	0.739720	0.771373	0.153974
H282	H	1.239720	1.271373	0.653974
H283	H	0.806280	0.771405	0.087627
H284	H	1.306280	1.271405	0.587627
H285	H	0.796204	0.662261	0.210439
H286	H	1.296204	1.162261	0.710439
H287	H	0.862708	0.662376	0.144037
H288	H	1.362708	1.162376	0.644037
O289	O	1.053170	0.249698	0.708012
O290	O	1.553170	0.749698	1.208012
C291	C	1.066242	0.154860	0.791759
C292	C	1.566242	0.654860	1.291759
C293	C	1.016587	0.204323	0.750830
C294	C	1.516587	0.704323	1.250830
H295	H	1.036684	0.118172	0.826397
H296	H	1.536684	0.618172	1.326397
H297	H	1.098501	0.122722	0.755714
H298	H	1.598501	0.622722	1.255714
H299	H	1.100308	0.187109	0.823500
H300	H	1.600308	0.687109	1.323500
H301	H	0.982478	0.172128	0.719086
H302	H	1.482478	0.672128	1.219086
H303	H	0.984375	0.236463	0.786911
H304	H	1.484375	0.736463	1.286911
O305	O	0.868058	0.600049	0.216038
O306	O	1.368058	1.100049	0.716038
C307	C	0.834356	0.487101	0.182233
C308	C	1.334356	0.987101	0.682233
C309	C	0.880302	0.527412	0.228215
C310	C	1.380302	1.027412	0.728215
H311	H	0.844249	0.428367	0.192051
H312	H	1.344249	0.928367	0.692051
H313	H	0.779168	0.501506	0.193486
H314	H	1.279168	1.001506	0.693486
H315	H	0.845669	0.501596	0.127079
H316	H	1.345669	1.001596	0.627079
H317	H	0.869049	0.512939	0.283384
H318	H	1.369049	1.012939	0.783384
H319	H	0.935475	0.513003	0.216904
H320	H	1.435475	1.013003	0.716904
O321	O	1.053255	0.249712	1.063852
O322	O	1.553255	0.749712	1.563852
C323	C	1.093332	0.209898	1.174400
C324	C	1.593332	0.709898	1.674400
C325	C	1.043669	0.259318	1.133437
C326	C	1.543669	0.759318	1.633437
H327	H	1.085609	0.217657	1.230667
H328	H	1.585609	0.717657	1.730667
H329	H	1.083810	0.153248	1.162891
H330	H	1.583810	0.653248	1.662891
H331	H	1.147385	0.222237	1.159961
H332	H	1.647385	0.722237	1.659961
H333	H	0.989598	0.247041	1.147853
H334	H	1.489598	0.747041	1.647853
H335	H	1.053250	0.315953	1.144950
H336	H	1.553250	0.815953	1.644950
O337	O	1.038525	0.599817	0.386840
O338	O	1.538525	1.099817	0.886840
C339	C	1.050954	0.516945	0.481641
C340	C	1.550954	1.016945	0.981641
C341	C	1.001743	0.557405	0.432319
C342	C	1.501743	1.057405	0.932319
H343	H	1.021234	0.482656	0.518431
H344	H	1.521234	0.982656	1.018431
H345	H	1.087759	0.482551	0.452040
H346	H	1.587759	0.982551	0.952040
H347	H	1.080303	0.555720	0.510995
H348	H	1.580303	1.055720	1.010995
H349	H	0.972347	0.518680	0.402952
H350	H	1.472347	1.018680	0.902952
H351	H	0.964982	0.591809	0.461958
H352	H	1.464982	1.091809	0.961958
O353	O	1.066079	0.931392	0.414483
O354	O	1.566079	1.431392	0.914483
C355	C	1.099813	0.908871	0.530566
C356	C	1.599813	1.408871	1.030566
C357	C	1.050599	0.949285	0.481216
C358	C	1.550599	1.449285	0.981216
H359	H	1.087324	0.923333	0.584529
H360	H	1.587324	1.423333	1.084529
H361	H	1.094783	0.850145	0.525587
H362	H	1.594783	1.350145	1.025587
H363	H	1.153806	0.923251	0.518107
H364	H	1.653806	1.423251	1.018107
H365	H	0.996586	0.934964	0.493644
H366	H	1.496586	1.434964	0.993644
H367	H	1.055688	1.008001	0.486204
H368	H	1.555688	1.508001	0.986204
O369	O	0.875184	0.426799	1.056295
O370	O	1.375184	0.926799	1.556295
C371	C	0.785611	0.515920	1.045141
C372	C	1.285611	1.015920	1.545141
C373	C	0.835316	0.466523	1.008342
C374	C	1.335316	0.966523	1.508342
H375	H	0.753375	0.548061	1.006387
H376	H	1.253375	1.048061	1.506387
H377	H	0.751530	0.483689	1.079546
H378	H	1.251530	0.983689	1.579546
H379	H	0.815169	0.552615	1.076738
H380	H	1.315169	1.052615	1.576738
H381	H	0.805813	0.429819	0.976708
H382	H	1.305813	0.929819	1.476708
H383	H	0.869396	0.498798	0.973977
H384	H	1.369396	0.998798	1.473977
H385	H	0.882330	0.419762	0.922898
H386	H	1.382330	0.919762	1.422898
O387	O	0.875161	0.426968	0.561375
O388	O	1.375161	0.926968	1.061375
C389	C	0.785559	0.516050	0.565134
C390	C	1.285559	1.016050	1.065134
C391	C	0.835239	0.466592	0.606035
C392	C	1.335239	0.966592	1.106035
H393	H	0.753259	0.548089	0.601224
H394	H	1.253259	1.048089	1.101224
H395	H	0.815069	0.552832	0.530545
H396	H	1.315069	1.052832	1.030545
H397	H	0.751535	0.483803	0.533346
H398	H	1.251535	0.983803	1.033346
H399	H	0.869275	0.498783	0.637862
H400	H	1.369275	0.998783	1.137862
H401	H	0.805687	0.429808	0.640580
H402	H	1.305687	0.929808	1.140580
H403	H	0.709915	0.257018	0.394185
H404	H	1.209915	0.757018	0.894185
H405	H	1.053671	1.070214	0.401897
H406	H	1.553671	1.570214	0.901897
