data_functionalizedCrystal
_audit_creation_method	'MofGen! by Chris Wilmer'
_symmetry_space_group_name_H-M	'P1'
_symmetry_Int_Tables_number	1
_symmetry_cell_setting	triclinic
loop_
_symmetry_equiv_pos_as_xyz
  x,y,z
_cell_length_a	31.640172
_cell_length_b	16.704494
_cell_length_c	16.704494
_cell_angle_alpha	60.174809
_cell_angle_beta	90.004933
_cell_angle_gamma	63.425212
loop_
_atom_site_label
_atom_site_type_symbol
_atom_site_fract_x
_atom_site_fract_y
_atom_site_fract_z
Zr1	Zr	0.434456	0.863808	-0.142349
O2	O	0.374653	1.017947	-0.271797
O3	O	0.449504	0.701021	-0.097013
O4	O	0.458093	0.851318	-0.263622
O5	O	0.363025	0.880517	0.019804
O6	O	0.527649	0.851303	-0.263604
O7	O	0.366064	0.867649	-0.105188
O8	O	0.512285	0.582448	0.034428
O9	O	0.378390	1.149372	-0.278228
O10	O	0.511800	0.771169	-0.084495
O11	O	0.457623	0.780783	0.008772
O12	O	0.467736	0.957739	-0.187388
O13	O	0.413560	0.967353	-0.094121
Zr14	Zr	0.540544	0.884306	0.057027
Zr15	Zr	0.545390	0.863784	-0.142322
Zr16	Zr	0.429610	0.884330	0.056999
Zr17	Zr	0.440416	1.073415	-0.152607
Zr18	Zr	0.534584	0.674699	0.067285
O19	O	0.525497	1.047093	0.011691
O20	O	0.532387	1.017913	-0.271757
O21	O	0.367763	1.047127	0.011651
O22	O	0.600348	0.730167	0.186475
O23	O	0.607238	0.700987	-0.096973
O24	O	0.442614	0.730200	0.186435
O25	O	0.611975	0.867597	-0.105126
O26	O	0.516908	0.896796	0.178300
O27	O	0.447351	0.896810	0.178282
O28	O	0.608937	0.880464	0.019866
O29	O	0.466568	1.149353	-0.278206
O30	O	0.508433	0.598761	0.192884
O31	O	0.596611	0.598742	0.192906
O32	O	0.600462	0.582430	0.034451
O33	O	0.374538	1.165684	-0.119773
O34	O	0.462716	1.165665	-0.119751
O35	O	0.507265	0.790375	0.102066
O36	O	0.561441	0.780761	0.008798
O37	O	0.517378	0.967331	-0.094094
O38	O	0.463201	0.976945	-0.000827
C39	C	0.480045	0.611870	-0.029831
C40	C	0.477515	0.522886	-0.025476
C41	C	0.529333	0.345623	-0.114659
C42	C	0.526957	0.262015	-0.110570
C43	C	0.470390	0.272053	-0.013204
C44	C	0.472766	0.355662	-0.017293
C45	C	0.502238	0.392445	-0.068024
C46	C	0.504611	0.476060	-0.072118
C47	C	0.448047	0.486092	0.025253
C48	C	0.445671	0.402484	0.029342
C49	C	0.348739	0.874087	-0.042696
C50	C	0.301644	0.874097	-0.042708
C51	C	0.032636	0.776661	0.011067
C52	C	-0.144350	0.776643	0.011087
O53	O	-0.147675	0.693821	0.056798
N54	N	-0.189481	0.874030	-0.042624
C55	C	-0.190364	0.971428	-0.096337
O56	O	-0.232811	1.054262	-0.142013
C57	C	-0.013378	0.971445	-0.096351
C58	C	0.031752	0.874051	-0.042645
C59	C	0.077764	0.679275	0.064770
C60	C	0.122008	0.679280	0.064760
C61	C	0.121124	0.776671	0.011048
C62	C	0.075995	0.874056	-0.042654
C63	C	-0.014262	1.068843	-0.150059
C64	C	0.029989	1.068839	-0.150055
C65	C	0.075119	0.971445	-0.096349
C66	C	0.119355	0.971452	-0.096376
N67	N	0.164485	0.874066	-0.042666
C68	C	0.165370	0.776675	0.011046
C69	C	-0.283282	0.971412	-0.096328
C70	C	-0.327528	0.971408	-0.096326
C71	C	-0.281511	0.776622	0.011099
C72	C	-0.237264	0.776627	0.011092
C73	C	-0.238151	0.874025	-0.042618
C74	C	0.258283	0.776692	0.011022
C75	C	0.302529	0.776706	0.011004
C76	C	0.256508	0.971491	-0.096417
C77	C	0.212266	0.971478	-0.096404
C78	C	0.213157	0.874070	-0.042677
O79	O	0.122718	1.054231	-0.142055
O80	O	0.207821	0.693855	0.056732
C81	C	-0.011608	0.776656	0.011077
C82	C	-0.056736	0.874041	-0.042626
C83	C	-0.057620	0.971432	-0.096338
C84	C	-0.100982	0.874037	-0.042624
C85	C	-0.100098	0.776646	0.011088
C86	C	-0.054967	0.679260	0.064798
C87	C	-0.010723	0.679265	0.064789
C88	C	-0.102750	1.068819	-0.150048
C89	C	-0.146992	1.068806	-0.150035
C90	C	-0.146108	0.971415	-0.096323
C91	C	0.626262	0.874027	-0.042626
C92	C	0.673356	0.874017	-0.042614
C93	C	0.493562	0.848387	-0.292016
C94	C	0.495619	0.839675	-0.376645
C95	C	0.494956	1.136244	-0.055491
C96	C	0.497486	1.225228	-0.059846
C97	C	0.453486	1.018100	-0.643103
C98	C	0.455418	1.009919	-0.722622
C99	C	0.501417	0.815133	-0.615204
C100	C	0.499485	0.823314	-0.535685
C101	C	0.475518	0.924801	-0.549639
C102	C	0.473584	0.932981	-0.470118
C103	C	0.519586	0.738196	-0.362703
C104	C	0.521518	0.730015	-0.442222
C105	C	0.481439	0.899727	0.206694
C106	C	0.479382	0.908439	0.291323
C107	C	0.618807	0.611840	-0.029796
C108	C	0.663371	0.522846	-0.025430
C109	C	0.473984	0.637540	0.219524
C110	C	0.469396	0.557268	0.308507
C111	C	0.612745	0.637510	0.219559
C112	C	0.655252	0.557229	0.308554
C113	C	0.362255	1.110603	-0.304881
C114	C	0.319748	1.190885	-0.393876
C115	C	0.356194	1.136274	-0.055526
C116	C	0.311630	1.225267	-0.059892
C117	C	0.501017	1.110574	-0.304846
C118	C	0.505604	1.190845	-0.393830
C119	C	0.658387	0.476046	-0.072086
C120	C	0.700256	0.392437	-0.068002
C121	C	0.747109	0.355624	-0.017257
C122	C	0.752092	0.402432	0.029401
C123	C	0.710224	0.486045	0.025311
C124	C	0.493154	0.524580	0.399002
C125	C	0.488842	0.449168	0.482618
C126	C	0.460775	0.406441	0.475738
C127	C	0.437014	0.439137	0.385234
C128	C	0.441323	0.514553	0.301620
C129	C	0.703498	0.514509	0.301662
C130	C	0.743443	0.439087	0.385275
C131	C	0.735140	0.406380	0.475778
C132	C	0.686889	0.449107	0.482667
C133	C	0.646946	0.524534	0.399056
C134	C	0.271503	1.233615	-0.386985
C135	C	0.231559	1.309063	-0.470598
C136	C	0.239862	1.341775	-0.561102
C137	C	0.288112	1.299042	-0.567991
C138	C	0.328055	1.223601	-0.484379
C139	C	0.316615	1.272076	-0.013245
C140	C	0.274747	1.355706	-0.017351
C141	C	0.227894	1.392522	-0.068100
C142	C	0.222910	1.345709	-0.114754
C143	C	0.264778	1.262086	-0.110652
C144	C	0.533676	1.233549	-0.386919
C145	C	0.537996	1.308962	-0.470520
C146	C	0.514241	1.341677	-0.561031
C147	C	0.486169	1.298965	-0.567940
C148	C	0.481852	1.223547	-0.484339
H149	H	0.549020	0.223893	-0.148544
C150	C	0.171371	1.386208	-0.170565
H151	H	0.147153	1.442705	-0.166311
H152	H	0.169964	1.412236	-0.236226
H153	H	0.165195	1.328661	-0.143569
C154	C	0.796513	0.392064	0.377686
H155	H	0.819116	0.342458	0.440439
H156	H	0.800254	0.356045	0.346249
H157	H	0.802909	0.448678	0.341697
C158	C	0.527764	0.703508	-0.599866
H159	H	0.540607	0.649109	-0.532812
H160	H	0.504947	0.696307	-0.628671
H161	H	0.553994	0.696237	-0.628640
H162	H	0.354761	1.242108	0.028086
C163	C	0.450964	1.176596	-0.491949
H164	H	0.451792	1.126992	-0.429202
H165	H	0.417829	1.233244	-0.527942
H166	H	0.464220	1.140571	-0.523390
C167	C	0.415191	0.550495	0.202082
H168	H	0.397864	0.514235	0.209970
H169	H	0.392596	0.626033	0.165155
H170	H	0.438996	0.533366	0.169720
H171	H	0.710268	0.541127	0.227978
H172	H	-0.051002	1.148152	-0.193791
C173	C	0.803630	0.361917	0.085236
H174	H	0.800607	0.401761	0.112441
H175	H	0.818643	0.287720	0.135168
H176	H	0.823432	0.371289	0.042541
H177	H	0.767669	0.344961	0.543852
C178	C	0.677763	0.413112	0.582224
H179	H	0.708464	0.362062	0.631026
H180	H	0.660914	0.473841	0.586278
H181	H	0.658286	0.381198	0.590795
C182	C	0.280235	1.407188	0.033968
H183	H	0.248593	1.462276	0.024251
H184	H	0.295355	1.353755	0.100970
H185	H	0.300138	1.437314	0.008325
C186	C	0.437977	0.231580	0.042595
H187	H	0.440442	0.175083	0.038346
H188	H	0.448869	0.205557	0.108255
H189	H	0.404616	0.289135	0.015593
C190	C	0.352171	0.669572	0.070085
H191	H	0.378398	0.683515	0.062384
H192	H	0.353305	0.634090	0.136207
H193	H	0.355439	0.625022	0.048095
H194	H	0.264733	1.206985	-0.313300
H195	H	0.553326	0.375579	-0.155974
C196	C	0.537031	0.516514	-0.127910
H197	H	0.552832	0.476642	-0.155089
H198	H	0.517012	0.590711	-0.177860
H199	H	0.561261	0.507121	-0.085190
H200	H	0.607663	0.559307	0.404681
H201	H	0.541033	0.647387	-0.430873
H202	H	0.175519	1.050783	-0.140148
H203	H	0.437477	1.085893	-0.798722
C204	C	0.694767	0.340950	-0.119317
H205	H	0.726411	0.285887	-0.109628
H206	H	0.674871	0.310812	-0.093669
H207	H	0.679639	0.394393	-0.186321
C208	C	0.715710	0.537520	0.076636
H209	H	0.684067	0.592597	0.066932
H210	H	0.730836	0.484080	0.143635
H211	H	0.735608	0.567659	0.050986
C212	C	0.524027	0.571573	0.406583
H213	H	0.523198	0.621166	0.343830
H214	H	0.510767	0.607598	0.438018
H215	H	0.557167	0.514939	0.442573
H216	H	0.508193	0.422557	0.556302
C217	C	0.413253	0.362022	0.085136
H218	H	0.415716	0.305527	0.080888
H219	H	0.424143	0.336001	0.150796
H220	H	0.379894	0.419584	0.058128
C221	C	0.259268	0.669546	0.070114
H222	H	0.292485	0.611554	0.102084
H223	H	0.241899	0.670016	0.116408
H224	H	0.244034	0.660959	0.028290
C225	C	0.178489	1.356046	-0.463003
H226	H	0.179268	1.325741	-0.397125
H227	H	0.163046	1.432000	-0.495849
H228	H	0.160415	1.339360	-0.491334
H229	H	0.457270	0.345034	0.543830
H230	H	0.294867	1.325685	-0.641689
H231	H	0.425982	0.524228	0.063223
C232	C	0.568871	1.355943	-0.462909
H233	H	0.568047	1.405537	-0.525656
H234	H	0.555608	1.391966	-0.431472
H235	H	0.602009	1.299303	-0.426911
H236	H	0.414161	0.404338	0.379647
C237	C	0.195921	1.424743	-0.653066
H238	H	0.165999	1.445491	-0.635991
H239	H	0.198638	1.486284	-0.692243
H240	H	0.196011	1.393624	-0.687690
H241	H	0.620241	0.506017	-0.113420
H242	H	0.255797	1.050784	-0.140151
C243	C	0.543801	0.635562	-0.259889
H244	H	0.539215	0.654966	-0.214527
H245	H	0.529039	0.594248	-0.250898
H246	H	0.578088	0.594164	-0.250810
H247	H	0.367338	1.188810	-0.490001
H248	H	0.193806	1.460614	-0.071432
H249	H	0.260712	1.223977	-0.148636
H250	H	0.781197	0.287539	-0.013933
C251	C	0.559810	1.197573	-0.287367
H252	H	0.577150	1.233806	-0.295238
H253	H	0.536012	1.214686	-0.254996
H254	H	0.582405	1.122028	-0.250458
H255	H	0.517760	1.403088	-0.629096
C256	C	-0.284264	1.078556	-0.155422
H257	H	-0.317480	1.136546	-0.187413
H258	H	-0.269032	1.087157	-0.113614
H259	H	-0.266893	1.078071	-0.201716
H260	H	0.466829	1.325613	-0.641645
H261	H	0.158751	0.599971	0.108489
H262	H	-0.364271	1.050715	-0.140071
H263	H	0.078492	0.599963	0.108514
H264	H	-0.200521	0.697321	0.054832
H265	H	-0.280798	0.697322	0.054828
C266	C	0.029011	1.175980	-0.209142
H267	H	-0.004205	1.233975	-0.241129
H268	H	0.044247	1.184568	-0.167329
H269	H	0.046380	1.175498	-0.255439
C270	C	-0.196632	1.175947	-0.209113
H271	H	-0.190817	1.233946	-0.241093
H272	H	-0.213788	1.175475	-0.255400
H273	H	-0.215912	1.184525	-0.167278
H274	H	0.026020	0.599957	0.108524
H275	H	-0.054254	0.599960	0.108527
H276	H	-0.103478	1.148128	-0.193789
H277	H	0.454066	1.015617	-0.481484
H278	H	0.433966	1.100735	-0.654466
