data_functionalizedCrystal
_audit_creation_method	'MofGen! by Chris Wilmer'
_symmetry_space_group_name_H-M	'P1'
_symmetry_Int_Tables_number	1
_symmetry_cell_setting	triclinic
loop_
_symmetry_equiv_pos_as_xyz
  x,y,z
_cell_length_a	15.944551
_cell_length_b	13.596369
_cell_length_c	14.519731
_cell_angle_alpha	89.994584
_cell_angle_beta	83.593795
_cell_angle_gamma	89.993059
loop_
_atom_site_label
_atom_site_type_symbol
_atom_site_fract_x
_atom_site_fract_y
_atom_site_fract_z
O1	O	0.110194	-0.081796	1.223664
O2	O	0.610194	0.418204	1.723664
O3	O	0.123142	-0.081797	0.955167
O4	O	0.623142	0.418203	1.455167
O5	O	-0.005596	-0.081788	1.096747
O6	O	0.494404	0.418212	1.596747
O7	O	0.238932	-0.081805	1.082083
O8	O	0.738932	0.418195	1.582083
O9	O	-0.005602	0.081795	1.096733
O10	O	0.494398	0.581795	1.596733
O11	O	0.123135	0.081785	0.955153
O12	O	0.623135	0.581785	1.455153
O13	O	0.110187	0.081787	1.223650
O14	O	0.610187	0.581787	1.723650
Zn15	Zn	0.116660	0.107759	1.089399
Zn16	Zn	0.616660	0.607759	1.589399
Zn17	Zn	0.116669	-0.107769	1.089417
Zn18	Zn	0.616669	0.392231	1.589417
O19	O	0.238925	0.081777	1.082069
O20	O	0.738925	0.581777	1.582069
C21	C	-0.036894	0.000004	1.096131
C22	C	0.463106	0.500004	1.596131
C23	C	-0.130143	0.000005	1.094306
C24	C	0.369857	0.500005	1.594306
C25	C	0.122532	-0.000006	0.920801
C26	C	0.622532	0.499994	1.420801
C27	C	0.120714	-0.000007	0.818424
C28	C	0.620714	0.499993	1.318424
N29	N	0.116654	0.254851	1.089393
N30	N	0.616654	0.754851	1.589393
C31	C	-0.345139	-0.000010	1.002186
C32	C	0.154861	0.499990	1.502186
C33	C	-0.406095	0.080647	1.044957
C34	C	0.093905	0.580647	1.544957
C35	C	-0.300874	-0.000003	1.091005
C36	C	0.199126	0.499997	1.591005
C37	C	-0.406072	-0.080633	1.044991
C38	C	0.093928	0.419367	1.544991
C39	C	-0.465791	-0.000015	1.087809
C40	C	0.034209	0.499985	1.587809
C41	C	-0.360601	0.080720	1.133800
C42	C	0.139399	0.580720	1.633800
C43	C	-0.360571	-0.080632	1.133822
C44	C	0.139429	0.419368	1.633822
C45	C	-0.421509	0.000044	1.176658
C46	C	0.078491	0.500044	1.676658
C47	C	-0.205868	0.000004	1.092843
C48	C	0.294132	0.500004	1.592843
C49	C	-0.560795	-0.000015	1.085977
C50	C	-0.060795	0.499985	1.585977
C51	C	0.270223	-0.000016	1.082685
C52	C	0.770223	0.499984	1.582685
C53	C	0.363472	-0.000023	1.084510
C54	C	0.863472	0.499977	1.584510
N55	N	0.116669	-0.254861	1.089431
N56	N	0.616669	0.245139	1.589431
C57	C	0.116670	0.656141	1.089416
C58	C	0.616670	1.156141	1.589416
C59	C	0.116668	0.544490	1.089407
C60	C	0.616668	1.044490	1.589407
C61	C	0.116662	0.455500	1.089405
C62	C	0.616662	0.955500	1.589405
C63	C	0.116659	0.343841	1.089395
C64	C	0.616659	0.843841	1.589395
C65	C	0.119237	-0.000010	0.735283
C66	C	0.619237	0.499990	1.235283
C67	C	0.117391	-0.000011	0.630977
C68	C	0.617391	0.499989	1.130977
C69	C	0.115926	-0.000010	0.547841
C70	C	0.615926	0.499990	1.047841
C71	C	0.114080	-0.000012	0.443528
C72	C	0.614080	0.499988	0.943528
C73	C	0.110797	-0.000006	1.258015
C74	C	0.610797	0.499994	1.758015
C75	C	0.112615	-0.000012	1.360392
C76	C	0.612615	0.499988	1.860392
H77	H	-0.426263	0.148835	1.007384
H78	H	0.073737	0.648835	1.507384
H79	H	-0.454556	0.000090	1.250446
H80	H	0.045444	0.500090	1.750446
H81	H	-0.426203	-0.148827	1.007419
H82	H	0.073797	0.351173	1.507419
N83	N	-0.303503	0.000093	0.909698
N84	N	0.196497	0.500093	1.409698
N85	N	-0.315445	0.069241	0.855939
N86	N	0.184555	0.569241	1.355939
H87	H	-0.286039	0.069318	0.790621
H88	H	0.213961	0.569318	1.290621
N89	N	-0.335450	0.166351	1.180882
N90	N	0.164550	0.666351	1.680882
N91	N	-0.259287	0.180192	1.189850
N92	N	0.240713	0.680192	1.689850
H93	H	-0.241520	0.240668	1.223099
H94	H	0.258480	0.740668	1.723099
N95	N	-0.335248	-0.166184	1.180912
N96	N	0.164752	0.333816	1.680912
N97	N	-0.349567	-0.249871	1.150647
N98	N	0.150433	0.250129	1.650647
H99	H	-0.331682	-0.310300	1.183899
H100	H	0.168318	0.189700	1.683899
