data_functionalizedCrystal
_audit_creation_method	'MofGen! by Chris Wilmer'
_symmetry_space_group_name_H-M	'P1'
_symmetry_Int_Tables_number	1
_symmetry_cell_setting	triclinic
loop_
_symmetry_equiv_pos_as_xyz
  x,y,z
_cell_length_a	12.759401
_cell_length_b	12.594516
_cell_length_c	12.759393
_cell_angle_alpha	89.971950
_cell_angle_beta	89.979062
_cell_angle_gamma	90.017577
loop_
_atom_site_label
_atom_site_type_symbol
_atom_site_fract_x
_atom_site_fract_y
_atom_site_fract_z
Zn1	Zn	1.606257	-0.423647	-0.594038
Zn2	Zn	1.606143	-0.601663	-0.418366
Zn3	Zn	1.430555	-0.423704	-0.418373
Zn4	Zn	1.430543	-0.601589	-0.594003
O5	O	1.518375	-0.512651	-0.506195
O6	O	1.753263	-0.447269	-0.570746
O7	O	1.582809	-0.578111	-0.271345
O8	O	1.453915	-0.274751	-0.441693
O9	O	1.753179	-0.578056	-0.441680
O10	O	1.583002	-0.274709	-0.570754
O11	O	1.453805	-0.447365	-0.271351
O12	O	1.283533	-0.447293	-0.441659
O13	O	1.453894	-0.577930	-0.741029
O14	O	1.283524	-0.577985	-0.570694
O15	O	1.582990	-0.447197	-0.741054
O16	O	1.582797	-0.750599	-0.441646
O17	O	1.453784	-0.750545	-0.570686
C18	C	1.245407	-0.512638	-0.506174
C19	C	1.128631	-0.512658	-0.506190
C20	C	1.073791	-0.580812	-0.573272
C21	C	0.964067	-0.580817	-0.573293
C22	C	0.964031	-0.444509	-0.439140
C23	C	1.073753	-0.444500	-0.439125
C24	C	1.518306	-0.789192	-0.506185
C25	C	1.518372	-0.907497	-0.506215
C26	C	1.448195	-0.976759	-0.576351
C27	C	1.422594	-1.047629	-0.480484
C28	C	1.544069	-1.047427	-0.602099
C29	C	1.492721	-0.976808	-0.410297
C30	C	1.614240	-0.976600	-0.531977
C31	C	1.588675	-1.047438	-0.436044
C32	C	1.792408	-0.512665	-0.506216
C33	C	1.909184	-0.512671	-0.506226
C34	C	1.518453	-0.512549	-0.780228
C35	C	1.518487	-0.512505	-0.897005
C36	C	1.518472	-0.235030	-0.506228
C37	C	1.518514	-0.116725	-0.506242
C38	C	1.585712	-0.444422	-0.951882
C39	C	1.585730	-0.444376	-1.061606
C40	C	1.451294	-0.580506	-1.061567
C41	C	1.451272	-0.580546	-0.951844
C42	C	1.518357	-0.512676	-0.233228
C43	C	1.518527	-0.512420	-0.116451
H44	H	1.118469	-0.636308	-0.627883
O45	O	1.650846	-0.378267	-0.898497
C46	C	1.664995	-0.234557	-0.774697
C47	C	1.591116	-0.309434	-0.835065
H48	H	1.616732	-0.178872	-0.723415
H49	H	1.719891	-0.283379	-0.723257
H50	H	1.713064	-0.185936	-0.832793
H51	H	1.542979	-0.358071	-0.777044
H52	H	1.536289	-0.260551	-0.886520
H53	H	1.388743	-0.945724	-0.635576
H54	H	1.396572	-0.635905	-1.106230
H55	H	0.919422	-0.636313	-0.627920
O56	O	1.385933	-0.646789	-0.898692
C57	C	1.252550	-0.781764	-0.910222
C58	C	1.326508	-0.706824	-0.970547
H59	H	1.204470	-0.830306	-0.968291
H60	H	1.300706	-0.837510	-0.858881
H61	H	1.197670	-0.732891	-0.858822
H62	H	1.381402	-0.755611	-1.022004
H63	H	1.278287	-0.651076	-1.021822
H64	H	1.640470	-0.388934	-1.106282
H65	H	0.919337	-0.389018	-0.384537
O66	O	1.325886	-1.084803	-0.454665
C67	C	1.142502	-1.090914	-0.499326
C68	C	1.251970	-1.048771	-0.528690
H69	H	1.082708	-1.061781	-0.559147
H70	H	1.143627	-1.181424	-0.498885
H71	H	1.120124	-1.060675	-0.418148
H72	H	1.274416	-1.078931	-0.609874
H73	H	1.250787	-0.958262	-0.529058
O74	O	1.126984	-0.378405	-0.373805
C75	C	1.160442	-0.326473	-0.195181
C76	C	1.100112	-0.401406	-0.269026
H77	H	1.138721	-0.345027	-0.110453
H78	H	1.248301	-0.338177	-0.206603
H79	H	1.138910	-0.240678	-0.213831
H80	H	1.121555	-0.487229	-0.250421
H81	H	1.012267	-0.389609	-0.257590
O82	O	1.466714	-0.939786	-0.313620
C83	C	1.437527	-0.786052	-0.205128
C84	C	1.466972	-0.827838	-0.314665
H85	H	1.437747	-0.695538	-0.205930
H86	H	1.356091	-0.815866	-0.183018
H87	H	1.497022	-0.815829	-0.145315
H88	H	1.407548	-0.798079	-0.374550
H89	H	1.548434	-0.798033	-0.336686
O90	O	1.659429	-1.084188	-0.365081
C91	C	1.712360	-1.089655	-0.183893
C92	C	1.632150	-1.047982	-0.264145
H93	H	1.690347	-1.060381	-0.102272
H94	H	1.712389	-1.180168	-0.184815
H95	H	1.793778	-1.059204	-0.205200
H96	H	1.550693	-1.078354	-0.242894
H97	H	1.632213	-0.957470	-0.263208
H98	H	1.695229	-0.945381	-0.553791
H99	H	1.565747	-1.078448	-0.683176
