data_functionalizedCrystal
_audit_creation_method	'MofGen! by Chris Wilmer'
_symmetry_space_group_name_H-M	'P1'
_symmetry_Int_Tables_number	1
_symmetry_cell_setting	triclinic
loop_
_symmetry_equiv_pos_as_xyz
  x,y,z
_cell_length_a	19.288864
_cell_length_b	19.288857
_cell_length_c	18.366186
_cell_angle_alpha	89.991598
_cell_angle_beta	89.977106
_cell_angle_gamma	83.134677
loop_
_atom_site_label
_atom_site_type_symbol
_atom_site_fract_x
_atom_site_fract_y
_atom_site_fract_z
O1	O	0.921350	0.086649	-0.060787
O2	O	0.719089	0.098338	-0.060737
O3	O	0.826067	-0.008637	-0.060755
O4	O	0.814373	0.193624	-0.060769
O5	O	0.826049	-0.008643	0.060345
O6	O	0.719071	0.098333	0.060362
O7	O	0.921332	0.086644	0.060313
Zn8	Zn	0.820199	0.092487	0.079565
Zn9	Zn	0.820223	0.092494	-0.079989
O10	O	0.814355	0.193619	0.060330
C11	C	0.825683	-0.034516	-0.000204
C12	C	0.824556	-0.111620	-0.000202
C13	C	0.693204	0.097959	-0.000181
C14	C	0.616100	0.096830	-0.000162
C15	C	0.824040	-0.147828	-0.066213
C16	C	0.822971	-0.220274	-0.066218
C17	C	0.822432	-0.256511	-0.000208
C18	C	0.822945	-0.220294	0.065812
C19	C	0.824006	-0.147849	0.065815
C20	C	0.861426	-0.376745	0.050350
C21	C	0.860369	-0.449190	0.050344
C22	C	0.819155	-0.479957	-0.000216
C23	C	0.779007	-0.438272	-0.050781
C24	C	0.780068	-0.365827	-0.050778
C25	C	0.821281	-0.335066	-0.000205
C26	C	0.817479	-0.594719	-0.066237
C27	C	0.816406	-0.667166	-0.066240
C28	C	0.816386	-0.667186	0.065792
C29	C	0.817452	-0.594740	0.065793
C30	C	0.818002	-0.558511	-0.000224
C31	C	0.571402	0.159598	-0.000178
C32	C	0.498955	0.158537	-0.000186
C33	C	0.471210	0.094705	-0.000193
C34	C	0.515917	0.031929	-0.000172
C35	C	0.588363	0.032991	-0.000157
C36	C	0.362955	0.044528	-0.042640
C37	C	0.290511	0.043468	-0.042660
C38	C	0.247764	0.091425	-0.000236
C39	C	0.277469	0.140455	0.042197
C40	C	0.349914	0.141517	0.042213
C41	C	0.392656	0.093546	-0.000209
C42	C	0.124510	0.153048	-0.000260
C43	C	0.052062	0.151984	-0.000263
C44	C	0.069026	0.025374	-0.000257
C45	C	0.141472	0.026439	-0.000246
C46	C	0.169210	0.090278	-0.000251
C47	C	0.947218	0.087022	-0.000245
C48	C	1.024321	0.088151	-0.000269
C49	C	0.814739	0.219498	-0.000222
C50	C	0.815866	0.296602	-0.000229
N51	N	0.820188	0.092482	0.188456
N52	N	0.820240	0.092494	-0.188880
C53	C	0.867573	0.045137	0.226548
C54	C	0.867577	0.045134	0.302776
C55	C	0.820203	0.092488	0.340909
C56	C	0.772809	0.139837	0.302807
C57	C	0.772801	0.139834	0.226580
C58	C	0.810903	0.155776	0.461666
C59	C	0.810916	0.155780	0.537891
C60	C	0.820223	0.092497	0.576016
C61	C	0.829532	0.029207	0.537907
C62	C	0.829524	0.029204	0.461681
C63	C	0.820206	0.092496	0.423563
C64	C	0.867615	0.045144	0.696764
C65	C	0.867615	0.045140	0.772993
C66	C	0.772850	0.139849	0.773022
C67	C	0.772847	0.139847	0.696794
C68	C	0.820233	0.092495	0.658670
H69	H	0.822546	-0.249760	-0.119974
N70	N	0.815806	-0.706267	0.136986
H71	H	0.859035	-0.699431	0.165837
H72	H	0.772910	-0.687879	0.165800
N73	N	0.918687	-0.005930	0.343880
H74	H	0.910852	-0.055211	0.330633
H75	H	0.967931	0.002010	0.330573
N76	N	0.824565	-0.108791	0.137015
H77	H	0.824060	-0.142737	0.178834
H78	H	0.868057	-0.084504	0.139881
H79	H	0.397755	0.005473	-0.077190
N80	N	0.231367	0.192177	0.087961
H81	H	0.244816	0.185888	0.140903
H82	H	0.237447	0.241212	0.072065
N83	N	0.721749	0.190920	0.655698
H84	H	0.691080	0.164453	0.624093
H85	H	0.691784	0.220910	0.691461
H86	H	0.147095	0.205029	-0.000253
N87	N	0.905885	-0.343563	0.104882
H88	H	0.875158	-0.309337	0.136002
H89	H	0.931154	-0.381005	0.136859
N90	N	0.903672	-0.494143	0.104879
H91	H	0.872062	-0.520035	0.135990
H92	H	0.938027	-0.528814	0.078218
N93	N	0.721692	0.190908	0.185497
H94	H	0.748132	0.221596	0.153852
H95	H	0.691034	0.164394	0.153932
N96	N	0.003848	0.219688	-0.000223
H97	H	0.032416	0.260287	-0.000207
H98	H	-0.026582	0.222037	-0.045103
N99	N	0.839588	-0.039057	0.579011
H100	H	0.801080	-0.067929	0.565770
H101	H	0.886266	-0.065459	0.565699
N102	N	0.601320	0.228450	-0.000188
H103	H	0.562006	0.268052	-0.000202
H104	H	0.630984	0.231654	0.044709
H105	H	0.493322	-0.020044	-0.000188
H106	H	0.824485	-0.118335	-0.119969
N107	N	0.918735	-0.005924	0.814076
H108	H	0.892307	-0.036621	0.845722
H109	H	0.948737	-0.035865	0.778303
N110	N	0.918719	-0.005927	0.655637
H111	H	0.948736	-0.035925	0.691339
H112	H	0.892226	-0.036566	0.624027
H113	H	0.817878	-0.565260	0.119546
H114	H	0.734275	0.178403	0.804068
N115	N	0.258474	-0.009409	-0.088426
H116	H	0.296546	-0.039635	-0.115291
H117	H	0.232386	-0.039630	-0.055884
H118	H	0.747377	-0.331889	-0.091949
N119	N	0.381959	0.194383	0.087986
H120	H	0.408041	0.224658	0.055495
H121	H	0.343856	0.224558	0.114857
H122	H	0.803340	0.207314	0.568913
N123	N	0.822372	-0.259377	0.137008
H124	H	0.822861	-0.225444	0.178828
H125	H	0.778883	-0.283672	0.139893
N126	N	0.800865	0.224036	0.420548
H127	H	0.794977	0.264128	0.456254
H128	H	0.843046	0.227979	0.388900
H129	H	0.462555	0.209652	-0.000197
H130	H	0.734235	0.178392	0.333858
H131	H	0.745446	-0.463321	-0.091952
H132	H	0.046436	-0.026600	-0.000308
H133	H	0.817922	-0.565220	-0.119992
H134	H	0.815982	-0.696645	-0.119996
N135	N	0.636581	-0.034709	-0.000149
H136	H	0.666994	-0.037090	0.044748
H137	H	0.607969	-0.075272	-0.000180
H138	H	0.177867	-0.024674	-0.000237
N139	N	0.918678	-0.005935	0.185429
H140	H	0.948696	-0.035930	0.221132
H141	H	0.892184	-0.036579	0.153824
H142	H	0.837103	-0.022329	0.430656
