data_functionalizedCrystal
_audit_creation_method	'MofGen! by Chris Wilmer'
_symmetry_space_group_name_H-M	'P1'
_symmetry_Int_Tables_number	1
_symmetry_cell_setting	triclinic
loop_
_symmetry_equiv_pos_as_xyz
  x,y,z
_cell_length_a	21.606444
_cell_length_b	14.446369
_cell_length_c	21.606444
_cell_angle_alpha	90.002213
_cell_angle_beta	59.999490
_cell_angle_gamma	60.009339
loop_
_atom_site_label
_atom_site_type_symbol
_atom_site_fract_x
_atom_site_fract_y
_atom_site_fract_z
Zr1	Zr	0.677315	0.892013	-0.081146
O2	O	0.806424	0.744244	-0.179966
O3	O	0.548214	0.937280	-0.050860
O4	O	0.677318	0.937317	-0.179972
O5	O	0.677315	0.744214	0.051000
O6	O	0.677312	1.089654	-0.179968
O7	O	0.677319	0.744206	-0.050854
O8	O	0.446368	1.089587	0.050990
O9	O	0.908259	0.744281	-0.179958
O10	O	0.601308	1.070312	-0.037931
O11	O	0.601309	0.956631	0.038078
O12	O	0.753313	0.956675	-0.113935
O13	O	0.753314	0.842993	-0.037925
Zr14	Zr	0.677299	1.134986	0.081305
Zr15	Zr	0.677306	1.134973	-0.081140
Zr16	Zr	0.677308	0.892026	0.081299
Zr17	Zr	0.839731	0.892073	-0.081133
Zr18	Zr	0.514884	1.134926	0.081292
O19	O	0.806401	1.089719	0.051019
O20	O	0.806411	1.089702	-0.179958
O21	O	0.806414	0.744261	0.051010
O22	O	0.548191	1.282755	0.180125
O23	O	0.548201	1.282738	-0.050851
O24	O	0.548204	0.937297	0.180117
O25	O	0.677300	1.282785	-0.050841
O26	O	0.677297	1.089682	0.180131
O27	O	0.677302	0.937345	0.180127
O28	O	0.677295	1.282793	0.051013
O29	O	0.908252	0.937402	-0.179953
O30	O	0.446363	1.089597	0.180112
O31	O	0.446356	1.282718	0.180117
O32	O	0.446361	1.282708	0.050995
O33	O	0.908253	0.744291	-0.050835
O34	O	0.908246	0.937412	-0.050831
O35	O	0.601302	1.070324	0.114094
O36	O	0.601301	1.184006	0.038084
O37	O	0.753305	1.070368	-0.037919
O38	O	0.753306	0.956686	0.038091
C39	C	0.474150	1.013425	0.000063
C40	C	0.405201	1.013400	0.000058
C41	C	0.677319	0.709593	0.000072
C42	C	0.677322	0.606450	0.000070
C43	C	-0.074273	1.097493	0.056211
C44	C	-0.009465	1.097468	0.056203
C45	C	0.079030	1.013545	0.000088
C46	C	0.102717	0.929647	-0.056026
C47	C	0.037909	0.929677	-0.056021
C48	C	0.364079	0.929526	-0.056050
C49	C	0.428887	0.929501	-0.056049
C50	C	0.316705	1.097317	0.056175
C51	C	0.251898	1.097347	0.056180
C52	C	0.275590	1.013453	0.000063
C53	C	0.205317	1.013482	0.000071
C54	C	0.149302	1.013511	0.000083
C55	C	0.773181	0.388113	-0.047624
C56	C	0.773246	0.495345	-0.047892
C57	C	0.629706	0.603107	-0.034903
C58	C	0.630314	0.495338	-0.035253
C59	C	0.628335	0.496710	0.082797
C60	C	0.630142	0.602680	0.082667
C61	C	0.880465	1.013574	0.000096
C62	C	0.949414	1.013599	0.000102
C63	C	0.677316	1.013484	-0.203115
C64	C	0.677319	1.013479	-0.272077
C65	C	0.677296	1.317406	0.000087
C66	C	0.677292	1.420548	0.000090
C67	C	0.756663	0.954161	-0.344149
C68	C	0.756661	0.954170	-0.408944
C69	C	0.677313	1.013492	-0.401666
C70	C	0.597963	1.072818	-0.329586
C71	C	0.597966	1.072814	-0.264793
C72	C	0.597948	1.072836	-0.590889
C73	C	0.597951	1.072832	-0.655690
C74	C	0.756642	0.954192	-0.735040
C75	C	0.756646	0.954188	-0.670247
C76	C	0.677296	1.013518	-0.598174
C77	C	0.677299	1.013509	-0.527916
C78	C	0.677309	1.013496	-0.471921
C79	C	0.677299	1.013515	0.203274
C80	C	0.677296	1.013520	0.272237
C81	C	0.474139	1.317331	0.000071
C82	C	0.405186	1.420449	0.000068
C83	C	0.474142	1.013440	0.203258
C84	C	0.405189	1.013420	0.272215
C85	C	0.474130	1.317346	0.203265
C86	C	0.405174	1.420469	0.272225
C87	C	0.880484	0.709653	-0.203106
C88	C	0.949441	0.606530	-0.272065
C89	C	0.880476	0.709668	0.000088
C90	C	0.949429	0.606550	0.000092
C91	C	0.880473	1.013559	-0.203099
C92	C	0.949426	1.013579	-0.272055
C93	C	0.372808	1.409527	-0.039620
C94	C	0.308028	1.506408	-0.039638
C95	C	0.275622	1.614209	0.000036
C96	C	0.308006	1.625128	0.039725
C97	C	0.372789	1.528249	0.039738
C98	C	0.372804	1.072757	0.344284
C99	C	0.308025	1.072734	0.409082
C100	C	0.275627	1.013380	0.401810
C101	C	0.308018	0.954035	0.329733
C102	C	0.372801	0.954052	0.264937
C103	C	0.372791	1.528248	0.264932
C104	C	0.308008	1.625152	0.329721
C105	C	0.275605	1.614275	0.401801
C106	C	0.307995	1.506485	0.409092
C107	C	0.372781	1.409584	0.344304
C108	C	0.981832	0.498751	-0.264773
C109	C	1.046635	0.401847	-0.329562
C110	C	1.079041	0.412724	-0.401642
C111	C	1.046647	0.520514	-0.408932
C112	C	0.981850	0.617415	-0.344145
C113	C	0.981813	0.617472	0.039772
C114	C	1.046611	0.520591	0.039772
C115	C	1.079020	0.412790	0.000096
C116	C	1.046633	0.401871	-0.039590
C117	C	0.981840	0.498750	-0.039594
C118	C	0.981803	1.072945	-0.264759
C119	C	1.046583	1.072986	-0.329545
C120	C	1.078989	1.013653	-0.401627
C121	C	1.046605	0.954286	-0.408922
C122	C	0.981822	0.954252	-0.344136
H123	H	-0.146327	1.165828	0.101909
H124	H	0.955478	0.705171	-0.350091
H125	H	0.659014	0.446700	0.112012
H126	H	0.955468	0.905904	-0.350088
H127	H	0.281660	1.121064	0.467763
H128	H	0.399164	1.537125	0.206247
F129	F	0.513515	1.135956	-0.321842
H130	H	1.073029	0.314086	-0.071893
H131	H	0.222877	1.013375	0.454578
F132	F	0.947377	0.487109	-0.081826
F133	F	0.947336	0.732193	0.082003
H134	H	1.073000	0.905979	-0.467619
H135	H	0.281643	1.712910	0.323771
H136	H	1.131739	1.013690	-0.454373
H137	H	0.281612	1.712913	0.072026
F138	F	0.206652	1.717418	0.470748
F139	F	0.822393	0.492155	-0.127638
H140	H	0.821253	0.905886	-0.793732
H141	H	0.281602	1.497646	0.467788
F142	F	0.513494	1.135975	-0.647938
F143	F	1.081065	0.532236	0.082016
H144	H	1.072999	0.314090	-0.323611
H145	H	0.533356	1.121117	-0.206109
H146	H	0.399160	0.905737	0.206257
H147	H	0.399143	1.537157	0.072061
F148	F	1.148004	0.309581	-0.470589
H149	H	0.281630	0.905710	0.323824
H150	H	0.399193	1.321759	-0.071937
H151	H	0.664157	0.445002	-0.096115
F152	F	1.081144	0.532072	-0.485652
H153	H	1.131778	0.333914	0.000105
H154	H	-0.028759	1.165785	0.101891
H155	H	0.399139	1.321829	0.350252
F156	F	0.841117	0.891018	-0.351904
H157	H	0.955428	1.121260	-0.206072
H158	H	0.281669	1.497495	-0.071957
H159	H	0.179843	1.165683	0.101876
H160	H	0.399175	1.121091	0.350219
H161	H	0.664860	0.602176	0.108793
F162	F	1.081040	1.136170	-0.321765
H163	H	0.955450	0.489873	-0.206088
H164	H	0.533336	1.121146	-0.532213
F165	F	0.291494	1.186608	0.115898
H166	H	0.821271	0.905870	-0.467626
H167	H	0.500947	0.861152	-0.101745
F168	F	0.536004	0.532562	0.129481
F169	F	0.841098	0.891036	-0.677999
F170	F	0.206672	1.717308	0.000017
H171	H	0.174775	0.861320	-0.101719
F172	F	0.389304	0.840232	-0.115770
H173	H	0.057202	0.861365	-0.101713
H174	H	0.810813	0.334173	-0.024283
F175	F	0.822076	0.493257	-0.017231
H176	H	0.810634	0.333137	-0.108266
H177	H	0.559176	0.681351	-0.001825
F178	F	0.538362	0.530141	0.007225
H179	H	0.662783	0.605249	-0.095187
H180	H	0.560159	0.681815	0.121208
