data_functionalizedCrystal
_audit_creation_method	'MofGen! by Chris Wilmer'
_symmetry_space_group_name_H-M	'P1'
_symmetry_Int_Tables_number	1
_symmetry_cell_setting	triclinic
loop_
_symmetry_equiv_pos_as_xyz
  x,y,z
_cell_length_a	12.594517
_cell_length_b	12.594516
_cell_length_c	16.625548
_cell_angle_alpha	90.008008
_cell_angle_beta	90.009454
_cell_angle_gamma	90.011248
loop_
_atom_site_label
_atom_site_type_symbol
_atom_site_fract_x
_atom_site_fract_y
_atom_site_fract_z
Zn1	Zn	1.627164	-0.423935	0.455954
Zn2	Zn	1.877164	-0.173935	0.705954
Zn3	Zn	2.127164	0.076065	0.955954
Zn4	Zn	2.377164	0.326065	1.205954
Zn5	Zn	1.627108	-0.601883	0.321129
Zn6	Zn	1.877108	-0.351883	0.571129
Zn7	Zn	2.127108	-0.101883	0.821129
Zn8	Zn	2.377108	0.148117	1.071129
Zn9	Zn	1.449208	-0.423917	0.321132
Zn10	Zn	1.699208	-0.173917	0.571132
Zn11	Zn	1.949208	0.076083	0.821132
Zn12	Zn	2.199208	0.326083	1.071132
Zn13	Zn	1.449163	-0.601870	0.455916
Zn14	Zn	1.699163	-0.351870	0.705916
Zn15	Zn	1.949163	-0.101870	0.955916
Zn16	Zn	2.199163	0.148130	1.205916
O17	O	1.538161	-0.512901	0.388532
O18	O	1.788161	-0.262901	0.638532
O19	O	2.038161	-0.012901	0.888532
O20	O	2.288161	0.237099	1.138532
O21	O	1.776103	-0.447553	0.438084
O22	O	2.026103	-0.197553	0.688084
O23	O	2.276103	0.052447	0.938084
O24	O	2.526103	0.302447	1.188084
O25	O	1.603504	-0.578274	0.208297
O26	O	1.853504	-0.328274	0.458297
O27	O	2.103504	-0.078274	0.708297
O28	O	2.353504	0.171726	0.958297
O29	O	1.472856	-0.274974	0.339033
O30	O	1.722856	-0.024974	0.589033
O31	O	1.972856	0.225026	0.839033
O32	O	2.222856	0.475026	1.089033
O33	O	1.776061	-0.578291	0.339028
O34	O	2.026061	-0.328291	0.589028
O35	O	2.276061	-0.078291	0.839028
O36	O	2.526061	0.171709	1.089028
O37	O	1.603600	-0.274987	0.438086
O38	O	1.853600	-0.024987	0.688086
O39	O	2.103600	0.225013	0.938086
O40	O	2.353600	0.475013	1.188086
O41	O	1.472802	-0.447523	0.208299
O42	O	1.722802	-0.197523	0.458299
O43	O	1.972802	0.052477	0.708299
O44	O	2.222802	0.302477	0.958299
O45	O	1.300256	-0.447510	0.338996
O46	O	1.550256	-0.197510	0.588996
O47	O	1.800256	0.052490	0.838996
O48	O	2.050256	0.302490	1.088996
O49	O	1.472781	-0.578268	0.568753
O50	O	1.722781	-0.328268	0.818753
O51	O	1.972781	-0.078268	1.068753
O52	O	2.222781	0.171732	1.318753
O53	O	1.300224	-0.578251	0.438022
O54	O	1.550224	-0.328251	0.688022
O55	O	1.800224	-0.078251	0.938022
O56	O	2.050224	0.171749	1.188022
O57	O	1.603557	-0.447540	0.568781
O58	O	1.853557	-0.197540	0.818781
O59	O	2.103557	0.052460	1.068781
O60	O	2.353557	0.302460	1.318781
O61	O	1.603461	-0.750827	0.338992
O62	O	1.853461	-0.500827	0.588992
O63	O	2.103461	-0.250827	0.838992
O64	O	2.353461	-0.000827	1.088992
O65	O	1.472726	-0.750817	0.438019
O66	O	1.722726	-0.500817	0.688019
O67	O	1.972726	-0.250817	0.938019
O68	O	2.222726	-0.000817	1.188019
C69	C	1.261620	-0.512878	0.388505
C70	C	1.511620	-0.262878	0.638505
C71	C	1.761620	-0.012878	0.888505
C72	C	2.011620	0.237122	1.138505
C73	C	1.143314	-0.512894	0.388513
C74	C	1.393314	-0.262894	0.638513
C75	C	1.643314	-0.012894	0.888513
C76	C	1.893314	0.237106	1.138513
C77	C	1.003285	-0.441706	0.334776
C78	C	1.253285	-0.191706	0.584776
C79	C	1.503285	0.058294	0.834776
C80	C	1.753285	0.308294	1.084776
C81	C	1.074120	-0.415806	0.408353
C82	C	1.324120	-0.165806	0.658353
C83	C	1.574120	0.084194	0.908353
C84	C	1.824120	0.334194	1.158353
C85	C	1.074051	-0.538746	0.314944
C86	C	1.324051	-0.288746	0.564944
C87	C	1.574051	-0.038746	0.814944
C88	C	1.824051	0.211254	1.064944
C89	C	1.003364	-0.486986	0.462188
C90	C	1.253364	-0.236986	0.712188
C91	C	1.503364	0.013014	0.962188
C92	C	1.753364	0.263014	1.212188
C93	C	1.003289	-0.609971	0.368729
C94	C	1.253289	-0.359971	0.618729
C95	C	1.503289	-0.109971	0.868729
C96	C	1.753289	0.140029	1.118729
C97	C	1.074092	-0.584108	0.442357
C98	C	1.324092	-0.334108	0.692357
C99	C	1.574092	-0.084108	0.942357
C100	C	1.824092	0.165892	1.192357
C101	C	1.538112	-0.789442	0.388518
C102	C	1.788112	-0.539442	0.638518
C103	C	2.038112	-0.289442	0.888518
C104	C	2.288112	-0.039442	1.138518
C105	C	1.538188	-0.907748	0.388539
C106	C	1.788188	-0.657748	0.638539
C107	C	2.038188	-0.407748	0.888539
C108	C	2.288188	-0.157748	1.138539
C109	C	1.609377	-0.976968	0.334736
C110	C	1.859377	-0.726968	0.584736
C111	C	2.109377	-0.476968	0.834736
C112	C	2.359377	-0.226968	1.084736
C113	C	1.635366	-1.047698	0.408331
C114	C	1.885366	-0.797698	0.658331
C115	C	2.135366	-0.547698	0.908331
C116	C	2.385366	-0.297698	1.158331
C117	C	1.512332	-1.047816	0.314991
C118	C	1.762332	-0.797816	0.564991
C119	C	2.012332	-0.547816	0.814991
C120	C	2.262332	-0.297816	1.064991
C121	C	1.564226	-0.976920	0.462173
C122	C	1.814226	-0.726920	0.712173
C123	C	2.064226	-0.476920	0.962173
C124	C	2.314226	-0.226920	1.212173
C125	C	1.441147	-0.977032	0.368784
C126	C	1.691147	-0.727032	0.618784
C127	C	1.941147	-0.477032	0.868784
C128	C	2.191147	-0.227032	1.118784
C129	C	1.467099	-1.047730	0.442430
C130	C	1.717099	-0.797730	0.692430
C131	C	1.967099	-0.547730	0.942430
C132	C	2.217099	-0.297730	1.192430
C133	C	1.815782	-0.512925	0.388560
C134	C	2.065782	-0.262925	0.638560
C135	C	2.315782	-0.012925	0.888560
C136	C	2.565782	0.237075	1.138560
C137	C	1.934087	-0.512936	0.388572
C138	C	2.184087	-0.262936	0.638572
C139	C	2.434087	-0.012936	0.888572
C140	C	2.684087	0.237064	1.138572
C141	C	1.538170	-0.512904	0.598841
C142	C	1.788170	-0.262904	0.848841
C143	C	2.038170	-0.012904	1.098841
C144	C	2.288170	0.237096	1.348841
C145	C	1.538174	-0.512906	0.688462
C146	C	1.788174	-0.262906	0.938462
C147	C	2.038174	-0.012906	1.188462
C148	C	2.288174	0.237094	1.438462
C149	C	1.538239	-0.235281	0.388564
C150	C	1.788239	0.014719	0.638564
C151	C	2.038239	0.264719	0.888564
C152	C	2.288239	0.514719	1.138564
C153	C	1.538273	-0.116975	0.388578
C154	C	1.788273	0.133025	0.638578
C155	C	2.038273	0.383025	0.888578
C156	C	2.288273	0.633025	1.138578
C157	C	1.538130	-0.512915	1.016638
C158	C	1.788130	-0.262915	1.266638
C159	C	2.038130	-0.012915	1.516638
C160	C	2.288130	0.237085	1.766638
C161	C	1.538139	-0.512916	0.925330
C162	C	1.788139	-0.262916	1.175330
C163	C	2.038139	-0.012916	1.425330
C164	C	2.288139	0.237084	1.675330
C165	C	1.538153	-0.512911	0.852553
C166	C	1.788153	-0.262911	1.102553
C167	C	2.038153	-0.012911	1.352553
C168	C	2.288153	0.237089	1.602553
C169	C	1.538161	-0.512910	0.761239
C170	C	1.788161	-0.262910	1.011239
C171	C	2.038161	-0.012910	1.261239
C172	C	2.288161	0.237090	1.511239
C173	C	1.538141	-0.512920	1.179042
C174	C	1.788141	-0.262920	1.429042
C175	C	2.038141	-0.012920	1.679042
C176	C	2.288141	0.237080	1.929042
C177	C	1.538131	-0.512912	1.089421
C178	C	1.788131	-0.262912	1.339421
C179	C	2.038131	-0.012912	1.589421
C180	C	2.288131	0.237088	1.839421
H181	H	1.105104	-0.560593	0.252703
H182	H	1.355104	-0.310593	0.502703
H183	H	1.605104	-0.060593	0.752703
H184	H	1.855104	0.189407	1.002703
Br185	Br	1.125963	-0.279004	0.436303
Br186	Br	1.375963	-0.029004	0.686303
Br187	Br	1.625963	0.220996	0.936303
Br188	Br	1.875963	0.470996	1.186303
Br189	Br	1.304337	-0.925259	0.340866
Br190	Br	1.554337	-0.675259	0.590866
Br191	Br	1.804337	-0.425259	0.840866
Br192	Br	2.054337	-0.175259	1.090866
H193	H	0.972197	-0.381442	0.289364
H194	H	1.222197	-0.131442	0.539364
H195	H	1.472197	0.118558	0.789364
H196	H	1.722197	0.368558	1.039364
Br197	Br	0.951835	-0.450412	0.565959
Br198	Br	1.201835	-0.200412	0.815959
Br199	Br	1.451835	0.049588	1.065959
Br200	Br	1.701835	0.299588	1.315959
Br201	Br	1.125584	-0.684483	0.518222
Br202	Br	1.375584	-0.434483	0.768222
Br203	Br	1.625584	-0.184483	1.018222
Br204	Br	1.875584	0.065517	1.268222
H205	H	1.669589	-0.945896	0.289277
H206	H	1.919589	-0.695896	0.539277
H207	H	2.169589	-0.445896	0.789277
H208	H	2.419589	-0.195896	1.039277
Br209	Br	0.951387	-0.746735	0.340754
Br210	Br	1.201387	-0.496735	0.590754
Br211	Br	1.451387	-0.246735	0.840754
Br212	Br	1.701387	0.003265	1.090754
Br213	Br	1.772211	-1.099410	0.436235
Br214	Br	2.022211	-0.849410	0.686235
Br215	Br	2.272211	-0.599410	0.936235
Br216	Br	2.522211	-0.349410	1.186235
H217	H	1.586049	-0.945910	0.524441
H218	H	1.836049	-0.695910	0.774441
H219	H	2.086049	-0.445910	1.024441
H220	H	2.336049	-0.195910	1.274441
H221	H	1.406933	-1.078605	0.487998
H222	H	1.656933	-0.828605	0.737998
H223	H	1.906933	-0.578605	0.987998
H224	H	2.156933	-0.328605	1.237998
H225	H	1.490428	-1.078958	0.252777
H226	H	1.740428	-0.828958	0.502777
H227	H	1.990428	-0.578958	0.752777
H228	H	2.240428	-0.328958	1.002777
