data_functionalizedCrystal
_audit_creation_method	'MofGen! by Chris Wilmer'
_symmetry_space_group_name_H-M	'P1'
_symmetry_Int_Tables_number	1
_symmetry_cell_setting	triclinic
loop_
_symmetry_equiv_pos_as_xyz
  x,y,z
_cell_length_a	8.497374
_cell_length_b	8.497374
_cell_length_c	18.101398
_cell_angle_alpha	89.994708
_cell_angle_beta	90.003353
_cell_angle_gamma	90.004389
loop_
_atom_site_label
_atom_site_type_symbol
_atom_site_fract_x
_atom_site_fract_y
_atom_site_fract_z
Zn1	Zn	0.628503	0.891794	1.132166
Zn2	Zn	0.892253	0.628059	1.132159
Zn3	Zn	0.628460	0.628055	1.008357
Zn4	Zn	0.892215	0.891825	1.008340
O5	O	0.760358	0.759933	1.070255
O6	O	0.663524	0.856797	1.235798
O7	O	0.857258	0.407297	1.115740
O8	O	0.407704	0.663026	1.024790
O9	O	0.857300	0.663033	1.235793
O10	O	0.407735	0.856793	1.115752
O11	O	0.663451	0.407293	1.024784
O12	O	0.663414	0.663056	0.904722
O13	O	0.857235	1.112583	1.024762
O14	O	0.857193	0.856847	0.904709
O15	O	0.663487	1.112560	1.115736
O16	O	1.113010	0.663063	1.115724
O17	O	1.112982	0.856851	1.024755
C18	C	0.760296	0.759955	0.877845
C19	C	0.760307	0.760002	0.795531
C20	C	1.170238	0.759956	1.070246
C21	C	1.348882	0.759930	1.070266
C22	C	0.760383	1.350054	1.070260
C23	C	0.760376	1.171409	1.070252
C24	C	0.760400	0.759936	0.496440
C25	C	0.882910	0.881263	0.527782
C26	C	0.882527	0.881761	0.613400
C27	C	0.760355	0.759969	0.644822
C28	C	0.594205	0.805354	0.613721
C29	C	0.594941	0.806216	0.528076
C30	C	0.802576	0.592933	0.528018
C31	C	0.806222	0.593826	0.613669
C32	C	0.760320	0.759985	0.728682
C33	C	0.760425	0.759924	0.412580
C34	C	0.760421	0.759912	1.263417
C35	C	0.760448	0.759903	1.345731
H36	H	1.005738	0.853322	0.634429
C37	C	0.963443	0.537193	0.498859
N38	N	1.084616	0.495227	0.476897
C39	C	0.467441	0.692053	0.500063
N40	N	0.371403	0.606073	0.478966
H41	H	0.559163	0.928302	0.508091
C42	C	0.844886	1.048942	0.641072
N43	N	0.816553	1.174874	0.661913
H44	H	0.855363	1.004287	0.506250
C45	C	0.467558	0.689654	0.641187
N46	N	0.372174	0.602490	0.661865
H47	H	0.557780	0.926112	0.635162
C48	C	0.971376	0.547560	0.641161
N49	N	1.095759	0.512704	0.661883
C50	C	0.694405	0.465149	0.642556
N51	N	0.610168	0.368235	0.664311
C52	C	1.049910	0.843286	0.499972
N53	N	1.175697	0.814681	0.479019
C54	C	0.682033	0.470805	0.500629
N55	N	0.591237	0.378829	0.479995
