data_functionalizedCrystal
_audit_creation_method	'MofGen! by Chris Wilmer'
_symmetry_space_group_name_H-M	'P1'
_symmetry_Int_Tables_number	1
_symmetry_cell_setting	triclinic
loop_
_symmetry_equiv_pos_as_xyz
  x,y,z
_cell_length_a	23.532407
_cell_length_b	15.944551
_cell_length_c	15.021413
_cell_angle_alpha	89.996935
_cell_angle_beta	89.998075
_cell_angle_gamma	96.826292
loop_
_atom_site_label
_atom_site_type_symbol
_atom_site_fract_x
_atom_site_fract_y
_atom_site_fract_z
O1	O	0.755658	-0.101953	-0.073923
O2	O	1.088991	0.231380	0.259410
O3	O	1.422324	0.564713	0.592744
O4	O	0.589851	-0.116707	-0.073949
O5	O	0.923185	0.216627	0.259384
O6	O	1.256518	0.549960	0.592717
O7	O	0.677282	0.012983	-0.073927
O8	O	1.010616	0.346316	0.259406
O9	O	1.343949	0.679650	0.592739
O10	O	0.668227	-0.231643	-0.073945
O11	O	1.001560	0.101690	0.259388
O12	O	1.334893	0.435024	0.592722
O13	O	0.677268	0.012965	0.074137
O14	O	1.010602	0.346298	0.407470
O15	O	1.343935	0.679631	0.740804
O16	O	0.589838	-0.116725	0.074115
O17	O	0.923171	0.216608	0.407448
O18	O	1.256504	0.549942	0.740782
O19	O	0.755644	-0.101972	0.074141
O20	O	1.088977	0.231362	0.407475
O21	O	1.422310	0.564695	0.740808
Zn22	Zn	0.672738	-0.109351	0.097636
Zn23	Zn	1.006072	0.223982	0.430970
Zn24	Zn	1.339405	0.557315	0.764303
Zn25	Zn	0.672757	-0.109327	-0.097444
Zn26	Zn	1.006090	0.224006	0.235889
Zn27	Zn	1.339423	0.557340	0.569222
O28	O	0.668213	-0.231661	0.074119
O29	O	1.001546	0.101672	0.407453
O30	O	1.334880	0.435005	0.740786
C31	C	0.568627	-0.116340	0.000080
C32	C	0.901960	0.216993	0.333413
C33	C	1.235294	0.550326	0.666746
C34	C	0.505406	-0.115211	0.000070
C35	C	0.838739	0.218123	0.333403
C36	C	1.172072	0.551456	0.666736
C37	C	0.676899	0.044265	0.000105
C38	C	1.010233	0.377598	0.333438
C39	C	1.343566	0.710931	0.666771
C40	C	0.675772	0.137501	0.000105
C41	C	1.009106	0.470834	0.333438
C42	C	1.342439	0.804168	0.666772
C43	C	0.668596	-0.262943	0.000085
C44	C	1.001929	0.070390	0.333419
C45	C	1.335262	0.403724	0.666752
C46	C	0.669723	-0.356179	0.000079
C47	C	1.003056	-0.022846	0.333412
C48	C	1.336389	0.310487	0.666746
C49	C	0.106572	-0.184874	0.000105
C50	C	0.439906	0.148460	0.333438
C51	C	0.773239	0.481793	0.666772
C52	C	0.047168	-0.183824	0.000111
C53	C	0.380501	0.149509	0.333444
C54	C	0.713835	0.482842	0.666777
O55	O	0.010674	-0.248403	0.000138
O56	O	0.344007	0.084931	0.333472
O57	O	0.677340	0.418264	0.666805
N58	N	0.024243	-0.106724	0.000115
N59	N	0.357577	0.226610	0.333448
N60	N	0.690910	0.559943	0.666781
C61	C	0.060726	-0.030668	0.000122
C62	C	0.394060	0.302666	0.333455
C63	C	0.727393	0.635999	0.666789
O64	O	0.035772	0.035009	0.000127
O65	O	0.369105	0.368342	0.333460
O66	O	0.702439	0.701675	0.666794
C67	C	0.120129	-0.031718	0.000123
C68	C	0.453463	0.301615	0.333456
C69	C	0.786796	0.634949	0.666790
C70	C	0.143051	-0.108823	0.000110
C71	C	0.476384	0.224510	0.333443
C72	C	0.809717	0.557843	0.666777
C73	C	0.129494	-0.261973	0.000093
C74	C	0.462828	0.071361	0.333426
C75	C	0.796161	0.404694	0.666760
C76	C	0.188894	-0.263022	0.000086
C77	C	0.522228	0.070312	0.333419
C78	C	0.855561	0.403645	0.666752
C79	C	0.225373	-0.186971	0.000091
C80	C	0.558706	0.146362	0.333424
C81	C	0.892039	0.479695	0.666757
C82	C	0.202451	-0.109872	0.000103
C83	C	0.535784	0.223461	0.333436
C84	C	0.869118	0.556794	0.666769
C85	C	0.156611	0.044337	0.000137
C86	C	0.489945	0.377671	0.333470
C87	C	0.823278	0.711004	0.666804
C88	C	0.216018	0.043281	0.000138
C89	C	0.549351	0.376614	0.333472
C90	C	0.882684	0.709947	0.666805
C91	C	0.238939	-0.033825	0.000125
C92	C	0.572272	0.299508	0.333459
C93	C	0.905606	0.632842	0.666792
C94	C	0.298329	-0.034871	0.000100
C95	C	0.631663	0.298462	0.333434
C96	C	0.964996	0.631796	0.666767
N97	N	0.321254	-0.111971	0.000096
N98	N	0.654588	0.221362	0.333430
N99	N	0.987921	0.554695	0.666763
C100	C	0.284776	-0.188022	0.000092
C101	C	0.618109	0.145312	0.333425
C102	C	0.951443	0.478645	0.666758
C103	C	-0.064025	-0.028468	0.000122
C104	C	0.269308	0.304865	0.333455
C105	C	0.602642	0.638199	0.666789
C106	C	-0.123427	-0.027417	0.000115
C107	C	0.209906	0.305916	0.333448
C108	C	0.543240	0.639250	0.666781
C109	C	-0.136981	-0.180574	0.000105
C110	C	0.196352	0.152759	0.333438
C111	C	0.529686	0.486093	0.666771
C112	C	-0.077578	-0.181624	0.000106
C113	C	0.255756	0.151709	0.333439
C114	C	0.589089	0.485043	0.666772
C115	C	-0.041100	-0.105569	0.000118
C116	C	0.292233	0.227765	0.333451
C117	C	0.625567	0.561098	0.666785
C118	C	0.409521	-0.190219	0.000076
C119	C	0.742855	0.143115	0.333409
C120	C	1.076188	0.476448	0.666742
C121	C	0.468927	-0.191261	0.000065
C122	C	0.802261	0.142072	0.333398
C123	C	1.135594	0.475406	0.666731
C124	C	0.482476	-0.038104	0.000079
C125	C	0.815809	0.295229	0.333413
C126	C	1.149143	0.628562	0.666746
C127	C	0.423075	-0.037062	0.000086
C128	C	0.756409	0.296272	0.333419
C129	C	1.089742	0.629605	0.666752
C130	C	0.386599	-0.113126	0.000087
C131	C	0.719932	0.220208	0.333420
C132	C	1.053265	0.553541	0.666753
O133	O	0.334859	0.029673	0.000076
O134	O	0.668192	0.363007	0.333410
O135	O	1.001525	0.696340	0.666743
O136	O	0.309738	-0.253687	0.000098
O137	O	0.643072	0.079646	0.333432
O138	O	0.976405	0.412980	0.666765
C139	C	0.776868	-0.102338	0.000111
C140	C	1.110202	0.230995	0.333444
C141	C	1.443535	0.564329	0.666777
C142	C	0.840090	-0.103468	0.000115
C143	C	1.173423	0.229866	0.333448
C144	C	1.506756	0.563199	0.666781
N145	N	0.672730	-0.109367	0.230774
N146	N	1.006063	0.223966	0.564107
N147	N	1.339397	0.557299	0.897441
C148	C	0.618885	0.351879	0.000084
C149	C	0.952218	0.685212	0.333417
C150	C	1.285551	1.018545	0.666751
C151	C	0.645295	0.413109	0.073093
C152	C	0.978628	0.746443	0.406426
C153	C	1.311961	1.079776	0.739759
C154	C	0.673733	0.308210	0.000098
C155	C	1.007067	0.641543	0.333431
C156	C	1.340400	0.974876	0.666765
C157	C	0.645321	0.413111	-0.072887
C158	C	0.978655	0.746444	0.260446
C159	C	1.311988	1.079778	0.593780
C160	C	0.671760	0.473106	0.000087
C161	C	1.005093	0.806439	0.333421
C162	C	1.338427	1.139773	0.666754
C163	C	0.700158	0.368212	0.073167
C164	C	1.033492	0.701546	0.406500
C165	C	1.366825	1.034879	0.739834
C166	C	0.700177	0.368208	-0.072878
C167	C	1.033511	0.701541	0.260455
C168	C	1.366844	1.034875	0.593788
C169	C	0.726627	0.429421	0.000148
C170	C	1.059961	0.762755	0.333482
C171	C	1.393294	1.096088	0.666815
C172	C	0.674869	0.213217	0.000105
C173	C	1.008202	0.546550	0.333438
C174	C	1.341535	0.879884	0.666772
C175	C	0.670629	0.568097	0.000087
C176	C	1.003962	0.901431	0.333420
C177	C	1.337296	1.234764	0.666753
N178	N	0.672770	-0.109304	-0.230582
N179	N	1.006103	0.224029	0.102751
N180	N	1.339436	0.557363	0.436085
C181	C	0.632296	-0.169308	0.470447
C182	C	0.965629	0.164025	0.803781
C183	C	1.298962	0.497359	1.137114
C184	C	0.683757	-0.185181	0.529789
C185	C	1.017090	0.148152	0.863122
C186	C	1.350423	0.481485	1.196455
C187	C	0.672745	-0.109346	0.412381
C188	C	1.006078	0.223987	0.745714
C189	C	1.339411	0.557320	1.079048
C190	C	0.621298	-0.093492	0.529781
C191	C	0.954631	0.239842	0.863115
C192	C	1.287964	0.573175	1.196448
C193	C	0.672754	-0.109328	0.587805
C194	C	1.006087	0.224005	0.921138
C195	C	1.339421	0.557339	1.254472
C196	C	0.724232	-0.125257	0.470416
C197	C	1.057565	0.208076	0.803749
C198	C	1.390898	0.541409	1.137083
C199	C	0.661739	-0.033535	0.470403
C200	C	0.995072	0.299798	0.803737
C201	C	1.328405	0.633132	1.137070
C202	C	0.713237	-0.049376	0.529718
C203	C	1.046570	0.283958	0.863051
C204	C	1.379903	0.617291	1.196385
C205	C	0.672738	-0.109359	0.311324
C206	C	1.006072	0.223974	0.644657
C207	C	1.339405	0.557307	0.977990
C208	C	0.672766	-0.109314	0.688860
C209	C	1.006100	0.224019	1.022194
C210	C	1.339433	0.557352	1.355527
H211	H	0.487586	-0.254052	0.000054
H212	H	0.820919	0.079281	0.333387
H213	H	1.154253	0.412615	0.666720
H214	H	0.767753	-0.138736	0.444449
H215	H	1.101086	0.194597	0.777782
H216	H	1.434419	0.527931	1.111115
H217	H	0.772194	0.462964	0.000197
H218	H	1.105527	0.796297	0.333530
H219	H	1.438861	1.129631	0.666864
Cl220	Cl	0.548595	0.299861	0.000179
Cl221	Cl	0.881929	0.633195	0.333512
Cl222	Cl	1.215262	0.966528	0.666846
H223	H	0.598124	-0.220056	0.444423
H224	H	0.931457	0.113277	0.777756
H225	H	1.264791	0.446610	1.111090
H226	H	0.723362	0.348281	-0.134597
H227	H	1.056695	0.681614	0.198736
H228	H	1.390029	1.014947	0.532069
Cl229	Cl	0.609470	0.443842	0.168378
Cl230	Cl	0.942804	0.777176	0.501711
Cl231	Cl	1.276137	1.110509	0.835044
Cl232	Cl	0.609498	0.443840	-0.168176
Cl233	Cl	0.942832	0.777173	0.165158
Cl234	Cl	1.276165	1.110506	0.498491
H235	H	0.693074	-0.249285	0.555873
H236	H	1.026408	0.084048	0.889206
H237	H	1.359741	0.417381	1.222540
H238	H	0.723332	0.348410	0.134958
H239	H	1.056665	0.681743	0.468291
H240	H	1.389999	1.015076	0.801625
Cl241	Cl	0.766110	0.028929	0.569654
Cl242	Cl	1.099443	0.362262	0.902987
Cl243	Cl	1.432777	0.695596	1.236320
Cl244	Cl	0.647328	0.065406	0.430095
Cl245	Cl	0.980661	0.398739	0.763428
Cl246	Cl	1.313995	0.732072	1.096761
Cl247	Cl	-0.152234	0.069520	0.000109
Cl248	Cl	0.181099	0.402853	0.333442
Cl249	Cl	0.514432	0.736186	0.666775
H250	H	0.577786	-0.080090	0.555861
H251	H	0.911119	0.253243	0.889194
H252	H	1.244453	0.586577	1.222527
H253	H	0.207551	-0.325809	0.000075
H254	H	0.540884	0.007525	0.333408
H255	H	0.874218	0.340858	0.666741
Cl256	Cl	0.083645	-0.357593	0.000084
Cl257	Cl	0.416979	-0.024259	0.333418
Cl258	Cl	0.750312	0.309074	0.666751
Cl259	Cl	-0.048769	-0.278560	0.000092
Cl260	Cl	0.284564	0.054773	0.333426
Cl261	Cl	0.617898	0.388107	0.666759
Cl262	Cl	-0.182851	-0.276181	0.000104
Cl263	Cl	0.150483	0.057152	0.333437
Cl264	Cl	0.483816	0.390486	0.666770
Cl265	Cl	0.363674	-0.285843	0.000076
Cl266	Cl	0.697007	0.047490	0.333409
Cl267	Cl	1.030341	0.380823	0.666743
H268	H	0.137960	0.107125	0.000148
H269	H	0.471293	0.440458	0.333482
H270	H	0.804626	0.773791	0.666815
Cl271	Cl	0.261872	0.138900	0.000155
Cl272	Cl	0.595206	0.472233	0.333489
Cl273	Cl	0.928539	0.805566	0.666822
Cl274	Cl	0.394259	0.059872	0.000106
Cl275	Cl	0.727592	0.393205	0.333440
Cl276	Cl	1.060926	0.726538	0.666773
Cl277	Cl	-0.018172	0.067155	0.000127
Cl278	Cl	0.315161	0.400488	0.333460
Cl279	Cl	0.648495	0.733822	0.666794
H280	H	0.512187	0.023814	0.000080
H281	H	0.845521	0.357147	0.333413
H282	H	1.178854	0.690480	0.666747
