data_functionalizedCrystal
_audit_creation_method	'MofGen! by Chris Wilmer'
_symmetry_space_group_name_H-M	'P1'
_symmetry_Int_Tables_number	1
_symmetry_cell_setting	triclinic
loop_
_symmetry_equiv_pos_as_xyz
  x,y,z
_cell_length_a	17.699077
_cell_length_b	10.723024
_cell_length_c	16.176319
_cell_angle_alpha	89.994397
_cell_angle_beta	89.993140
_cell_angle_gamma	83.874223
loop_
_atom_site_label
_atom_site_type_symbol
_atom_site_fract_x
_atom_site_fract_y
_atom_site_fract_z
O1	O	1.005077	0.157762	-0.068733
O2	O	1.338410	0.491095	0.264600
O3	O	1.671743	0.824428	0.597933
O4	O	0.784827	0.178299	-0.068737
O5	O	1.118161	0.511633	0.264596
O6	O	1.451494	0.844966	0.597929
O7	O	0.900032	-0.013633	-0.068732
O8	O	1.233366	0.319700	0.264601
O9	O	1.566699	0.653034	0.597934
O10	O	0.889872	0.349694	-0.068739
O11	O	1.223205	0.683027	0.264595
O12	O	1.556538	1.016361	0.597928
O13	O	0.900016	-0.013645	0.068761
O14	O	1.233350	0.319688	0.402094
O15	O	1.566683	0.653022	0.735428
O16	O	0.784811	0.178287	0.068756
O17	O	1.118145	0.511620	0.402089
O18	O	1.451478	0.844954	0.735423
O19	O	1.005061	0.157750	0.068760
O20	O	1.338394	0.491083	0.402093
O21	O	1.671727	0.824416	0.735426
Cu22	Cu	0.894934	0.168017	0.081312
Cu23	Cu	1.228268	0.501351	0.414645
Cu24	Cu	1.561601	0.834684	0.747979
Cu25	Cu	0.894953	0.168032	-0.081290
Cu26	Cu	1.228287	0.501365	0.252044
Cu27	Cu	1.561620	0.834698	0.585377
O28	O	0.889856	0.349682	0.068755
O29	O	1.223189	0.683015	0.402088
O30	O	1.556522	1.016349	0.735421
C31	C	0.756618	0.177559	0.000009
C32	C	1.089951	0.510892	0.333342
C33	C	1.423284	0.844225	0.666675
C34	C	0.672585	0.175355	0.000007
C35	C	1.005919	0.508688	0.333341
C36	C	1.339252	0.842021	0.666674
C37	C	0.633103	0.174310	0.074956
C38	C	0.966436	0.507643	0.408289
C39	C	1.299769	0.840976	0.741622
C40	C	0.554147	0.172219	0.074957
C41	C	0.887480	0.505552	0.408290
C42	C	1.220814	0.838885	0.741623
C43	C	0.514675	0.171182	0.000008
C44	C	0.848008	0.504516	0.333342
C45	C	1.181341	0.837849	0.666675
C46	C	0.554163	0.172224	-0.074946
C47	C	0.887496	0.505557	0.258387
C48	C	1.220830	0.838890	0.591721
C49	C	0.633118	0.174305	-0.074946
C50	C	0.966451	0.507639	0.258387
C51	C	1.299785	0.840972	0.591721
C52	C	0.235747	0.163827	-0.074947
C53	C	0.569080	0.497160	0.258386
C54	C	0.902414	0.830493	0.591719
C55	C	0.156786	0.161748	-0.074942
C56	C	0.490119	0.495082	0.258392
C57	C	0.823453	0.828415	0.591725
C58	C	0.156776	0.161740	0.074955
C59	C	0.490109	0.495073	0.408289
C60	C	0.823442	0.828407	0.741622
C61	C	0.235731	0.163822	0.074955
C62	C	0.569064	0.497155	0.408289
C63	C	0.902397	0.830488	0.741622
C64	C	0.275213	0.164856	0.000002
C65	C	0.608546	0.498190	0.333335
C66	C	0.941879	0.831523	0.666668
C67	C	0.360826	0.167121	0.000002
C68	C	0.694159	0.500454	0.333335
C69	C	1.027492	0.833788	0.666668
C70	C	0.429062	0.168927	0.000008
C71	C	0.762396	0.502260	0.333341
C72	C	1.095729	0.835593	0.666674
C73	C	0.899285	-0.060126	0.000013
C74	C	1.232618	0.273207	0.333347
C75	C	1.565952	0.606541	0.666680
C76	C	0.897073	-0.198642	0.000010
C77	C	1.230406	0.134691	0.333344
C78	C	1.563739	0.468025	0.666677
C79	C	0.961535	-0.274732	0.000010
C80	C	1.294869	0.058601	0.333344
C81	C	1.628202	0.391934	0.666677
C82	C	0.959250	-0.417896	0.000007
C83	C	1.292584	-0.084563	0.333341
C84	C	1.625917	0.248770	0.666674
C85	C	1.033270	0.158490	0.000012
C86	C	1.366604	0.491824	0.333345
C87	C	1.699937	0.825157	0.666678
C88	C	1.117303	0.160694	0.000008
C89	C	1.450636	0.494028	0.333341
C90	C	1.783969	0.827361	0.666674
C91	C	0.890603	0.396175	0.000007
C92	C	1.223936	0.729508	0.333341
C93	C	1.557270	1.062842	0.666674
C94	C	0.892815	0.534691	0.000005
C95	C	1.226149	0.868024	0.333338
C96	C	1.559482	1.201358	0.666671
N97	N	0.894927	0.168006	0.195677
N98	N	1.228260	0.501340	0.529011
N99	N	1.561593	0.834673	0.862344
N100	N	0.894967	0.168033	-0.195655
N101	N	1.228301	0.501366	0.137679
N102	N	1.561634	0.834699	0.471012
C103	C	0.945955	0.083053	0.238944
C104	C	1.279288	0.416387	0.572277
C105	C	1.612622	0.749720	0.905610
C106	C	0.945959	0.083052	0.325491
C107	C	1.279292	0.416385	0.658824
C108	C	1.612626	0.749719	0.992157
C109	C	0.894937	0.168011	0.368770
C110	C	1.228271	0.501344	0.702103
C111	C	1.561604	0.834677	1.035436
C112	C	0.843903	0.252968	0.325497
C113	C	1.177237	0.586301	0.658831
C114	C	1.510570	0.919634	0.992164
C115	C	0.843896	0.252962	0.238952
C116	C	1.177230	0.586295	0.572285
C117	C	1.510563	0.919629	0.905619
C118	C	0.843929	0.252991	0.674526
C119	C	1.177263	0.586324	1.007859
C120	C	1.510596	0.919658	1.341192
C121	C	0.843942	0.252993	0.761077
C122	C	1.177275	0.586326	1.094411
C123	C	1.510608	0.919659	1.427744
C124	C	0.945992	0.083081	0.761065
C125	C	1.279325	0.416414	1.094398
C126	C	1.612659	0.749748	1.427731
C127	C	0.945985	0.083075	0.674519
C128	C	1.279318	0.416409	1.007852
C129	C	1.612652	0.749742	1.341186
C130	C	0.894949	0.168027	0.631254
C131	C	1.228282	0.501361	0.964587
C132	C	1.561615	0.834694	1.297921
C133	C	0.894944	0.168026	0.537410
C134	C	1.228278	0.501360	0.870743
C135	C	1.561611	0.834693	1.204077
C136	C	0.894945	0.168019	0.462612
C137	C	1.228278	0.501352	0.795946
C138	C	1.561612	0.834685	1.129279
H139	H	0.267884	0.164665	-0.135979
H140	H	0.601217	0.497998	0.197354
H141	H	0.934551	0.831332	0.530687
H142	H	0.840192	-0.239487	0.000004
H143	H	1.173525	0.093846	0.333337
H144	H	1.506859	0.427180	0.666671
H145	H	0.837627	-0.399936	0.000010
H146	H	1.170960	-0.066602	0.333344
H147	H	1.504294	0.266731	0.666677
H148	H	0.522005	0.171347	0.135987
H149	H	0.855338	0.504680	0.469321
H150	H	1.188672	0.838014	0.802654
H151	H	0.987506	0.013876	0.203712
H152	H	1.320839	0.347209	0.537045
H153	H	1.654173	0.680542	0.870378
H154	H	1.018416	-0.233887	0.000016
H155	H	1.351749	0.099446	0.333350
H156	H	1.685083	0.432779	0.666683
H157	H	0.987510	0.013876	0.360718
H158	H	1.320843	0.347210	0.694051
H159	H	1.654176	0.680543	1.027385
H160	H	1.014435	-0.483277	0.000011
H161	H	1.347769	-0.149944	0.333344
H162	H	1.681102	0.183389	0.666678
H163	H	0.987534	0.013899	0.639284
H164	H	1.320867	0.347232	0.972617
H165	H	1.654201	0.680565	1.305951
H166	H	0.987546	0.013904	0.796300
H167	H	1.320880	0.347238	1.129633
H168	H	1.654213	0.680571	1.462967
H169	H	0.665234	0.175164	0.135988
H170	H	0.998568	0.508497	0.469321
H171	H	1.331901	0.841831	0.802654
H172	H	0.802357	0.322138	0.360740
H173	H	1.135690	0.655472	0.694074
H174	H	1.469023	0.988805	1.027407
H175	H	0.802391	0.322178	0.796314
H176	H	1.135724	0.655512	1.129647
H177	H	1.469058	0.988845	1.462980
H178	H	0.802375	0.322164	0.639306
H179	H	1.135709	0.655497	0.972639
H180	H	1.469042	0.988831	1.305973
H181	H	0.522019	0.171371	-0.135970
H182	H	0.855353	0.504704	0.197363
H183	H	1.188686	0.838037	0.530696
H184	H	0.802343	0.322138	0.203725
H185	H	1.135676	0.655471	0.537058
H186	H	1.469010	0.988804	0.870392
H187	H	0.267865	0.164672	0.135986
H188	H	0.601198	0.498005	0.469319
H189	H	0.934531	0.831339	0.802653
H190	H	0.124650	0.160903	-0.135977
H191	H	0.457983	0.494237	0.197356
H192	H	0.791317	0.827570	0.530689
H193	H	0.124620	0.160892	0.135986
H194	H	0.457954	0.494225	0.469320
H195	H	0.791287	0.827558	0.802653
H196	H	0.665264	0.175159	-0.135977
H197	H	0.998597	0.508492	0.197357
H198	H	1.331930	0.841826	0.530690
