data_functionalizedCrystal
_audit_creation_method	'MofGen! by Chris Wilmer'
_symmetry_space_group_name_H-M	'P1'
_symmetry_Int_Tables_number	1
_symmetry_cell_setting	triclinic
loop_
_symmetry_equiv_pos_as_xyz
  x,y,z
_cell_length_a	20.453700
_cell_length_b	13.167930
_cell_length_c	19.551833
_cell_angle_alpha	79.622542
_cell_angle_beta	101.663477
_cell_angle_gamma	74.245432
loop_
_atom_site_label
_atom_site_type_symbol
_atom_site_fract_x
_atom_site_fract_y
_atom_site_fract_z
V1	V	1.341647	-0.150073	0.227588
O2	O	1.331165	0.006050	0.213319
O3	O	1.331579	-0.296452	0.235589
O4	O	1.322470	-0.148274	0.322487
O5	O	1.340336	-0.143154	0.125819
V6	V	1.502464	-0.131338	0.214255
O7	O	1.429515	-0.191168	0.256836
O8	O	1.564661	-0.090243	0.185007
O9	O	1.438130	0.015041	0.206254
O10	O	1.552078	-0.287461	0.228524
O11	O	1.542907	-0.138257	0.316024
O12	O	1.447238	-0.133137	0.119356
V13	V	1.008313	-0.150073	0.227588
O14	O	0.997831	0.006050	0.213319
O15	O	0.998245	-0.296452	0.235589
O16	O	0.989137	-0.148274	0.322487
O17	O	1.007003	-0.143154	0.125819
V18	V	1.169131	-0.131338	0.214255
O19	O	1.096182	-0.191168	0.256836
O20	O	1.231328	-0.090243	0.185007
O21	O	1.104796	0.015041	0.206254
O22	O	1.218745	-0.287461	0.228524
O23	O	1.209573	-0.138257	0.316024
O24	O	1.113905	-0.133137	0.119356
V25	V	1.674980	-0.150073	0.227588
O26	O	1.664498	0.006050	0.213319
O27	O	1.664912	-0.296452	0.235589
O28	O	1.655803	-0.148274	0.322487
O29	O	1.673670	-0.143154	0.125819
V30	V	1.835798	-0.131338	0.214255
O31	O	1.762848	-0.191168	0.256836
O32	O	1.897995	-0.090243	0.185007
O33	O	1.771463	0.015041	0.206254
O34	O	1.885412	-0.287461	0.228524
O35	O	1.876240	-0.138257	0.316024
O36	O	1.780572	-0.133137	0.119356
C37	C	1.281486	-0.332120	0.234465
C38	C	1.300330	-0.451791	0.241639
C39	C	1.311620	-0.645255	0.125094
C40	C	1.329325	-0.757695	0.131832
C41	C	1.353450	-0.789113	0.261850
C42	C	1.335745	-0.676673	0.255113
C43	C	1.314829	-0.604747	0.186733
C44	C	1.297119	-0.492305	0.179996
C45	C	1.321249	-0.523725	0.310014
C46	C	1.338954	-0.636165	0.316751
C47	C	1.269867	-0.143103	0.345311
C48	C	1.281323	-0.142601	0.422954
C49	C	1.376003	0.050703	0.207377
C50	C	1.350239	0.170373	0.200207
C51	C	1.387622	-0.138312	0.096529
C52	C	1.369246	-0.138808	0.018885
C53	C	0.948153	-0.332120	0.234465
C54	C	0.966997	-0.451791	0.241639
C55	C	1.347520	-0.147768	0.463336
C56	C	1.358284	-0.147297	0.536290
C57	C	1.302851	-0.141679	0.568862
C58	C	1.236643	-0.136504	0.528469
C59	C	1.225879	-0.136965	0.455515
C60	C	1.284342	-0.200212	0.691969
C61	C	1.295110	-0.199758	0.764923
C62	C	1.336048	-0.140252	0.793876
C63	C	1.366230	-0.081215	0.749869
C64	C	1.355466	-0.081676	0.676915
C65	C	1.314516	-0.141178	0.647968
C66	C	1.413920	-0.144907	0.913364
C67	C	1.424681	-0.144428	0.986318
C68	C	1.303040	-0.133647	0.978498
C69	C	1.292280	-0.134114	0.905543
C70	C	1.347723	-0.139750	0.872982
C71	C	0.936534	-0.143103	0.345311
C72	C	0.947990	-0.142601	0.422954
C73	C	1.042670	0.050703	0.207377
C74	C	1.016905	0.170373	0.200207
C75	C	1.054289	-0.138312	0.096529
C76	C	1.035913	-0.138808	0.018885
C77	C	1.614820	-0.332120	0.234465
C78	C	1.633664	-0.451791	0.241639
C79	C	1.603200	-0.143103	0.345311
C80	C	1.614656	-0.142601	0.422954
C81	C	1.709336	0.050703	0.207377
C82	C	1.683572	0.170373	0.200207
C83	C	1.720956	-0.138312	0.096529
C84	C	1.702579	-0.138808	0.018885
C85	C	1.036675	-0.513496	0.248856
C86	C	1.054392	-0.625943	0.255608
C87	C	1.002429	-0.676680	0.255137
C88	C	0.932745	-0.614967	0.247921
C89	C	0.915030	-0.502524	0.241175
C90	C	1.014190	-0.147751	0.463326
C91	C	1.024961	-0.147265	0.536278
C92	C	0.969532	-0.141636	0.568858
C93	C	0.903325	-0.136483	0.528479
C94	C	0.892554	-0.136961	0.455527
C95	C	1.062223	0.232078	0.192992
C96	C	1.038020	0.344523	0.186244
C97	C	0.968501	0.395260	0.186716
C98	C	0.923181	0.333548	0.193930
C99	C	0.947382	0.221105	0.200673
C100	C	0.969854	-0.144424	-0.013677
C101	C	0.952575	-0.144878	-0.086634
C102	C	1.001358	-0.139724	-0.127026
C103	C	1.067422	-0.134104	-0.094459
C104	C	1.084698	-0.133643	-0.021506
C105	C	1.703342	-0.513496	0.248856
C106	C	1.721059	-0.625943	0.255608
C107	C	1.669096	-0.676680	0.255137
C108	C	1.599412	-0.614967	0.247921
C109	C	1.581697	-0.502524	0.241175
C110	C	1.680856	-0.147751	0.463326
C111	C	1.691627	-0.147265	0.536278
C112	C	1.636198	-0.141636	0.568858
C113	C	1.569992	-0.136483	0.528479
C114	C	1.559221	-0.136961	0.455527
C115	C	1.728889	0.232078	0.192992
C116	C	1.704687	0.344523	0.186244
C117	C	1.635168	0.395260	0.186716
C118	C	1.589847	0.333548	0.193930
C119	C	1.614049	0.221105	0.200673
C120	C	1.636520	-0.144424	-0.013677
C121	C	1.619241	-0.144878	-0.086634
C122	C	1.668024	-0.139724	-0.127026
C123	C	1.734088	-0.134104	-0.094459
C124	C	1.751364	-0.133643	-0.021506
H125	H	1.280085	-0.433743	0.124317
Cl126	Cl	1.816288	0.168319	0.192395
H127	H	0.866576	0.374875	0.194312
Cl128	Cl	0.890402	0.143546	0.209746
H129	H	1.059331	-0.152337	0.436811
H130	H	0.930123	-0.148621	0.019201
Cl131	Cl	0.938087	0.536619	0.178239
H132	H	1.074932	0.394754	0.180372
H133	H	1.326710	-0.790671	0.081639
Cl134	Cl	1.102015	-0.449739	0.249457
Cl135	Cl	1.646296	-0.140311	-0.218739
Cl136	Cl	0.869523	-0.151953	-0.127557
H137	H	1.741599	0.394754	0.180372
H138	H	1.118831	0.190783	0.192607
Cl139	Cl	1.475993	-0.130501	0.404784
Cl140	Cl	1.128744	-0.127638	-0.145246
Cl141	Cl	1.691378	-0.818039	0.263617
H142	H	1.533243	0.374875	0.194312
H143	H	1.191510	-0.131927	0.554994
Cl144	Cl	0.833653	-0.129423	0.569449
H145	H	0.987285	-0.140114	-0.186427
Cl146	Cl	0.983086	-0.141041	0.660572
Cl147	Cl	1.494093	-0.424962	0.232095
H148	H	1.355988	-0.694742	0.372425
Cl149	Cl	1.209058	-0.127635	0.854777
H150	H	0.838646	-0.132770	0.422661
Cl151	Cl	1.167753	-0.126599	0.019423
H152	H	1.111135	-0.676174	0.261480
H153	H	1.745662	-0.472200	0.249236
H154	H	1.805158	-0.129076	0.005001
H155	H	1.777802	-0.676174	0.261480
Cl156	Cl	1.604754	0.536619	0.178239
Cl157	Cl	1.795411	-0.127638	-0.145246
H158	H	1.557108	-0.656294	0.247539
Cl159	Cl	1.257171	-0.273984	0.820240
Cl160	Cl	1.750550	-0.154825	0.422386
H161	H	1.399567	-0.032762	0.773441
H162	H	1.370492	-0.847695	0.317523
Cl163	Cl	1.285315	-0.554830	0.039133
Cl164	Cl	1.507907	-0.150924	1.037085
Cl165	Cl	1.557068	0.143546	0.209746
H166	H	1.745541	-0.151466	0.569146
Cl167	Cl	1.649752	-0.141041	0.660572
Cl168	Cl	1.536190	-0.151953	-0.127557
Cl169	Cl	1.325282	-0.472796	0.387507
H170	H	1.016863	-0.768239	0.260631
H171	H	1.250998	-0.248663	0.668401
H172	H	1.078874	-0.151466	0.569146
Cl173	Cl	1.441509	-0.153788	0.587066
Cl174	Cl	1.500319	-0.129423	0.569449
H175	H	1.596790	-0.148621	0.019201
Cl176	Cl	1.393407	-0.007460	0.621595
Cl177	Cl	1.417220	-0.154846	0.422404
H178	H	1.257904	-0.129063	1.005015
Cl179	Cl	1.483616	-0.151982	0.872424
H180	H	1.171972	-0.132749	0.422634
H181	H	0.858290	-0.452290	0.235295
H182	H	0.890441	-0.656294	0.247539
