data_functionalizedCrystal
_audit_creation_method	'MofGen! by Chris Wilmer'
_symmetry_space_group_name_H-M	'P1'
_symmetry_Int_Tables_number	1
_symmetry_cell_setting	triclinic
loop_
_symmetry_equiv_pos_as_xyz
  x,y,z
_cell_length_a	14.395555
_cell_length_b	14.395555
_cell_length_c	14.560438
_cell_angle_alpha	59.995605
_cell_angle_beta	90.000543
_cell_angle_gamma	60.000146
loop_
_atom_site_label
_atom_site_type_symbol
_atom_site_fract_x
_atom_site_fract_y
_atom_site_fract_z
Zr1	Zr	0.894903	1.016805	-0.120556
O2	O	0.746573	1.210619	-0.267226
O3	O	0.940376	0.822997	-0.075583
O4	O	0.940377	1.016804	-0.267201
O5	O	0.746569	1.016812	0.075531
O6	O	1.093252	1.016797	-0.267193
O7	O	0.746572	1.016812	-0.075608
O8	O	1.093249	0.670112	0.075576
O9	O	0.746571	1.363496	-0.267238
O10	O	1.073856	0.902706	-0.056410
O11	O	0.959765	0.902711	0.056378
O12	O	0.959767	1.130893	-0.169227
O13	O	0.845676	1.130898	-0.056439
Zr14	Zr	1.138715	1.016794	0.120507
Zr15	Zr	1.138720	1.016794	-0.120543
Zr16	Zr	0.894898	1.016805	0.120494
Zr17	Zr	0.894900	1.260628	-0.120575
Zr18	Zr	1.138718	0.772972	0.120526
O19	O	1.093242	1.210602	0.075535
O20	O	1.093249	1.210603	-0.267208
O21	O	0.746566	1.210618	0.075516
O22	O	1.287045	0.822981	0.267177
O23	O	1.287052	0.822982	-0.075565
O24	O	0.940369	0.822997	0.267159
O25	O	1.287049	1.016788	-0.075580
O26	O	1.093241	1.016796	0.267152
O27	O	0.940367	1.016803	0.267144
O28	O	1.287046	1.016787	0.075560
O29	O	0.940373	1.363487	-0.267228
O30	O	1.093245	0.670112	0.267179
O31	O	1.287047	0.670103	0.267189
O32	O	1.287051	0.670104	0.075586
O33	O	0.746567	1.363496	-0.075635
O34	O	0.940369	1.363487	-0.075625
O35	O	1.073851	0.902706	0.169178
O36	O	1.187942	0.902701	0.056390
O37	O	1.073853	1.130888	-0.056427
O38	O	0.959762	1.130893	0.056361
C39	C	1.016813	0.711815	-0.000001
C40	C	1.016814	0.608307	0.000007
C41	C	0.954591	0.485837	0.061465
C42	C	1.061870	0.471553	0.106081
C43	C	0.909557	0.623929	-0.044556
C44	C	1.124145	0.409583	0.044621
C45	C	0.971755	0.562022	-0.106075
C46	C	1.079097	0.547691	-0.061486
C47	C	0.711832	1.016813	-0.000040
C48	C	0.608325	1.016818	-0.000046
C49	C	0.485530	1.141236	-0.061549
C50	C	0.454696	1.079039	-0.106110
C51	C	0.454736	1.079010	0.044506
C52	C	0.578855	0.954621	-0.044668
C53	C	0.578891	0.954609	0.106006
C54	C	0.548131	0.892322	0.061472
C55	C	1.321786	1.016786	-0.000008
C56	C	1.425293	1.016781	-0.000003
C57	C	1.016815	1.016800	-0.301542
C58	C	1.016817	1.016801	-0.403874
C59	C	1.016805	1.321784	-0.000048
C60	C	1.016804	1.425293	-0.000056
C61	C	1.101032	1.016802	-0.451953
C62	C	1.101026	1.016797	-0.548103
C63	C	0.932582	1.016793	-0.548087
C64	C	0.932593	1.016789	-0.451935
C65	C	1.185256	1.016814	-0.403893
C66	C	1.269476	1.016817	-0.451973
C67	C	1.269471	1.016811	-0.548122
C68	C	1.185245	1.016802	-0.596191
C69	C	1.016803	1.016799	0.301493
C70	C	1.016801	1.016799	0.403825
C71	C	1.321790	0.711802	0.000015
C72	C	1.425298	0.608288	0.000028
C73	C	1.016807	0.711815	0.301516
C74	C	1.016806	0.608306	0.403856
C75	C	1.321784	0.711801	0.301532
C76	C	1.425290	0.608287	0.403878
C77	C	0.711834	1.321798	-0.301581
C78	C	0.608328	1.425312	-0.403927
C79	C	0.711828	1.321798	-0.000064
C80	C	0.608320	1.425311	-0.000077
C81	C	1.016811	1.321785	-0.301565
C82	C	1.016812	1.425294	-0.403905
C83	C	1.414378	0.559656	-0.058842
C84	C	1.511639	0.462402	-0.058833
C85	C	1.630737	0.462416	0.058926
C86	C	1.533477	0.559675	0.058910
C87	C	1.306199	0.608269	-0.117723
C88	C	1.295274	0.559637	-0.176598
C89	C	1.392535	0.462382	-0.176589
C90	C	1.500720	0.413761	-0.117706
C91	C	1.076359	0.559669	0.510816
C92	C	1.076350	0.462417	0.606972
C93	C	0.957232	0.462442	0.489194
C94	C	0.957236	0.559699	0.393041
C95	C	1.135930	0.608276	0.521632
C96	C	1.195489	0.559638	0.628597
C97	C	1.195479	0.462386	0.724753
C98	C	1.135910	0.413771	0.713943
C99	C	1.533471	0.559649	0.393089
C100	C	1.630722	0.462394	0.489257
C101	C	1.511596	0.462418	0.607000
C102	C	1.414348	0.559679	0.510833
C103	C	1.544413	0.608258	0.286134
C104	C	1.652600	0.559619	0.275340
C105	C	1.749851	0.462363	0.371509
C106	C	1.738915	0.413746	0.478471
H107	H	1.131785	0.574657	-0.113474
H108	H	1.718826	0.422819	0.106867
C109	C	1.260998	0.613118	0.640492
H110	H	1.296452	0.570233	0.717968
H111	H	1.317358	0.597177	0.605440
H112	H	1.209584	0.704946	0.605423
C113	C	0.382386	1.150068	-0.227235
H114	H	0.375679	1.090879	-0.233427
H115	H	0.308865	1.222622	-0.244993
H116	H	0.418017	1.180511	-0.278011
C117	C	1.545484	0.613170	0.123670
H118	H	1.623840	0.570276	0.158753
H119	H	1.510016	0.704992	0.072837
H120	H	1.510019	0.597221	0.179389
C121	C	1.246732	0.285881	0.095652
H122	H	1.245976	0.220416	0.095356
H123	H	1.291031	0.307345	0.052315
H124	H	1.278808	0.253548	0.170788
C125	C	1.868849	0.408864	0.359638
H126	H	1.861431	0.451739	0.282166
H127	H	1.909266	0.424803	0.394696
H128	H	1.909257	0.317036	0.394713
H129	H	1.243965	0.422797	0.811843
H130	H	1.818108	0.334563	0.556773
C131	C	1.362108	1.016811	-0.601007
H132	H	1.412262	1.016827	-0.558614
H133	H	1.403711	0.940612	-0.600843
H134	H	1.327497	1.093023	-0.676193
C135	C	0.920233	0.612278	-0.227202
H136	H	0.843985	0.687528	-0.258745
H137	H	0.963651	0.634943	-0.271198
H138	H	0.921249	0.545372	-0.226387
C139	C	1.607708	0.306790	-0.117700
H140	H	1.673699	0.284804	-0.074204
H141	H	1.607724	0.230902	-0.086175
H142	H	1.607710	0.338686	-0.192724
C143	C	0.651196	0.883647	0.227107
H144	H	0.607862	0.927992	0.258648
H145	H	0.673070	0.795710	0.271133
H146	H	0.717259	0.883493	0.226245
C147	C	0.382461	1.150063	0.095395
H148	H	0.375746	1.090893	0.160121
H149	H	0.418103	1.180512	0.116036
H150	H	0.308930	1.222618	0.041415
C151	C	1.135890	0.306801	0.819709
H152	H	1.091883	0.284819	0.797951
H153	H	1.211762	0.230911	0.863223
H154	H	1.103993	0.338695	0.863196
C155	C	0.787029	0.747688	-0.095441
H156	H	0.742933	0.726380	-0.051660
H157	H	0.787961	0.813330	-0.095689
H158	H	0.754593	0.779688	-0.170359
H159	H	1.185254	1.016785	-0.674476
C160	C	0.839955	1.016797	-0.399048
H161	H	0.789782	1.016811	-0.441451
H162	H	0.874557	0.940597	-0.323866
H163	H	0.798357	1.093007	-0.399220
H164	H	0.902064	0.458582	0.113527
C165	C	0.451180	1.283348	-0.131915
H166	H	0.407957	1.327351	-0.207251
H167	H	0.406753	1.327986	-0.101024
H168	H	0.517655	1.282374	-0.130899
H169	H	1.661497	0.599215	0.188249
C170	C	1.362123	1.016818	-0.399102
H171	H	1.412284	1.016804	-0.441503
H172	H	1.327530	1.093018	-0.399269
H173	H	1.403730	0.940608	-0.323916
H174	H	1.185266	1.016822	-0.325605
H175	H	1.100005	0.434281	0.195777
H176	H	1.502703	0.422825	0.694094
C177	C	0.650925	0.883641	-0.095692
H178	H	0.614813	0.853968	-0.116936
H179	H	0.658171	0.942595	-0.160049
H180	H	0.724252	0.810552	-0.041557
H181	H	1.383634	0.422797	-0.224536
C182	C	0.891659	0.613273	0.275383
H183	H	0.856171	0.570406	0.282711
H184	H	0.835318	0.705091	0.235481
H185	H	0.943016	0.597374	0.235373
H186	H	0.573788	0.787029	0.113490
H187	H	0.864008	1.016788	-0.587231
H188	H	1.226998	0.687453	-0.117731
H189	H	1.207185	0.599238	-0.224546
C190	C	1.135939	0.715254	0.415867
H191	H	1.179938	0.737245	0.437625
H192	H	1.167817	0.683378	0.372370
H193	H	1.060060	0.791151	0.372366
H194	H	0.908735	0.422850	0.480403
H195	H	1.465234	0.687445	0.207822
H196	H	1.326261	0.599281	0.519621
