data_functionalizedCrystal
_audit_creation_method	'MofGen! by Chris Wilmer'
_symmetry_space_group_name_H-M	'P1'
_symmetry_Int_Tables_number	1
_symmetry_cell_setting	triclinic
loop_
_symmetry_equiv_pos_as_xyz
  x,y,z
_cell_length_a	19.805407
_cell_length_b	25.639240
_cell_length_c	19.805399
_cell_angle_alpha	89.964092
_cell_angle_beta	89.980427
_cell_angle_gamma	90.032757
loop_
_atom_site_label
_atom_site_type_symbol
_atom_site_fract_x
_atom_site_fract_y
_atom_site_fract_z
Zn1	Zn	1.034706	-0.208163	-0.382680
Zn2	Zn	1.534706	0.291837	0.117320
Zn3	Zn	1.034608	-0.295597	-0.269476
Zn4	Zn	1.534608	0.204403	0.230524
Zn5	Zn	0.921520	-0.208177	-0.269505
Zn6	Zn	1.421520	0.291823	0.230495
Zn7	Zn	0.921471	-0.295569	-0.382623
Zn8	Zn	1.421471	0.204431	0.117377
O9	O	0.978076	-0.251877	-0.326071
O10	O	1.478076	0.248123	0.173929
O11	O	1.129409	-0.219767	-0.367676
O12	O	1.629409	0.280233	0.132324
O13	O	1.019586	-0.284018	-0.174763
O14	O	1.519586	0.215982	0.325237
O15	O	0.936596	-0.135010	-0.284555
O16	O	1.436596	0.364990	0.215445
O17	O	1.129338	-0.284004	-0.284505
O18	O	1.629338	0.215996	0.215495
O19	O	1.019753	-0.135000	-0.367704
O20	O	1.519753	0.365000	0.132296
O21	O	0.936501	-0.219791	-0.174785
O22	O	1.436501	0.280209	0.325215
O23	O	0.826797	-0.219764	-0.284498
O24	O	1.326797	0.280236	0.215502
O25	O	0.936513	-0.283957	-0.477347
O26	O	1.436513	0.216043	0.022653
O27	O	0.826761	-0.283971	-0.367605
O28	O	1.326761	0.216029	0.132395
O29	O	1.019705	-0.219740	-0.477389
O30	O	1.519705	0.280260	0.022611
O31	O	1.019539	-0.368758	-0.284448
O32	O	1.519539	0.131242	0.215552
O33	O	0.936418	-0.368738	-0.367577
O34	O	1.436418	0.131262	0.132423
C35	C	0.802220	-0.251867	-0.326049
C36	C	1.302220	0.248133	0.173951
C37	C	0.726988	-0.251875	-0.326056
C38	C	1.226988	0.248125	0.173944
C39	C	0.691643	-0.285357	-0.369259
C40	C	1.191643	0.214643	0.130741
C41	C	0.620955	-0.285358	-0.369269
C42	C	1.120955	0.214642	0.130731
C43	C	0.585613	-0.251879	-0.326071
C44	C	1.085613	0.248121	0.173929
C45	C	0.620963	-0.218393	-0.282865
C46	C	1.120963	0.281607	0.217135
C47	C	0.691650	-0.218390	-0.282860
C48	C	1.191650	0.281610	0.217140
C49	C	0.335890	-0.218404	-0.282888
C50	C	0.835890	0.281596	0.217112
C51	C	0.265198	-0.218411	-0.282895
C52	C	0.765198	0.281589	0.217105
C53	C	0.265194	-0.285373	-0.369297
C54	C	0.765194	0.214627	0.130703
C55	C	0.335881	-0.285370	-0.369291
C56	C	0.835881	0.214630	0.130709
C57	C	0.371225	-0.251882	-0.326089
C58	C	0.871225	0.248118	0.173911
C59	C	0.447874	-0.251881	-0.326080
C60	C	0.947874	0.248119	0.173920
C61	C	0.508966	-0.251883	-0.326076
C62	C	1.008966	0.248117	0.173924
C63	C	0.977981	-0.387719	-0.326018
C64	C	1.477981	0.112281	0.173982
C65	C	0.978002	-0.445833	-0.326018
C66	C	1.478002	0.054167	0.173982
C67	C	1.021398	-0.806152	-0.369445
C68	C	1.521398	-0.306152	0.130555
C69	C	1.021418	-0.860757	-0.369459
C70	C	1.521418	-0.360757	0.130541
O71	O	1.058201	-0.888956	-0.406328
O72	O	1.558201	-0.388956	0.093672
N73	N	0.978170	-0.888116	-0.326136
N74	N	1.478170	-0.388116	0.173864
C75	C	0.934895	-0.860868	-0.282802
C76	C	1.434895	-0.360868	0.217198
O77	O	0.898112	-0.889153	-0.245955
O78	O	1.398112	-0.389153	0.254045
C79	C	0.934873	-0.806264	-0.282792
C80	C	1.434873	-0.306264	0.217208
C81	C	0.978128	-0.778908	-0.326113
C82	C	1.478128	-0.278908	0.173887
C83	C	1.064649	-0.778796	-0.412762
C84	C	1.564649	-0.278796	0.087238
C85	C	1.064629	-0.724195	-0.412748
C86	C	1.564629	-0.224195	0.087252
C87	C	1.021359	-0.696951	-0.369415
C88	C	1.521359	-0.196951	0.130585
C89	C	0.978108	-0.724307	-0.326098
C90	C	1.478108	-0.224307	0.173902
C91	C	0.891595	-0.779017	-0.239462
C92	C	1.391595	-0.279017	0.260538
C93	C	0.891575	-0.724410	-0.239456
C94	C	1.391575	-0.224410	0.260544
C95	C	0.934830	-0.697054	-0.282777
C96	C	1.434830	-0.197054	0.217223
C97	C	0.934819	-0.642463	-0.282751
C98	C	1.434819	-0.142463	0.217249
N99	N	0.978066	-0.615104	-0.326073
N100	N	1.478066	-0.115104	0.173927
C101	C	1.021336	-0.642348	-0.369406
C102	C	1.521336	-0.142348	0.130594
C103	C	0.934946	-0.975538	-0.282827
C104	C	1.434946	-0.475538	0.217173
C105	C	0.934972	-1.030140	-0.282833
C106	C	1.434972	-0.530140	0.217167
C107	C	1.021493	-1.030026	-0.369491
C108	C	1.521493	-0.530026	0.130509
C109	C	1.021470	-0.975422	-0.369481
C110	C	1.521470	-0.475422	0.130519
C111	C	0.978193	-0.948179	-0.326149
C112	C	1.478193	-0.448179	0.173851
C113	C	1.021293	-0.527683	-0.369371
C114	C	1.521293	-0.027683	0.130629
C115	C	1.021272	-0.473077	-0.369350
C116	C	1.521272	0.026923	0.130650
C117	C	0.934748	-0.473197	-0.282695
C118	C	1.434748	0.026803	0.217305
C119	C	0.934772	-0.527798	-0.282713
C120	C	1.434772	-0.027798	0.217287
C121	C	0.978046	-0.555039	-0.326056
C122	C	1.478046	-0.055039	0.173944
O123	O	0.898053	-0.614229	-0.245903
O124	O	1.398053	-0.114229	0.254097
O125	O	1.058108	-0.614056	-0.406253
O126	O	1.558108	-0.114056	0.093747
C127	C	1.154619	-0.251887	-0.326093
C128	C	1.654619	0.248113	0.173907
C129	C	1.229851	-0.251891	-0.326103
C130	C	1.729851	0.248109	0.173897
C131	C	0.978114	-0.251844	-0.502614
C132	C	1.478114	0.248156	-0.002614
C133	C	0.978131	-0.251830	-0.577846
C134	C	1.478131	0.248170	-0.077846
C135	C	0.978191	-0.115504	-0.326139
C136	C	1.478191	0.384496	0.173861
C137	C	0.978240	-0.057389	-0.326168
C138	C	1.478240	0.442611	0.173832
C139	C	1.021450	-0.218390	-0.613213
C140	C	1.521450	0.281610	-0.113213
C141	C	1.021457	-0.218375	-0.683902
C142	C	1.521457	0.281625	-0.183902
C143	C	0.978147	-0.251802	-0.719221
C144	C	1.478147	0.248198	-0.219221
C145	C	0.934823	-0.285243	-0.683849
C146	C	1.434823	0.214757	-0.183849
C147	C	0.934813	-0.285255	-0.613162
C148	C	1.434813	0.214745	-0.113162
C149	C	0.934861	-0.285194	-0.968923
C150	C	1.434861	0.214806	-0.468923
C151	C	0.934876	-0.285181	-1.039615
C152	C	1.434876	0.214819	-0.539615
C153	C	1.021505	-0.218314	-1.039662
C154	C	1.521505	0.281686	-0.539662
C155	C	1.021495	-0.218326	-0.968975
C156	C	1.521495	0.281674	-0.468975
C157	C	0.978169	-0.251765	-0.933609
C158	C	1.478169	0.248235	-0.433609
C159	C	0.978161	-0.251780	-0.856960
C160	C	1.478161	0.248220	-0.356960
C161	C	0.978158	-0.251790	-0.795869
C162	C	1.478158	0.248210	-0.295869
C163	C	0.978078	-0.251872	-0.150215
C164	C	1.478078	0.248128	0.349785
C165	C	0.978193	-0.251738	-0.074983
C166	C	1.478193	0.248262	0.425017
H167	H	0.236409	-0.312639	-0.404477
H168	H	0.736409	0.187361	0.095523
H169	H	0.364653	-0.312634	-0.404465
H170	H	0.864653	0.187366	0.095535
H171	H	0.592180	-0.312624	-0.404449
H172	H	1.092180	0.187376	0.095551
H173	H	0.899756	-1.052409	-0.247550
H174	H	1.399756	-0.552409	0.252450
O175	O	1.068128	-0.945920	-0.416202
O176	O	1.568128	-0.445920	0.083798
H177	H	1.056493	-0.956376	-0.469315
H178	H	1.556493	-0.456376	0.030685
O179	O	0.582838	-0.182296	-0.236261
O180	O	1.082838	0.317704	0.263739
H181	H	0.550649	-0.155730	-0.266614
H182	H	1.050649	0.344270	0.233386
H183	H	0.899605	-0.312402	-1.068370
H184	H	1.399605	0.187598	-0.568370
O185	O	0.373993	-0.182290	-0.236278
O186	O	0.873993	0.317710	0.263722
H187	H	0.406224	-0.155708	-0.266626
H188	H	0.906224	0.344292	0.233374
O189	O	0.888098	-0.321244	-0.930802
O190	O	1.388098	0.178756	-0.430802
H191	H	0.899649	-0.362283	-0.944341
H192	H	1.399649	0.137717	-0.444341
O193	O	0.888082	-0.321320	-0.575018
O194	O	1.388082	0.178680	-0.075018
H195	H	0.918340	-0.347929	-0.542797
H196	H	1.418340	0.152071	-0.042797
O197	O	1.068161	-1.059417	-0.416233
O198	O	1.568161	-0.559417	0.083767
H199	H	1.056517	-1.048909	-0.469341
H200	H	1.556517	-0.548909	0.030659
O201	O	0.888279	-0.946154	-0.236075
O202	O	1.388279	-0.446154	0.263925
H203	H	0.858221	-0.974357	-0.205949
H204	H	1.358221	-0.474357	0.294051
H205	H	1.099884	-0.800972	-0.448053
H206	H	1.599884	-0.300972	0.051947
O207	O	0.227074	-0.182295	-0.236307
O208	O	0.727074	0.317705	0.263693
H209	H	0.263526	-0.159004	-0.206270
H210	H	0.763526	0.340996	0.293730
O211	O	0.729778	-0.182283	-0.236254
O212	O	1.229778	0.317717	0.263746
H213	H	0.693328	-0.159008	-0.206210
H214	H	1.193328	0.340992	0.293790
O215	O	1.068233	-0.182245	-1.077811
O216	O	1.568233	0.317755	-0.577811
H217	H	1.098352	-0.159008	-1.041375
H218	H	1.598352	0.340992	-0.541375
H219	H	0.899557	-0.312458	-0.712612
H220	H	1.399557	0.187542	-0.212612
H221	H	0.856372	-0.801281	-0.204186
H222	H	1.356372	-0.301281	0.295814
H223	H	1.056498	-0.450806	-0.404627
H224	H	1.556498	0.049194	0.095373
H225	H	1.056734	-0.191146	-0.712695
H226	H	1.556734	0.308854	-0.212695
O227	O	0.888080	-0.443803	-0.235963
O228	O	1.388080	0.056197	0.264037
H229	H	0.899722	-0.454301	-0.182852
H230	H	1.399722	0.045699	0.317148
H231	H	1.056527	-0.549856	-0.404669
H232	H	1.556527	-0.049856	0.095331
O233	O	1.068163	-0.182336	-0.575119
O234	O	1.568163	0.317664	-0.075119
H235	H	1.098282	-0.159078	-0.611591
H236	H	1.598282	0.340922	-0.111591
H237	H	1.056765	-0.191108	-0.940221
H238	H	1.556765	0.308892	-0.440221
O239	O	1.111293	-0.694692	-0.459461
O240	O	1.611293	-0.194692	0.040539
H241	H	1.141381	-0.722818	-0.489590
H242	H	1.641381	-0.222818	0.010410
H243	H	0.720414	-0.312622	-0.404434
H244	H	1.220414	0.187378	0.095566
H245	H	0.856332	-0.702231	-0.204172
H246	H	1.356332	-0.202231	0.295828
H247	H	0.899555	-0.550072	-0.247433
H248	H	1.399555	-0.050072	0.252567
