data_functionalizedCrystal
_audit_creation_method	'MofGen! by Chris Wilmer'
_symmetry_space_group_name_H-M	'P1'
_symmetry_Int_Tables_number	1
_symmetry_cell_setting	triclinic
loop_
_symmetry_equiv_pos_as_xyz
  x,y,z
_cell_length_a	12.811457
_cell_length_b	27.732046
_cell_length_c	26.809956
_cell_angle_alpha	89.982517
_cell_angle_beta	84.560436
_cell_angle_gamma	96.653428
loop_
_atom_site_label
_atom_site_type_symbol
_atom_site_fract_x
_atom_site_fract_y
_atom_site_fract_z
O1	O	1.391612	-0.065095	-0.021464
O2	O	1.085910	-0.072177	-0.007633
O3	O	1.248256	0.001709	-0.014989
O4	O	1.229265	-0.138981	-0.014108
O5	O	1.248282	0.001723	-0.097950
O6	O	1.085935	-0.072164	-0.090594
O7	O	1.391638	-0.065082	-0.104424
Zn8	Zn	1.238791	-0.068620	-0.110681
Zn9	Zn	1.238757	-0.068638	-0.001377
O10	O	1.229291	-0.138968	-0.097068
C11	C	1.046825	-0.071774	-0.047345
C12	C	0.930325	-0.070587	-0.042075
C13	C	0.711439	-0.068333	-0.122625
C14	C	0.601977	-0.067218	-0.117676
C15	C	0.601938	-0.067238	-0.027227
C16	C	0.711400	-0.068353	-0.032177
C17	C	0.766146	-0.068902	-0.079877
C18	C	0.875609	-0.070020	-0.084826
C19	C	0.875570	-0.070037	0.005622
C20	C	0.766108	-0.068922	0.010571
C21	C	1.247871	0.019725	-0.056453
C22	C	1.246671	0.073386	-0.056405
C23	C	1.335055	0.411721	-0.060386
C24	C	1.330604	0.613405	-0.060182
O25	O	1.411421	0.644221	-0.063818
N26	N	1.234340	0.633052	-0.055828
C27	C	1.139182	0.602275	-0.051521
O28	O	1.057202	0.623615	-0.047808
C29	C	1.143634	0.400592	-0.051721
C30	C	1.239904	0.380948	-0.056081
C31	C	1.431317	0.392076	-0.064744
C32	C	1.432429	0.341658	-0.064798
C33	C	1.337278	0.310885	-0.060493
C34	C	1.241016	0.330530	-0.056134
C35	C	1.048477	0.369817	-0.047411
C36	C	1.049599	0.319393	-0.047460
C37	C	1.145869	0.299749	-0.051819
C38	C	1.146977	0.249339	-0.051883
N39	N	1.243241	0.229691	-0.056237
C40	C	1.338391	0.260464	-0.060542
C41	C	1.136852	0.708162	-0.051418
C42	C	1.135738	0.758583	-0.051369
C43	C	1.327161	0.769709	-0.060029
C44	C	1.328273	0.719287	-0.060081
C45	C	1.233116	0.688515	-0.055772
C46	C	1.340719	0.154582	-0.060654
C47	C	1.341822	0.104159	-0.060710
C48	C	1.150400	0.093038	-0.052047
C49	C	1.149296	0.143456	-0.051994
C50	C	1.244464	0.174228	-0.056297
O51	O	1.066203	0.218494	-0.048244
O52	O	1.420360	0.239116	-0.064244
C53	C	1.333943	0.462139	-0.060332
C54	C	1.237681	0.481784	-0.055974
C55	C	1.142530	0.451011	-0.051669
C56	C	1.236568	0.532204	-0.055925
C57	C	1.331718	0.562977	-0.060230
C58	C	1.427982	0.543330	-0.064584
C59	C	1.429094	0.492912	-0.064637
C60	C	1.046266	0.470659	-0.047315
C61	C	1.045162	0.521077	-0.047262
C62	C	1.140313	0.551850	-0.051567
C63	C	1.430723	-0.065485	-0.064712
C64	C	1.547223	-0.066671	-0.069979
N65	N	1.238822	-0.068608	-0.185278
C66	C	1.229680	0.843017	-0.055609
C67	C	1.230889	0.789356	-0.055674
N68	N	1.238734	-0.068647	0.073220
C69	C	1.310818	-0.035982	0.414580
C70	C	1.310835	-0.035971	0.623457
O71	O	1.372116	-0.008217	0.647684
N72	N	1.238814	-0.068618	0.652844
C73	C	1.166788	-0.101272	0.630008
O74	O	1.105537	-0.129044	0.659795
C75	C	1.166777	-0.101285	0.421132
C76	C	1.238796	-0.068633	0.391748
C77	C	1.382832	-0.003332	0.385196
C78	C	1.382824	-0.003334	0.332980
C79	C	1.310801	-0.035984	0.310148
C80	C	1.238787	-0.068634	0.339532
C81	C	1.094756	-0.133942	0.398297
C82	C	1.094761	-0.133943	0.346074
C83	C	1.166781	-0.101290	0.316690
C84	C	1.166755	-0.101286	0.264484
N85	N	1.238777	-0.068639	0.235097
C86	C	1.310799	-0.035988	0.257929
C87	C	1.166797	-0.101263	0.739671
C88	C	1.166799	-0.101259	0.791890
C89	C	1.310848	-0.035958	0.785335
C90	C	1.310841	-0.035960	0.733115
C91	C	1.238819	-0.068615	0.710284
C92	C	1.310775	-0.035993	0.148272
C93	C	1.310757	-0.035996	0.096052
C94	C	1.166712	-0.101298	0.102611
C95	C	1.166726	-0.101294	0.154827
C96	C	1.238766	-0.068640	0.177656
O97	O	1.105514	-0.129029	0.240223
O98	O	1.372057	-0.008228	0.228132
C99	C	1.310827	-0.035981	0.466796
C100	C	1.238813	-0.068630	0.496180
C101	C	1.166790	-0.101281	0.473347
C102	C	1.238815	-0.068626	0.548398
C103	C	1.310837	-0.035975	0.571231
C104	C	1.382859	-0.003328	0.541844
C105	C	1.382850	-0.003330	0.489628
C106	C	1.094769	-0.133928	0.502734
C107	C	1.094783	-0.133924	0.554950
C108	C	1.166806	-0.101273	0.577782
H109	H	0.920181	-0.070470	-0.123666
C110	C	1.087612	-0.137198	0.824204
N111	N	1.027988	-0.164279	0.848541
H112	H	0.966762	0.537066	-0.043716
C113	C	0.705875	-0.068319	0.063039
N114	N	0.660508	-0.067866	0.102559
H115	H	1.369485	-0.009371	0.709194
H116	H	1.441470	0.023254	0.309059
H117	H	1.507487	0.476922	-0.068187
C118	C	1.390017	-0.000069	0.173377
N119	N	1.449697	0.026992	0.192285
H120	H	0.968781	0.445608	-0.043808
H121	H	0.972108	0.294340	-0.043950
C122	C	1.389981	-0.000071	0.063733
N123	N	1.449649	0.026987	0.039392
C124	C	1.390079	-0.000044	0.810460
N125	N	1.449758	0.027002	0.829386
H126	H	0.920123	-0.070502	0.040431
C127	C	1.087554	-0.137185	0.714564
N128	N	1.027862	-0.164240	0.695656
H129	H	1.036112	-0.160530	0.422214
H130	H	0.557437	-0.066758	-0.152486
C131	C	0.771661	-0.068940	-0.175095
N132	N	0.817019	-0.069395	-0.214617
C133	C	1.043395	0.165066	-0.047202
N134	N	0.963628	0.181339	-0.043587
C135	C	1.087443	-0.137186	0.187153
N136	N	1.027713	-0.164214	0.211498
C137	C	1.015526	-0.169866	0.320963
N138	N	0.955843	-0.196922	0.302051
C139	C	1.538334	0.320056	-0.069589
N140	N	1.618108	0.303789	-0.073195
C141	C	1.462072	0.032594	0.457313
N142	N	1.521745	0.059654	0.432976
C143	C	0.541701	-0.066628	0.025239
N144	N	0.496329	-0.066168	0.064757
C145	C	1.087483	-0.137209	0.077486
N146	N	1.027808	-0.164258	0.058560
C147	C	1.532648	0.577190	-0.069319
N148	N	1.611478	0.602695	-0.072881
C149	C	1.045740	0.059178	-0.047308
N150	N	0.966909	0.033674	-0.043734
C151	C	1.462078	0.032591	0.566970
N152	N	1.521744	0.059642	0.585897
C153	C	1.447731	0.082554	-0.065504
N154	N	1.527499	0.066282	-0.069114
C155	C	1.015527	-0.169846	0.477626
N156	N	0.955832	-0.196899	0.458718
C157	C	1.015606	-0.169873	0.587264
N158	N	0.955999	-0.196962	0.611600
H159	H	1.418213	0.179631	-0.064156
H160	H	1.059358	0.683111	-0.047908
C161	C	1.536000	0.425919	-0.069486
N162	N	1.614855	0.451407	-0.073063
H163	H	1.441487	0.023256	0.403781
H164	H	1.406665	0.703296	-0.063631
C165	C	1.431827	0.803568	-0.064761
N166	N	1.510658	0.829074	-0.068320
H167	H	0.970084	0.385802	-0.043858
C168	C	1.029834	0.780186	-0.046579
N169	N	0.950063	0.796455	-0.042968
