data_functionalizedCrystal
_audit_creation_method	'MofGen! by Chris Wilmer'
_symmetry_space_group_name_H-M	'P1'
_symmetry_Int_Tables_number	1
_symmetry_cell_setting	triclinic
loop_
_symmetry_equiv_pos_as_xyz
  x,y,z
_cell_length_a	25.639242
_cell_length_b	19.077105
_cell_length_c	19.076919
_cell_angle_alpha	90.076224
_cell_angle_beta	87.717857
_cell_angle_gamma	92.297046
loop_
_atom_site_label
_atom_site_type_symbol
_atom_site_fract_x
_atom_site_fract_y
_atom_site_fract_z
Zn1	Zn	0.252947	1.058376	-0.440479
Zn2	Zn	0.337014	1.063052	-0.322993
Zn3	Zn	0.245943	0.945591	-0.318271
Zn4	Zn	0.336699	0.940873	-0.435746
O5	O	0.293151	1.001973	-0.379372
O6	O	0.267162	1.157330	-0.428852
O7	O	0.322134	1.051401	-0.224035
O8	O	0.173707	0.960570	-0.334487
O9	O	0.328926	1.160765	-0.342535
O10	O	0.178853	1.043433	-0.424273
O11	O	0.255224	0.965104	-0.220565
O12	O	0.254918	0.846632	-0.329897
O13	O	0.328389	0.952529	-0.534705
O14	O	0.321597	0.843166	-0.416205
O15	O	0.266856	1.038858	-0.538183
O16	O	0.410137	1.046826	-0.337945
O17	O	0.409906	0.957062	-0.420784
C18	C	0.287464	0.819403	-0.372025
C19	C	0.285044	0.741297	-0.368899
C20	C	0.318671	0.702820	-0.412296
C21	C	0.316391	0.629432	-0.409361
C22	C	0.280485	0.594522	-0.363027
C23	C	0.246854	0.633005	-0.319628
C24	C	0.249132	0.706392	-0.322566
C25	C	0.269941	0.375231	-0.349431
C26	C	0.267666	0.301839	-0.346495
C27	C	0.337202	0.298270	-0.436229
C28	C	0.339480	0.371659	-0.439160
C29	C	0.305847	0.410135	-0.395765
N30	N	0.278154	0.519508	-0.360025
N31	N	0.308176	0.485148	-0.398771
C32	C	0.156779	1.002007	-0.379381
C33	C	0.098666	1.002021	-0.379385
C34	C	-0.264382	0.958863	-0.332656
C35	C	-0.318987	0.958862	-0.332659
O36	O	-0.349507	0.922156	-0.292923
N37	N	-0.343617	1.002006	-0.379405
C38	C	-0.313640	1.045149	-0.426155
O39	O	-0.339604	1.081846	-0.465917
C40	C	-0.259037	1.045146	-0.426155
C41	C	-0.234409	1.002004	-0.379401
C42	C	-0.239755	0.915724	-0.285907
C43	C	-0.185154	0.915726	-0.285903
C44	C	-0.155181	0.958867	-0.332648
C45	C	-0.179809	1.002006	-0.379397
C46	C	-0.229061	1.088285	-0.472908
C47	C	-0.174454	1.088277	-0.472904
C48	C	-0.149827	1.045135	-0.426150
C49	C	-0.095235	1.045149	-0.426138
N50	N	-0.070605	1.002005	-0.379393
C51	C	-0.100578	0.958864	-0.332647
C52	C	-0.428310	1.045152	-0.426154
C53	C	-0.482913	1.045159	-0.426151
C54	C	-0.488256	0.958871	-0.332656
C55	C	-0.433652	0.958868	-0.332655
C56	C	-0.403680	1.002008	-0.379408
C57	C	0.014087	0.958872	-0.332642
C58	C	0.068693	0.958880	-0.332640
C59	C	0.074031	1.045165	-0.426138
C60	C	0.019430	1.045160	-0.426137
C61	C	-0.010541	1.002008	-0.379387
O62	O	-0.064682	1.081835	-0.465856
O63	O	-0.074607	0.922166	-0.292899
C64	C	0.428993	1.001958	-0.379379
C65	C	0.487110	1.002015	-0.379408
C66	C	0.298368	0.994646	-0.562654
C67	C	0.300592	0.991523	-0.640757
C68	C	0.298860	1.185257	-0.386748
C69	C	0.301293	1.263361	-0.389891
C70	C	0.269601	1.035001	-0.679262
C71	C	0.271688	1.032059	-0.752649
C72	C	0.304769	0.985642	-0.787529
C73	C	0.335761	0.942159	-0.749018
C74	C	0.333671	0.945099	-0.675633
C75	C	0.314452	0.972028	-1.006812
C76	C	0.316541	0.969093	-1.080203
C77	C	0.252468	1.058992	-1.083828
C78	C	0.250383	1.061930	-1.010441
C79	C	0.281373	1.018445	-0.971937
N80	N	0.306904	0.982634	-0.862541
N81	N	0.279234	1.021449	-0.896926
C82	C	0.287917	1.009312	-0.196805
C83	C	0.285550	1.012571	-0.118708
H84	H	0.242558	0.406549	-0.314090
H85	H	0.343481	0.931293	-1.108600
C86	C	0.214539	1.112383	-0.972522
C87	C	0.244331	1.159115	-0.932199
C88	C	0.211325	1.205597	-0.897258
H89	H	0.190107	1.086709	-0.942769
H90	H	0.196378	1.137900	-1.005931
H91	H	0.262483	1.133602	-0.898794
H92	H	0.268761	1.184806	-0.961936
H93	H	0.193164	1.231113	-0.930667
H94	H	0.186895	1.179916	-0.867508
H95	H	0.231534	1.237314	-0.869900
C96	C	0.371761	0.891807	-0.786799
C97	C	0.423458	0.907798	-0.769544
C98	C	0.456636	0.861423	-0.804325
H99	H	0.368638	0.896239	-0.836028
H100	H	0.362326	0.845065	-0.772855
H101	H	0.432890	0.954528	-0.783492
H102	H	0.426597	0.903361	-0.720321
H103	H	0.447201	0.814682	-0.790382
H104	H	0.453509	0.865860	-0.853553
H105	H	0.491716	0.872263	-0.792618
C106	C	-0.018475	0.911933	-0.281996
C107	C	-0.050077	0.865284	-0.319964
C108	C	-0.080075	0.822032	-0.273331
H109	H	-0.039859	0.939955	-0.252444
H110	H	0.004001	0.886203	-0.254166
H111	H	-0.072551	0.891012	-0.347782
H112	H	-0.028707	0.837247	-0.349514
H113	H	-0.057600	0.796302	-0.245501
H114	H	-0.101456	0.850060	-0.243781
H115	H	-0.101518	0.790371	-0.299086
C116	C	0.218730	1.106159	-1.125541
C117	C	0.166017	1.091595	-1.107062
C118	C	0.134920	1.135038	-1.145467
H119	H	0.224641	1.097807	-1.174255
H120	H	0.227478	1.153865	-1.115402
H121	H	0.157272	1.043900	-1.117207
H122	H	0.160089	1.099952	-1.058355
H123	H	0.143667	1.182744	-1.135328
H124	H	0.140835	1.126682	-1.194178
H125	H	0.099151	1.125167	-1.132930
H126	H	0.368719	0.400077	-0.476890
C127	C	0.348150	0.924775	-0.965139
C128	C	0.377573	0.883507	-1.011396
C129	C	0.408623	0.839968	-0.973029
H130	H	0.326428	0.895249	-0.935283
H131	H	0.370984	0.952765	-0.937598
H132	H	0.354741	0.855519	-1.038925
H133	H	0.399305	0.913014	-1.041253
H134	H	0.431457	0.867958	-0.945488
H135	H	0.386897	0.810447	-0.943174
H136	H	0.428593	0.811967	-1.004408
H137	H	0.358901	0.909687	-0.644283
H138	H	-0.413605	0.923737	-0.294585
H139	H	0.098445	1.080292	-0.464194
C140	C	-0.142005	1.135187	-0.523701
C141	C	-0.175264	1.172975	-0.564632
C142	C	-0.145392	1.216199	-0.611427
H143	H	-0.120662	1.107153	-0.553297
H144	H	-0.120527	1.166922	-0.498078
H145	H	-0.196733	1.141244	-0.590252
H146	H	-0.196607	1.201022	-0.535054
H147	H	-0.123914	1.247933	-0.585805
H148	H	-0.124051	1.188159	-0.641019
H149	H	-0.167954	1.241847	-0.639200
H150	H	-0.165108	0.880594	-0.247832
H151	H	-0.403910	1.080286	-0.464225
H152	H	0.364584	0.266935	-0.471561
H153	H	0.347911	0.731238	-0.450024
H154	H	0.246454	1.067465	-0.783997
C155	C	0.207899	0.595198	-0.269212
C156	C	0.217767	0.615828	-0.200378
C157	C	0.181889	0.581023	-0.153915
H158	H	0.211324	0.545974	-0.273581
H159	H	0.173440	0.606830	-0.280013
H160	H	0.252218	0.604191	-0.189581
H161	H	0.214339	0.665046	-0.195987
H162	H	0.147430	0.592655	-0.164716
H163	H	0.185316	0.531800	-0.158290
H164	H	0.188577	0.595020	-0.107207
C165	C	0.352970	0.587782	-0.456500
C166	C	0.384916	0.634062	-0.497687
C167	C	0.418628	0.595721	-0.541112
H168	H	0.333057	0.557928	-0.486082
H169	H	0.374090	0.560241	-0.428432
H170	H	0.363799	0.661591	-0.525752
H171	H	0.404841	0.663917	-0.468124
H172	H	0.439747	0.568180	-0.513044
H173	H	0.398710	0.565868	-0.570689
H174	H	0.440311	0.627116	-0.569057
C175	C	0.228625	0.264063	-0.296166
C176	C	0.199648	0.313465	-0.258804
C177	C	0.163677	0.278692	-0.212443
H178	H	0.246768	0.236655	-0.264296
H179	H	0.205728	0.234378	-0.321937
H180	H	0.222541	0.343137	-0.233034
H181	H	0.181493	0.340875	-0.290655
H182	H	0.140781	0.249007	-0.238214
H183	H	0.181825	0.251284	-0.180578
H184	H	0.144009	0.312205	-0.187092
H185	H	0.221747	0.737719	-0.287232
C186	C	-0.255857	1.135007	-0.523712
C187	C	-0.287164	1.093419	-0.567142
C188	C	-0.311860	1.136437	-0.613950
H189	H	-0.230235	1.160704	-0.551617
H190	H	-0.277003	1.166695	-0.498096
H191	H	-0.266019	1.061743	-0.592756
H192	H	-0.312795	1.067722	-0.539257
H193	H	-0.333006	1.168125	-0.588334
H194	H	-0.286234	1.162132	-0.641850
H195	H	-0.333108	1.108226	-0.643418
H196	H	0.088741	0.923748	-0.294565
H197	H	-0.264154	0.880590	-0.247841
H198	H	-0.512670	0.923742	-0.294594
C199	C	-0.509550	1.092029	-0.476986
C200	C	-0.471607	1.129794	-0.517930
C201	C	-0.496123	1.172968	-0.564778
H202	H	-0.530665	1.123782	-0.451424
H203	H	-0.530798	1.063940	-0.506564
H204	H	-0.450367	1.157882	-0.488356
H205	H	-0.450490	1.098060	-0.543507
H206	H	-0.517372	1.144879	-0.594355
H207	H	-0.517237	1.204717	-0.539210
H208	H	-0.470383	1.198593	-0.592568
C209	C	-0.007214	1.092021	-0.476977
C210	C	0.030725	1.129789	-0.517925
C211	C	0.006204	1.172948	-0.564781
H212	H	-0.028334	1.123772	-0.451422
H213	H	-0.028458	1.063921	-0.506552
H214	H	0.051960	1.157886	-0.488354
H215	H	0.051847	1.098055	-0.543496
H216	H	-0.015040	1.144849	-0.594356
H217	H	-0.014915	1.204695	-0.539220
H218	H	0.031942	1.198574	-0.592574
H219	H	0.242665	1.072801	-0.650869
