data_functionalizedCrystal
_audit_creation_method	'MofGen! by Chris Wilmer'
_symmetry_space_group_name_H-M	'P1'
_symmetry_Int_Tables_number	1
_symmetry_cell_setting	triclinic
loop_
_symmetry_equiv_pos_as_xyz
  x,y,z
_cell_length_a	29.917948
_cell_length_b	29.917021
_cell_length_c	29.913391
_cell_angle_alpha	60.005297
_cell_angle_beta	60.010472
_cell_angle_gamma	59.993667
loop_
_atom_site_label
_atom_site_type_symbol
_atom_site_fract_x
_atom_site_fract_y
_atom_site_fract_z
O1	O	0.061938	-0.653075	0.546110
O2	O	0.561938	-0.153075	1.046110
O3	O	0.023328	-0.508466	0.440017
O4	O	0.523328	-0.008466	0.940017
O5	O	0.114898	-0.599963	0.439941
O6	O	0.614898	-0.099963	0.939941
O7	O	-0.029633	-0.561578	0.546186
O8	O	0.470367	-0.061578	1.046186
O9	O	0.145278	-0.569587	0.470242
O10	O	0.645278	-0.069587	0.970242
O11	O	0.053708	-0.478090	0.470318
O12	O	0.553708	0.021910	0.970318
O13	O	0.092318	-0.622699	0.576411
O14	O	0.592318	-0.122699	1.076411
Zn15	Zn	0.077836	-0.545572	0.528175
Zn16	Zn	0.577836	-0.045572	1.028175
Zn17	Zn	0.037809	-0.585593	0.488253
Zn18	Zn	0.537809	-0.085593	0.988253
O19	O	0.000747	-0.531202	0.576487
O20	O	0.500747	-0.031202	1.076487
N21	N	0.105154	-0.518262	0.555424
N22	N	0.605154	-0.018262	1.055424
N23	N	0.010496	-0.612908	0.461004
N24	N	0.510496	-0.112908	0.961004
C25	C	0.164136	-0.309209	0.614352
C26	C	0.664136	0.190791	1.114352
C27	C	0.164251	-0.459335	0.764424
C28	C	0.664251	0.040665	1.264424
C29	C	0.164150	-0.459313	0.614341
C30	C	0.664150	0.040687	1.114341
C31	C	0.314282	-0.459305	0.614278
C32	C	0.814282	0.040695	1.114278
C33	C	0.180666	-0.358742	0.630849
C34	C	0.680666	0.141258	1.130849
C35	C	0.180732	-0.442815	0.714891
C36	C	0.680732	0.057185	1.214891
C37	C	0.264747	-0.442797	0.630809
C38	C	0.764747	0.057203	1.130809
C39	C	0.180676	-0.442802	0.630843
C40	C	0.680676	0.057198	1.130843
C41	C	0.143097	-0.246161	0.593354
C42	C	0.643097	0.253839	1.093354
C43	C	0.143120	-0.480326	0.593337
C44	C	0.643120	0.019674	1.093337
C45	C	0.201706	-0.421790	0.651848
C46	C	0.701706	0.078210	1.151848
C47	C	0.405963	-0.443499	0.565998
C48	C	0.905963	0.056501	1.065998
C49	C	0.463273	-0.462598	0.546874
C50	C	0.963273	0.037402	1.046874
C51	C	0.463297	-0.555329	0.582235
C52	C	0.963297	-0.055329	1.082235
C53	C	0.405988	-0.536228	0.601360
C54	C	0.905988	-0.036228	1.101360
C55	C	0.156905	-0.217495	0.537012
C56	C	0.656905	0.282505	1.037012
C57	C	0.137776	-0.160180	0.517926
C58	C	0.637776	0.339820	1.017926
C59	C	0.091035	-0.160201	0.611524
C60	C	0.591035	0.339799	1.111524
C61	C	0.110164	-0.217516	0.630611
C62	C	0.610164	0.282484	1.130611
C63	C	0.086772	-0.466488	0.607209
C64	C	0.586772	0.033512	1.107209
C65	C	0.067659	-0.485590	0.588108
C66	C	0.567659	0.014410	1.088108
C67	C	0.161236	-0.532368	0.541277
C68	C	0.661236	-0.032368	1.041277
C69	C	0.180352	-0.513266	0.560371
C70	C	0.680352	-0.013266	1.060371
C71	C	0.086942	-0.466529	0.856152
C72	C	0.586942	0.033471	1.356152
C73	C	0.067877	-0.485647	0.913465
C74	C	0.567877	0.014353	1.413465
C75	C	0.161489	-0.532436	0.913415
C76	C	0.661489	-0.032436	1.413415
C77	C	0.180552	-0.513318	0.856101
C78	C	0.680552	-0.013318	1.356101
C79	C	0.143277	-0.480363	0.827471
C80	C	0.643277	0.019637	1.327471
C81	C	0.377323	-0.480313	0.593239
C82	C	0.877323	0.019687	1.093239
C83	C	-0.111377	-0.650681	0.422736
C84	C	0.388623	-0.150681	0.922736
C85	C	-0.027364	-0.650787	0.422929
C86	C	0.472636	-0.150787	0.922929
C87	C	-0.048335	-0.671770	0.401835
C88	C	0.451665	-0.171770	0.901835
C89	C	-0.064214	-0.763416	0.450041
C90	C	0.435786	-0.263416	0.950041
C91	C	-0.045160	-0.820731	0.469172
C92	C	0.454840	-0.320731	0.969172
C93	C	0.047573	-0.820841	0.433980
C94	C	0.547573	-0.320841	0.933980
C95	C	0.028517	-0.763527	0.414847
C96	C	0.528517	-0.263527	0.914847
C97	C	-0.140115	-0.664483	0.479060
C98	C	0.359885	-0.164483	0.979060
C99	C	-0.197425	-0.645309	0.498058
C100	C	0.302575	-0.145309	0.998058
C101	C	-0.197256	-0.598535	0.404405
C102	C	0.302744	-0.098535	0.904405
C103	C	-0.139946	-0.617709	0.385407
C104	C	0.360054	-0.117709	0.885407
C105	C	-0.041168	-0.594444	0.409067
C106	C	0.458832	-0.094444	0.909067
C107	C	-0.022104	-0.575374	0.428250
C108	C	0.477896	-0.075374	0.928250
C109	C	0.024568	-0.668986	0.475143
C110	C	0.524568	-0.168986	0.975143
C111	C	0.005504	-0.688059	0.455967
C112	C	0.505504	-0.188059	0.955967
C113	C	-0.041000	-0.594453	0.310105
C114	C	0.459000	-0.094453	0.810105
C115	C	-0.021803	-0.575386	0.252792
C116	C	0.478197	-0.075386	0.752792
C117	C	0.024951	-0.669004	0.252854
C118	C	0.524951	-0.169004	0.752854
C119	C	0.005755	-0.688070	0.310168
C120	C	0.505755	-0.188070	0.810168
C121	C	-0.027222	-0.650793	0.338792
C122	C	0.472778	-0.150793	0.838792
C123	C	-0.027377	-0.734817	0.422881
C124	C	0.472623	-0.234817	0.922881
N125	N	0.491125	-0.518235	0.555255
N126	N	0.991125	-0.018235	1.055255
O127	O	0.678406	-0.527360	0.420422
O128	O	1.178406	-0.027360	0.920422
O129	O	0.678588	-0.633782	0.564887
O130	O	1.178588	-0.133782	1.064887
O131	O	0.678516	-0.633539	0.473265
O132	O	1.178516	-0.133539	0.973265
O133	O	0.678478	-0.527602	0.512044
O134	O	1.178478	-0.027602	1.012044
O135	O	0.587469	-0.603251	0.503685
O136	O	1.087469	-0.103251	1.003685
O137	O	0.587541	-0.603493	0.595307
O138	O	1.087541	-0.103493	1.095307
O139	O	0.587359	-0.497071	0.450842
O140	O	1.087359	0.002929	0.950842
Zn141	Zn	0.572994	-0.545473	0.527905
Zn142	Zn	1.072994	-0.045473	1.027905
Zn143	Zn	0.692953	-0.585380	0.487825
Zn144	Zn	1.192953	-0.085380	0.987825
O145	O	0.587431	-0.497313	0.542465
O146	O	1.087431	0.002687	1.042465
N147	N	0.774821	-0.612618	0.460470
N148	N	1.274821	-0.112618	0.960470
N149	N	0.105125	-0.132348	0.555445
N150	N	0.605125	0.367652	1.055445
O151	O	-0.029633	0.055031	0.546198
O152	O	0.470367	0.555031	1.046198
O153	O	0.114837	0.055047	0.439777
O154	O	0.614837	0.555047	0.939777
O155	O	0.023189	0.055024	0.440050
O156	O	0.523189	0.555024	0.940050
O157	O	0.062016	0.055054	0.545925
O158	O	0.562016	0.555054	1.045925
O159	O	0.053572	-0.036031	0.470398
O160	O	0.553572	0.463969	0.970398
O161	O	0.145220	-0.036008	0.470125
O162	O	0.645220	0.463992	0.970125
O163	O	0.000750	-0.036024	0.576546
O164	O	0.500750	0.463976	1.076546
Zn165	Zn	0.077809	-0.050473	0.528154
Zn166	Zn	0.577809	0.449527	1.028154
Zn167	Zn	0.037778	0.069496	0.488169
Zn168	Zn	0.537778	0.569496	0.988169
O169	O	0.092399	-0.036001	0.576273
O170	O	0.592399	0.463999	1.076273
N171	N	0.010456	0.151371	0.460879
N172	N	0.510456	0.651371	0.960879
N173	N	0.105414	-0.518315	0.941279
N174	N	0.605414	-0.018315	1.441279
O175	O	0.096182	-0.653057	1.128644
O176	O	0.596182	-0.153057	1.628644
O177	O	-0.010215	-0.508539	1.128670
O178	O	0.489785	-0.008539	1.628670
O179	O	-0.009968	-0.600172	1.128636
O180	O	0.490032	-0.100172	1.628636
O181	O	0.095935	-0.561424	1.128678
O182	O	0.595935	-0.061424	1.628678
O183	O	0.020367	-0.569808	1.037586
O184	O	0.520367	-0.069808	1.537586
O185	O	0.020121	-0.478175	1.037620
O186	O	0.520121	0.021825	1.537620
O187	O	0.126517	-0.622693	1.037594
O188	O	0.626517	-0.122693	1.537594
Zn189	Zn	0.078135	-0.545613	1.023151
Zn190	Zn	0.578135	-0.045613	1.523151
Zn191	Zn	0.038167	-0.585619	1.143113
Zn192	Zn	0.538167	-0.085619	1.643113
O193	O	0.126270	-0.531061	1.037628
O194	O	0.626270	-0.031061	1.537628
N195	N	0.010887	-0.612923	1.224985
N196	N	0.510887	-0.112923	1.724985
C197	C	0.034899	-0.475056	0.440551
C198	C	0.534899	0.024944	0.940551
C199	C	0.148298	-0.588365	0.440456
C200	C	0.648298	-0.088365	0.940456
C201	C	0.080746	-0.656109	0.575876
C202	C	0.580746	-0.156109	1.075876
C203	C	-0.032653	-0.542801	0.575971
C204	C	0.467347	-0.042801	1.075971
C205	C	0.633086	-0.633292	0.598298
C206	C	1.133086	-0.133292	1.098298
C207	C	0.632998	-0.632993	0.484834
C208	C	1.132998	-0.132993	0.984834
C209	C	0.632857	-0.497559	0.417433
C210	C	1.132857	0.002441	0.917433
C211	C	0.632949	-0.497860	0.530895
C212	C	1.132949	0.002140	1.030895
C213	C	0.148191	0.009634	0.440259
C214	C	0.648191	0.509634	0.940259
C215	C	0.034733	0.009493	0.440634
C216	C	0.534733	0.509493	0.940634
C217	C	-0.032641	0.009502	0.576027
C218	C	0.467359	0.509502	1.076027
C219	C	0.080854	0.009529	0.575690
C220	C	0.580854	0.509529	1.075690
C221	C	-0.009699	-0.475150	1.083148
C222	C	0.490301	0.024850	1.583148
C223	C	-0.009388	-0.588620	1.083088
C224	C	0.490612	-0.088620	1.583088
C225	C	0.126001	-0.656082	1.083116
C226	C	0.626001	-0.156082	1.583116
C227	C	0.125697	-0.542605	1.083155
C228	C	0.625697	-0.042605	1.583155
H229	H	0.022003	-0.474373	0.936811
H230	H	0.522003	0.025627	1.436811
C231	C	0.632988	-0.677290	0.473677
C232	C	1.132988	-0.177290	0.973677
C233	C	0.632919	-0.657432	0.420244
C234	C	1.132919	-0.157432	0.920244
C235	C	0.632902	-0.698220	0.409950
C236	C	1.132902	-0.198220	0.909950
H237	H	0.664753	-0.708436	0.477689
H238	H	1.164753	-0.208436	0.977689
H239	H	0.601249	-0.687279	0.498926
H240	H	1.101249	-0.187279	0.998926
H241	H	0.664655	-0.647451	0.395003
H242	H	1.164655	-0.147451	0.895003
H243	H	0.601156	-0.626292	0.416220
H244	H	1.101156	-0.126292	0.916220
H245	H	0.601163	-0.708208	0.435198
H246	H	1.101163	-0.208208	0.935198
H247	H	0.664668	-0.729363	0.413964
H248	H	1.164668	-0.229363	0.913964
H249	H	0.632850	-0.684750	0.373697
H250	H	1.132850	-0.184750	0.873697
C251	C	0.046321	-0.430629	0.642899
C252	C	0.546321	0.069371	1.142899
C253	C	0.013428	-0.382904	0.614130
C254	C	0.513428	0.117096	1.114130
C255	C	-0.023838	-0.349854	0.646989
C256	C	0.476162	0.150146	1.146989
H257	H	0.023926	-0.450007	0.675318
H258	H	0.523926	0.049993	1.175318
H259	H	0.065753	-0.421197	0.652278
H260	H	0.565753	0.078803	1.152278
H261	H	-0.006002	-0.392337	0.604759
H262	H	0.493998	0.107663	1.104759
H263	H	0.035808	-0.363512	0.581714
H264	H	0.535808	0.136488	1.081714
H265	H	-0.004406	-0.340422	0.656367
H266	H	0.495594	0.159578	1.156367
H267	H	-0.046229	-0.369237	0.679406
H268	H	0.453771	0.130763	1.179406
H269	H	-0.046156	-0.317467	0.627472
H270	H	0.453844	0.182533	1.127472
C271	C	0.203599	-0.599276	0.395908
C272	C	0.703599	-0.099276	0.895908
C273	C	0.196396	-0.593187	0.350139
C274	C	0.696396	-0.093187	0.850139
C275	C	0.247327	-0.603242	0.309094
C276	C	0.747327	-0.103242	0.809094
H277	H	0.220054	-0.573990	0.385863
H278	H	0.720054	-0.073990	0.885863
H279	H	0.226577	-0.635523	0.409156
H280	H	0.726577	-0.135523	0.909156
H281	H	0.173426	-0.556946	0.336893
H282	H	0.673426	-0.056946	0.836893
H283	H	0.179950	-0.618472	0.360166
H284	H	0.679950	-0.118472	0.860166
H285	H	0.270306	-0.639488	0.322342
H286	H	0.770306	-0.139488	0.822342
H287	H	0.263778	-0.577954	0.299053
H288	H	0.763778	-0.077954	0.799053
H289	H	0.242448	-0.599116	0.278037
H290	H	0.742448	-0.099116	0.778037
C291	C	0.091834	-0.711543	0.620229
C292	C	0.591834	-0.211543	1.120229
C293	C	0.145264	-0.745229	0.600451
C294	C	0.645264	-0.245229	1.100451
C295	C	0.155494	-0.796300	0.641290
C296	C	0.655494	-0.296300	1.141290
H297	H	0.087788	-0.706875	0.651369
H298	H	0.587788	-0.206875	1.151369
H299	H	0.066579	-0.728010	0.630202
H300	H	0.566579	-0.228010	1.130202
H301	H	0.170511	-0.728765	0.590486
H302	H	0.670511	-0.228765	1.090486
H303	H	0.149322	-0.749912	0.569316
H304	H	0.649322	-0.249912	1.069316
H305	H	0.130240	-0.812767	0.651263
H306	H	0.630240	-0.312767	1.151263
H307	H	0.151446	-0.791627	0.672427
H308	H	0.651446	-0.291627	1.172427
H309	H	0.191745	-0.819164	0.627875
H310	H	0.691745	-0.319164	1.127875
H311	H	0.226235	-0.524529	0.549071
H312	H	0.726235	-0.024529	1.049071
H313	H	-0.074131	0.009496	0.609437
H314	H	0.425869	0.509496	1.109437
C315	C	-0.053756	-0.599546	1.082935
C316	C	0.446244	-0.099546	1.582935
C317	C	-0.068330	-0.562228	1.036083
C318	C	0.431670	-0.062228	1.536083
C319	C	-0.109206	-0.572271	1.035928
C320	C	0.390794	-0.072271	1.535928
H321	H	-0.040434	-0.635770	1.082887
H322	H	0.459566	-0.135770	1.582887
H323	H	-0.084927	-0.595438	1.114659
H324	H	0.415073	-0.095438	1.614659
H325	H	-0.037165	-0.566341	1.004367
H326	H	0.462835	-0.066341	1.504367
H327	H	-0.081662	-0.526000	1.036122
H328	H	0.418338	-0.026000	1.536122
H329	H	-0.140376	-0.568163	1.067652
H330	H	0.359624	-0.068163	1.567652
H331	H	-0.095879	-0.608496	1.035881
H332	H	0.404121	-0.108496	1.535881
H333	H	-0.119103	-0.546950	1.004142
H334	H	0.380897	-0.046950	1.504142
C335	C	0.092053	0.009499	0.619986
C336	C	0.592053	0.509499	1.119986
C337	C	0.145505	0.009491	0.600129
C338	C	0.645505	0.509491	1.100129
C339	C	0.155844	0.009452	0.640923
C340	C	0.655844	0.509452	1.140923
H341	H	0.066850	0.041240	0.629994
H342	H	0.566850	0.541240	1.129994
H343	H	0.088020	-0.022270	0.651120
H344	H	0.588020	0.477730	1.151120
H345	H	0.149533	0.041257	0.569005
H346	H	0.649533	0.541257	1.069005
H347	H	0.170720	-0.022247	0.590125
H348	H	0.670720	0.477753	1.090125
H349	H	0.151812	-0.022317	0.672057
H350	H	0.651812	0.477683	1.172057
H351	H	0.130638	0.041193	0.650928
H352	H	0.630638	0.541193	1.150928
H353	H	0.192114	0.009442	0.627458
H354	H	0.692114	0.509442	1.127458
C355	C	0.170466	-0.711468	1.083131
C356	C	0.670466	-0.211468	1.583131
C357	C	0.150846	-0.745259	1.083125
C358	C	0.650846	-0.245259	1.583125
C359	C	0.191789	-0.796286	1.083145
C360	C	0.691789	-0.296286	1.583145
H361	H	0.201596	-0.706748	1.051391
H362	H	0.701596	-0.206748	1.551391
H363	H	0.180412	-0.727884	1.114898
H364	H	0.680412	-0.227884	1.614898
H365	H	0.140908	-0.728846	1.051362
H366	H	0.640908	-0.228846	1.551362
H367	H	0.119722	-0.749995	1.114863
H368	H	0.619722	-0.249995	1.614863
H369	H	0.201735	-0.812703	1.114912
H370	H	0.701735	-0.312703	1.614912
H371	H	0.222916	-0.791561	1.051404
H372	H	0.722916	-0.291561	1.551404
H373	H	0.178481	-0.819221	1.083146
H374	H	0.678481	-0.319221	1.583146
C375	C	0.023766	0.009393	0.396255
C376	C	0.523766	0.509393	0.896255
C377	C	0.061071	-0.037448	0.381658
C378	C	0.561071	0.462552	0.881658
C379	C	0.050993	-0.037557	0.340771
C380	C	0.550993	0.462443	0.840771
H381	H	-0.012457	0.009358	0.409576
H382	H	0.487543	0.509358	0.909576
H383	H	0.027860	0.041128	0.365093
H384	H	0.527860	0.541128	0.865093
H385	H	0.056972	-0.069174	0.412814
H386	H	0.556972	0.430826	0.912814
H387	H	0.097298	-0.037422	0.368328
H388	H	0.597298	0.462578	0.868328
H389	H	0.055087	-0.005822	0.309609
H390	H	0.555087	0.494178	0.809609
H391	H	0.014769	-0.037591	0.354097
H392	H	0.514769	0.462409	0.854097
H393	H	0.076305	-0.069335	0.330859
H394	H	0.576305	0.430665	0.830859
C395	C	0.170080	-0.531487	1.083050
C396	C	0.670080	-0.031487	1.583050
C397	C	0.182526	-0.487465	1.036207
C398	C	0.682526	0.012535	1.536207
C399	C	0.223415	-0.477212	1.036087
C400	C	0.723415	0.022788	1.536087
H401	H	0.157494	-0.522764	1.114769
H402	H	0.657494	-0.022764	1.614769
H403	H	0.201966	-0.563117	1.083014
H404	H	0.701966	-0.063117	1.583014
H405	H	0.150646	-0.455842	1.036247
H406	H	0.650646	0.044158	1.536247
H407	H	0.195121	-0.496177	1.004480
H408	H	0.695121	0.003823	1.504480
H409	H	0.255301	-0.508842	1.036052
H410	H	0.755301	-0.008842	1.536052
H411	H	0.210824	-0.468491	1.067808
H412	H	0.710824	0.031509	1.567808
H413	H	0.231868	-0.447346	1.004302
H414	H	0.731868	0.052654	1.504302
C415	C	0.046382	-0.430775	0.825169
C416	C	0.546382	0.069225	1.325169
C417	C	-0.007035	-0.422762	0.862556
C418	C	0.492965	0.077238	1.362556
C419	C	-0.044411	-0.389838	0.834034
C420	C	0.455589	0.110162	1.334034
H421	H	0.051799	-0.396390	0.802813
H422	H	0.551799	0.103610	1.302813
H423	H	0.051841	-0.448269	0.802823
H424	H	0.551841	0.051731	1.302823
H425	H	-0.012491	-0.405267	0.884893
H426	H	0.487509	0.094733	1.384893
H427	H	-0.012469	-0.457138	0.884913
H428	H	0.487531	0.042862	1.384913
H429	H	-0.038953	-0.407332	0.811688
H430	H	0.461047	0.092668	1.311688
H431	H	-0.038989	-0.355455	0.811679
H432	H	0.461011	0.144545	1.311679
H433	H	-0.080658	-0.384401	0.859397
H434	H	0.419342	0.115599	1.359397
C435	C	-0.054181	-0.419782	1.083185
C436	C	0.445819	0.080218	1.583185
C437	C	-0.034570	-0.385999	1.083215
C438	C	0.465430	0.114001	1.583215
C439	C	-0.075533	-0.334992	1.083257
C440	C	0.424467	0.165008	1.583257
H441	H	-0.064161	-0.403328	1.051440
H442	H	0.435839	0.096672	1.551440
H443	H	-0.085291	-0.424553	1.114946
H444	H	0.414709	0.075447	1.614946
H445	H	-0.003469	-0.381226	1.051457
H446	H	0.496531	0.118774	1.551457
H447	H	-0.024593	-0.402435	1.114958
H448	H	0.475407	0.097565	1.614958
H449	H	-0.106643	-0.339763	1.115018
H450	H	0.393357	0.160237	1.615018
H451	H	-0.085510	-0.318543	1.051511
H452	H	0.414490	0.181457	1.551511
H453	H	-0.062234	-0.312066	1.083282
H454	H	0.437766	0.187934	1.583282
C455	C	-0.087975	-0.531829	0.620479
C456	C	0.412025	-0.031829	1.120479
C457	C	-0.097642	-0.487835	0.633005
C458	C	0.402358	0.012165	1.133005
C459	C	-0.148595	-0.477718	0.674009
C460	C	0.351405	0.022282	1.174009
H461	H	-0.115875	-0.523135	0.607968
H462	H	0.384125	-0.023135	1.107968
H463	H	-0.088075	-0.563505	0.652315
H464	H	0.411925	-0.063505	1.152315
H465	H	-0.097547	-0.456166	0.601176
H466	H	0.402453	0.043834	1.101176
H467	H	-0.069754	-0.496518	0.645525
H468	H	0.430246	0.003482	1.145525
H469	H	-0.148695	-0.509394	0.705845
H470	H	0.351305	-0.009394	1.205845
H471	H	-0.176491	-0.469025	0.661494
H472	H	0.323509	0.030975	1.161494
H473	H	-0.155159	-0.447871	0.682517
H474	H	0.344841	0.052129	1.182517
C475	C	0.202046	-0.568229	0.944401
C476	C	0.702046	-0.068229	1.444401
C477	C	0.255464	-0.576265	0.907016
C478	C	0.755464	-0.076265	1.407016
C479	C	0.292838	-0.609247	0.935540
C480	C	0.792838	-0.109247	1.435540
H481	H	0.196627	-0.550784	0.966765
H482	H	0.696627	-0.050784	1.466765
H483	H	0.196587	-0.602605	0.966739
H484	H	0.696587	-0.102605	1.466739
H485	H	0.260920	-0.541896	0.884687
H486	H	0.760920	-0.041896	1.384687
H487	H	0.260900	-0.593717	0.884651
H488	H	0.760900	-0.093717	1.384651
H489	H	0.287379	-0.643623	0.957878
H490	H	0.787379	-0.143623	1.457878
H491	H	0.287414	-0.591798	0.957904
H492	H	0.787414	-0.091798	1.457904
H493	H	0.329086	-0.614708	0.910179
H494	H	0.829086	-0.114708	1.410179
H495	H	0.226428	-0.524588	0.832752
H496	H	0.726428	-0.024588	1.332752
C497	C	0.201750	-0.568108	0.505472
C498	C	0.701750	-0.068108	1.005472
C499	C	0.255188	-0.576127	0.497405
C500	C	0.755188	-0.076127	0.997405
C501	C	0.292521	-0.609040	0.464418
C502	C	0.792521	-0.109040	0.964418
H503	H	0.196330	-0.602492	0.522923
H504	H	0.696330	-0.102492	1.022923
H505	H	0.196252	-0.550602	0.471108
H506	H	0.696252	-0.050602	0.971108
H507	H	0.260684	-0.593634	0.531763
H508	H	0.760684	-0.093634	1.031763
H509	H	0.260626	-0.541753	0.479947
H510	H	0.760626	-0.041753	0.979947
H511	H	0.287023	-0.591534	0.430054
H512	H	0.787023	-0.091534	0.930054
H513	H	0.287095	-0.643421	0.481873
H514	H	0.787095	-0.143421	0.981873
H515	H	0.328782	-0.614481	0.458937
H516	H	0.828782	-0.114481	0.958937
C517	C	-0.228656	-0.660186	0.559209
C518	C	0.271344	-0.160186	1.059209
C519	C	-0.261547	-0.612315	0.572880
C520	C	0.238453	-0.112315	1.072880
C521	C	-0.290317	-0.626001	0.629207
C522	C	0.209683	-0.126001	1.129207
H523	H	-0.251065	-0.679575	0.568616
H524	H	0.248935	-0.179575	1.068616
H525	H	-0.203449	-0.682547	0.578737
H526	H	0.296551	-0.182547	1.078737
H527	H	-0.286751	-0.589963	0.553358
H528	H	0.213249	-0.089963	1.053358
H529	H	-0.239152	-0.592920	0.563486
H530	H	0.260848	-0.092920	1.063486
H531	H	-0.265110	-0.648362	0.648736
H532	H	0.234890	-0.148362	1.148736
H533	H	-0.312723	-0.645391	0.638609
H534	H	0.187277	-0.145391	1.138609
H535	H	-0.312633	-0.593524	0.638491
H536	H	0.187367	-0.093524	1.138491
H537	H	0.632798	-0.464146	0.375944
H538	H	1.132798	0.035854	0.875944
H539	H	0.632941	-0.464583	0.539193
H540	H	1.132941	0.035417	1.039193
H541	H	0.021776	-0.474310	0.599390
H542	H	0.521776	0.025690	1.099390
H543	H	0.189596	0.009891	0.406765
H544	H	0.689596	0.509891	0.906765
C545	C	0.192751	-0.248623	0.496586
C546	C	0.692751	0.251377	0.996586
C547	C	0.243358	-0.281511	0.504780
C548	C	0.743358	0.218489	1.004780
C549	C	0.276396	-0.310191	0.467546
C550	C	0.776396	0.189809	0.967546
H551	H	0.175325	-0.271030	0.502067
H552	H	0.675325	0.228970	1.002067
H553	H	0.198269	-0.223358	0.460287
H554	H	0.698269	0.276642	0.960287
H555	H	0.237839	-0.306773	0.541070
H556	H	0.737839	0.193227	1.041070
H557	H	0.260799	-0.259118	0.499295
H558	H	0.760799	0.240882	0.999295
H559	H	0.281913	-0.284926	0.431247
H560	H	0.781913	0.215074	0.931247
H561	H	0.258965	-0.332594	0.473030
H562	H	0.758965	0.167406	0.973030
H563	H	0.310737	-0.332504	0.473097
H564	H	0.810737	0.167496	0.973097
H565	H	0.486634	-0.600858	0.588843
H566	H	0.986634	-0.100858	1.088843
C567	C	0.374994	-0.576284	0.630900
C568	C	0.874994	-0.076284	1.130900
C569	C	0.412369	-0.629336	0.633901
C570	C	0.912369	-0.129336	1.133901
C571	C	0.383838	-0.666251	0.661103
C572	C	0.883838	-0.166251	1.161103
H573	H	0.352654	-0.574897	0.666830
H574	H	0.852654	-0.074897	1.166830
H575	H	0.352632	-0.566726	0.611380
H576	H	0.852632	-0.066726	1.111380
H577	H	0.434722	-0.638891	0.653422
H578	H	0.934722	-0.138891	1.153422
H579	H	0.434711	-0.630740	0.597980
H580	H	0.934711	-0.130740	1.097980
H581	H	0.361476	-0.656693	0.641582
H582	H	0.861476	-0.156693	1.141582
H583	H	0.361499	-0.664859	0.697030
H584	H	0.861499	-0.164859	1.197030
H585	H	0.409193	-0.702250	0.663137
H586	H	0.909193	-0.202250	1.163137
H587	H	0.633132	-0.666701	0.639790
H588	H	1.133132	-0.166701	1.139790
H589	H	0.486593	-0.432619	0.524694
H590	H	0.986593	0.067381	1.024694
H591	H	0.382624	-0.397967	0.559385
H592	H	0.882624	0.102033	1.059385
H593	H	0.149018	-0.136838	0.472047
H594	H	0.649018	0.363162	0.972047
C595	C	0.020573	-0.749253	0.471048
C596	C	0.520573	-0.249253	0.971048
C597	C	0.053450	-0.777814	0.504073
C598	C	0.553450	-0.277814	1.004073
C599	C	0.067350	-0.834186	0.517968
C600	C	0.567350	-0.334186	1.017968
H601	H	-0.011806	-0.758680	0.490457
H602	H	0.488194	-0.258680	0.990457
H603	H	0.040089	-0.758694	0.438657
H604	H	0.540089	-0.258694	0.938657
H605	H	0.033933	-0.768378	0.536459
H606	H	0.533933	-0.268378	1.036459
H607	H	0.085835	-0.768404	0.484674
H608	H	0.585835	-0.268404	0.984674
H609	H	0.086866	-0.843627	0.485577
H610	H	0.586866	-0.343627	0.985577
H611	H	0.034968	-0.843607	0.537376
H612	H	0.534968	-0.343607	1.037376
H613	H	0.089662	-0.853572	0.540373
H614	H	0.589662	-0.353572	1.040373
C615	C	0.055268	-0.129197	0.652061
C616	C	0.555268	0.370803	1.152061
C617	C	0.047266	-0.166571	0.705490
C618	C	0.547266	0.333429	1.205490
C619	C	0.014314	-0.138032	0.742847
C620	C	0.514314	0.361968	1.242847
H621	H	0.072720	-0.106831	0.646617
H622	H	0.572720	0.393169	1.146617
H623	H	0.020884	-0.106855	0.646608
H624	H	0.520884	0.393145	1.146608
H625	H	0.081644	-0.188902	0.710940
H626	H	0.581644	0.311098	1.210940
H627	H	0.029808	-0.188937	0.710951
H628	H	0.529808	0.311063	1.210951
H629	H	-0.020070	-0.115690	0.737394
H630	H	0.479930	0.384310	1.237394
H631	H	0.031769	-0.115667	0.737398
H632	H	0.531769	0.384333	1.237398
H633	H	0.008876	-0.163385	0.779102
H634	H	0.508876	0.336615	1.279102
H635	H	-0.033030	-0.529506	0.229442
H636	H	0.466970	-0.029506	0.729442
C637	C	0.095303	-0.248690	0.691772
C638	C	0.595303	0.251310	1.191772
C639	C	0.143184	-0.281580	0.705425
C640	C	0.643184	0.218420	1.205425
C641	C	0.129522	-0.310304	0.761763
C642	C	0.629522	0.189696	1.261763
H643	H	0.072981	-0.223468	0.711273
H644	H	0.572981	0.276532	1.211273
H645	H	0.075884	-0.271096	0.701225
H646	H	0.575884	0.228904	1.201225
H647	H	0.162595	-0.259176	0.695978
H648	H	0.662595	0.240824	1.195978
H649	H	0.165512	-0.306812	0.685938
H650	H	0.665512	0.193188	1.185938
H651	H	0.110103	-0.332710	0.771216
H652	H	0.610103	0.167290	1.271216
H653	H	0.107200	-0.285078	0.781260
H654	H	0.607200	0.214922	1.281260
H655	H	0.162007	-0.332627	0.771033
H656	H	0.662007	0.167373	1.271033
H657	H	-0.067855	-0.564093	0.333408
H658	H	0.432145	-0.064093	0.833408
H659	H	0.051792	-0.699362	0.229554
H660	H	0.551792	-0.199362	0.729554
H661	H	-0.220518	-0.571693	0.374008
H662	H	0.279482	-0.071693	0.874008
C663	C	0.020639	-0.749250	0.341285
C664	C	0.520639	-0.249250	0.841285
C665	C	0.001170	-0.772800	0.327285
C666	C	0.501170	-0.272800	0.827285
C667	C	0.014863	-0.829155	0.355944
C668	C	0.514863	-0.329155	0.855944
H669	H	0.059292	-0.765462	0.331989
H670	H	0.559292	-0.265462	0.831989
H671	H	0.004469	-0.755291	0.379523
H672	H	0.504469	-0.255291	0.879523
H673	H	0.017341	-0.766763	0.289056
H674	H	0.517341	-0.266763	0.789056
H675	H	-0.037483	-0.756604	0.336582
H676	H	0.462517	-0.256604	0.836582
H677	H	-0.001306	-0.835195	0.394181
H678	H	0.498694	-0.335195	0.894181
H679	H	0.053517	-0.845361	0.346645
H680	H	0.553517	-0.345361	0.846645
H681	H	0.001651	-0.845140	0.346452
H682	H	0.501651	-0.345140	0.846452
C683	C	-0.037109	-0.514179	0.413105
C684	C	0.462891	-0.014179	0.913105
C685	C	-0.069952	-0.485618	0.380046
C686	C	0.430048	0.014382	0.880046
C687	C	-0.083772	-0.429246	0.366072
C688	C	0.416228	0.070754	0.866072
H689	H	-0.056625	-0.504670	0.445450
H690	H	0.443375	-0.004670	0.945450
H691	H	-0.004684	-0.504820	0.393695
H692	H	0.495316	-0.004820	0.893695
H693	H	-0.102372	-0.494973	0.399456
H694	H	0.397628	0.005027	0.899456
H695	H	-0.050447	-0.495110	0.347694
H696	H	0.449553	0.004890	0.847694
H697	H	-0.051348	-0.419888	0.346662
H698	H	0.448652	0.080112	0.846662
H699	H	-0.103286	-0.419743	0.398419
H700	H	0.396714	0.080257	0.898419
H701	H	-0.106054	-0.409861	0.343636
H702	H	0.393946	0.090139	0.843636
H703	H	-0.067926	-0.564092	0.382165
H704	H	0.432074	-0.064092	0.882165
H705	H	0.058518	-0.740243	0.392731
H706	H	0.558518	-0.240243	0.892731
C707	C	0.108279	-0.851990	0.425149
C708	C	0.608279	-0.351990	0.925149
C709	C	0.137672	-0.838103	0.368964
C710	C	0.637672	-0.338103	0.868964
C711	C	0.193594	-0.866791	0.360806
C712	C	0.693594	-0.366791	0.860806
H713	H	0.120179	-0.842640	0.442468
H714	H	0.620179	-0.342640	0.942468
H715	H	0.114377	-0.890226	0.440401
H716	H	0.614377	-0.390226	0.940401
H717	H	0.131578	-0.799876	0.353719
H718	H	0.631578	-0.299876	0.853719
H719	H	0.125789	-0.847454	0.351633
H720	H	0.625789	-0.347454	0.851633
H721	H	0.199691	-0.905027	0.376059
H722	H	0.699691	-0.405027	0.876059
H723	H	0.205488	-0.857439	0.378129
H724	H	0.705488	-0.357439	0.878129
H725	H	0.213543	-0.857376	0.322685
H726	H	0.713543	-0.357376	0.822685
C727	C	-0.085240	-0.851683	0.498632
C728	C	0.414760	-0.351683	0.998632
C729	C	-0.111854	-0.837716	0.463734
C730	C	0.388146	-0.337716	0.963734
C731	C	-0.148802	-0.866199	0.490880
C732	C	0.351198	-0.366199	0.990880
H733	H	-0.065984	-0.889943	0.508911
H734	H	0.434016	-0.389943	1.008911
H735	H	-0.111516	-0.842208	0.530438
H736	H	0.388484	-0.342208	1.030438
H737	H	-0.085582	-0.847194	0.431938
H738	H	0.414418	-0.347194	0.931938
H739	H	-0.131121	-0.799460	0.453452
H740	H	0.368879	-0.299460	0.953452
H741	H	-0.175078	-0.856724	0.522686
H742	H	0.324922	-0.356724	1.022686
H743	H	-0.129541	-0.904458	0.501158
H744	H	0.370459	-0.404458	1.001158
H745	H	-0.166867	-0.856722	0.467207
H746	H	0.333133	-0.356722	0.967207
C747	C	-0.124871	-0.732168	0.458639
C748	C	0.375129	-0.232168	0.958639
C749	C	-0.132450	-0.699261	0.407764
C750	C	0.367550	-0.199261	0.907764
C751	C	-0.188319	-0.670458	0.415660
C752	C	0.311681	-0.170458	0.915660
H753	H	-0.144147	-0.757342	0.477525
H754	H	0.355853	-0.257342	0.977525
H755	H	-0.138349	-0.709767	0.479614
H756	H	0.361651	-0.209767	0.979614
H757	H	-0.118979	-0.721661	0.386798
H758	H	0.381021	-0.221661	0.886798
H759	H	-0.113187	-0.674077	0.388871
H760	H	0.386813	-0.174077	0.888871
H761	H	-0.201797	-0.648056	0.436634
H762	H	0.298203	-0.148056	0.936634
H763	H	-0.207591	-0.695636	0.434546
H764	H	0.292409	-0.195636	0.934546
H765	H	-0.193468	-0.648124	0.381143
H766	H	0.306532	-0.148124	0.881143
C767	C	-0.108768	-0.602804	0.324245
C768	C	0.391232	-0.102804	0.824245
C769	C	-0.122654	-0.622277	0.300597
C770	C	0.377346	-0.122277	0.800597
C771	C	-0.093938	-0.608564	0.244258
C772	C	0.406062	-0.108564	0.744258
H773	H	-0.118093	-0.564146	0.308061
H774	H	0.381907	-0.064146	0.808061
H775	H	-0.070540	-0.618962	0.318255
H776	H	0.429460	-0.118962	0.818255
H777	H	-0.160874	-0.606118	0.306583
H778	H	0.339126	-0.106118	0.806583
H779	H	-0.113327	-0.660935	0.316765
H780	H	0.386673	-0.160935	0.816765
H781	H	-0.055710	-0.624722	0.238268
H782	H	0.444290	-0.124722	0.738268
H783	H	-0.103266	-0.569905	0.228079
H784	H	0.396734	-0.069905	0.728079
H785	H	-0.103352	-0.621779	0.228206
H786	H	0.396648	-0.121779	0.728206
C787	C	-0.109165	-0.700344	0.519646
C788	C	0.390835	-0.200344	1.019646
C789	C	-0.123175	-0.748016	0.552511
C790	C	0.376825	-0.248016	1.052511
C791	C	-0.094681	-0.781061	0.589911
C792	C	0.405319	-0.281061	1.089911
H793	H	-0.070909	-0.709850	0.500334
H794	H	0.429091	-0.209850	1.000334
H795	H	-0.118597	-0.680917	0.542043
H796	H	0.381403	-0.180917	1.042043
H797	H	-0.113740	-0.767440	0.530117
H798	H	0.386260	-0.267440	1.030117
H799	H	-0.161426	-0.738527	0.571835
H800	H	0.338574	-0.238527	1.071835
H801	H	-0.104113	-0.761633	0.612309
H802	H	0.395887	-0.261633	1.112309
H803	H	-0.056426	-0.790562	0.570594
H804	H	0.443574	-0.290562	1.070594
H805	H	-0.104187	-0.813407	0.612218
H806	H	0.395813	-0.313407	1.112218
C807	C	0.023791	-0.419643	0.396178
C808	C	0.523791	0.080357	0.896178
C809	C	-0.029649	-0.385967	0.415947
C810	C	0.470351	0.114033	0.915947
C811	C	-0.039903	-0.334919	0.375084
C812	C	0.460097	0.165081	0.875084
H813	H	0.049019	-0.403134	0.386166
H814	H	0.549019	0.096866	0.886166
H815	H	0.027848	-0.424369	0.365062
H816	H	0.527848	0.075631	0.865062
H817	H	-0.033700	-0.381239	0.447054
H818	H	0.466300	0.118761	0.947054
H819	H	-0.054888	-0.402458	0.425955
H820	H	0.445112	0.097542	0.925955
H821	H	-0.035847	-0.339645	0.343967
H822	H	0.464153	0.160355	0.843967
H823	H	-0.014672	-0.318415	0.365075
H824	H	0.485328	0.181585	0.865075
H825	H	-0.076164	-0.312065	0.388490
H826	H	0.423836	0.187935	0.888490
H827	H	0.051334	-0.699339	0.502037
H828	H	0.551334	-0.199339	1.002037
