data_functionalizedCrystal
_audit_creation_method	'MofGen! by Chris Wilmer'
_symmetry_space_group_name_H-M	'P1'
_symmetry_Int_Tables_number	1
_symmetry_cell_setting	triclinic
loop_
_symmetry_equiv_pos_as_xyz
  x,y,z
_cell_length_a	23.196402
_cell_length_b	18.878441
_cell_length_c	23.196401
_cell_angle_alpha	59.998940
_cell_angle_beta	90.003708
_cell_angle_gamma	59.997012
loop_
_atom_site_label
_atom_site_type_symbol
_atom_site_fract_x
_atom_site_fract_y
_atom_site_fract_z
Zr1	Zr	0.555351	0.775344	-0.075658
O2	O	0.463281	0.923144	-0.167712
O3	O	0.583577	0.627560	-0.047440
O4	O	0.583553	0.775363	-0.167717
O5	O	0.463322	0.775321	0.047444
O6	O	0.678425	0.775360	-0.167719
O7	O	0.463304	0.775341	-0.047435
O8	O	0.678468	0.510968	0.047434
O9	O	0.463279	1.039713	-0.167710
O10	O	0.666415	0.688338	-0.035405
O11	O	0.595627	0.688325	0.035404
O12	O	0.595599	0.862344	-0.106207
O13	O	0.524810	0.862331	-0.035399
Zr14	Zr	0.706689	0.775307	0.075660
Zr15	Zr	0.706661	0.775339	-0.075661
Zr16	Zr	0.555379	0.775312	0.075663
Zr17	Zr	0.555349	0.961259	-0.075654
Zr18	Zr	0.706691	0.589393	0.075656
O19	O	0.678463	0.923091	0.047442
O20	O	0.678424	0.923137	-0.167716
O21	O	0.463320	0.923098	0.047447
O22	O	0.798760	0.627508	0.167714
O23	O	0.798720	0.627553	-0.047445
O24	O	0.583617	0.627515	0.167718
O25	O	0.798718	0.775330	-0.047442
O26	O	0.678487	0.775289	0.167719
O27	O	0.583615	0.775292	0.167721
O28	O	0.798736	0.775310	0.047437
O29	O	0.583550	1.039709	-0.167712
O30	O	0.678490	0.510942	0.167714
O31	O	0.798761	0.510938	0.167712
O32	O	0.798739	0.510964	0.047432
O33	O	0.463302	1.039688	-0.047430
O34	O	0.583573	1.039684	-0.047432
O35	O	0.666442	0.688308	0.106209
O36	O	0.737230	0.688321	0.035401
O37	O	0.666414	0.862326	-0.035402
O38	O	0.595625	0.862314	0.035407
C39	C	0.631023	0.542775	-0.000003
C40	C	0.631023	0.463849	-0.000005
C41	C	0.667973	0.426777	-0.036967
C42	C	0.667975	0.352612	-0.036962
C43	C	0.631024	0.315527	0.000002
C44	C	0.594073	0.352603	0.036969
C45	C	0.594075	0.426761	0.036967
C46	C	0.594071	0.198036	0.036968
C47	C	0.594067	0.123875	0.036969
C48	C	0.667971	0.123888	-0.036961
C49	C	0.667973	0.198046	-0.036962
C50	C	0.631021	0.235118	0.000004
C51	C	0.441755	0.775332	0.000005
C52	C	0.377520	0.775334	0.000006
C53	C	0.347338	0.775352	-0.052266
C54	C	0.286987	0.775343	-0.052266
C55	C	0.256812	0.775336	0.000001
C56	C	0.287003	0.775312	0.052283
C57	C	0.347357	0.775311	0.052286
C58	C	0.137439	0.833706	0.016290
C59	C	0.077084	0.833713	0.016282
C60	C	0.070661	0.775335	-0.000002
C61	C	0.124597	0.716962	-0.016295
C62	C	0.184951	0.716961	-0.016292
C63	C	0.191368	0.775336	0.000005
C64	C	-0.024960	0.775342	-0.052278
C65	C	-0.085309	0.775327	-0.052273
C66	C	-0.085296	0.775305	0.052274
C67	C	-0.024943	0.775311	0.052272
C68	C	0.005219	0.775334	-0.000008
C69	C	0.820285	0.775320	-0.000003
C70	C	0.884520	0.775318	-0.000004
C71	C	0.630985	0.775366	-0.189278
C72	C	0.630973	0.775379	-0.253518
C73	C	0.631018	1.007876	0.000005
C74	C	0.631017	1.086802	0.000007
C75	C	0.683241	0.775379	-0.283682
C76	C	0.683256	0.775359	-0.344029
C77	C	0.630994	0.775359	-0.374217
C78	C	0.578722	0.775353	-0.344043
C79	C	0.578712	0.775363	-0.283693
C80	C	0.567209	0.833721	-0.493596
C81	C	0.567219	0.833717	-0.553947
C82	C	0.631025	0.775323	-0.560353
C83	C	0.694825	0.716947	-0.506406
C84	C	0.694815	0.716957	-0.446057
C85	C	0.630999	0.775348	-0.439656
C86	C	0.683313	0.775300	-0.655952
C87	C	0.683330	0.775274	-0.716297
C88	C	0.578789	0.775278	-0.716314
C89	C	0.578779	0.775294	-0.655966
C90	C	0.631041	0.775310	-0.625790
C91	C	0.631055	0.775286	0.189280
C92	C	0.631067	0.775272	0.253520
C93	C	0.820288	0.542769	-0.000007
C94	C	0.884524	0.463841	-0.000010
C95	C	0.631058	0.542735	0.189276
C96	C	0.631070	0.463796	0.253514
C97	C	0.820323	0.542729	0.189272
C98	C	0.884570	0.463788	0.253509
C99	C	0.441717	1.007922	-0.189270
C100	C	0.377470	1.086864	-0.253507
C101	C	0.441752	1.007882	0.000009
C102	C	0.377517	1.086810	0.000012
C103	C	0.630983	1.007916	-0.189274
C104	C	0.630970	1.086856	-0.253512
C105	C	0.877725	0.426785	-0.036978
C106	C	0.938075	0.352634	-0.036995
C107	C	1.005224	0.315536	-0.000039
C108	C	1.012021	0.352600	0.036929
C109	C	0.951672	0.426754	0.036941
C110	C	0.668041	0.426716	0.320647
C111	C	0.668050	0.352555	0.381011
C112	C	0.631092	0.315469	0.374241
C113	C	0.594117	0.352556	0.307101
C114	C	0.594104	0.426721	0.246738
C115	C	0.951699	0.426723	0.246713
C116	C	1.012072	0.352560	0.307065
C117	C	1.005315	0.315458	0.374211
C118	C	0.938180	0.352530	0.381004
C119	C	0.877808	0.426697	0.320654
C120	C	0.310341	1.123938	-0.246711
C121	C	0.249968	1.198124	-0.307063
C122	C	0.256725	1.235230	-0.374209
C123	C	0.323861	1.198153	-0.381002
C124	C	0.384232	1.123973	-0.320652
C125	C	0.384316	1.123874	0.036973
C126	C	0.323965	1.198045	0.036974
C127	C	0.256816	1.235146	0.000016
C128	C	0.250019	1.198079	-0.036949
C129	C	0.310369	1.123914	-0.036953
C130	C	0.667935	1.123918	-0.246719
C131	C	0.667937	1.198079	-0.307072
C132	C	0.630969	1.235183	-0.374217
C133	C	0.594003	1.198114	-0.381008
C134	C	0.594006	1.123948	-0.320656
H135	H	0.698063	0.322427	-0.067058
H136	H	0.563902	1.093781	-0.326197
O137	O	0.331138	1.238178	-0.453429
H138	H	0.360436	1.271976	-0.459582
O139	O	0.707908	0.466703	0.327961
H140	H	0.670591	0.548517	0.302223
O141	O	0.707826	0.238047	-0.076832
H142	H	0.670501	0.319859	-0.117685
H143	H	0.262408	0.775358	-0.094835
O144	O	1.070436	0.235454	0.439299
H145	H	1.070405	0.167873	0.471169
O146	O	0.707825	0.466775	-0.076842
H147	H	0.701613	0.524580	-0.070642
H148	H	0.698038	1.228253	-0.301528
O149	O	0.456636	1.083974	-0.327984
H150	H	0.451184	1.122235	-0.384815
O151	O	0.303038	1.083928	-0.174296
H152	H	0.356291	1.026108	-0.133464
O153	O	0.930736	0.312659	-0.076863
H154	H	0.873904	0.350904	-0.102544
O155	O	0.554151	1.238139	-0.453440
H156	H	0.575519	1.175893	-0.459588
O157	O	0.554219	0.083863	0.076838
H158	H	0.591546	0.002046	0.117676
O159	O	0.177562	1.238089	-0.299728
H160	H	0.183012	1.199802	-0.242897
O161	O	1.070316	0.235553	-0.000052
H162	H	1.070275	0.167979	0.023077
H163	H	0.438986	1.093672	0.067073
H164	H	0.142685	0.881183	0.029609
O165	O	0.630958	1.315189	-0.439310
H166	H	0.662868	1.334731	-0.423299
H167	H	0.698058	0.093699	-0.067059
O168	O	0.763650	0.653806	-0.387850
H169	H	0.762681	0.598998	-0.338101
O170	O	0.554212	0.238031	0.076833
H171	H	0.528509	0.199796	0.102529
H172	H	0.207681	1.295535	0.000025
O173	O	0.554210	0.312618	0.076832
H174	H	0.591523	0.230802	0.117680
O175	O	0.805304	0.466800	-0.076847
H176	H	0.810726	0.428576	-0.102560
O177	O	0.959008	0.466706	0.076828
H178	H	1.015841	0.428436	0.102527
O179	O	1.084448	0.312575	0.076794
H180	H	1.125264	0.254777	0.070578
O181	O	0.707945	0.312545	0.453422
H182	H	0.733653	0.350780	0.447982
O183	O	0.631111	0.235472	0.439349
H184	H	0.654237	0.167898	0.439309
H185	H	0.564027	0.322350	0.301599
H186	H	0.746782	0.669397	-0.511618
H187	H	0.329513	1.228213	0.067078
O188	O	0.191607	1.315249	-0.439300
H189	H	0.143795	1.334788	-0.423287
O190	O	0.018953	0.896625	0.033909
H191	H	-0.002034	0.976657	-0.004538
O192	O	0.303033	1.083934	-0.076816
H193	H	0.273729	1.050150	-0.055447
H194	H	0.725796	0.775389	-0.259113
H195	H	0.725820	0.775359	-0.368593
O196	O	0.554341	0.466573	0.174330
H197	H	0.528692	0.428264	0.179771
O198	O	0.958996	0.466744	0.174295
H199	H	1.015822	0.428512	0.179721
O200	O	1.084478	0.312571	0.299730
H201	H	1.079028	0.350819	0.242899
O202	O	0.177591	1.238103	-0.076811
H203	H	0.148340	1.223861	-0.039488
O204	O	0.554219	0.466758	0.076828
H205	H	0.528517	0.428521	0.102526
H206	H	0.228864	0.669430	-0.029556
H207	H	0.698038	1.093719	-0.192052
H208	H	0.823151	0.456866	0.326196
O209	O	0.379875	0.775368	-0.108647
H210	H	0.348748	0.775372	-0.144993
O211	O	0.930895	0.312496	0.453428
H212	H	0.984157	0.254685	0.494245
H213	H	0.119370	0.669429	-0.029560
O214	O	0.739686	0.775284	-0.623377
H215	H	0.737130	0.843184	-0.662588
O216	O	0.007587	0.775350	-0.108654
H217	H	-0.023535	0.775343	-0.144997
O218	O	0.739700	0.775290	-0.748842
H219	H	0.776030	0.775318	-0.717724
O220	O	-0.117868	0.775355	-0.108661
H221	H	-0.078647	0.707457	-0.106105
O222	O	-0.117833	0.775299	0.108651
H223	H	-0.164874	0.775309	0.099866
O224	O	0.007614	0.775297	0.108649
H225	H	-0.023508	0.775296	0.144993
H226	H	0.536238	0.775272	-0.740891
O227	O	0.522398	0.775311	-0.623432
H228	H	0.486054	0.775317	-0.654564
H229	H	0.371932	0.775296	0.094854
O230	O	0.254466	0.775301	0.108662
H231	H	0.199331	0.843221	0.083532
O232	O	0.498412	0.896691	-0.612137
H233	H	0.454042	0.937287	-0.597541
H234	H	0.536170	0.775351	-0.368624
O235	O	0.498390	0.896699	-0.486681
H236	H	0.471745	0.976723	-0.530826
O237	O	0.522331	0.775375	-0.251158
H238	H	0.485988	0.775376	-0.282287
