data_functionalizedCrystal
_audit_creation_method	'MofGen! by Chris Wilmer'
_symmetry_space_group_name_H-M	'P1'
_symmetry_Int_Tables_number	1
_symmetry_cell_setting	triclinic
loop_
_symmetry_equiv_pos_as_xyz
  x,y,z
_cell_length_a	12.594517
_cell_length_b	12.594516
_cell_length_c	16.120297
_cell_angle_alpha	92.877768
_cell_angle_beta	92.877961
_cell_angle_gamma	90.015853
loop_
_atom_site_label
_atom_site_type_symbol
_atom_site_fract_x
_atom_site_fract_y
_atom_site_fract_z
Zn1	Zn	1.596739	-0.454293	-0.471425
Zn2	Zn	1.605657	-0.623262	-0.332026
Zn3	Zn	1.427770	-0.445297	-0.332027
Zn4	Zn	1.418727	-0.632227	-0.471392
O5	O	1.512223	-0.538770	-0.401717
O6	O	1.746866	-0.476720	-0.452947
O7	O	1.589576	-0.592137	-0.215363
O8	O	1.450236	-0.297546	-0.350533
O9	O	1.753418	-0.600861	-0.350531
O10	O	1.574377	-0.304155	-0.452947
O11	O	1.458883	-0.461388	-0.215364
O12	O	1.277625	-0.470081	-0.350501
O13	O	1.434824	-0.616141	-0.588059
O14	O	1.270981	-0.607418	-0.452891
O15	O	1.565608	-0.485414	-0.588084
O16	O	1.580808	-0.773396	-0.350499
O17	O	1.443471	-0.779983	-0.452890
C18	C	1.235684	-0.538747	-0.401693
C19	C	1.117377	-0.538764	-0.401702
C20	C	1.051700	-0.463976	-0.346118
C21	C	0.982217	-0.559735	-0.325615
C22	C	0.976061	-0.443054	-0.422219
C23	C	1.049455	-0.634571	-0.381159
C24	C	1.043303	-0.517827	-0.477799
C25	C	0.973850	-0.613654	-0.457325
C26	C	1.512154	-0.815310	-0.401709
C27	C	1.512220	-0.933617	-0.401734
C28	C	1.437518	-1.006489	-0.457385
C29	C	1.416511	-1.072420	-0.381312
C30	C	1.533323	-1.078486	-0.477819
C31	C	1.491164	-0.997988	-0.325621
C32	C	1.608018	-1.004050	-0.422179
C33	C	1.587051	-1.069946	-0.346054
C34	C	1.789842	-0.538794	-0.401742
C35	C	1.908147	-0.538804	-0.401753
C36	C	1.498213	-0.552781	-0.619167
C37	C	1.492242	-0.558751	-0.711831
C38	C	1.512320	-0.261151	-0.401744
C39	C	1.512362	-0.142846	-0.401755
C40	C	1.481303	-0.569629	-0.881489
C41	C	1.543353	-0.507592	-0.922798
C42	C	1.537266	-0.513644	-1.017201
C43	C	1.487388	-0.563578	-0.787077
C44	C	1.526240	-0.524737	-0.185114
C45	C	1.532416	-0.518466	-0.092450
H46	H	1.085769	-0.400786	-0.299055
Cl47	Cl	0.940538	-0.587117	-0.226294
Cl48	Cl	1.463551	-0.943849	-0.226262
H49	H	1.423615	-0.627281	-0.917021
Cl50	Cl	1.098960	-0.759593	-0.354283
H51	H	0.939979	-0.676986	-0.504352
H52	H	1.601045	-0.449935	-0.887263
Cl53	Cl	1.291528	-1.118850	-0.354618
H54	H	1.551115	-1.113683	-0.542155
H55	H	1.688945	-0.973957	-0.439491
H56	H	1.070323	-0.500062	-0.542111
H57	H	0.943813	-0.362105	-0.439523
Cl58	Cl	1.339830	-0.963275	-0.529941
Cl59	Cl	1.684687	-1.112844	-0.273327
