data_functionalizedCrystal
_audit_creation_method	'MofGen! by Chris Wilmer'
_symmetry_space_group_name_H-M	'P1'
_symmetry_Int_Tables_number	1
_symmetry_cell_setting	triclinic
loop_
_symmetry_equiv_pos_as_xyz
  x,y,z
_cell_length_a	21.395362
_cell_length_b	13.031981
_cell_length_c	21.395356
_cell_angle_alpha	82.790965
_cell_angle_beta	89.957023
_cell_angle_gamma	97.204883
loop_
_atom_site_label
_atom_site_type_symbol
_atom_site_fract_x
_atom_site_fract_y
_atom_site_fract_z
Zn1	Zn	0.926276	-0.415708	-0.322907
Zn2	Zn	0.912902	-0.590500	-0.204810
Zn3	Zn	0.821486	-0.415784	-0.218103
Zn4	Zn	0.808183	-0.590494	-0.309515
O5	O	0.867212	-0.503122	-0.263834
O6	O	1.012182	-0.438865	-0.307283
O7	O	0.900747	-0.567359	-0.118893
O8	O	0.846551	-0.269506	-0.243173
O9	O	1.002356	-0.567284	-0.220517
O10	O	0.923540	-0.269450	-0.320172
O11	O	0.833584	-0.438995	-0.128659
O12	O	0.732041	-0.438989	-0.230187
O13	O	0.823877	-0.567273	-0.398972
O14	O	0.722267	-0.567348	-0.297347
O15	O	0.910639	-0.438859	-0.408811
O16	O	0.887846	-0.736768	-0.207532
O17	O	0.810909	-0.736763	-0.284458
C18	C	0.704420	-0.503177	-0.263757
C19	C	0.634775	-0.503226	-0.263737
C20	C	0.846500	-0.774691	-0.243113
C21	C	0.837697	-0.890870	-0.234269
C22	C	0.596982	-0.570151	-0.298641
C23	C	0.531548	-0.570125	-0.298670
C24	C	0.503910	-0.503185	-0.263785
C25	C	0.541711	-0.436248	-0.228879
C26	C	0.607144	-0.436268	-0.228855
C27	C	0.400824	-0.494780	-0.208020
C28	C	0.335392	-0.494767	-0.208042
C29	C	0.302094	-0.503117	-0.263859
C30	C	0.334234	-0.511502	-0.319654
C31	C	0.399667	-0.511522	-0.319630
C32	C	0.432959	-0.503156	-0.263807
C33	C	0.193350	-0.570018	-0.298798
C34	C	0.127916	-0.569985	-0.298830
C35	C	0.138080	-0.436113	-0.229032
C36	C	0.203513	-0.436140	-0.229007
C37	C	0.231144	-0.503098	-0.263888
C38	C	0.871839	-0.942554	-0.268462
C39	C	0.862742	-1.062631	-0.259322
C40	C	1.030639	-0.503067	-0.263911
C41	C	1.100282	-0.503043	-0.263944
C42	C	0.867266	-0.503057	-0.427262
C43	C	0.867289	-0.503029	-0.496905
C44	C	0.888021	-0.230492	-0.284649
C45	C	0.896889	-0.114313	-0.293520
C46	C	0.832329	-0.436183	-0.534694
C47	C	0.832328	-0.436163	-0.600131
C48	C	0.867300	-0.502979	-0.627778
C49	C	0.902262	-0.569839	-0.589980
C50	C	0.902256	-0.569864	-0.524544
C51	C	0.923129	-0.511171	-0.730859
C52	C	0.923136	-0.511139	-0.796294
C53	C	0.867315	-0.502909	-0.829604
C54	C	0.811487	-0.494689	-0.797472
C55	C	0.811482	-0.494714	-0.732036
C56	C	0.867309	-0.502960	-0.698731
C57	C	0.832351	-0.436038	-0.938347
C58	C	0.832349	-0.436026	-1.003785
C59	C	0.902289	-0.569696	-0.993632
C60	C	0.902285	-0.569713	-0.928196
C61	C	0.867318	-0.502879	-0.900557
C62	C	0.867199	-0.503111	-0.101047
C63	C	0.867320	-0.502844	-0.031426
H64	H	0.619474	-0.624672	-0.327045
H65	H	0.930728	-0.624297	-0.493776
F66	F	0.752074	-0.485925	-0.832917
H67	H	0.307124	-0.518299	-0.365105
H68	H	0.968590	-0.517864	-0.703744
F69	F	0.943903	-1.055968	-0.340631
F70	F	0.918845	-0.884203	-0.315575
H71	H	0.803878	-0.381618	-0.915843
F72	F	0.790682	-0.949221	-0.187165
F73	F	0.815724	-1.120978	-0.212215
F74	F	0.222760	-0.641274	-0.335925
F75	F	0.647368	-0.365033	-0.191705
F76	F	0.795110	-0.365055	-0.505284
H77	H	0.803861	-0.381724	-0.630905
H78	H	0.766025	-0.488023	-0.705876
F79	F	0.795121	-0.364899	-1.044001
H80	H	0.097146	-0.624481	-0.327256
H81	H	0.930765	-0.624096	-1.016141
H82	H	0.930755	-0.624144	-0.897427
F83	F	0.982552	-0.519895	-0.830485
H84	H	0.500772	-0.624623	-0.327095
F85	F	0.433871	-0.520441	-0.379009
F86	F	0.108670	-0.364865	-0.191908
H87	H	0.234285	-0.381648	-0.200581
F88	F	0.301192	-0.485844	-0.148661
F89	F	0.436256	-0.485895	-0.148607
H90	H	0.519204	-0.381743	-0.200476
H91	H	0.930736	-0.624241	-0.612493
