data_functionalizedCrystal
_audit_creation_method	'MofGen! by Chris Wilmer'
_symmetry_space_group_name_H-M	'P1'
_symmetry_Int_Tables_number	1
_symmetry_cell_setting	triclinic
loop_
_symmetry_equiv_pos_as_xyz
  x,y,z
_cell_length_a	16.625548
_cell_length_b	16.625539
_cell_length_c	16.625545
_cell_angle_alpha	89.971893
_cell_angle_beta	90.026626
_cell_angle_gamma	89.979432
loop_
_atom_site_label
_atom_site_type_symbol
_atom_site_fract_x
_atom_site_fract_y
_atom_site_fract_z
Zn1	Zn	1.232663	-0.455910	-0.320977
Zn2	Zn	1.482663	-0.205910	-0.070977
Zn3	Zn	1.732663	0.044090	0.179023
Zn4	Zn	1.982663	0.294090	0.429023
Zn5	Zn	1.232559	-0.321078	-0.455820
Zn6	Zn	1.482559	-0.071078	-0.205820
Zn7	Zn	1.732559	0.178922	0.044180
Zn8	Zn	1.982559	0.428922	0.294180
Zn9	Zn	1.097825	-0.321091	-0.321008
Zn10	Zn	1.347825	-0.071091	-0.071008
Zn11	Zn	1.597825	0.178909	0.178992
Zn12	Zn	1.847825	0.428909	0.428992
Zn13	Zn	1.097788	-0.455868	-0.455774
Zn14	Zn	1.347788	-0.205868	-0.205774
Zn15	Zn	1.597788	0.044132	0.044226
Zn16	Zn	1.847788	0.294132	0.294226
O17	O	1.165209	-0.388487	-0.388395
O18	O	1.415209	-0.138487	-0.138395
O19	O	1.665209	0.111513	0.111605
O20	O	1.915209	0.361513	0.361605
O21	O	1.345482	-0.438037	-0.338871
O22	O	1.595482	-0.188037	-0.088871
O23	O	1.845482	0.061963	0.161129
O24	O	2.095482	0.311963	0.411129
O25	O	1.214658	-0.208247	-0.437969
O26	O	1.464658	0.041753	-0.187969
O27	O	1.714658	0.291753	0.062031
O28	O	1.964658	0.541753	0.312031
O29	O	1.115771	-0.338998	-0.208171
O30	O	1.365771	-0.088998	0.041829
O31	O	1.615771	0.161002	0.291829
O32	O	1.865771	0.411002	0.541829
O33	O	1.345405	-0.338976	-0.437940
O34	O	1.595405	-0.088976	-0.187940
O35	O	1.845405	0.161024	0.062060
O36	O	2.095405	0.411024	0.312060
O37	O	1.214836	-0.438050	-0.208149
O38	O	1.464836	-0.188050	0.041851
O39	O	1.714836	0.061950	0.291851
O40	O	1.964836	0.311950	0.541851
O41	O	1.115670	-0.208257	-0.338923
O42	O	1.365670	0.041743	-0.088923
O43	O	1.615670	0.291743	0.161077
O44	O	1.865670	0.541743	0.411077
O45	O	0.984988	-0.338957	-0.338878
O46	O	1.234988	-0.088957	-0.088878
O47	O	1.484988	0.161043	0.161122
O48	O	1.734988	0.411043	0.411122
O49	O	1.115708	-0.568706	-0.437861
O50	O	1.365708	-0.318706	-0.187861
O51	O	1.615708	-0.068706	0.062139
O52	O	1.865708	0.181294	0.312139
O53	O	0.984961	-0.437977	-0.437891
O54	O	1.234961	-0.187977	-0.187891
O55	O	1.484961	0.062023	0.062109
O56	O	1.734961	0.312023	0.312109
O57	O	1.214800	-0.568737	-0.338826
O58	O	1.464800	-0.318737	-0.088826
O59	O	1.714800	-0.068737	0.161174
O60	O	1.964800	0.181263	0.411174
O61	O	1.214622	-0.338935	-0.568647
O62	O	1.464622	-0.088935	-0.318647
O63	O	1.714622	0.161065	-0.068647
O64	O	1.964622	0.411065	0.181353
O65	O	1.115607	-0.437965	-0.568613
O66	O	1.365607	-0.187965	-0.318613
O67	O	1.615607	0.062035	-0.068613
O68	O	1.865607	0.312035	0.181387
C69	C	0.955718	-0.388464	-0.388383
C70	C	1.205718	-0.138464	-0.138383
C71	C	1.455718	0.111536	0.111617
C72	C	1.705718	0.361536	0.361617
C73	C	0.866097	-0.388474	-0.388398
C74	C	1.116097	-0.138474	-0.138398
C75	C	1.366097	0.111526	0.111602
C76	C	1.616097	0.361526	0.361602
C77	C	0.537921	-0.388508	-0.388403
C78	C	0.787921	-0.138508	-0.138403
C79	C	1.037921	0.111492	0.111597
C80	C	1.287921	0.361492	0.361597
C81	C	0.629230	-0.388496	-0.388399
C82	C	0.879230	-0.138496	-0.138399
C83	C	1.129230	0.111504	0.111601
C84	C	1.379230	0.361504	0.361601
C85	C	0.702006	-0.388490	-0.388401
C86	C	0.952006	-0.138490	-0.138401
C87	C	1.202006	0.111510	0.111599
C88	C	1.452006	0.361510	0.361599
C89	C	0.793320	-0.388480	-0.388396
C90	C	1.043320	-0.138480	-0.138396
C91	C	1.293320	0.111520	0.111604
C92	C	1.543320	0.361520	0.361604
C93	C	1.165261	-0.598796	-0.388335
C94	C	1.415261	-0.348796	-0.138335
C95	C	1.665261	-0.098796	0.111665
C96	C	1.915261	0.151204	0.361665
C97	C	1.165284	-0.688417	-0.388309
C98	C	1.415284	-0.438417	-0.138309
C99	C	1.665284	-0.188417	0.111691
C100	C	1.915284	0.061583	0.361691
C101	C	1.165321	-1.016593	-0.388219
C102	C	1.415321	-0.766593	-0.138219
C103	C	1.665321	-0.516593	0.111781
C104	C	1.915321	-0.266593	0.361781
C105	C	1.165308	-0.925284	-0.388247
C106	C	1.415308	-0.675284	-0.138247
C107	C	1.665308	-0.425284	0.111753
C108	C	1.915308	-0.175284	0.361753
C109	C	1.165303	-0.852508	-0.388265
C110	C	1.415303	-0.602508	-0.138265
C111	C	1.665303	-0.352508	0.111735
C112	C	1.915303	-0.102508	0.361735
C113	C	1.165289	-0.761194	-0.388291
C114	C	1.415289	-0.511194	-0.138291
C115	C	1.665289	-0.261194	0.111709
C116	C	1.915289	-0.011194	0.361709
C117	C	1.375518	-0.388510	-0.388407
C118	C	1.625518	-0.138510	-0.138407
C119	C	1.875518	0.111490	0.111593
C120	C	2.125518	0.361490	0.361593
C121	C	1.465139	-0.388520	-0.388412
C122	C	1.715139	-0.138520	-0.138412
C123	C	1.965139	0.111480	0.111588
C124	C	2.215139	0.361480	0.361588
C125	C	1.165121	-0.388462	-0.597886
C126	C	1.415121	-0.138462	-0.347886
C127	C	1.665121	0.111538	-0.097886
C128	C	1.915121	0.361538	0.152114
C129	C	1.165158	-0.388478	-0.687507
C130	C	1.415158	-0.138478	-0.437507
C131	C	1.665158	0.111522	-0.187507
C132	C	1.915158	0.361522	0.062493
C133	C	1.165203	-0.178996	-0.388397
C134	C	1.415203	0.071004	-0.138397
C135	C	1.665203	0.321004	0.111603
C136	C	1.915203	0.571004	0.361603
C137	C	1.165337	-0.089375	-0.388195
C138	C	1.415337	0.160625	-0.138195
C139	C	1.665337	0.410625	0.111805
C140	C	1.915337	0.660625	0.361805
C141	C	1.165189	-0.388494	-0.760289
C142	C	1.415189	-0.138494	-0.510289
C143	C	1.665189	0.111506	-0.260289
C144	C	1.915189	0.361506	-0.010289
C145	C	1.165236	-0.388511	-0.851598
C146	C	1.415236	-0.138511	-0.601598
C147	C	1.665236	0.111489	-0.351598
C148	C	1.915236	0.361489	-0.101598
C149	C	1.165278	-0.388522	-0.924374
C150	C	1.415278	-0.138522	-0.674374
C151	C	1.665278	0.111478	-0.424374
C152	C	1.915278	0.361478	-0.174374
C153	C	1.165324	-0.388538	-1.015688
C154	C	1.415324	-0.138538	-0.765688
C155	C	1.665324	0.111462	-0.515688
C156	C	1.915324	0.361462	-0.265688
C157	C	1.165319	-0.388530	-0.178086
C158	C	1.415319	-0.138530	0.071914
C159	C	1.665319	0.111470	0.321914
C160	C	1.915319	0.361470	0.571914
C161	C	1.165366	-0.388548	-0.088465
C162	C	1.415366	-0.138548	0.161535
C163	C	1.665366	0.111452	0.411535
C164	C	1.915366	0.361452	0.661535
