data_functionalizedCrystal
_audit_creation_method	'MofGen! by Chris Wilmer'
_symmetry_space_group_name_H-M	'P1'
_symmetry_Int_Tables_number	1
_symmetry_cell_setting	triclinic
loop_
_symmetry_equiv_pos_as_xyz
  x,y,z
_cell_length_a	16.625548
_cell_length_b	12.594516
_cell_length_c	16.625539
_cell_angle_alpha	90.025003
_cell_angle_beta	90.020568
_cell_angle_gamma	90.012884
loop_
_atom_site_label
_atom_site_type_symbol
_atom_site_fract_x
_atom_site_fract_y
_atom_site_fract_z
Zn1	Zn	1.232740	-0.423710	0.455928
Zn2	Zn	1.232668	-0.601711	0.321103
Zn3	Zn	1.097902	-0.423750	0.321108
Zn4	Zn	1.097897	-0.601650	0.455893
O5	O	1.165302	-0.512705	0.388508
O6	O	1.345563	-0.447331	0.438055
O7	O	1.214763	-0.578147	0.208271
O8	O	1.115820	-0.274799	0.339010
O9	O	1.345510	-0.578107	0.339000
O10	O	1.214885	-0.274769	0.438061
O11	O	1.115751	-0.447400	0.208275
O12	O	0.985069	-0.447341	0.338975
O13	O	1.115813	-0.578003	0.568730
O14	O	0.985066	-0.578043	0.438001
O15	O	1.214881	-0.447271	0.568756
O16	O	1.214759	-0.750649	0.338966
O17	O	1.115743	-0.750604	0.437996
C18	C	0.955811	-0.512690	0.388485
C19	C	0.866190	-0.512709	0.388495
C20	C	0.538014	-0.512716	0.388529
C21	C	0.629323	-0.512711	0.388517
C22	C	0.702099	-0.512713	0.388512
C23	C	0.793414	-0.512707	0.388501
C24	C	1.165265	-0.789246	0.388494
C25	C	1.165322	-0.907552	0.388515
C26	C	1.219240	-0.976791	0.334710
C27	C	1.238943	-1.047491	0.408305
C28	C	1.145720	-1.047650	0.314967
C29	C	1.185064	-0.976694	0.462148
C30	C	1.091806	-0.976846	0.368761
C31	C	1.111482	-1.047515	0.442406
C32	C	1.375611	-0.512721	0.388531
C33	C	1.465232	-0.512728	0.388541
C34	C	1.165354	-0.512626	0.598817
C35	C	1.165377	-0.512592	0.688438
C36	C	1.165361	-0.235085	0.388540
C37	C	1.165387	-0.116779	0.388553
C38	C	1.165296	-0.512708	0.179017
C39	C	1.165430	-0.512441	0.089396
C40	C	1.165414	-0.512473	1.016614
C41	C	1.165401	-0.512510	0.925305
C42	C	1.165396	-0.512534	0.852529
C43	C	1.165382	-0.512568	0.761215
H44	H	1.264843	-0.945736	0.289250
H45	H	1.065913	-1.078374	0.487976
H46	H	1.029625	-0.945789	0.352009
H47	H	1.301142	-1.078526	0.425034
N48	N	1.205988	-0.937754	0.540214
N49	N	1.209366	-0.839998	0.552788
H50	H	1.224147	-0.812492	0.607920
N51	N	1.124894	-1.086743	0.236918
N52	N	1.167710	-1.064087	0.177568
H53	H	1.153008	-1.091693	0.122444
