data_functionalizedCrystal
_audit_creation_method	'MofGen! by Chris Wilmer'
_symmetry_space_group_name_H-M	'P1'
_symmetry_Int_Tables_number	1
_symmetry_cell_setting	triclinic
loop_
_symmetry_equiv_pos_as_xyz
  x,y,z
_cell_length_a	14.853567
_cell_length_b	11.026607
_cell_length_c	10.065875
_cell_angle_alpha	79.302338
_cell_angle_beta	81.200326
_cell_angle_gamma	83.889526
loop_
_atom_site_label
_atom_site_type_symbol
_atom_site_fract_x
_atom_site_fract_y
_atom_site_fract_z
O1	O	-0.367247	1.628542	-0.113522
O2	O	-0.324248	1.275163	-0.113520
O3	O	-0.216042	1.461289	-0.113505
O4	O	-0.475453	1.442416	-0.113537
O5	O	-0.236782	1.425798	0.113481
O6	O	-0.344987	1.239672	0.113466
O7	O	-0.387987	1.593050	0.113464
Zn8	Zn	-0.369780	1.410726	0.149504
Zn9	Zn	-0.342455	1.457488	-0.149560
O10	O	-0.496192	1.406924	0.113449
C11	C	-0.326685	1.212193	-0.000027
C12	C	-0.303037	1.077439	-0.000026
C13	C	-0.368331	1.003745	-0.000035
C14	C	-0.343892	0.864469	-0.000034
C15	C	-0.519549	1.425526	-0.000048
C16	C	-0.620045	1.428091	-0.000061
C17	C	-1.052172	1.549484	-0.000012
C18	C	-1.037772	1.328359	-0.000012
C19	C	-0.943349	1.325951	-0.000025
C20	C	-0.903333	1.435311	-0.000030
C21	C	-0.957740	1.547078	-0.000021
C22	C	-0.888935	1.214183	-0.000020
C23	C	-0.794505	1.211770	-0.000032
C24	C	-0.754487	1.321132	-0.000046
C25	C	-0.808901	1.432905	-0.000039
C26	C	-0.768885	1.542265	-0.000043
C27	C	-0.823296	1.654040	-0.000045
C28	C	-0.917722	1.656441	-0.000035
C29	C	-0.660061	1.318732	-0.000056
C30	C	-0.674453	1.539859	-0.000052
C31	C	-0.192685	1.442688	-0.000011
C32	C	-0.092188	1.440124	-0.000008
C33	C	-0.385549	1.656021	-0.000032
C34	C	-0.409196	1.790776	-0.000042
N35	N	-0.388429	1.378821	0.353607
N36	N	-0.323800	1.489402	-0.353663
C37	C	-0.348936	1.446379	0.421391
C38	C	-0.363298	1.421834	0.578556
H39	H	-0.229040	1.037427	-0.000052
F40	F	-0.975635	1.775389	-0.000035
H41	H	-1.096477	1.640490	-0.000019
F42	F	-0.290651	1.545516	0.345168
F43	F	-0.265888	1.588964	0.570122
F44	F	-0.446515	1.279462	0.429830
H45	H	-0.921524	1.125147	-0.000011
H46	H	-0.790703	1.743079	-0.000041
F47	F	-1.080364	1.211977	0.000000
F48	F	-0.247170	0.812175	-0.000013
H49	H	-0.407740	1.345814	0.636871
F50	F	-0.602159	1.199779	-0.000041
H51	H	-0.483196	0.830785	-0.000042
H52	H	-0.641878	1.628916	-0.000065
F53	F	-0.465050	1.056043	-0.000042
F54	F	-0.736605	1.092811	-0.000035
