data_functionalizedCrystal
_audit_creation_method	'MofGen! by Chris Wilmer'
_symmetry_space_group_name_H-M	'P1'
_symmetry_Int_Tables_number	1
_symmetry_cell_setting	triclinic
loop_
_symmetry_equiv_pos_as_xyz
  x,y,z
_cell_length_a	18.215407
_cell_length_b	17.640280
_cell_length_c	18.215399
_cell_angle_alpha	78.775397
_cell_angle_beta	89.980167
_cell_angle_gamma	78.800709
loop_
_atom_site_label
_atom_site_type_symbol
_atom_site_fract_x
_atom_site_fract_y
_atom_site_fract_z
Zn1	Zn	1.184366	-0.314661	-0.356963
Zn2	Zn	1.209181	-0.446838	-0.209048
Zn3	Zn	1.061303	-0.314687	-0.233905
Zn4	Zn	1.086163	-0.446794	-0.332082
O5	O	1.135253	-0.380745	-0.282999
O6	O	1.290643	-0.332202	-0.337352
O7	O	1.189546	-0.429337	-0.109356
O8	O	1.056838	-0.204079	-0.271045
O9	O	1.308875	-0.429312	-0.228680
O10	O	1.147252	-0.204060	-0.361454
O11	O	1.080901	-0.332246	-0.127618
O12	O	0.961615	-0.332203	-0.246918
O13	O	1.099208	-0.429237	-0.438372
O14	O	0.979879	-0.429262	-0.319048
O15	O	1.171357	-0.332159	-0.456652
O16	O	1.213652	-0.557436	-0.204553
O17	O	1.123271	-0.557404	-0.294945
C18	C	0.944044	-0.380731	-0.282981
C19	C	0.862248	-0.380745	-0.282987
C20	C	0.683598	-0.431363	-0.320471
C21	C	0.606740	-0.431365	-0.320479
C22	C	0.587662	-0.330142	-0.245542
C23	C	0.664519	-0.330136	-0.245538
C24	C	0.712485	-0.380751	-0.283000
C25	C	0.558771	-0.380759	-0.283013
C26	C	0.475438	-0.380761	-0.283022
C27	C	0.795824	-0.380748	-0.282993
C28	C	1.173871	-0.586099	-0.244368
C29	C	1.190460	-0.673950	-0.227866
C30	C	1.009534	-0.962935	-0.408631
C31	C	1.025123	-1.045484	-0.393101
C32	C	1.119295	-1.045452	-0.299071
C33	C	1.103717	-0.962901	-0.314596
C34	C	1.048835	-0.921649	-0.369375
C35	C	1.143018	-0.921615	-0.275340
C36	C	1.127438	-0.839071	-0.290861
C37	C	1.072557	-0.797813	-0.345636
C38	C	1.033255	-0.839105	-0.384896
C39	C	1.197896	-0.962869	-0.220557
C40	C	1.237196	-0.921583	-0.181301
C41	C	1.221620	-0.839038	-0.196825
C42	C	1.166739	-0.797780	-0.251601
C43	C	1.260922	-0.797746	-0.157566
C44	C	1.245342	-0.715202	-0.173086
C45	C	1.151159	-0.715236	-0.267122
C46	C	1.327209	-0.380759	-0.283018
C47	C	1.409009	-0.380765	-0.283027
C48	C	1.135288	-0.380690	-0.474963
C49	C	1.135302	-0.380667	-0.556766
C50	C	1.096504	-0.174589	-0.321798
C51	C	1.079991	-0.086738	-0.338331
C52	C	1.172878	-0.330072	-0.754489
C53	C	1.172883	-0.330049	-0.831352
C54	C	1.097755	-0.431141	-0.812304
C55	C	1.097747	-0.431159	-0.735444
C56	C	1.135313	-0.380626	-0.706537
C57	C	1.135326	-0.380584	-0.860261
C58	C	1.135330	-0.380560	-0.943600
C59	C	1.135307	-0.380649	-0.623194
C60	C	1.135250	-0.380742	-0.091794
C61	C	1.135336	-0.380543	-0.010033
H62	H	0.548599	-0.288934	-0.215039
H63	H	0.688037	-0.288916	-0.215026
C64	C	1.296870	-0.966424	-0.121937
C65	C	1.352957	-1.013747	-0.154748
C66	C	1.407943	-1.055058	-0.100084
H67	H	1.274911	-0.998722	-0.083761
H68	H	1.318096	-0.930041	-0.100784
H69	H	1.331734	-1.050125	-0.175889
H70	H	1.374937	-0.981468	-0.192918
H71	H	1.429168	-1.018676	-0.078931
H72	H	1.385976	-1.087352	-0.061911
H73	H	1.446007	-1.087166	-0.122340
H74	H	1.305601	-0.831346	-0.112959
C75	C	1.055634	-0.708193	-0.362334
C76	C	1.031773	-0.680928	-0.297374
C77	C	1.016186	-0.598375	-0.312725
H78	H	1.017304	-0.689436	-0.400543
H79	H	1.099586	-0.689444	-0.378591
H80	H	0.987826	-0.699669	-0.281127
H81	H	1.070091	-0.699662	-0.259157
H82	H	1.060138	-0.579627	-0.328983
H83	H	0.977858	-0.579627	-0.350935
H84	H	1.000001	-0.579866	-0.268651
H85	H	1.106474	-0.681646	-0.311735
H86	H	1.067151	-0.472326	-0.696400
H87	H	0.988570	-0.805515	-0.429509
C88	C	1.213668	-0.275116	-0.723254
C89	C	1.246549	-0.230823	-0.781706
C90	C	1.284120	-0.180179	-0.752965
H91	H	1.251464	-0.305268	-0.687599
H92	H	1.179045	-0.240642	-0.699772
H93	H	1.281169	-0.265292	-0.805176
H94	H	1.208769	-0.200654	-0.817365
H95	H	1.249498	-0.145705	-0.729483
H96	H	1.321913	-0.210337	-0.717311
H97	H	1.306429	-0.150115	-0.792621
H98	H	0.722651	-0.472575	-0.350978
H99	H	0.583224	-0.472577	-0.350993
C100	C	0.949906	-0.918280	-0.468120
C101	C	0.918813	-0.972102	-0.499175
C102	C	0.863881	-0.930995	-0.553971
H103	H	0.971883	-0.886042	-0.506332
H104	H	0.911746	-0.886133	-0.446006
H105	H	0.956966	-1.004235	-0.521289
H106	H	0.896821	-1.004342	-0.460982
H107	H	0.825721	-0.898848	-0.531858
H108	H	0.885864	-0.898758	-0.592178
H109	H	0.842773	-0.967507	-0.575044
H110	H	0.993124	-1.079096	-0.425081
H111	H	1.163978	-1.079051	-0.254467
C112	C	1.287984	-0.670470	-0.130330
C113	C	1.275817	-0.690611	-0.053715
C114	C	1.315091	-0.649426	-0.014300
H115	H	1.270885	-0.615390	-0.147322
H116	H	1.339986	-0.683963	-0.138564
H117	H	1.223826	-0.677112	-0.045485
H118	H	1.292919	-0.745683	-0.036701
H119	H	1.367092	-0.662919	-0.022534
H120	H	1.297989	-0.594348	-0.031298
H121	H	1.306846	-0.663091	0.037688
C122	C	1.214896	-1.052489	-0.203844
C123	C	1.238800	-1.079747	-0.268796
C124	C	1.254480	-1.162299	-0.253427
H125	H	1.170991	-1.071315	-0.187585
H126	H	1.253235	-1.071174	-0.165625
H127	H	1.200464	-1.061071	-0.307003
H128	H	1.282709	-1.060943	-0.285065
H129	H	1.292819	-1.180984	-0.215208
H130	H	1.210572	-1.181117	-0.237167
H131	H	1.270707	-1.180804	-0.297492
C132	C	1.213527	-0.275060	-0.883468
C133	C	1.162333	-0.224371	-0.937106
C134	C	1.199745	-0.173693	-0.985121
H135	H	1.251277	-0.305192	-0.907848
H136	H	1.235873	-0.244923	-0.855272
H137	H	1.139999	-0.254505	-0.965299
H138	H	1.124582	-0.194222	-0.912747
H139	H	1.222091	-0.143555	-0.956924
H140	H	1.237494	-0.203831	-1.009496
H141	H	1.165014	-0.139289	-1.021515
C142	C	1.057051	-0.485978	-0.843828
C143	C	1.065115	-0.475158	-0.921400
C144	C	1.027637	-0.525670	-0.950461
H145	H	1.005407	-0.474462	-0.833480
H146	H	1.077814	-0.539104	-0.821276
H147	H	1.044349	-0.422045	-0.943945
H148	H	1.116750	-0.486680	-0.931769
H149	H	1.048400	-0.578796	-0.927909
H150	H	0.975995	-0.514150	-0.940108
H151	H	1.033109	-0.518342	-1.003095
