data_functionalizedCrystal
_audit_creation_method	'MofGen! by Chris Wilmer'
_symmetry_space_group_name_H-M	'P1'
_symmetry_Int_Tables_number	1
_symmetry_cell_setting	triclinic
loop_
_symmetry_equiv_pos_as_xyz
  x,y,z
_cell_length_a	13.897448
_cell_length_b	13.897449
_cell_length_c	10.686551
_cell_angle_alpha	94.398514
_cell_angle_beta	94.407384
_cell_angle_gamma	90.018519
loop_
_atom_site_label
_atom_site_type_symbol
_atom_site_fract_x
_atom_site_fract_y
_atom_site_fract_z
Zn1	Zn	-0.342075	1.516575	0.713555
Zn2	Zn	0.157925	2.016575	1.213555
Zn3	Zn	-0.515784	1.504086	0.502545
Zn4	Zn	-0.015784	2.004086	1.002545
Zn5	Zn	-0.354506	1.342882	0.502557
Zn6	Zn	0.145494	1.842882	1.002557
Zn7	Zn	-0.503336	1.355241	0.713485
Zn8	Zn	-0.003336	1.855241	1.213485
O9	O	-0.428925	1.429696	0.608036
O10	O	0.071075	1.929696	1.108036
O11	O	-0.365125	1.649901	0.685588
O12	O	0.134875	2.149901	1.185588
O13	O	-0.504801	1.472304	0.325964
O14	O	-0.004801	1.972304	0.825964
O15	O	-0.217873	1.365977	0.530581
O16	O	0.282127	1.865977	1.030581
O17	O	-0.492748	1.640726	0.530560
O18	O	0.007252	2.140726	1.030560
O19	O	-0.208740	1.493588	0.685600
O20	O	0.291260	1.993588	1.185600
O21	O	-0.386311	1.353868	0.325973
O22	O	0.113689	1.853868	0.825973
O23	O	-0.374241	1.209539	0.530513
O24	O	0.125759	1.709539	1.030513
O25	O	-0.471533	1.387041	0.890077
O26	O	0.028467	1.887041	1.390077
O27	O	-0.483586	1.218619	0.685481
O28	O	0.016414	1.718619	1.185481
O29	O	-0.353055	1.505572	0.890128
O30	O	0.146945	2.005572	1.390128
O31	O	-0.649116	1.484288	0.530492
O32	O	-0.149116	1.984288	1.030492
O33	O	-0.639971	1.374932	0.685469
O34	O	-0.139971	1.874932	1.185469
C35	C	-0.428913	1.179079	0.607992
C36	C	0.071087	1.679079	1.107992
C37	C	-0.428929	1.071866	0.608003
C38	C	0.071071	1.571866	1.108003
C39	C	-0.428931	0.984797	0.608024
C40	C	0.071069	1.484797	1.108024
C41	C	-0.428935	0.875567	0.608062
C42	C	0.071065	1.375567	1.108062
C43	C	-0.679542	1.429624	0.607999
C44	C	-0.179542	1.929624	1.107999
C45	C	-0.786754	1.429683	0.608026
C46	C	-0.286754	1.929683	1.108026
C47	C	-0.983044	1.429789	0.608105
C48	C	-0.483044	1.929789	1.108105
C49	C	-0.873814	1.429728	0.608065
C50	C	-0.373814	1.929728	1.108065
C51	C	-0.177328	1.429797	0.608100
C52	C	0.322672	1.929797	1.108100
C53	C	-0.070113	1.429840	0.608127
C54	C	0.429887	1.929840	1.108127
C55	C	-0.409519	1.449078	0.937169
C56	C	0.090481	1.949078	1.437169
C57	C	-0.401249	1.457338	1.077426
C58	C	0.098751	1.957338	1.577426
C59	C	-0.428938	1.681292	0.608080
C60	C	0.071062	2.181292	1.108080
C61	C	-0.428944	1.788507	0.608100
C62	C	0.071056	2.288507	1.108100
C63	C	-0.448186	1.410445	0.280183
C64	C	0.051814	1.910445	0.780183
C65	C	-0.456184	1.402372	0.139927
C66	C	0.043816	1.902372	0.639927
H67	H	-0.509547	1.348998	1.086136
H68	H	-0.009547	1.848998	1.586136
H69	H	-0.347890	1.510723	1.131223
H70	H	0.152110	2.010723	1.631223
