data_functionalizedCrystal
_audit_creation_method	'MofGen! by Chris Wilmer'
_symmetry_space_group_name_H-M	'P1'
_symmetry_Int_Tables_number	1
_symmetry_cell_setting	triclinic
loop_
_symmetry_equiv_pos_as_xyz
  x,y,z
_cell_length_a	17.038272
_cell_length_b	14.853567
_cell_length_c	13.930277
_cell_angle_alpha	90.000757
_cell_angle_beta	90.001549
_cell_angle_gamma	87.373243
loop_
_atom_site_label
_atom_site_type_symbol
_atom_site_fract_x
_atom_site_fract_y
_atom_site_fract_z
O1	O	-1.037627	-0.195788	-0.079697
O2	O	-0.809992	-0.192679	-0.079726
O3	O	-0.929890	-0.063462	-0.079714
O4	O	-0.917729	-0.325006	-0.079709
O5	O	-0.929873	-0.063457	0.079948
O6	O	-0.809976	-0.192675	0.079936
O7	O	-1.037610	-0.195784	0.079965
Zn8	Zn	-0.923790	-0.194229	0.105300
Zn9	Zn	-0.923812	-0.194235	-0.105061
O10	O	-0.917713	-0.325002	0.079953
C11	C	-0.780852	-0.189850	0.000101
C12	C	-0.694048	-0.181414	0.000090
C13	C	-1.066751	-0.198614	0.000135
C14	C	-1.153555	-0.207050	0.000140
C15	C	-0.929331	-0.029829	0.000114
C16	C	-0.927680	0.070379	0.000106
C17	C	-0.644036	-0.258867	0.000092
C18	C	-0.562475	-0.250935	0.000105
C19	C	-0.530928	-0.165549	0.000110
C20	C	-0.580947	-0.088090	0.000110
C21	C	-0.662506	-0.096023	0.000104
C22	C	-0.285133	-0.137524	0.000135
C23	C	-0.203567	-0.129597	0.000138
C24	C	-0.185101	-0.292443	0.000135
C25	C	-0.266663	-0.300368	0.000123
C26	C	-0.316674	-0.222909	0.000129
C27	C	-0.447559	-0.157439	0.000120
C28	C	-0.400041	-0.231019	0.000125
C29	C	-0.918272	-0.358634	0.000122
C30	C	-0.919923	-0.458842	0.000125
N31	N	-0.923781	-0.194225	0.248866
C32	C	-0.849478	0.488797	0.000114
C33	C	-0.991919	0.499359	0.000132
C34	C	-0.993472	0.405209	0.000127
C35	C	-0.923026	0.352848	0.000117
C36	C	-0.851028	0.394638	0.000112
C37	C	-1.065468	0.363411	0.000141
C38	C	-1.067024	0.269255	0.000137
C39	C	-0.996578	0.216893	0.000120
C40	C	-0.924577	0.258689	0.000114
C41	C	-0.854131	0.206328	0.000104
C42	C	-0.782129	0.248122	0.000091
C43	C	-0.780582	0.342276	0.000095
C44	C	-0.998125	0.122739	0.000116
C45	C	-0.855682	0.112168	0.000101
N46	N	-0.923828	-0.194232	-0.248627
C47	C	-0.870719	-0.251428	0.701130
C48	C	-0.976927	-0.137036	0.701110
C49	C	-0.976917	-0.137032	0.600615
C50	C	-0.923809	-0.194228	0.550372
C51	C	-0.870710	-0.251428	0.600625
C52	C	-1.030021	-0.079840	0.550354
C53	C	-1.030014	-0.079835	0.449852
C54	C	-0.976901	-0.137027	0.399608
C55	C	-0.923800	-0.194228	0.449867
C56	C	-0.870691	-0.251425	0.399624
C57	C	-0.817585	-0.308622	0.449882
C58	C	-0.817597	-0.308620	0.550381
C59	C	-0.976889	-0.137029	0.299109
C60	C	-0.870682	-0.251425	0.299119
H61	H	-0.669714	-0.328397	0.000088
O62	O	-0.766028	-0.364098	0.400923
C63	C	-0.718994	-0.414832	0.246095
C64	C	-0.777409	-0.351947	0.301425
H65	H	-0.728187	-0.405044	0.165642
H66	H	-0.656340	-0.398236	0.265782
H67	H	-0.729248	-0.487827	0.265911
H68	H	-0.767228	-0.278932	0.281640
H69	H	-0.840043	-0.368621	0.281733
H70	H	-0.177885	-0.060062	0.000141
H71	H	-0.325843	-0.074451	0.000140
O72	O	-0.417004	-0.074449	-0.000015
C73	C	-0.407774	0.067129	-0.082774
C74	C	-0.442449	-0.026819	-0.082730
H75	H	-0.428319	0.105657	-0.149652
H76	H	-0.428384	0.105792	-0.016007
H77	H	-0.340892	0.059461	-0.082721
H78	H	-0.509332	-0.019234	-0.082817
H79	H	-0.421777	-0.065449	-0.149492
O80	O	-0.513858	-0.326144	0.000268
C81	C	-0.411020	-0.411675	0.082946
C82	C	-0.466047	-0.326472	0.082895
H83	H	-0.372339	-0.411959	0.149732
H84	H	-0.447534	-0.474100	0.082994
H85	H	-0.372409	-0.412012	0.016099
H86	H	-0.504668	-0.326047	0.149730
H87	H	-0.429486	-0.264085	0.082796
O88	O	-1.081515	-0.024058	0.401180
C89	C	-1.127094	0.129264	0.370801
C90	C	-1.068717	0.066144	0.425901
H91	H	-1.116778	0.202205	0.390783
H92	H	-1.118041	0.119642	0.290302
H93	H	-1.189726	0.112660	0.390579
H94	H	-1.006062	0.082708	0.406204
H95	H	-1.077839	0.075777	0.506387
O96	O	-0.430718	-0.313941	-0.000052
C97	C	-0.512127	-0.417367	-0.082759
C98	C	-0.477414	-0.323439	-0.082682
H99	H	-0.549901	-0.425069	-0.149547
H100	H	-0.462405	-0.471407	-0.082823
H101	H	-0.549818	-0.425139	-0.015914
H102	H	-0.439731	-0.315579	-0.149515
H103	H	-0.527173	-0.269445	-0.082567
H104	H	-1.049272	0.541997	0.000148
O105	O	-0.550396	-0.005097	-0.000015
C106	C	-0.541188	0.136489	-0.082764
C107	C	-0.575852	0.042534	-0.082725
H108	H	-0.561742	0.175019	-0.149638
H109	H	-0.561800	0.175144	-0.015993
H110	H	-0.474306	0.128832	-0.082717
H111	H	-0.642735	0.050109	-0.082806
H112	H	-0.555178	0.003913	-0.149491
O113	O	-1.028500	-0.081391	0.250438
C114	C	-1.133885	0.032023	0.261029
C115	C	-1.075464	-0.030931	0.316267
H116	H	-1.171882	0.072823	0.314228
H117	H	-1.100120	0.079741	0.214014
H118	H	-1.172941	-0.009944	0.213942
H119	H	-1.036394	0.010964	0.363407
H120	H	-1.109277	-0.078652	0.363222
O121	O	-0.297175	-0.383381	0.000167
C122	C	-0.270249	-0.544064	0.000112
C123	C	-0.235590	-0.450108	0.000088
H124	H	-0.220474	-0.598038	0.000028
H125	H	-0.307945	-0.551907	0.066943
H126	H	-0.307996	-0.551802	-0.066694
H127	H	-0.197807	-0.442306	0.066849
H128	H	-0.197938	-0.442308	-0.066787
O129	O	-0.710713	0.383018	0.000134
C130	C	-0.645202	0.523390	0.000090
C131	C	-0.724380	0.477362	0.000062
H132	H	-0.656224	0.599674	0.000011
H133	H	-0.610369	0.502335	0.066920
H134	H	-0.610389	0.502227	-0.066717
H135	H	-0.759257	0.498502	0.066823
H136	H	-0.759154	0.498416	-0.066812
H137	H	-0.144373	-0.355505	0.000132
H138	H	-1.122821	0.406050	0.000158
H139	H	-1.056748	0.088715	0.000133
O140	O	-0.766095	-0.364155	0.599349
C141	C	-0.719021	-0.414819	0.754185
C142	C	-0.777397	-0.351895	0.698845
H143	H	-0.728127	-0.404915	0.834637
H144	H	-0.729284	-0.487842	0.734492
H145	H	-0.656388	-0.398239	0.734386
H146	H	-0.840052	-0.368394	0.718614
H147	H	-0.767065	-0.278890	0.718543
H148	H	-1.125652	0.235235	0.000146
H149	H	-0.827479	-0.297995	0.742052
H150	H	-1.020170	-0.090473	0.742021
H151	H	-1.073264	-0.033277	0.591264
H152	H	-0.703226	-0.032952	0.000102
H153	H	-0.798315	0.069542	0.000089
H154	H	-0.827432	-0.297998	0.258218
H155	H	-0.724773	0.205477	0.000090
H156	H	-0.790855	0.522830	0.000100
