data_functionalizedCrystal
_audit_creation_method	'MofGen! by Chris Wilmer'
_symmetry_space_group_name_H-M	'P1'
_symmetry_Int_Tables_number	1
_symmetry_cell_setting	triclinic
loop_
_symmetry_equiv_pos_as_xyz
  x,y,z
_cell_length_a	13.032831
_cell_length_b	14.908520
_cell_length_c	13.032268
_cell_angle_alpha	80.014189
_cell_angle_beta	89.113023
_cell_angle_gamma	86.522975
loop_
_atom_site_label
_atom_site_type_symbol
_atom_site_fract_x
_atom_site_fract_y
_atom_site_fract_z
Zn1	Zn	1.453341	-0.608125	0.815711
Zn2	Zn	1.465124	-0.742288	0.651425
Zn3	Zn	1.305991	-0.570509	0.619794
Zn4	Zn	1.271734	-0.737420	0.801271
O5	O	1.374048	-0.664586	0.722050
O6	O	1.597505	-0.643703	0.813198
O7	O	1.463283	-0.705796	0.502526
O8	O	1.334942	-0.449498	0.638589
O9	O	1.606162	-0.742272	0.692498
O10	O	1.443199	-0.477135	0.782527
O11	O	1.346369	-0.579590	0.479287
O12	O	1.158846	-0.574869	0.624587
O13	O	1.276556	-0.733974	0.947889
O14	O	1.133677	-0.697498	0.757917
O15	O	1.409982	-0.638982	0.958498
O16	O	1.430066	-0.867643	0.678496
O17	O	1.287983	-0.864066	0.788588
C18	C	1.109287	-0.631574	0.686253
C19	C	0.996016	-0.617476	0.670965
C20	C	0.933097	-0.671944	0.730029
C21	C	0.816026	-0.657374	0.714229
C22	C	1.356610	-0.898531	0.735434
C23	C	1.349239	-0.998628	0.741207
C24	C	1.483459	-1.190413	0.637541
C25	C	1.476537	-1.284464	0.642962
C26	C	1.328478	-1.280784	0.757475
C27	C	1.335400	-1.186733	0.752054
C28	C	1.412892	-1.141551	0.692084
C29	C	1.419809	-1.047497	0.686657
C30	C	1.271756	-1.043820	0.801176
C31	C	1.264834	-1.137870	0.806597
C32	C	1.639842	-0.697726	0.757987
C33	C	1.753108	-0.711849	0.773302
C34	C	1.338133	-0.690131	0.991762
C35	C	1.322829	-0.701017	1.106698
C36	C	1.391578	-0.429732	0.708640
C37	C	1.399048	-0.329652	0.702926
C38	C	1.409886	-0.639082	0.453391
C39	C	1.425406	-0.627967	0.338469
C40	C	1.382022	-0.658870	1.163188
C41	C	1.366205	-0.670120	1.281980
H42	H	0.965901	-0.729359	0.792296
C43	C	1.281916	-0.730124	1.335435
C44	C	1.284541	-0.832134	1.327655
C45	C	1.200254	-0.892136	1.381112
C46	C	1.113343	-0.850128	1.442348
C47	C	1.110716	-0.748113	1.450130
C48	C	1.195002	-0.688111	1.396674
H49	H	1.348880	-0.863235	1.282322
H50	H	1.202200	-0.967654	1.375350
H51	H	1.050949	-0.894546	1.481919
H52	H	1.046376	-0.717012	1.495463
H53	H	1.193057	-0.612592	1.402436
C54	C	1.554158	-1.338213	0.582961
C55	C	1.562546	-1.313166	0.463547
C56	C	1.640172	-1.366915	0.403545
C57	C	1.709411	-1.445711	0.462956
C58	C	1.701026	-1.470762	0.582376
C59	C	1.623400	-1.417013	0.642379
H60	H	1.511289	-1.254832	0.419562
H61	H	1.646379	-1.348370	0.315142
H62	H	1.766875	-1.485500	0.418539
H63	H	1.752283	-1.529095	0.626362
H64	H	1.617193	-1.435558	0.730782
H65	H	1.546550	-1.153623	0.588703
C66	C	0.951712	-0.539904	0.586847
C67	C	0.877780	-0.464483	0.617937
C68	C	0.833479	-0.386909	0.533817
C69	C	0.863111	-0.384756	0.418606
C70	C	0.937047	-0.460179	0.387510
C71	C	0.981348	-0.537753	0.471630
H72	H	0.855841	-0.466075	0.703228
H73	H	0.778747	-0.331076	0.556837
H74	H	0.830317	-0.327331	0.356335
H75	H	0.958986	-0.458587	0.302219
H76	H	1.036080	-0.593587	0.448610
C77	C	1.238544	-0.761017	1.160157
C78	C	1.241169	-0.863027	1.152377
C79	C	1.156882	-0.923030	1.205833
C80	C	1.069971	-0.881022	1.267070
C81	C	1.067344	-0.779007	1.274852
C82	C	1.151630	-0.719005	1.221396
H83	H	1.305508	-0.894129	1.107044
H84	H	1.158828	-0.998548	1.200072
H85	H	1.007577	-0.925439	1.306641
H86	H	1.003004	-0.747906	1.320185
H87	H	1.149684	-0.643486	1.227157
H88	H	1.265394	-1.317589	0.806308
H89	H	1.482904	-1.010710	0.637823
C90	C	1.179598	-1.187578	0.872561
C91	C	1.100846	-1.238099	0.820602
C92	C	1.015608	-1.287804	0.886566
C93	C	1.009120	-1.286989	1.004489
C94	C	1.087874	-1.236465	1.056454
C95	C	1.173113	-1.186760	0.990490
H96	H	1.105646	-1.238704	0.733303
H97	H	0.957309	-1.325205	0.848097
H98	H	0.946022	-1.323783	1.053319
H99	H	1.083075	-1.235860	1.143753
H100	H	1.231412	-1.149359	1.028959
H101	H	1.214293	-1.004024	0.845585
H102	H	0.783226	-0.599948	0.651965
H103	H	0.785905	-0.769267	0.835576
H104	H	1.444405	-0.614454	1.123607
C105	C	1.509695	-0.567961	1.285018
C106	C	1.480634	-0.484778	1.200733
C107	C	1.564920	-0.424772	1.147283
C108	C	1.678267	-0.447948	1.178118
C109	C	1.707333	-0.531135	1.262407
C110	C	1.623047	-0.591141	1.315857
H111	H	1.396723	-0.467618	1.177904
H112	H	1.543403	-0.363191	1.084887
H113	H	1.740660	-0.403528	1.138551
H114	H	1.791244	-0.548295	1.285236
H115	H	1.644564	-0.652721	1.378253
