data_functionalizedCrystal
_audit_creation_method	'MofGen! by Chris Wilmer'
_symmetry_space_group_name_H-M	'P1'
_symmetry_Int_Tables_number	1
_symmetry_cell_setting	triclinic
loop_
_symmetry_equiv_pos_as_xyz
  x,y,z
_cell_length_a	10.723024
_cell_length_b	8.559649
_cell_length_c	7.088929
_cell_angle_alpha	95.344185
_cell_angle_beta	96.263408
_cell_angle_gamma	102.876733
loop_
_atom_site_label
_atom_site_type_symbol
_atom_site_fract_x
_atom_site_fract_y
_atom_site_fract_z
O1	O	1.619870	-0.240138	-0.158966
O2	O	1.254520	-0.261568	-0.158971
O3	O	1.469383	-0.018604	-0.158966
O4	O	1.405007	-0.483102	-0.158971
O5	O	1.498104	0.013940	0.159010
O6	O	1.283241	-0.229024	0.159005
O7	O	1.648591	-0.207595	0.159010
Cu8	Cu	1.468539	-0.215338	0.188041
Cu9	Cu	1.434572	-0.253824	-0.188002
O10	O	1.433728	-0.450559	0.159005
C11	C	1.222541	-0.243736	0.000016
C12	C	1.084465	-0.239071	0.000013
C13	C	1.488622	0.057144	0.000019
C14	C	1.503142	0.234364	0.000008
N15	N	1.492438	-0.188267	0.452530
C16	C	0.907566	-0.094143	0.000011
C17	C	1.050275	-0.098962	0.000014
C18	C	1.680570	-0.225426	0.000019
C19	C	1.818645	-0.230093	0.000009
C20	C	1.414489	-0.526307	0.000016
C21	C	1.399967	-0.703528	0.000014
N22	N	1.410684	-0.280882	-0.452491
H23	H	1.126639	0.017421	0.000004
C24	C	0.867694	0.067923	0.000012
C25	C	0.801266	0.127631	0.165127
C26	C	0.761398	0.289701	0.165128
C27	C	0.787958	0.392063	0.000014
C28	C	0.854389	0.332356	-0.165113
C29	C	0.894258	0.170286	-0.165114
H30	H	0.781602	0.051856	0.287366
H31	H	0.712221	0.333900	0.287368
H32	H	0.758445	0.512037	0.000015
H33	H	0.874054	0.408132	-0.287352
H34	H	0.943435	0.126088	-0.287354
C35	C	1.296213	-0.410537	0.437220
C36	C	1.201243	-0.517449	0.547073
C37	C	1.086770	-0.647106	0.436769
C38	C	1.067267	-0.669851	0.216612
C39	C	1.162239	-0.562935	0.106747
C40	C	1.276713	-0.433278	0.217050
H41	H	1.215678	-0.500615	0.710057
H42	H	1.016465	-0.726251	0.518100
H43	H	0.982527	-0.765830	0.134959
H44	H	1.147804	-0.579769	-0.056238
H45	H	1.347017	-0.354133	0.135719
H46	H	1.008106	-0.355462	0.000004
H47	H	1.300526	0.214066	0.000019
H48	H	0.848170	-0.350051	0.000019
H49	H	1.577179	-0.092297	0.534188
H50	H	1.602593	0.316782	0.000025
