data_functionalizedCrystal
_audit_creation_method	'MofGen! by Chris Wilmer'
_symmetry_space_group_name_H-M	'P1'
_symmetry_Int_Tables_number	1
_symmetry_cell_setting	triclinic
loop_
_symmetry_equiv_pos_as_xyz
  x,y,z
_cell_length_a	16.959455
_cell_length_b	13.897441
_cell_length_c	16.959454
_cell_angle_alpha	90.026995
_cell_angle_beta	90.015068
_cell_angle_gamma	90.027951
loop_
_atom_site_label
_atom_site_type_symbol
_atom_site_fract_x
_atom_site_fract_y
_atom_site_fract_z
Zn1	Zn	-1.208417	-0.545640	0.314769
Zn2	Zn	-1.208330	-0.384348	0.446962
Zn3	Zn	-1.076236	-0.384332	0.314790
Zn4	Zn	-1.076211	-0.545575	0.446898
O5	O	-1.142298	-0.464973	0.380855
O6	O	-1.319017	-0.524278	0.332323
O7	O	-1.190781	-0.249364	0.429465
O8	O	-1.093817	-0.405750	0.204177
O9	O	-1.318952	-0.405778	0.429445
O10	O	-1.190931	-0.524262	0.204161
O11	O	-1.093733	-0.249352	0.332359
O12	O	-0.965622	-0.405687	0.332297
O13	O	-1.093774	-0.680565	0.429335
O14	O	-0.965603	-0.524151	0.429356
O15	O	-1.190906	-0.680613	0.332261
O16	O	-1.190757	-0.405715	0.557565
O17	O	-1.093689	-0.524167	0.557518
C18	C	-0.936932	-0.464911	0.380822
C19	C	-0.849076	-0.464907	0.380827
C20	C	-0.477556	-0.403193	0.431353
C21	C	-0.477644	-0.526779	0.330376
C22	C	-0.560190	-0.526761	0.330366
C23	C	-0.601423	-0.464959	0.380851
C24	C	-0.560109	-0.403175	0.431346
C25	C	-0.601509	-0.588551	0.279878
C26	C	-0.684060	-0.588537	0.279866
C27	C	-0.725295	-0.526729	0.330348
C28	C	-0.683976	-0.464942	0.380844
C29	C	-0.725209	-0.403140	0.431329
C30	C	-0.683892	-0.341347	0.481822
C31	C	-0.601344	-0.341368	0.481827
C32	C	-0.807843	-0.526708	0.330342
C33	C	-0.807762	-0.403122	0.431322
C34	C	-1.142347	-0.716567	0.380789
C35	C	-1.142367	-0.823781	0.380760
C36	C	-1.142232	-0.464957	0.586221
C37	C	-1.142276	-0.464982	0.674078
C38	C	-0.348467	-0.465020	0.380880
C39	C	-0.436323	-0.464995	0.380868
C40	C	-1.142384	-0.910850	0.380738
C41	C	-1.142406	-1.020083	0.380703
C42	C	-1.142296	-0.214359	0.380864
C43	C	-1.142428	-0.107146	0.380670
C44	C	-1.142387	-0.465011	0.174687
C45	C	-1.142424	-0.465027	0.086830
C46	C	-1.091829	-0.526645	1.045559
C47	C	-1.192988	-0.403400	1.045548
C48	C	-1.192961	-0.403391	0.963002
C49	C	-1.142366	-0.465009	0.921731
C50	C	-1.091798	-0.526636	0.963005
C51	C	-1.243522	-0.341759	0.921722
C52	C	-1.243496	-0.341747	0.839171
C53	C	-1.192904	-0.403370	0.797898
C54	C	-1.142335	-0.465000	0.839177
C55	C	-1.091739	-0.526618	0.797906
C56	C	-1.041174	-0.588254	0.839184
C57	C	-1.041206	-0.588259	0.921733
C58	C	-1.192872	-0.403364	0.715349
C59	C	-1.091709	-0.526609	0.715352
H60	H	-0.444068	-0.577101	0.289278
H61	H	-0.717474	-0.291033	0.522931
O62	O	-1.247416	-0.336902	0.670836
H63	H	-1.287595	-0.380132	0.633187
O64	O	-0.852235	-0.336461	0.485772
H65	H	-0.809635	-0.293504	0.520884
H66	H	-0.567696	-0.291059	0.522936
H67	H	-0.999975	-0.638419	0.805572
O68	O	-0.433002	-0.336544	0.485811
H69	H	-0.368673	-0.346936	0.477340
O70	O	-1.037284	-0.593108	1.090078
H71	H	-1.072648	-0.642232	1.127649
H72	H	-0.567932	-0.638873	0.238781
O73	O	-0.986655	-0.654715	0.966251
H74	H	-0.995167	-0.644354	1.030585
H75	H	-0.717694	-0.638852	0.238751
H76	H	-0.841479	-0.577021	0.289233
H77	H	-1.050511	-0.576790	0.681754
H78	H	-1.234176	-0.353228	1.079156
O79	O	-1.298119	-0.275336	0.966231
H80	H	-1.289661	-0.285720	1.030567
H81	H	-1.284669	-0.291561	0.805567
