data_functionalizedCrystal
_audit_creation_method	'MofGen! by Chris Wilmer'
_symmetry_space_group_name_H-M	'P1'
_symmetry_Int_Tables_number	1
_symmetry_cell_setting	triclinic
loop_
_symmetry_equiv_pos_as_xyz
  x,y,z
_cell_length_a	10.654541
_cell_length_b	17.699083
_cell_length_c	16.776229
_cell_angle_alpha	89.999509
_cell_angle_beta	90.007196
_cell_angle_gamma	96.116695
loop_
_atom_site_label
_atom_site_type_symbol
_atom_site_fract_x
_atom_site_fract_y
_atom_site_fract_z
O1	O	0.158807	-1.005081	0.066274
O2	O	0.492140	-0.671748	0.399608
O3	O	0.825473	-0.338414	0.732941
O4	O	0.179469	-0.784834	0.066279
O5	O	0.512802	-0.451500	0.399612
O6	O	0.846136	-0.118167	0.732946
O7	O	-0.013690	-0.900022	0.066272
O8	O	0.319643	-0.566689	0.399605
O9	O	0.652976	-0.233356	0.732938
O10	O	0.351966	-0.889892	0.066282
O11	O	0.685299	-0.556559	0.399615
O12	O	1.018633	-0.223226	0.732948
O13	O	-0.013707	-0.900020	-0.066305
O14	O	0.319626	-0.566687	0.267028
O15	O	0.652959	-0.233353	0.600362
O16	O	0.179452	-0.784832	-0.066298
O17	O	0.512785	-0.451498	0.267036
O18	O	0.846119	-0.118165	0.600369
O19	O	0.158790	-1.005079	-0.066302
O20	O	0.492123	-0.671746	0.267031
O21	O	0.825456	-0.338412	0.600365
Zn22	Zn	0.169118	-0.894955	-0.087349
Zn23	Zn	0.502451	-0.561622	0.245984
Zn24	Zn	0.835785	-0.228288	0.579317
Zn25	Zn	0.169141	-0.894958	0.087326
Zn26	Zn	0.502474	-0.561624	0.420659
Zn27	Zn	0.835807	-0.228291	0.753993
O28	O	0.351949	-0.889890	-0.066295
O29	O	0.685282	-0.556557	0.267038
O30	O	1.018616	-0.223224	0.600372
C31	C	0.178720	-0.756631	-0.000009
C32	C	0.512054	-0.423298	0.333325
C33	C	0.845387	-0.089964	0.666658
C34	C	0.176500	-0.672599	-0.000007
C35	C	0.509833	-0.339265	0.333326
C36	C	0.843166	-0.005932	0.666659
C37	C	0.175444	-0.633124	-0.072275
C38	C	0.508777	-0.299790	0.261058
C39	C	0.842111	0.033543	0.594391
C40	C	0.173338	-0.554168	-0.072276
C41	C	0.506671	-0.220835	0.261057
C42	C	0.840004	0.112499	0.594391
C43	C	0.172296	-0.514688	-0.000008
C44	C	0.505629	-0.181355	0.333326
C45	C	0.838962	0.151979	0.666659
C46	C	0.173348	-0.554169	0.072266
C47	C	0.506681	-0.220836	0.405599
C48	C	0.840014	0.112498	0.738933
C49	C	0.175445	-0.633124	0.072266
C50	C	0.508779	-0.299791	0.405599
C51	C	0.842112	0.033543	0.738933
C52	C	0.164887	-0.235753	0.072268
C53	C	0.498220	0.097581	0.405602
C54	C	0.831554	0.430914	0.738935
C55	C	0.162793	-0.156792	0.072263
C56	C	0.496126	0.176541	0.405596
C57	C	0.829460	0.509875	0.738930
C58	C	0.162779	-0.156797	-0.072274
C59	C	0.496113	0.176537	0.261060
C60	C	0.829446	0.509870	0.594393
C61	C	0.164877	-0.235752	-0.072274
C62	C	0.498210	0.097582	0.261059
C63	C	0.831543	0.430915	0.594393
C64	C	0.165922	-0.275226	-0.000001
C65	C	0.499255	0.058107	0.333333
C66	C	0.832589	0.391441	0.666666
C67	C	0.168204	-0.360839	-0.000001
C68	C	0.501537	-0.027506	0.333333
C69	C	0.834870	0.305828	0.666666
C70	C	0.170023	-0.429076	-0.000007
C71	C	0.503356	-0.095743	0.333327
C72	C	0.836690	0.237591	0.666660
C73	C	-0.060484	-0.899278	-0.000016
C74	C	0.272849	-0.565944	0.333317
C75	C	0.606183	-0.232611	0.666651
C76	C	-0.199888	-0.897054	-0.000015
C77	C	0.133445	-0.563720	0.333319
C78	C	0.466778	-0.230387	0.666652
C79	C	-0.230271	-1.034793	-0.000028
C80	C	0.103062	-0.701459	0.333306
C81	C	0.436396	-0.368126	0.666639
C82	C	-0.310953	-1.102614	-0.000036
C83	C	0.022381	-0.769281	0.333298
C84	C	0.355714	-0.435948	0.666631
C85	C	-0.441934	-1.100520	-0.000033
C86	C	-0.108601	-0.767186	0.333300
C87	C	0.224733	-0.433853	0.666634
C88	C	-0.492235	-1.030596	-0.000020
C89	C	-0.158902	-0.697263	0.333313
C90	C	0.174432	-0.363930	0.666646
C91	C	-0.411553	-0.962775	-0.000012
C92	C	-0.078220	-0.629442	0.333321
C93	C	0.255113	-0.296108	0.666655
C94	C	-0.280571	-0.964877	-0.000017
C95	C	0.052763	-0.631543	0.333316
C96	C	0.386096	-0.298210	0.666650
C97	C	-0.381171	-0.825037	0.000006
C98	C	-0.047838	-0.491704	0.333340
C99	C	0.285496	-0.158371	0.666673
C100	C	-0.250189	-0.827130	-0.000002
C101	C	0.083144	-0.493797	0.333332
C102	C	0.416477	-0.160464	0.666665
C103	C	-0.431472	-0.755114	0.000019
C104	C	-0.098139	-0.421781	0.333353
C105	C	0.235195	-0.088447	0.666686
C106	C	-0.350790	-0.687291	0.000022
C107	C	-0.017456	-0.353958	0.333355
C108	C	0.315877	-0.020624	0.666688
C109	C	-0.219801	-0.689388	0.000018
C110	C	0.113532	-0.356055	0.333352
C111	C	0.446865	-0.022722	0.666685
C112	C	-0.169508	-0.759309	0.000006
C113	C	0.163826	-0.425975	0.333340
C114	C	0.497159	-0.092642	0.666673
C115	C	0.398743	-0.890635	-0.000005
C116	C	0.732076	-0.557301	0.333328
C117	C	1.065409	-0.223968	0.666661
C118	C	0.538147	-0.892859	-0.000002
C119	C	0.871481	-0.559526	0.333332
C120	C	1.204814	-0.226192	0.666665
C121	C	0.159531	-0.033282	-0.000012
C122	C	0.492864	0.300051	0.333321
C123	C	0.826197	0.633384	0.666655
C124	C	0.161728	-0.117316	-0.000006
C125	C	0.495062	0.216017	0.333327
C126	C	0.828395	0.549351	0.666660
N127	N	0.169147	-0.894960	0.206537
N128	N	0.502480	-0.561627	0.539871
N129	N	0.835814	-0.228293	0.873204
N130	N	0.169102	-0.894959	-0.206560
N131	N	0.502435	-0.561625	0.126773
N132	N	0.835769	-0.228292	0.460106
C133	C	0.083784	-0.946062	0.248251
C134	C	0.417117	-0.612729	0.581584
C135	C	0.750450	-0.279395	0.914918
C136	C	0.083781	-0.946065	0.331703
C137	C	0.417114	-0.612732	0.665037
C138	C	0.750447	-0.279398	0.998370
C139	C	0.169135	-0.894962	0.373440
C140	C	0.502469	-0.561628	0.706773
C141	C	0.835802	-0.228295	1.040107
C142	C	0.254508	-0.843857	0.331720
C143	C	0.587841	-0.510524	0.665054
C144	C	0.921174	-0.177190	0.998387
C145	C	0.254516	-0.843858	0.248270
C146	C	0.587849	-0.510525	0.581603
C147	C	0.921183	-0.177192	0.914936
C148	C	0.254477	-0.843851	0.668268
C149	C	0.587811	-0.510518	1.001601
C150	C	0.921144	-0.177185	1.334934
C151	C	0.254460	-0.843852	0.751724
C152	C	0.587793	-0.510519	1.085057
C153	C	0.921127	-0.177186	1.418391
C154	C	0.083742	-0.946058	0.751701
C155	C	0.417075	-0.612724	1.085035
C156	C	0.750409	-0.279391	1.418368
C157	C	0.083750	-0.946059	0.668251
C158	C	0.417084	-0.612726	1.001584
C159	C	0.750417	-0.279392	1.334917
C160	C	0.169126	-0.894958	0.626538
C161	C	0.502460	-0.561624	0.959871
C162	C	0.835793	-0.228291	1.293205
C163	C	0.169130	-0.894956	0.536050
C164	C	0.502464	-0.561623	0.869383
C165	C	0.835797	-0.228289	1.202716
C166	C	0.169126	-0.894959	0.463927
C167	C	0.502460	-0.561626	0.797260
C168	C	0.835793	-0.228292	1.130594
H169	H	0.161944	-0.124650	0.131116
H170	H	0.495277	0.208684	0.464449
H171	H	0.828610	0.542017	0.797783
H172	H	0.014243	-0.987670	0.634271
H173	H	0.347576	-0.654336	0.967604
H174	H	0.680909	-0.321003	1.300938
H175	H	-0.391756	-0.630365	0.000038
H176	H	-0.058423	-0.297031	0.333371
H177	H	0.274910	0.036302	0.666704
H178	H	0.172491	-0.522019	0.131108
H179	H	0.505824	-0.188686	0.464442
H180	H	0.839157	0.144648	0.797775
H181	H	-0.123621	-1.036505	-0.000040
H182	H	0.209713	-0.703172	0.333293
H183	H	0.543046	-0.369838	0.666626
H184	H	-0.538125	-0.753414	0.000026
H185	H	-0.204792	-0.420080	0.333360
H186	H	0.128542	-0.086747	0.666693
H187	H	-0.154116	-0.634159	0.000028
H188	H	0.179217	-0.300826	0.333362
H189	H	0.512551	0.032507	0.666695
H190	H	0.165731	-0.267892	-0.131122
H191	H	0.499065	0.065442	0.202211
H192	H	0.832398	0.398775	0.535544
N193	N	-0.008359	-1.001169	0.796691
N194	N	0.324974	-0.667835	1.130024
N195	N	0.658308	-0.334502	1.463357
H196	H	0.004580	-0.993415	0.855890
H197	H	0.337913	-0.660082	1.189223
H198	H	0.671247	-0.326749	1.522556
H199	H	0.006186	-1.054911	0.782110
H200	H	0.339520	-0.721577	1.115444
H201	H	0.672853	-0.388244	1.448777
H202	H	0.172457	-0.522032	-0.131124
H203	H	0.505790	-0.188699	0.202209
H204	H	0.839124	0.144634	0.535543
N205	N	-0.008289	-1.001183	0.376694
N206	N	0.325044	-0.667850	0.710028
N207	N	0.658377	-0.334516	1.043361
H208	H	0.006233	-1.054943	0.362167
H209	H	0.339566	-0.721610	0.695501
H210	H	0.672899	-0.388277	1.028834
H211	H	-0.097405	-0.992037	0.362143
H212	H	0.235928	-0.658703	0.695477
H213	H	0.569262	-0.325370	1.028810
H214	H	0.324029	-0.802247	0.214307
H215	H	0.657362	-0.468914	0.547640
H216	H	0.990695	-0.135580	0.880974
H217	H	-0.598888	-1.028897	-0.000008
H218	H	-0.265555	-0.695564	0.333325
H219	H	0.067778	-0.362230	0.666658
N220	N	-0.028237	-0.761574	0.000012
N221	N	0.305096	-0.428240	0.333346
N222	N	0.638429	-0.094907	0.666679
H223	H	0.015246	-0.708001	0.000022
H224	H	0.348579	-0.374667	0.333355
H225	H	0.681913	-0.041334	0.666689
H226	H	-0.002764	-0.789146	-0.049139
H227	H	0.330569	-0.455812	0.284194
H228	H	0.663903	-0.122479	0.617528
N229	N	0.166044	-0.278318	0.150218
N230	N	0.499377	0.055015	0.483551
N231	N	0.832711	0.388349	0.816885
H232	H	0.167529	-0.334327	0.139258
H233	H	0.500863	-0.000994	0.472591
H234	H	0.834196	0.332340	0.805925
H235	H	0.087867	-0.270246	0.181779
H236	H	0.421200	0.063087	0.515112
H237	H	0.754534	0.396420	0.848446
H238	H	0.176307	-0.665263	0.131114
H239	H	0.509641	-0.331930	0.464448
H240	H	0.842974	0.001403	0.797781
H241	H	-0.269983	-1.159545	-0.000053
H242	H	0.063350	-0.826211	0.333280
H243	H	0.396684	-0.492878	0.666613
N244	N	0.176581	-0.675702	-0.150223
N245	N	0.509914	-0.342369	0.183110
N246	N	0.843248	-0.009035	0.516444
H247	H	0.175591	-0.638711	-0.196004
H248	H	0.508924	-0.305377	0.137329
H249	H	0.842257	0.027956	0.470663
H250	H	0.099633	-0.714193	-0.153376
H251	H	0.432967	-0.380860	0.179958
H252	H	0.766300	-0.047526	0.513291
N253	N	0.161648	-0.114220	-0.150229
N254	N	0.494982	0.219113	0.183105
N255	N	0.828315	0.552446	0.516438
H256	H	0.161910	-0.058092	-0.139271
H257	H	0.495244	0.275241	0.194062
H258	H	0.828577	0.608575	0.527396
H259	H	0.083312	-0.133028	-0.181311
H260	H	0.416646	0.200306	0.152022
H261	H	0.749979	0.533639	0.485355
H262	H	0.014273	-0.987673	0.214275
H263	H	0.347606	-0.654340	0.547608
H264	H	0.680940	-0.321006	0.880941
H265	H	0.323971	-0.802236	0.785705
H266	H	0.657304	-0.468903	1.119038
H267	H	0.990638	-0.135570	1.452371
H268	H	0.323991	-0.802241	0.634312
H269	H	0.657324	-0.468908	0.967645
H270	H	0.990658	-0.135575	1.300978
H271	H	-0.507626	-1.155746	-0.000033
H272	H	-0.174293	-0.822413	0.333300
H273	H	0.159040	-0.489079	0.666633
H274	H	0.324011	-0.802250	0.365707
H275	H	0.657345	-0.468917	0.699041
H276	H	0.990678	-0.135584	1.032374
