data_functionalizedCrystal
_audit_creation_method	'MofGen! by Chris Wilmer'
_symmetry_space_group_name_H-M	'P1'
_symmetry_Int_Tables_number	1
_symmetry_cell_setting	triclinic
loop_
_symmetry_equiv_pos_as_xyz
  x,y,z
_cell_length_a	17.000371
_cell_length_b	16.098538
_cell_length_c	17.038272
_cell_angle_alpha	87.079695
_cell_angle_beta	83.355402
_cell_angle_gamma	92.522126
loop_
_atom_site_label
_atom_site_type_symbol
_atom_site_fract_x
_atom_site_fract_y
_atom_site_fract_z
O1	O	1.061314	0.069260	0.024320
O2	O	0.831493	0.069261	0.052565
O3	O	0.945037	0.069254	-0.075279
O4	O	0.947770	0.069267	0.152164
O5	O	0.938403	-0.069259	-0.067838
O6	O	0.824859	-0.069251	0.060006
O7	O	1.054679	-0.069253	0.031761
Zn8	Zn	0.938716	-0.091244	0.047065
Zn9	Zn	0.947457	0.091252	0.037262
O10	O	0.941135	-0.069245	0.159605
C11	C	0.798625	0.000005	0.057803
C12	C	0.710572	0.000005	0.062314
C13	C	0.673845	-0.000000	-0.007108
C14	C	0.591110	0.000006	-0.002865
C15	C	0.545103	0.000012	0.070801
C16	C	0.581835	0.000020	0.140228
C17	C	0.664569	0.000019	0.135983
C18	C	0.295067	0.000018	0.087195
C19	C	0.212327	0.000016	0.091434
C20	C	0.221609	0.000004	-0.051659
C21	C	0.304344	-0.000001	-0.055896
C22	C	0.341069	0.000011	0.013530
C23	C	0.460534	0.000016	0.075140
C24	C	0.425637	0.000013	0.009190
N25	N	0.932756	-0.215793	0.053755
C26	C	0.980968	-0.259381	-0.000491
C27	C	0.976807	-0.346569	0.004196
C28	C	0.924436	-0.390168	0.063132
C29	C	0.876218	-0.346574	0.117380
C30	C	0.880376	-0.259387	0.112689
C31	C	0.909363	-0.653417	0.080123
C32	C	0.905210	-0.740611	0.084811
C33	C	1.005798	-0.740600	-0.028375
C34	C	1.009955	-0.653411	-0.033057
C35	C	0.961734	-0.609824	0.021188
C36	C	0.920183	-0.479289	0.067925
C37	C	0.965983	-0.520705	0.016391
C38	C	1.087547	0.000005	0.026524
C39	C	1.175601	0.000011	0.022012
C40	C	0.939235	-0.000002	-0.100516
C41	C	0.931823	-0.000002	-0.186802
N42	N	0.953423	0.215801	0.030565
C43	C	0.999881	-0.000003	-0.241577
C44	C	0.992911	0.000005	-0.322651
C45	C	0.917883	0.000008	-0.348947
C46	C	0.849819	0.000012	-0.294165
C47	C	0.856790	0.000010	-0.213093
C48	C	0.893257	0.000020	-0.593019
C49	C	0.886292	0.000019	-0.674097
C50	C	1.029385	0.000014	-0.702577
C51	C	1.036349	0.000007	-0.621503
C52	C	0.968285	0.000015	-0.566728
C53	C	0.910757	0.000013	-0.431817
C54	C	0.975412	0.000015	-0.483860
C55	C	0.946937	0.000013	0.184843
C56	C	0.954350	0.000018	0.271128
H57	H	0.544369	0.000030	0.200207
O58	O	0.854257	-0.782835	0.142085
C59	C	0.812597	-0.725670	0.188967
H60	H	0.812512	-0.663524	0.153780
H61	H	0.748928	-0.750877	0.206493
H62	H	0.842661	-0.716384	0.244536
H63	H	0.694470	0.000020	0.192514
O64	O	0.813396	0.000177	-0.699614
C65	C	0.775008	0.071910	-0.674980
H66	H	0.821191	0.122044	-0.663713
H67	H	0.739135	0.095993	-0.723135
H68	H	0.733657	0.055698	-0.618176
O69	O	1.072727	0.000105	-0.215946
C70	C	1.084483	0.071852	-0.173769
H71	H	1.024555	0.095767	-0.150540
H72	H	1.118893	0.055717	-0.121922
H73	H	1.119508	0.122086	-0.214737
O74	O	0.415879	0.000163	0.146707
C75	C	0.436720	0.071889	0.185357
H76	H	0.464587	0.122027	0.139640
H77	H	0.381356	0.095971	0.219300
H78	H	0.481066	0.055668	0.228383
H79	H	0.801369	0.000011	-0.168494
O80	O	1.109294	0.000038	-0.596097
C81	C	1.167871	0.000014	-0.661828
H82	H	1.143189	0.026246	-0.716851
H83	H	1.221853	0.040218	-0.650519
H84	H	1.185937	-0.066440	-0.671267
H85	H	0.191698	0.000003	-0.108183
O86	O	1.016732	-0.478282	-0.040913
C87	C	0.973432	-0.427908	-0.088752
H88	H	0.914171	-0.414848	-0.054213
H89	H	1.008583	-0.366595	-0.106651
H90	H	0.962531	-0.461546	-0.144075
O91	O	0.167673	0.000175	0.163006
C92	C	0.188510	0.071910	0.201644
H93	H	0.216373	0.122044	0.155921
H94	H	0.133145	0.095993	0.235585
H95	H	0.232859	0.055701	0.244671
H96	H	1.048332	0.000002	-0.367247
O97	O	1.095418	0.000050	-0.755893
C98	C	1.073181	0.000032	-0.833088
H99	H	1.011998	0.026254	-0.833329
H100	H	1.118151	0.040248	-0.875151
H101	H	1.071414	-0.066419	-0.853206
H102	H	1.052599	-0.617915	-0.081048
H103	H	0.877543	-0.514795	0.115913
H104	H	0.837835	0.000026	-0.548430
O105	O	0.470298	0.000156	-0.062393
C106	C	0.456329	0.071876	-0.108749
H107	H	0.433267	0.122021	-0.068421
H108	H	0.513998	0.095952	-0.145281
H109	H	0.410426	0.055650	-0.150031
O110	O	0.776984	0.000126	-0.319809
C111	C	0.772102	0.071873	-0.369687
H112	H	0.834321	0.095789	-0.395481
H113	H	0.736148	0.055739	-0.419804
H114	H	0.741887	0.122107	-0.334111
O115	O	0.718418	0.000032	-0.078734
C116	C	0.668255	0.000011	-0.139095
H117	H	0.609176	0.026233	-0.116501
H118	H	0.697328	0.040224	-0.192519
H119	H	0.657700	-0.066441	-0.157075
O120	O	0.555335	-0.000110	-0.070238
C121	C	0.504330	-0.071854	-0.068217
H122	H	0.486764	-0.095765	-0.004178
H123	H	0.448886	-0.055717	-0.096377
H124	H	0.536092	-0.122092	-0.102461
H125	H	0.324959	0.000034	0.143726
H126	H	0.870101	-0.617936	0.124293
H127	H	1.036501	0.000031	-0.462447
H128	H	1.045056	-0.776096	-0.072540
H129	H	0.341798	-0.000010	-0.115883
O130	O	1.031752	-0.217088	-0.057856
C131	C	1.012634	-0.238455	-0.132855
H132	H	0.948030	-0.262424	-0.127599
H133	H	1.021841	-0.181140	-0.175640
H134	H	1.052570	-0.289076	-0.155972
H135	H	1.016065	-0.382058	-0.039975
O136	O	0.825301	-0.389018	0.174530
C137	C	0.771190	-0.439456	0.138896
H138	H	0.798001	-0.452520	0.076550
H139	H	0.757933	-0.500764	0.175531
H140	H	0.713880	-0.405872	0.135793
O141	O	0.833514	-0.217172	0.165469
C142	C	0.786385	-0.274347	0.218483
H143	H	0.815962	-0.336489	0.220493
H144	H	0.779703	-0.249146	0.280102
H145	H	0.725380	-0.283640	0.197723
O146	O	0.837924	0.000120	-0.457466
C147	C	0.833043	0.071869	-0.507341
H148	H	0.895264	0.095791	-0.533125
H149	H	0.797099	0.055736	-0.557465
H150	H	0.802820	0.122098	-0.471765
