data_functionalizedCrystal
_audit_creation_method	'MofGen! by Chris Wilmer'
_symmetry_space_group_name_H-M	'P1'
_symmetry_Int_Tables_number	1
_symmetry_cell_setting	triclinic
loop_
_symmetry_equiv_pos_as_xyz
  x,y,z
_cell_length_a	12.759400
_cell_length_b	12.759401
_cell_length_c	12.759393
_cell_angle_alpha	90.018894
_cell_angle_beta	89.968231
_cell_angle_gamma	89.989237
loop_
_atom_site_label
_atom_site_type_symbol
_atom_site_fract_x
_atom_site_fract_y
_atom_site_fract_z
Zn1	Zn	-0.418312	-1.606244	-0.594024
Zn2	Zn	0.081688	-1.106244	-0.094024
Zn3	Zn	-0.594032	-1.606142	-0.418344
Zn4	Zn	-0.094032	-1.106142	0.081656
Zn5	Zn	-0.418355	-1.430549	-0.418359
Zn6	Zn	0.081645	-0.930549	0.081641
Zn7	Zn	-0.593938	-1.430535	-0.593981
Zn8	Zn	-0.093938	-0.930535	-0.093981
O9	O	-0.506159	-1.518367	-0.506177
O10	O	-0.006159	-1.018367	-0.006177
O11	O	-0.441643	-1.753251	-0.570731
O12	O	0.058357	-1.253251	-0.070731
O13	O	-0.570785	-1.582812	-0.271325
O14	O	-0.070785	-1.082812	0.228675
O15	O	-0.271328	-1.453905	-0.441685
O16	O	0.228672	-0.953905	0.058315
O17	O	-0.570743	-1.753176	-0.441660
O18	O	-0.070743	-1.253176	0.058340
O19	O	-0.271297	-1.582987	-0.570746
O20	O	0.228703	-1.082987	-0.070746
O21	O	-0.441716	-1.453805	-0.271335
O22	O	0.058284	-0.953805	0.228665
O23	O	-0.441625	-1.283526	-0.441643
O24	O	0.058375	-0.783526	0.058357
O25	O	-0.570583	-1.453879	-0.741008
O26	O	-0.070583	-0.953879	-0.241008
O27	O	-0.570625	-1.283516	-0.570672
O28	O	-0.070625	-0.783516	-0.070672
O29	O	-0.441552	-1.582972	-0.741039
O30	O	0.058448	-1.082972	-0.241039
O31	O	-0.741040	-1.582798	-0.441618
O32	O	-0.241040	-1.082798	0.058382
O33	O	-0.740971	-1.453780	-0.570658
O34	O	-0.240971	-0.953780	-0.070658
C35	C	-0.506120	-1.245400	-0.506155
C36	C	-0.006120	-0.745400	-0.006155
C37	C	-0.506129	-1.128623	-0.506171
C38	C	-0.006129	-0.628623	-0.006171
C39	C	-0.439031	-1.073794	-0.573481
C40	C	0.060969	-0.573794	-0.073481
C41	C	-0.439045	-0.964069	-0.573485
C42	C	0.060955	-0.464069	-0.073485
C43	C	-0.573266	-0.964015	-0.438866
C44	C	-0.073266	-0.464015	0.061134
C45	C	-0.573245	-1.073737	-0.438857
C46	C	-0.073245	-0.573737	0.061143
C47	C	-0.371915	-1.128680	-0.640795
C48	C	0.128085	-0.628680	-0.140795
C49	C	-0.304811	-1.073850	-0.708111
C50	C	0.195189	-0.573850	-0.208111
C51	C	-0.304826	-0.964126	-0.708115
C52	C	0.195174	-0.464126	-0.208115
C53	C	-0.371943	-0.909232	-0.640803
C54	C	0.128057	-0.409232	-0.140803
C55	C	-0.779127	-1.518305	-0.506155
C56	C	-0.279127	-1.018305	-0.006155
C57	C	-0.895903	-1.518374	-0.506181
C58	C	-0.395903	-1.018374	-0.006181
C59	C	-0.950766	-1.585629	-0.439064
C60	C	-0.450766	-1.085629	0.060936
C61	C	-1.060490	-1.585693	-0.439096
C62	C	-0.560490	-1.085693	0.060904
C63	C	-1.060478	-1.451240	-0.573365
C64	C	-0.560478	-0.951240	-0.073365
C65	C	-0.950756	-1.451182	-0.573337
C66	C	-0.450756	-0.951182	-0.073337
C67	C	-0.895913	-1.652821	-0.371907
C68	C	-0.395913	-1.152821	0.128093
C69	C	-0.950776	-1.720080	-0.304784
C70	C	-0.450776	-1.220080	0.195216
C71	C	-1.060500	-1.720144	-0.304817
C72	C	-0.560500	-1.220144	0.195183
C73	C	-1.115361	-1.652950	-0.371972
C74	C	-0.615361	-1.152950	0.128028
C75	C	-0.232126	-1.518459	-0.506222
C76	C	0.267874	-1.018459	-0.006222
C77	C	-0.115349	-1.518497	-0.506241
C78	C	0.384651	-1.018497	-0.006241
C79	C	-0.506052	-1.518436	-0.780210
C80	C	-0.006052	-1.018436	-0.280210
C81	C	-0.506007	-1.518465	-0.896987
C82	C	-0.006007	-1.018465	-0.396987
C83	C	-0.506186	-0.792401	-0.506193
C84	C	-0.006186	-0.292401	-0.006193
C85	C	-0.506164	-0.909177	-0.506183
C86	C	-0.006164	-0.409177	-0.006183
C87	C	-0.438788	-1.451319	-0.951861
C88	C	0.061212	-0.951319	-0.451861
C89	C	-0.438757	-1.451351	-1.061585
C90	C	0.061243	-0.951351	-0.561585
C91	C	-0.573165	-1.585683	-1.061552
C92	C	-0.073165	-1.085683	-0.561552
C93	C	-0.573201	-1.585645	-0.951830
C94	C	-0.073201	-1.085645	-0.451830
C95	C	-0.371593	-1.384139	-0.897018
C96	C	0.128407	-0.884139	-0.397018
C97	C	-0.304369	-1.316989	-0.951892
C98	C	0.195631	-0.816989	-0.451892
C99	C	-0.304337	-1.317021	-1.061616
C100	C	0.195663	-0.817021	-0.561616
C101	C	-0.371531	-1.384203	-1.116466
C102	C	0.128469	-0.884203	-0.616466
C103	C	-0.506190	-1.518360	-0.233209
C104	C	-0.006190	-1.018360	0.266791
C105	C	-0.505940	-1.518534	-0.116433
C106	C	-0.005940	-1.018534	0.383567
H107	H	-0.627911	-0.919311	-0.384065
H108	H	-0.127911	-0.419311	0.115935
H109	H	-0.371927	-0.819887	-0.640789
H110	H	0.128073	-0.319887	-0.140789
H111	H	-0.906086	-1.396418	-0.627991
H112	H	-0.406086	-0.896418	-0.127991
Br113	Br	-0.747003	-1.653061	-0.372184
Br114	Br	-0.247003	-1.153061	0.127816
H115	H	-0.906103	-1.774793	-0.250115
H116	H	-0.406103	-1.274793	0.249885
H117	H	-1.105167	-1.774917	-0.250170
H118	H	-0.605167	-1.274917	0.249830
H119	H	-1.204706	-1.653016	-0.372001
H120	H	-0.704706	-1.153016	0.127999
H121	H	-1.105155	-1.396533	-0.628039
H122	H	-0.605155	-0.896533	-0.128039
Br123	Br	-0.664317	-1.148156	-0.347515
Br124	Br	-0.164317	-0.648156	0.152485
H125	H	-0.249668	-1.262286	-0.907225
H126	H	0.250332	-0.762286	-0.407225
H127	H	-0.371609	-1.384108	-0.807675
H128	H	0.128391	-0.884108	-0.307675
H129	H	-0.250160	-1.118552	-0.762908
H130	H	0.249840	-0.618552	-0.262908
H131	H	-0.249607	-1.262337	-1.106291
H132	H	0.250393	-0.762337	-0.606291
Br133	Br	-0.371493	-1.384238	-1.265379
Br134	Br	0.128507	-0.884238	-0.765379
Br135	Br	-0.371899	-1.277591	-0.640801
Br136	Br	0.128101	-0.777591	-0.140801
Br137	Br	-0.664349	-1.676853	-1.135991
Br138	Br	-0.164349	-1.176853	-0.635991
H139	H	-0.627922	-1.640335	-0.907150
H140	H	-0.127922	-1.140335	-0.407150
H141	H	-0.250180	-0.919486	-0.762920
H142	H	0.249820	-0.419486	-0.262920
