data_functionalizedCrystal
_audit_creation_method	'MofGen! by Chris Wilmer'
_symmetry_space_group_name_H-M	'P1'
_symmetry_Int_Tables_number	1
_symmetry_cell_setting	triclinic
loop_
_symmetry_equiv_pos_as_xyz
  x,y,z
_cell_length_a	18.215407
_cell_length_b	12.594516
_cell_length_c	18.215399
_cell_angle_alpha	90.023782
_cell_angle_beta	90.016899
_cell_angle_gamma	90.009275
loop_
_atom_site_label
_atom_site_type_symbol
_atom_site_fract_x
_atom_site_fract_y
_atom_site_fract_z
Zn1	Zn	1.125139	-0.423825	0.416080
Zn2	Zn	1.625139	0.076175	0.916080
Zn3	Zn	1.125075	-0.601823	0.293022
Zn4	Zn	1.625075	-0.101823	0.793022
Zn5	Zn	1.002071	-0.423851	0.293033
Zn6	Zn	1.502071	0.076149	0.793033
Zn7	Zn	1.002065	-0.601754	0.416053
Zn8	Zn	1.502065	-0.101754	0.916053
O9	O	1.063588	-0.512813	0.354547
O10	O	1.563588	-0.012813	0.854547
O11	O	1.228115	-0.447455	0.399762
O12	O	1.728115	0.052545	0.899762
O13	O	1.108734	-0.578254	0.190039
O14	O	1.608734	-0.078254	0.690039
O15	O	1.018426	-0.274902	0.309371
O16	O	1.518426	0.225098	0.809371
O17	O	1.228068	-0.578229	0.309352
O18	O	1.728068	-0.078229	0.809352
O19	O	1.108843	-0.274883	0.399773
O20	O	1.608843	0.225117	0.899773
O21	O	1.018364	-0.447498	0.190047
O22	O	1.518364	0.052502	0.690047
O23	O	0.899086	-0.447432	0.309346
O24	O	1.399086	0.052568	0.809346
O25	O	1.018415	-0.578112	0.519041
O26	O	1.518415	-0.078112	1.019041
O27	O	0.899082	-0.578137	0.399728
O28	O	1.399082	-0.078137	0.899728
O29	O	1.108837	-0.447388	0.519060
O30	O	1.608837	0.052612	1.019060
O31	O	1.108729	-0.750759	0.309327
O32	O	1.608729	-0.250759	0.809327
O33	O	1.018354	-0.750709	0.399718
O34	O	1.518354	-0.250709	0.899718
C35	C	0.872381	-0.512781	0.354536
C36	C	1.372381	-0.012781	0.854536
C37	C	0.790583	-0.512792	0.354548
C38	C	1.290583	-0.012792	0.854548
C39	C	0.525542	-0.580983	0.401545
C40	C	1.025542	-0.080983	0.901545
C41	C	0.602401	-0.580974	0.401541
C42	C	1.102401	-0.080974	0.901541
C43	C	0.602375	-0.444667	0.307563
C44	C	1.102375	0.055333	0.807563
C45	C	0.525517	-0.444683	0.307563
C46	C	1.025517	0.055317	0.807563
C47	C	0.487103	-0.512839	0.354558
C48	C	0.987103	-0.012839	0.854558
C49	C	0.640819	-0.512814	0.354554
C50	C	1.140819	-0.012814	0.854554
C51	C	0.724153	-0.512804	0.354550
C52	C	1.224153	-0.012804	0.854550
C53	C	0.403764	-0.512851	0.354562
C54	C	0.903764	-0.012851	0.854562
C55	C	1.063554	-0.789354	0.354534
C56	C	1.563554	-0.289354	0.854534
C57	C	1.063606	-0.907660	0.354553
C58	C	1.563606	-0.407660	0.854553
C59	C	1.112818	-0.976901	0.305442
C60	C	1.612818	-0.476901	0.805442
C61	C	1.130801	-1.047606	0.372613
C62	C	1.630801	-0.547606	0.872613
C63	C	1.045716	-1.047754	0.287426
C64	C	1.545716	-0.547754	0.787426
C65	C	1.081623	-0.976806	0.421759
C66	C	1.581623	-0.476806	0.921759
C67	C	0.996507	-0.976948	0.336527
C68	C	1.496507	-0.476948	0.836527
C69	C	1.014464	-1.047620	0.403743
C70	C	1.514464	-0.547620	0.903743
C71	C	1.255541	-0.512847	0.354559
C72	C	1.755541	-0.012847	0.854559
C73	C	1.337339	-0.512861	0.354564
C74	C	1.837339	-0.012861	0.854564
C75	C	1.063632	-0.512740	0.546500
C76	C	1.563632	-0.012740	1.046500
C77	C	1.063652	-0.512709	0.628299
C78	C	1.563652	-0.012709	1.128299
C79	C	1.063642	-0.235192	0.354576
C80	C	1.563642	0.264808	0.854576
C81	C	1.063665	-0.116887	0.354588
C82	C	1.563665	0.383113	0.854588
C83	C	1.063585	-0.512809	0.163341
C84	C	1.563585	-0.012809	0.663341
C85	C	1.063709	-0.512541	0.081542
C86	C	1.563709	-0.012541	0.581542
C87	C	1.110751	-0.444577	0.816504
C88	C	1.610751	0.055423	1.316504
C89	C	1.110760	-0.444546	0.893363
C90	C	1.610760	0.055454	1.393363
C91	C	1.016604	-0.580675	0.893332
C92	C	1.516604	-0.080675	1.393332
C93	C	1.016592	-0.580700	0.816474
C94	C	1.516592	-0.080700	1.316474
C95	C	1.063670	-0.512653	0.778063
C96	C	1.563670	-0.012653	1.278063
C97	C	1.063691	-0.512597	0.931779
C98	C	1.563691	-0.012597	1.431779
C99	C	1.063700	-0.512564	1.015113
C100	C	1.563700	-0.012564	1.515113
C101	C	1.063660	-0.512684	0.694724
C102	C	1.563660	-0.012684	1.194724
H103	H	0.494219	-0.389190	0.269297
H104	H	0.994219	0.110810	0.769297
C105	C	0.964794	-0.655589	0.774186
C106	C	1.464794	-0.155589	1.274186
N107	N	0.925780	-0.711991	0.742335
N108	N	1.425780	-0.211991	1.242335
C109	C	0.964820	-0.655522	0.935592
C110	C	1.464820	-0.155522	1.435592
N111	N	0.925815	-0.711897	0.967422
N112	N	1.425815	-0.211897	1.467422
H113	H	1.154442	-0.945849	0.263948
H114	H	1.654442	-0.445849	0.763948
H115	H	0.633661	-0.389175	0.269302
H116	H	1.133661	0.110825	0.769302
C117	C	0.483289	-0.655967	0.453233
C118	C	0.983289	-0.155967	0.953233
N119	N	0.451466	-0.712452	0.492164
N120	N	0.951466	-0.212452	0.992164
H121	H	0.633694	-0.636465	0.439801
H122	H	1.133694	-0.136465	0.939801
C123	C	1.102194	-0.934887	0.498492
C124	C	1.602194	-0.434887	0.998492
N125	N	1.117690	-0.903312	0.556285
N126	N	1.617690	-0.403312	1.056285
C127	C	1.207493	-1.089547	0.393235
C128	C	1.707493	-0.589547	0.893235
N129	N	1.265259	-1.121136	0.408762
N130	N	1.765259	-0.621136	0.908762
H131	H	0.972872	-1.078476	0.445338
H132	H	1.472872	-0.578476	0.945338
C133	C	0.919839	-0.934968	0.315871
C134	C	1.419839	-0.434968	0.815871
N135	N	0.862093	-0.903344	0.300304
N136	N	1.362093	-0.403344	0.800304
H137	H	1.030559	-1.078917	0.230643
H138	H	1.530559	-0.578917	0.730643
H139	H	1.149083	-0.389165	0.785232
H140	H	1.649083	0.110835	1.285232
H141	H	1.149097	-0.389110	0.924659
H142	H	1.649097	0.110890	1.424659
