data_functionalizedCrystal
_audit_creation_method	'MofGen! by Chris Wilmer'
_symmetry_space_group_name_H-M	'P1'
_symmetry_Int_Tables_number	1
_symmetry_cell_setting	triclinic
loop_
_symmetry_equiv_pos_as_xyz
  x,y,z
_cell_length_a	27.732025
_cell_length_b	19.188930
_cell_length_c	18.266242
_cell_angle_alpha	90.022918
_cell_angle_beta	90.008162
_cell_angle_gamma	97.110871
loop_
_atom_site_label
_atom_site_type_symbol
_atom_site_fract_x
_atom_site_fract_y
_atom_site_fract_z
O1	O	0.060349	-0.925757	-0.061093
O2	O	0.068472	-0.722393	-0.061040
O3	O	-0.005968	-0.830400	-0.061090
O4	O	0.134789	-0.817751	-0.061042
O5	O	-0.005971	-0.830381	0.060672
O6	O	0.068469	-0.722375	0.060722
O7	O	0.060345	-0.925739	0.060669
Zn8	Zn	0.064406	-0.824054	0.080028
Zn9	Zn	0.064411	-0.824078	-0.080399
O10	O	0.134785	-0.817733	0.060720
C11	C	0.068207	-0.696375	-0.000152
C12	C	0.067418	-0.618876	-0.000133
C13	C	0.060610	-0.951758	-0.000220
C14	C	0.061400	-1.029257	-0.000244
C15	C	-0.023977	-0.830127	-0.000216
C16	C	-0.077635	-0.829335	-0.000238
C17	C	-0.460816	-0.823717	-0.066566
C18	C	-0.259148	-0.826681	-0.066591
O19	O	-0.233077	-0.827101	-0.123040
N20	N	-0.233927	-0.827042	-0.000220
C21	C	-0.259128	-0.826666	0.066161
O22	O	-0.233049	-0.827048	0.122613
C23	C	-0.460796	-0.823707	0.066185
C24	C	-0.486013	-0.823339	-0.000190
C25	C	-0.486033	-0.823350	-0.132936
C26	C	-0.536447	-0.822605	-0.132929
C27	C	-0.561644	-0.822227	-0.066553
C28	C	-0.536426	-0.822594	-0.000183
C29	C	-0.485996	-0.823336	0.132565
C30	C	-0.536416	-0.822598	0.132565
C31	C	-0.561633	-0.822230	0.066190
C32	C	-0.612037	-0.821471	0.066199
N33	N	-0.637257	-0.821110	-0.000171
C34	C	-0.612060	-0.821488	-0.066547
C35	C	-0.153249	-0.828219	0.066144
C36	C	-0.102832	-0.828957	0.066138
C37	C	-0.102856	-0.828974	-0.066614
C38	C	-0.153273	-0.828230	-0.066607
C39	C	-0.178469	-0.827858	-0.000226
C40	C	-0.717933	-0.819923	-0.066528
C41	C	-0.768351	-0.819175	-0.066515
C42	C	-0.768323	-0.819162	0.066236
C43	C	-0.717909	-0.819907	0.066224
C44	C	-0.692716	-0.820289	-0.000164
O45	O	-0.638139	-0.821059	0.122619
O46	O	-0.638149	-0.821122	-0.122990
C47	C	-0.410402	-0.824462	-0.066573
C48	C	-0.385185	-0.824829	-0.000204
C49	C	-0.410382	-0.824451	0.066172
C50	C	-0.334768	-0.825567	-0.000209
C51	C	-0.309572	-0.825945	-0.066585
C52	C	-0.334792	-0.825585	-0.132956
C53	C	-0.385206	-0.824840	-0.132949
C54	C	-0.385161	-0.824811	0.132543
C55	C	-0.334748	-0.825556	0.132531
C56	C	-0.309551	-0.825934	0.066155
C57	C	0.152795	-0.818005	-0.000156
C58	C	0.206453	-0.818797	-0.000139
N59	N	0.064402	-0.824043	0.189515
C60	C	0.111097	-0.573668	-0.000130
C61	C	0.110355	-0.500849	-0.000138
C62	C	0.065931	-0.473241	-0.000165
C63	C	0.022247	-0.518458	-0.000164
C64	C	0.022990	-0.591276	-0.000148
N65	N	0.031977	-0.365487	-0.041647
N66	N	0.031274	-0.296313	-0.041663
C67	C	0.063690	-0.253847	-0.000210
N68	N	0.096843	-0.283166	0.041251
N69	N	0.097547	-0.352346	0.041264
C70	C	0.065121	-0.394284	-0.000181
C71	C	0.106567	-0.129680	-0.000215
C72	C	0.105823	-0.056860	-0.000218
C73	C	0.017714	-0.074471	-0.000251
C74	C	0.018459	-0.147289	-0.000240
C75	C	0.062887	-0.174889	-0.000225
N76	N	0.064411	-0.824095	-0.189886
C77	C	0.031456	-0.871884	0.227801
C78	C	0.031454	-0.871888	0.304446
C79	C	0.064406	-0.824059	0.342802
C80	C	0.097355	-0.776209	0.304506
C81	C	0.097353	-0.776201	0.227863
N82	N	0.107197	-0.814705	0.463150
N83	N	0.107197	-0.814717	0.535958
C84	C	0.064413	-0.824078	0.573724
N85	N	0.021628	-0.833441	0.535932
N86	N	0.021628	-0.833433	0.463117
C87	C	0.064412	-0.824061	0.425909
C88	C	0.031462	-0.871926	0.695118
C89	C	0.031459	-0.871926	0.771764
C90	C	0.097364	-0.776250	0.771823
C91	C	0.097363	-0.776247	0.695178
C92	C	0.064412	-0.824089	0.656830
H93	H	-0.788880	-0.818873	-0.120568
C94	C	0.133641	-0.723668	0.653061
N95	N	0.160979	-0.684078	0.621339
H96	H	0.147273	-0.596134	-0.000119
H97	H	0.004628	-0.910881	0.802938
C98	C	-0.004786	-0.924525	0.346570
N99	N	-0.032080	-0.964175	0.378295
C100	C	-0.029592	-0.197020	-0.000253
N101	N	-0.065787	-0.234478	-0.000261
C102	C	-0.180958	-0.827800	0.139173
N103	N	-0.201825	-0.827480	0.194179
C104	C	0.153876	-0.007130	-0.000204
N105	N	0.190071	0.030326	-0.000191
H106	H	0.124182	-0.737243	0.196689
C107	C	-0.004788	-0.924546	0.652933
N108	N	-0.032093	-0.964179	0.621161
H109	H	-0.697426	-0.820235	-0.120587
H110	H	0.124192	-0.737304	0.803051
H111	H	-0.556975	-0.822310	-0.186978
C112	C	-0.458268	-0.823743	0.205584
N113	N	-0.437385	-0.824052	0.260586
C114	C	-0.458325	-0.823762	-0.205961
N115	N	-0.437457	-0.824067	-0.260969
H116	H	-0.173801	-0.827929	-0.120655
H117	H	-0.697374	-0.820178	0.120272
C118	C	-0.004795	-0.924505	0.185623
N119	N	-0.032101	-0.964137	0.153854
H120	H	-0.012580	-0.628085	-0.000151
H121	H	0.124184	-0.737264	0.335739
H122	H	-0.082331	-0.829277	-0.120660
C123	C	-0.075098	-0.829352	0.139156
N124	N	-0.054211	-0.829654	0.194155
C125	C	-0.796049	-0.818744	0.139246
N126	N	-0.816934	-0.818433	0.194238
C127	C	-0.564128	-0.822185	0.205591
N128	N	-0.585000	-0.821871	0.260594
C129	C	0.155438	-0.160042	-0.000189
N130	N	0.192248	-0.182909	-0.000169
C131	C	0.158407	-0.451111	-0.000143
N132	N	0.194600	-0.413651	-0.000151
C133	C	-0.307066	-0.826004	-0.205970
N134	N	-0.286181	-0.826326	-0.260961
C135	C	-0.307014	-0.825959	0.205553
N136	N	-0.286128	-0.826269	0.260553
H137	H	-0.405672	-0.824506	0.186595
C138	C	-0.031153	-0.044107	-0.000279
N139	N	-0.067960	-0.021233	-0.000299
C140	C	-0.026619	-0.488088	-0.000194
N141	N	-0.063427	-0.465214	-0.000214
H142	H	-0.405733	-0.824540	-0.186998
