data_functionalizedCrystal
_audit_creation_method	'MofGen! by Chris Wilmer'
_symmetry_space_group_name_H-M	'P1'
_symmetry_Int_Tables_number	1
_symmetry_cell_setting	triclinic
loop_
_symmetry_equiv_pos_as_xyz
  x,y,z
_cell_length_a	12.759395
_cell_length_b	17.640280
_cell_length_c	12.759387
_cell_angle_alpha	78.767705
_cell_angle_beta	89.981185
_cell_angle_gamma	78.802277
loop_
_atom_site_label
_atom_site_type_symbol
_atom_site_fract_x
_atom_site_fract_y
_atom_site_fract_z
Zn1	Zn	1.690802	-0.314586	-0.509548
Zn2	Zn	1.726229	-0.446784	-0.298377
Zn3	Zn	1.515118	-0.314632	-0.333873
Zn4	Zn	1.550608	-0.446725	-0.474032
O5	O	1.620689	-0.380682	-0.403958
O6	O	1.842524	-0.332128	-0.481544
O7	O	1.698198	-0.429297	-0.156053
O8	O	1.508744	-0.204019	-0.386895
O9	O	1.868552	-0.429253	-0.326398
O10	O	1.637819	-0.203986	-0.515963
O11	O	1.543096	-0.332206	-0.182131
O12	O	1.372803	-0.332149	-0.352457
O13	O	1.569231	-0.429153	-0.625776
O14	O	1.398878	-0.429197	-0.455431
O15	O	1.672232	-0.332071	-0.651870
O16	O	1.732611	-0.557383	-0.291960
O17	O	1.603583	-0.557339	-0.421013
C18	C	1.347719	-0.380672	-0.403942
C19	C	1.230947	-0.380687	-0.403955
C20	C	1.258180	-0.481907	-0.510922
C21	C	1.216938	-0.532523	-0.564406
C22	C	1.107219	-0.532533	-0.564416
C23	C	1.038738	-0.481919	-0.510939
C24	C	1.079980	-0.431303	-0.457455
C25	C	1.189704	-0.431300	-0.457447
C26	C	1.052746	-0.330080	-0.350496
C27	C	1.162465	-0.330073	-0.350478
C28	C	0.984265	-0.279467	-0.297019
C29	C	1.025508	-0.228853	-0.243527
C30	C	1.135234	-0.228846	-0.243517
C31	C	1.203708	-0.279457	-0.296994
C32	C	1.675821	-0.586040	-0.348804
C33	C	1.699503	-0.673893	-0.325244
C34	C	1.441213	-0.962856	-0.583322
C35	C	1.463468	-1.045408	-0.561150
C36	C	1.597908	-1.045387	-0.426903
C37	C	1.575668	-0.962834	-0.449067
C38	C	1.497319	-0.921575	-0.527277
C39	C	1.631774	-0.921553	-0.393022
C40	C	1.609532	-0.839007	-0.415181
C41	C	1.531184	-0.797742	-0.493385
C42	C	1.475077	-0.839029	-0.549435
C43	C	1.710118	-0.962814	-0.314808
C44	C	1.766224	-0.921532	-0.258763
C45	C	1.743987	-0.838985	-0.280926
C46	C	1.665639	-0.797720	-0.359130
C47	C	1.800094	-0.797698	-0.224876
C48	C	1.777852	-0.715152	-0.247034
C49	C	1.643397	-0.715174	-0.381289
C50	C	1.894726	-0.380692	-0.403974
C51	C	2.011503	-0.380696	-0.403980
C52	C	1.620739	-0.380600	-0.678013
C53	C	1.620760	-0.380565	-0.794799
C54	C	1.565371	-0.174522	-0.459350
C55	C	1.541798	-0.086668	-0.482955
C56	C	1.459259	-0.279457	-0.821975
C57	C	1.378523	-0.228887	-0.890428
C58	C	1.378547	-0.228859	-1.000158
C59	C	1.459313	-0.279407	-1.041435
C60	C	1.540049	-0.329977	-0.972981
C61	C	1.540018	-0.329998	-0.863252
C62	C	1.701544	-0.431088	-0.945805
C63	C	1.701526	-0.431114	-0.836076
C64	C	1.782310	-0.481636	-0.987082
C65	C	1.863052	-0.532203	-0.918629
C66	C	1.863025	-0.532229	-0.808894
C67	C	1.782262	-0.481684	-0.767623
C68	C	1.620685	-0.380706	-0.130984
C69	C	1.620808	-0.380518	-0.014258
H70	H	1.347522	-0.481910	-0.510909
O71	O	1.507167	-0.708710	-0.517298
H72	H	1.580504	-0.686874	-0.544477
O73	O	0.920403	-0.481950	-0.510907
H74	H	0.903233	-0.525660	-0.557064
H75	H	1.411284	-0.805435	-0.613130
O76	O	0.865932	-0.279503	-0.296975
H77	H	0.848760	-0.323219	-0.343121
O78	O	1.782237	-0.481705	-0.649274
H79	H	1.776990	-0.541326	-0.604313
H80	H	1.728227	-1.030028	-0.296772
H81	H	0.969742	-0.187644	-0.199996
O82	O	1.179720	-0.174261	-0.185817
H83	H	1.113667	-0.139078	-0.148627
H84	H	1.377421	-0.929261	-0.647016
O85	O	1.290790	-0.587094	-0.622114
H86	H	1.374015	-0.578586	-0.613128
O87	O	1.062737	-0.587170	-0.622026
H88	H	1.128789	-0.622383	-0.659179
O89	O	1.782398	-0.481589	-1.105437
H90	H	1.777172	-0.541188	-1.118387
H91	H	1.830013	-0.955137	-0.195082
O92	O	1.291483	-0.174301	-1.073995
H93	H	1.305076	-0.182775	-1.157229
O94	O	1.950158	-0.586718	-0.963145
H95	H	1.936611	-0.578202	-1.050946
H96	H	1.417786	-1.079016	-0.606807
O97	O	1.459342	-0.279382	-1.159784
H98	H	1.389635	-0.235725	-1.200449
O99	O	1.291418	-0.174369	-0.845903
H100	H	1.235279	-0.139205	-0.911937
O101	O	1.322050	-0.279453	-0.296975
H102	H	1.346745	-0.263550	-0.380523
H103	H	1.863879	-0.831304	-0.161190
O104	O	1.558891	-0.670670	-0.465647
H105	H	1.595742	-0.633014	-0.529252
O106	O	1.682440	-1.089888	-0.342580
H107	H	1.688496	-1.154223	-0.336599
H108	H	1.823539	-0.681541	-0.201395
H109	H	1.459238	-0.279469	-0.732631
H110	H	1.928773	-0.573407	-0.753165
