data_functionalizedCrystal
_audit_creation_method	'MofGen! by Chris Wilmer'
_symmetry_space_group_name_H-M	'P1'
_symmetry_Int_Tables_number	1
_symmetry_cell_setting	triclinic
loop_
_symmetry_equiv_pos_as_xyz
  x,y,z
_cell_length_a	16.992694
_cell_length_b	17.699083
_cell_length_c	15.455313
_cell_angle_alpha	92.658725
_cell_angle_beta	87.142206
_cell_angle_gamma	86.975619
loop_
_atom_site_label
_atom_site_type_symbol
_atom_site_fract_x
_atom_site_fract_y
_atom_site_fract_z
O1	O	-1.043523	-0.157370	0.072025
O2	O	-0.815243	-0.155608	0.072050
O3	O	-0.935832	-0.046702	0.072029
O4	O	-0.922934	-0.266276	0.072046
O5	O	-0.928936	-0.052902	-0.072232
O6	O	-0.808347	-0.161808	-0.072211
O7	O	-1.036627	-0.163570	-0.072236
Cu8	Cu	-0.921857	-0.163255	-0.085395
Cu9	Cu	-0.930013	-0.155923	0.085210
O10	O	-0.916038	-0.272477	-0.072215
C11	C	-0.782587	-0.156443	-0.000077
C12	C	-0.695556	-0.149686	-0.000067
C13	C	-0.931922	-0.021576	-0.000101
C14	C	-0.930535	0.062528	-0.000101
C15	C	-1.069284	-0.162735	-0.000107
C16	C	-1.156315	-0.169492	-0.000111
C17	C	-0.645191	-0.214883	-0.000063
C18	C	-0.563416	-0.208530	-0.000076
C19	C	-0.532007	-0.136979	-0.000086
C20	C	-0.582378	-0.071777	-0.000093
C21	C	-0.664151	-0.078131	-0.000087
C22	C	-0.288459	-0.110644	-0.000111
C23	C	-0.206679	-0.104294	-0.000115
C24	C	-0.187723	-0.241049	-0.000099
C25	C	-0.269498	-0.247397	-0.000088
C26	C	-0.319862	-0.182194	-0.000099
N27	N	-0.448420	-0.130483	-0.000096
N28	N	-0.403447	-0.188691	-0.000095
C29	C	-0.919948	-0.297602	-0.000083
C30	C	-0.921335	-0.381706	-0.000077
N31	N	-0.916127	-0.168413	-0.205390
C32	C	-1.001319	0.106742	-0.000111
C33	C	-1.000012	0.185767	-0.000103
C34	C	-0.927920	0.220577	-0.000092
C35	C	-0.857131	0.176357	-0.000080
C36	C	-0.858439	0.097334	-0.000082
C37	C	-0.851853	0.495049	-0.000073
C38	C	-0.850550	0.574079	-0.000074
C39	C	-0.993426	0.583482	-0.000094
C40	C	-0.994734	0.504459	-0.000095
C41	C	-0.923946	0.460247	-0.000079
C42	C	-0.925364	0.374559	-0.000086
C43	C	-0.926500	0.306263	-0.000091
C44	C	-0.967376	-0.122165	-0.250793
C45	C	-0.963049	-0.126072	-0.341600
C46	C	-0.907478	-0.176232	-0.387003
C47	C	-0.856224	-0.222482	-0.341593
C48	C	-0.860547	-0.218570	-0.250788
C49	C	-0.888818	-0.193098	-0.658581
C50	C	-0.884500	-0.197008	-0.749393
C51	C	-0.991325	-0.100596	-0.749393
C52	C	-0.995647	-0.096692	-0.658586
C53	C	-0.944390	-0.142939	-0.613185
N54	N	-0.903056	-0.180230	-0.479822
N55	N	-0.948809	-0.138938	-0.520367
N56	N	-0.935749	-0.150760	0.205204
H57	H	-0.670757	-0.273148	-0.000054
O58	O	-0.783018	0.452219	-0.000107
C59	C	-0.641164	0.451239	-0.000051
C60	C	-0.719064	0.499839	-0.000028
H61	H	-0.589438	0.489720	0.000031
H62	H	-0.635264	0.411434	-0.060439
H63	H	-0.641125	0.416579	0.060307
H64	H	-0.719157	0.534545	-0.060345
H65	H	-0.724933	0.539596	0.060400
H66	H	-0.522412	-0.261621	-0.000071
H67	H	-0.791841	0.602418	-0.000067
H68	H	-1.040897	-0.055848	-0.621621
H69	H	-0.329455	-0.057551	-0.000121
O70	O	-0.176263	-0.034740	-0.000012
C71	C	-0.170961	0.087284	0.074737
C72	C	-0.205481	0.008555	0.074713
H73	H	-0.194556	0.122305	0.135154
H74	H	-0.188852	0.117211	0.014400
H75	H	-0.103864	0.080597	0.074697
H76	H	-0.272580	0.015173	0.074783
H77	H	-0.187527	-0.021344	0.135044
O78	O	-1.068841	0.228601	-0.000156
C79	C	-1.210699	0.229591	-0.000138
C80	C	-1.132804	0.180991	-0.000098
H81	H	-1.262434	0.191119	-0.000073
H82	H	-1.210822	0.264215	-0.060525
H83	H	-1.216508	0.269431	0.060221
H84	H	-1.126946	0.141109	-0.060417
H85	H	-1.132716	0.146419	0.060328
H86	H	-0.705158	-0.025040	-0.000090
O87	O	-0.830438	-0.245746	-0.793364
C88	C	-0.724951	-0.340974	-0.783786
C89	C	-0.786125	-0.285806	-0.733881
H90	H	-0.689119	-0.373390	-0.735716
H91	H	-0.683784	-0.307765	-0.826286
H92	H	-0.756707	-0.382651	-0.826311
H93	H	-0.754435	-0.244118	-0.691308
H94	H	-0.827289	-0.319066	-0.691435
O95	O	-1.064835	0.470769	-0.000067
C96	C	-1.206413	0.488437	-0.000131
C97	C	-1.127080	0.526687	-0.000147
H98	H	-1.256758	0.533628	-0.000214
H99	H	-1.213535	0.454292	0.060256
H100	H	-1.207670	0.449061	-0.060490
H101	H	-1.125768	0.566099	0.060171
H102	H	-1.119989	0.560785	-0.060574
H103	H	-0.818814	-0.256229	-0.213821
O104	O	-0.787167	0.210289	-0.000108
C105	C	-0.721829	0.327860	-0.000051
C106	C	-0.801119	0.289533	-0.000036
H107	H	-0.733083	0.391935	0.000026
H108	H	-0.683959	0.307465	-0.060433
H109	H	-0.689744	0.312549	0.060313
H110	H	-0.833270	0.304826	-0.060358
H111	H	-0.838931	0.309929	0.060387
H112	H	-0.556798	-0.013518	-0.000114
H113	H	-0.295065	-0.305661	-0.000069
H114	H	-0.146708	-0.294133	-0.000092
O115	O	-0.789606	0.054493	-0.000112
C116	C	-0.647752	0.053503	-0.000032
C117	C	-0.725648	0.102108	-0.000026
H118	H	-0.596023	0.091980	0.000056
H119	H	-0.641848	0.013694	-0.060417
H120	H	-0.647726	0.018846	0.060329
H121	H	-0.725728	0.136811	-0.060346
H122	H	-0.731522	0.141869	0.060399
O123	O	-1.021382	-0.073373	-0.206827
C124	C	-1.126908	0.021812	-0.216423
C125	C	-1.065772	-0.033401	-0.266318
H126	H	-1.162825	0.054132	-0.264500
H127	H	-1.095199	0.063564	-0.173947
H128	H	-1.168000	-0.011432	-0.173874
H129	H	-1.024664	-0.000221	-0.308914
H130	H	-1.097533	-0.075154	-0.308740
O131	O	-1.012728	-0.081069	-0.385739
C132	C	-1.024757	0.016825	-0.488308
C133	C	-0.968403	-0.034086	-0.438364
H134	H	-0.988942	0.054812	-0.530881
H135	H	-1.065206	0.053395	-0.440293
H136	H	-1.061847	-0.020086	-0.530770
H137	H	-0.931262	0.002767	-0.395900
H138	H	-0.928007	-0.070660	-0.486425
H139	H	-0.847084	-0.230755	-0.621622
H140	H	-1.033055	-0.062943	-0.786368
H141	H	-1.060024	0.078406	-0.000125
O142	O	-0.802311	-0.271190	-0.385829
C143	C	-0.748279	-0.319917	-0.525716
C144	C	-0.809384	-0.264732	-0.475731
H145	H	-0.753966	-0.314703	-0.598410
H146	H	-0.759223	-0.380405	-0.507910
H147	H	-0.686366	-0.305459	-0.507822
H148	H	-0.871320	-0.279121	-0.493597
H149	H	-0.798371	-0.204260	-0.493541
H150	H	-1.051065	0.619490	-0.000102
