data_functionalizedCrystal
_audit_creation_method	'MofGen! by Chris Wilmer'
_symmetry_space_group_name_H-M	'P1'
_symmetry_Int_Tables_number	1
_symmetry_cell_setting	triclinic
loop_
_symmetry_equiv_pos_as_xyz
  x,y,z
_cell_length_a	15.995350
_cell_length_b	15.995343
_cell_length_c	15.455313
_cell_angle_alpha	87.323095
_cell_angle_beta	87.330785
_cell_angle_gamma	96.509221
loop_
_atom_site_label
_atom_site_type_symbol
_atom_site_fract_x
_atom_site_fract_y
_atom_site_fract_z
O1	O	-0.104238	1.114655	-0.072036
O2	O	-0.117571	0.870880	-0.072056
O3	O	0.010984	0.999431	-0.072048
O4	O	-0.232792	0.986103	-0.072043
O5	O	0.003662	0.992080	0.072213
O6	O	-0.124892	0.863528	0.072206
O7	O	-0.111559	1.107304	0.072226
Cu8	Cu	-0.118894	0.984745	0.085388
Cu9	Cu	-0.110236	0.993438	-0.085218
O10	O	-0.240113	0.978752	0.072219
C11	C	-0.120681	0.836009	0.000073
C12	C	-0.119032	0.743059	0.000065
C13	C	-0.116039	0.572872	0.000076
C14	C	-0.023242	0.549527	0.000074
C15	C	-0.021513	0.452832	0.000406
C16	C	-0.113091	0.405312	0.000087
C17	C	-0.163923	0.430214	0.082304
C18	C	-0.165027	0.527003	0.082368
C19	C	-0.158060	0.535273	-0.081690
C20	C	-0.154580	0.438833	-0.082766
C21	C	-0.111430	0.310613	0.000095
C22	C	-0.117703	0.667570	0.000073
C23	C	-0.267648	0.982979	0.000089
C24	C	-0.360598	0.984630	0.000091
C25	C	-0.698345	0.990563	0.000078
C26	C	-0.650892	1.082132	-0.000236
C27	C	-0.554219	1.080463	0.000094
C28	C	-0.530785	0.987620	0.000084
C29	C	-0.576049	0.938266	0.082458
C30	C	-0.672688	0.940563	0.082523
C31	C	-0.664710	0.947031	-0.081530
C32	C	-0.567710	0.947108	-0.082614
C33	C	-0.436088	0.985952	0.000091
C34	C	-0.793043	0.992228	0.000078
C35	C	0.038518	0.995205	0.000080
C36	C	0.131469	0.993553	0.000071
C37	C	-0.108448	1.142174	0.000096
C38	C	-0.110098	1.235125	0.000098
N39	N	-0.124983	0.978636	0.205383
N40	N	-0.104140	0.999554	-0.205213
C41	C	-0.070389	1.033269	0.250781
C42	C	-0.075001	1.028657	0.341588
C43	C	-0.134213	0.969416	0.386997
C44	C	-0.188810	0.914778	0.341594
C45	C	-0.184192	0.919387	0.250788
C46	C	-0.154120	0.949524	0.658577
C47	C	-0.158735	0.944921	0.749390
C48	C	-0.044925	1.058799	0.749378
C49	C	-0.040316	1.063406	0.658570
C50	C	-0.094910	1.008765	0.613175
N51	N	-0.138931	0.964702	0.479817
N52	N	-0.090187	1.013476	0.520357
H53	H	-0.226324	0.549327	-0.082481
N54	N	-0.557543	0.847711	0.086525
H55	H	-0.612016	0.809126	0.085709
H56	H	-0.519526	0.837860	0.034879
H57	H	0.015719	0.580538	-0.058876
N58	N	-0.542591	0.975678	0.163670
H59	H	-0.590208	0.996153	0.199003
H60	H	-0.517008	0.931339	0.199060
N61	N	-0.006529	1.097169	0.201807
H62	H	0.027357	1.131077	0.244349
H63	H	0.032422	1.067031	0.164139
H64	H	-0.682080	0.980143	-0.143967
H65	H	-0.136221	0.550645	0.144060
N66	N	-0.521284	1.123796	0.078457
H67	H	-0.458275	1.122894	0.078996
H68	H	-0.534565	1.184075	0.075878
N69	N	-0.715681	0.851286	0.087481
H70	H	-0.696260	0.820925	0.035703
H71	H	-0.700840	0.821096	0.142538
H72	H	-0.673544	1.115604	0.058455
N73	N	0.019678	0.583943	0.078049
H74	H	-0.020727	0.614591	0.113375
H75	H	0.037658	0.535942	0.114840
N76	N	0.013956	1.117730	0.798339
H77	H	0.002050	1.105824	0.862755
H78	H	0.074168	1.108866	0.782473
N79	N	-0.222610	0.881031	0.798370
H80	H	-0.256496	0.847117	0.755834
H81	H	-0.192453	0.842110	0.836063
N82	N	-0.253407	0.387844	0.086060
H83	H	-0.261876	0.352012	0.034378
H84	H	-0.264526	0.351086	0.141242
N85	N	-0.016146	1.087610	0.390553
H86	H	0.022051	1.125851	0.348008
H87	H	-0.050172	1.122694	0.428204
H88	H	-0.694118	0.970355	0.144105
H89	H	-0.537313	0.983186	-0.143554
H90	H	-0.552092	0.879659	-0.087598
N91	N	-0.706740	0.857656	-0.082282
H92	H	-0.747371	0.845389	-0.030046
H93	H	-0.738404	0.850443	-0.136972
N94	N	0.023547	1.127302	0.609595
H95	H	0.057434	1.161212	0.652134
H96	H	0.062496	1.097162	0.571927
H97	H	-0.198574	0.905035	0.621623
N98	N	-0.252669	0.850876	0.390565
H99	H	-0.247312	0.856246	0.454980
H100	H	-0.311267	0.861347	0.374684
H101	H	-0.228648	0.874898	0.213826
H102	H	0.011833	0.431374	0.059687
N103	N	0.030834	0.431607	-0.077640
H104	H	0.052991	0.485125	-0.112571
H105	H	0.079673	0.402116	-0.057716
H106	H	-0.135025	0.406992	0.143722
N107	N	-0.255399	0.546080	0.087016
H108	H	-0.294343	0.491636	0.089018
H109	H	-0.266238	0.577287	0.140985
H110	H	-0.117513	0.423375	-0.143591
N111	N	-0.115093	0.576923	-0.164267
H112	H	-0.067949	0.620592	-0.149507
H113	H	-0.091292	0.532989	-0.199938
H114	H	-0.221147	0.406142	-0.087983
N115	N	-0.512591	1.131492	-0.078105
H116	H	-0.534344	1.106569	-0.132731
H117	H	-0.525992	1.191579	-0.075854
N118	N	-0.671444	1.134593	-0.078492
H119	H	-0.711717	1.099517	-0.114500
H120	H	-0.698381	1.185070	-0.058775
