data_functionalizedCrystal
_audit_creation_method	'MofGen! by Chris Wilmer'
_symmetry_space_group_name_H-M	'P1'
_symmetry_Int_Tables_number	1
_symmetry_cell_setting	triclinic
loop_
_symmetry_equiv_pos_as_xyz
  x,y,z
_cell_length_a	12.811457
_cell_length_b	12.837942
_cell_length_c	14.586319
_cell_angle_alpha	89.999397
_cell_angle_beta	84.573922
_cell_angle_gamma	89.411937
loop_
_atom_site_label
_atom_site_type_symbol
_atom_site_fract_x
_atom_site_fract_y
_atom_site_fract_z
O1	O	1.406627	0.139677	-0.040714
O2	O	1.102566	0.154866	-0.015431
O3	O	1.247854	-0.003660	-0.027517
O4	O	1.261339	0.298204	-0.028627
O5	O	1.247835	-0.003651	-0.179996
O6	O	1.102547	0.154875	-0.167910
O7	O	1.406608	0.139687	-0.193193
Cu8	Cu	1.254576	0.147282	-0.194474
Cu9	Cu	1.254598	0.147271	-0.014150
O10	O	1.261320	0.298213	-0.181106
C11	C	1.063368	0.154020	-0.088412
C12	C	0.946597	0.151471	-0.078702
C13	C	0.727150	0.146672	-0.226709
C14	C	0.617433	0.144277	-0.217590
C15	C	0.617445	0.144278	-0.051348
C16	C	0.727162	0.146673	-0.060467
C17	C	0.782010	0.147872	-0.148150
C18	C	0.891729	0.150274	-0.157267
C19	C	0.891739	0.150268	0.008974
C20	C	0.782022	0.147873	0.018092
C21	C	1.243289	-0.042296	-0.103378
C22	C	1.229704	-0.157431	-0.102246
C23	C	1.393031	-0.397685	-0.115808
C24	C	1.380271	-0.505866	-0.114745
C25	C	1.191424	-0.481976	-0.099052
C26	C	1.204184	-0.373795	-0.100115
C27	C	1.304991	-0.331654	-0.108494
C28	C	1.317750	-0.223471	-0.109563
C29	C	1.128904	-0.199583	-0.093864
C30	C	1.116144	-0.307764	-0.092801
C31	C	1.445806	0.140533	-0.120210
C32	C	1.562577	0.143082	-0.129913
C33	C	1.265884	0.336849	-0.105244
C34	C	1.279470	0.451984	-0.106369
N35	N	1.254568	0.147289	-0.321305
C36	C	1.324560	0.210484	-0.562129
C37	C	1.324571	0.210477	-0.658111
C38	C	1.184618	0.084054	-0.646488
C39	C	1.184613	0.084056	-0.550508
C40	C	1.254583	0.147277	-0.508331
C41	C	1.254598	0.147268	-0.700293
C42	C	1.254609	0.147259	-0.804361
C43	C	1.254574	0.147284	-0.404257
N44	N	1.254614	0.147256	0.112681
H45	H	0.936385	0.151256	-0.228663
H46	H	1.451962	-0.559626	-0.120698
Br47	Br	1.529835	-0.340488	-0.127208
Br48	Br	1.089638	-0.001732	-0.477490
H49	H	0.936417	0.151251	0.072943
H50	H	0.771809	0.147662	-0.298104
H51	H	0.572770	0.143306	-0.281561
H52	H	1.109351	-0.516307	-0.092220
Br53	Br	1.419525	0.296276	-0.504891
Br54	Br	1.419548	0.296257	-0.731120
Br55	Br	0.979341	-0.364965	-0.081418
Br56	Br	1.089657	-0.001736	-0.703735
H57	H	1.057215	-0.145808	-0.087916
H58	H	0.572769	0.143285	0.020039
H59	H	0.737349	0.146892	0.089481
H60	H	1.399832	-0.189162	-0.116390
