data_functionalizedCrystal
_audit_creation_method	'MofGen! by Chris Wilmer'
_symmetry_space_group_name_H-M	'P1'
_symmetry_Int_Tables_number	1
_symmetry_cell_setting	triclinic
loop_
_symmetry_equiv_pos_as_xyz
  x,y,z
_cell_length_a	10.654550
_cell_length_b	16.992695
_cell_length_c	9.130313
_cell_angle_alpha	89.995176
_cell_angle_beta	89.999724
_cell_angle_gamma	87.576577
loop_
_atom_site_label
_atom_site_type_symbol
_atom_site_fract_x
_atom_site_fract_y
_atom_site_fract_z
O1	O	1.677362	0.110190	-0.121691
O2	O	1.312790	0.120688	-0.121718
O3	O	1.493615	0.001288	-0.121693
O4	O	1.496538	0.229590	-0.121716
O5	O	1.493601	0.001285	0.121906
O6	O	1.312777	0.120685	0.121881
O7	O	1.677348	0.110186	0.121908
Cu8	Cu	1.495061	0.115435	0.144137
Cu9	Cu	1.495077	0.115439	-0.143947
O10	O	1.496524	0.229586	0.121883
C11	C	1.265919	0.119916	0.000078
C12	C	1.126277	0.117609	0.000068
C13	C	1.052866	0.187910	0.000065
C14	C	0.921658	0.185738	0.000091
C15	C	0.937282	0.042959	0.000116
C16	C	1.068488	0.045132	0.000101
C17	C	1.489848	-0.027946	0.000106
C18	C	1.478628	-0.115051	0.000105
C19	C	1.586879	-0.164703	0.000114
C20	C	1.576330	-0.246547	0.000099
C21	C	1.457529	-0.278738	0.000086
C22	C	1.349270	-0.229080	0.000072
C23	C	1.359820	-0.147237	0.000076
C24	C	1.413802	-0.522573	0.000062
C25	C	1.403260	-0.604422	0.000062
C26	C	1.630321	-0.621884	0.000087
C27	C	1.640861	-0.540039	0.000100
C28	C	1.532602	-0.490388	0.000079
N29	N	1.446743	-0.362395	0.000075
N30	N	1.543389	-0.406733	0.000079
C31	C	1.724220	0.110959	0.000108
C32	C	1.863862	0.113265	0.000109
C33	C	1.500291	0.258821	0.000080
C34	C	1.511510	0.345926	0.000072
N35	N	1.495059	0.115432	0.346759
N36	N	1.495089	0.115437	-0.346570
C37	C	1.575159	0.062584	0.423422
C38	C	1.575171	0.062584	0.576759
C39	C	1.414980	0.168287	0.576756
C40	C	1.414963	0.168282	0.423422
H41	H	1.128262	-0.012119	0.000107
H42	H	1.349730	0.211318	0.360999
H43	H	0.890215	-0.016050	0.000152
H44	H	1.099913	0.246926	0.000049
H45	H	0.861892	0.242984	0.000091
C46	C	1.695412	-0.301161	0.000114
C47	C	1.790506	-0.297119	0.126626
C48	C	1.909595	-0.351732	0.126638
C49	C	1.933591	-0.410386	0.000138
C50	C	1.838495	-0.414431	-0.126383
C51	C	1.719405	-0.359818	-0.126394
H52	H	1.772745	-0.253698	0.220277
H53	H	1.979991	-0.348738	0.220297
H54	H	2.021748	-0.450814	0.000147
H55	H	1.856255	-0.457852	-0.220034
H56	H	1.649009	-0.362812	-0.220054
C57	C	1.294715	-0.467968	0.000065
C58	C	1.199601	-0.472017	-0.126424
C59	C	1.080506	-0.417409	-0.126413
C60	C	1.056525	-0.358753	0.000086
C61	C	1.151642	-0.354702	0.126585
C62	C	1.270737	-0.409309	0.126574
H63	H	1.217350	-0.515440	-0.220075
H64	H	1.010094	-0.420408	-0.220056
H65	H	0.968364	-0.318329	0.000094
H66	H	1.133893	-0.311278	0.220235
H67	H	1.341149	-0.406310	0.220217
C68	C	1.663253	0.004444	0.339092
C69	C	1.751354	-0.053690	0.423428
C70	C	1.839447	-0.111834	0.339103
C71	C	1.839439	-0.111843	0.170442
C72	C	1.751334	-0.053707	0.086096
C73	C	1.663241	0.004437	0.170421
H74	H	1.751364	-0.053686	0.548290
H75	H	1.904669	-0.154871	0.401543
H76	H	1.904651	-0.154885	0.108020
H77	H	1.751324	-0.053711	-0.038766
H78	H	1.598020	0.047474	0.107982
H79	H	1.306513	-0.630628	0.000075
C80	C	1.326887	0.226427	0.661087
C81	C	1.326976	0.226484	0.829748
C82	C	1.238883	0.284628	0.914073
C83	C	1.150700	0.342714	0.829737
C84	C	1.150607	0.342659	0.661066
C85	C	1.238701	0.284515	0.576741
H86	H	1.392257	0.183483	0.892187
H87	H	1.238952	0.284668	1.038935
H88	H	1.085489	0.385756	0.892159
H89	H	1.085326	0.385660	0.598626
H90	H	1.238631	0.284475	0.451879
H91	H	1.683620	-0.138501	0.000134
H92	H	1.737601	-0.513836	0.000112
H93	H	1.718458	-0.662318	0.000102
H94	H	1.252539	-0.255296	0.000051
H95	H	1.271671	-0.106811	0.000068
H96	H	1.640394	0.019550	0.639174
