data_functionalizedCrystal
_audit_creation_method	'MofGen! by Chris Wilmer'
_symmetry_space_group_name_H-M	'P1'
_symmetry_Int_Tables_number	1
_symmetry_cell_setting	triclinic
loop_
_symmetry_equiv_pos_as_xyz
  x,y,z
_cell_length_a	18.101398
_cell_length_b	18.101395
_cell_length_c	18.101389
_cell_angle_alpha	89.983159
_cell_angle_beta	89.975673
_cell_angle_gamma	90.026371
loop_
_atom_site_label
_atom_site_type_symbol
_atom_site_fract_x
_atom_site_fract_y
_atom_site_fract_z
Zn1	Zn	1.132121	-0.295001	-0.418847
Zn2	Zn	1.465454	0.038333	-0.085514
Zn3	Zn	1.798788	0.371666	0.247820
Zn4	Zn	1.132017	-0.418826	-0.295009
Zn5	Zn	1.465350	-0.085493	0.038325
Zn6	Zn	1.798684	0.247840	0.371658
Zn7	Zn	1.008280	-0.294993	-0.295008
Zn8	Zn	1.341613	0.038340	0.038325
Zn9	Zn	1.674947	0.371674	0.371659
Zn10	Zn	1.008231	-0.418795	-0.418797
Zn11	Zn	1.341564	-0.085461	-0.085464
Zn12	Zn	1.674897	0.247872	0.247869
O13	O	1.070162	-0.356904	-0.356915
O14	O	1.403495	-0.023570	-0.023582
O15	O	1.736829	0.309763	0.309751
O16	O	1.235740	-0.311443	-0.402440
O17	O	1.569073	0.021890	-0.069107
O18	O	1.902407	0.355224	0.264226
O19	O	1.115580	-0.402410	-0.191376
O20	O	1.448913	-0.069076	0.141958
O21	O	1.782247	0.264257	0.475291
O22	O	1.024772	-0.191361	-0.311456
O23	O	1.358105	0.141972	0.021877
O24	O	1.691439	0.475305	0.355211
O25	O	1.235664	-0.402417	-0.311457
O26	O	1.568997	-0.069084	0.021876
O27	O	1.902330	0.264249	0.355210
O28	O	1.115757	-0.191367	-0.402440
O29	O	1.449091	0.141966	-0.069106
O30	O	1.782424	0.475300	0.264227
O31	O	1.024671	-0.311430	-0.191375
O32	O	1.358004	0.021903	0.141958
O33	O	1.691338	0.355237	0.475292
O34	O	0.904641	-0.311399	-0.311408
O35	O	1.237974	0.021934	0.021925
O36	O	1.571307	0.355268	0.355259
O37	O	1.024688	-0.402363	-0.522437
O38	O	1.358021	-0.069030	-0.189103
O39	O	1.691355	0.264303	0.144230
O40	O	0.904604	-0.402356	-0.402355
O41	O	1.237938	-0.069022	-0.069022
O42	O	1.571271	0.264311	0.264311
O43	O	1.115710	-0.311412	-0.522473
O44	O	1.449043	0.021921	-0.189140
O45	O	1.782376	0.355254	0.144193
O46	O	1.115532	-0.522455	-0.311409
O47	O	1.448866	-0.189122	0.021924
O48	O	1.782199	0.144212	0.355258
O49	O	1.024587	-0.522432	-0.402356
O50	O	1.357920	-0.189099	-0.069023
O51	O	1.691254	0.144235	0.264311
C52	C	0.877752	-0.356874	-0.356877
C53	C	1.211085	-0.023540	-0.023543
C54	C	1.544418	0.309793	0.309790
C55	C	0.795437	-0.356879	-0.356878
C56	C	1.128771	-0.023545	-0.023544
C57	C	1.462104	0.309788	0.309789
C58	C	0.496347	-0.356925	-0.356940
C59	C	0.829680	-0.023592	-0.023606
C60	C	1.163013	0.309742	0.309727
C61	C	0.527670	-0.299412	-0.299997
C62	C	0.861003	0.033922	0.033336
C63	C	1.194336	0.367255	0.366669
C64	C	0.613288	-0.299566	-0.299754
C65	C	0.946621	0.033768	0.033579
C66	C	1.279955	0.367101	0.366912
C67	C	0.644729	-0.356901	-0.356909
C68	C	0.978062	-0.023568	-0.023576
C69	C	1.311396	0.309765	0.309758
C70	C	0.613611	-0.434909	-0.335587
C71	C	0.946944	-0.101576	-0.002253
C72	C	1.280278	0.231757	0.331080
C73	C	0.527966	-0.434590	-0.335191
C74	C	0.861299	-0.101256	-0.001857
C75	C	1.194632	0.232077	0.331476
C76	C	0.527961	-0.337109	-0.435339
C77	C	0.861294	-0.003775	-0.102005
C78	C	1.194628	0.329558	0.231328
C79	C	0.613612	-0.335371	-0.434911
C80	C	0.946945	-0.002038	-0.101577
C81	C	1.280279	0.331295	0.231756
C82	C	0.728589	-0.356893	-0.356893
C83	C	1.061922	-0.023559	-0.023559
C84	C	1.395255	0.309774	0.309774
C85	C	0.412487	-0.356939	-0.356954
C86	C	0.745820	-0.023605	-0.023621
C87	C	1.079154	0.309728	0.309712
C88	C	1.070063	-0.549314	-0.356893
C89	C	1.403396	-0.215981	-0.023560
C90	C	1.736730	0.117352	0.309773
C91	C	1.070088	-0.631628	-0.356909
C92	C	1.403422	-0.298295	-0.023576
C93	C	1.736755	0.035038	0.309758
C94	C	1.070251	-0.930719	-0.356949
C95	C	1.403584	-0.597386	-0.023615
C96	C	1.736918	-0.264053	0.309718
C97	C	1.013163	-0.899410	-0.414312
C98	C	1.346497	-0.566077	-0.080979
C99	C	1.679830	-0.232744	0.252354
C100	C	1.012892	-0.813792	-0.414133
C101	C	1.346225	-0.480459	-0.080799
C102	C	1.679559	-0.147126	0.252534
C103	C	1.070170	-0.782337	-0.356930
C104	C	1.403504	-0.449003	-0.023596
C105	C	1.736837	-0.115670	0.309737
C106	C	1.049041	-0.813472	-0.278878
C107	C	1.382374	-0.480139	0.054455
C108	C	1.715708	-0.146806	0.387789
C109	C	1.048673	-0.899117	-0.279221
C110	C	1.382006	-0.565784	0.054112
C111	C	1.715340	-0.232451	0.387445
C112	C	1.148593	-0.899073	-0.376950
C113	C	1.481926	-0.565740	-0.043617
C114	C	1.815259	-0.232407	0.289717
C115	C	1.148132	-0.813422	-0.378661
C116	C	1.481465	-0.480089	-0.045328
C117	C	1.814799	-0.146756	0.288005
C118	C	1.070126	-0.698477	-0.356914
C119	C	1.403459	-0.365144	-0.023581
C120	C	1.736793	-0.031811	0.309753
C121	C	1.070293	-1.014579	-0.356959
C122	C	1.403627	-0.681245	-0.023626
C123	C	1.736960	-0.347912	0.309707
C124	C	1.263324	-0.356934	-0.356954
C125	C	1.596657	-0.023601	-0.023621
C126	C	1.929991	0.309732	0.309712
C127	C	1.345638	-0.356948	-0.356971
C128	C	1.678971	-0.023614	-0.023638
C129	C	2.012305	0.309719	0.309696
C130	C	1.070205	-0.356885	-0.550077
C131	C	1.403538	-0.023552	-0.216744
C132	C	1.736872	0.309782	0.116589
C133	C	1.070223	-0.356877	-0.632391
C134	C	1.403556	-0.023544	-0.299058
C135	C	1.736890	0.309790	0.034275
C136	C	1.070282	-0.163742	-0.356953
C137	C	1.403615	0.169591	-0.023620
C138	C	1.736948	0.502925	0.309713
C139	C	1.070333	-0.081428	-0.356970
C140	C	1.403666	0.251906	-0.023636
C141	C	1.736999	0.585239	0.309697
C142	C	1.070266	-0.356738	-0.931482
C143	C	1.403600	-0.023405	-0.598149
C144	C	1.736933	0.309928	-0.264816
C145	C	1.012801	-0.413780	-0.900134
C146	C	1.346134	-0.080447	-0.566801
C147	C	1.679467	0.252887	-0.233468
C148	C	1.012956	-0.414045	-0.814516
C149	C	1.346289	-0.080711	-0.481183
C150	C	1.679623	0.252622	-0.147849
C151	C	1.070244	-0.356807	-0.783100
C152	C	1.403578	-0.023474	-0.449767
C153	C	1.736911	0.309860	-0.116433
C154	C	1.148270	-0.377998	-0.814206
C155	C	1.481603	-0.044664	-0.480873
C156	C	1.814936	0.288669	-0.147539
C157	C	1.147949	-0.378372	-0.899851
C158	C	1.481283	-0.045039	-0.566518
C159	C	1.814616	0.288295	-0.233184
C160	C	1.050385	-0.278379	-0.899905
C161	C	1.383718	0.054954	-0.566571
C162	C	1.717052	0.388288	-0.233238
C163	C	1.048649	-0.278832	-0.814254
C164	C	1.381982	0.054502	-0.480920
C165	C	1.715315	0.387835	-0.147587
C166	C	1.070237	-0.356845	-0.699240
C167	C	1.403570	-0.023511	-0.365907
C168	C	1.736903	0.309822	-0.032574
C169	C	1.070279	-0.356702	-1.015342
C170	C	1.403613	-0.023369	-0.682009
C171	C	1.736946	0.309964	-0.348675
C172	C	1.070162	-0.356869	-0.164505
C173	C	1.403495	-0.023536	0.168829
C174	C	1.736829	0.309798	0.502162
C175	C	1.070287	-0.356668	-0.082191
C176	C	1.403621	-0.023335	0.251142
C177	C	1.736954	0.309998	0.584476
H178	H	0.506389	-0.281216	-0.454725
H179	H	0.839723	0.052117	-0.121392
H180	H	1.173056	0.385451	0.211941
H181	H	0.634329	-0.241719	-0.313119
H182	H	0.967662	0.091614	0.020214
H183	H	1.300995	0.424948	0.353547
H184	H	0.955448	-0.920990	-0.401230
H185	H	1.288781	-0.587656	-0.067896
H186	H	1.622114	-0.254323	0.265437
Cl187	Cl	1.108563	-0.209730	-0.781249
Cl188	Cl	1.441896	0.123603	-0.447916
Cl189	Cl	1.775229	0.456936	-0.114582
Cl190	Cl	1.111215	-0.782017	-0.211087
Cl191	Cl	1.444549	-0.448684	0.122246
Cl192	Cl	1.777882	-0.115351	0.455579
H193	H	0.507099	-0.241388	-0.313215
H194	H	0.840433	0.091945	0.020118
H195	H	1.173766	0.425278	0.353452
H196	H	1.191125	-0.919319	-0.335170
H197	H	1.524458	-0.585986	-0.001837
H198	H	1.857792	-0.252652	0.331497
Cl199	Cl	0.496686	-0.401782	-0.500844
Cl200	Cl	0.830019	-0.068449	-0.167511
Cl201	Cl	1.163353	0.264884	0.165823
H202	H	0.506120	-0.312363	-0.242242
H203	H	0.839454	0.020971	0.091091
H204	H	1.172787	0.354304	0.424424
Cl205	Cl	0.645034	-0.246749	-0.459745
Cl206	Cl	0.978368	0.086584	-0.126412
Cl207	Cl	1.311701	0.419918	0.206922
Cl208	Cl	0.923627	-0.393568	-0.782039
Cl209	Cl	1.256960	-0.060234	-0.448706
Cl210	Cl	1.590293	0.273099	-0.115373
Cl211	Cl	0.644872	-0.319786	-0.210062
Cl212	Cl	0.978206	0.013547	0.123271
Cl213	Cl	1.311539	0.346880	0.456604
Cl214	Cl	0.495969	-0.502991	-0.396425
Cl215	Cl	0.829302	-0.169658	-0.063091
Cl216	Cl	1.162636	0.163675	0.270242
H217	H	0.633975	-0.478909	-0.375763
H218	H	0.967309	-0.145575	-0.042430
H219	H	1.300642	0.187758	0.290904
Cl220	Cl	1.115005	-0.212763	-0.931206
Cl221	Cl	1.448338	0.120570	-0.597873
Cl222	Cl	1.781672	0.453903	-0.264539
H223	H	0.994478	-0.259074	-0.921490
H224	H	1.327811	0.074259	-0.588157
H225	H	1.661144	0.407593	-0.254823
Cl226	Cl	0.646669	-0.461310	-0.248053
Cl227	Cl	0.980002	-0.127977	0.085280
Cl228	Cl	1.313335	0.205356	0.418613
Cl229	Cl	0.923197	-0.393514	-0.931909
Cl230	Cl	1.256530	-0.060181	-0.598576
Cl231	Cl	1.589864	0.273153	-0.265242
Cl232	Cl	0.497066	-0.460535	-0.246703
Cl233	Cl	0.830399	-0.127202	0.086630
Cl234	Cl	1.163732	0.206132	0.419964
Cl235	Cl	1.033298	-0.781286	-0.503487
Cl236	Cl	1.366631	-0.447952	-0.170153
Cl237	Cl	1.699965	-0.114619	0.163180
Cl238	Cl	0.646653	-0.395338	-0.503926
Cl239	Cl	0.979986	-0.062005	-0.170593
Cl240	Cl	1.313320	0.271329	0.162740
Cl241	Cl	0.959992	-0.254161	-0.782872
Cl242	Cl	1.293326	0.079172	-0.449539
Cl243	Cl	1.626659	0.412506	-0.116206
H244	H	1.026252	-0.919970	-0.472374
H245	H	1.359585	-0.586636	-0.139040
H246	H	1.692918	-0.253303	0.194293
H247	H	0.954823	-0.793362	-0.400884
H248	H	1.288157	-0.460029	-0.067550
H249	H	1.621490	-0.126695	0.265783
Cl250	Cl	0.960257	-0.930054	-0.253066
Cl251	Cl	1.293590	-0.596720	0.080268
Cl252	Cl	1.626924	-0.263387	0.413601
Cl253	Cl	1.033264	-0.503710	-0.782890
Cl254	Cl	1.366597	-0.170377	-0.449556
Cl255	Cl	1.699930	0.162957	-0.116223
Cl256	Cl	1.032820	-0.502898	-0.933424
Cl257	Cl	1.366153	-0.169564	-0.600090
Cl258	Cl	1.699486	0.163769	-0.266757
H259	H	1.088449	-0.919830	-0.235023
H260	H	1.421783	-0.586497	0.098310
H261	H	1.755116	-0.253163	0.431643
H262	H	0.992380	-0.792080	-0.261633
H263	H	1.325714	-0.458746	0.071701
H264	H	1.659047	-0.125413	0.405034
Cl265	Cl	1.173969	-0.466810	-0.930710
Cl266	Cl	1.507302	-0.133477	-0.597376
Cl267	Cl	1.840636	0.199856	-0.264043
H268	H	1.167856	-0.920633	-0.432895
H269	H	1.501190	-0.587300	-0.099562
H270	H	1.834523	-0.253966	0.233771
Cl271	Cl	1.172736	-0.782003	-0.467347
Cl272	Cl	1.506069	-0.448669	-0.134014
Cl273	Cl	1.839403	-0.115336	0.199320
Cl274	Cl	1.217278	-0.780354	-0.318863
Cl275	Cl	1.550612	-0.447020	0.014470
Cl276	Cl	1.883945	-0.113687	0.347804
Cl277	Cl	1.216153	-0.315871	-0.782795
Cl278	Cl	1.549487	0.017463	-0.449462
Cl279	Cl	1.882820	0.350796	-0.116128
H280	H	1.192217	-0.338629	-0.920590
H281	H	1.525550	-0.005296	-0.587257
H282	H	1.858884	0.328038	-0.253924
H283	H	1.165415	-0.434671	-0.792765
H284	H	1.498749	-0.101337	-0.459432
H285	H	1.832082	0.231996	-0.126099
