data_functionalizedCrystal
_audit_creation_method	'MofGen! by Chris Wilmer'
_symmetry_space_group_name_H-M	'P1'
_symmetry_Int_Tables_number	1
_symmetry_cell_setting	triclinic
loop_
_symmetry_equiv_pos_as_xyz
  x,y,z
_cell_length_a	19.805407
_cell_length_b	12.827892
_cell_length_c	19.805399
_cell_angle_alpha	90.019631
_cell_angle_beta	89.975799
_cell_angle_gamma	89.983422
loop_
_atom_site_label
_atom_site_type_symbol
_atom_site_fract_x
_atom_site_fract_y
_atom_site_fract_z
Zn1	Zn	1.034778	0.416078	-0.382841
Zn2	Zn	1.534778	0.916078	0.117159
Zn3	Zn	1.034711	0.590833	-0.269668
Zn4	Zn	1.534711	1.090833	0.230332
Zn5	Zn	0.921593	0.416105	-0.269656
Zn6	Zn	1.421593	0.916105	0.230344
Zn7	Zn	0.921575	0.590776	-0.382806
Zn8	Zn	1.421575	1.090776	0.117194
O9	O	0.978164	0.503448	-0.326243
O10	O	1.478164	1.003448	0.173757
O11	O	1.129486	0.439273	-0.367848
O12	O	1.629486	0.939273	0.132152
O13	O	1.019685	0.567691	-0.174950
O14	O	1.519685	1.067691	0.325050
O15	O	0.936643	0.269865	-0.284680
O16	O	1.436643	0.769865	0.215320
O17	O	1.129437	0.567665	-0.284700
O18	O	1.629437	1.067665	0.215300
O19	O	1.019800	0.269846	-0.367836
O20	O	1.519800	0.769846	0.132164
O21	O	0.936578	0.439318	-0.174941
O22	O	1.436578	0.939318	0.325059
O23	O	0.826874	0.439262	-0.284646
O24	O	1.326874	0.939262	0.215354
O25	O	0.936612	0.567566	-0.477527
O26	O	1.436612	1.067566	0.022473
O27	O	0.826860	0.567592	-0.367776
O28	O	1.326860	1.067592	0.132224
O29	O	1.019782	0.439217	-0.477553
O30	O	1.519782	0.939217	0.022447
O31	O	1.019667	0.737062	-0.284666
O32	O	1.519667	1.237062	0.215334
O33	O	0.936546	0.737019	-0.367788
O34	O	1.436546	1.237019	0.132212
C35	C	0.802308	0.503424	-0.326207
C36	C	1.302308	1.003424	0.173793
C37	C	0.727076	0.503440	-0.326207
C38	C	1.227076	1.003440	0.173793
C39	C	0.978116	0.774958	-0.326240
C40	C	1.478116	1.274958	0.173760
C41	C	0.978157	0.891111	-0.326261
C42	C	1.478157	1.391111	0.173739
C43	C	0.265296	0.570395	-0.369504
C44	C	0.765296	1.070395	0.130496
C45	C	0.335984	0.570393	-0.369490
C46	C	0.835984	1.070393	0.130510
C47	C	0.371315	0.503473	-0.326269
C48	C	0.871315	1.003473	0.173731
C49	C	0.335953	0.436558	-0.283055
C50	C	0.835953	0.936558	0.216945
C51	C	0.265266	0.436566	-0.283066
C52	C	0.765266	0.936566	0.216934
C53	C	0.621026	0.436526	-0.283007
C54	C	1.121026	0.936526	0.216993
C55	C	0.691718	0.436521	-0.283001
C56	C	1.191718	0.936521	0.216999
C57	C	0.691745	0.570354	-0.369431
C58	C	1.191745	1.070354	0.130569
C59	C	0.621058	0.570361	-0.369442
C60	C	1.121058	1.070361	0.130558
C61	C	0.585702	0.503451	-0.326226
C62	C	1.085702	1.003451	0.173774
C63	C	0.509054	0.503455	-0.326241
C64	C	1.009054	1.003455	0.173759
C65	C	0.447962	0.503463	-0.326257
C66	C	0.947962	1.003463	0.173743
C67	C	1.019336	0.942882	-0.285177
C68	C	1.519336	1.442882	0.214823
C69	C	1.019379	1.062932	-0.285198
C70	C	1.519379	1.562932	0.214802
C71	C	1.154707	0.503472	-0.326279
C72	C	1.654707	1.003472	0.173721
C73	C	1.229939	0.503483	-0.326295
C74	C	1.729939	1.003483	0.173705
C75	C	0.978202	0.503382	-0.502785
C76	C	1.478202	1.003382	-0.002785
C77	C	0.978218	0.503354	-0.578017
C78	C	1.478218	1.003354	-0.078017
C79	C	0.978226	1.230878	-0.326269
C80	C	1.478226	1.730878	0.173731
C81	C	0.978238	1.114725	-0.326301
C82	C	1.478238	1.614725	0.173699
C83	C	1.021526	0.436519	-0.613376
C84	C	1.521526	0.936519	-0.113376
C85	C	1.021533	0.436489	-0.684065
C86	C	1.521533	0.936489	-0.184065
C87	C	0.978235	0.503300	-0.719393
C88	C	1.478235	1.003300	-0.219393
C89	C	0.934923	0.570137	-0.684030
C90	C	1.434923	1.070137	-0.184030
C91	C	0.934913	0.570162	-0.613342
C92	C	1.434913	1.070162	-0.113342
C93	C	0.934961	0.570040	-0.969103
C94	C	1.434961	1.070040	-0.469103
C95	C	0.934975	0.570013	-1.039795
C96	C	1.434975	1.070013	-0.539795
C97	C	1.021581	0.436367	-1.039825
C98	C	1.521581	0.936367	-0.539825
C99	C	1.021571	0.436392	-0.969138
C100	C	1.521571	0.936392	-0.469138
C101	C	0.978257	0.503225	-0.933781
C102	C	1.478257	1.003225	-0.433781
C103	C	0.978249	0.503256	-0.857132
C104	C	1.478249	1.003256	-0.357132
C105	C	0.978246	0.503275	-0.796040
C106	C	1.478246	1.003275	-0.296040
C107	C	0.978165	0.503438	-0.150387
C108	C	1.478165	1.003438	0.349613
C109	C	0.978280	0.503172	-0.075155
C110	C	1.478280	1.003172	0.424845
H111	H	0.236535	0.624884	-0.404703
H112	H	0.736535	1.124884	0.095297
N113	N	0.582955	0.642547	-0.416056
N114	N	1.082955	1.142547	0.083944
H115	H	0.553605	0.690916	-0.388497
H116	H	1.053605	1.190916	0.111503
H117	H	0.553688	0.600075	-0.447464
H118	H	1.053688	1.100075	0.052536
N119	N	1.068300	0.364277	-1.077960
N120	N	1.568300	0.864277	-0.577960
H121	H	1.061737	0.374392	-1.128101
H122	H	1.561737	0.874392	-0.628101
H123	H	1.057784	0.289646	-1.065605
H124	H	1.557784	0.789646	-0.565605
N125	N	0.227126	0.364405	-0.236458
N126	N	0.727126	0.864405	0.263542
H127	H	0.239437	0.289755	-0.247042
H128	H	0.739437	0.789755	0.252958
H129	H	0.176998	0.374663	-0.243045
H130	H	0.676998	0.874663	0.256955
H131	H	0.942938	0.935664	-0.361453
H132	H	1.442938	1.435664	0.138547
H133	H	0.899714	0.624420	-1.068558
H134	H	1.399714	1.124420	-0.568558
H135	H	0.720540	0.624838	-0.404618
H136	H	1.220540	1.124838	0.095382
N137	N	1.068231	0.364465	-0.575274
N138	N	1.568231	0.864465	-0.075274
H139	H	1.095666	0.322120	-0.608403
H140	H	1.595666	0.822120	-0.108403
H141	H	1.040689	0.316110	-0.545940
H142	H	1.540689	0.816110	-0.045940
H143	H	1.054561	0.898331	-0.249990
H144	H	1.554561	1.398331	0.250010
N145	N	0.888223	0.642087	-0.930973
N146	N	1.388223	1.142087	-0.430973
H147	H	0.860791	0.684396	-0.964081
H148	H	1.360791	1.184396	-0.464081
H149	H	0.915732	0.690476	-0.901633
H150	H	1.415732	1.190476	-0.401633
H151	H	0.899666	0.624532	-0.712800
H152	H	1.399666	1.124532	-0.212800
H153	H	1.056800	0.382068	-0.712850
H154	H	1.556800	0.882068	-0.212850
H155	H	1.054632	1.107454	-0.250023
H156	H	1.554632	1.607454	0.249977
N157	N	0.888196	0.642237	-0.575202
N158	N	1.388196	1.142237	-0.075202
H159	H	0.860768	0.684558	-0.608307
H160	H	1.360768	1.184558	-0.108307
H161	H	0.915726	0.690615	-0.545873
H162	H	1.415726	1.190615	-0.045873
N163	N	0.729827	0.364334	-0.236386
N164	N	1.229827	0.864334	0.263614
H165	H	0.696704	0.321947	-0.209010
H166	H	1.196704	0.821947	0.290990
H167	H	0.759136	0.406805	-0.205017
H168	H	1.259136	0.906805	0.294983
H169	H	1.056831	0.381991	-0.940377
H170	H	1.556831	0.881991	-0.440377
N171	N	0.374120	0.642568	-0.416090
N172	N	0.874120	1.142568	0.083910
H173	H	0.341013	0.684959	-0.443474
H174	H	0.841013	1.184959	0.056526
H175	H	0.403476	0.600093	-0.447453
H176	H	0.903476	1.100093	0.052547
H177	H	0.592248	0.382047	-0.247816
H178	H	1.092248	0.882047	0.252184
N179	N	0.374051	0.364377	-0.236435
N180	N	0.874051	0.864377	0.263565
H181	H	0.403357	0.406777	-0.205020
H182	H	0.903357	0.906777	0.294980
H183	H	0.403361	0.316012	-0.264037
H184	H	0.903361	0.816012	0.235963
N185	N	0.931532	1.055761	-0.372891
N186	N	1.431532	1.555761	0.127109
H187	H	0.959028	1.010407	-0.404251
H188	H	1.459028	1.510407	0.095749
H189	H	0.904090	1.106887	-0.400278
H190	H	1.404090	1.606887	0.099722
