data_functionalizedCrystal
_audit_creation_method	'MofGen! by Chris Wilmer'
_symmetry_space_group_name_H-M	'P1'
_symmetry_Int_Tables_number	1
_symmetry_cell_setting	triclinic
loop_
_symmetry_equiv_pos_as_xyz
  x,y,z
_cell_length_a	10.540514
_cell_length_b	10.540539
_cell_length_c	10.268362
_cell_angle_alpha	89.996859
_cell_angle_beta	89.994908
_cell_angle_gamma	84.520326
loop_
_atom_site_label
_atom_site_type_symbol
_atom_site_fract_x
_atom_site_fract_y
_atom_site_fract_z
O1	O	1.685906	0.178749	-0.108310
O2	O	1.316489	0.195638	-0.108308
O3	O	1.509625	0.002486	-0.108308
O4	O	1.492769	0.371901	-0.108311
O5	O	1.509608	0.002478	0.108293
O6	O	1.316472	0.195630	0.108292
O7	O	1.685889	0.178741	0.108291
Cu8	Cu	1.501179	0.187185	0.128069
Cu9	Cu	1.501199	0.187194	-0.128086
O10	O	1.492752	0.371893	0.108290
C11	C	1.269177	0.194374	-0.000008
C12	C	1.128227	0.190605	-0.000007
C13	C	1.057522	0.328745	-0.000011
C14	C	0.910908	0.324871	-0.000510
C15	C	0.935899	0.115483	-0.123463
C16	C	1.082439	0.120336	-0.123560
C17	C	1.082822	0.118283	0.122764
C18	C	0.935843	0.116950	0.124380
C19	C	1.508353	-0.044821	-0.000010
C20	C	1.504571	-0.185769	-0.000017
C21	C	1.359652	-0.369182	-0.000502
C22	C	1.363486	-0.222564	-0.000015
C23	C	1.572458	-0.247437	0.123673
C24	C	1.567642	-0.393981	0.123777
C25	C	1.570531	-0.394490	-0.122538
C26	C	1.571831	-0.247508	-0.124174
C27	C	1.733201	0.180004	-0.000013
C28	C	1.874151	0.183774	-0.000022
C29	C	1.494025	0.419199	-0.000011
C30	C	1.497807	0.560147	-0.000012
N31	N	1.501174	0.187177	0.308235
N32	N	1.501214	0.187192	-0.308252
C33	C	1.501193	0.187192	0.573905
C34	C	1.501178	0.187187	0.426067
H35	H	0.894841	0.166857	0.215704
H36	H	1.672436	-0.441725	-0.123371
H37	H	1.110670	0.170221	-0.216188
N38	N	0.854374	0.396008	0.116678
H39	H	0.924689	0.430173	0.169124
H40	H	0.792331	0.469147	0.086773
N41	N	1.286120	-0.409180	0.116337
H42	H	1.259129	-0.332008	0.171568
H43	H	1.208114	-0.449477	0.086040
H44	H	0.911658	0.014104	0.132202
H45	H	1.522159	-0.206642	-0.215676
N46	N	0.906355	-0.021792	-0.129092
H47	H	0.852527	-0.041079	-0.051492
H48	H	0.858289	-0.036603	-0.211943
N49	N	0.855631	0.395707	-0.118421
H50	H	0.760052	0.393484	-0.119235
H51	H	0.876757	0.487106	-0.114865
H52	H	0.893299	0.162300	-0.215680
N53	N	1.509963	-0.191010	0.245592
H54	H	1.475548	-0.260777	0.298651
H55	H	1.574823	-0.148913	0.298728
N56	N	1.709695	-0.217830	0.129747
H57	H	1.724317	-0.169662	0.212586
H58	H	1.767425	-0.300004	0.128466
N59	N	1.702031	-0.457559	0.131230
H60	H	1.752293	-0.431643	0.053488
H61	H	1.743788	-0.430445	0.213894
N62	N	1.097554	0.401905	-0.117093
H63	H	1.192587	0.407793	-0.114053
H64	H	1.075121	0.356353	-0.199257
N65	N	1.146041	-0.014068	-0.130532
H66	H	1.078849	-0.076204	-0.133535
H67	H	1.200398	-0.023979	-0.211564
H68	H	1.130078	0.016390	0.123956
H69	H	1.674693	-0.223296	-0.131643
N70	N	1.124525	0.179179	0.246745
H71	H	1.173282	0.254273	0.224579
H72	H	1.047054	0.209211	0.300302
H73	H	1.310069	-0.179953	-0.088680
H74	H	1.086054	0.384780	0.088497
N75	N	1.285823	-0.407051	-0.117987
H76	H	1.341209	-0.470388	-0.172037
H77	H	1.207420	-0.447078	-0.088361
H78	H	1.517457	-0.422179	0.216238
N79	N	1.292231	-0.167234	0.117632
H80	H	1.200817	-0.188295	0.113829
H81	H	1.333809	-0.204711	0.199398
N82	N	1.510068	-0.436274	-0.246725
H83	H	1.434914	-0.485041	-0.224812
H84	H	1.480199	-0.358837	-0.300398
