data_functionalizedCrystal
_audit_creation_method	'MofGen! by Chris Wilmer'
_symmetry_space_group_name_H-M	'P1'
_symmetry_Int_Tables_number	1
_symmetry_cell_setting	triclinic
loop_
_symmetry_equiv_pos_as_xyz
  x,y,z
_cell_length_a	18.050591
_cell_length_b	19.121063
_cell_length_c	18.050582
_cell_angle_alpha	92.415032
_cell_angle_beta	89.979078
_cell_angle_gamma	92.465257
loop_
_atom_site_label
_atom_site_type_symbol
_atom_site_fract_x
_atom_site_fract_y
_atom_site_fract_z
Zn1	Zn	1.122676	-0.279734	-0.432630
Zn2	Zn	1.456010	0.053600	-0.099296
Zn3	Zn	1.789343	0.386933	0.234037
Zn4	Zn	1.117290	-0.397178	-0.313729
Zn5	Zn	1.450623	-0.063845	0.019604
Zn6	Zn	1.783957	0.269489	0.352938
Zn7	Zn	0.998495	-0.279737	-0.308441
Zn8	Zn	1.331829	0.053597	0.024892
Zn9	Zn	1.665162	0.386930	0.358226
Zn10	Zn	0.993148	-0.397141	-0.437863
Zn11	Zn	1.326482	-0.063807	-0.104530
Zn12	Zn	1.659815	0.269526	0.228804
O13	O	1.057903	-0.338447	-0.373166
O14	O	1.391236	-0.005114	-0.039832
O15	O	1.724569	0.328219	0.293501
O16	O	1.225886	-0.295327	-0.416880
O17	O	1.559219	0.038006	-0.083547
O18	O	1.892552	0.371339	0.249786
O19	O	1.101515	-0.381616	-0.209104
O20	O	1.434849	-0.048282	0.124230
O21	O	1.768182	0.285051	0.457563
O22	O	1.019460	-0.181452	-0.320512
O23	O	1.352793	0.151882	0.012822
O24	O	1.686127	0.485215	0.346155
O25	O	1.221929	-0.381613	-0.329524
O26	O	1.555262	-0.048280	0.003809
O27	O	1.888595	0.285054	0.337142
O28	O	1.110695	-0.181449	-0.411753
O29	O	1.444029	0.151884	-0.078419
O30	O	1.777362	0.485217	0.254914
O31	O	1.014237	-0.295332	-0.205219
O32	O	1.347571	0.038001	0.128115
O33	O	1.680904	0.371334	0.461448
O34	O	0.893862	-0.295296	-0.325586
O35	O	1.227195	0.038037	0.007747
O36	O	1.560529	0.371370	0.341081
O37	O	1.010347	-0.381550	-0.541093
O38	O	1.343680	-0.048216	-0.207759
O39	O	1.677013	0.285117	0.125574
O40	O	0.889934	-0.381552	-0.420672
O41	O	1.223267	-0.048219	-0.087338
O42	O	1.556600	0.285114	0.245995
O43	O	1.105510	-0.295291	-0.537248
O44	O	1.438844	0.038042	-0.203914
O45	O	1.772177	0.371375	0.129419
O46	O	1.096331	-0.495458	-0.334599
O47	O	1.429664	-0.162124	-0.001265
O48	O	1.762997	0.171209	0.332068
O49	O	1.005124	-0.495430	-0.425799
O50	O	1.338457	-0.162097	-0.092466
O51	O	1.671791	0.171236	0.240867
C52	C	0.864952	-0.338421	-0.373123
C53	C	1.198285	-0.005088	-0.039790
C54	C	1.531618	0.328246	0.293543
C55	C	0.782406	-0.338427	-0.373124
C56	C	1.115739	-0.005093	-0.039790
C57	C	1.449072	0.328240	0.293543
C58	C	0.585072	-0.291466	-0.321528
C59	C	0.918405	0.041867	0.011805
C60	C	1.251739	0.375200	0.345139
C61	C	0.532763	-0.355526	-0.306137
C62	C	0.866097	-0.022193	0.027196
C63	C	1.199430	0.311140	0.360530
C64	C	0.631274	-0.338448	-0.373158
C65	C	0.964608	-0.005115	-0.039825
C66	C	1.297941	0.328219	0.293508
C67	C	0.536500	-0.274410	-0.388548
C68	C	0.869834	0.058923	-0.055215
C69	C	1.203167	0.392256	0.278118
C70	C	0.485288	-0.338463	-0.373190
C71	C	0.818622	-0.005130	-0.039857
C72	C	1.151955	0.328204	0.293477
C73	C	0.580051	-0.402542	-0.357733
C74	C	0.913384	-0.069208	-0.024400
C75	C	1.246718	0.264125	0.308933
C76	C	0.583794	-0.321383	-0.440174
C77	C	0.917128	0.011951	-0.106841
C78	C	1.250461	0.345284	0.226492
C79	C	0.531506	-0.385487	-0.424811
C80	C	0.864839	-0.052154	-0.091478
C81	C	1.198173	0.281180	0.241856
C82	C	0.715373	-0.338439	-0.373138
C83	C	1.048706	-0.005105	-0.039805
C84	C	1.382040	0.328228	0.293529
C85	C	0.401191	-0.338480	-0.373211
C86	C	0.734524	-0.005147	-0.039877
C87	C	1.067858	0.328187	0.293456
C88	C	1.049583	-0.520928	-0.381357
C89	C	1.382916	-0.187595	-0.048024
C90	C	1.716249	0.145739	0.285310
C91	C	1.046092	-0.598994	-0.384886
C92	C	1.379425	-0.265661	-0.051553
C93	C	1.712758	0.067672	0.281781
C94	C	1.091975	-0.635661	-0.339100
C95	C	1.425308	-0.302327	-0.005767
C96	C	1.758641	0.031006	0.327567
C97	C	1.088695	-0.709012	-0.342424
C98	C	1.422029	-0.375679	-0.009090
C99	C	1.755362	-0.042346	0.324243
C100	C	1.039529	-0.745696	-0.391530
C101	C	1.372862	-0.412362	-0.058197
C102	C	1.706196	-0.079029	0.275137
C103	C	0.993644	-0.709024	-0.437321
C104	C	1.326977	-0.375691	-0.103987
C105	C	1.660311	-0.042357	0.229346
C106	C	0.996928	-0.635674	-0.434001
C107	C	1.330261	-0.302341	-0.100667
C108	C	1.663594	0.030993	0.232666
C109	C	1.027241	-0.967166	-0.403932
C110	C	1.360575	-0.633833	-0.070599
C111	C	1.693908	-0.300499	0.262735
C112	C	1.023960	-1.040521	-0.407247
C113	C	1.357293	-0.707188	-0.073914
C114	C	1.690626	-0.373854	0.259420
C115	C	1.119012	-1.040504	-0.312351
C116	C	1.452346	-0.707171	0.020983
C117	C	1.785679	-0.373838	0.354316
C118	C	1.122288	-0.967153	-0.309032
C119	C	1.455622	-0.633819	0.024302
C120	C	1.788955	-0.300486	0.357635
C121	C	1.076406	-0.930487	-0.354825
C122	C	1.409740	-0.597154	-0.021492
C123	C	1.743073	-0.263821	0.311841
C124	C	1.036174	-0.820673	-0.394927
C125	C	1.369508	-0.487339	-0.061593
C126	C	1.702841	-0.154006	0.271740
C127	C	1.079765	-0.855512	-0.351432
C128	C	1.413098	-0.522179	-0.018098
C129	C	1.746432	-0.188845	0.315235
C130	C	1.251607	-0.338474	-0.373208
C131	C	1.584940	-0.005141	-0.039875
C132	C	1.918274	0.328193	0.293458
C133	C	1.334152	-0.338485	-0.373227
C134	C	1.667485	-0.005152	-0.039893
C135	C	2.000819	0.328181	0.293440
C136	C	1.057933	-0.338416	-0.566870
C137	C	1.391266	-0.005083	-0.233537
C138	C	1.724600	0.328251	0.099797
C139	C	1.057946	-0.338403	-0.649415
C140	C	1.391279	-0.005069	-0.316082
C141	C	1.724613	0.328264	0.017252
C142	C	1.066275	-0.155254	-0.364959
C143	C	1.399608	0.178080	-0.031625
C144	C	1.732942	0.511413	0.301708
C145	C	1.069843	-0.077188	-0.361461
C146	C	1.403176	0.256146	-0.028128
C147	C	1.736509	0.589479	0.305205
C148	C	1.006237	-0.385246	-0.850954
C149	C	1.339570	-0.051913	-0.517620
C150	C	1.672904	0.281421	-0.184287
C151	C	1.073218	-0.402419	-0.901126
C152	C	1.406551	-0.069086	-0.567792
C153	C	1.739884	0.264248	-0.234459
C154	C	1.057985	-0.338349	-0.800543
C155	C	1.391318	-0.005016	-0.467210
C156	C	1.724652	0.328317	-0.133877
C157	C	0.991042	-0.321157	-0.897452
C158	C	1.324376	0.012176	-0.564119
C159	C	1.657709	0.345510	-0.230786
C160	C	1.058017	-0.338299	-0.946526
C161	C	1.391350	-0.004965	-0.613193
C162	C	1.724683	0.328368	-0.279859
C163	C	1.125000	-0.355556	-0.849629
C164	C	1.458333	-0.022222	-0.516296
C165	C	1.791666	0.311111	-0.182963
C166	C	1.042780	-0.274264	-0.845950
C167	C	1.376114	0.059069	-0.512617
C168	C	1.709447	0.392403	-0.179284
C169	C	1.109809	-0.291412	-0.896099
C170	C	1.443142	0.041921	-0.562765
C171	C	1.776476	0.375254	-0.229432
C172	C	1.057966	-0.338380	-0.716446
C173	C	1.391299	-0.005047	-0.383113
C174	C	1.724632	0.328287	-0.049780
C175	C	1.058044	-0.338268	-1.030621
C176	C	1.391377	-0.004934	-0.697288
C177	C	1.724710	0.328399	-0.363955
C178	C	1.057917	-0.338428	-0.180213
C179	C	1.391250	-0.005094	0.153121
C180	C	1.724584	0.328239	0.486454
C181	C	1.058057	-0.338243	-0.097659
C182	C	1.391390	-0.004910	0.235674
C183	C	1.724724	0.328424	0.569008
H184	H	0.508190	-0.425270	-0.468489
H185	H	0.841523	-0.091937	-0.135155
H186	H	1.174857	0.241397	0.198178
H187	H	0.606202	-0.306918	-0.496817
H188	H	0.939536	0.026415	-0.163483
H189	H	1.272869	0.359749	0.169850
O190	O	1.027525	-0.209635	-0.817089
O191	O	1.360858	0.123699	-0.483755
O192	O	1.694191	0.457032	-0.150422
C193	C	1.087606	-0.183098	-0.772939
C194	C	1.420939	0.150236	-0.439606
C195	C	1.754273	0.483569	-0.106272
H196	H	1.140185	-0.209994	-0.791036
H197	H	1.473519	0.123340	-0.457702
H198	H	1.806852	0.456673	-0.124369
H199	H	1.095490	-0.124252	-0.779802
H200	H	1.428824	0.209081	-0.446468
H201	H	1.762157	0.542415	-0.113135
H202	H	1.075726	-0.193587	-0.712281
H203	H	1.409059	0.139746	-0.378947
H204	H	1.742393	0.473079	-0.045614
O205	O	0.923517	-0.303706	-0.922502
O206	O	1.256851	0.029627	-0.589169
O207	O	1.590184	0.362961	-0.255836
C208	C	0.907053	-0.236638	-0.893215
C209	C	1.240386	0.096695	-0.559881
C210	C	1.573720	0.430029	-0.226548
H211	H	0.960780	-0.206223	-0.877227
H212	H	1.294114	0.127110	-0.543894
H213	H	1.627447	0.460444	-0.210561
H214	H	0.876474	-0.207305	-0.936706
H215	H	1.209807	0.126029	-0.603373
H216	H	1.543141	0.459362	-0.270039
H217	H	0.870591	-0.242152	-0.842030
H218	H	1.203925	0.091181	-0.508697
H219	H	1.537258	0.424514	-0.175363
H220	H	0.517235	-0.220255	-0.401527
H221	H	0.850568	0.113078	-0.068194
H222	H	1.183902	0.446411	0.265140
H223	H	1.132008	-0.605798	-0.299109
H224	H	1.465341	-0.272465	0.034224
H225	H	1.798674	0.060869	0.367557
O226	O	0.505951	-0.372842	-0.238607
O227	O	0.839284	-0.039508	0.094727
O228	O	1.172617	0.293825	0.428060
C229	C	0.460164	-0.434334	-0.246410
C230	C	0.793497	-0.101000	0.086924
C231	C	1.126831	0.232333	0.420257
H232	H	0.475700	-0.465037	-0.299242
H233	H	0.809033	-0.131704	0.034091
H234	H	1.142367	0.201629	0.367424
H235	H	0.468057	-0.467937	-0.196557
H236	H	0.801391	-0.134604	0.136777
H237	H	1.134724	0.198730	0.470110
H238	H	0.399712	-0.419752	-0.249739
H239	H	0.733045	-0.086419	0.083595
H240	H	1.066378	0.246914	0.416928
O241	O	0.602960	-0.467171	-0.342241
O242	O	0.936293	-0.133838	-0.008908
O243	O	1.269627	0.199496	0.324426
C244	C	0.645285	-0.493638	-0.401946
C245	C	0.978618	-0.160304	-0.068613
C246	C	1.311951	0.173029	0.264721
H247	H	0.668941	-0.448289	-0.434903
H248	H	1.002274	-0.114956	-0.101570
H249	H	1.335608	0.218377	0.231764
H250	H	0.692649	-0.524293	-0.379657
H251	H	1.025982	-0.190960	-0.046324
H252	H	1.359315	0.142374	0.287009
H253	H	0.608491	-0.529733	-0.439555
H254	H	0.941824	-0.196399	-0.106221
H255	H	1.275157	0.136934	0.227112
H256	H	0.962512	-0.424957	-0.831065
H257	H	1.295846	-0.091624	-0.497732
H258	H	1.629179	0.241710	-0.164399
H259	H	1.181639	-0.370137	-0.828690
H260	H	1.514973	-0.036804	-0.495356
H261	H	1.848306	0.296529	-0.162023
H262	H	1.162323	-0.937286	-0.269045
H263	H	1.495657	-0.603953	0.064288
H264	H	1.828990	-0.270620	0.397621
H265	H	1.119799	-0.825642	-0.311452
H266	H	1.453133	-0.492309	0.021881
H267	H	1.786466	-0.158975	0.355214
H268	H	0.996142	-0.850549	-0.434907
H269	H	1.329475	-0.517215	-0.101574
H270	H	1.662808	-0.183882	0.231759
O271	O	1.133211	-0.744760	-0.298015
O272	O	1.466544	-0.411426	0.035318
O273	O	1.799877	-0.078093	0.368651
C274	C	1.089145	-0.787310	-0.251917
C275	C	1.422478	-0.453977	0.081416
C276	C	1.755811	-0.120643	0.414749
H277	H	1.032304	-0.798274	-0.278459
H278	H	1.365638	-0.464941	0.054874
H279	H	1.698971	-0.131608	0.388207
H280	H	1.117107	-0.838893	-0.244487
H281	H	1.450440	-0.505560	0.088846
H282	H	1.783773	-0.172227	0.422180
H283	H	1.082391	-0.759171	-0.195531
H284	H	1.415724	-0.425838	0.137803
H285	H	1.749057	-0.092504	0.471136
O286	O	0.613176	-0.244127	-0.269448
O287	O	0.946509	0.089206	0.063886
O288	O	1.279842	0.422539	0.397219
C289	C	0.691269	-0.244328	-0.270564
C290	C	1.024602	0.089005	0.062769
C291	C	1.357936	0.422339	0.396102
H292	H	0.710538	-0.265274	-0.327086
H293	H	1.043871	0.068060	0.006247
H294	H	1.377204	0.401393	0.339581
H295	H	0.715135	-0.188649	-0.259868
H296	H	1.048468	0.144685	0.073465
H297	H	1.381802	0.478018	0.406799
H298	H	0.711283	-0.279222	-0.225644
H299	H	1.044617	0.054112	0.107690
H300	H	1.377950	0.387445	0.441023
O301	O	1.088460	-0.467088	-0.929899
O302	O	1.421793	-0.133755	-0.596565
O303	O	1.755126	0.199578	-0.263232
C304	C	1.033766	-0.516404	-0.906955
C305	C	1.367099	-0.183071	-0.573621
C306	C	1.700432	0.150263	-0.240288
H307	H	0.980963	-0.488470	-0.891829
H308	H	1.314297	-0.155137	-0.558495
H309	H	1.647630	0.178196	-0.225162
H310	H	1.021511	-0.556931	-0.953970
H311	H	1.354844	-0.223597	-0.620637
H312	H	1.688177	0.109736	-0.287304
H313	H	1.054595	-0.543689	-0.856514
H314	H	1.387928	-0.210356	-0.523181
H315	H	1.721261	0.122977	-0.189847
O316	O	1.162183	-0.244153	-0.919641
O317	O	1.495517	0.089180	-0.586307
O318	O	1.828850	0.422514	-0.252974
C319	C	1.232645	-0.262503	-0.895158
C320	C	1.565978	0.070830	-0.561825
C321	C	1.899311	0.404164	-0.228492
H322	H	1.231390	-0.320779	-0.883992
H323	H	1.564724	0.012554	-0.550659
H324	H	1.898057	0.345887	-0.217325
H325	H	1.275647	-0.250706	-0.939700
H326	H	1.608981	0.082628	-0.606367
H327	H	1.942314	0.415961	-0.273034
H328	H	1.247874	-0.230863	-0.841987
H329	H	1.581207	0.102470	-0.508653
H330	H	1.914540	0.435804	-0.175320
H331	H	1.156368	-1.070365	-0.275069
H332	H	1.489701	-0.737032	0.058264
H333	H	1.823035	-0.403698	0.391598
H334	H	0.983931	-1.070387	-0.447248
H335	H	1.317265	-0.737054	-0.113915
H336	H	1.650598	-0.403720	0.219418
H337	H	0.989881	-0.937319	-0.441218
H338	H	1.323214	-0.603985	-0.107884
H339	H	1.656547	-0.270652	0.225449
H340	H	0.953615	-0.738898	-0.477307
H341	H	1.286948	-0.405564	-0.143974
H342	H	1.620282	-0.072231	0.189359
H343	H	0.959566	-0.605821	-0.471285
H344	H	1.292899	-0.272487	-0.137952
H345	H	1.626232	0.060846	0.195381
