data_functionalizedCrystal
_audit_creation_method	'MofGen! by Chris Wilmer'
_symmetry_space_group_name_H-M	'P1'
_symmetry_Int_Tables_number	1
_symmetry_cell_setting	triclinic
loop_
_symmetry_equiv_pos_as_xyz
  x,y,z
_cell_length_a	14.519731
_cell_length_b	14.519731
_cell_length_c	15.186229
_cell_angle_alpha	89.996550
_cell_angle_beta	89.998303
_cell_angle_gamma	96.311147
loop_
_atom_site_label
_atom_site_type_symbol
_atom_site_fract_x
_atom_site_fract_y
_atom_site_fract_z
O1	O	-0.120982	1.223863	-0.073220
O2	O	-0.135198	0.955390	-0.073220
O3	O	0.006146	1.096735	-0.073226
O4	O	-0.262327	1.082519	-0.073213
O5	O	0.006148	1.096725	0.073231
O6	O	-0.135196	0.955381	0.073238
O7	O	-0.120980	1.223854	0.073238
Zn8	Zn	-0.128088	1.089616	0.096491
Zn9	Zn	-0.128091	1.089628	-0.096473
O10	O	-0.262325	1.082509	0.073244
C11	C	-0.134531	0.921026	0.000009
C12	C	-0.132535	0.818645	0.000008
C13	C	-0.130913	0.735501	0.000005
C14	C	-0.128887	0.631192	0.000004
C15	C	-0.127278	0.548053	0.000004
C16	C	-0.125252	0.443738	0.000002
C17	C	-0.296685	1.083180	0.000017
C18	C	-0.399066	1.085176	0.000022
C19	C	-0.482210	1.086798	0.000018
C20	C	-0.586519	1.088825	0.000010
C21	C	-0.669658	1.090433	0.000003
C22	C	-0.773974	1.092459	-0.000004
C23	C	0.040507	1.096064	-0.000001
C24	C	0.142887	1.094068	-0.000011
C25	C	-0.121648	1.258218	0.000007
C26	C	-0.123643	1.360598	0.000002
N27	N	-0.128086	1.089614	0.228184
N28	N	-0.128086	1.089637	-0.228165
C29	C	-0.065519	1.152223	0.453904
C30	C	-0.065517	1.152226	0.546093
C31	C	-0.190655	1.027022	0.546108
C32	C	-0.190652	1.027015	0.453920
C33	C	-0.128085	1.089621	0.407820
C34	C	-0.128086	1.089630	0.592198
C35	C	-0.128084	1.089633	0.692154
C36	C	-0.128086	1.089617	0.307858
H37	H	-0.014573	1.203199	0.416371
H38	H	-0.241601	0.976033	0.416396
H39	H	-0.014569	1.203200	0.583612
H40	H	-0.241597	0.976051	0.583652
