data_functionalizedCrystal
_audit_creation_method	'MofGen! by Chris Wilmer'
_symmetry_space_group_name_H-M	'P1'
_symmetry_Int_Tables_number	1
_symmetry_cell_setting	triclinic
loop_
_symmetry_equiv_pos_as_xyz
  x,y,z
_cell_length_a	12.827893
_cell_length_b	13.897448
_cell_length_c	12.827885
_cell_angle_alpha	89.967724
_cell_angle_beta	89.980728
_cell_angle_gamma	90.017663
loop_
_atom_site_label
_atom_site_type_symbol
_atom_site_fract_x
_atom_site_fract_y
_atom_site_fract_z
Zn1	Zn	1.597653	-0.383969	-0.590831
Zn2	Zn	2.097653	0.116031	-0.090831
Zn3	Zn	1.597540	-0.545295	-0.416083
Zn4	Zn	2.097540	-0.045295	0.083917
Zn5	Zn	1.422894	-0.384016	-0.416104
Zn6	Zn	1.922894	0.115984	0.083896
Zn7	Zn	1.422873	-0.545224	-0.590783
Zn8	Zn	1.922873	-0.045224	-0.090783
O9	O	1.510240	-0.464626	-0.503450
O10	O	2.010240	0.035374	-0.003450
O11	O	1.743874	-0.405380	-0.567661
O12	O	2.243874	0.094620	-0.067661
O13	O	1.574335	-0.523951	-0.269850
O14	O	2.074335	-0.023951	0.230150
O15	O	1.446133	-0.249028	-0.439311
O16	O	1.946133	0.250972	0.060689
O17	O	1.743791	-0.523905	-0.439275
O18	O	2.243791	-0.023905	0.060725
O19	O	1.574527	-0.248994	-0.567681
O20	O	2.074527	0.251006	-0.067681
O21	O	1.446023	-0.405460	-0.269865
O22	O	1.946023	0.094540	0.230135
O23	O	1.276655	-0.405390	-0.439265
O24	O	1.776655	0.094610	0.060735
O25	O	1.446096	-0.523783	-0.737026
O26	O	1.946096	-0.023783	-0.237026
O27	O	1.276639	-0.523829	-0.567601
O28	O	1.776639	-0.023829	-0.067601
O29	O	1.574506	-0.405310	-0.737060
O30	O	2.074506	0.094690	-0.237060
O31	O	1.574314	-0.680267	-0.439229
O32	O	2.074314	-0.180267	0.060771
O33	O	1.445986	-0.680215	-0.567580
O34	O	1.945986	-0.180215	-0.067580
C35	C	1.238730	-0.464607	-0.503430
C36	C	1.738730	0.035393	-0.003430
C37	C	1.122577	-0.464623	-0.503447
C38	C	1.622577	0.035377	-0.003447
C39	C	1.070812	-0.523321	-0.566853
C40	C	1.570812	-0.023321	-0.066853
C41	C	0.950762	-0.523338	-0.566872
C42	C	1.450762	-0.023338	-0.066872
C43	C	1.510164	-0.715240	-0.503420
C44	C	2.010164	-0.215240	-0.003420
C45	C	1.510227	-0.822454	-0.503442
C46	C	2.010227	-0.322454	-0.003442
C47	C	1.510336	-1.018749	-0.503508
C48	C	2.010336	-0.518749	-0.003508
C49	C	1.510272	-0.909517	-0.503474
C50	C	2.010272	-0.409517	-0.003474
C51	C	1.782810	-0.464645	-0.503471
C52	C	2.282810	0.035355	-0.003471
C53	C	1.898963	-0.464654	-0.503480
C54	C	2.398963	0.035346	-0.003480
C55	C	1.510311	-0.464533	-0.776021
C56	C	2.010311	0.035467	-0.276021
C57	C	1.510341	-0.464494	-0.892174
C58	C	2.010341	0.035506	-0.392174
C59	C	1.510345	-0.213033	-0.503504
C60	C	2.010345	0.286967	-0.003504
C61	C	1.510390	-0.105819	-0.503526
C62	C	2.010390	0.394181	-0.003526
C63	C	1.573890	-0.405858	-0.943976
C64	C	2.073890	0.094142	-0.443976
C65	C	1.573923	-0.405816	-1.064026
C66	C	2.073923	0.094184	-0.564026
C67	C	1.510229	-0.464649	-0.231940
C68	C	2.010229	0.035351	0.268060
C69	C	1.510401	-0.464416	-0.115788
C70	C	2.010401	0.035584	0.384212
H71	H	0.906245	-0.573595	-0.621154
H72	H	1.406245	-0.073595	-0.121154
O73	O	0.952171	-0.404830	-0.438660
O74	O	1.452171	0.095170	0.061340
C75	C	1.015243	-0.459720	-0.371090
C76	C	1.515243	0.040280	0.128910
H77	H	1.031491	-0.532871	-0.407821
H78	H	1.531491	-0.032871	0.092179
H79	H	0.973202	-0.470203	-0.293597
H80	H	1.473202	0.029797	0.206403
C81	C	1.099026	-0.316856	-0.307234
C82	C	1.599026	0.183144	0.192766
C83	C	1.118989	-0.406699	-0.352351
C84	C	1.618989	0.093301	0.147649
H85	H	1.163019	-0.284150	-0.295669
H86	H	1.663019	0.215850	0.204331
H87	H	1.056531	-0.279875	-0.352753
H88	H	1.556531	0.220125	0.147247
H89	H	1.063989	-0.325605	-0.242661
H90	H	1.563989	0.174395	0.257339
H91	H	1.154013	-0.397949	-0.416928
H92	H	1.654013	0.102051	0.083072
H93	H	1.161493	-0.443678	-0.306841
H94	H	1.661493	0.056322	0.193159
O95	O	1.638930	-0.345892	-1.117002
O96	O	2.138930	0.154108	-0.617002
C97	C	1.697965	-0.291396	-1.045556
C98	C	2.197965	0.208604	-0.545556
H99	H	1.701616	-0.330867	-0.967717
H100	H	2.201616	0.169133	-0.467717
H101	H	1.659732	-0.218130	-1.034000
H102	H	2.159732	0.281870	-0.534000
C103	C	1.804679	-0.229041	-1.183877
C104	C	2.304679	0.270959	-0.683877
C105	C	1.809171	-0.277524	-1.088275
C106	C	2.309171	0.222476	-0.588275
H107	H	1.873275	-0.220479	-1.210229
H108	H	2.373275	0.279521	-0.710229
H109	H	1.764905	-0.265753	-1.232012
H110	H	2.264905	0.234247	-0.732012
H111	H	1.772814	-0.167991	-1.174234
H112	H	2.272814	0.332009	-0.674234
H113	H	1.841024	-0.338577	-1.097922
H114	H	2.341024	0.161423	-0.597922
H115	H	1.848954	-0.240821	-1.040143
H116	H	2.348954	0.259179	-0.540143
O117	O	1.445637	-0.524359	-1.062540
O118	O	1.945637	-0.024359	-0.562540
C119	C	1.505153	-0.586647	-0.999418
C120	C	2.005153	-0.086647	-0.499418
H121	H	1.584372	-0.552624	-0.983190
H122	H	2.084372	-0.052624	-0.483190
H123	H	1.516577	-0.658151	-1.041405
H124	H	2.016577	-0.158151	-0.541405
C125	C	1.350423	-0.645846	-0.915599
C126	C	1.850423	-0.145846	-0.415599
C127	C	1.447718	-0.604054	-0.895662
C128	C	1.947718	-0.104054	-0.395662
H129	H	1.314993	-0.656587	-0.851600
H130	H	1.814993	-0.156587	-0.351600
H131	H	1.310324	-0.603884	-0.958128
H132	H	1.810324	-0.103884	-0.458128
H133	H	1.359956	-0.705428	-0.950591
H134	H	1.859956	-0.205428	-0.450591
H135	H	1.438183	-0.544468	-0.860683
H136	H	1.938183	-0.044468	-0.360683
H137	H	1.487814	-0.646006	-0.853124
H138	H	1.987814	-0.146006	-0.353124
H139	H	1.078018	-0.414377	-0.449180
H140	H	1.578018	0.085623	0.050820
H141	H	1.115371	-0.573559	-0.621128
H142	H	1.615371	-0.073559	-0.121128
H143	H	1.628268	-0.355686	-0.899449
H144	H	2.128268	0.144314	-0.399449
H145	H	1.455953	-0.514656	-0.936701
H146	H	1.955953	-0.014656	-0.436701
