data_functionalizedCrystal
_audit_creation_method	'MofGen! by Chris Wilmer'
_symmetry_space_group_name_H-M	'P1'
_symmetry_Int_Tables_number	1
_symmetry_cell_setting	triclinic
loop_
_symmetry_equiv_pos_as_xyz
  x,y,z
_cell_length_a	19.805407
_cell_length_b	18.050589
_cell_length_c	19.805399
_cell_angle_alpha	89.977706
_cell_angle_beta	89.982197
_cell_angle_gamma	90.025537
loop_
_atom_site_label
_atom_site_type_symbol
_atom_site_fract_x
_atom_site_fract_y
_atom_site_fract_z
Zn1	Zn	1.034727	-0.295730	-0.382713
Zn2	Zn	1.034638	-0.419922	-0.269535
Zn3	Zn	0.921542	-0.295745	-0.269541
Zn4	Zn	0.921502	-0.419877	-0.382685
O5	O	0.978102	-0.357818	-0.326118
O6	O	1.129432	-0.312217	-0.367708
O7	O	1.019616	-0.403475	-0.174819
O8	O	0.936610	-0.191818	-0.284567
O9	O	1.129367	-0.403460	-0.284557
O10	O	1.019767	-0.191807	-0.367714
O11	O	0.936524	-0.312242	-0.174823
O12	O	0.826820	-0.312198	-0.284540
O13	O	0.936542	-0.403383	-0.477405
O14	O	0.826790	-0.403397	-0.367667
O15	O	1.019728	-0.312173	-0.477425
O16	O	1.019577	-0.523841	-0.284530
O17	O	0.936456	-0.523807	-0.367661
C18	C	0.802246	-0.357795	-0.326102
C19	C	0.727014	-0.357803	-0.326111
C20	C	0.691705	-0.310377	-0.369473
C21	C	0.621016	-0.310380	-0.369476
C22	C	0.585639	-0.357815	-0.326119
C23	C	0.620953	-0.405244	-0.282751
C24	C	0.691640	-0.405235	-0.282746
C25	C	0.335880	-0.405277	-0.282772
C26	C	0.265188	-0.405283	-0.282783
C27	C	0.265256	-0.310422	-0.369502
C28	C	0.335943	-0.310414	-0.369497
C29	C	0.371251	-0.357839	-0.326127
C30	C	0.447900	-0.357833	-0.326124
C31	C	0.508992	-0.357825	-0.326125
C32	C	0.978021	-0.550770	-0.326107
C33	C	0.978048	-0.633316	-0.326125
C34	C	0.932891	-0.832776	-0.371316
C35	C	0.916392	-0.882214	-0.309553
C36	C	0.978114	-0.784447	-0.326134
C37	C	0.994646	-0.882090	-0.387903
C38	C	0.978177	-0.930432	-0.326148
C39	C	0.961583	-0.832797	-0.264338
C40	C	1.039865	-0.832670	-0.342730
C41	C	1.023390	-0.882085	-0.280925
C42	C	0.978076	-0.700348	-0.326126
C43	C	0.978215	-1.014528	-0.326148
C44	C	1.154645	-0.357842	-0.326135
C45	C	1.229877	-0.357852	-0.326142
C46	C	0.978140	-0.357772	-0.502661
C47	C	0.978156	-0.357752	-0.577893
C48	C	0.978203	-0.164113	-0.326144
C49	C	0.978246	-0.081567	-0.326155
C50	C	1.021472	-0.310256	-0.613249
C51	C	1.021479	-0.310235	-0.683937
C52	C	0.978173	-0.357713	-0.719269
C53	C	0.934852	-0.405210	-0.683908
C54	C	0.934843	-0.405228	-0.613221
C55	C	0.934891	-0.405141	-0.968981
C56	C	0.934905	-0.405122	-1.039674
C57	C	1.021527	-0.310148	-1.039698
C58	C	1.021518	-0.310165	-0.969011
C59	C	0.978195	-0.357660	-0.933656
C60	C	0.978187	-0.357682	-0.857008
C61	C	0.978184	-0.357695	-0.795916
C62	C	0.978103	-0.357811	-0.150262
C63	C	0.978218	-0.357622	-0.075031
H64	H	0.592143	-0.443862	-0.247446
N65	N	1.012167	-0.909244	-0.453427
N66	N	1.067755	-0.892455	-0.479138
H67	H	1.080125	-0.911631	-0.525415
H68	H	1.056753	-0.271561	-0.712721
H69	H	1.056784	-0.271506	-0.940247
H70	H	0.864201	-0.903992	-0.295528
N71	N	0.884859	-0.805604	-0.419190
N72	N	0.890380	-0.822281	-0.480191
H73	H	0.856457	-0.803089	-0.514001
N74	N	0.727700	-0.453679	-0.238442
N75	N	0.696107	-0.496026	-0.199731
H76	H	0.721573	-0.530239	-0.168437
H77	H	0.720504	-0.271752	-0.404782
N78	N	1.065700	-0.261756	-0.577151
N79	N	1.065685	-0.261774	-0.514039
H80	H	1.096920	-0.227517	-0.488545
N81	N	0.372091	-0.261969	-0.413784
N82	N	0.411546	-0.288156	-0.456869
H83	H	0.437077	-0.253940	-0.488146
H84	H	1.092045	-0.810893	-0.356785
N85	N	0.943989	-0.805742	-0.198800
N86	N	0.941094	-0.737552	-0.188225
H87	H	0.928662	-0.718441	-0.141942
N88	N	0.371949	-0.453714	-0.238475
N89	N	0.411381	-0.427519	-0.195378
H90	H	0.436857	-0.461729	-0.164090
N91	N	0.890660	-0.453624	-1.075755
N92	N	0.851980	-0.496024	-1.044181
H93	H	0.820732	-0.530276	-1.069663
N94	N	1.065778	-0.261636	-1.075823
N95	N	1.065784	-0.261624	-1.138936
H96	H	1.097036	-0.227365	-1.164450
N97	N	0.229178	-0.261981	-0.413801
N98	N	0.166065	-0.261991	-0.413803
H99	H	0.140585	-0.227783	-0.445089
H100	H	0.899624	-0.443825	-0.940204
N101	N	1.071398	-0.909071	-0.232941
N102	N	1.065231	-0.893127	-0.171839
H103	H	1.099133	-0.912187	-0.137948
H104	H	0.592270	-0.271763	-0.404788
H105	H	0.899563	-0.443896	-0.584435
N106	N	0.229060	-0.453745	-0.238489
N107	N	0.260592	-0.496086	-0.199769
H108	H	0.235077	-0.530311	-0.168489
N109	N	0.890614	-0.453698	-0.720006
N110	N	0.890628	-0.453677	-0.783119
H111	H	0.859385	-0.487924	-0.808614
