data_functionalizedCrystal
_audit_creation_method	'MofGen! by Chris Wilmer'
_symmetry_space_group_name_H-M	'P1'
_symmetry_Int_Tables_number	1
_symmetry_cell_setting	triclinic
loop_
_symmetry_equiv_pos_as_xyz
  x,y,z
_cell_length_a	10.654553
_cell_length_b	19.188930
_cell_length_c	17.666332
_cell_angle_alpha	89.993235
_cell_angle_beta	89.992934
_cell_angle_gamma	83.815479
loop_
_atom_site_label
_atom_site_type_symbol
_atom_site_fract_x
_atom_site_fract_y
_atom_site_fract_z
O1	O	1.665768	0.098069	-0.062966
O2	O	1.300093	0.107409	-0.062967
O3	O	1.493483	0.001152	-0.062952
O4	O	1.472378	0.204326	-0.062981
O5	O	1.493457	0.001156	0.062945
O6	O	1.300067	0.107413	0.062930
O7	O	1.665743	0.098072	0.062930
Cu8	Cu	1.482902	0.102743	0.074425
Cu9	Cu	1.482933	0.102739	-0.074462
O10	O	1.472352	0.204329	0.062915
C11	C	1.253296	0.106725	-0.000018
C12	C	1.113897	0.104671	-0.000018
C13	C	0.917404	0.101775	0.068604
C14	C	1.048384	0.103708	0.068608
C15	C	1.048422	0.103708	-0.068652
C16	C	0.917443	0.101780	-0.068655
C17	C	0.917384	0.101772	0.147849
C18	C	1.048364	0.103705	0.147853
C19	C	1.492787	-0.024861	-0.000001
C20	C	1.490735	-0.102379	0.000005
C21	C	1.604210	-0.146560	0.000009
C22	C	1.602283	-0.219397	-0.000003
C23	C	1.486874	-0.248049	-0.000004
C24	C	1.373384	-0.203858	-0.000012
C25	C	1.375314	-0.131023	-0.000007
N26	N	1.398648	-0.356630	0.042841
N27	N	1.396822	-0.425821	0.042838
C28	C	1.481050	-0.467496	-0.000019
N29	N	1.567192	-0.437367	-0.042864
N30	N	1.569022	-0.368171	-0.042858
C31	C	1.484767	-0.327025	-0.000009
C32	C	1.592443	-0.590655	-0.000030
C33	C	1.590510	-0.663492	-0.000046
C34	C	1.361608	-0.647952	-0.000048
C35	C	1.363543	-0.575116	-0.000038
C36	C	1.478964	-0.546472	-0.000026
C37	C	1.712539	0.098757	-0.000020
C38	C	1.851938	0.100810	-0.000025
C39	C	1.473048	0.230343	-0.000037
C40	C	1.475100	0.307861	-0.000048
N41	N	1.482890	0.102745	0.179145
N42	N	1.482955	0.102731	-0.179181
C43	C	1.558881	0.145463	0.781188
C44	C	1.558869	0.145470	0.701940
C45	C	1.482944	0.102732	0.662326
C46	C	1.407002	0.059996	0.701967
C47	C	1.407008	0.059996	0.781213
N48	N	1.479904	0.041551	0.537911
N49	N	1.479906	0.041553	0.462630
C50	C	1.482922	0.102731	0.423562
N51	N	1.485960	0.163908	0.462619
N52	N	1.485965	0.163905	0.537906
C53	C	1.482930	0.102728	0.576397
C54	C	1.558839	0.145475	0.298002
C55	C	1.558817	0.145483	0.218753
C56	C	1.406958	0.060003	0.218781
C57	C	1.406972	0.060001	0.298029
C58	C	1.482919	0.102736	0.337635
H59	H	1.698195	-0.123244	0.000017
H60	H	1.271139	-0.539143	-0.000037
H61	H	1.101771	0.104500	-0.124528
H62	H	0.870073	0.150020	0.178270
H63	H	1.345177	0.025197	0.813480
H64	H	1.345131	0.025208	0.186528
O65	O	1.082142	0.164477	0.177238
C66	C	1.011434	0.276739	0.232346
C67	C	0.973004	0.207942	0.199107
H68	H	0.923216	0.311905	0.250022
H69	H	1.074556	0.264565	0.283809
H70	H	1.064990	0.304698	0.187760
H71	H	0.919399	0.179949	0.243639
H72	H	0.909942	0.220162	0.147629
O73	O	1.333085	0.018587	0.336565
C74	C	1.163618	0.013673	0.426093
C75	C	1.247194	0.060658	0.382484
H76	H	1.094173	0.047667	0.463241
H77	H	1.109255	-0.016860	0.384205
H78	H	1.225626	-0.024583	0.463157
H79	H	1.185278	0.098954	0.345418
H80	H	1.301566	0.091141	0.424413
H81	H	1.686425	-0.567332	-0.000023
H82	H	0.888883	0.050852	0.172443
H83	H	0.864144	0.101003	-0.124539
O84	O	1.104604	0.046088	0.184144
C85	C	1.075472	-0.060786	0.250348
C86	C	1.011620	0.004423	0.209258
H87	H	1.000322	-0.094483	0.270678
H88	H	1.142542	-0.092478	0.209811
H89	H	1.130831	-0.043641	0.301024
H90	H	0.956194	-0.012661	0.158584
H91	H	0.944622	0.036100	0.249845
H92	H	1.694691	-0.255376	-0.000003
H93	H	1.282906	-0.095050	-0.000010
O94	O	1.261354	-0.231770	-0.000112
C95	C	1.126317	-0.304944	-0.065364
C96	C	1.253251	-0.273395	-0.065331
H97	H	1.119714	-0.338593	-0.118096
H98	H	1.119658	-0.338707	-0.012714
H99	H	1.045562	-0.260840	-0.065329
H100	H	1.334079	-0.317453	-0.065393
H101	H	1.259800	-0.239614	-0.117977
H102	H	1.682919	-0.699464	-0.000048
H103	H	1.267639	-0.671280	-0.000052
H104	H	1.620721	0.180263	0.813430
H105	H	1.620696	0.180271	0.669667
H106	H	1.345182	0.025200	0.669708
H107	H	1.620673	0.180276	0.330251
O108	O	1.632503	0.187098	0.180339
C109	C	1.680859	0.304860	0.156049
C110	C	1.597341	0.257811	0.199612
H111	H	1.652443	0.362042	0.171603
H112	H	1.784070	0.289876	0.171635
H113	H	1.667836	0.297489	0.092609
H114	H	1.610255	0.265157	0.263062
H115	H	1.494161	0.272806	0.183963
