data_functionalizedCrystal
_audit_creation_method	'MofGen! by Chris Wilmer'
_symmetry_space_group_name_H-M	'P1'
_symmetry_Int_Tables_number	1
_symmetry_cell_setting	triclinic
loop_
_symmetry_equiv_pos_as_xyz
  x,y,z
_cell_length_a	27.732048
_cell_length_b	10.540539
_cell_length_c	9.616153
_cell_angle_alpha	89.998744
_cell_angle_beta	90.004957
_cell_angle_gamma	96.415927
loop_
_atom_site_label
_atom_site_type_symbol
_atom_site_fract_x
_atom_site_fract_y
_atom_site_fract_z
O1	O	0.068111	-1.682928	0.115597
O2	O	0.074528	-1.313236	0.115616
O3	O	0.000995	-1.509564	0.115579
O4	O	0.141644	-1.486601	0.115634
O5	O	0.000999	-1.509550	-0.115712
O6	O	0.074532	-1.313222	-0.115676
O7	O	0.068115	-1.682914	-0.115694
Zn8	Zn	0.071324	-1.498066	-0.152407
Zn9	Zn	0.071319	-1.498085	0.152329
O10	O	0.141648	-1.486586	-0.115658
C11	C	0.074049	-1.265947	-0.000028
C12	C	0.072609	-1.125062	-0.000022
C13	C	-0.017013	-1.509075	-0.000070
C14	C	-0.070677	-1.507623	-0.000081
N15	N	0.071328	-1.498062	-0.360382
C16	C	-0.408819	-1.614502	-0.000015
C17	C	-0.610513	-1.609117	0.000004
O18	O	-0.641153	-1.706850	0.000060
N19	N	-0.630369	-1.492703	0.000009
C20	C	-0.599799	-1.377627	0.000018
O21	O	-0.621317	-1.278486	0.000036
C22	C	-0.398107	-1.383013	0.000008
C23	C	-0.378253	-1.499435	-0.000011
C24	C	-0.388965	-1.730915	-0.000033
C25	C	-0.338544	-1.732260	-0.000045
C26	C	-0.307978	-1.617193	-0.000040
C27	C	-0.327832	-1.500780	-0.000023
C28	C	-0.367538	-1.267939	0.000027
C29	C	-0.317112	-1.269296	0.000028
C30	C	-0.297258	-1.385718	0.000009
C31	C	-0.246846	-1.387058	-0.000031
N32	N	-0.226989	-1.503472	-0.000036
C33	C	-0.257555	-1.618540	-0.000040
C34	C	-0.705691	-1.374807	0.000020
C35	C	-0.756114	-1.373460	0.000020
C36	C	-0.766824	-1.604950	0.000009
C37	C	-0.716400	-1.606296	-0.000001
C38	C	-0.685834	-1.491221	0.000015
C39	C	-0.151668	-1.621356	-0.000068
C40	C	-0.101243	-1.622691	-0.000086
C41	C	-0.090538	-1.391201	-0.000068
C42	C	-0.140959	-1.389865	-0.000057
C43	C	-0.171523	-1.504953	-0.000052
O44	O	-0.216177	-1.289377	-0.000071
O45	O	-0.236029	-1.717666	-0.000028
C46	C	-0.459239	-1.613157	-0.000003
C47	C	-0.479094	-1.496745	0.000014
C48	C	-0.448528	-1.381678	0.000019
C49	C	-0.529517	-1.495398	0.000014
C50	C	-0.560083	-1.610465	0.000009
C51	C	-0.540226	-1.726879	0.000005
C52	C	-0.489806	-1.728224	-0.000008
C53	C	-0.468384	-1.265264	0.000023
C54	C	-0.518805	-1.263928	0.000034
C55	C	-0.549371	-1.378995	0.000030
C56	C	0.159656	-1.487075	-0.000005
C57	C	0.213320	-1.488527	0.000015
C58	C	0.068594	-1.730203	-0.000048
C59	C	0.070034	-1.871089	-0.000044
C60	C	0.017434	-0.944031	-0.000583
C61	C	0.018894	-1.090586	-0.000047
C62	C	0.098457	-1.062275	0.132062
C63	C	0.096624	-0.915810	0.132157
C64	C	0.097721	-0.915258	-0.130864
C65	C	0.098216	-1.062218	-0.132595
C66	C	0.110657	-1.392995	-0.419404
C67	C	0.110544	-1.392648	-0.580572
C68	C	0.020722	-1.470705	-0.581184
C69	C	0.020962	-1.469930	-0.419967
C70	C	0.082132	-1.630856	-0.419769
C71	C	0.083265	-1.629962	-0.580998
N72	N	0.071311	-1.498098	0.360303
H73	H	-0.085081	-1.717499	-0.000105
H74	H	0.103782	-1.294973	-0.378917
C75	C	-0.467973	-1.856289	-0.000014
H76	H	-0.493404	-1.924616	-0.000002
H77	H	-0.448528	-1.861635	-0.080670
H78	H	-0.448524	-1.861635	0.080653
C79	C	-0.008771	-1.148202	0.128071
H80	H	-0.007975	-1.238073	0.128833
H81	H	0.006096	-1.112303	0.210226
H82	H	-0.041505	-1.129792	0.124186
C83	C	-0.573855	-1.853450	0.000010
H84	H	-0.606727	-1.835962	0.000032
H85	H	-0.567802	-1.901236	-0.080644
H86	H	-0.567789	-1.901224	0.080679
H87	H	0.135255	-0.866163	0.138167
C88	C	0.101103	-1.259516	-0.632718
H89	H	0.097319	-1.205436	-0.555370
H90	H	0.127771	-1.224226	-0.687595
H91	H	0.072382	-1.266753	-0.687342
H92	H	-0.534965	-1.169116	0.000037
C93	C	0.008239	-1.339165	-0.369193
H94	H	0.002976	-1.287013	-0.447096
H95	H	-0.020360	-1.350715	-0.314163
H96	H	0.034261	-1.299078	-0.315019
C97	C	-0.019810	-1.569470	-0.367210
H98	H	-0.036449	-1.610195	-0.444311
H99	H	-0.006202	-1.631404	-0.312303
H100	H	-0.041941	-1.528203	-0.312488
C101	C	0.072707	-1.118641	-0.264603
H102	H	0.046562	-1.180246	-0.239046
H103	H	0.060607	-1.052332	-0.316482
H104	H	0.095218	-1.158188	-0.319712
H105	H	-0.065642	-1.297516	-0.000069
C106	C	-0.389366	-1.139873	0.000059
H107	H	-0.363934	-1.071548	0.000080
H108	H	-0.408817	-1.134507	-0.080590
H109	H	-0.408807	-1.134543	0.080733
C110	C	0.151121	-1.092640	-0.143354
H111	H	0.158319	-1.144287	-0.066786
H112	H	0.155367	-1.137049	-0.227647
H113	H	0.172320	-1.015342	-0.142232
C114	C	-0.008581	-1.149346	-0.127952
H115	H	-0.020740	-1.083657	-0.180706
H116	H	0.012870	-1.191810	-0.183814
H117	H	-0.034833	-1.208805	-0.098241
C118	C	-0.011232	-0.906646	-0.128544
H119	H	0.008618	-0.846210	-0.182786
H120	H	-0.020694	-0.980480	-0.182927
H121	H	-0.039305	-0.870151	-0.098859
H122	H	0.053460	-1.709027	-0.381590
C123	C	0.074242	-0.873656	-0.266115
H124	H	0.047329	-0.828959	-0.244061
H125	H	0.097380	-0.819424	-0.317672
H126	H	0.063518	-0.946930	-0.320040
C127	C	-0.011118	-0.904470	0.126637
H128	H	0.008879	-0.843697	0.180082
H129	H	-0.039067	-0.867809	0.096250
H130	H	-0.020772	-0.977503	0.182084
H131	H	-0.009281	-1.545273	-0.619479
H132	H	0.011080	-1.375040	-0.621595
H133	H	0.136520	-0.866346	-0.131741
H134	H	0.118274	-1.657541	-0.379109
H135	H	0.148128	-1.408738	-0.620134
C136	C	0.070808	-0.878823	0.265507
H137	H	0.061535	-0.953276	0.319108
H138	H	0.092201	-0.820838	0.318319
H139	H	0.042752	-0.839560	0.241357
H140	H	-0.176549	-1.715071	-0.000059
C141	C	0.133541	-1.658107	-0.632672
H142	H	0.147192	-1.589793	-0.689788
H143	H	0.154169	-1.666822	-0.555200
H144	H	0.130274	-1.735067	-0.684946
C145	C	-0.283492	-1.142710	0.000040
H146	H	-0.302542	-1.073189	0.000041
H147	H	-0.263595	-1.138426	0.080691
H148	H	-0.263605	-1.138412	-0.080632
H149	H	-0.322384	-1.827062	-0.000055
C150	C	-0.694565	-1.734358	-0.000008
H151	H	-0.719995	-1.802689	-0.000004
H152	H	-0.675119	-1.739698	-0.080661
H153	H	-0.675118	-1.739705	0.080662
H154	H	-0.413847	-1.824622	-0.000031
H155	H	-0.443502	-1.171560	0.000030
H156	H	-0.791720	-1.698643	0.000005
C157	C	-0.162799	-1.261805	-0.000033
H158	H	-0.137371	-1.193470	-0.000023
H159	H	-0.182255	-1.256450	-0.080674
H160	H	-0.182237	-1.256484	0.080649
H161	H	-0.772274	-1.278658	0.000011
C162	C	0.151745	-1.090163	0.138737
H163	H	0.158718	-1.140471	0.060847
H164	H	0.172434	-1.012006	0.137516
H165	H	0.156954	-1.135244	0.221965
C166	C	0.161606	-1.414333	-0.367055
H167	H	0.159350	-1.487502	-0.308723
H168	H	0.181916	-1.426995	-0.444207
H169	H	0.174981	-1.341673	-0.315913
H170	H	0.056523	-1.711710	-0.621244
H171	H	-0.680808	-1.281093	0.000033
H172	H	0.080498	-1.105649	0.230347
