data_functionalizedCrystal
_audit_creation_method	'MofGen! by Chris Wilmer'
_symmetry_space_group_name_H-M	'P1'
_symmetry_Int_Tables_number	1
_symmetry_cell_setting	triclinic
loop_
_symmetry_equiv_pos_as_xyz
  x,y,z
_cell_length_a	13.033179
_cell_length_b	11.169417
_cell_length_c	11.169409
_cell_angle_alpha	89.980487
_cell_angle_beta	97.212589
_cell_angle_gamma	97.178141
loop_
_atom_site_label
_atom_site_type_symbol
_atom_site_fract_x
_atom_site_fract_y
_atom_site_fract_z
Zn1	Zn	0.415938	1.895684	-0.617888
Zn2	Zn	0.590735	1.921092	-0.391719
Zn3	Zn	0.416002	1.694979	-0.417214
Zn4	Zn	0.590651	1.720483	-0.592377
O5	O	0.503332	1.808060	-0.504799
O6	O	0.439133	2.067005	-0.587893
O7	O	0.567619	1.891057	-0.227142
O8	O	0.269749	1.700297	-0.465180
O9	O	0.567556	2.085672	-0.421727
O10	O	0.269702	1.847753	-0.612614
O11	O	0.439243	1.724933	-0.245873
O12	O	0.439162	1.530412	-0.440443
O13	O	0.567413	1.743765	-0.763720
O14	O	0.567476	1.549149	-0.569134
O15	O	0.439051	1.872484	-0.782463
O16	O	0.736968	1.915787	-0.396990
O17	O	0.736907	1.768401	-0.544413
C18	C	0.503317	1.496233	-0.504788
C19	C	0.503337	1.362836	-0.504807
C20	C	0.230746	1.768346	-0.544587
C21	C	0.114586	1.751422	-0.561542
C22	C	0.062829	1.816801	-0.496159
C23	C	-0.057229	1.799311	-0.513681
C24	C	0.774857	1.847651	-0.465193
C25	C	0.891017	1.864699	-0.448289
C26	C	0.503215	1.808135	-0.817859
C27	C	0.503166	1.808167	-0.951266
C28	C	0.503346	2.121104	-0.504812
C29	C	0.503353	2.254505	-0.504817
C30	C	0.503372	1.808043	-0.192969
C31	C	0.503127	1.808200	-0.059605
H32	H	-0.101794	1.730380	-0.582630
H33	H	0.107399	1.885717	-0.427205
C34	C	-0.048792	1.957818	-0.355134
C35	C	0.026306	1.916653	-0.250018
C36	C	0.086496	2.009771	-0.156865
C37	C	0.071588	2.144054	-0.168827
C38	C	-0.003513	2.185227	-0.273947
C39	C	-0.063703	2.092108	-0.367100
H40	H	0.037345	1.817242	-0.241160
H41	H	0.142091	1.979291	-0.079048
H42	H	0.116144	2.212986	-0.099869
H43	H	-0.014552	2.284637	-0.282805
H44	H	-0.119298	2.122588	-0.444917
C45	C	0.054385	1.658310	-0.654691
C46	C	-0.020666	1.553213	-0.613557
C47	C	-0.080864	1.460099	-0.706709
C48	C	-0.066009	1.472081	-0.840995
C49	C	0.009046	1.577182	-0.882136
C50	C	0.069243	1.670296	-0.788984
H51	H	-0.031666	1.544340	-0.514144
H52	H	-0.136425	1.382296	-0.676253
H53	H	-0.110571	1.403152	-0.909952
H54	H	0.020045	1.586055	-0.981548
H55	H	0.124804	1.748099	-0.819440
