data_functionalizedCrystal
_audit_creation_method	'MofGen! by Chris Wilmer'
_symmetry_space_group_name_H-M	'P1'
_symmetry_Int_Tables_number	1
_symmetry_cell_setting	triclinic
loop_
_symmetry_equiv_pos_as_xyz
  x,y,z
_cell_length_a	12.645331
_cell_length_b	29.839131
_cell_length_c	12.645323
_cell_angle_alpha	89.967288
_cell_angle_beta	89.977324
_cell_angle_gamma	90.040399
loop_
_atom_site_label
_atom_site_type_symbol
_atom_site_fract_x
_atom_site_fract_y
_atom_site_fract_z
Zn1	Zn	1.620556	-0.178862	-0.599388
Zn2	Zn	1.620365	-0.253994	-0.422104
Zn3	Zn	1.443271	-0.178877	-0.422133
Zn4	Zn	1.443179	-0.253964	-0.599320
O5	O	1.531843	-0.216424	-0.510736
O6	O	1.768878	-0.188834	-0.575888
O7	O	1.596831	-0.244048	-0.273761
O8	O	1.466907	-0.116008	-0.445687
O9	O	1.768737	-0.244033	-0.445638
O10	O	1.597158	-0.115997	-0.575916
O11	O	1.466721	-0.188860	-0.273782
O12	O	1.294912	-0.188832	-0.445620
O13	O	1.466751	-0.243983	-0.747676
O14	O	1.294844	-0.243998	-0.575799
O15	O	1.597069	-0.188806	-0.747727
O16	O	1.596742	-0.316857	-0.445571
O17	O	1.466565	-0.316835	-0.575771
C18	C	1.256413	-0.216414	-0.510706
C19	C	1.138583	-0.216420	-0.510718
C20	C	0.971026	-0.181555	-0.429274
C21	C	1.093586	-0.181645	-0.428915
C22	C	1.094017	-0.263746	-0.480188
C23	C	0.971418	-0.263555	-0.479632
C24	C	0.971445	-0.204409	-0.623006
C25	C	1.094052	-0.203352	-0.622382
C26	C	1.531651	-0.333147	-0.510684
C27	C	1.531667	-0.383081	-0.510697
C28	C	1.599749	-0.692723	-0.443041
C29	C	1.599880	-0.880396	-0.443082
O30	O	1.657615	-0.904660	-0.385518
N31	N	1.532063	-0.903866	-0.510816
C32	C	1.464212	-0.880415	-0.578550
O33	O	1.406540	-0.904684	-0.636171
C34	C	1.464088	-0.692743	-0.578514
C35	C	1.531902	-0.669275	-0.510767
C36	C	1.667559	-0.669256	-0.375300
C37	C	1.667522	-0.622340	-0.375287
C38	C	1.599674	-0.598892	-0.443013
C39	C	1.531865	-0.622360	-0.510753
C40	C	1.396244	-0.669293	-0.646252
C41	C	1.396220	-0.622372	-0.646239
C42	C	1.464035	-0.598904	-0.578492
C43	C	1.463980	-0.551997	-0.578466
N44	N	1.531798	-0.528527	-0.510732
C45	C	1.599645	-0.551975	-0.443005
C46	C	1.464281	-0.978946	-0.578563
C47	C	1.464311	-1.025864	-0.578571
C48	C	1.599980	-1.025842	-0.443104
C49	C	1.599945	-0.978923	-0.443091
C50	C	1.532099	-0.955476	-0.510829
C51	C	1.599560	-0.453449	-0.442981
C52	C	1.599514	-0.406529	-0.442970
C53	C	1.463849	-0.406555	-0.578441
C54	C	1.463891	-0.453471	-0.578448
C55	C	1.531755	-0.476916	-0.510715
O56	O	1.406284	-0.527704	-0.636009
O57	O	1.657325	-0.527697	-0.385409
C58	C	1.599787	-0.739639	-0.443054
C59	C	1.531977	-0.763106	-0.510794
C60	C	1.464130	-0.739659	-0.578521
C61	C	1.532007	-0.810024	-0.510802
C62	C	1.599854	-0.833472	-0.443076
C63	C	1.667672	-0.810002	-0.375341
C64	C	1.667634	-0.763087	-0.375328
C65	C	1.396312	-0.763129	-0.646256
C66	C	1.396354	-0.810044	-0.646263
C67	C	1.464202	-0.833492	-0.578536
C68	C	1.808348	-0.216435	-0.510768
C69	C	1.926178	-0.216440	-0.510781
C70	C	1.531921	-0.216390	-0.787242
C71	C	1.531954	-0.216375	-0.905072
C72	C	1.532064	-0.099246	-0.510812
C73	C	1.532158	-0.049312	-0.510845
C74	C	1.449718	-0.250923	-1.072604
C75	C	1.449934	-0.251094	-0.950044
C76	C	1.643641	-0.229224	-0.949588
C77	C	1.643190	-0.229441	-1.072186
C78	C	1.503559	-0.168784	-1.072285
C79	C	1.501067	-0.169069	-0.949679
C80	C	1.531826	-0.216427	-0.235307
C81	C	1.531998	-0.216315	-0.117477
H82	H	1.654736	-0.387423	-0.387799
N83	N	0.935479	-0.276356	-0.376709
N84	N	1.000941	-0.285366	-0.305788
H85	H	0.975565	-0.294407	-0.233095
H86	H	1.124662	-0.274123	-0.399026
N87	N	1.327062	-0.834006	-0.715468
N88	N	1.266494	-0.813059	-0.775930
H89	H	1.217562	-0.829980	-0.824810
H90	H	1.654824	-0.472533	-0.387828
N91	N	1.131411	-0.137619	-0.452879
N92	N	1.188068	-0.117195	-0.387798
H93	H	1.214783	-0.086099	-0.404713
H94	H	1.668166	-0.263606	-0.918888
H95	H	1.722912	-0.829101	-0.320193
H96	H	0.940582	-0.170502	-0.650768
N97	N	1.395016	-1.049825	-0.647762
N98	N	1.334446	-1.028879	-0.708223
H99	H	1.285506	-1.045800	-0.757096
H100	H	1.655225	-1.044941	-0.387958
H101	H	1.123190	-0.168526	-0.645403
H102	H	1.340973	-0.603284	-0.701402
N103	N	1.722618	-0.198612	-0.913029
N104	N	1.798859	-0.212627	-0.859550
H105	H	1.854637	-0.191007	-0.833727
H106	H	1.418876	-0.159379	-0.920582
N107	N	1.570744	-0.135003	-0.911288
N108	N	1.624113	-0.112223	-0.974880
H109	H	1.673321	-0.088161	-0.947764
N110	N	1.578746	-0.136441	-1.108694
N111	N	1.652983	-0.148283	-1.167667
H112	H	1.706088	-0.125445	-1.193387
H113	H	0.941597	-0.146356	-0.448207
H114	H	0.940171	-0.189419	-0.346601
H115	H	0.941747	-0.290427	-0.536408
H116	H	1.341064	-0.744041	-0.701408
H117	H	1.124687	-0.226907	-0.686360
H118	H	1.122856	-0.189597	-0.345753
H119	H	1.341017	-0.688392	-0.701414
H120	H	1.123160	-0.290432	-0.537689
H121	H	0.942442	-0.229818	-0.683735
N122	N	1.736802	-0.598379	-0.306079
N123	N	1.797371	-0.619328	-0.245622
H124	H	1.846306	-0.602409	-0.196742
N125	N	1.736882	-0.693195	-0.306112
N126	N	1.797418	-0.672227	-0.245644
H127	H	1.846378	-0.689131	-0.196770
H128	H	1.367112	-0.243054	-0.919945
H129	H	1.655165	-0.959818	-0.387927
N130	N	1.345501	-0.240943	-1.109568
N131	N	1.269277	-0.264960	-1.082024
H132	H	1.195669	-0.257912	-1.108135
N133	N	1.394968	-0.955006	-0.647768
N134	N	1.334427	-0.975972	-0.708234
H135	H	1.285471	-0.959067	-0.757110
N136	N	1.473055	-0.294850	-1.111248
N137	N	1.560447	-0.312485	-1.091340
H138	H	1.576935	-0.343508	-1.118634
H139	H	1.423538	-0.157071	-1.103193
H140	H	1.408674	-0.472579	-0.633616
H141	H	1.468704	-0.286331	-0.920719
H142	H	1.408605	-0.387457	-0.633580
H143	H	1.722855	-0.743983	-0.320162
H144	H	1.667301	-0.264187	-1.100785
H145	H	1.706571	-0.205328	-1.101872
