data_functionalizedCrystal
_audit_creation_method	'MofGen! by Chris Wilmer'
_symmetry_space_group_name_H-M	'P1'
_symmetry_Int_Tables_number	1
_symmetry_cell_setting	triclinic
loop_
_symmetry_equiv_pos_as_xyz
  x,y,z
_cell_length_a	10.489716
_cell_length_b	10.489741
_cell_length_c	13.930277
_cell_angle_alpha	89.995758
_cell_angle_beta	89.993156
_cell_angle_gamma	84.534155
loop_
_atom_site_label
_atom_site_type_symbol
_atom_site_fract_x
_atom_site_fract_y
_atom_site_fract_z
O1	O	1.694077	0.179818	-0.079823
O2	O	1.322877	0.196743	-0.079826
O3	O	1.516924	0.002682	-0.079819
O4	O	1.500031	0.373879	-0.079830
O5	O	1.516896	0.002678	0.079843
O6	O	1.322850	0.196739	0.079836
O7	O	1.694050	0.179814	0.079839
Zn8	Zn	1.508446	0.188276	0.105187
Zn9	Zn	1.508481	0.188281	-0.105174
O10	O	1.500003	0.373875	0.079832
C11	C	1.275332	0.195470	0.000004
C12	C	1.133701	0.191665	0.000003
C13	C	1.036027	0.310669	-0.000003
C14	C	0.958667	0.247783	0.078725
C15	C	0.958701	0.247759	-0.078689
C16	C	1.058207	0.128828	0.078796
C17	C	1.058245	0.128822	-0.078689
C18	C	0.980935	0.065848	0.000058
C19	C	1.515634	-0.044852	0.000012
C20	C	1.511817	-0.186481	0.000010
C21	C	1.388351	-0.254610	0.000002
C22	C	1.446662	-0.346740	0.078724
C23	C	1.446718	-0.346710	-0.078690
C24	C	1.570179	-0.276745	0.078797
C25	C	1.570217	-0.276706	-0.078688
C26	C	1.628618	-0.368808	0.000054
C27	C	1.741596	0.181087	0.000007
C28	C	1.883227	0.184892	0.000002
C29	C	1.501293	0.421409	-0.000001
C30	C	1.505110	0.563038	-0.000005
N31	N	1.508430	0.188271	0.248753
N32	N	1.508507	0.188276	-0.248740
C33	C	1.422554	0.274178	0.701019
C34	C	1.594444	0.102376	0.700995
C35	C	1.594429	0.102371	0.600500
C36	C	1.508476	0.188273	0.550259
C37	C	1.422539	0.274179	0.600514
C38	C	1.680373	0.016476	0.550237
C39	C	1.680362	0.016469	0.449735
C40	C	1.594403	0.102366	0.399493
C41	C	1.508461	0.188274	0.449754
C42	C	1.422508	0.274176	0.399513
C43	C	1.336559	0.360079	0.449773
C44	C	1.336579	0.360075	0.550272
C45	C	1.594383	0.102369	0.298994
C46	C	1.422493	0.274177	0.299008
H47	H	0.915228	0.298022	-0.145238
C48	C	1.117024	0.061007	-0.168606
N49	N	1.161291	0.009933	-0.236340
H50	H	1.352572	0.344116	0.741943
C51	C	1.116703	0.061011	0.168809
N52	N	1.160766	0.009938	0.236608
C53	C	1.688987	0.007890	0.756263
N54	N	1.760197	-0.063284	0.797895
C55	C	1.251217	-0.187510	0.000109
N56	N	1.147931	-0.136967	0.000196
H57	H	0.956505	-0.037744	0.000107
C58	C	1.376070	-0.388638	0.168631
N59	N	1.322893	-0.420193	0.236346
C60	C	1.640748	-0.234764	-0.168603
N61	N	1.693862	-0.203170	-0.236336
H62	H	1.622363	-0.245920	0.145425
C63	C	1.765875	-0.435603	0.000116
N64	N	1.869256	-0.485918	0.000169
C65	C	1.774914	-0.078009	0.605507
N66	N	1.846123	-0.149182	0.647142
C67	C	1.376131	-0.388551	-0.168601
N68	N	1.322957	-0.420058	-0.236319
H69	H	1.266582	0.430026	0.408856
C70	C	1.069375	0.450507	0.000098
N71	N	1.094498	0.555829	0.000179
H72	H	1.750345	-0.053478	0.408820
H73	H	1.352495	0.344124	0.258109
C74	C	1.242037	0.454554	0.605565
N75	N	1.170828	0.525713	0.647215
C76	C	1.688922	0.007883	0.243713
N77	N	1.760131	-0.063293	0.202077
H78	H	0.915173	0.298018	0.145279
