data_functionalizedCrystal
_audit_creation_method	'MofGen! by Chris Wilmer'
_symmetry_space_group_name_H-M	'P1'
_symmetry_Int_Tables_number	1
_symmetry_cell_setting	triclinic
loop_
_symmetry_equiv_pos_as_xyz
  x,y,z
_cell_length_a	11.792254
_cell_length_b	11.792241
_cell_length_c	9.130313
_cell_angle_alpha	90.001417
_cell_angle_beta	90.000198
_cell_angle_gamma	84.196007
loop_
_atom_site_label
_atom_site_type_symbol
_atom_site_fract_x
_atom_site_fract_y
_atom_site_fract_z
O1	O	1.506894	0.155631	0.121799
O2	O	1.176555	0.171649	0.121802
O3	O	1.349741	-0.001530	0.121790
O4	O	1.333708	0.328810	0.121811
O5	O	1.349738	-0.001525	-0.121809
O6	O	1.176552	0.171654	-0.121797
O7	O	1.506892	0.155636	-0.121800
Cu8	Cu	1.341722	0.163645	-0.144041
Cu9	Cu	1.341724	0.163640	0.144043
O10	O	1.333706	0.328815	-0.121788
C11	C	1.134263	0.170642	0.000003
C12	C	1.008250	0.167622	0.000004
C13	C	0.905913	0.165168	0.000010
C14	C	0.777527	0.162100	0.000011
C15	C	1.348732	-0.043819	-0.000009
C16	C	1.345718	-0.169832	-0.000007
C17	C	1.340175	-0.400545	0.000017
C18	C	1.343255	-0.272160	0.000004
C19	C	1.549183	0.156643	0.000002
C20	C	1.675196	0.159663	0.000011
C21	C	1.334714	0.371104	0.000014
C22	C	1.337728	0.497118	0.000022
N23	N	1.341728	0.163648	-0.346664
C24	C	1.418435	0.086991	-0.423321
C25	C	1.418432	0.086977	-0.576658
C26	C	1.265012	0.240289	-0.576666
C27	C	1.265011	0.240296	-0.423332
C28	C	1.507014	-0.001519	-0.423317
C29	C	1.507011	-0.001533	-0.576654
N30	N	1.341727	0.163628	0.346666
H31	H	1.202540	0.302707	-0.360919
H32	H	1.202550	0.302692	-0.639107
H33	H	1.487858	-0.088712	-0.381702
C34	C	1.618249	0.035540	-0.359059
N35	N	1.702031	0.063453	-0.310659
H36	H	1.479646	-0.083906	-0.624206
C37	C	1.624746	0.024530	-0.632882
N38	N	1.713411	0.044195	-0.675232
