data_functionalizedCrystal
_audit_creation_method	'MofGen! by Chris Wilmer'
_symmetry_space_group_name_H-M	'P1'
_symmetry_Int_Tables_number	1
_symmetry_cell_setting	triclinic
loop_
_symmetry_equiv_pos_as_xyz
  x,y,z
_cell_length_a	19.805407
_cell_length_b	13.897448
_cell_length_c	13.897441
_cell_angle_alpha	90.029627
_cell_angle_beta	90.020698
_cell_angle_gamma	90.017692
loop_
_atom_site_label
_atom_site_type_symbol
_atom_site_fract_x
_atom_site_fract_y
_atom_site_fract_z
Zn1	Zn	1.034784	-0.383993	0.545435
Zn2	Zn	1.034714	-0.545312	0.384137
Zn3	Zn	0.921597	-0.384033	0.384148
Zn4	Zn	0.921580	-0.545248	0.545383
O5	O	0.978169	-0.464647	0.464776
O6	O	1.129491	-0.405403	0.524056
O7	O	1.019687	-0.523962	0.249156
O8	O	0.936648	-0.249046	0.405569
O9	O	1.129440	-0.523923	0.405550
O10	O	1.019806	-0.249017	0.524066
O11	O	0.936580	-0.405470	0.249165
O12	O	0.826878	-0.405408	0.405519
O13	O	0.936619	-0.523814	0.680372
O14	O	0.826865	-0.523852	0.523978
O15	O	1.019790	-0.405341	0.680410
O16	O	1.019670	-0.680285	0.405500
O17	O	0.936551	-0.680238	0.523967
C18	C	0.802313	-0.464628	0.464745
C19	C	0.727081	-0.464644	0.464754
C20	C	0.691748	-0.526410	0.526336
C21	C	0.621059	-0.526412	0.526350
C22	C	0.585705	-0.464651	0.464776
C23	C	0.621043	-0.402878	0.403191
C24	C	0.691730	-0.402872	0.403183
C25	C	0.335970	-0.402899	0.403223
C26	C	0.265278	-0.402912	0.403234
C27	C	0.265299	-0.526439	0.526389
C28	C	0.335986	-0.526433	0.526381
C29	C	0.371318	-0.464657	0.464801
C30	C	0.447966	-0.464654	0.464788
C31	C	0.509058	-0.464658	0.464783
C32	C	0.978119	-0.715261	0.464748
C33	C	0.978160	-0.822475	0.464768
C34	C	0.978231	-1.018770	0.464829
C35	C	0.978190	-0.909538	0.464798
C36	C	1.154711	-0.464666	0.464808
C37	C	1.229943	-0.464674	0.464821
C38	C	0.978210	-0.464566	0.716369
C39	C	0.978228	-0.464531	0.823583
C40	C	0.978237	-0.213054	0.464825
C41	C	0.978266	-0.105840	0.464846
C42	C	0.978166	-0.464658	0.214161
C43	C	0.978280	-0.464421	0.106948
C44	C	0.978242	-0.464504	0.910653
C45	C	0.978261	-0.464460	1.019885
H46	H	0.236494	-0.352612	0.353093
O47	O	0.374074	-0.336302	0.336777
H48	H	0.337612	-0.293376	0.293948
O49	O	0.227162	-0.593095	0.592757
H50	H	0.240711	-0.668765	0.576022
O51	O	0.729883	-0.593012	0.592756
H52	H	0.716299	-0.668702	0.576098
H53	H	0.592252	-0.352587	0.353061
O54	O	0.729845	-0.336264	0.336752
H55	H	0.693387	-0.293327	0.293927
O56	O	0.583017	-0.593213	0.592668
H57	H	0.596603	-0.576906	0.668434
O58	O	0.374120	-0.593040	0.592798
H59	H	0.337674	-0.635984	0.635631
