data_functionalizedCrystal
_audit_creation_method	'MofGen! by Chris Wilmer'
_symmetry_space_group_name_H-M	'P1'
_symmetry_Int_Tables_number	1
_symmetry_cell_setting	triclinic
loop_
_symmetry_equiv_pos_as_xyz
  x,y,z
_cell_length_a	21.395362
_cell_length_b	11.169416
_cell_length_c	21.395355
_cell_angle_alpha	89.989073
_cell_angle_beta	89.956060
_cell_angle_gamma	90.026221
loop_
_atom_site_label
_atom_site_type_symbol
_atom_site_fract_x
_atom_site_fract_y
_atom_site_fract_z
Zn1	Zn	0.957948	-0.477437	-0.354619
Zn2	Zn	0.957888	-0.678108	-0.249855
Zn3	Zn	0.853163	-0.477493	-0.249820
Zn4	Zn	0.853169	-0.678133	-0.354560
O5	O	0.905542	-0.577793	-0.302213
O6	O	1.045618	-0.504023	-0.340761
O7	O	0.943968	-0.651509	-0.162172
O8	O	0.867086	-0.309536	-0.263732
O9	O	1.045574	-0.651455	-0.263792
O10	O	0.944071	-0.309495	-0.340727
O11	O	0.867027	-0.504118	-0.162147
O12	O	0.765486	-0.504142	-0.263675
O13	O	0.867096	-0.651497	-0.442246
O14	O	0.765491	-0.651551	-0.340627
O15	O	0.944077	-0.504047	-0.442289
O16	O	0.943974	-0.846061	-0.263734
O17	O	0.867038	-0.846079	-0.340661
C18	C	0.742754	-0.577856	-0.302141
C19	C	0.673113	-0.577912	-0.302124
C20	C	0.905517	-0.889618	-0.302209
C21	C	0.905564	-1.023018	-0.302228
C22	C	0.640419	-0.654770	-0.342133
C23	C	0.574984	-0.654741	-0.342161
C24	C	0.542245	-0.577866	-0.302169
C25	C	0.574947	-0.500994	-0.262157
C26	C	0.640381	-0.501017	-0.262135
C27	C	0.438518	-0.568198	-0.245763
C28	C	0.373085	-0.568183	-0.245784
C29	C	0.340424	-0.577788	-0.302238
C30	C	0.373204	-0.587433	-0.358673
C31	C	0.438638	-0.587456	-0.358650
C32	C	0.471293	-0.577832	-0.302189
C33	C	0.236777	-0.654618	-0.342281
C34	C	0.171341	-0.654580	-0.342310
C35	C	0.171306	-0.500839	-0.262300
C36	C	0.236741	-0.500871	-0.262277
C37	C	0.269473	-0.577766	-0.302266
C38	C	1.068965	-0.577730	-0.302287
C39	C	1.138607	-0.577703	-0.302318
C40	C	0.905594	-0.577769	-0.465637
C41	C	0.905616	-0.577758	-0.535278
C42	C	0.905584	-0.264751	-0.302232
C43	C	0.905602	-0.131351	-0.302240
C44	C	0.945698	-0.500978	-0.568015
C45	C	0.945697	-0.500926	-0.633450
C46	C	0.905621	-0.577676	-0.666146
C47	C	0.865531	-0.654462	-0.633402
C48	C	0.865529	-0.654503	-0.567968
C49	C	0.900665	-0.685744	-0.769818
C50	C	0.900672	-0.685705	-0.835251
C51	C	0.905625	-0.577550	-0.867967
C52	C	0.910584	-0.469429	-0.835243
C53	C	0.910582	-0.469470	-0.769809
C54	C	0.905619	-0.577640	-0.737099
C55	C	0.945708	-0.500707	-0.971656
C56	C	0.945703	-0.500653	-1.037093
C57	C	0.865540	-0.654200	-1.037044
C58	C	0.865542	-0.654243	-0.971608
C59	C	0.905630	-0.577498	-0.938919
C60	C	0.905526	-0.577731	-0.139426
C61	C	0.905626	-0.577403	-0.069785
H62	H	0.667065	-0.717383	-0.374697
H63	H	0.832903	-0.716679	-1.063664
H64	H	0.548359	-0.717327	-0.374744
C65	C	0.135301	-0.416264	-0.218317
H66	H	0.091648	-0.427256	-0.224060
H67	H	0.146067	-0.335660	-0.227559
H68	H	0.145968	-0.433709	-0.176196
C69	C	0.474694	-0.598047	-0.420723
H70	H	0.445875	-0.603755	-0.454351
H71	H	0.500198	-0.667619	-0.419842
H72	H	0.500246	-0.529275	-0.426275
H73	H	0.667001	-0.438427	-0.229555
H74	H	0.978340	-0.438485	-0.541403
H75	H	0.978336	-0.438396	-0.660110
C76	C	0.538937	-0.416434	-0.218167
H77	H	0.495284	-0.427436	-0.223906
H78	H	0.549697	-0.335825	-0.227404
H79	H	0.549610	-0.433889	-0.176048
C80	C	0.916027	-0.350548	-0.733814
H81	H	0.918972	-0.286123	-0.762665
H82	H	0.952342	-0.352104	-0.708311
H83	H	0.880112	-0.340040	-0.708264
C84	C	0.272788	-0.739180	-0.386273
H85	H	0.316441	-0.728197	-0.380524
H86	H	0.262118	-0.721725	-0.428389
H87	H	0.262026	-0.819795	-0.377036
C88	C	0.916440	-0.350522	-0.871221
H89	H	0.915848	-0.365999	-0.914878
H90	H	0.954688	-0.312664	-0.860372
H91	H	0.882508	-0.299576	-0.860619
C92	C	0.135374	-0.739122	-0.386322
H93	H	0.091715	-0.728087	-0.380615
H94	H	0.146058	-0.819739	-0.377077
H95	H	0.146153	-0.721679	-0.428434
H96	H	0.978346	-0.438210	-0.945039
H97	H	0.346613	-0.595252	-0.404643
C98	C	0.272706	-0.416342	-0.218259
H99	H	0.243839	-0.370560	-0.194440
H100	H	0.298279	-0.364125	-0.242260
H101	H	0.298184	-0.462197	-0.190909
H102	H	0.896464	-0.773795	-0.743185
H103	H	0.346401	-0.560337	-0.199832
C104	C	0.821446	-0.738982	-0.531956
H105	H	0.797580	-0.784693	-0.560798
H106	H	0.794152	-0.693110	-0.506401
H107	H	0.845416	-0.791285	-0.506458
H108	H	0.465106	-0.560371	-0.199789
H109	H	0.978342	-0.438122	-1.063746
H110	H	0.832907	-0.716773	-0.944954
C111	C	0.895215	-0.804630	-0.871242
H112	H	0.892252	-0.869047	-0.842387
H113	H	0.931121	-0.815162	-0.896795
H114	H	0.858893	-0.803056	-0.896740
C115	C	0.821452	-0.738891	-0.669365
H116	H	0.827199	-0.727880	-0.713024
H117	H	0.779355	-0.721353	-0.658612
H118	H	0.830615	-0.819536	-0.658651
