data_functionalizedCrystal
_audit_creation_method	'MofGen! by Chris Wilmer'
_symmetry_space_group_name_H-M	'P1'
_symmetry_Int_Tables_number	1
_symmetry_cell_setting	triclinic
loop_
_symmetry_equiv_pos_as_xyz
  x,y,z
_cell_length_a	25.639243
_cell_length_b	25.639239
_cell_length_c	21.395355
_cell_angle_alpha	89.980666
_cell_angle_beta	89.972891
_cell_angle_gamma	90.041410
loop_
_atom_site_label
_atom_site_type_symbol
_atom_site_fract_x
_atom_site_fract_y
_atom_site_fract_z
Zn1	Zn	0.799283	-0.208173	-0.354301
Zn2	Zn	1.049283	0.041827	-0.104301
Zn3	Zn	1.299283	0.291827	0.145699
Zn4	Zn	1.549283	0.541827	0.395699
Zn5	Zn	0.799189	-0.295593	-0.249522
Zn6	Zn	1.049189	-0.045593	0.000478
Zn7	Zn	1.299189	0.204407	0.250478
Zn8	Zn	1.549189	0.454407	0.500478
Zn9	Zn	0.711842	-0.208178	-0.249533
Zn10	Zn	0.961842	0.041822	0.000467
Zn11	Zn	1.211842	0.291822	0.250467
Zn12	Zn	1.461842	0.541822	0.500467
Zn13	Zn	0.711804	-0.295584	-0.354257
Zn14	Zn	0.961804	-0.045584	-0.104257
Zn15	Zn	1.211804	0.204416	0.145743
Zn16	Zn	1.461804	0.454416	0.395743
O17	O	0.755529	-0.251882	-0.301903
O18	O	1.005529	-0.001882	-0.051903
O19	O	1.255529	0.248118	0.198097
O20	O	1.505529	0.498118	0.448097
O21	O	0.872435	-0.219772	-0.340415
O22	O	1.122435	0.030228	-0.090415
O23	O	1.372435	0.280228	0.159585
O24	O	1.622435	0.530228	0.409585
O25	O	0.787579	-0.284003	-0.161845
O26	O	1.037579	-0.034003	0.088155
O27	O	1.287579	0.215997	0.338155
O28	O	1.537579	0.465997	0.588155
O29	O	0.723496	-0.135012	-0.263453
O30	O	0.973496	0.114988	-0.013453
O31	O	1.223496	0.364988	0.236547
O32	O	1.473496	0.614988	0.486547
O33	O	0.872367	-0.283999	-0.263434
O34	O	1.122367	-0.033999	-0.013434
O35	O	1.372367	0.216001	0.236566
O36	O	1.622367	0.466001	0.486566
O37	O	0.787738	-0.135009	-0.340426
O38	O	1.037738	0.114991	-0.090426
O39	O	1.287738	0.364991	0.159574
O40	O	1.537738	0.614991	0.409574
O41	O	0.723405	-0.219779	-0.161853
O42	O	0.973405	0.030221	0.088147
O43	O	1.223405	0.280221	0.338147
O44	O	1.473405	0.530221	0.588147
O45	O	0.638672	-0.219770	-0.263411
O46	O	0.888672	0.030230	-0.013411
O47	O	1.138672	0.280230	0.236589
O48	O	1.388672	0.530230	0.486589
O49	O	0.723432	-0.283983	-0.441941
O50	O	0.973432	-0.033983	-0.191941
O51	O	1.223432	0.216017	0.058059
O52	O	1.473432	0.466017	0.308059
O53	O	0.638644	-0.283987	-0.340352
O54	O	0.888644	-0.033987	-0.090352
O55	O	1.138644	0.216013	0.159648
O56	O	1.388644	0.466013	0.409648
O57	O	0.787702	-0.219763	-0.441973
O58	O	1.037702	0.030237	-0.191973
O59	O	1.287702	0.280237	0.058027
O60	O	1.537702	0.530237	0.308027
O61	O	0.787542	-0.368757	-0.263392
O62	O	1.037542	-0.118757	-0.013392
O63	O	1.287542	0.131243	0.236608
O64	O	1.537542	0.381243	0.486608
O65	O	0.723341	-0.368750	-0.340341
O66	O	0.973341	-0.118750	-0.090341
O67	O	1.223341	0.131250	0.159659
O68	O	1.473341	0.381250	0.409659
C69	C	0.619687	-0.251878	-0.301878
C70	C	0.869687	-0.001878	-0.051878
C71	C	1.119687	0.248122	0.198122
C72	C	1.369687	0.498122	0.448122
C73	C	0.561573	-0.251889	-0.301882
C74	C	0.811573	-0.001889	-0.051882
C75	C	1.061573	0.248111	0.198118
C76	C	1.311573	0.498111	0.448118
C77	C	0.201240	-0.218492	-0.342054
C78	C	0.451240	0.031508	-0.092054
C79	C	0.701240	0.281508	0.157946
C80	C	0.951240	0.531508	0.407946
C81	C	0.146636	-0.218491	-0.342058
C82	C	0.396636	0.031509	-0.092058
C83	C	0.646636	0.281509	0.157942
C84	C	0.896636	0.531509	0.407942
O85	O	0.118425	-0.190085	-0.376182
O86	O	0.368425	0.059915	-0.126182
O87	O	0.618425	0.309915	0.123818
O88	O	0.868425	0.559915	0.373818
N89	N	0.119290	-0.251880	-0.301920
N90	N	0.369290	-0.001880	-0.051920
N91	N	0.619290	0.248120	0.198080
N92	N	0.869290	0.498120	0.448080
C93	C	0.146552	-0.285269	-0.261772
C94	C	0.396552	-0.035269	-0.011772
C95	C	0.646552	0.214731	0.238228
C96	C	0.896552	0.464731	0.488228
O97	O	0.118279	-0.313668	-0.227632
O98	O	0.368279	-0.063668	0.022368
O99	O	0.618279	0.186332	0.272368
O100	O	0.868279	0.436332	0.522368
C101	C	0.201155	-0.285266	-0.261765
C102	C	0.451155	-0.035266	-0.011765
C103	C	0.701155	0.214734	0.238235
C104	C	0.951155	0.464734	0.488235
C105	C	0.228498	-0.251878	-0.301910
C106	C	0.478498	-0.001878	-0.051910
C107	C	0.728498	0.248122	0.198090
C108	C	0.978498	0.498122	0.448090
C109	C	0.228582	-0.185106	-0.382194
C110	C	0.478582	0.064894	-0.132194
C111	C	0.728582	0.314894	0.117806
C112	C	0.978582	0.564894	0.367806
C113	C	0.283183	-0.185107	-0.382191
C114	C	0.533183	0.064893	-0.132191
C115	C	0.783183	0.314893	0.117809
C116	C	1.033183	0.564893	0.367809
C117	C	0.310441	-0.218494	-0.342047
C118	C	0.560441	0.031506	-0.092047
C119	C	0.810441	0.281506	0.157953
C120	C	1.060441	0.531506	0.407953
C121	C	0.283098	-0.251880	-0.301907
C122	C	0.533098	-0.001880	-0.051907
C123	C	0.783098	0.248120	0.198093
C124	C	1.033098	0.498120	0.448093
C125	C	0.228416	-0.318651	-0.221614
C126	C	0.478416	-0.068651	0.028386
C127	C	0.728416	0.181349	0.278386
C128	C	0.978416	0.431349	0.528386
C129	C	0.283023	-0.318645	-0.221611
C130	C	0.533023	-0.068645	0.028389
C131	C	0.783023	0.181355	0.278389
C132	C	1.033023	0.431355	0.528389
C133	C	0.310366	-0.285258	-0.261755
C134	C	0.560366	-0.035258	-0.011755
C135	C	0.810366	0.214742	0.238245
C136	C	1.060366	0.464742	0.488245
C137	C	0.364957	-0.285267	-0.261759
C138	C	0.614957	-0.035267	-0.011759
C139	C	0.864957	0.214733	0.238241
C140	C	1.114957	0.464733	0.488241
N141	N	0.392302	-0.251878	-0.301897
N142	N	0.642302	-0.001878	-0.051897
N143	N	0.892302	0.248122	0.198103
N144	N	1.142302	0.498122	0.448103
C145	C	0.365044	-0.218491	-0.342041
C146	C	0.615044	0.031509	-0.092041
C147	C	0.865044	0.281509	0.157959
C148	C	1.115044	0.531509	0.407959
C149	C	0.031882	-0.285271	-0.261788
C150	C	0.281882	-0.035271	-0.011788
C151	C	0.531882	0.214729	0.238212
C152	C	0.781882	0.464729	0.488212
C153	C	-0.022721	-0.285276	-0.261797
C154	C	0.227279	-0.035276	-0.011797
C155	C	0.477279	0.214724	0.238203
C156	C	0.727279	0.464724	0.488203
C157	C	-0.022634	-0.218498	-0.342082
C158	C	0.227366	0.031502	-0.092082
C159	C	0.477366	0.281502	0.157918
C160	C	0.727366	0.531502	0.407918
C161	C	0.031970	-0.218496	-0.342076
C162	C	0.281970	0.031504	-0.092076
C163	C	0.531970	0.281504	0.157924
C164	C	0.781970	0.531504	0.407924
C165	C	0.059227	-0.251882	-0.301925
C166	C	0.309227	-0.001882	-0.051925
C167	C	0.559227	0.248118	0.198075
C168	C	0.809227	0.498118	0.448075
C169	C	0.479709	-0.218497	-0.342031
C170	C	0.729709	0.031503	-0.092031
C171	C	0.979709	0.281503	0.157969
C172	C	1.229709	0.531503	0.407969
C173	C	0.534315	-0.218503	-0.342026
C174	C	0.784315	0.031497	-0.092026
C175	C	1.034315	0.281497	0.157974
C176	C	1.284315	0.531497	0.407974
C177	C	0.534223	-0.285279	-0.261739
C178	C	0.784223	-0.035279	-0.011739
C179	C	1.034223	0.214721	0.238261
C180	C	1.284223	0.464721	0.488261
C181	C	0.479622	-0.285275	-0.261746
C182	C	0.729622	-0.035275	-0.011746
C183	C	0.979622	0.214725	0.238254
C184	C	1.229622	0.464725	0.488254
C185	C	0.452367	-0.251880	-0.301894
C186	C	0.702367	-0.001880	-0.051894
C187	C	0.952367	0.248120	0.198106
C188	C	1.202367	0.498120	0.448106
O189	O	0.393203	-0.313657	-0.227651
O190	O	0.643203	-0.063657	0.022349
O191	O	0.893203	0.186343	0.272349
O192	O	1.143203	0.436343	0.522349
O193	O	0.393324	-0.190092	-0.376169
O194	O	0.643324	0.059908	-0.126169
O195	O	0.893324	0.309908	0.123831
O196	O	1.143324	0.559908	0.373831
C197	C	0.755441	-0.387725	-0.301874
C198	C	1.005441	-0.137725	-0.051874
C199	C	1.255441	0.112275	0.198126
C200	C	1.505441	0.362275	0.448126
C201	C	0.755452	-0.445839	-0.301883
C202	C	1.005452	-0.195839	-0.051883
C203	C	1.255452	0.054161	0.198117
C204	C	1.505452	0.304161	0.448117
C205	C	0.789046	-0.806193	-0.261904
C206	C	1.039046	-0.556193	-0.011904
C207	C	1.289046	-0.306193	0.238096
C208	C	1.539046	-0.056193	0.488096
C209	C	0.789067	-0.860797	-0.261912
C210	C	1.039067	-0.610797	-0.011912
C211	C	1.289067	-0.360797	0.238088
C212	C	1.539067	-0.110797	0.488088
O213	O	0.817539	-0.889026	-0.227889
O214	O	1.067539	-0.639026	0.022111
O215	O	1.317539	-0.389026	0.272111
O216	O	1.567539	-0.139026	0.522111
N217	N	0.755621	-0.888121	-0.301945
N218	N	1.005621	-0.638121	-0.051945
N219	N	1.255621	-0.388121	0.198055
N220	N	1.505621	-0.138121	0.448055
C221	C	0.722157	-0.860838	-0.341975
C222	C	0.972157	-0.610838	-0.091975
C223	C	1.222157	-0.360838	0.158025
C224	C	1.472157	-0.110838	0.408025
O225	O	0.693712	-0.889093	-0.376027
O226	O	0.943712	-0.639093	-0.126027
O227	O	1.193712	-0.389093	0.123973
O228	O	1.443712	-0.139093	0.373973
C229	C	0.722140	-0.806235	-0.341970
C230	C	0.972140	-0.556235	-0.091970
C231	C	1.222140	-0.306235	0.158030
C232	C	1.472140	-0.056235	0.408030
C233	C	0.755584	-0.778913	-0.301930
C234	C	1.005584	-0.528913	-0.051930
C235	C	1.255584	-0.278913	0.198070
C236	C	1.505584	-0.028913	0.448070
C237	C	0.822488	-0.778871	-0.221869
C238	C	1.072488	-0.528871	0.028131
C239	C	1.322488	-0.278871	0.278131
C240	C	1.572488	-0.028871	0.528131
C241	C	0.822467	-0.724271	-0.221860
C242	C	1.072467	-0.474271	0.028140
C243	C	1.322467	-0.224271	0.278140
C244	C	1.572467	0.025729	0.528140
C245	C	0.789004	-0.696991	-0.261886
C246	C	1.039004	-0.446991	-0.011886
C247	C	1.289004	-0.196991	0.238114
C248	C	1.539004	0.053009	0.488114
C249	C	0.755563	-0.724313	-0.301921
C250	C	1.005563	-0.474313	-0.051921
C251	C	1.255563	-0.224313	0.198079
C252	C	1.505563	0.025687	0.448079
C253	C	0.688679	-0.778953	-0.382003
C254	C	0.938679	-0.528953	-0.132003
C255	C	1.188679	-0.278953	0.117997
C256	C	1.438679	-0.028953	0.367997
C257	C	0.688665	-0.724346	-0.381994
C258	C	0.938665	-0.474346	-0.131994
C259	C	1.188665	-0.224346	0.118006
C260	C	1.438665	0.025654	0.368006
C261	C	0.722109	-0.697024	-0.341955
C262	C	0.972109	-0.447024	-0.091955
C263	C	1.222109	-0.197024	0.158045
C264	C	1.472109	0.052976	0.408045
C265	C	0.722079	-0.642433	-0.341939
C266	C	0.972079	-0.392433	-0.091939
C267	C	1.222079	-0.142433	0.158061
C268	C	1.472079	0.107567	0.408061
N269	N	0.755524	-0.615109	-0.301907
N270	N	1.005524	-0.365109	-0.051907
N271	N	1.255524	-0.115109	0.198093
N272	N	1.505524	0.134891	0.448093
C273	C	0.788987	-0.642388	-0.261880
C274	C	1.038987	-0.392388	-0.011880
C275	C	1.288987	-0.142388	0.238120
C276	C	1.538987	0.107612	0.488120
C277	C	0.722197	-0.975509	-0.341985
C278	C	0.972197	-0.725509	-0.091985
C279	C	1.222197	-0.475509	0.158015
C280	C	1.472197	-0.225509	0.408015
C281	C	0.722211	-1.030111	-0.341988
C282	C	0.972211	-0.780111	-0.091988
C283	C	1.222211	-0.530111	0.158012
C284	C	1.472211	-0.280111	0.408012
C285	C	0.789121	-1.030066	-0.261926
C286	C	1.039121	-0.780066	-0.011926
C287	C	1.289121	-0.530066	0.238074
C288	C	1.539121	-0.280066	0.488074
C289	C	0.789104	-0.975463	-0.261920
C290	C	1.039104	-0.725463	-0.011920
C291	C	1.289104	-0.475463	0.238080
C292	C	1.539104	-0.225463	0.488080
C293	C	0.755642	-0.948184	-0.301953
C294	C	1.005642	-0.698184	-0.051953
C295	C	1.255642	-0.448184	0.198047
C296	C	1.505642	-0.198184	0.448047
C297	C	0.788940	-0.527723	-0.261864
C298	C	1.038940	-0.277723	-0.011864
C299	C	1.288940	-0.027723	0.238136
C300	C	1.538940	0.222277	0.488136
C301	C	0.788914	-0.473118	-0.261857
C302	C	1.038914	-0.223118	-0.011857
C303	C	1.288914	0.026882	0.238143
C304	C	1.538914	0.276882	0.488143
C305	C	0.722006	-0.473167	-0.341921
C306	C	0.972006	-0.223167	-0.091921
C307	C	1.222006	0.026833	0.158079
C308	C	1.472006	0.276833	0.408079
C309	C	0.722030	-0.527768	-0.341926
C310	C	0.972030	-0.277768	-0.091926
C311	C	1.222030	-0.027768	0.158074
C312	C	1.472030	0.222232	0.408074
C313	C	0.755501	-0.555045	-0.301896
C314	C	1.005501	-0.305045	-0.051896
C315	C	1.255501	-0.055045	0.198104
C316	C	1.505501	0.194955	0.448104
O317	O	0.693623	-0.614169	-0.375946
O318	O	0.943623	-0.364169	-0.125946
O319	O	1.193623	-0.114169	0.124054
O320	O	1.443623	0.135831	0.374054
O321	O	0.817433	-0.614126	-0.227840
O322	O	1.067433	-0.364126	0.022160
O323	O	1.317433	-0.114126	0.272160
O324	O	1.567433	0.135874	0.522160
C325	C	0.891902	-0.251886	-0.301928
C326	C	1.141902	-0.001886	-0.051928
C327	C	1.391902	0.248114	0.198072
C328	C	1.641902	0.498114	0.448072
C329	C	0.950016	-0.251888	-0.301939
C330	C	1.200016	-0.001888	-0.051939
C331	C	1.450016	0.248112	0.198061
C332	C	1.700016	0.498112	0.448061
C333	C	0.755573	-0.251871	-0.465326
C334	C	1.005573	-0.001871	-0.215326
C335	C	1.255573	0.248129	0.034674
C336	C	1.505573	0.498129	0.284674
C337	C	0.755591	-0.251867	-0.534968
C338	C	1.005591	-0.001867	-0.284968
C339	C	1.255591	0.248133	-0.034968
C340	C	1.505591	0.498133	0.215032
C341	C	0.755632	-0.115509	-0.301945
C342	C	1.005632	0.134491	-0.051945
C343	C	1.255632	0.384491	0.198055
C344	C	1.505632	0.634491	0.448055
C345	C	0.755676	-0.057395	-0.301964
C346	C	1.005676	0.192605	-0.051964
C347	C	1.255676	0.442605	0.198036
C348	C	1.505676	0.692605	0.448036
C349	C	0.789055	-0.218426	-0.567698
C350	C	1.039055	0.031574	-0.317698
C351	C	1.289055	0.281574	-0.067698
C352	C	1.539055	0.531574	0.182302
C353	C	0.789055	-0.218404	-0.633134
C354	C	1.039055	0.031596	-0.383134
C355	C	1.289055	0.281596	-0.133134
C356	C	1.539055	0.531596	0.116866
C357	C	0.755595	-0.251831	-0.665836
C358	C	1.005595	-0.001831	-0.415836
C359	C	1.255595	0.248169	-0.165836
C360	C	1.505595	0.498169	0.084164
C361	C	0.722125	-0.285274	-0.633097
C362	C	0.972125	-0.035274	-0.383097
C363	C	1.222125	0.214726	-0.133097
C364	C	1.472125	0.464726	0.116903
C365	C	0.722123	-0.285292	-0.567663
C366	C	0.972123	-0.035292	-0.317663
C367	C	1.222123	0.214708	-0.067663
C368	C	1.472123	0.464708	0.182337
C369	C	0.751437	-0.298909	-0.769500
C370	C	1.001437	-0.048909	-0.519500
C371	C	1.251437	0.201091	-0.269500
C372	C	1.501437	0.451091	-0.019500
C373	C	0.751442	-0.298892	-0.834933
C374	C	1.001442	-0.048892	-0.584933
C375	C	1.251442	0.201108	-0.334933
C376	C	1.501442	0.451108	-0.084933
C377	C	0.755599	-0.251776	-0.867657
C378	C	1.005599	-0.001776	-0.617657
C379	C	1.255599	0.248224	-0.367657
C380	C	1.505599	0.498224	-0.117657
C381	C	0.759760	-0.204676	-0.834939
C382	C	1.009760	0.045324	-0.584939
C383	C	1.259760	0.295324	-0.334939
C384	C	1.509760	0.545324	-0.084939
C385	C	0.759758	-0.204693	-0.769505
C386	C	1.009758	0.045307	-0.519505
C387	C	1.259758	0.295307	-0.269505
C388	C	1.509758	0.545307	-0.019505
C389	C	0.755594	-0.251815	-0.736788
C390	C	1.005594	-0.001815	-0.486788
C391	C	1.255594	0.248185	-0.236788
C392	C	1.505594	0.498185	0.013212
C393	C	0.789064	-0.218308	-0.971340
C394	C	1.039064	0.031692	-0.721340
C395	C	1.289064	0.281692	-0.471340
C396	C	1.539064	0.531692	-0.221340
C397	C	0.789059	-0.218285	-1.036777
C398	C	1.039059	0.031715	-0.786777
C399	C	1.289059	0.281715	-0.536777
C400	C	1.539059	0.531715	-0.286777
C401	C	0.722132	-0.285160	-1.036739
C402	C	0.972132	-0.035160	-0.786739
C403	C	1.222132	0.214840	-0.536739
C404	C	1.472132	0.464840	-0.286739
C405	C	0.722134	-0.285179	-0.971304
C406	C	0.972134	-0.035179	-0.721304
C407	C	1.222134	0.214821	-0.471304
C408	C	1.472134	0.464821	-0.221304
C409	C	0.755602	-0.251753	-0.938608
C410	C	1.005602	-0.001753	-0.688608
C411	C	1.255602	0.248247	-0.438608
C412	C	1.505602	0.498247	-0.188608
C413	C	0.755516	-0.251855	-0.139115
C414	C	1.005516	-0.001855	0.110885
C415	C	1.255516	0.248145	0.360885
C416	C	1.505516	0.498145	0.610885
C417	C	0.755599	-0.251712	-0.069475
C418	C	1.005599	-0.001712	0.180525
C419	C	1.255599	0.248288	0.430525
C420	C	1.505599	0.498288	0.680525
H421	H	0.305213	-0.345832	-0.188914
H422	H	0.555213	-0.095832	0.061086
H423	H	0.805213	0.154168	0.311086
H424	H	1.055213	0.404168	0.561086
Br425	Br	0.745802	-0.362813	-0.879329
Br426	Br	0.995802	-0.112813	-0.629329
Br427	Br	1.245802	0.137187	-0.379329
Br428	Br	1.495802	0.387187	-0.129329
H429	H	0.305440	-0.157919	-0.414880
H430	H	0.555440	0.092081	-0.164880
H431	H	0.805440	0.342081	0.085120
H432	H	1.055440	0.592081	0.335120
Br433	Br	0.068868	-0.330587	-0.207295
Br434	Br	0.318868	-0.080587	0.042705
Br435	Br	0.568868	0.169413	0.292705
Br436	Br	0.818868	0.419413	0.542705
H437	H	0.457359	-0.312468	-0.229065
H438	H	0.707359	-0.062468	0.020935
H439	H	0.957359	0.187532	0.270935
H440	H	1.207359	0.437532	0.520935
H441	H	0.694944	-0.953301	-0.374583
H442	H	0.944944	-0.703301	-0.124583
H443	H	1.194944	-0.453301	0.125417
H444	H	1.444944	-0.203301	0.375417
Br445	Br	0.571226	-0.330588	-0.207262
Br446	Br	0.821226	-0.080588	0.042738
Br447	Br	1.071226	0.169412	0.292738
Br448	Br	1.321226	0.419412	0.542738
Br449	Br	-0.059822	-0.330597	-0.207321
Br450	Br	0.190178	-0.080597	0.042679
Br451	Br	0.440178	0.169403	0.292679
Br452	Br	0.690178	0.419403	0.542679
H453	H	0.206163	-0.345839	-0.188924
H454	H	0.456163	-0.095839	0.061076
H455	H	0.706163	0.154161	0.311076
H456	H	0.956163	0.404161	0.561076
Br457	Br	0.676703	-0.330679	-0.523240
Br458	Br	0.926703	-0.080679	-0.273240
Br459	Br	1.176703	0.169321	-0.023240
Br460	Br	1.426703	0.419321	0.226760
H461	H	0.747912	-0.337266	-0.742863
H462	H	0.997912	-0.087266	-0.492863
H463	H	1.247912	0.162734	-0.242863
H464	H	1.497912	0.412734	0.007137
Br465	Br	0.834304	-0.436042	-0.207513
Br466	Br	1.084304	-0.186042	0.042487
Br467	Br	1.334304	0.063958	0.292487
Br468	Br	1.584304	0.313958	0.542487
Br469	Br	0.643294	-0.816018	-0.436352
Br470	Br	0.893294	-0.566018	-0.186352
Br471	Br	1.143294	-0.316018	0.063648
Br472	Br	1.393294	-0.066018	0.313648
H473	H	0.457525	-0.191302	-0.374722
H474	H	0.707525	0.058698	-0.124722
H475	H	0.957525	0.308698	0.125278
H476	H	1.207525	0.558698	0.375278
H477	H	0.694799	-0.550014	-0.374531
H478	H	0.944799	-0.300014	-0.124531
H479	H	1.194799	-0.050014	0.125469
H480	H	1.444799	0.199986	0.375469
H481	H	0.661417	-0.702138	-0.414596
H482	H	0.911417	-0.452138	-0.164596
H483	H	1.161417	-0.202138	0.085404
H484	H	1.411417	0.047862	0.335404
H485	H	0.849701	-0.702029	-0.189258
H486	H	1.099701	-0.452029	0.060742
H487	H	1.349701	-0.202029	0.310742
H488	H	1.599701	0.047971	0.560742
H489	H	0.694884	-0.312372	-1.063365
H490	H	0.944884	-0.062372	-0.813365
H491	H	1.194884	0.187628	-0.563365
H492	H	1.444884	0.437628	-0.313365
H493	H	0.849740	-0.801076	-0.189274
H494	H	1.099740	-0.551076	0.060726
H495	H	1.349740	-0.301076	0.310726
H496	H	1.599740	-0.051076	0.560726
H497	H	0.763145	-0.166343	-0.742869
H498	H	1.013145	0.083657	-0.492869
H499	H	1.263145	0.333657	-0.242869
H500	H	1.513145	0.583657	0.007131
Br501	Br	0.834474	-0.173061	-0.523329
Br502	Br	1.084474	0.076939	-0.273329
Br503	Br	1.334474	0.326939	-0.023329
Br504	Br	1.584474	0.576939	0.226671
Br505	Br	0.676712	-0.330637	-0.677477
Br506	Br	0.926712	-0.080637	-0.427477
Br507	Br	1.176712	0.169363	-0.177477
Br508	Br	1.426712	0.419363	0.072523
H509	H	0.816304	-0.191169	-0.659788
H510	H	1.066304	0.058831	-0.409788
H511	H	1.316304	0.308831	-0.159788
H512	H	1.566304	0.558831	0.090212
H513	H	0.206395	-0.157916	-0.414884
H514	H	0.456395	0.092084	-0.164884
H515	H	0.706395	0.342084	0.085116
H516	H	0.956395	0.592084	0.335116
Br517	Br	0.765406	-0.140728	-0.879341
Br518	Br	1.015406	0.109272	-0.629341
Br519	Br	1.265406	0.359272	-0.379341
Br520	Br	1.515406	0.609272	-0.129341
H521	H	0.054228	-0.191307	-0.374763
H522	H	0.304228	0.058693	-0.124763
H523	H	0.554228	0.308693	0.125237
H524	H	0.804228	0.558693	0.375237
H525	H	0.816313	-0.191088	-0.944718
H526	H	1.066313	0.058912	-0.694718
H527	H	1.316313	0.308912	-0.444718
H528	H	1.566313	0.558912	-0.194718
H529	H	0.694760	-0.450948	-0.374508
H530	H	0.944760	-0.200948	-0.124508
H531	H	1.194760	0.049052	0.125492
H532	H	1.444760	0.299052	0.375492
Br533	Br	0.834365	-0.564733	-0.207536
Br534	Br	1.084365	-0.314733	0.042464
Br535	Br	1.334365	-0.064733	0.292464
Br536	Br	1.584365	0.185267	0.542464
Br537	Br	0.834493	-0.938390	-0.207579
Br538	Br	1.084493	-0.688390	0.042421
Br539	Br	1.334493	-0.438390	0.292421
Br540	Br	1.584493	-0.188390	0.542421
H541	H	0.816309	-0.191050	-1.063425
H542	H	1.066309	0.058950	-0.813425
H543	H	1.316309	0.308950	-0.563425
H544	H	1.566309	0.558950	-0.313425
H545	H	-0.044837	-0.191312	-0.374768
H546	H	0.205163	0.058688	-0.124768
H547	H	0.455163	0.308688	0.125232
H548	H	0.705163	0.558688	0.375232
H549	H	0.816370	-1.052287	-0.229336
H550	H	1.066370	-0.802287	0.020664
H551	H	1.316370	-0.552287	0.270664
H552	H	1.566370	-0.302287	0.520664
H553	H	0.694973	-1.052351	-0.374586
H554	H	0.944973	-0.802351	-0.124586
H555	H	1.194973	-0.552351	0.125414
H556	H	1.444973	-0.302351	0.375414
H557	H	0.556575	-0.191314	-0.374719
H558	H	0.806575	0.058686	-0.124719
H559	H	1.056575	0.308686	0.125281
H560	H	1.306575	0.558686	0.375281
Br561	Br	0.676717	-0.330566	-0.926880
Br562	Br	0.926717	-0.080566	-0.676880
Br563	Br	1.176717	0.169434	-0.426880
Br564	Br	1.426717	0.419434	-0.176880
