data_functionalizedCrystal
_audit_creation_method	'MofGen! by Chris Wilmer'
_symmetry_space_group_name_H-M	'P1'
_symmetry_Int_Tables_number	1
_symmetry_cell_setting	triclinic
loop_
_symmetry_equiv_pos_as_xyz
  x,y,z
_cell_length_a	14.519709
_cell_length_b	12.503572
_cell_length_c	14.519731
_cell_angle_alpha	93.524736
_cell_angle_beta	96.315500
_cell_angle_gamma	93.519209
loop_
_atom_site_label
_atom_site_type_symbol
_atom_site_fract_x
_atom_site_fract_y
_atom_site_fract_z
O1	O	1.229178	0.089193	-0.115571
O2	O	0.960704	0.089227	-0.129806
O3	O	1.102048	0.089187	0.011547
O4	O	1.087834	0.089233	-0.256924
O5	O	1.091418	-0.089452	0.000899
O6	O	0.950074	-0.089412	-0.140454
O7	O	1.218548	-0.089446	-0.126219
Cu8	Cu	1.083341	-0.105740	-0.134309
Cu9	Cu	1.095912	0.105521	-0.121716
O10	O	1.077205	-0.089406	-0.267572
C11	C	0.921030	-0.000088	-0.134466
C12	C	0.818649	-0.000076	-0.132477
N13	N	1.074506	-0.254330	-0.143165
C14	C	0.443750	-0.000126	-0.125161
C15	C	0.548059	-0.000112	-0.127192
C16	C	0.631196	-0.000100	-0.128819
C17	C	0.735512	-0.000088	-0.130851
C18	C	1.061509	-0.473442	-0.156201
C19	C	1.117748	-0.526784	-0.099819
C20	C	1.110516	-0.648706	-0.107073
C21	C	1.068739	-0.351509	-0.148949
C22	C	1.258223	-0.000128	-0.121559
C23	C	1.360604	-0.000134	-0.123547
C24	C	1.096067	-0.000135	0.040582
C25	C	1.094070	-0.000145	0.142962
N26	N	1.104754	0.254111	-0.112852
C27	C	1.092448	-0.000150	0.226106
C28	C	1.090421	-0.000150	0.330415
C29	C	1.088813	-0.000151	0.413554
C30	C	1.086786	-0.000154	0.517869
C31	C	1.083185	-0.000104	0.703391
C32	C	1.085178	-0.000154	0.601008
H33	H	1.171327	-0.480887	-0.046102
F34	F	0.991483	-0.533427	-0.226412
