data_functionalizedCrystal
_audit_creation_method	'MofGen! by Chris Wilmer'
_symmetry_space_group_name_H-M	'P1'
_symmetry_Int_Tables_number	1
_symmetry_cell_setting	triclinic
loop_
_symmetry_equiv_pos_as_xyz
  x,y,z
_cell_length_a	6.817900
_cell_length_b	14.125469
_cell_length_c	16.305550
_cell_angle_alpha	95.884114
_cell_angle_beta	103.455250
_cell_angle_gamma	100.398878
loop_
_atom_site_label
_atom_site_type_symbol
_atom_site_fract_x
_atom_site_fract_y
_atom_site_fract_z
V1	V	-4.010572	-0.133925	-0.262704
O2	O	-4.014497	0.005600	-0.258038
O3	O	-3.946712	-0.264747	-0.260584
O4	O	-3.962176	-0.132231	-0.377425
O5	O	-3.998925	-0.127833	-0.140389
V6	V	-4.496202	-0.117193	-0.248113
O7	O	-4.267207	-0.170628	-0.294709
O8	O	-4.689764	-0.080489	-0.216107
O9	O	-4.336856	0.013629	-0.250232
O10	O	-4.609674	-0.256718	-0.252778
O11	O	-4.625245	-0.123285	-0.370428
O12	O	-4.321392	-0.118886	-0.133392
C13	C	-3.787951	-0.296627	-0.256357
C14	C	-3.817025	-0.403578	-0.255389
C15	C	-3.870323	-0.599398	-0.253629
C16	C	-4.055817	-0.651731	-0.257190
C17	C	-4.085475	-0.760692	-0.256211
C18	C	-3.840658	-0.490427	-0.254608
C19	C	-3.807677	-0.127589	-0.405397
C20	C	-3.849289	-0.127070	-0.499180
C21	C	-4.000611	-0.125059	-0.839931
C22	C	-3.765262	-0.119090	-0.799017
C23	C	-3.721959	-0.120028	-0.701520
C24	C	-3.925537	-0.126056	-0.670880
C25	C	-4.081450	-0.221074	-0.721274
C26	C	-4.123376	-0.220536	-0.818825
C27	C	-4.065699	-0.036771	-0.794304
C28	C	-4.017858	-0.036019	-0.696463
C29	C	-3.883121	-0.126623	-0.575341
C30	C	-4.043036	-0.124499	-0.935471
C31	C	-4.158957	0.045504	-0.254457
C32	C	-4.109122	0.152455	-0.255431
C33	C	-4.139232	-0.123532	-0.105415
C34	C	-4.076859	-0.124046	-0.011631
H35	H	-3.603457	-0.051711	-0.666663
H36	H	-3.667157	-0.050450	-0.811548
C37	C	-4.240259	-0.601713	-0.262291
H38	H	-4.195817	-0.533977	-0.262278
H39	H	-4.343995	-0.629080	-0.313267
H40	H	-4.294724	-0.611209	-0.214456
C41	C	-3.685885	-0.649412	-0.248506
H42	H	-3.730330	-0.717145	-0.248501
H43	H	-3.631367	-0.639923	-0.296324
H44	H	-3.582183	-0.622039	-0.197516
H45	H	-3.712748	-0.182521	-0.830374
H46	H	-3.648023	-0.184191	-0.685069
C47	C	-4.297576	-0.041529	-0.830519
H48	H	-4.354513	-0.097016	-0.873237
H49	H	-4.365502	-0.046168	-0.785949
H50	H	-4.315758	0.015655	-0.854735
C51	C	-4.216997	-0.034407	-0.667616
H52	H	-4.246585	-0.088871	-0.639474
H53	H	-4.199115	0.023936	-0.629583
H54	H	-4.328170	-0.037313	-0.716003
H55	H	-4.296237	-0.228869	-0.846797
C56	C	-4.063972	-0.310820	-0.859651
H57	H	-4.014483	-0.347477	-0.816578
H58	H	-4.181663	-0.349939	-0.900044
H59	H	-3.959075	-0.290739	-0.887502
C60	C	-3.953614	0.060490	-0.812593
H61	H	-3.995067	0.112815	-0.784478
H62	H	-3.808794	0.066845	-0.792283
H63	H	-3.987858	0.061814	-0.872311
C64	C	-4.287105	-0.231687	-0.695698
H65	H	-4.279686	-0.178139	-0.653955
H66	H	-4.395968	-0.232897	-0.744510
H67	H	-4.312514	-0.290571	-0.672830
C68	C	-3.996000	-0.311391	-0.698350
H69	H	-3.865396	-0.291392	-0.658106
H70	H	-4.088686	-0.351422	-0.674418
H71	H	-3.981157	-0.347069	-0.748391
H72	H	-3.905037	0.034261	-0.662257
