data_functionalizedCrystal
_audit_creation_method	'MofGen! by Chris Wilmer'
_symmetry_space_group_name_H-M	'P1'
_symmetry_Int_Tables_number	1
_symmetry_cell_setting	triclinic
loop_
_symmetry_equiv_pos_as_xyz
  x,y,z
_cell_length_a	19.805407
_cell_length_b	25.639240
_cell_length_c	19.805399
_cell_angle_alpha	90.035908
_cell_angle_beta	90.019573
_cell_angle_gamma	90.032757
loop_
_atom_site_label
_atom_site_type_symbol
_atom_site_fract_x
_atom_site_fract_y
_atom_site_fract_z
Zn1	Zn	1.034706	-0.208163	0.382680
Zn2	Zn	1.534706	0.291837	0.882680
Zn3	Zn	1.034608	-0.295597	0.269476
Zn4	Zn	1.534608	0.204403	0.769476
Zn5	Zn	0.921520	-0.208177	0.269505
Zn6	Zn	1.421520	0.291823	0.769505
Zn7	Zn	0.921471	-0.295569	0.382623
Zn8	Zn	1.421471	0.204431	0.882623
O9	O	0.978076	-0.251877	0.326071
O10	O	1.478076	0.248123	0.826071
O11	O	1.129409	-0.219767	0.367676
O12	O	1.629409	0.280233	0.867676
O13	O	1.019586	-0.284018	0.174763
O14	O	1.519586	0.215982	0.674763
O15	O	0.936596	-0.135010	0.284555
O16	O	1.436596	0.364990	0.784555
O17	O	1.129338	-0.284004	0.284505
O18	O	1.629338	0.215996	0.784505
O19	O	1.019753	-0.135000	0.367704
O20	O	1.519753	0.365000	0.867704
O21	O	0.936501	-0.219791	0.174785
O22	O	1.436501	0.280209	0.674785
O23	O	0.826797	-0.219764	0.284498
O24	O	1.326797	0.280236	0.784498
O25	O	0.936513	-0.283957	0.477347
O26	O	1.436513	0.216043	0.977347
O27	O	0.826761	-0.283971	0.367605
O28	O	1.326761	0.216029	0.867605
O29	O	1.019705	-0.219740	0.477389
O30	O	1.519705	0.280260	0.977389
O31	O	1.019539	-0.368758	0.284448
O32	O	1.519539	0.131242	0.784448
O33	O	0.936418	-0.368738	0.367577
O34	O	1.436418	0.131262	0.867577
C35	C	0.802220	-0.251867	0.326049
C36	C	1.302220	0.248133	0.826049
C37	C	0.726988	-0.251875	0.326056
C38	C	1.226988	0.248125	0.826056
C39	C	0.691643	-0.285357	0.369259
C40	C	1.191643	0.214643	0.869259
C41	C	0.620955	-0.285358	0.369269
C42	C	1.120955	0.214642	0.869269
C43	C	0.585613	-0.251879	0.326071
C44	C	1.085613	0.248121	0.826071
C45	C	0.620963	-0.218393	0.282865
C46	C	1.120963	0.281607	0.782865
C47	C	0.691650	-0.218390	0.282860
C48	C	1.191650	0.281610	0.782860
C49	C	0.335890	-0.218404	0.282888
C50	C	0.835890	0.281596	0.782888
C51	C	0.265198	-0.218411	0.282895
C52	C	0.765198	0.281589	0.782895
C53	C	0.265194	-0.285373	0.369297
C54	C	0.765194	0.214627	0.869297
C55	C	0.335881	-0.285370	0.369291
C56	C	0.835881	0.214630	0.869291
C57	C	0.371225	-0.251882	0.326089
C58	C	0.871225	0.248118	0.826089
C59	C	0.447874	-0.251881	0.326080
C60	C	0.947874	0.248119	0.826080
C61	C	0.508966	-0.251883	0.326076
C62	C	1.008966	0.248117	0.826076
C63	C	0.977981	-0.387719	0.326018
C64	C	1.477981	0.112281	0.826018
C65	C	0.978002	-0.445833	0.326018
C66	C	1.478002	0.054167	0.826018
C67	C	1.021398	-0.806152	0.369445
C68	C	1.521398	-0.306152	0.869445
C69	C	1.021418	-0.860757	0.369459
C70	C	1.521418	-0.360757	0.869459
O71	O	1.058201	-0.888956	0.406328
O72	O	1.558201	-0.388956	0.906328
N73	N	0.978170	-0.888116	0.326136
N74	N	1.478170	-0.388116	0.826136
C75	C	0.934895	-0.860868	0.282802
C76	C	1.434895	-0.360868	0.782802
O77	O	0.898112	-0.889153	0.245955
O78	O	1.398112	-0.389153	0.745955
C79	C	0.934873	-0.806264	0.282792
C80	C	1.434873	-0.306264	0.782792
C81	C	0.978128	-0.778908	0.326113
C82	C	1.478128	-0.278908	0.826113
C83	C	1.064649	-0.778796	0.412762
C84	C	1.564649	-0.278796	0.912762
C85	C	1.064629	-0.724195	0.412748
C86	C	1.564629	-0.224195	0.912748
C87	C	1.021359	-0.696951	0.369415
C88	C	1.521359	-0.196951	0.869415
C89	C	0.978108	-0.724307	0.326098
C90	C	1.478108	-0.224307	0.826098
C91	C	0.891595	-0.779017	0.239462
C92	C	1.391595	-0.279017	0.739462
C93	C	0.891575	-0.724410	0.239456
C94	C	1.391575	-0.224410	0.739456
C95	C	0.934830	-0.697054	0.282777
C96	C	1.434830	-0.197054	0.782777
C97	C	0.934819	-0.642463	0.282751
C98	C	1.434819	-0.142463	0.782751
N99	N	0.978066	-0.615104	0.326073
N100	N	1.478066	-0.115104	0.826073
C101	C	1.021336	-0.642348	0.369406
C102	C	1.521336	-0.142348	0.869406
C103	C	0.934946	-0.975538	0.282827
C104	C	1.434946	-0.475538	0.782827
C105	C	0.934972	-1.030140	0.282833
C106	C	1.434972	-0.530140	0.782833
C107	C	1.021493	-1.030026	0.369491
C108	C	1.521493	-0.530026	0.869491
C109	C	1.021470	-0.975422	0.369481
C110	C	1.521470	-0.475422	0.869481
C111	C	0.978193	-0.948179	0.326149
C112	C	1.478193	-0.448179	0.826149
C113	C	1.021293	-0.527683	0.369371
C114	C	1.521293	-0.027683	0.869371
C115	C	1.021272	-0.473077	0.369350
C116	C	1.521272	0.026923	0.869350
C117	C	0.934748	-0.473197	0.282695
C118	C	1.434748	0.026803	0.782695
C119	C	0.934772	-0.527798	0.282713
C120	C	1.434772	-0.027798	0.782713
C121	C	0.978046	-0.555039	0.326056
C122	C	1.478046	-0.055039	0.826056
O123	O	0.898053	-0.614229	0.245903
O124	O	1.398053	-0.114229	0.745903
O125	O	1.058108	-0.614056	0.406253
O126	O	1.558108	-0.114056	0.906253
C127	C	1.154619	-0.251887	0.326093
C128	C	1.654619	0.248113	0.826093
C129	C	1.229851	-0.251891	0.326103
C130	C	1.729851	0.248109	0.826103
C131	C	0.978114	-0.251844	0.502614
C132	C	1.478114	0.248156	1.002614
C133	C	0.978131	-0.251830	0.577846
C134	C	1.478131	0.248170	1.077846
C135	C	0.978191	-0.115504	0.326139
C136	C	1.478191	0.384496	0.826139
C137	C	0.978240	-0.057389	0.326168
C138	C	1.478240	0.442611	0.826168
C139	C	0.978078	-0.251872	0.150215
C140	C	1.478078	0.248128	0.650215
C141	C	0.978193	-0.251738	0.074983
C142	C	1.478193	0.248262	0.574983
C143	C	1.021450	-0.218390	0.613213
C144	C	1.521450	0.281610	1.113213
C145	C	1.021457	-0.218375	0.683902
C146	C	1.521457	0.281625	1.183902
C147	C	0.978147	-0.251802	0.719221
C148	C	1.478147	0.248198	1.219221
C149	C	0.934823	-0.285243	0.683849
C150	C	1.434823	0.214757	1.183849
C151	C	0.934813	-0.285255	0.613162
C152	C	1.434813	0.214745	1.113162
C153	C	0.934861	-0.285194	0.968923
C154	C	1.434861	0.214806	1.468923
C155	C	0.934876	-0.285181	1.039615
C156	C	1.434876	0.214819	1.539615
C157	C	1.021505	-0.218314	1.039662
C158	C	1.521505	0.281686	1.539662
C159	C	1.021495	-0.218326	0.968975
C160	C	1.521495	0.281674	1.468975
C161	C	0.978169	-0.251765	0.933609
C162	C	1.478169	0.248235	1.433609
C163	C	0.978161	-0.251780	0.856960
C164	C	1.478161	0.248220	1.356960
C165	C	0.978158	-0.251790	0.795869
C166	C	1.478158	0.248210	1.295869
H167	H	0.592182	-0.191131	0.247696
H168	H	1.092182	0.308869	0.747696
H169	H	0.364653	-0.312634	0.404465
H170	H	0.864653	0.187366	0.904465
H171	H	0.720414	-0.312622	0.404434
H172	H	1.220414	0.187378	0.904434
N173	N	1.065466	-0.445143	0.413604
N174	N	1.565466	0.054857	0.913604
N175	N	1.104095	-0.469479	0.452289
N176	N	1.604095	0.030521	0.952289
H177	H	1.135307	-0.449752	0.483543
H178	H	1.635307	0.050248	0.983543
N179	N	1.065499	-0.555496	0.413650
N180	N	1.565499	-0.055496	0.913650
N181	N	1.104110	-0.531056	0.452319
N182	N	1.604110	-0.031056	0.952319
H183	H	1.135333	-0.550698	0.483589
H184	H	1.635333	-0.050698	0.983589
N185	N	1.065691	-0.184251	0.577128
N186	N	1.565691	0.315749	1.077128
N187	N	1.108801	-0.202655	0.537682
N188	N	1.608801	0.297345	1.037682
H189	H	1.140046	-0.178543	0.512197
H190	H	1.640046	0.321457	1.012197
N191	N	1.065766	-0.184151	1.075777
N192	N	1.565766	0.315849	1.575777
N193	N	1.128218	-0.187625	1.067891
N194	N	1.628218	0.312375	1.567891
H195	H	1.159479	-0.163499	1.093394
H196	H	1.659479	0.336501	1.593394
H197	H	1.056765	-0.191108	0.940221
H198	H	1.556765	0.308892	1.440221
H199	H	1.099884	-0.800972	0.448053
H200	H	1.599884	-0.300972	0.948053
N201	N	0.727759	-0.184180	0.238739
N202	N	1.227759	0.315820	0.738739
N203	N	0.719898	-0.135941	0.243358
N204	N	1.219898	0.364059	0.743358
H205	H	0.745399	-0.111777	0.212200
H206	H	1.245399	0.388223	0.712200
N207	N	0.890617	-0.319355	0.932798
N208	N	1.390617	0.180645	1.432798
N209	N	0.914392	-0.352680	0.893338
N210	N	1.414392	0.147320	1.393338
H211	H	0.883142	-0.376807	0.867821
H212	H	1.383142	0.123193	1.367821
N213	N	1.065700	-1.057852	0.413759
N214	N	1.565700	-0.557852	0.913759
N215	N	1.128157	-1.051717	0.409332
N216	N	1.628157	-0.551717	0.909332
H217	H	1.159377	-1.071369	0.440595
H218	H	1.659377	-0.571369	0.940595
N219	N	0.371976	-0.184198	0.238751
N220	N	0.871976	0.315802	0.738751
N221	N	0.340410	-0.154313	0.200181
N222	N	0.840410	0.345687	0.700181
H223	H	0.365898	-0.130154	0.169005
H224	H	0.865898	0.369846	0.669005
H225	H	0.899557	-0.312458	0.712612
H226	H	1.399557	0.187542	1.212612
H227	H	1.099849	-0.701925	0.448025
H228	H	1.599849	-0.201925	0.948025
H229	H	1.056692	-0.953152	0.404756
H230	H	1.556692	-0.453152	0.904756
N231	N	0.890555	-0.319413	0.577043
N232	N	1.390555	0.180587	1.077043
N233	N	0.851886	-0.349255	0.608584
N234	N	1.351886	0.150745	1.108584
H235	H	0.820624	-0.373379	0.583077
H236	H	1.320624	0.126621	1.083077
H237	H	0.899756	-1.052409	0.247550
H238	H	1.399756	-0.552409	0.747550
N239	N	0.229091	-0.319586	0.413424
N240	N	0.729091	0.180414	0.913424
N241	N	0.189616	-0.352881	0.389527
N242	N	0.689616	0.147119	0.889527
H243	H	0.164120	-0.377045	0.420689
H244	H	0.664120	0.122955	0.920689
H245	H	0.592180	-0.312624	0.404449
H246	H	1.092180	0.187376	0.904449
H247	H	0.899605	-0.312402	1.068370
H248	H	1.399605	0.187598	1.568370
H249	H	0.899707	-0.953359	0.247536
H250	H	1.399707	-0.453359	0.747536
N251	N	0.847397	-0.806944	0.195215
N252	N	1.347397	-0.306944	0.695215
N253	N	0.808761	-0.782602	0.156543
N254	N	1.308761	-0.282602	0.656543
H255	H	0.777539	-0.802323	0.125294
H256	H	1.277539	-0.302323	0.625294
H257	H	0.856332	-0.702231	0.204172
H258	H	1.356332	-0.202231	0.704172
N259	N	0.229106	-0.184208	0.238762
N260	N	0.729106	0.315792	0.738762
N261	N	0.260670	-0.154311	0.200191
N262	N	0.760670	0.345689	0.700191
H263	H	0.235180	-0.130157	0.169022
H264	H	0.735180	0.369843	0.669022
N265	N	0.890563	-0.445354	0.238431
N266	N	1.390563	0.054646	0.738431
N267	N	0.890558	-0.396601	0.238429
N268	N	1.390558	0.103399	0.738429
H269	H	0.859350	-0.376935	0.207169
H270	H	1.359350	0.123065	0.707169
H271	H	0.899555	-0.550072	0.247433
H272	H	1.399555	-0.050072	0.747433
H273	H	1.056734	-0.191146	0.712695
H274	H	1.556734	0.308854	1.212695
