data_functionalizedCrystal
_audit_creation_method	'MofGen! by Chris Wilmer'
_symmetry_space_group_name_H-M	'P1'
_symmetry_Int_Tables_number	1
_symmetry_cell_setting	triclinic
loop_
_symmetry_equiv_pos_as_xyz
  x,y,z
_cell_length_a	19.805405
_cell_length_b	19.805407
_cell_length_c	11.169409
_cell_angle_alpha	89.974391
_cell_angle_beta	90.039857
_cell_angle_gamma	89.974605
loop_
_atom_site_label
_atom_site_type_symbol
_atom_site_fract_x
_atom_site_fract_y
_atom_site_fract_z
Zn1	Zn	-0.269427	-1.034766	0.678665
Zn2	Zn	0.230573	-0.534766	1.178665
Zn3	Zn	-0.382636	-1.034672	0.477956
Zn4	Zn	0.117364	-0.534672	0.977956
Zn5	Zn	-0.269464	-0.921572	0.477979
Zn6	Zn	0.230536	-0.421572	0.977979
Zn7	Zn	-0.382577	-0.921544	0.678580
Zn8	Zn	0.117423	-0.421544	1.178580
O9	O	-0.326026	-0.978138	0.578295
O10	O	0.173974	-0.478138	1.078295
O11	O	-0.284453	-1.129470	0.652066
O12	O	0.215547	-0.629470	1.152066
O13	O	-0.367664	-1.019641	0.310009
O14	O	0.132336	-0.519641	0.810009
O15	O	-0.174743	-0.936638	0.504646
O16	O	0.325257	-0.436638	1.004646
O17	O	-0.367627	-1.129401	0.504606
O18	O	0.132373	-0.629401	1.004606
O19	O	-0.174715	-1.019801	0.652089
O20	O	0.325285	-0.519801	1.152089
O21	O	-0.284517	-0.936547	0.310026
O22	O	0.215483	-0.436547	0.810026
O23	O	-0.284460	-0.826852	0.504564
O24	O	0.215540	-0.326852	1.004564
O25	O	-0.367527	-0.936591	0.846541
O26	O	0.132473	-0.436591	1.346541
O27	O	-0.367563	-0.826831	0.651945
O28	O	0.132437	-0.326831	1.151945
O29	O	-0.284396	-1.019775	0.846604
O30	O	0.215604	-0.519775	1.346604
O31	O	-0.477345	-1.019614	0.504524
O32	O	0.022655	-0.519614	1.004524
O33	O	-0.477301	-0.936500	0.651922
O34	O	0.022699	-0.436500	1.151922
C35	C	-0.326010	-0.802282	0.578248
C36	C	0.173990	-0.302282	1.078248
C37	C	-0.326019	-0.727050	0.578257
C38	C	0.173981	-0.227050	1.078257
C39	C	-0.369356	-0.691713	0.654872
C40	C	0.130644	-0.191713	1.154872
C41	C	-0.369356	-0.621025	0.654886
C42	C	0.130644	-0.121025	1.154886
C43	C	-0.326022	-0.585675	0.578277
C44	C	0.173978	-0.085675	1.078277
C45	C	-0.282681	-0.621017	0.501658
C46	C	0.217319	-0.121017	1.001658
C47	C	-0.282678	-0.691704	0.501652
C48	C	0.217322	-0.191704	1.001652
C49	C	-0.282691	-0.335944	0.501685
C50	C	0.217309	0.164056	1.001685
C51	C	-0.282698	-0.265251	0.501695
C52	C	0.217302	0.234749	1.001695
C53	C	-0.369369	-0.265265	0.654919
C54	C	0.130631	0.234735	1.154919
C55	C	-0.369366	-0.335952	0.654912
C56	C	0.130634	0.164048	1.154912
C57	C	-0.326022	-0.371288	0.578298
C58	C	0.173978	0.128712	1.078298
C59	C	-0.326022	-0.447936	0.578286
C60	C	0.173978	0.052064	1.078286
C61	C	-0.326025	-0.509028	0.578282
C62	C	0.173975	-0.009028	1.078282
C63	C	-0.501882	-0.978062	0.578237
C64	C	-0.001882	-0.478062	1.078237
C65	C	-0.577114	-0.978092	0.578252
C66	C	-0.077114	-0.478092	1.078252
C67	C	-0.612458	-1.021411	0.501583
C68	C	-0.112458	-0.521411	1.001583
C69	C	-0.683147	-1.021440	0.501609
C70	C	-0.183147	-0.521440	1.001609
C71	C	-0.718490	-0.978145	0.578300
C72	C	-0.218490	-0.478145	1.078300
C73	C	-0.683140	-0.934824	0.654979
C74	C	-0.183140	-0.434824	1.154979
C75	C	-0.612453	-0.934799	0.654957
C76	C	-0.112453	-0.434799	1.154957
C77	C	-0.968214	-0.934923	0.655067
C78	C	-0.468214	-0.434923	1.155067
C79	C	-1.038906	-0.934950	0.655080
C80	C	-0.538906	-0.434950	1.155080
C81	C	-1.038907	-1.021565	0.501719
C82	C	-0.538907	-0.521565	1.001719
C83	C	-0.968220	-1.021540	0.501698
C84	C	-0.468220	-0.521540	1.001698
C85	C	-0.932877	-0.978221	0.578380
C86	C	-0.432877	-0.478221	1.078380
C87	C	-0.856228	-0.978191	0.578352
C88	C	-0.356228	-0.478191	1.078352
C89	C	-0.795137	-0.978171	0.578323
C90	C	-0.295137	-0.478171	1.078323
C91	C	-0.149483	-0.978233	0.578380
C92	C	0.350517	-0.478233	1.078380
C93	C	-0.074251	-0.978274	0.578416
C94	C	0.425749	-0.478274	1.078416
C95	C	-0.325951	-0.978190	0.891338
C96	C	0.174049	-0.478190	1.391338
C97	C	-0.325919	-0.978213	1.024738
C98	C	0.174081	-0.478213	1.524738
C99	C	-0.326038	-0.154681	0.578331
C100	C	0.173962	0.345319	1.078331
C101	C	-0.326032	-0.229913	0.578317
C102	C	0.173968	0.270087	1.078317
C103	C	-0.326052	-0.978126	0.266470
C104	C	0.173948	-0.478126	0.766470
C105	C	-0.325893	-0.978235	0.133071
C106	C	0.174107	-0.478235	0.633071
H107	H	-0.404655	-0.364730	0.717291
H108	H	0.095345	0.135270	1.217291
H109	H	-0.404645	-0.592257	0.717272
H110	H	0.095355	-0.092257	1.217272
H111	H	-0.404658	-0.236486	0.717306
H112	H	0.095342	0.263514	1.217306
H113	H	-0.404646	-0.720491	0.717252
H114	H	0.095354	-0.220491	1.217252
H115	H	-0.247407	-0.236471	0.439311
H116	H	0.252593	0.263529	0.939311
H117	H	-0.583687	-1.056664	0.439127
H118	H	-0.083687	-0.556664	0.939127
H119	H	-0.711921	-1.056715	0.439176
H120	H	-0.211921	-0.556715	0.939176
H121	H	-0.939446	-1.056792	0.439245
H122	H	-0.439446	-0.556792	0.939245
H123	H	-0.247385	-0.720474	0.439270
H124	H	0.252615	-0.220474	0.939270
H125	H	-0.247395	-0.592229	0.439288
H126	H	0.252605	-0.092229	0.939288
H127	H	-1.067692	-1.056840	0.439286
H128	H	-0.567692	-0.556840	0.939286
H129	H	-1.067680	-0.899695	0.717541
H130	H	-0.567680	-0.399695	1.217541
H131	H	-0.247403	-0.364705	0.439292
H132	H	0.252597	0.135295	0.939292
H133	H	-0.939443	-0.899651	0.717502
H134	H	-0.439443	-0.399651	1.217502
H135	H	-0.711922	-0.899575	0.717427
H136	H	-0.211922	-0.399575	1.217427
H137	H	-0.583677	-0.899524	0.717391
H138	H	-0.083677	-0.399524	1.217391
