data_functionalizedCrystal
_audit_creation_method	'MofGen! by Chris Wilmer'
_symmetry_space_group_name_H-M	'P1'
_symmetry_Int_Tables_number	1
_symmetry_cell_setting	triclinic
loop_
_symmetry_equiv_pos_as_xyz
  x,y,z
_cell_length_a	16.109318
_cell_length_b	12.837943
_cell_length_c	11.892095
_cell_angle_alpha	85.694680
_cell_angle_beta	86.105399
_cell_angle_gamma	90.851249
loop_
_atom_site_label
_atom_site_type_symbol
_atom_site_fract_x
_atom_site_fract_y
_atom_site_fract_z
O1	O	1.118500	-0.126707	-0.093901
O2	O	0.877757	-0.143268	-0.093923
O3	O	0.992790	0.015914	-0.093913
O4	O	1.003467	-0.285889	-0.093910
O5	O	0.983198	0.002662	0.094093
O6	O	0.868164	-0.156520	0.094084
O7	O	1.108907	-0.139959	0.094106
Zn8	Zn	0.987013	-0.150343	0.123945
Zn9	Zn	0.999652	-0.132883	-0.123762
O10	O	0.993874	-0.299141	0.094096
C11	C	0.841933	-0.149220	0.000078
C12	C	0.749478	-0.147198	0.000069
C13	C	0.455114	-0.133449	-0.102394
C14	C	0.541986	-0.135340	-0.102400
C15	C	0.531545	-0.149774	0.102575
C16	C	0.444675	-0.147875	0.102580
C17	C	0.406461	-0.139718	0.000093
C18	C	0.580203	-0.143508	0.000080
C19	C	0.674394	-0.145559	0.000074
C20	C	0.312265	-0.137665	0.000099
C21	C	1.002277	-0.331135	0.000094
C22	C	1.013034	-0.446209	0.000095
C23	C	0.883719	-0.687199	0.000063
C24	C	0.893822	-0.795322	0.000063
C25	C	1.043343	-0.770580	0.000089
C26	C	1.033240	-0.662457	0.000088
C27	C	0.953425	-0.620771	0.000077
C28	C	0.943322	-0.512646	0.000084
C29	C	1.092843	-0.487906	0.000102
C30	C	1.102946	-0.596029	0.000103
C31	C	1.144732	-0.134007	0.000103
C32	C	1.237187	-0.136028	0.000104
C33	C	0.984387	0.047908	0.000087
C34	C	0.973631	0.162983	0.000078
N35	N	0.978393	-0.162259	0.292998
N36	N	1.008277	-0.120960	-0.292815
C37	C	1.068253	-0.037988	0.529654
C38	C	1.062235	-0.046325	0.647995
C39	C	0.960333	-0.187262	0.648025
C40	C	0.966352	-0.178925	0.529683
C41	C	1.020314	-0.104287	0.470502
C42	C	1.026337	-0.095957	0.352158
C43	C	0.924432	-0.236888	0.352190
C44	C	0.918413	-0.245224	0.470532
H45	H	0.562669	-0.156418	0.186016
H46	H	0.818730	-0.653259	0.000074
O47	O	0.826145	-0.859879	-0.000147
C48	C	0.755774	-0.989491	-0.097528
C49	C	0.832454	-0.916412	-0.097441
H50	H	0.760858	-1.035233	-0.176169
H51	H	0.696972	-0.941166	-0.097611
H52	H	0.752752	-1.046232	-0.018812
H53	H	0.835556	-0.859657	-0.176143
H54	H	0.891219	-0.964804	-0.097299
H55	H	1.108321	-0.804546	0.000170
H56	H	1.101270	0.007664	0.696153
O57	O	0.865876	-0.317615	0.527977
C58	C	0.724290	-0.380891	0.564170
C59	C	0.783692	-0.298829	0.499065
H60	H	0.657834	-0.365744	0.540800
H61	H	0.728149	-0.375459	0.658925
H62	H	0.742928	-0.462276	0.540922
H63	H	0.765095	-0.217406	0.522218
H64	H	0.779825	-0.304353	0.404325
O65	O	1.078652	-0.023297	0.294743
C66	C	1.114927	0.159495	0.258655
C67	C	1.055612	0.077303	0.323706
H68	H	1.096331	0.240847	0.282066
H69	H	1.111007	0.154189	0.163891
H70	H	1.181400	0.144281	0.281909
H71	H	0.989113	0.092463	0.300547
H72	H	1.059604	0.082628	0.418455
O73	O	0.418083	-0.125654	-0.202017
C74	C	0.398080	-0.202517	-0.377170
C75	C	0.440080	-0.211463	-0.264398
H76	H	0.415835	-0.271895	-0.427627
H77	H	0.419618	-0.126873	-0.427793
H78	H	0.327638	-0.202191	-0.359536
H79	H	0.510527	-0.211834	-0.281929
H80	H	0.418476	-0.287097	-0.213810
H81	H	0.405060	-0.152979	0.186042
O82	O	0.589330	-0.129402	-0.201884
C83	C	0.691121	-0.212949	-0.320872
C84	C	0.637566	-0.219799	-0.208150
H85	H	0.730120	-0.286035	-0.325986
H86	H	0.733971	-0.141024	-0.326028
H87	H	0.648868	-0.206743	-0.394097
H88	H	0.679755	-0.226045	-0.134862
H89	H	0.594708	-0.291711	-0.203093
H90	H	1.112198	0.022778	0.481467
H91	H	1.167929	-0.629986	0.000117
H92	H	0.878333	-0.478708	0.000085
H93	H	1.149603	-0.433808	0.000115
H94	H	0.885399	-0.290876	0.304015
H95	H	0.916392	-0.248023	0.696226
