data_functionalizedCrystal
_audit_creation_method	'MofGen! by Chris Wilmer'
_symmetry_space_group_name_H-M	'P1'
_symmetry_Int_Tables_number	1
_symmetry_cell_setting	triclinic
loop_
_symmetry_equiv_pos_as_xyz
  x,y,z
_cell_length_a	10.908937
_cell_length_b	15.995292
_cell_length_c	9.482900
_cell_angle_alpha	99.335510
_cell_angle_beta	83.036371
_cell_angle_gamma	71.777286
loop_
_atom_site_label
_atom_site_type_symbol
_atom_site_fract_x
_atom_site_fract_y
_atom_site_fract_z
O1	O	1.723909	-0.145225	-0.120950
O2	O	1.350025	-0.079836	-0.120938
O3	O	1.547227	-0.235850	-0.120947
O4	O	1.526707	0.010789	-0.120942
O5	O	1.507171	-0.204056	0.120848
O6	O	1.309969	-0.048041	0.120856
O7	O	1.683853	-0.113430	0.120844
Cu8	Cu	1.493254	-0.077833	0.142928
Cu9	Cu	1.540625	-0.115434	-0.143022
O10	O	1.486651	0.042584	0.120853
C11	C	1.282154	-0.057828	-0.000039
C12	C	1.139596	-0.039629	-0.000035
C13	C	0.943274	-0.087235	-0.000062
C14	C	1.090611	-0.106043	-0.000045
C15	C	1.526364	-0.251033	-0.000053
C16	C	1.523862	-0.343639	-0.000064
C17	C	1.514656	-0.680094	-0.000050
C18	C	1.656901	-0.676530	0.000485
C19	C	1.659697	-0.580303	-0.000065
C20	C	1.519224	-0.513174	-0.000056
C21	C	1.470937	-0.550523	-0.138126
C22	C	1.469242	-0.647089	-0.138236
C23	C	1.420784	-0.610385	0.136729
C24	C	1.425757	-0.514387	0.138549
C25	C	1.521799	-0.418838	-0.000065
C26	C	1.512079	-0.774431	-0.000052
C27	C	1.751725	-0.135439	-0.000058
C28	C	1.894284	-0.153639	-0.000072
C29	C	1.507514	0.057766	-0.000044
C30	C	1.510018	0.150370	-0.000043
N31	N	1.459945	-0.051388	0.344049
N32	N	1.573944	-0.141887	-0.344144
C33	C	1.530791	-0.107637	0.416245
C34	C	1.503087	-0.085629	0.583664
H35	H	1.699032	-0.556024	0.098906
H36	H	1.460651	-0.489606	0.240691
H37	H	1.365917	-0.647930	-0.144486
C38	C	1.681831	-0.228003	0.573022
C39	C	1.627347	-0.280933	0.485838
C40	C	1.726615	-0.360324	0.409576
H41	H	1.722579	-0.260496	0.640006
H42	H	1.745373	-0.213458	0.513419
H43	H	1.563829	-0.295481	0.545436
H44	H	1.586608	-0.248468	0.418827
H45	H	1.790157	-0.345779	0.349974
H46	H	1.767358	-0.392809	0.476572
H47	H	1.689664	-0.396243	0.350404
C48	C	0.853994	0.007190	-0.000147
C49	C	0.927750	0.064803	-0.000172
C50	C	0.845557	0.151793	-0.000272
H51	H	0.787101	0.028287	0.084140
H52	H	0.815115	0.006023	-0.084509
H53	H	0.966608	0.065973	0.084182
H54	H	0.994639	0.043736	-0.084453
H55	H	0.806678	0.150626	-0.084634
H56	H	0.778668	0.172880	0.084017
H57	H	0.895590	0.190892	-0.000302
C58	C	1.708411	-0.706628	0.132444
C59	C	1.835064	-0.702641	0.129596
C60	C	1.882551	-0.730358	0.251144
H61	H	1.711004	-0.766704	0.130730
H62	H	1.652122	-0.668041	0.218550
H63	H	1.891338	-0.741227	0.043513
H64	H	1.832506	-0.642573	0.131331
H65	H	1.826262	-0.691771	0.337250
H66	H	1.885135	-0.790433	0.249420
H67	H	1.968483	-0.727649	0.249235
C68	C	1.394658	0.000236	0.666418
C69	C	1.274451	-0.000410	0.629556
C70	C	1.174537	0.078666	0.705776
H71	H	1.412735	0.050927	0.641609
H72	H	1.390333	0.003614	0.767946
H73	H	1.278778	-0.003779	0.528050
H74	H	1.256332	-0.051083	0.654369
H75	H	1.170211	0.082044	0.807304
H76	H	1.192627	0.129351	0.680961
H77	H	1.092963	0.078235	0.680786
C78	C	1.351521	0.034473	0.426809
C79	C	1.231314	0.033828	0.389947
C80	C	1.131400	0.112903	0.466167
H81	H	1.369598	0.085164	0.402000
H82	H	1.347196	0.037852	0.528337
H83	H	1.235641	0.030458	0.288441
H84	H	1.213195	-0.016846	0.414760
H85	H	1.127075	0.116282	0.567695
H86	H	1.149490	0.163588	0.441352
H87	H	1.049826	0.112472	0.441177
H88	H	0.961422	-0.224415	-0.000076
H89	H	1.072465	0.031150	-0.000043
H90	H	1.535623	-0.694340	-0.241452
C91	C	1.180304	-0.200409	-0.000266
C92	C	1.278731	-0.231091	-0.124638
C93	C	1.361390	-0.318009	-0.124883
H94	H	1.130637	-0.239733	-0.000349
H95	H	1.219296	-0.199228	0.084014
H96	H	1.239742	-0.232278	-0.208897
H97	H	1.328430	-0.191792	-0.124582
H98	H	1.400382	-0.316828	-0.040602
H99	H	1.311712	-0.357326	-0.124961
H100	H	1.428189	-0.338835	-0.209260
H101	H	1.727770	-0.726091	-0.097979
C102	C	1.756347	-0.583723	-0.132397
C103	C	1.812450	-0.672540	-0.212168
C104	C	1.901477	-0.675724	-0.334098
H105	H	1.823417	-0.562943	-0.101799
H106	H	1.711597	-0.546423	-0.191613
H107	H	1.857199	-0.709827	-0.152962
H108	H	1.745412	-0.693337	-0.242802
H109	H	1.856728	-0.638424	-0.393315
H110	H	1.968539	-0.654941	-0.303486
H111	H	1.939545	-0.735984	-0.388245
C112	C	1.334266	-0.489601	-0.144762
C113	C	1.290857	-0.417239	-0.024630
C114	C	1.164970	-0.361092	-0.030702
H115	H	1.275713	-0.522791	-0.143411
H116	H	1.336879	-0.467397	-0.231721
H117	H	1.288236	-0.439442	0.062307
H118	H	1.349374	-0.384027	-0.025956
H119	H	1.167583	-0.338888	-0.117661
H120	H	1.106429	-0.394289	-0.029354
H121	H	1.135506	-0.311984	0.050798
H122	H	1.537375	-0.550855	-0.240883
H123	H	1.321844	-0.466044	0.146894
C124	C	1.457125	-0.638166	0.276160
C125	C	1.446520	-0.722962	0.278397
C126	C	1.480016	-0.748593	0.406800
H127	H	1.399354	-0.595305	0.357482
H128	H	1.544829	-0.640909	0.280409
H129	H	1.358829	-0.720213	0.274163
H130	H	1.504290	-0.765842	0.197105
H131	H	1.567720	-0.751336	0.411049
H132	H	1.422242	-0.705726	0.488112
H133	H	1.472837	-0.806132	0.408329
C134	C	1.280809	-0.609248	0.137915
C135	C	1.200064	-0.522686	0.133408
C136	C	1.071123	-0.521614	0.134469
H137	H	1.250209	-0.625427	0.224064
H138	H	1.278713	-0.651054	0.055516
H139	H	1.202155	-0.480893	0.215799
H140	H	1.230622	-0.506490	0.047265
H141	H	1.069027	-0.563420	0.052070
H142	H	1.040536	-0.537795	0.220620
H143	H	1.016324	-0.462885	0.131398
H144	H	1.611951	-0.172089	0.354114
