data_functionalizedCrystal
_audit_creation_method	'MofGen! by Chris Wilmer'
_symmetry_space_group_name_H-M	'P1'
_symmetry_Int_Tables_number	1
_symmetry_cell_setting	triclinic
loop_
_symmetry_equiv_pos_as_xyz
  x,y,z
_cell_length_a	21.295419
_cell_length_b	21.295418
_cell_length_c	11.169409
_cell_angle_alpha	89.960289
_cell_angle_beta	89.976836
_cell_angle_gamma	90.042201
loop_
_atom_site_label
_atom_site_type_symbol
_atom_site_fract_x
_atom_site_fract_y
_atom_site_fract_z
Zn1	Zn	0.962361	-0.250310	-0.678588
Zn2	Zn	1.462361	0.249690	-0.178588
Zn3	Zn	0.962271	-0.355598	-0.477880
Zn4	Zn	1.462271	0.144402	0.022120
Zn5	Zn	0.857086	-0.250374	-0.477911
Zn6	Zn	1.357086	0.249626	0.022089
Zn7	Zn	0.857059	-0.355572	-0.678513
Zn8	Zn	1.357059	0.144428	-0.178513
O9	O	0.909694	-0.302963	-0.578223
O10	O	1.409694	0.197037	-0.078223
O11	O	1.050438	-0.264260	-0.651983
O12	O	1.550438	0.235740	-0.151983
O13	O	0.948292	-0.341677	-0.309934
O14	O	1.448292	0.158323	0.190066
O15	O	0.871100	-0.162276	-0.504576
O16	O	1.371100	0.337724	-0.004576
O17	O	1.050373	-0.341615	-0.504523
O18	O	1.550373	0.158385	-0.004523
O19	O	0.948445	-0.162229	-0.652013
O20	O	1.448445	0.337771	-0.152013
O21	O	0.871013	-0.264369	-0.309957
O22	O	1.371013	0.235631	0.190043
O23	O	0.768993	-0.264344	-0.504503
O24	O	1.268993	0.235656	-0.004503
O25	O	0.871053	-0.341571	-0.846473
O26	O	1.371053	0.158429	-0.346473
O27	O	0.768973	-0.341633	-0.651884
O28	O	1.268973	0.158367	-0.151884
O29	O	0.948418	-0.264235	-0.846528
O30	O	1.448418	0.235765	-0.346528
O31	O	0.948266	-0.443684	-0.504449
O32	O	1.448266	0.056316	-0.004449
O33	O	0.870967	-0.443665	-0.651853
O34	O	1.370967	0.056335	-0.151853
C35	C	0.746143	-0.302993	-0.578189
C36	C	1.246143	0.197007	-0.078189
C37	C	0.676175	-0.303022	-0.578203
C38	C	1.176175	0.196978	-0.078203
C39	C	0.909621	-0.466515	-0.578166
C40	C	1.409621	0.033485	-0.078166
C41	C	0.909647	-0.536483	-0.578181
C42	C	1.409647	-0.036483	-0.078181
C43	C	0.950095	-1.035930	-0.501663
C44	C	1.450095	-0.535930	-0.001663
C45	C	0.950071	-0.970187	-0.501635
C46	C	1.450071	-0.470187	-0.001635
C47	C	0.909783	-0.937322	-0.578307
C48	C	1.409783	-0.437322	-0.078307
C49	C	0.869504	-0.970205	-0.654992
C50	C	1.369504	-0.470205	-0.154992
C51	C	0.869525	-1.035947	-0.655009
C52	C	1.369525	-0.535947	-0.155009
N53	N	0.904893	-0.834062	-0.683327
N54	N	1.404893	-0.334062	-0.183327
N55	N	0.904877	-0.771610	-0.683307
N56	N	1.404877	-0.271610	-0.183307
C57	C	0.909717	-0.739248	-0.578257
C58	C	1.409717	-0.239248	-0.078257
N59	N	0.914587	-0.771696	-0.473225
N60	N	1.414587	-0.271696	0.026775
N61	N	0.914606	-0.834153	-0.473246
N62	N	1.414606	-0.334153	0.026754
C63	C	0.909756	-0.866037	-0.578296
C64	C	1.409756	-0.366037	-0.078296
C65	C	0.949964	-0.635087	-0.501540
C66	C	1.449964	-0.135087	-0.001540
C67	C	0.949936	-0.569343	-0.501510
C68	C	1.449936	-0.069343	-0.001510
C69	C	0.869373	-0.569363	-0.654877
C70	C	1.369373	-0.069363	-0.154877
C71	C	0.869398	-0.635105	-0.654897
C72	C	1.369398	-0.135105	-0.154897
C73	C	0.909697	-0.667963	-0.578230
C74	C	1.409697	-0.167963	-0.078230
C75	C	0.643365	-0.262809	-0.655104
C76	C	1.143365	0.237191	-0.155104
C77	C	0.577622	-0.262792	-0.655109
C78	C	1.077622	0.237208	-0.155109
C79	C	0.544692	-0.302999	-0.578225
C80	C	1.044692	0.197001	-0.078225
C81	C	0.577510	-0.343215	-0.501309
C82	C	1.077510	0.156785	-0.001309
C83	C	0.643251	-0.343226	-0.501298
C84	C	1.143251	0.156774	-0.001298
N85	N	0.441420	-0.358078	-0.568848
N86	N	0.941420	0.141922	-0.068848
N87	N	0.378968	-0.358065	-0.568866
N88	N	0.878968	0.141935	-0.068866
C89	C	0.346617	-0.302966	-0.578252
C90	C	0.846617	0.197034	-0.078252
N91	N	0.379077	-0.247879	-0.587643
N92	N	0.879077	0.252121	-0.087643
N93	N	0.441534	-0.247892	-0.587632
N94	N	0.941534	0.252108	-0.087632
C95	C	0.473407	-0.302991	-0.578228
C96	C	0.973407	0.197009	-0.078228
C97	C	0.242522	-0.262732	-0.655162
C98	C	0.742522	0.237268	-0.155162
C99	C	0.176778	-0.262714	-0.655158
C100	C	0.676778	0.237286	-0.155158
C101	C	0.176667	-0.343142	-0.501365
C102	C	0.676667	0.156858	-0.001365
C103	C	0.242410	-0.343155	-0.501362
C104	C	0.742410	0.156845	-0.001362
C105	C	0.275333	-0.302950	-0.578267
C106	C	0.775333	0.197050	-0.078267
C107	C	1.073885	-0.302933	-0.578257
C108	C	1.573885	0.197067	-0.078257
C109	C	1.143853	-0.302921	-0.578272
C110	C	1.643853	0.197079	-0.078272
C111	C	0.909743	-0.302893	-0.891266
C112	C	1.409743	0.197107	-0.391266
C113	C	0.909763	-0.302864	-1.024666
C114	C	1.409763	0.197136	-0.524666
C115	C	0.909785	-0.138773	-0.578307
C116	C	1.409785	0.361227	-0.078307
C117	C	0.909824	-0.068805	-0.578342
C118	C	1.409824	0.431195	-0.078342
C119	C	0.909682	-0.302987	-0.266398
C120	C	1.409682	0.197013	0.233602
C121	C	0.909784	-0.302840	-0.132999
C122	C	1.409784	0.197160	0.367001
H123	H	0.982908	-1.062679	-0.439231
H124	H	1.482908	-0.562679	0.060769
H125	H	0.982865	-0.943415	-0.439191
H126	H	1.482865	-0.443415	0.060809
H127	H	0.149856	-0.375880	-0.438764
H128	H	0.649856	0.124120	0.061236
H129	H	0.550903	-0.230043	-0.717729
H130	H	1.050903	0.269957	-0.217729
N131	N	0.828352	-0.936628	-0.733297
N132	N	1.328352	-0.436628	-0.233297
N133	N	0.828339	-0.877931	-0.733273
N134	N	1.328339	-0.377931	-0.233273
H135	H	0.799272	-0.854217	-0.788575
H136	H	1.299272	-0.354217	-0.288575
H137	H	0.269124	-0.375903	-0.438746
H138	H	0.769124	0.124097	0.061254
H139	H	0.836567	-0.542605	-0.717301
H140	H	1.336567	-0.042605	-0.217301
N141	N	0.828381	-1.069521	-0.733343
N142	N	1.328381	-0.569521	-0.233343
N143	N	0.792407	-1.040174	-0.801789
N144	N	1.292407	-0.540174	-0.301789
H145	H	0.763349	-1.063887	-0.857114
H146	H	1.263349	-0.563887	-0.357114
H147	H	0.550694	-0.375951	-0.438709
H148	H	1.050694	0.124049	0.061291
N149	N	0.828257	-0.668689	-0.733218
N150	N	1.328257	-0.168689	-0.233218
N151	N	0.770171	-0.661412	-0.725144
N152	N	1.270171	-0.161412	-0.225144
H153	H	0.741112	-0.685131	-0.780458
H154	H	1.241112	-0.185131	-0.280458
N155	N	0.676769	-0.384298	-0.422729
N156	N	1.176769	0.115702	0.077271
N157	N	0.669406	-0.380052	-0.311999
N158	N	1.169406	0.119948	0.188001
H159	H	0.693080	-0.409059	-0.256508
H160	H	1.193080	0.090941	0.243492
N161	N	0.991124	-0.668646	-0.423210
N162	N	1.491124	-0.168646	0.076790
N163	N	1.027070	-0.639282	-0.354733
N164	N	1.527070	-0.139282	0.145267
H165	H	1.056137	-0.662980	-0.299406
H166	H	1.556137	-0.162980	0.200594
H167	H	0.982727	-0.542576	-0.439061
H168	H	1.482727	-0.042576	0.060939
N169	N	0.676984	-0.221741	-0.733670
N170	N	1.176984	0.278259	-0.233670
N171	N	0.647676	-0.185839	-0.802330
N172	N	1.147676	0.314161	-0.302330
H173	H	0.671420	-0.156835	-0.857819
H174	H	1.171420	0.343165	-0.357819
H175	H	0.269329	-0.229991	-0.717775
H176	H	0.769329	0.270009	-0.217775
N177	N	0.143271	-0.221621	-0.733704
N178	N	0.643271	0.278379	-0.233704
N179	N	0.172678	-0.185726	-0.802349
N180	N	0.672678	0.314274	-0.302349
H181	H	0.149013	-0.156700	-0.857820
H182	H	0.649013	0.343300	-0.357820
