data_functionalizedCrystal
_audit_creation_method	'MofGen! by Chris Wilmer'
_symmetry_space_group_name_H-M	'P1'
_symmetry_Int_Tables_number	1
_symmetry_cell_setting	triclinic
loop_
_symmetry_equiv_pos_as_xyz
  x,y,z
_cell_length_a	8.497374
_cell_length_b	29.839135
_cell_length_c	29.839134
_cell_angle_alpha	89.993586
_cell_angle_beta	89.981665
_cell_angle_gamma	90.012002
loop_
_atom_site_label
_atom_site_type_symbol
_atom_site_fract_x
_atom_site_fract_y
_atom_site_fract_z
Zn1	Zn	0.629253	0.254069	-0.686820
Zn2	Zn	0.892967	0.178964	-0.686813
Zn3	Zn	0.629106	0.178951	-0.611710
Zn4	Zn	0.892895	0.254066	-0.611703
O5	O	0.761055	0.216513	-0.649262
O6	O	0.664327	0.244113	-0.749686
O7	O	0.857934	0.116096	-0.676850
O8	O	0.408363	0.188912	-0.621680
O9	O	0.858077	0.188934	-0.749681
O10	O	0.408471	0.244100	-0.676863
O11	O	0.664076	0.116086	-0.621673
O12	O	0.664006	0.188908	-0.548842
O13	O	0.857954	0.316933	-0.621668
O14	O	0.857811	0.244095	-0.548837
O15	O	0.664257	0.316936	-0.676856
O16	O	1.113720	0.188931	-0.676843
O17	O	1.113667	0.244108	-0.621661
C18	C	0.760886	0.216500	-0.532539
C19	C	0.760852	0.216505	-0.482605
C20	C	1.170935	0.216519	-0.649256
C21	C	1.349579	0.216512	-0.649268
C22	C	0.761114	0.333691	-0.649262
C23	C	0.761139	0.383625	-0.649262
C24	C	0.761226	0.216525	-0.766440
C25	C	0.761299	0.216531	-0.816374
C26	C	0.660380	0.245301	-0.126016
C27	C	0.660253	0.245290	-0.313689
O28	O	0.574627	0.269771	-0.337953
N29	N	0.760955	0.216516	-0.337159
C30	C	0.861703	0.187744	-0.313709
O31	O	0.947365	0.163273	-0.337978
C32	C	0.861837	0.187757	-0.126036
C33	C	0.761117	0.216530	-0.102569
C34	C	0.559670	0.274072	-0.102548
C35	C	0.559696	0.274072	-0.055633
C36	C	0.660433	0.245302	-0.032185
C37	C	0.761144	0.216531	-0.055653
C38	C	0.962592	0.158988	-0.102586
C39	C	0.962619	0.158995	-0.055665
C40	C	0.861899	0.187768	-0.032197
C41	C	0.861907	0.187761	0.014710
N42	N	0.761205	0.216535	0.038180
C43	C	0.660468	0.245306	0.014733
C44	C	0.861624	0.187739	-0.412239
C45	C	0.861589	0.187735	-0.459157
C46	C	0.660140	0.245282	-0.459134
C47	C	0.660168	0.245283	-0.412216
C48	C	0.760922	0.216513	-0.388769
C49	C	0.660531	0.245305	0.113258
C50	C	0.660562	0.245301	0.160178
C51	C	0.862016	0.187756	0.160151
C52	C	0.861979	0.187758	0.113236
C53	C	0.761232	0.216535	0.089791
O54	O	0.947501	0.163297	0.039002
O55	O	0.574844	0.269781	0.039010
C56	C	0.660353	0.245300	-0.172932
C57	C	0.761064	0.216529	-0.196399
C58	C	0.861801	0.187759	-0.172952
C59	C	0.761029	0.216525	-0.243317
C60	C	0.660292	0.245296	-0.266765
C61	C	0.559590	0.274070	-0.243295
C62	C	0.559616	0.274071	-0.196379
C63	C	0.962503	0.158984	-0.196422
C64	C	0.962467	0.158986	-0.243338
C65	C	0.861730	0.187756	-0.266785
C66	C	0.660209	0.693273	-0.677997
C67	C	0.660191	0.880946	-0.678001
O68	O	0.574377	0.905214	-0.702423
N69	N	0.761039	0.904410	-0.649269
C70	C	0.861893	0.880954	-0.620533
O71	O	0.947659	0.905218	-0.596091
C72	C	0.861901	0.693282	-0.620527
C73	C	0.761057	0.669819	-0.649264
C74	C	0.559371	0.669811	-0.706731
C75	C	0.559383	0.622895	-0.706732
C76	C	0.660232	0.599442	-0.677999
C77	C	0.761069	0.622904	-0.649265
C78	C	0.962745	0.669826	-0.591789
C79	C	0.962736	0.622905	-0.591789
C80	C	0.861892	0.599443	-0.620526
C81	C	0.861929	0.552535	-0.620532
N82	N	0.761080	0.529071	-0.649263
C83	C	0.660232	0.552524	-0.677997
C84	C	0.861883	0.979484	-0.620538
C85	C	0.861883	1.026402	-0.620540
C86	C	0.660178	1.026391	-0.678008
C87	C	0.660188	0.979472	-0.678008
C88	C	0.761034	0.956020	-0.649270
C89	C	0.660265	0.453998	-0.677996
C90	C	0.660290	0.407079	-0.677996
C91	C	0.861988	0.407094	-0.620526
C92	C	0.861969	0.454009	-0.620528
C93	C	0.761095	0.477460	-0.649265
O94	O	0.947685	0.528238	-0.596118
O95	O	0.574454	0.528252	-0.702427
C96	C	0.660197	0.740188	-0.677997
C97	C	0.761034	0.763650	-0.649263
C98	C	0.861883	0.740197	-0.620529
C99	C	0.761034	0.810568	-0.649265
C100	C	0.660185	0.834022	-0.677998
C101	C	0.559337	0.810557	-0.706730
C102	C	0.559348	0.763642	-0.706730
C103	C	0.962732	0.763661	-0.591798
C104	C	0.962713	0.810577	-0.591800
C105	C	0.861864	0.834030	-0.620533
C106	C	0.761039	1.099790	-0.649262
C107	C	0.761034	1.049856	-0.649273
H108	H	0.578536	0.268732	0.179283
Cl109	Cl	0.988648	0.151589	0.189637
H110	H	1.044671	0.135567	-0.036577
H111	H	0.578069	0.960373	-0.701407
Cl112	Cl	0.988610	0.151589	0.083733
Cl113	Cl	0.432589	0.593407	-0.742857
Cl114	Cl	0.432946	0.310237	-0.272781
Cl115	Cl	0.988678	0.950008	-0.584407
Cl116	Cl	0.432563	0.734154	-0.742858
H117	H	1.044482	0.135551	-0.262441
H118	H	0.578492	0.268738	0.094175
Cl119	Cl	0.988274	0.151560	-0.382770
H120	H	0.477240	0.688902	-0.730130
H121	H	1.044848	0.829676	-0.568400
Cl122	Cl	0.533395	1.055884	-0.714129
H123	H	0.578112	0.268707	-0.478233
Cl124	Cl	1.089535	0.699309	-0.555662
Cl125	Cl	0.988688	1.055891	-0.584419
H126	H	1.044843	0.603812	-0.568382
H127	H	1.044538	0.135556	-0.177336
Cl128	Cl	0.433012	0.310246	-0.132017
Cl129	Cl	1.089526	0.734184	-0.555672
Cl130	Cl	0.988754	0.483505	-0.584404
Cl131	Cl	0.988184	0.151553	-0.488654
H132	H	0.477227	0.829661	-0.730127
Cl133	Cl	0.533507	0.377587	-0.714125
Cl134	Cl	0.533443	0.483472	-0.714120
Cl135	Cl	0.988757	0.377601	-0.584405
Cl136	Cl	0.533548	0.281457	-0.382718
H137	H	0.477599	0.297501	-0.177276
H138	H	0.477686	0.297504	-0.036530
H139	H	1.044609	0.135558	-0.121686
