data_functionalizedCrystal
_audit_creation_method	'MofGen! by Chris Wilmer'
_symmetry_space_group_name_H-M	'P1'
_symmetry_Int_Tables_number	1
_symmetry_cell_setting	triclinic
loop_
_symmetry_equiv_pos_as_xyz
  x,y,z
_cell_length_a	16.109302
_cell_length_b	16.956984
_cell_length_c	14.586319
_cell_angle_alpha	89.995816
_cell_angle_beta	89.994552
_cell_angle_gamma	79.757600
loop_
_atom_site_label
_atom_site_type_symbol
_atom_site_fract_x
_atom_site_fract_y
_atom_site_fract_z
O1	O	1.096115	0.102500	-0.076282
O2	O	0.853180	0.115255	-0.076274
O3	O	0.989242	-0.007205	-0.076272
O4	O	0.960052	0.224960	-0.076284
O5	O	0.989234	-0.007207	0.076209
O6	O	0.853171	0.115253	0.076206
O7	O	1.096106	0.102498	0.076199
Cu8	Cu	0.974638	0.108875	0.090125
Cu9	Cu	0.974648	0.108877	-0.090201
O10	O	0.960043	0.224958	0.076197
C11	C	0.822236	0.114737	-0.000033
C12	C	0.730047	0.113188	-0.000030
C13	C	0.517946	0.109604	0.083078
C14	C	0.431326	0.108140	0.083075
C15	C	0.431346	0.108146	-0.083168
C16	C	0.517965	0.109605	-0.083164
C17	C	0.561262	0.110338	-0.000038
C18	C	0.388023	0.107415	-0.000045
C19	C	0.294106	0.105827	-0.000049
C20	C	0.655186	0.111924	-0.000034
C21	C	0.990733	-0.036915	-0.000032
C22	C	0.995177	-0.125437	-0.000033
C23	C	0.920874	-0.157502	-0.000035
C24	C	0.925055	-0.240678	-0.000033
C25	C	1.003539	-0.291788	-0.000035
C26	C	1.077847	-0.259718	-0.000030
C27	C	1.073665	-0.176543	-0.000026
C28	C	1.024236	-0.541566	-0.000042
C29	C	1.028412	-0.624746	-0.000049
C30	C	0.875619	-0.605700	-0.000049
C31	C	0.871444	-0.522525	-0.000050
C32	C	0.945752	-0.490462	-0.000041
N33	N	1.007814	-0.376808	-0.000035
N34	N	0.941476	-0.405443	-0.000034
C35	C	1.127050	0.103016	-0.000044
C36	C	1.219239	0.104565	-0.000053
C37	C	0.958553	0.254667	-0.000045
C38	C	0.954109	0.343189	-0.000050
N39	N	0.974636	0.108873	0.216957
N40	N	0.974656	0.108873	-0.217033
C41	C	1.034902	0.054666	0.451965
C42	C	1.034905	0.054664	0.547946
C43	C	0.914384	0.163083	0.547953
C44	C	0.914378	0.163080	0.451974
C45	C	0.974642	0.108873	0.403982
C46	C	0.974650	0.108873	0.595943
C47	C	0.974653	0.108872	0.700010
C48	C	0.974639	0.108873	0.299908
H49	H	0.553196	0.110201	0.150765
H50	H	0.856964	-0.115893	-0.000037
H51	H	0.553235	0.110200	-0.150851
H52	H	1.141750	-0.301338	-0.000026
H53	H	0.396062	0.107543	0.150757
C54	C	0.844287	-0.275337	-0.000081
C55	C	0.774659	-0.212775	-0.000107
C56	C	0.700239	-0.244671	-0.000162
H57	H	0.842616	-0.307377	0.053078
H58	H	0.842699	-0.307363	-0.053276
H59	H	0.776246	-0.180763	0.053081
H60	H	0.776302	-0.180729	-0.053263
H61	H	0.698652	-0.276697	-0.053356
H62	H	0.698578	-0.276711	0.052999
H63	H	0.652988	-0.202228	-0.000188
H64	H	1.134171	-0.150437	-0.000023
C65	C	0.795040	-0.640668	-0.000004
C66	C	0.815495	-0.724447	0.000016
C67	C	0.741285	-0.756685	0.000074
H68	H	0.762910	-0.623208	-0.053160
H69	H	0.762961	-0.623174	0.053194
H70	H	0.847561	-0.741934	-0.053176
H71	H	0.847615	-0.741929	0.053169
H72	H	0.709206	-0.739191	0.053272
H73	H	0.709160	-0.739220	-0.053083
H74	H	0.755153	-0.813532	0.000096
H75	H	1.083972	0.010526	0.412892
C76	C	0.848906	0.222027	0.400037
C77	C	0.796149	0.269519	0.462606
C78	C	0.735835	0.323831	0.414795
H79	H	0.816185	0.193422	0.362602
H80	H	0.876505	0.255272	0.362604
H81	H	0.768552	0.236279	0.500023
H82	H	0.828845	0.298141	0.500043
H83	H	0.763433	0.357076	0.377363
H84	H	0.703120	0.295220	0.377362
H85	H	0.700037	0.356066	0.457241
C86	C	1.105006	-0.506916	-0.000081
C87	C	1.174631	-0.569480	-0.000110
C88	C	1.249053	-0.537589	-0.000156
H89	H	1.106668	-0.474885	0.053083
H90	H	1.106605	-0.474881	-0.053271
H91	H	1.173032	-0.601502	0.053075
H92	H	1.172996	-0.601516	-0.053269
H93	H	1.250653	-0.505554	-0.053347
H94	H	1.250707	-0.505558	0.053008
H95	H	1.296302	-0.580033	-0.000185
C96	C	1.100429	-0.004224	0.599876
C97	C	1.153212	-0.051680	0.537299
C98	C	1.213591	-0.105932	0.585103
H99	H	1.072911	-0.037504	0.637328
H100	H	1.133111	0.024452	0.637290
H101	H	1.120534	-0.080354	0.499901
H102	H	1.180750	-0.018422	0.499845
H103	H	1.246274	-0.077256	0.622517
H104	H	1.186066	-0.139208	0.622553
H105	H	1.249417	-0.138133	0.542652
C106	C	0.849059	0.221905	0.600227
C107	C	0.861975	0.210322	0.694552
C108	C	0.801821	0.264505	0.742732
H109	H	0.794127	0.213284	0.584621
H110	H	0.854436	0.275143	0.584540
H111	H	0.856591	0.157097	0.710233
H112	H	0.916894	0.218950	0.710185
H113	H	0.807198	0.317743	0.727045
H114	H	0.746894	0.255879	0.727119
H115	H	0.810582	0.256658	0.806737
H116	H	0.807534	-0.480916	-0.000051
H117	H	1.092326	-0.666359	-0.000057
C118	C	0.384176	0.107396	-0.173319
C119	C	0.299042	0.105986	-0.155536
C120	C	0.255563	0.105308	-0.238562
H121	H	0.407807	0.061175	-0.207540
H122	H	0.388790	0.154128	-0.207478
H123	H	0.294432	0.059258	-0.121392
H124	H	0.275387	0.152203	-0.121328
H125	H	0.260177	0.152040	-0.272721
H126	H	0.279200	0.059086	-0.272777
H127	H	0.197794	0.104358	-0.226508
