data_functionalizedCrystal
_audit_creation_method	'MofGen! by Chris Wilmer'
_symmetry_space_group_name_H-M	'P1'
_symmetry_Int_Tables_number	1
_symmetry_cell_setting	triclinic
loop_
_symmetry_equiv_pos_as_xyz
  x,y,z
_cell_length_a	11.792254
_cell_length_b	11.792241
_cell_length_c	7.540329
_cell_angle_alpha	89.996256
_cell_angle_beta	89.997091
_cell_angle_gamma	84.196007
loop_
_atom_site_label
_atom_site_type_symbol
_atom_site_fract_x
_atom_site_fract_y
_atom_site_fract_z
O1	O	1.506898	0.155635	-0.147482
O2	O	1.840231	0.488968	0.185852
O3	O	2.173564	0.822301	0.519185
O4	O	1.176559	0.171653	-0.147486
O5	O	1.509892	0.504986	0.185848
O6	O	1.843225	0.838319	0.519181
O7	O	1.349745	-0.001527	-0.147471
O8	O	1.683078	0.331807	0.185862
O9	O	2.016411	0.665140	0.519196
O10	O	1.333712	0.328814	-0.147496
O11	O	1.667045	0.662147	0.185837
O12	O	2.000378	0.995480	0.519170
O13	O	1.349734	-0.001529	0.147494
O14	O	1.683068	0.331805	0.480827
O15	O	2.016401	0.665138	0.814161
O16	O	1.176548	0.171650	0.147479
O17	O	1.509882	0.504984	0.480813
O18	O	1.843215	0.838317	0.814146
O19	O	1.506887	0.155632	0.147483
O20	O	1.840221	0.488966	0.480817
O21	O	2.173554	0.822299	0.814150
Cu22	Cu	1.341717	0.163641	0.174414
Cu23	Cu	1.675050	0.496975	0.507747
Cu24	Cu	2.008384	0.830308	0.841081
Cu25	Cu	1.341729	0.163644	-0.174416
Cu26	Cu	1.675063	0.496977	0.158917
Cu27	Cu	2.008396	0.830310	0.492250
O28	O	1.333701	0.328812	0.147469
O29	O	1.667035	0.662145	0.480802
O30	O	2.000368	0.995478	0.814136
C31	C	1.134263	0.170642	-0.000004
C32	C	1.467596	0.503976	0.333330
C33	C	1.800929	0.837309	0.666663
C34	C	1.008250	0.167622	-0.000005
C35	C	1.341583	0.500956	0.333329
C36	C	1.674916	0.834289	0.666662
C37	C	0.905913	0.165168	-0.000012
C38	C	1.239247	0.498502	0.333321
C39	C	1.572580	0.831835	0.666655
C40	C	0.777527	0.162100	-0.000013
C41	C	1.110860	0.495433	0.333320
C42	C	1.444193	0.828767	0.666654
C43	C	1.348732	-0.043819	0.000011
C44	C	1.682066	0.289515	0.333344
C45	C	2.015399	0.622848	0.666677
C46	C	1.345718	-0.169832	0.000009
C47	C	1.679051	0.163501	0.333342
C48	C	2.012385	0.496834	0.666676
C49	C	1.340175	-0.400545	-0.000021
C50	C	1.673508	-0.067212	0.333313
C51	C	2.006842	0.266122	0.666646
C52	C	1.343255	-0.272160	-0.000004
C53	C	1.676588	0.061174	0.333329
C54	C	2.009921	0.394507	0.666662
C55	C	1.549183	0.156643	-0.000003
C56	C	1.882517	0.489976	0.333331
C57	C	2.215850	0.823309	0.666664
C58	C	1.675196	0.159663	-0.000013
C59	C	2.008530	0.492996	0.333320
C60	C	2.341863	0.826329	0.666654
C61	C	1.334714	0.371104	-0.000017
C62	C	1.668047	0.704437	0.333316
C63	C	2.001380	1.037770	0.666650
C64	C	1.337728	0.497118	-0.000027
C65	C	1.671061	0.830451	0.333306
C66	C	2.004395	1.163784	0.666640
N67	N	1.341717	0.163639	0.419763
N68	N	1.675050	0.496972	0.753096
N69	N	2.008383	0.830305	1.086429
N70	N	1.341738	0.163637	-0.419765
N71	N	1.675072	0.496971	-0.086431
N72	N	2.008405	0.830304	0.246902
