data_functionalizedCrystal
_audit_creation_method	'MofGen! by Chris Wilmer'
_symmetry_space_group_name_H-M	'P1'
_symmetry_Int_Tables_number	1
_symmetry_cell_setting	triclinic
loop_
_symmetry_equiv_pos_as_xyz
  x,y,z
_cell_length_a	15.944551
_cell_length_b	10.654550
_cell_length_c	9.130313
_cell_angle_alpha	89.998468
_cell_angle_beta	89.995744
_cell_angle_gamma	96.008179
loop_
_atom_site_label
_atom_site_type_symbol
_atom_site_fract_x
_atom_site_fract_y
_atom_site_fract_z
O1	O	-1.115457	0.161961	-0.121647
O2	O	-0.871023	0.181929	-0.121684
O3	O	-0.998860	-0.010867	-0.121654
O4	O	-0.987620	0.354757	-0.121677
O5	O	-0.998858	-0.010862	0.121945
O6	O	-0.871021	0.181935	0.121915
O7	O	-1.115455	0.161966	0.121951
Cu8	Cu	-0.993238	0.171951	0.144176
Cu9	Cu	-0.993240	0.171945	-0.143908
O10	O	-0.987618	0.354762	0.121922
C11	C	-0.839723	0.181103	0.000111
C12	C	-0.746463	0.178618	0.000097
C13	C	-0.998034	-0.057652	0.000145
C14	C	-0.995565	-0.197063	0.000143
C15	C	-1.146755	0.162792	0.000153
C16	C	-1.240015	0.165278	0.000157
C17	C	-0.530880	0.053173	0.000134
C18	C	-0.470198	0.111423	-0.119977
C19	C	-0.575711	0.174122	0.000115
C20	C	-0.470219	0.111457	0.120192
C21	C	-0.410773	0.169770	0.000138
C22	C	-0.516257	0.232405	-0.120095
C23	C	-0.516284	0.232421	0.120182
C24	C	-0.455620	0.290759	0.000042
C25	C	-0.670728	0.176625	0.000100
C26	C	-0.315757	0.167276	0.000142
C27	C	-0.988444	0.401547	0.000119
C28	C	-0.990913	0.540958	0.000111
N29	N	-0.993243	0.171954	0.346798
C30	C	-0.915645	0.621418	0.000114
C31	C	-0.917970	0.752409	0.000125
C32	C	-1.070839	0.722467	0.000136
C33	C	-1.068513	0.591479	0.000115
C34	C	-0.827387	0.638705	0.000114
C35	C	-0.829713	0.769696	0.000124
N36	N	-0.993242	0.171931	-0.346531
C37	C	-1.049864	0.086613	0.423463
C38	C	-1.049861	0.086598	0.576800
C39	C	-0.936615	0.257277	0.576793
C40	C	-0.936614	0.257285	0.423459
C41	C	-1.115248	-0.011924	0.423469
C42	C	-1.115246	-0.011939	0.576806
H43	H	-0.563632	-0.047204	-0.000009
C44	C	-0.442681	0.042336	0.257369
H45	H	-0.405331	0.098296	0.313930
H46	H	-0.490902	0.014311	0.314300
H47	H	-0.414805	-0.028243	0.228492
H48	H	-1.100907	-0.108271	0.381852
H49	H	-0.423043	0.391240	-0.000031
C50	C	-1.197632	0.028318	0.359219
H51	H	-1.234322	0.046227	0.436713
H52	H	-1.185252	0.101611	0.300656
H53	H	-1.224157	-0.038075	0.300666
H54	H	-0.792866	0.609810	-0.101834
C55	C	-1.087679	-0.134806	0.641060
H56	H	-1.088611	-0.130619	0.744977
H57	H	-1.125255	-0.204438	0.608938
H58	H	-1.032151	-0.145143	0.608923
C59	C	-0.543890	0.301470	0.257354
H60	H	-0.528299	0.258376	0.342618
H61	H	-0.517080	0.385396	0.258212
H62	H	-0.603333	0.303206	0.255874
H63	H	-0.803044	0.815700	-0.105055
H64	H	-1.179794	0.008744	0.618430
H65	H	-0.796463	0.811869	0.102074
H66	H	-0.449792	0.060264	-0.221516
C67	C	-0.874326	0.351152	0.339132
H68	H	-0.840607	0.401975	0.406753
H69	H	-0.839105	0.305940	0.279309
H70	H	-0.904843	0.403474	0.279325
C71	C	-1.151307	0.502977	0.000101
H72	H	-1.197853	0.551830	0.000121
H73	H	-1.153574	0.451267	-0.084853
H74	H	-1.153581	0.451247	0.085054
H75	H	-0.536541	0.283520	-0.221750
C76	C	-1.156191	0.778045	0.000155
H77	H	-1.146797	0.867581	0.000176
H78	H	-1.187217	0.750437	-0.084790
H79	H	-1.187211	0.750418	0.085117
C80	C	-0.789416	0.591036	0.142179
H81	H	-0.774112	0.660451	0.205455
H82	H	-0.829901	0.532897	0.189382
H83	H	-0.740797	0.550366	0.119341
C84	C	-0.874333	0.351139	0.661125
H85	H	-0.882445	0.338918	0.763426
H86	H	-0.818198	0.337450	0.635985
H87	H	-0.883945	0.434969	0.636003
