data_functionalizedCrystal
_audit_creation_method	'MofGen! by Chris Wilmer'
_symmetry_space_group_name_H-M	'P1'
_symmetry_Int_Tables_number	1
_symmetry_cell_setting	triclinic
loop_
_symmetry_equiv_pos_as_xyz
  x,y,z
_cell_length_a	23.532407
_cell_length_b	19.188930
_cell_length_c	18.266242
_cell_angle_alpha	90.011475
_cell_angle_beta	90.003702
_cell_angle_gamma	82.996730
loop_
_atom_site_label
_atom_site_type_symbol
_atom_site_fract_x
_atom_site_fract_y
_atom_site_fract_z
O1	O	-0.755443	-0.084758	-0.060798
O2	O	-0.255443	0.415242	0.439202
O3	O	-0.589606	-0.097021	-0.060820
O4	O	-0.089606	0.402979	0.439180
O5	O	-0.677310	0.010782	-0.060794
O6	O	-0.177310	0.510782	0.439206
O7	O	-0.667739	-0.192560	-0.060824
O8	O	-0.167739	0.307440	0.439176
O9	O	-0.677295	0.010787	0.060968
O10	O	-0.177295	0.510787	0.560968
O11	O	-0.589591	-0.097016	0.060942
O12	O	-0.089591	0.402984	0.560942
O13	O	-0.755428	-0.084752	0.060964
O14	O	-0.255428	0.415248	0.560964
Zn15	Zn	-0.672507	-0.090883	0.080285
Zn16	Zn	-0.172507	0.409117	0.580285
Zn17	Zn	-0.672527	-0.090890	-0.080141
Zn18	Zn	-0.172527	0.409110	0.419859
O19	O	-0.667724	-0.192555	0.060938
O20	O	-0.167724	0.307445	0.560938
C21	C	-0.676993	0.036794	0.000089
C22	C	-0.176993	0.536794	0.500089
C23	C	-0.676062	0.114296	0.000095
C24	C	-0.176062	0.614296	0.500095
C25	C	-0.568382	-0.096706	0.000058
C26	C	-0.068382	0.403294	0.500058
C27	C	-0.505163	-0.095767	0.000050
C28	C	-0.005163	0.404233	0.500050
C29	C	-0.776652	-0.085067	0.000084
C30	C	-0.276652	0.414933	0.500084
C31	C	-0.839871	-0.086006	0.000088
C32	C	-0.339871	0.413994	0.500088
C33	C	-0.106183	-0.153674	0.000075
C34	C	0.393817	0.346326	0.500075
C35	C	-0.046780	-0.152801	0.000079
C36	C	0.453220	0.347199	0.500079
O37	O	-0.010150	-0.206481	0.000098
O38	O	0.489850	0.293519	0.500098
N39	N	-0.024018	-0.088713	0.000087
N40	N	0.475982	0.411287	0.500087
C41	C	-0.060662	-0.025492	0.000098
C42	C	0.439338	0.474508	0.500098
O43	O	-0.035846	0.029100	0.000107
O44	O	0.464154	0.529100	0.500107
C45	C	-0.120062	-0.026365	0.000099
C46	C	0.379938	0.473635	0.500099
C47	C	-0.142821	-0.090458	0.000083
C48	C	0.357179	0.409542	0.500083
C49	C	-0.128942	-0.217761	0.000060
C50	C	0.371058	0.282239	0.500060
C51	C	-0.188340	-0.218633	0.000054
C52	C	0.311660	0.281367	0.500054
C53	C	-0.224979	-0.155417	0.000063
C54	C	0.275021	0.344583	0.500063
C55	C	-0.202219	-0.091330	0.000078
C56	C	0.297781	0.408670	0.500078
C57	C	-0.156705	0.036855	0.000115
C58	C	0.343295	0.536855	0.500115
C59	C	-0.216109	0.035976	0.000117
C60	C	0.283891	0.535976	0.500117
C61	C	-0.238868	-0.028116	0.000101
C62	C	0.261132	0.471884	0.500101
C63	C	-0.298256	-0.028986	0.000080
C64	C	0.201744	0.471014	0.500080
N65	N	-0.321018	-0.093075	0.000072
N66	N	0.178982	0.406925	0.500072
C67	C	-0.284379	-0.156290	0.000063
C68	C	0.215621	0.343710	0.500063
C69	C	0.064085	-0.023664	0.000098
C70	C	0.564085	0.476336	0.500098
C71	C	0.123485	-0.022790	0.000093
C72	C	0.623485	0.477210	0.500093
C73	C	0.137362	-0.150099	0.000075
C74	C	0.637362	0.349901	0.500075
C75	C	0.077961	-0.150972	0.000075
C76	C	0.577961	0.349028	0.500075
C77	C	0.041323	-0.087752	0.000090
C78	C	0.541323	0.412248	0.500090
C79	C	-0.409120	-0.158117	0.000050
C80	C	0.090880	0.341883	0.500050
C81	C	-0.468524	-0.158983	0.000041
C82	C	0.031476	0.341017	0.500041
C83	C	-0.482396	-0.031674	0.000063
C84	C	0.017604	0.468326	0.500063
C85	C	-0.422997	-0.030807	0.000068
C86	C	0.077003	0.469193	0.500068
C87	C	-0.386360	-0.094034	0.000064
C88	C	0.113640	0.405966	0.500064
O89	O	-0.334921	0.024666	0.000065
O90	O	0.165079	0.524666	0.500065
O91	O	-0.309203	-0.210874	0.000065
O92	O	0.190797	0.289126	0.500065
C93	C	-0.668041	-0.218568	0.000053
C94	C	-0.168041	0.281432	0.500053
C95	C	-0.668972	-0.296069	0.000042
C96	C	-0.168972	0.203931	0.500042
N97	N	-0.672498	-0.090878	0.189772
N98	N	-0.172498	0.409122	0.689772
C99	C	-0.727524	0.159384	0.000106
C100	C	-0.227524	0.659384	0.500106
C101	C	-0.726650	0.232205	0.000094
C102	C	-0.226650	0.732205	0.500094
C103	C	-0.674311	0.259935	0.000086
C104	C	-0.174311	0.759935	0.500086
C105	C	-0.622842	0.214837	0.000072
C106	C	-0.122842	0.714837	0.500072
C107	C	-0.623718	0.142017	0.000076
C108	C	-0.123718	0.642017	0.500076
N109	N	-0.634299	0.367814	0.041519
N110	N	-0.134299	0.867814	0.541519
N111	N	-0.633471	0.436990	0.041516
N112	N	-0.133471	0.936990	0.541516
C113	C	-0.671670	0.479335	0.000071
C114	C	-0.171670	0.979335	0.500071
N115	N	-0.710737	0.449892	-0.041362
N116	N	-0.210737	0.949892	0.458638
N117	N	-0.711567	0.380710	-0.041356
N118	N	-0.211567	0.880710	0.458644
C119	C	-0.673356	0.338894	0.000081
C120	C	-0.173356	0.838894	0.500081
C121	C	-0.722188	0.603384	0.000068
C122	C	-0.222188	1.103384	0.500068
C123	C	-0.721311	0.676206	0.000051
C124	C	-0.221311	1.176206	0.500051
C125	C	-0.617502	0.658836	0.000036
C126	C	-0.117502	1.158836	0.500036
C127	C	-0.618380	0.586016	0.000045
C128	C	-0.118380	1.086016	0.500045
C129	C	-0.670724	0.558295	0.000064
C130	C	-0.170724	1.058295	0.500064
N131	N	-0.672541	-0.090890	-0.189628
N132	N	-0.172541	0.409110	0.310372
C133	C	-0.711346	-0.043166	0.228093
C134	C	-0.211346	0.456834	0.728093
C135	C	-0.711350	-0.043163	0.304738
C136	C	-0.211350	0.456837	0.804738
C137	C	-0.672511	-0.090883	0.343059
C138	C	-0.172511	0.409117	0.843059
C139	C	-0.633655	-0.138599	0.304729
C140	C	-0.133655	0.361401	0.804729
C141	C	-0.633649	-0.138596	0.228086
C142	C	-0.133649	0.361404	0.728086
N143	N	-0.665108	-0.152714	0.463382
N144	N	-0.165108	0.347286	0.963382
N145	N	-0.665117	-0.152715	0.536190
N146	N	-0.165117	0.347285	1.036190
C147	C	-0.672527	-0.090893	0.573982
C148	C	-0.172527	0.409107	1.073982
N149	N	-0.679937	-0.029069	0.536215
N150	N	-0.179937	0.470931	1.036215
N151	N	-0.679931	-0.029069	0.463400
N152	N	-0.179931	0.470931	0.963400
C153	C	-0.672513	-0.090891	0.426166
C154	C	-0.172513	0.409109	0.926166
C155	C	-0.711381	-0.043174	0.695409
C156	C	-0.211381	0.456826	1.195409
C157	C	-0.711381	-0.043170	0.772056
C158	C	-0.211381	0.456830	1.272056
C159	C	-0.633689	-0.138612	0.772046
C160	C	-0.133689	0.361388	1.272046
C161	C	-0.633686	-0.138610	0.695401
C162	C	-0.133686	0.361390	1.195401
C163	C	-0.672536	-0.090892	0.657087
C164	C	-0.172536	0.409108	1.157087
H165	H	-0.487050	-0.211177	0.000028
H166	H	0.012950	0.288823	0.500028
O167	O	-0.753243	0.008309	0.186775
O168	O	-0.253243	0.508309	0.686775
H169	H	-0.780847	-0.020907	0.151845
H170	H	-0.280847	0.479093	0.651845
O171	O	-0.591741	-0.190056	0.186753
O172	O	-0.091741	0.309944	0.686753
H173	H	-0.598259	-0.182032	0.127021
H174	H	-0.098259	0.317968	0.627021
H175	H	-0.602031	-0.177452	0.335935
H176	H	-0.102031	0.322548	0.835935
O177	O	-0.753291	0.008289	0.813386
O178	O	-0.253291	0.508289	1.313386
H179	H	-0.746185	0.062678	0.798685
H180	H	-0.246185	0.562678	1.298685
H181	H	-0.138185	0.089046	0.000129
H182	H	0.361815	0.589046	0.500129
H183	H	-0.580227	0.237419	0.000064
H184	H	-0.080227	0.737419	0.500064
O185	O	-0.561049	0.688734	0.000034
O186	O	-0.061049	1.188734	0.500034
H187	H	-0.558172	0.721489	-0.049594
H188	H	-0.058172	1.221489	0.450406
H189	H	-0.768558	0.268923	0.000100
H190	H	-0.268558	0.768923	0.500100
H191	H	0.034257	0.027821	0.000104
H192	H	0.534257	0.527821	0.500104
H193	H	-0.245938	0.087459	0.000129
H194	H	0.254062	0.587459	0.500129
O195	O	-0.568211	0.093379	0.000077
O196	O	-0.068211	0.593379	0.500077
H197	H	-0.531667	0.124891	0.000075
H198	H	-0.031667	0.624891	0.500075
O199	O	-0.521923	0.036503	0.000079
O200	O	-0.021923	0.536503	0.500079
H201	H	-0.513863	0.067199	-0.049543
H202	H	-0.013863	0.567199	0.450457
H203	H	-0.404466	0.021383	0.000070
H204	H	0.095534	0.521383	0.500070
H205	H	-0.743013	-0.004317	0.664213
H206	H	-0.243013	0.495683	1.164213
H207	H	-0.602055	-0.177464	0.664198
H208	H	-0.102055	0.322536	1.164198
O209	O	-0.783979	0.129482	0.000106
O210	O	-0.283979	0.629482	0.500106
H211	H	-0.819617	0.173074	0.000101
H212	H	-0.319617	0.673074	0.500101
O213	O	-0.562871	0.537383	0.000042
O214	O	-0.062871	1.037383	0.500042
H215	H	-0.572273	0.482089	0.000041
H216	H	-0.072273	0.982089	0.500041
O217	O	0.176886	-0.218285	0.000071
O218	O	0.676886	0.281715	0.500071
H219	H	0.168812	-0.248972	0.049694
H220	H	0.668812	0.251028	0.549694
H221	H	-0.764810	0.580813	0.000080
H222	H	-0.264810	1.080813	0.500080
H223	H	-0.763220	0.712917	0.000056
H224	H	-0.263220	1.212917	0.500056
H225	H	-0.742986	-0.004308	0.335944
H226	H	-0.242986	0.495692	0.835944
H227	H	-0.602063	-0.177464	0.803247
H228	H	-0.102063	0.322536	1.303247
O229	O	-0.369607	-0.226308	0.000045
O230	O	0.130393	0.273692	0.500045
H231	H	-0.377681	-0.256994	-0.049594
H232	H	0.122319	0.243006	0.450406
O233	O	-0.212878	-0.287765	0.000058
O234	O	0.287122	0.212235	0.500058
H235	H	-0.198144	-0.318132	-0.049566
H236	H	0.301856	0.181868	0.450434
O237	O	-0.089428	-0.285949	0.000047
O238	O	0.410572	0.214051	0.500047
H239	H	-0.115244	-0.330653	0.000032
H240	H	0.384756	0.169347	0.500032
O241	O	0.148030	0.046338	0.000108
O242	O	0.648030	0.546338	0.500108
H243	H	0.112568	0.090145	0.000120
H244	H	0.612568	0.590145	0.500120
H245	H	0.059435	-0.203162	0.000067
H246	H	0.559435	0.296838	0.500067
