data_functionalizedCrystal
_audit_creation_method	'MofGen! by Chris Wilmer'
_symmetry_space_group_name_H-M	'P1'
_symmetry_Int_Tables_number	1
_symmetry_cell_setting	triclinic
loop_
_symmetry_equiv_pos_as_xyz
  x,y,z
_cell_length_a	29.839131
_cell_length_b	19.805407
_cell_length_c	29.839125
_cell_angle_alpha	90.013198
_cell_angle_beta	89.974637
_cell_angle_gamma	89.964772
loop_
_atom_site_label
_atom_site_type_symbol
_atom_site_fract_x
_atom_site_fract_y
_atom_site_fract_z
Zn1	Zn	-0.178916	-1.034652	-0.253996
Zn2	Zn	0.321084	-0.534652	0.246004
Zn3	Zn	-0.254028	-1.034562	-0.178856
Zn4	Zn	0.245972	-0.534562	0.321144
Zn5	Zn	-0.178913	-0.921479	-0.178877
Zn6	Zn	0.321087	-0.421479	0.321123
Zn7	Zn	-0.254020	-0.921412	-0.253956
Zn8	Zn	0.245980	-0.421412	0.246044
O9	O	-0.216469	-0.978026	-0.216421
O10	O	0.283531	-0.478026	0.283579
O11	O	-0.188885	-1.129356	-0.244036
O12	O	0.311115	-0.629356	0.255964
O13	O	-0.244066	-1.019551	-0.115991
O14	O	0.255934	-0.519551	0.384009
O15	O	-0.116046	-0.936557	-0.188867
O16	O	0.383954	-0.436557	0.311133
O17	O	-0.244069	-1.129290	-0.188831
O18	O	0.255931	-0.629290	0.311169
O19	O	-0.116049	-1.019704	-0.244057
O20	O	0.383951	-0.519704	0.255943
O21	O	-0.188880	-0.936470	-0.116007
O22	O	0.311120	-0.436470	0.383993
O23	O	-0.188871	-0.826753	-0.188828
O24	O	0.311129	-0.326753	0.311172
O25	O	-0.244055	-0.936444	-0.316828
O26	O	0.255945	-0.436444	0.183172
O27	O	-0.244052	-0.826705	-0.243988
O28	O	0.255948	-0.326705	0.256012
O29	O	-0.188877	-1.019640	-0.316858
O30	O	0.311123	-0.519640	0.183142
O31	O	-0.316894	-1.019487	-0.188792
O32	O	0.183106	-0.519487	0.311208
O33	O	-0.316888	-0.936356	-0.243968
O34	O	0.183112	-0.436356	0.256032
C35	C	-0.216461	-0.802170	-0.216407
C36	C	0.283539	-0.302170	0.283593
C37	C	-0.216468	-0.726938	-0.216411
C38	C	0.283532	-0.226938	0.283589
C39	C	-0.333192	-0.977923	-0.216383
C40	C	0.166808	-0.477923	0.283617
C41	C	-0.383126	-0.977941	-0.216382
C42	C	0.116874	-0.477941	0.283618
C43	C	-0.216465	-0.978044	-0.333599
C44	C	0.283535	-0.478044	0.166401
C45	C	-0.216464	-0.978052	-0.383534
C46	C	0.283536	-0.478052	0.116466
C47	C	-0.692736	-1.021312	-0.245199
C48	C	-0.192736	-0.521312	0.254801
C49	C	-0.880409	-1.021385	-0.245226
C50	C	-0.380409	-0.521385	0.254774
O51	O	-0.904645	-1.058159	-0.269700
O52	O	-0.404645	-0.558159	0.230300
N53	N	-0.903912	-0.978141	-0.216471
N54	N	-0.403912	-0.478141	0.283529
C55	C	-0.880493	-0.934872	-0.187709
C56	C	-0.380493	-0.434872	0.312291
O57	O	-0.904789	-0.898088	-0.163255
O58	O	-0.404789	-0.398088	0.336745
C59	C	-0.692821	-0.934796	-0.187685
C60	C	-0.192821	-0.434796	0.312315
C61	C	-0.669321	-0.978048	-0.216439
C62	C	-0.169321	-0.478048	0.283561
C63	C	-0.669236	-1.064559	-0.273951
C64	C	-0.169236	-0.564559	0.226049
C65	C	-0.622321	-1.064543	-0.273942
C66	C	-0.122321	-0.564543	0.226058
C67	C	-0.598905	-1.021279	-0.245182
C68	C	-0.098905	-0.521279	0.254818
C69	C	-0.622405	-0.978032	-0.216430
C70	C	-0.122405	-0.478032	0.283570
C71	C	-0.669403	-0.891525	-0.158925
C72	C	-0.169403	-0.391525	0.341075
C73	C	-0.622482	-0.891508	-0.158922
C74	C	-0.122482	-0.391508	0.341078
C75	C	-0.598982	-0.934760	-0.187676
C76	C	-0.098982	-0.434760	0.312324
C77	C	-0.552074	-0.934752	-0.187660
C78	C	-0.052074	-0.434752	0.312340
N79	N	-0.528572	-0.977996	-0.216416
N80	N	-0.028572	-0.477996	0.283584
C81	C	-0.551987	-1.021259	-0.245176
C82	C	-0.051987	-0.521259	0.254824
C83	C	-0.979023	-0.934917	-0.187723
C84	C	-0.479023	-0.434917	0.312277
C85	C	-1.025941	-0.934936	-0.187729
C86	C	-0.525941	-0.434936	0.312271
C87	C	-1.025854	-1.021448	-0.245247
C88	C	-0.525854	-0.521448	0.254753
C89	C	-0.978936	-1.021431	-0.245239
C90	C	-0.478936	-0.521431	0.254761
C91	C	-0.955521	-0.978161	-0.216478
C92	C	-0.455521	-0.478161	0.283522
C93	C	-0.453462	-1.021222	-0.245155
C94	C	0.046538	-0.521222	0.254845
C95	C	-0.406542	-1.021204	-0.245143
C96	C	0.093458	-0.521204	0.254857
C97	C	-0.406633	-0.934690	-0.187627
C98	C	0.093367	-0.434690	0.312373
C99	C	-0.453548	-0.934711	-0.187637
C100	C	0.046452	-0.434711	0.312363
C101	C	-0.476962	-0.977979	-0.216405
C102	C	0.023038	-0.477979	0.283595
O103	O	-0.527809	-0.897991	-0.163203
O104	O	-0.027809	-0.397991	0.336797
O105	O	-0.527683	-1.058028	-0.269634
O106	O	-0.027683	-0.558028	0.230366
C107	C	-0.739652	-1.021328	-0.245208
C108	C	-0.239652	-0.521328	0.254792
C109	C	-0.763152	-0.978080	-0.216456
C110	C	-0.263152	-0.478080	0.283544
C111	C	-0.739736	-0.934816	-0.187695
C112	C	-0.239736	-0.434816	0.312305
C113	C	-0.810069	-0.978100	-0.216461
C114	C	-0.310069	-0.478100	0.283539
C115	C	-0.833485	-1.021364	-0.245222
C116	C	-0.333485	-0.521364	0.254778
C117	C	-0.809983	-1.064608	-0.273978
C118	C	-0.309983	-0.564608	0.226022
C119	C	-0.763067	-1.064592	-0.273969
C120	C	-0.263067	-0.564592	0.226031
C121	C	-0.763238	-0.891572	-0.158940
C122	C	-0.263238	-0.391572	0.341060
C123	C	-0.810154	-0.891593	-0.158951
C124	C	-0.310154	-0.391593	0.341049
C125	C	-0.833569	-0.934856	-0.187712
C126	C	-0.333569	-0.434856	0.312288
C127	C	-0.099291	-0.978148	-0.216469
C128	C	0.400709	-0.478148	0.283531
C129	C	-0.049357	-0.978200	-0.216489
C130	C	0.450643	-0.478200	0.283511
C131	C	-0.216478	-1.154569	-0.216436
C132	C	0.283522	-0.654569	0.283564
C133	C	-0.216482	-1.229801	-0.216442
C134	C	0.283518	-0.729801	0.283558
C135	C	-0.245244	-0.691586	-0.245086
C136	C	0.254756	-0.191586	0.254914
C137	C	-0.245245	-0.620898	-0.245093
C138	C	0.254755	-0.120898	0.254907
C139	C	-0.216472	-0.585562	-0.216421
C140	C	0.283528	-0.085562	0.283579
C141	C	-0.187693	-0.620919	-0.187745
C142	C	0.312307	-0.120919	0.312255
C143	C	-0.187690	-0.691606	-0.187741
C144	C	0.312310	-0.191606	0.312259
C145	C	-0.187702	-0.335846	-0.187759
C146	C	0.312298	0.164154	0.312241
C147	C	-0.187708	-0.265154	-0.187764
C148	C	0.312292	0.234846	0.312236
C149	C	-0.245257	-0.265137	-0.245111
C150	C	0.254743	0.234863	0.254889
C151	C	-0.245255	-0.335824	-0.245108
C152	C	0.254745	0.164176	0.254892
C153	C	-0.216474	-0.371175	-0.216433
C154	C	0.283526	0.128825	0.283567
C155	C	-0.216473	-0.447824	-0.216427
C156	C	0.283527	0.052176	0.283573
C157	C	-0.216475	-0.508915	-0.216424
C158	C	0.283525	-0.008915	0.283576
C159	C	-0.187657	-1.021418	-0.693196
C160	C	0.312343	-0.521418	-0.193196
C161	C	-0.187619	-1.021452	-0.880869
C162	C	0.312381	-0.521452	-0.380869
O163	O	-0.163169	-1.058273	-0.905149
O164	O	0.336831	-0.558273	-0.405149
N165	N	-0.216343	-0.978142	-0.904319
N166	N	0.283657	-0.478142	-0.404319
C167	C	-0.245078	-0.934818	-0.880848
C168	C	0.254922	-0.434818	-0.380848
O169	O	-0.269505	-0.897976	-0.905101
O170	O	0.230495	-0.397976	-0.405101
C171	C	-0.245113	-0.934781	-0.693176
C172	C	0.254887	-0.434781	-0.193176
C173	C	-0.216390	-0.978099	-0.669728
C174	C	0.283610	-0.478099	-0.169728
C175	C	-0.158936	-1.064731	-0.669748
C176	C	0.341064	-0.564731	-0.169748
C177	C	-0.158947	-1.064725	-0.622832
C178	C	0.341053	-0.564725	-0.122832
C179	C	-0.187680	-1.021406	-0.599365
C180	C	0.312320	-0.521406	-0.099365
C181	C	-0.216402	-0.978092	-0.622813
C182	C	0.283598	-0.478092	-0.122813
C183	C	-0.273845	-0.891454	-0.669706
C184	C	0.226155	-0.391454	-0.169706
C185	C	-0.273850	-0.891447	-0.622785
C186	C	0.226150	-0.391447	-0.122785
C187	C	-0.245127	-0.934765	-0.599337
C188	C	0.254873	-0.434765	-0.099337
C189	C	-0.245146	-0.934766	-0.552430
C190	C	0.254854	-0.434766	-0.052430
N191	N	-0.216421	-0.978076	-0.528979
N192	N	0.283579	-0.478076	-0.028979
C193	C	-0.187689	-1.021396	-0.552447
C194	C	0.312311	-0.521396	-0.052447
C195	C	-0.245057	-0.934841	-0.979379
C196	C	0.254943	-0.434841	-0.479379
C197	C	-0.245049	-0.934851	-1.026297
C198	C	0.254951	-0.434851	-0.526297
C199	C	-0.187590	-1.021484	-1.026314
C200	C	0.312410	-0.521484	-0.526314
C201	C	-0.187601	-1.021477	-0.979396
C202	C	0.312399	-0.521477	-0.479396
C203	C	-0.216333	-0.978150	-0.955929
C204	C	0.283667	-0.478150	-0.455929
C205	C	-0.187715	-1.021380	-0.453921
C206	C	0.312285	-0.521380	0.046079
C207	C	-0.187731	-1.021372	-0.407002
C208	C	0.312269	-0.521372	0.092998
C209	C	-0.245188	-0.934736	-0.406988
C210	C	0.254812	-0.434736	0.093012
C211	C	-0.245175	-0.934746	-0.453904
C212	C	0.254825	-0.434746	0.046096
C213	C	-0.216435	-0.978071	-0.477369
C214	C	0.283565	-0.478071	0.022631
O215	O	-0.269580	-0.897960	-0.528120
O216	O	0.230420	-0.397960	-0.028120
O217	O	-0.163257	-1.058221	-0.528187
O218	O	0.336743	-0.558221	-0.028187
C219	C	-0.187646	-1.021424	-0.740111
C220	C	0.312354	-0.521424	-0.240111
C221	C	-0.216367	-0.978111	-0.763559
C222	C	0.283633	-0.478111	-0.263559
C223	C	-0.245100	-0.934791	-0.740092
C224	C	0.254900	-0.434791	-0.240092
C225	C	-0.216359	-0.978121	-0.810477
C226	C	0.283641	-0.478121	-0.310477
C227	C	-0.187626	-1.021440	-0.833945
C228	C	0.312374	-0.521440	-0.333945
C229	C	-0.158901	-1.064750	-0.810494
C230	C	0.341099	-0.564750	-0.310494
C231	C	-0.158913	-1.064744	-0.763579
C232	C	0.341087	-0.564744	-0.263579
C233	C	-0.273824	-0.891482	-0.763542
C234	C	0.226176	-0.391482	-0.263542
C235	C	-0.273811	-0.891492	-0.810457
C236	C	0.226189	-0.391492	-0.310457
C237	C	-0.245078	-0.934812	-0.833925
C238	C	0.254922	-0.434812	-0.333925
C239	C	-0.216441	-0.978047	-0.099699
C240	C	0.283559	-0.478047	0.400301
C241	C	-0.216316	-0.978170	-0.049764
C242	C	0.283684	-0.478170	0.450236
H243	H	-0.472519	-1.056451	-0.268584
H244	H	0.027481	-0.556451	0.231416
H245	H	-0.603420	-0.856270	-0.135503
H246	H	-0.103420	-0.356270	0.364497
O247	O	-0.156748	-1.068095	-0.381714
O248	O	0.343252	-0.568095	0.118286
H249	H	-0.176862	-1.102513	-0.360341
H250	H	0.323138	-0.602513	0.139659
O251	O	-1.051113	-1.068106	-0.276274
O252	O	-0.551113	-0.568106	0.223726
H253	H	-1.087685	-1.060844	-0.271447
H254	H	-0.587685	-0.560844	0.228553
H255	H	-0.268676	-0.720351	-0.268433
H256	H	0.231324	-0.220351	0.231567
H257	H	-0.164255	-0.720389	-0.164393
H258	H	0.335745	-0.220389	0.335607
O259	O	-0.304808	-0.844732	-0.738242
O260	O	0.195192	-0.344732	-0.238242
H261	H	-0.340067	-0.856294	-0.747240
H262	H	0.159933	-0.356294	-0.247240
O263	O	-0.156664	-0.582798	-0.156819
O264	O	0.343336	-0.082798	0.343181
H265	H	-0.121414	-0.596384	-0.164592
H266	H	0.378586	-0.096384	0.335408
O267	O	-0.127911	-1.111474	-0.835813
O268	O	0.372089	-0.611474	-0.335813
H269	H	-0.107939	-1.141598	-0.811630
H270	H	0.392061	-0.641598	-0.311630
H271	H	-0.164311	-1.056656	-0.473021
H272	H	0.335689	-0.556656	0.026979
O273	O	-0.276311	-0.226980	-0.276015
O274	O	0.223689	0.273020	0.223985
H275	H	-0.311552	-0.240514	-0.268213
H276	H	0.188448	0.259486	0.231787
H277	H	-0.164275	-0.236386	-0.164416
H278	H	0.335725	0.263614	0.335584
O279	O	-0.127965	-1.111443	-0.597544
O280	O	0.372035	-0.611443	-0.097544
H281	H	-0.107984	-1.141558	-0.621751
H282	H	0.392016	-0.641558	-0.121751
O283	O	-0.127946	-1.111463	-0.695056
O284	O	0.372054	-0.611463	-0.195056
H285	H	-0.107982	-1.141579	-0.670862
H286	H	0.392018	-0.641579	-0.170862
O287	O	-0.381200	-1.067864	-0.276156
O288	O	0.118800	-0.567864	0.223844
H289	H	-0.359822	-1.037546	-0.298991
H290	H	0.140178	-0.537546	0.201009
H291	H	-0.268677	-0.592117	-0.268443
H292	H	0.231323	-0.092117	0.231557
H293	H	-0.164211	-1.056749	-0.960307
H294	H	0.335789	-0.556749	-0.460307
H295	H	-0.164194	-1.056757	-1.045430
H296	H	0.335806	-0.556757	-0.545430
H297	H	-0.268568	-0.899480	-0.472996
H298	H	0.231432	-0.399480	0.027004
H299	H	-0.164271	-0.364620	-0.164407
H300	H	0.335729	0.135380	0.335593
H301	H	-0.297234	-0.856180	-0.688789
H302	H	0.202766	-0.356180	-0.188789
H303	H	-0.268443	-0.899585	-1.045384
H304	H	0.231557	-0.399585	-0.545384
H305	H	-0.268686	-0.364591	-0.268453
H306	H	0.231314	0.135409	0.231547
H307	H	-0.603190	-1.099760	-0.297358
H308	H	-0.103190	-0.599760	0.202642
H309	H	-0.959962	-0.899679	-0.164302
H310	H	-0.459962	-0.399679	0.335698
O311	O	-0.276035	-0.888086	-0.954070
O312	O	0.223965	-0.388086	-0.454070
H313	H	-0.296001	-0.857971	-0.978263
H314	H	0.203999	-0.357971	-0.478263
H315	H	-0.297243	-0.856158	-0.603681
H316	H	0.202757	-0.356158	-0.103681
O317	O	-0.276175	-0.888009	-0.381673
O318	O	0.223825	-0.388009	0.118327
H319	H	-0.271350	-0.895279	-0.345110
H320	H	0.228650	-0.395279	0.154890
O321	O	-0.127931	-1.111462	-0.738291
O322	O	0.372069	-0.611462	-0.238291
H323	H	-0.107950	-1.141578	-0.762498
H324	H	0.392050	-0.641578	-0.262498
O325	O	-0.478899	-0.888064	-0.156625
O326	O	0.021101	-0.388064	0.343375
H327	H	-0.454733	-0.857976	-0.136626
H328	H	0.045267	-0.357976	0.363374
O329	O	-0.304790	-0.844764	-0.835746
O330	O	0.195210	-0.344764	-0.335746
H331	H	-0.324766	-0.814637	-0.811541
H332	H	0.175234	-0.314637	-0.311541
H333	H	-0.688296	-1.099790	-0.297374
H334	H	-0.188296	-0.599790	0.202626
O335	O	-1.051282	-0.888296	-0.156707
O336	O	-0.551282	-0.388296	0.343293
H337	H	-1.087842	-0.895578	-0.161536
H338	H	-0.587842	-0.395578	0.338464
H339	H	-0.688528	-0.856305	-0.135510
H340	H	-0.188528	-0.356305	0.364490
H341	H	-0.959805	-1.056650	-0.268653
H342	H	-0.459805	-0.556650	0.231347
O343	O	-0.381374	-0.888026	-0.156608
O344	O	0.118626	-0.388026	0.343392
H345	H	-0.344802	-0.895280	-0.161439
H346	H	0.155198	-0.395280	0.338561
H347	H	-0.829056	-1.099837	-0.297394
H348	H	-0.329056	-0.599837	0.202606
O349	O	-0.737727	-1.111251	-0.304979
O350	O	-0.237727	-0.611251	0.195021
H351	H	-0.746717	-1.099610	-0.340233
H352	H	-0.246717	-0.599610	0.159767
O353	O	-0.835499	-0.844939	-0.127936
O354	O	-0.335499	-0.344939	0.372064
H355	H	-0.811329	-0.814849	-0.107941
H356	H	-0.311329	-0.314849	0.392059
H357	H	-0.744177	-0.856341	-0.135520
H358	H	-0.244177	-0.356341	0.364480
