data_functionalizedCrystal
_audit_creation_method	'MofGen! by Chris Wilmer'
_symmetry_space_group_name_H-M	'P1'
_symmetry_Int_Tables_number	1
_symmetry_cell_setting	triclinic
loop_
_symmetry_equiv_pos_as_xyz
  x,y,z
_cell_length_a	11.792241
_cell_length_b	11.792254
_cell_length_c	16.053802
_cell_angle_alpha	92.583162
_cell_angle_beta	87.405349
_cell_angle_gamma	84.196007
loop_
_atom_site_label
_atom_site_type_symbol
_atom_site_fract_x
_atom_site_fract_y
_atom_site_fract_z
O1	O	1.511669	0.150823	-0.069348
O2	O	1.181330	0.166855	-0.069368
O3	O	1.354508	-0.006330	-0.069352
O4	O	1.338491	0.324008	-0.069364
O5	O	1.344976	0.003163	0.069506
O6	O	1.171798	0.176348	0.069490
O7	O	1.502137	0.160316	0.069510
Zn8	Zn	1.335454	0.169839	0.091547
Zn9	Zn	1.348013	0.157332	-0.091405
O10	O	1.328959	0.333501	0.069494
C11	C	1.348733	-0.043874	0.000077
C12	C	1.345713	-0.169887	0.000076
C13	C	1.134273	0.170594	0.000059
C14	C	1.008260	0.167579	0.000051
C15	C	1.343259	-0.272224	0.000073
C16	C	1.340191	-0.400611	0.000065
C17	C	0.777545	0.162038	0.000076
C18	C	0.905932	0.165117	0.000062
C19	C	1.549194	0.156577	0.000081
C20	C	1.675207	0.159591	0.000083
C21	C	1.334734	0.371045	0.000063
C22	C	1.337754	0.497058	0.000059
N23	N	1.326890	0.178375	0.216406
N24	N	1.356585	0.148787	-0.216264
C25	C	1.400605	0.104711	0.260107
C26	C	1.394626	0.110692	0.347513
C27	C	1.314936	0.190344	0.391217
C28	C	1.241214	0.264011	0.347510
C29	C	1.247188	0.258023	0.260106
C30	C	1.288837	0.216467	0.652624
C31	C	1.282870	0.222451	0.740035
C32	C	1.436282	0.069130	0.740032
C33	C	1.442254	0.063154	0.652626
C34	C	1.368527	0.136817	0.608926
N35	N	1.308825	0.196462	0.480560
N36	N	1.374634	0.130693	0.519585
H37	H	1.465501	0.039855	0.224529
H38	H	1.454649	0.050709	0.383094
F39	F	1.527069	-0.021618	0.606114
F40	F	1.198050	0.307235	0.786542
F41	F	1.156395	0.348778	0.394024
F42	F	1.514739	-0.009265	0.786545
H43	H	1.228808	0.276448	0.617051
H44	H	1.187161	0.318007	0.224525
