data_functionalizedCrystal
_audit_creation_method	'MofGen! by Chris Wilmer'
_symmetry_space_group_name_H-M	'P1'
_symmetry_Int_Tables_number	1
_symmetry_cell_setting	triclinic
loop_
_symmetry_equiv_pos_as_xyz
  x,y,z
_cell_length_a	21.395362
_cell_length_b	12.645330
_cell_length_c	21.395355
_cell_angle_alpha	89.987670
_cell_angle_beta	89.956060
_cell_angle_gamma	90.033572
loop_
_atom_site_label
_atom_site_type_symbol
_atom_site_fract_x
_atom_site_fract_y
_atom_site_fract_z
Zn1	Zn	0.957916	-0.421713	-0.354613
Zn2	Zn	1.457916	0.078287	0.145387
Zn3	Zn	0.957842	-0.598962	-0.249846
Zn4	Zn	1.457842	-0.098962	0.250154
Zn5	Zn	0.853131	-0.421762	-0.249814
Zn6	Zn	1.353131	0.078238	0.250186
Zn7	Zn	0.853124	-0.598984	-0.354551
Zn8	Zn	1.353124	-0.098984	0.145449
O9	O	0.905503	-0.510355	-0.302206
O10	O	1.405503	-0.010355	0.197794
O11	O	1.045584	-0.445196	-0.340754
O12	O	1.545584	0.054804	0.159246
O13	O	0.943924	-0.575468	-0.162164
O14	O	1.443924	-0.075468	0.337836
O15	O	0.867065	-0.273408	-0.263728
O16	O	1.367065	0.226592	0.236272
O17	O	1.045530	-0.575420	-0.263783
O18	O	1.545530	-0.075420	0.236217
O19	O	0.944050	-0.273372	-0.340723
O20	O	1.444050	0.226628	0.159277
O21	O	0.866993	-0.445280	-0.162140
O22	O	1.366993	0.054720	0.337860
O23	O	0.765452	-0.445301	-0.263668
O24	O	1.265452	0.054699	0.236332
O25	O	0.867053	-0.575457	-0.442237
O26	O	1.367053	-0.075457	0.057763
O27	O	0.765447	-0.575505	-0.340618
O28	O	1.265447	-0.075505	0.159382
O29	O	0.944043	-0.445217	-0.442282
O30	O	1.444043	0.054783	0.057718
O31	O	0.943918	-0.747312	-0.263724
O32	O	1.443918	-0.247312	0.236276
O33	O	0.866981	-0.747328	-0.340650
O34	O	1.366981	-0.247328	0.159350
C35	C	0.742716	-0.510411	-0.302133
C36	C	1.242716	-0.010411	0.197867
C37	C	0.673074	-0.510461	-0.302117
C38	C	1.173074	-0.010461	0.197883
C39	C	0.640375	-0.578348	-0.342125
C40	C	1.140375	-0.078348	0.157875
C41	C	0.574940	-0.578322	-0.342153
C42	C	1.074940	-0.078322	0.157847
C43	C	0.542206	-0.510420	-0.302162
C44	C	1.042206	-0.010420	0.197838
C45	C	0.574913	-0.442520	-0.262151
C46	C	1.074913	0.057480	0.237849
C47	C	0.640348	-0.442540	-0.262129
C48	C	1.140348	0.057460	0.237871
C49	C	0.438480	-0.501880	-0.245756
C50	C	0.938480	-0.001880	0.254244
C51	C	0.373047	-0.501867	-0.245777
C52	C	0.873047	-0.001867	0.254223
C53	C	0.340386	-0.510351	-0.302231
C54	C	0.840386	-0.010351	0.197769
C55	C	0.373165	-0.518870	-0.358665
C56	C	0.873165	-0.018870	0.141335
C57	C	0.438599	-0.518890	-0.358643
C58	C	0.938599	-0.018890	0.141357
C59	C	0.471254	-0.510390	-0.302182
C60	C	0.971254	-0.010390	0.197818
C61	C	0.236734	-0.578213	-0.342272
C62	C	0.736734	-0.078213	0.157728
C63	C	0.171297	-0.578180	-0.342301
C64	C	0.671297	-0.078180	0.157699
C65	C	0.171272	-0.442383	-0.262294
C66	C	0.671272	0.057617	0.237706
C67	C	0.236707	-0.442411	-0.262271
C68	C	0.736707	0.057589	0.237729
C69	C	0.269434	-0.510332	-0.302259
C70	C	0.769434	-0.010332	0.197741
C71	C	0.905458	-0.785785	-0.302197
C72	C	1.405458	-0.285785	0.197803
C73	C	0.905495	-0.903615	-0.302214
C74	C	1.405495	-0.403615	0.197786
C75	C	0.857295	-1.071233	-0.350758
C76	C	1.357295	-0.571233	0.149242
C77	C	0.857048	-0.948674	-0.350602
C78	C	1.357048	-0.448674	0.149398
C79	C	0.887617	-0.948193	-0.236177
C80	C	1.387617	-0.448193	0.263823
C81	C	0.887323	-1.070792	-0.236472
C82	C	1.387323	-0.570792	0.263528
C83	C	0.971870	-1.070679	-0.319173
C84	C	1.471870	-0.570679	0.180827
C85	C	0.971463	-0.948073	-0.320616
C86	C	1.471463	-0.448073	0.179384
C87	C	1.068927	-0.510300	-0.302279
C88	C	1.568927	-0.010300	0.197721
C89	C	1.138568	-0.510276	-0.302311
C90	C	1.638568	-0.010276	0.197689
C91	C	0.905555	-0.510334	-0.465629
C92	C	1.405555	-0.010334	0.034371
C93	C	0.905578	-0.510325	-0.535271
C94	C	1.405578	-0.010325	-0.035271
C95	C	0.905566	-0.233850	-0.302228
C96	C	1.405566	0.266150	0.197772
C97	C	0.905593	-0.116020	-0.302238
C98	C	1.405593	0.383980	0.197762
C99	C	0.945665	-0.442506	-0.568008
C100	C	1.445665	0.057494	-0.068008
C101	C	0.945664	-0.442460	-0.633444
C102	C	1.445664	0.057540	-0.133444
C103	C	0.905582	-0.510252	-0.666139
C104	C	1.405582	-0.010252	-0.166139
C105	C	0.865488	-0.578076	-0.633393
C106	C	1.365488	-0.078076	-0.133393
C107	C	0.865485	-0.578112	-0.567959
C108	C	1.365485	-0.078112	-0.067959
C109	C	0.900619	-0.605707	-0.769809
C110	C	1.400619	-0.105707	-0.269809
C111	C	0.900626	-0.605673	-0.835242
C112	C	1.400626	-0.105673	-0.335242
C113	C	0.905586	-0.510140	-0.867960
C114	C	1.405586	-0.010140	-0.367960
C115	C	0.910553	-0.414639	-0.835237
C116	C	1.410553	0.085361	-0.335237
C117	C	0.910550	-0.414676	-0.769803
C118	C	1.410550	0.085324	-0.269803
C119	C	0.905580	-0.510220	-0.737091
C120	C	1.405580	-0.010220	-0.237091
C121	C	0.945675	-0.442266	-0.971650
C122	C	1.445675	0.057734	-0.471650
C123	C	0.945669	-0.442219	-1.037087
C124	C	1.445669	0.057781	-0.537087
C125	C	0.865496	-0.577844	-1.037035
C126	C	1.365496	-0.077844	-0.537035
C127	C	0.865498	-0.577882	-0.971600
C128	C	1.365498	-0.077882	-0.471600
C129	C	0.905591	-0.510095	-0.938911
C130	C	1.405591	-0.010095	-0.438911
C131	C	0.905488	-0.510300	-0.139418
C132	C	1.405488	-0.010300	0.360582
C133	C	0.905587	-0.510011	-0.069778
C134	C	1.405587	-0.010011	0.430222
H135	H	0.144621	-0.387091	-0.229735
H136	H	0.644621	0.112909	0.270265
H137	H	0.838874	-1.099500	-0.222129
H138	H	1.338874	-0.599500	0.277871
H139	H	0.144674	-0.633460	-0.374884
H140	H	0.644674	-0.133460	0.125116
H141	H	0.984945	-0.918934	-0.369216
H142	H	1.484945	-0.418934	0.130784
H143	H	1.007853	-1.099637	-0.283834
H144	H	1.507853	-0.599637	0.216166
H145	H	0.263332	-0.387135	-0.229689
H146	H	0.763332	0.112865	0.270311
N147	N	0.988902	-0.369309	-0.668764
N148	N	1.488902	0.130691	-0.168764
H149	H	1.014298	-0.326372	-0.638127
H150	H	1.514298	0.173628	-0.138127
H151	H	1.017884	-0.412446	-0.695936
H152	H	1.517884	0.087554	-0.195936
H153	H	0.346364	-0.494937	-0.199825
H154	H	0.846364	0.005063	0.300175
H155	H	0.832855	-0.633031	-1.063655
H156	H	1.332855	-0.133031	-0.563655
N157	N	0.931876	-1.110063	-0.186940
N158	N	1.431876	-0.610063	0.313060
H159	H	0.965583	-1.154372	-0.207096
H160	H	1.465583	-0.654372	0.292904
H161	H	0.951580	-1.047680	-0.165022
H162	H	1.451580	-0.547680	0.334978
N163	N	0.988904	-0.369393	-0.532751
N164	N	1.488904	0.130607	-0.032751
H165	H	1.014299	-0.326422	-0.563424
H166	H	1.514299	0.173578	-0.063424
H167	H	0.963411	-0.320355	-0.505581
H168	H	1.463411	0.179645	-0.005581
N169	N	0.675619	-0.369327	-0.218967
N170	N	1.175619	0.130673	0.281033
H171	H	0.722037	-0.379648	-0.225020
H172	H	1.222037	0.120352	0.274980
H173	H	0.664230	-0.293635	-0.228798
H174	H	1.164230	0.206365	0.271202
H175	H	0.465068	-0.494967	-0.199781
H176	H	0.965068	0.005033	0.300219
N177	N	0.337962	-0.528087	-0.419566
N178	N	0.837962	-0.028087	0.080434
H179	H	0.349408	-0.466891	-0.447684
H180	H	0.849408	0.033109	0.052316
H181	H	0.349382	-0.596806	-0.440726
H182	H	0.849382	-0.096806	0.059274
N183	N	0.915899	-0.311673	-0.734514
N184	N	1.415899	0.188327	-0.234514
H185	H	0.877730	-0.301764	-0.707338
H186	H	1.377730	0.198236	-0.207338
H187	H	0.954529	-0.313163	-0.707429
H188	H	1.454529	0.186837	-0.207429
H189	H	0.548258	-0.387232	-0.229591
H190	H	1.048258	0.112768	0.270409
H191	H	0.465285	-0.525824	-0.404593
H192	H	0.965285	-0.025824	0.095407
H193	H	0.914593	-0.336848	-0.861874
H194	H	1.414593	0.163152	-0.361874
H195	H	0.978312	-0.386986	-1.063741
H196	H	1.478312	0.113014	-0.563741
H197	H	0.868234	-0.918533	-0.399567
H198	H	1.368234	-0.418533	0.100433
H199	H	0.978317	-0.387064	-0.945034
H200	H	1.478317	0.112936	-0.445034
N201	N	0.932733	-0.909538	-0.186976
N202	N	1.432733	-0.409538	0.313024
H203	H	0.965273	-0.862644	-0.207069
H204	H	1.465273	-0.362644	0.292931
H205	H	0.909176	-0.868048	-0.154232
H206	H	1.409176	-0.368048	0.345768
N207	N	1.021645	-0.907433	-0.277223
N208	N	1.521645	-0.407433	0.222777
H209	H	1.002241	-0.859416	-0.244874
H210	H	1.502241	-0.359416	0.255126
H211	H	1.042525	-0.969085	-0.255698
H212	H	1.542525	-0.469085	0.244302
N213	N	0.791969	-0.909961	-0.335729
N214	N	1.291969	-0.409961	0.164271
H215	H	0.775944	-0.865613	-0.371558
H216	H	1.275944	-0.365613	0.128442
H217	H	0.763377	-0.972592	-0.329235
H218	H	1.263377	-0.472592	0.170765
N219	N	0.822254	-0.651265	-0.532638
N220	N	1.322254	-0.151265	-0.032638
H221	H	0.793232	-0.608202	-0.505464
H222	H	1.293232	-0.108202	-0.005464
H223	H	0.796898	-0.694195	-0.563310
H224	H	1.296898	-0.194195	-0.063310
H225	H	0.868378	-1.100658	-0.399884
H226	H	1.368378	-0.600658	0.100116
H227	H	0.808467	-1.102153	-0.339680
H228	H	1.308467	-0.602153	0.160320
H229	H	0.263381	-0.633513	-0.374837
H230	H	0.763381	-0.133513	0.125163
H231	H	0.839674	-0.917599	-0.221575
H232	H	1.339674	-0.417599	0.278425
N233	N	0.822251	-0.651013	-0.936285
N234	N	1.322251	-0.151013	-0.436285
H235	H	0.796855	-0.693947	-0.966924
H236	H	1.296855	-0.193947	-0.466924
H237	H	0.847731	-0.700086	-0.909151
H238	H	1.347731	-0.200086	-0.409151
H239	H	0.988178	-1.101533	-0.366510
H240	H	1.488178	-0.601533	0.133490
H241	H	0.896586	-0.683435	-0.861880
H242	H	1.396586	-0.183435	-0.361880
H243	H	0.896413	-0.683481	-0.743176
H244	H	1.396413	-0.183481	-0.243176
H245	H	0.832851	-0.633270	-0.660018
H246	H	1.332851	-0.133270	-0.160018
H247	H	0.667017	-0.633653	-0.374688
H248	H	1.167017	-0.133653	0.125312
N249	N	0.539667	-0.651558	-0.385303
N250	N	1.039667	-0.151558	0.114697
H251	H	0.512469	-0.700606	-0.359794
H252	H	1.012469	-0.200606	0.140206
H253	H	0.512604	-0.608476	-0.414386
H254	H	1.012604	-0.108476	0.085614
