data_functionalizedCrystal
_audit_creation_method	'MofGen! by Chris Wilmer'
_symmetry_space_group_name_H-M	'P1'
_symmetry_Int_Tables_number	1
_symmetry_cell_setting	triclinic
loop_
_symmetry_equiv_pos_as_xyz
  x,y,z
_cell_length_a	9.065215
_cell_length_b	9.065218
_cell_length_c	9.730223
_cell_angle_alpha	89.997438
_cell_angle_beta	89.997253
_cell_angle_gamma	85.015291
loop_
_atom_site_label
_atom_site_type_symbol
_atom_site_fract_x
_atom_site_fract_y
_atom_site_fract_z
O1	O	1.960401	0.216336	-0.114268
O2	O	1.531116	0.234087	-0.114273
O3	O	1.754632	0.010569	-0.114268
O4	O	1.736885	0.439854	-0.114274
O5	O	1.754617	0.010563	0.114312
O6	O	1.531101	0.234081	0.114306
O7	O	1.960387	0.216330	0.114312
Zn8	Zn	1.745742	0.225204	0.150601
Zn9	Zn	1.745761	0.225212	-0.150563
O10	O	1.736871	0.439848	0.114306
C11	C	1.476122	0.232379	0.000016
C12	C	1.312279	0.227281	0.000013
C13	C	1.752919	-0.044421	0.000020
C14	C	1.747819	-0.208264	0.000013
C15	C	2.015381	0.218038	0.000020
C16	C	2.179224	0.223136	0.000013
C17	C	1.738584	0.494837	0.000016
C18	C	1.743683	0.658680	0.000013
N19	N	1.745739	0.225198	0.356138
N20	N	1.745775	0.225207	-0.356099
C21	C	1.844747	0.126266	0.428066
C22	C	1.844761	0.126267	0.571949
C23	C	1.646757	0.324143	0.571962
C24	C	1.646736	0.324134	0.428082
H25	H	1.925359	0.045704	0.369492
H26	H	1.925380	0.045707	0.630509
H27	H	1.566106	0.404697	0.369514
C28	C	1.539209	0.431327	0.650257
C29	C	1.447884	0.351469	0.732914
C30	C	1.348808	0.450160	0.805070
H31	H	1.480093	0.490287	0.586970
H32	H	1.593075	0.493473	0.706446
H33	H	1.394022	0.289348	0.676729
H34	H	1.506959	0.292514	0.796226
H35	H	1.402674	0.512307	0.861259
H36	H	1.289702	0.509115	0.741773
H37	H	1.286841	0.395991	0.861170
