data_functionalizedCrystal
_audit_creation_method	'MofGen! by Chris Wilmer'
_symmetry_space_group_name_H-M	'P1'
_symmetry_Int_Tables_number	1
_symmetry_cell_setting	triclinic
loop_
_symmetry_equiv_pos_as_xyz
  x,y,z
_cell_length_a	17.077404
_cell_length_b	18.215405
_cell_length_c	18.215399
_cell_angle_alpha	89.969449
_cell_angle_beta	89.980408
_cell_angle_gamma	90.025110
loop_
_atom_site_label
_atom_site_type_symbol
_atom_site_fract_x
_atom_site_fract_y
_atom_site_fract_z
Zn1	Zn	1.200044	-0.292987	-0.416098
Zn2	Zn	1.700044	0.207013	0.083902
Zn3	Zn	1.199947	-0.416059	-0.293026
Zn4	Zn	1.699947	0.083941	0.206974
Zn5	Zn	1.068776	-0.293011	-0.293046
Zn6	Zn	1.568776	0.206989	0.206954
Zn7	Zn	1.068740	-0.416017	-0.416051
Zn8	Zn	1.568740	0.083983	0.083949
O9	O	1.134377	-0.354519	-0.354555
O10	O	1.634377	0.145481	0.145445
O11	O	1.309878	-0.309321	-0.399783
O12	O	1.809878	0.190679	0.100217
O13	O	1.182521	-0.399763	-0.190044
O14	O	1.682521	0.100237	0.309956
O15	O	1.086245	-0.190024	-0.309397
O16	O	1.586245	0.309976	0.190603
O17	O	1.309807	-0.399740	-0.309363
O18	O	1.809807	0.100260	0.190637
O19	O	1.182688	-0.190006	-0.399802
O20	O	1.682688	0.309994	0.100198
O21	O	1.086150	-0.309361	-0.190059
O22	O	1.586150	0.190639	0.309941
O23	O	0.958924	-0.309321	-0.309352
O24	O	1.458924	0.190679	0.190648
O25	O	1.086183	-0.399670	-0.519042
O26	O	1.586183	0.100330	-0.019042
O27	O	0.958898	-0.399693	-0.399723
O28	O	1.458898	0.100307	0.100277
O29	O	1.182652	-0.309280	-0.519076
O30	O	1.682652	0.190720	-0.019076
O31	O	1.182486	-0.519037	-0.309318
O32	O	1.682486	-0.019037	0.190682
O33	O	1.086088	-0.519007	-0.399704
O34	O	1.586088	-0.019007	0.100296
C35	C	0.930429	-0.354505	-0.354535
C36	C	1.430429	0.145495	0.145465
C37	C	0.843179	-0.354517	-0.354544
C38	C	1.343179	0.145483	0.145456
C39	C	0.802196	-0.401645	-0.401525
C40	C	1.302196	0.098355	0.098475
C41	C	0.720215	-0.401647	-0.401537
C42	C	1.220215	0.098353	0.098463
C43	C	0.679220	-0.354524	-0.354563
C44	C	1.179220	0.145476	0.145437
C45	C	0.720209	-0.307391	-0.307580
C46	C	1.220209	0.192609	0.192420
C47	C	0.802188	-0.307386	-0.307572
C48	C	1.302188	0.192614	0.192428
C49	C	0.549339	-0.307405	-0.307598
C50	C	1.049339	0.192595	0.192402
C51	C	0.467354	-0.307411	-0.307604
C52	C	0.967354	0.192589	0.192396
C53	C	0.467366	-0.401666	-0.401562
C54	C	0.967366	0.098334	0.098438
C55	C	0.549345	-0.401661	-0.401554
C56	C	1.049345	0.098339	0.098446
C57	C	0.590329	-0.354529	-0.354570
C58	C	1.090329	0.145471	0.145430
C59	C	1.134294	-0.545725	-0.354520
C60	C	1.634294	-0.045725	0.145480
C61	C	1.134330	-0.627524	-0.354529
C62	C	1.634330	-0.127524	0.145471
C63	C	1.184642	-0.815709	-0.307552
C64	C	1.684642	-0.315709	0.192448
C65	C	1.184677	-0.892568	-0.307570
C66	C	1.684677	-0.392568	0.192430
C67	C	1.084212	-0.892576	-0.401612
C68	C	1.584212	-0.392576	0.098388
C69	C	1.084181	-0.815719	-0.401597
C70	C	1.584181	-0.315719	0.098403
C71	C	1.134395	-0.777287	-0.354563
C72	C	1.634395	-0.277287	0.145437
C73	C	1.134461	-0.931003	-0.354595
C74	C	1.634461	-0.431003	0.145405
C75	C	1.134499	-1.014337	-0.354615
C76	C	1.634499	-0.514337	0.145385
C77	C	1.134359	-0.693948	-0.354544
C78	C	1.634359	-0.193948	0.145456
C79	C	1.339121	-0.354533	-0.354576
C80	C	1.839121	0.145467	0.145424
C81	C	1.426371	-0.354538	-0.354585
C82	C	1.926371	0.145462	0.145415
C83	C	1.134425	-0.354468	-0.546508
C84	C	1.634425	0.145532	-0.046508
C85	C	1.134445	-0.354446	-0.628307
C86	C	1.634445	0.145554	-0.128307
C87	C	1.134481	-0.162566	-0.354607
C88	C	1.634481	0.337434	0.145393
C89	C	1.134526	-0.080767	-0.354629
C90	C	1.634526	0.419233	0.145371
C91	C	1.184694	-0.307336	-0.816520
C92	C	1.684694	0.192664	-0.316520
C93	C	1.184704	-0.307315	-0.893379
C94	C	1.684704	0.192685	-0.393379
C95	C	1.084251	-0.401442	-0.893332
C96	C	1.584251	0.098558	-0.393332
C97	C	1.084238	-0.401459	-0.816475
C98	C	1.584238	0.098541	-0.316475
C99	C	1.134464	-0.354408	-0.778071
C100	C	1.634464	0.145592	-0.278071
C101	C	1.134486	-0.354369	-0.931787
C102	C	1.634486	0.145631	-0.431787
C103	C	1.134496	-0.354346	-1.015121
C104	C	1.634496	0.145654	-0.515121
C105	C	1.134454	-0.354429	-0.694732
C106	C	1.634454	0.145571	-0.194732
C107	C	1.134374	-0.354516	-0.163349
C108	C	1.634374	0.145484	0.336651
C109	C	1.134506	-0.354330	-0.081551
C110	C	1.634506	0.145670	0.418449
H111	H	0.686850	-0.440023	-0.439793
H112	H	1.186850	0.059977	0.060207
O113	O	1.233461	-0.778296	-0.261971
O114	O	1.733461	-0.278296	0.238029
C115	C	1.284128	-0.733783	-0.303908
C116	C	1.784128	-0.233783	0.196092
H117	H	1.256400	-0.722247	-0.359651
H118	H	1.756400	-0.222247	0.140349
H119	H	1.294648	-0.679752	-0.273929
H120	H	1.794648	-0.179752	0.226071
H121	H	1.342306	-0.763354	-0.312054
H122	H	1.842306	-0.263354	0.187946
H123	H	1.043328	-0.923876	-0.439904
H124	H	1.543328	-0.423876	0.060096
O125	O	1.233510	-0.929777	-0.261832
O126	O	1.733510	-0.429777	0.238168
C127	C	1.277835	-0.879372	-0.220333
C128	C	1.777835	-0.379372	0.279667
H129	H	1.245660	-0.824613	-0.217745
H130	H	1.745660	-0.324613	0.282255
H131	H	1.286255	-0.901614	-0.162361
H132	H	1.786255	-0.401614	0.337639
H133	H	1.337432	-0.871130	-0.247332
H134	H	1.837432	-0.371130	0.252668
H135	H	0.433993	-0.440040	-0.439820
H136	H	0.933993	0.059960	0.060180
H137	H	1.043264	-0.784434	-0.439882
H138	H	1.543264	-0.284434	0.060118
O139	O	1.233502	-0.261558	-0.779328
O140	O	1.733502	0.238442	-0.279328
C141	C	1.277850	-0.220020	-0.829749
C142	C	1.777850	0.279980	-0.329749
H143	H	1.245707	-0.217461	-0.884531
H144	H	1.745707	0.282539	-0.384531
H145	H	1.286247	-0.162041	-0.807563
H146	H	1.786247	0.337959	-0.307563
H147	H	1.337456	-0.246968	-0.837926
H148	H	1.837456	0.253032	-0.337926
H149	H	0.582721	-0.440037	-0.439800
H150	H	1.082721	0.059963	0.060200
O151	O	1.035552	-0.447224	-0.779039
O152	O	1.535552	0.052776	-0.279039
C153	C	1.080214	-0.494778	-0.734587
C154	C	1.580214	0.005222	-0.234587
H155	H	1.139714	-0.468827	-0.723095
H156	H	1.639714	0.031173	-0.223095
H157	H	1.048228	-0.504648	-0.680530
H158	H	1.548228	-0.004648	-0.180530
H159	H	1.088814	-0.549311	-0.764189
H160	H	1.588814	-0.049311	-0.264189
H161	H	0.433978	-0.269030	-0.269363
H162	H	0.933978	0.230970	0.230637
H163	H	1.225605	-0.268984	-0.924681
H164	H	1.725605	0.231016	-0.424681
O165	O	0.842102	-0.447319	-0.447192
O166	O	1.342102	0.052681	0.052808
C167	C	0.889545	-0.405476	-0.494808
C168	C	1.389545	0.094524	0.005192
H169	H	0.901838	-0.349672	-0.468952
H170	H	1.401838	0.150328	0.031048
H171	H	0.947185	-0.435462	-0.504613
H172	H	1.447185	0.064538	-0.004613
H173	H	0.857979	-0.397460	-0.549363
H174	H	1.357979	0.102540	-0.049363
O175	O	1.035541	-0.447126	-0.930753
O176	O	1.535541	0.052874	-0.430753
C177	C	1.046309	-0.437006	-1.006835
C178	C	1.546309	0.062994	-0.506835
H179	H	1.106903	-0.412904	-1.017350
H180	H	1.606903	0.087096	-0.517350
H181	H	1.040962	-0.492124	-1.036026
H182	H	1.540962	0.007876	-0.536026
H183	H	0.999773	-0.397809	-1.028650
H184	H	1.499773	0.102191	-0.528650
H185	H	0.582705	-0.269019	-0.269344
H186	H	1.082705	0.230981	0.230656
O187	O	0.680473	-0.261651	-0.261849
O188	O	1.180473	0.238349	0.238151
C189	C	0.700449	-0.277648	-0.188468
C190	C	1.200449	0.222352	0.311532
H191	H	0.759960	-0.305930	-0.186884
H192	H	1.259960	0.194070	0.313116
H193	H	0.703256	-0.224492	-0.155567
H194	H	1.203256	0.275508	0.344433
H195	H	0.654284	-0.315456	-0.163616
H196	H	1.154284	0.184544	0.336384
H197	H	0.835556	-0.269006	-0.269319
H198	H	1.335556	0.230994	0.230681
