data_functionalizedCrystal
_audit_creation_method	'MofGen! by Chris Wilmer'
_symmetry_space_group_name_H-M	'P1'
_symmetry_Int_Tables_number	1
_symmetry_cell_setting	triclinic
loop_
_symmetry_equiv_pos_as_xyz
  x,y,z
_cell_length_a	17.699083
_cell_length_b	10.540510
_cell_length_c	16.176319
_cell_angle_alpha	89.995706
_cell_angle_beta	89.998611
_cell_angle_gamma	83.898163
loop_
_atom_site_label
_atom_site_type_symbol
_atom_site_fract_x
_atom_site_fract_y
_atom_site_fract_z
O1	O	1.005112	0.160523	-0.068626
O2	O	0.784868	0.181407	-0.068653
O3	O	0.900027	-0.013836	-0.068638
O4	O	0.889954	0.355766	-0.068640
O5	O	0.900011	-0.013848	0.068855
O6	O	0.784852	0.181395	0.068841
O7	O	1.005096	0.160510	0.068867
Cu8	Cu	0.894973	0.170951	0.081408
Cu9	Cu	0.894992	0.170966	-0.081194
O10	O	0.889938	0.355754	0.068853
C11	C	0.756658	0.180653	0.000091
C12	C	0.672626	0.178408	0.000080
C13	C	0.624743	0.293011	0.000080
C14	C	0.545786	0.290894	0.000091
C15	C	0.514714	0.174172	0.000096
C16	C	0.562603	0.059560	0.000099
C17	C	0.641558	0.061678	0.000094
C18	C	0.244185	0.051015	0.000119
C19	C	0.165223	0.048905	0.000121
C20	C	0.148412	0.280231	0.000116
C21	C	0.227368	0.282349	0.000111
C22	C	0.275250	0.167737	0.000118
C23	C	0.360864	0.170034	0.000108
C24	C	0.429101	0.171874	0.000100
C25	C	0.899268	-0.061132	0.000106
C26	C	0.897022	-0.202041	0.000101
C27	C	0.977022	-0.420960	0.000426
C28	C	0.979418	-0.274408	0.000112
C29	C	0.854853	-0.246021	-0.078418
C30	C	0.853041	-0.392749	-0.078479
C31	C	0.851307	-0.392540	0.077876
C32	C	0.855215	-0.246271	0.078910
C33	C	1.033306	0.161265	0.000122
C34	C	1.117339	0.163510	0.000127
C35	C	0.890696	0.403050	0.000106
C36	C	0.892942	0.543959	0.000106
N37	N	0.894965	0.170940	0.195773
N38	N	0.895006	0.170967	-0.195559
C39	C	0.945973	0.084522	0.239044
C40	C	0.945977	0.084521	0.325591
C41	C	0.894976	0.170945	0.368866
C42	C	0.843962	0.257367	0.325589
C43	C	0.843955	0.257362	0.239044
C44	C	0.843988	0.257391	0.674618
C45	C	0.844001	0.257393	0.761169
C46	C	0.946010	0.084550	0.761165
C47	C	0.946003	0.084544	0.674619
C48	C	0.894987	0.170962	0.631350
C49	C	0.894982	0.170961	0.537506
C50	C	0.894983	0.170953	0.462708
H51	H	1.009116	-0.463507	0.056736
N52	N	0.779762	-0.183282	0.084836
N53	N	0.732848	-0.195816	0.028444
H54	H	0.679562	-0.151306	0.032622
H55	H	0.987547	0.014180	0.796403
H56	H	1.008944	-0.465044	-0.055558
H57	H	0.802467	0.327772	0.796402
N58	N	1.020814	-0.238328	0.070709
N59	N	1.029674	-0.123662	0.082552
H60	H	1.058913	-0.098184	0.132413
N61	N	0.998054	-0.003809	0.369781
N62	N	0.973600	-0.082565	0.418053
H63	H	1.010373	-0.144975	0.449255
H64	H	0.987507	0.014151	0.203815
H65	H	0.987535	0.014174	0.639387
H66	H	0.537298	-0.035477	0.000115
H67	H	0.881873	-0.433486	-0.137166
H68	H	0.139928	-0.046150	0.000127
H69	H	0.802451	0.327757	0.639395
N70	N	0.791853	0.345641	0.369780
N71	N	0.721891	0.344038	0.360122
H72	H	0.685086	0.406384	0.391331
H73	H	0.680545	-0.031644	0.000094
H74	H	0.802419	0.327731	0.203814
H75	H	0.252662	0.377396	0.000103
N76	N	0.656466	0.412253	0.000067
N77	N	0.613700	0.514569	0.000069
H78	H	0.636102	0.598788	0.000062
N79	N	1.021069	-0.239538	-0.070612
N80	N	1.048451	-0.323490	-0.119896
H81	H	1.077868	-0.298866	-0.169849
N82	N	0.496882	0.407967	0.000109
N83	N	0.500085	0.485638	0.058066
H84	H	0.465548	0.568329	0.058083
N85	N	0.099500	0.397308	0.000137
N86	N	0.102695	0.474984	0.058093
H87	H	0.068153	0.557668	0.058107
N88	N	0.293077	-0.066066	0.000123
N89	N	0.265322	-0.170270	0.000123
H90	H	0.299854	-0.252964	0.000124
H91	H	0.794195	-0.197523	-0.081344
N92	N	0.775730	-0.420171	-0.082951
N93	N	0.723284	-0.330978	-0.086022
H94	H	0.668683	-0.350339	-0.089180
H95	H	0.877484	-0.435206	0.137393
N96	N	0.891612	-0.207975	-0.151708
N97	N	0.948857	-0.148483	-0.146318
H98	H	0.974823	-0.121615	-0.198078
N99	N	0.893707	-0.211052	0.151772
N100	N	0.900646	-0.096263	0.165840
H101	H	0.927833	-0.071378	0.217295
N102	N	0.773701	-0.418909	0.078521
N103	N	0.749075	-0.484164	0.022015
H104	H	0.694268	-0.502794	0.022463
