data_functionalizedCrystal
_audit_creation_method	'MofGen! by Chris Wilmer'
_symmetry_space_group_name_H-M	'P1'
_symmetry_Int_Tables_number	1
_symmetry_cell_setting	triclinic
loop_
_symmetry_equiv_pos_as_xyz
  x,y,z
_cell_length_a	19.188925
_cell_length_b	19.188930
_cell_length_c	12.996460
_cell_angle_alpha	89.988736
_cell_angle_beta	89.993464
_cell_angle_gamma	83.143665
loop_
_atom_site_label
_atom_site_type_symbol
_atom_site_fract_x
_atom_site_fract_y
_atom_site_fract_z
O1	O	0.926148	0.087151	-0.085600
O2	O	0.722836	0.098889	-0.085599
O3	O	0.830359	-0.008636	-0.085580
O4	O	0.818625	0.194676	-0.085620
O5	O	0.830348	-0.008642	0.085554
O6	O	0.722825	0.098883	0.085535
O7	O	0.926137	0.087145	0.085533
Cu8	Cu	0.824480	0.093013	0.101160
Cu9	Cu	0.824493	0.093020	-0.101226
O10	O	0.818614	0.194670	0.085514
C11	C	0.696820	0.098507	-0.000032
C12	C	0.619315	0.097367	-0.000031
C13	C	0.057545	0.152831	-0.000044
C14	C	0.130368	0.153908	-0.000050
C15	C	0.175302	0.090816	-0.000035
C16	C	0.147408	0.026642	-0.000042
C17	C	0.074586	0.025568	-0.000046
N18	N	0.295976	0.045138	0.058229
N19	N	0.365153	0.046163	0.058235
C20	C	0.394712	0.094050	-0.000024
N21	N	0.352478	0.140884	-0.058277
N22	N	0.283294	0.139860	-0.058279
C23	C	0.254267	0.091974	-0.000031
C24	C	0.501561	0.159386	-0.000031
C25	C	0.574385	0.160460	-0.000043
C26	C	0.591425	0.033193	-0.000025
C27	C	0.518601	0.032121	-0.000023
C28	C	0.473673	0.095220	-0.000021
C29	C	0.829974	-0.034650	-0.000010
C30	C	0.828833	-0.112154	-0.000001
C31	C	0.891924	-0.157079	0.000003
C32	C	0.890852	-0.229903	-0.000013
C33	C	0.826686	-0.257799	-0.000013
C34	C	0.763587	-0.212864	-0.000024
C35	C	0.764660	-0.140041	-0.000018
N36	N	0.777635	-0.365805	0.058227
N37	N	0.776620	-0.434983	0.058223
C38	C	0.823448	-0.477207	-0.000034
N39	N	0.871341	-0.447641	-0.058275
N40	N	0.872359	-0.378456	-0.058267
C41	C	0.825515	-0.336761	-0.000021
C42	C	0.885381	-0.601097	-0.000049
C43	C	0.884307	-0.673922	-0.000072
C44	C	0.757040	-0.656880	-0.000072
C45	C	0.758116	-0.584057	-0.000060
C46	C	0.822289	-0.556170	-0.000043
C47	C	0.952154	0.087527	-0.000036
C48	C	1.029658	0.088666	-0.000044
C49	C	0.819000	0.220684	-0.000058
C50	C	0.820140	0.298188	-0.000074
N51	N	0.824476	0.093008	0.243507
N52	N	0.824503	0.093020	-0.243573
C53	C	0.824492	0.093021	0.663321
C54	C	0.824486	0.093020	0.546516
C55	C	0.824484	0.093015	0.453418
C56	C	0.824477	0.093013	0.336605
H57	H	0.628010	-0.018178	-0.000021
Cl58	Cl	0.678797	-0.527576	-0.000061
H59	H	0.704794	-0.679592	-0.000078
Cl60	Cl	0.609442	0.241132	-0.000053
H61	H	0.495896	-0.020129	-0.000017
H62	H	0.942230	-0.266488	-0.000013
Cl63	Cl	0.001068	0.232156	-0.000056
Cl64	Cl	0.966054	-0.566035	-0.000022
Cl65	Cl	0.685339	-0.083561	-0.000023
Cl66	Cl	0.972598	-0.122025	-0.000005
Cl67	Cl	0.203896	-0.052674	-0.000028
H68	H	0.153078	0.206160	-0.000040
Cl69	Cl	0.682921	-0.247931	-0.000032
H70	H	0.051883	-0.026685	-0.000047
Cl71	Cl	0.445077	0.238709	-0.000033
H72	H	0.935686	-0.710500	-0.000074
