data_functionalizedCrystal
_audit_creation_method	'MofGen! by Chris Wilmer'
_symmetry_space_group_name_H-M	'P1'
_symmetry_Int_Tables_number	1
_symmetry_cell_setting	triclinic
loop_
_symmetry_equiv_pos_as_xyz
  x,y,z
_cell_length_a	14.560438
_cell_length_b	14.560438
_cell_length_c	14.560438
_cell_angle_alpha	60.000518
_cell_angle_beta	90.000443
_cell_angle_gamma	60.000378
loop_
_atom_site_label
_atom_site_type_symbol
_atom_site_fract_x
_atom_site_fract_y
_atom_site_fract_z
Zr1	Zr	0.884753	1.005292	-0.120514
O2	O	0.738105	1.196893	-0.267158
O3	O	0.929708	0.813691	-0.075562
O4	O	0.929705	1.005295	-0.267163
O5	O	0.738110	1.005286	0.075584
O6	O	1.080844	1.005298	-0.267164
O7	O	0.738107	1.005289	-0.075557
O8	O	1.080848	0.662553	0.075575
O9	O	0.738105	1.348031	-0.267155
O10	O	1.061674	0.892501	-0.056388
O11	O	0.948883	0.892497	0.056407
O12	O	0.948880	1.118086	-0.169178
O13	O	0.836089	1.118082	-0.056383
Zr14	Zr	1.125805	1.005292	0.120537
Zr15	Zr	1.125801	1.005296	-0.120516
Zr16	Zr	0.884757	1.005287	0.120539
Zr17	Zr	0.884753	1.246339	-0.120509
Zr18	Zr	1.125804	0.764244	0.120532
O19	O	1.080849	1.196892	0.075585
O20	O	1.080844	1.196899	-0.267160
O21	O	0.738110	1.196887	0.075587
O22	O	1.272453	0.813691	0.267181
O23	O	1.272447	0.813697	-0.075565
O24	O	0.929713	0.813685	0.267183
O25	O	1.272448	1.005298	-0.075561
O26	O	1.080852	1.005288	0.267186
O27	O	0.929714	1.005286	0.267187
O28	O	1.272450	1.005295	0.075580
O29	O	0.929706	1.348034	-0.267156
O30	O	1.080851	0.662549	0.267179
O31	O	1.272452	0.662553	0.267178
O32	O	1.272449	0.662556	0.075574
O33	O	0.738108	1.348027	-0.075551
O34	O	0.929709	1.348030	-0.075552
O35	O	1.061678	0.892497	0.169201
O36	O	1.174469	0.892501	0.056405
O37	O	1.061674	1.118086	-0.056384
O38	O	0.948883	1.118082	0.056411
C39	C	1.005278	0.703778	0.000006
C40	C	1.005278	0.601447	0.000004
C41	C	1.064151	0.553373	-0.058874
C42	C	1.064156	0.457214	-0.058864
C43	C	0.946404	0.457215	0.058905
C44	C	0.946407	0.553366	0.058900
C45	C	0.703764	1.005287	0.000014
C46	C	0.601433	1.005285	0.000014
C47	C	0.612232	0.887534	0.058885
C48	C	0.516077	0.887540	0.058886
C49	C	0.398328	1.123059	-0.058864
C50	C	0.494481	1.123051	-0.058858
C51	C	1.306793	1.005297	0.000009
C52	C	1.409124	1.005299	0.000009
C53	C	1.005274	1.005297	-0.301508
C54	C	1.005272	1.005299	-0.403841
C55	C	1.005279	1.306806	0.000017
C56	C	1.005279	1.409137	0.000019
C57	C	0.946404	1.123042	-0.606947
C58	C	0.946394	1.123051	-0.510799
C59	C	1.064155	0.887532	-0.393032
C60	C	1.064158	0.887525	-0.489179
C61	C	1.005283	1.005286	0.301531
C62	C	1.005285	1.005284	0.403864
C63	C	1.306793	0.703783	0.000004
C64	C	1.409124	0.601454	0.000001
C65	C	1.005283	0.703772	0.301525
C66	C	1.005284	0.601440	0.403857
C67	C	1.306797	0.703777	0.301523
C68	C	1.409130	0.601446	0.403854
C69	C	0.703760	1.306806	-0.301500
C70	C	0.601427	1.409137	-0.403831
C71	C	0.703765	1.306800	0.000019
C72	C	0.601434	1.409130	0.000022
C73	C	1.005275	1.306811	-0.301503
C74	C	1.005273	1.409144	-0.403834
C75	C	1.398324	0.553377	-0.058875
C76	C	1.494479	0.457235	-0.058882
C77	C	1.612229	0.457252	0.058873
C78	C	1.516075	0.553399	0.058872
C79	C	1.064162	0.553361	0.510809
C80	C	1.064150	0.457218	0.606956
C81	C	0.946383	0.457235	0.489184
C82	C	0.946388	0.553384	0.393040
C83	C	1.516082	0.553371	0.393053
C84	C	1.612230	0.457228	0.489208
C85	C	1.494461	0.457241	0.606959
C86	C	1.398315	0.553389	0.510806
H87	H	1.112089	0.592517	-0.106829
H88	H	1.112089	0.791657	-0.305939
H89	H	1.112097	0.418073	-0.106806
C90	C	1.527959	0.606286	0.123644
N91	N	1.536908	0.646123	0.172427
C92	C	1.128940	0.606229	0.522713
N93	N	1.177729	0.646050	0.531683
H94	H	0.898433	0.418095	0.480391
C95	C	0.881617	0.606271	0.275381
N96	N	0.832832	0.646107	0.186762
C97	C	1.128926	0.404330	0.724605
N98	N	1.177720	0.364494	0.813220
H99	H	1.485676	0.418097	-0.106826
H100	H	0.898472	0.418056	0.106854
C101	C	0.482598	1.252593	-0.123628
N102	N	0.473649	1.350160	-0.172411
C103	C	0.881628	1.252581	-0.724597
N104	N	0.832829	1.350153	-0.813211
H105	H	0.898464	0.592506	0.106851
C106	C	1.729878	0.404344	0.477318
N107	N	1.818492	0.364510	0.468360
C108	C	1.280679	0.606244	-0.123646
N109	N	1.192069	0.646066	-0.172437
H110	H	1.699319	0.418113	0.106806
H111	H	0.699313	0.791641	0.106835
H112	H	0.524880	0.791655	0.106826
H113	H	1.311224	0.592536	0.519608
H114	H	0.311238	1.218940	-0.106797
H115	H	0.898446	1.218941	-0.519611
H116	H	1.112105	0.791627	-0.480368
H117	H	1.524893	0.592499	0.305972
H118	H	1.485670	0.418099	0.694049
