data_functionalizedCrystal
_audit_creation_method	'MofGen! by Chris Wilmer'
_symmetry_space_group_name_H-M	'P1'
_symmetry_Int_Tables_number	1
_symmetry_cell_setting	triclinic
loop_
_symmetry_equiv_pos_as_xyz
  x,y,z
_cell_length_a	14.519709
_cell_length_b	10.654545
_cell_length_c	9.130313
_cell_angle_alpha	89.997672
_cell_angle_beta	89.995157
_cell_angle_gamma	84.081612
loop_
_atom_site_label
_atom_site_type_symbol
_atom_site_fract_x
_atom_site_fract_y
_atom_site_fract_z
O1	O	0.129512	1.666596	-0.121788
O2	O	0.629512	2.166596	0.378212
O3	O	0.141857	1.300998	-0.121795
O4	O	0.641857	1.800998	0.378205
O5	O	0.001496	1.493491	-0.121778
O6	O	0.501496	1.993491	0.378222
O7	O	0.269873	1.474104	-0.121805
O8	O	0.769873	1.974104	0.378195
O9	O	0.001493	1.493480	0.121821
O10	O	0.501493	1.993480	0.621821
O11	O	0.141854	1.300988	0.121804
O12	O	0.641854	1.800988	0.621804
O13	O	0.129509	1.666586	0.121811
O14	O	0.629509	2.166586	0.621811
Cu15	Cu	0.135681	1.483786	0.144050
Cu16	Cu	0.635681	1.983786	0.644050
Cu17	Cu	0.135685	1.483798	-0.144034
Cu18	Cu	0.635685	1.983798	0.355966
O19	O	0.269870	1.474093	0.121794
O20	O	0.769870	1.974093	0.621794
C21	C	0.140950	1.254204	0.000004
C22	C	0.640950	1.754204	0.500004
C23	C	0.138241	1.114786	0.000002
C24	C	0.638241	1.614786	0.500002
C25	C	0.136964	1.049288	0.132789
C26	C	0.636964	1.549288	0.632789
C27	C	0.134403	0.918293	0.132789
C28	C	0.634403	1.418293	0.632789
C29	C	0.134400	0.918305	-0.132796
C30	C	0.634400	1.418305	0.367204
C31	C	0.136954	1.049299	-0.132795
C32	C	0.636954	1.549299	0.367205
C33	C	-0.032870	1.492582	0.000022
C34	C	0.467130	1.992582	0.500022
C35	C	-0.135265	1.489874	0.000022
C36	C	0.364735	1.989874	0.500022
C37	C	-0.510212	1.479907	-0.000016
C38	C	-0.010212	1.979907	0.499984
C39	C	-0.405890	1.482675	-0.000005
C40	C	0.094110	1.982675	0.499995
C41	C	-0.322742	1.484890	0.000005
C42	C	0.177258	1.984890	0.500005
C43	C	-0.218413	1.487659	0.000013
C44	C	0.281587	1.987659	0.500013
C45	C	0.304236	1.475002	-0.000009
C46	C	0.804236	1.975002	0.499991
C47	C	0.406631	1.477710	-0.000019
C48	C	0.906631	1.977710	0.499981
C49	C	0.130416	1.713380	0.000009
C50	C	0.630416	2.213380	0.500009
C51	C	0.133125	1.852798	0.000001
C52	C	0.633125	2.352798	0.500001
N53	N	0.135679	1.483786	0.346673
N54	N	0.635679	1.983786	0.846673
N55	N	0.135680	1.483808	-0.346657
N56	N	0.635680	1.983808	0.153343
C57	C	0.073550	1.569056	0.576678
C58	C	0.573550	2.069056	1.076678
C59	C	0.073551	1.569048	0.423342
C60	C	0.573551	2.069048	0.923342
C61	C	0.197815	1.398534	0.423348
C62	C	0.697815	1.898534	0.923348
C63	C	0.197818	1.398548	0.576682
C64	C	0.697818	1.898548	1.076682
H65	H	0.133363	0.864970	0.240917
H66	H	0.633363	1.364970	0.740917
H67	H	0.248405	1.329116	0.360915
H68	H	0.748405	1.829116	0.860915
H69	H	0.022955	1.638481	0.639092
H70	H	0.522955	2.138481	1.139092
H71	H	0.022961	1.638466	0.360925
H72	H	0.522961	2.138466	0.860925
O73	O	0.133017	0.847658	-0.276013
O74	O	0.633017	1.347658	0.223987
H75	H	0.070753	0.883852	-0.339669
H76	H	0.570753	1.383852	0.160331
H77	H	0.248416	1.329129	0.639107
H78	H	0.748416	1.829129	1.139107
O79	O	0.138334	1.119958	-0.276020
O80	O	0.638334	1.619958	0.223980
H81	H	0.137025	1.052414	-0.368363
H82	H	0.637025	1.552414	0.131637
H83	H	0.138012	1.102604	0.240920
H84	H	0.638012	1.602604	0.740920
