data_functionalizedCrystal
_audit_creation_method	'MofGen! by Chris Wilmer'
_symmetry_space_group_name_H-M	'P1'
_symmetry_Int_Tables_number	1
_symmetry_cell_setting	triclinic
loop_
_symmetry_equiv_pos_as_xyz
  x,y,z
_cell_length_a	16.959455
_cell_length_b	19.077068
_cell_length_c	19.076919
_cell_angle_alpha	94.470751
_cell_angle_beta	92.282212
_cell_angle_gamma	92.323952
loop_
_atom_site_label
_atom_site_type_symbol
_atom_site_fract_x
_atom_site_fract_y
_atom_site_fract_z
Zn1	Zn	1.176473	-0.296738	-0.409832
Zn2	Zn	1.176375	-0.409891	-0.296677
Zn3	Zn	1.049829	-0.292016	-0.291964
Zn4	Zn	1.038720	-0.414582	-0.414522
O5	O	1.110349	-0.353307	-0.353249
O6	O	1.287070	-0.311761	-0.394831
O7	O	1.164197	-0.390316	-0.197404
O8	O	1.071319	-0.193994	-0.303664
O9	O	1.286998	-0.394894	-0.311696
O10	O	1.164363	-0.197463	-0.390261
O11	O	1.071224	-0.303714	-0.193942
O12	O	0.937746	-0.308262	-0.308212
O13	O	1.052385	-0.402888	-0.512547
O14	O	0.929584	-0.398310	-0.398255
O15	O	1.153591	-0.316309	-0.509101
O16	O	1.153424	-0.509163	-0.316244
O17	O	1.052290	-0.512608	-0.402825
C18	C	1.101662	-0.536465	-0.360570
C19	C	1.098016	-0.614821	-0.363726
C20	C	0.904985	-0.353283	-0.353232
C21	C	0.817127	-0.353290	-0.353242
C22	C	1.148997	-0.649818	-0.320168
C23	C	1.145573	-0.723442	-0.323141
C24	C	1.091164	-0.762069	-0.369668
C25	C	1.040181	-0.727068	-0.413231
C26	C	1.043610	-0.653445	-0.410261
C27	C	1.075263	-0.982454	-0.383382
C28	C	1.071837	-1.056083	-0.386346
C29	C	1.177229	-1.052452	-0.296257
C30	C	1.180650	-0.978827	-0.293289
C31	C	1.129670	-0.943832	-0.336854
N32	N	1.087661	-0.837326	-0.372706
N33	N	1.133178	-0.868578	-0.333819
C34	C	0.449874	-0.306386	-0.306456
C35	C	0.441423	-0.400288	-0.400084
C36	C	0.523970	-0.400277	-0.400080
C37	C	0.569472	-0.353321	-0.353262
C38	C	0.532428	-0.306375	-0.306448
C39	C	0.561020	-0.447227	-0.446887
C40	C	0.643572	-0.447219	-0.446884
C41	C	0.689076	-0.400259	-0.400069
C42	C	0.652027	-0.353311	-0.353254
C43	C	0.697529	-0.306355	-0.306436
C44	C	0.660481	-0.259402	-0.259624
C45	C	0.577932	-0.259415	-0.259633
C46	C	0.771625	-0.400247	-0.400060
C47	C	0.780083	-0.306344	-0.306429
C48	C	1.316516	-0.353331	-0.353266
C49	C	1.404371	-0.353342	-0.353274
C50	C	1.101760	-0.360649	-0.537118
C51	C	1.098099	-0.363777	-0.615472
C52	C	1.119091	-0.169434	-0.345914
C53	C	1.122817	-0.091079	-0.342788
C54	C	1.149070	-0.320172	-0.650490
C55	C	1.145621	-0.323109	-0.724111
C56	C	1.091205	-0.369655	-0.762714
C57	C	1.040229	-0.413262	-0.727691
C58	C	1.043674	-0.410321	-0.654070
C59	C	1.075246	-0.383281	-0.983088
C60	C	1.071806	-0.386221	-1.056714
C61	C	1.177197	-0.296066	-1.053129
C62	C	1.180641	-0.293132	-0.979507
C63	C	1.129663	-0.336737	-0.944491
N64	N	1.087680	-0.372660	-0.837967
N65	N	1.133184	-0.333728	-0.869238
C66	C	1.118953	-0.345943	-0.170093
C67	C	1.122776	-0.342615	-0.091732
H68	H	1.193299	-0.618372	-0.282278
H69	H	0.404370	-0.438521	-0.438197
Br70	Br	0.997948	-0.449392	-1.109103
H71	H	1.218735	-1.080952	-0.260790
H72	H	1.218700	-0.260565	-1.081648
Br73	Br	0.966346	-0.779490	-0.476382
Br74	Br	1.214768	-0.770935	-0.264028
Br75	Br	0.499265	-0.510975	-0.510396
Br76	Br	0.966373	-0.476429	-0.780079
Br77	Br	1.222929	-0.257004	-0.598107
Br78	Br	1.214833	-0.263960	-0.771635
Br79	Br	0.974424	-0.605949	-0.469383
Br80	Br	0.693844	-0.510938	-0.510413
H81	H	0.817126	-0.268102	-0.268307
Br82	Br	0.997978	-1.108505	-0.449482
H83	H	1.224954	-0.947378	-0.255403
Br84	Br	1.006059	-0.442458	-0.935574
Br85	Br	0.399599	-0.242662	-0.242934
H86	H	0.801786	-0.438476	-0.438171
Br87	Br	0.722244	-0.195685	-0.196082
Br88	Br	1.254497	-0.229962	-0.927123
H89	H	1.033752	-0.953968	-0.418853
Br90	Br	0.974493	-0.469498	-0.606545
H91	H	0.547760	-0.221190	-0.221521
