data_functionalizedCrystal
_audit_creation_method	'MofGen! by Chris Wilmer'
_symmetry_space_group_name_H-M	'P1'
_symmetry_Int_Tables_number	1
_symmetry_cell_setting	triclinic
loop_
_symmetry_equiv_pos_as_xyz
  x,y,z
_cell_length_a	16.109301
_cell_length_b	10.654541
_cell_length_c	14.586319
_cell_angle_alpha	89.996435
_cell_angle_beta	89.999213
_cell_angle_gamma	83.972705
loop_
_atom_site_label
_atom_site_type_symbol
_atom_site_fract_x
_atom_site_fract_y
_atom_site_fract_z
O1	O	1.104090	0.161419	-0.076182
O2	O	1.604090	0.661419	0.423818
O3	O	0.862147	0.181508	-0.076196
O4	O	1.362147	0.681508	0.423804
O5	O	0.988682	-0.011352	-0.076183
O6	O	1.488682	0.488648	0.423817
O7	O	0.977554	0.354278	-0.076195
O8	O	1.477554	0.854278	0.423805
O9	O	0.988673	-0.011354	0.076298
O10	O	1.488673	0.488646	0.576298
O11	O	0.862138	0.181505	0.076284
O12	O	1.362138	0.681505	0.576284
O13	O	1.104081	0.161416	0.076299
O14	O	1.604081	0.661416	0.576299
Cu15	Cu	0.983109	0.171460	0.090214
Cu16	Cu	1.483109	0.671460	0.590214
Cu17	Cu	0.983119	0.171464	-0.090112
Cu18	Cu	1.483119	0.671464	0.409888
O19	O	0.977546	0.354276	0.076286
O20	O	1.477546	0.854276	0.576286
C21	C	0.831163	0.180692	0.000042
C22	C	1.331163	0.680692	0.500042
C23	C	0.738853	0.178253	0.000037
C24	C	1.238853	0.678253	0.500037
C25	C	0.517227	0.287019	0.000044
C26	C	1.017227	0.787019	0.500044
C27	C	0.430493	0.284717	0.000050
C28	C	0.930493	0.784717	0.500050
C29	C	0.449008	0.055896	0.000053
C30	C	0.949008	0.555896	0.500053
C31	C	0.535740	0.058200	0.000054
C32	C	1.035740	0.558200	0.500054
C33	C	0.569847	0.173765	0.000045
C34	C	1.069847	0.673765	0.500045
C35	C	0.396381	0.169159	0.000050
C36	C	0.896381	0.669159	0.500050
C37	C	0.302340	0.166662	0.000056
C38	C	0.802340	0.666662	0.500056
C39	C	0.663894	0.176262	0.000040
C40	C	1.163894	0.676262	0.500040
C41	C	0.987861	-0.058140	0.000057
C42	C	1.487861	0.441860	0.500057
C43	C	0.985418	-0.197550	0.000055
C44	C	1.485418	0.302450	0.500055
C45	C	1.136725	-0.227574	0.000076
C46	C	1.636725	0.272426	0.500076
C47	C	1.211227	-0.308079	0.000088
C48	C	1.711227	0.191921	0.500088
C49	C	1.208926	-0.439066	0.000085
C50	C	1.708926	0.060934	0.500085
C51	C	1.132115	-0.489549	0.000067
C52	C	1.632115	0.010451	0.500067
C53	C	1.057613	-0.409044	0.000055
C54	C	1.557613	0.090956	0.500055
C55	C	1.059922	-0.278056	0.000060
C56	C	1.559922	0.221944	0.500060
C57	C	0.906308	-0.379021	0.000027
C58	C	1.406308	0.120979	0.500027
C59	C	0.908607	-0.248034	0.000037
C60	C	1.408607	0.251966	0.500037
C61	C	0.829496	-0.429504	0.000010
C62	C	1.329496	0.070496	0.500010
C63	C	0.754992	-0.348998	0.000004
C64	C	1.254992	0.151002	0.500004
C65	C	0.757296	-0.218004	0.000008
C66	C	1.257296	0.281996	0.500008
C67	C	0.834104	-0.167529	0.000025
C68	C	1.334104	0.332471	0.500025
C69	C	1.135065	0.162231	0.000058
C70	C	1.635065	0.662231	0.500058
C71	C	1.227375	0.164671	0.000058
C72	C	1.727375	0.664671	0.500058
C73	C	0.978367	0.401064	0.000044
C74	C	1.478367	0.901064	0.500044
C75	C	0.980810	0.540474	0.000040
C76	C	1.480810	1.040474	0.500040
N77	N	0.983107	0.171457	0.217046
N78	N	1.483107	0.671457	0.717046
N79	N	0.983127	0.171457	-0.216944
N80	N	1.483127	0.671457	0.283056
C81	C	1.039156	0.086088	0.452058
C82	C	1.539156	0.586088	0.952058
C83	C	1.039158	0.086085	0.548040
C84	C	1.539158	0.586085	1.048040
C85	C	0.927072	0.256830	0.548037
C86	C	1.427072	0.756830	1.048037
C87	C	0.927067	0.256826	0.452058
C88	C	1.427067	0.756826	0.952058
C89	C	0.983113	0.171457	0.404071
C90	C	1.483113	0.671457	0.904071
C91	C	0.983121	0.171457	0.596032
C92	C	1.483121	0.671457	1.096032
C93	C	0.983123	0.171455	0.700099
C94	C	1.483123	0.671455	1.200099
C95	C	0.983110	0.171457	0.299997
C96	C	1.483110	0.671457	0.799997
H97	H	0.578586	-0.034032	0.000057
H98	H	1.078586	0.465968	0.500057
Br99	Br	1.128994	-0.667318	-0.000009
Br100	Br	1.628994	-0.167318	0.499991
H101	H	0.421227	-0.038193	0.000067
H102	H	0.921227	0.461807	0.500067
Br103	Br	1.139853	-0.049806	0.000106
Br104	Br	1.639853	0.450194	0.500106
H105	H	1.273765	-0.266961	0.000110
H106	H	1.773765	0.233039	0.500110
H107	H	1.269593	-0.504614	0.000087
H108	H	1.769593	-0.004614	0.500087
H109	H	0.827628	-0.536161	0.000001
H110	H	1.327628	-0.036161	0.500001
Br111	Br	0.650760	-0.417518	-0.000035
Br112	Br	1.150760	0.082482	0.499965
H113	H	1.084791	0.016573	0.412990
H114	H	1.584791	0.516573	0.912990
H115	H	0.696627	-0.152463	-0.000006
H116	H	1.196627	0.347537	0.499994
Br117	Br	0.837237	0.010239	0.000040
Br118	Br	1.337237	0.510239	0.500040
Br119	Br	1.115215	-0.029783	0.613164
Br120	Br	1.615215	0.470217	1.113164
Br121	Br	0.851014	0.372688	0.613166
Br122	Br	1.351014	0.872688	1.113166
Br123	Br	0.850997	0.372682	0.386924
Br124	Br	1.350997	0.872682	0.886924
H125	H	0.544993	0.381120	0.000043
H126	H	1.044993	0.881120	0.500043
H127	H	0.387652	0.376940	0.000051
H128	H	0.887652	0.876940	0.500051
