data_functionalizedCrystal
_audit_creation_method	'MofGen! by Chris Wilmer'
_symmetry_space_group_name_H-M	'P1'
_symmetry_Int_Tables_number	1
_symmetry_cell_setting	triclinic
loop_
_symmetry_equiv_pos_as_xyz
  x,y,z
_cell_length_a	12.827893
_cell_length_b	16.120484
_cell_length_c	12.827885
_cell_angle_alpha	87.136072
_cell_angle_beta	90.019272
_cell_angle_gamma	92.925431
loop_
_atom_site_label
_atom_site_type_symbol
_atom_site_fract_x
_atom_site_fract_y
_atom_site_fract_z
Zn1	Zn	1.576504	-0.331866	0.611895
Zn2	Zn	2.076504	0.168134	1.111895
Zn3	Zn	1.567505	-0.471301	0.445998
Zn4	Zn	2.067505	0.028699	0.945998
Zn5	Zn	1.401742	-0.331907	0.437171
Zn6	Zn	1.901742	0.168093	0.937171
Zn7	Zn	1.392841	-0.471239	0.620694
Zn8	Zn	1.892841	0.028761	1.120694
O9	O	1.484648	-0.401579	0.528940
O10	O	1.984648	0.098421	1.028940
O11	O	1.721545	-0.350372	0.589900
O12	O	2.221545	0.149628	1.089900
O13	O	1.545475	-0.452853	0.298594
O14	O	2.045475	0.047147	0.798594
O15	O	1.432416	-0.215236	0.452972
O16	O	1.932416	0.284764	0.952972
O17	O	1.714934	-0.452814	0.468017
O18	O	2.214934	0.047186	0.968017
O19	O	1.560812	-0.215206	0.581341
O20	O	2.060812	0.284794	1.081341
O21	O	1.423690	-0.350441	0.292109
O22	O	1.923690	0.149559	0.792109
O23	O	1.254326	-0.350381	0.461505
O24	O	1.754326	0.149619	0.961505
O25	O	1.417245	-0.452708	0.765761
O26	O	1.917245	0.047292	1.265761
O27	O	1.247787	-0.452748	0.596338
O28	O	1.747787	0.047252	1.096338
O29	O	1.552181	-0.350311	0.759296
O30	O	2.052181	0.149689	1.259296
O31	O	1.536844	-0.587959	0.476549
O32	O	2.036844	-0.087959	0.976549
O33	O	1.408520	-0.587913	0.604897
O34	O	1.908520	-0.087913	1.104897
C35	C	1.213139	-0.401562	0.528919
C36	C	1.713139	0.098438	1.028919
C37	C	1.096985	-0.401576	0.528936
C38	C	1.596985	0.098424	1.028936
C39	C	1.041987	-0.452309	0.595563
C40	C	1.541987	0.047691	1.095563
C41	C	0.921936	-0.452324	0.595582
C42	C	1.421936	0.047676	1.095582
C43	C	1.470768	-0.618186	0.542658
C44	C	1.970768	-0.118186	1.042658
C45	C	1.464925	-0.710851	0.548562
C46	C	1.964925	-0.210851	1.048562
C47	C	1.454265	-0.880512	0.559362
C48	C	1.954265	-0.380512	1.059362
C49	C	1.515219	-0.921804	0.498534
C50	C	2.015219	-0.421804	0.998534
C51	C	1.509287	-1.016209	0.504544
C52	C	2.009287	-0.516209	1.004544
C53	C	1.460195	-0.786099	0.553355
C54	C	1.960195	-0.286099	1.053355
C55	C	1.757217	-0.401595	0.528962
C56	C	2.257217	0.098405	1.028962
C57	C	1.873370	-0.401602	0.528971
C58	C	2.373370	0.098398	1.028971
C59	C	1.484724	-0.401498	0.801505
C60	C	1.984724	0.098502	1.301505
C61	C	1.484757	-0.401464	0.917656
C62	C	1.984757	0.098536	1.417656
C63	C	1.498611	-0.184125	0.515191
C64	C	1.998611	0.315875	1.015191
C65	C	1.504561	-0.091460	0.509332
C66	C	2.004561	0.408540	1.009332
C67	C	1.484636	-0.401598	0.257431
C68	C	1.984636	0.098402	0.757431
C69	C	1.484821	-0.401397	0.141266
C70	C	1.984821	0.098603	0.641266
C71	C	1.551535	-0.350785	0.966241
C72	C	2.051535	0.149215	1.466241
C73	C	1.551570	-0.350749	1.086289
C74	C	2.051570	0.149251	1.586289
H75	H	1.571857	-0.886255	0.441944
H76	H	2.071857	-0.386255	0.941944
Cl77	Cl	1.106500	-0.519360	0.683609
Cl78	Cl	1.606500	-0.019360	1.183609
Cl79	Cl	0.848937	-0.519393	0.683650
Cl80	Cl	1.348937	-0.019393	1.183650
Cl81	Cl	0.946361	-0.334541	0.440889
Cl82	Cl	1.446361	0.165459	0.940889
H83	H	1.608676	-0.307421	0.918962
H84	H	2.108676	0.192579	1.418962
Cl85	Cl	1.032472	-0.334524	0.440891
Cl86	Cl	1.532472	0.165476	0.940891
Cl87	Cl	1.366821	-0.935395	0.646725
Cl88	Cl	1.866821	-0.435395	1.146725
H89	H	1.608744	-0.307363	1.128084
H90	H	2.108744	0.192637	1.628084
Cl91	Cl	1.396551	-0.468396	1.076752
Cl92	Cl	1.896551	0.031604	1.576752
Cl93	Cl	1.396519	-0.468410	0.990643
Cl94	Cl	1.896519	0.031590	1.490643
