data_functionalizedCrystal
_audit_creation_method	'MofGen! by Chris Wilmer'
_symmetry_space_group_name_H-M	'P1'
_symmetry_Int_Tables_number	1
_symmetry_cell_setting	triclinic
loop_
_symmetry_equiv_pos_as_xyz
  x,y,z
_cell_length_a	16.109301
_cell_length_b	9.730223
_cell_length_c	16.109301
_cell_angle_alpha	90.002753
_cell_angle_beta	83.461532
_cell_angle_gamma	89.997841
loop_
_atom_site_label
_atom_site_type_symbol
_atom_site_fract_x
_atom_site_fract_y
_atom_site_fract_z
O1	O	1.103127	0.114219	0.106865
O2	O	0.861065	0.114239	0.120164
O3	O	0.988746	0.114214	-0.007517
O4	O	0.975446	0.114243	0.234545
O5	O	0.988744	-0.114366	-0.007514
O6	O	0.861064	-0.114341	0.120167
O7	O	1.103125	-0.114361	0.106868
Zn8	Zn	0.982094	-0.150643	0.113518
Zn9	Zn	0.982096	0.150521	0.113514
O10	O	0.975445	-0.114337	0.234548
C11	C	0.830089	-0.000049	0.119627
C12	C	0.737794	-0.000042	0.118011
C13	C	0.428796	-0.000057	0.188494
C14	C	0.515516	-0.000049	0.190020
C15	C	0.535389	-0.000049	0.038531
C16	C	0.448671	-0.000047	0.037007
C17	C	0.395376	-0.000059	0.111991
C18	C	0.568815	-0.000052	0.115041
C19	C	0.662841	-0.000043	0.116694
C20	C	0.301344	-0.000065	0.110338
N21	N	0.982099	-0.356180	0.113520
C22	C	1.038650	-0.428117	0.057002
C23	C	1.038648	-0.571999	0.056992
C24	C	0.925541	-0.571996	0.170025
C25	C	0.925540	-0.428116	0.170031
C26	C	1.095210	-0.356181	0.000492
C27	C	1.151766	-0.428118	-0.056030
C28	C	1.151764	-0.572000	-0.056040
C29	C	1.095206	-0.643946	0.000472
C30	C	1.134101	-0.000071	0.107405
C31	C	1.226396	-0.000069	0.109020
C32	C	0.988206	-0.000076	-0.038490
C33	C	0.986591	-0.000078	-0.130785
N34	N	0.982098	0.356057	0.113505
C35	C	1.058599	-0.000062	-0.353058
C36	C	1.057075	-0.000051	-0.439778
C37	C	0.905586	-0.000044	-0.419904
C38	C	0.907111	-0.000046	-0.333185
C39	C	0.983620	-0.000062	-0.299765
C40	C	0.980571	-0.000049	-0.473204
C41	C	0.978918	-0.000036	-0.567230
C42	C	0.985273	-0.000072	-0.205733
C43	C	0.975984	-0.000043	0.265522
C44	C	0.977599	-0.000032	0.357817
H45	H	0.542722	-0.000047	0.252317
H46	H	0.421461	-0.000044	-0.025296
O47	O	1.206583	-0.641943	-0.111027
C48	C	1.162081	-0.725187	-0.162330
H49	H	1.096518	-0.681822	-0.163757
H50	H	1.157714	-0.834233	-0.136318
C51	C	1.288460	-0.780652	-0.249829
C52	C	1.207937	-0.727384	-0.251587
H53	H	1.316747	-0.782014	-0.304886
H54	H	1.318443	-0.724574	-0.215263
H55	H	1.284810	-0.871519	-0.228148
H56	H	1.211589	-0.636513	-0.273257
H57	H	1.177956	-0.783447	-0.286158
O58	O	0.587075	-0.000230	-0.034360
C59	C	0.571944	-0.118629	-0.080806
H60	H	0.506157	-0.158096	-0.060375
H61	H	0.619375	-0.201528	-0.069453
C62	C	0.661015	-0.034192	-0.199569
C63	C	0.580210	-0.082659	-0.174481
H64	H	0.666117	-0.012008	-0.257352
H65	H	0.671212	0.045573	-0.168277
H66	H	0.700531	-0.103283	-0.190102
H67	H	0.540696	-0.013564	-0.183939
H68	H	0.570007	-0.162413	-0.205777
H69	H	1.095218	-0.239024	0.000496
O70	O	1.206802	-0.358361	-0.110891
C71	C	1.289105	-0.393468	-0.097354
H72	H	1.289015	-0.497945	-0.065325
H73	H	1.314793	-0.312495	-0.055950
C74	C	1.344540	-0.271744	-0.221102
C75	C	1.344431	-0.400071	-0.181769
H76	H	1.378669	-0.275811	-0.273172
H77	H	1.289091	-0.248087	-0.230220
H78	H	1.365944	-0.204280	-0.186590
H79	H	1.323017	-0.467528	-0.216276
H80	H	1.399877	-0.423739	-0.172658
O81	O	1.129986	-0.000117	-0.491428
C82	C	1.197837	-0.000094	-0.443330
H83	H	1.176717	-0.043373	-0.378604
H84	H	1.221289	0.109564	-0.437156
C85	C	1.294743	-0.036582	-0.566065
C86	C	1.268804	-0.089749	-0.486569
H87	H	1.338521	-0.091880	-0.592737
H88	H	1.249031	-0.036592	-0.598470
H89	H	1.314280	0.054799	-0.560908
H90	H	1.249258	-0.181121	-0.491727
H91	H	1.314514	-0.089756	-0.454165
H92	H	1.095203	-0.761106	0.000453
H93	H	0.879494	-0.630584	0.216036
H94	H	0.385405	-0.000065	0.249551
O95	O	0.870578	-0.358440	0.225014
C96	C	0.820650	-0.452782	0.274883
H97	H	0.854732	-0.555349	0.275832
H98	H	0.758900	-0.468078	0.247865
C99	C	0.761623	-0.270647	0.363403
C100	C	0.803487	-0.396619	0.364575
H101	H	0.751033	-0.236003	0.418728
H102	H	0.795259	-0.207086	0.329804
H103	H	0.710170	-0.283411	0.340884
H104	H	0.854944	-0.383851	0.387083
H105	H	0.769860	-0.460177	0.398180
O106	O	0.831322	0.000142	-0.452471
C107	C	0.825895	0.118541	-0.502019
H108	H	0.891429	0.158009	-0.523635
H109	H	0.789102	0.201439	-0.463693
C110	C	0.700657	0.034101	-0.552164
C111	C	0.781146	0.082570	-0.578719
H112	H	0.673050	0.011916	-0.599475
H113	H	0.704310	-0.045664	-0.518780
H114	H	0.670006	0.103191	-0.520225
H115	H	0.811799	0.013475	-0.610648
H116	H	0.777497	0.162323	-0.612111
H117	H	1.120897	-0.000073	-0.325850
H118	H	0.846050	-0.000041	-0.289791
