data_functionalizedCrystal
_audit_creation_method	'MofGen! by Chris Wilmer'
_symmetry_space_group_name_H-M	'P1'
_symmetry_Int_Tables_number	1
_symmetry_cell_setting	triclinic
loop_
_symmetry_equiv_pos_as_xyz
  x,y,z
_cell_length_a	16.625548
_cell_length_b	19.121063
_cell_length_c	16.625539
_cell_angle_alpha	87.589626
_cell_angle_beta	90.017055
_cell_angle_gamma	92.470058
loop_
_atom_site_label
_atom_site_type_symbol
_atom_site_fract_x
_atom_site_fract_y
_atom_site_fract_z
Zn1	Zn	1.218929	-0.279606	0.469578
Zn2	Zn	1.552263	0.053727	0.802911
Zn3	Zn	1.885596	0.387061	1.136244
Zn4	Zn	1.213076	-0.397060	0.340487
Zn5	Zn	1.546410	-0.063727	0.673820
Zn6	Zn	1.879743	0.269607	1.007153
Zn7	Zn	1.084098	-0.279629	0.334759
Zn8	Zn	1.417432	0.053704	0.668093
Zn9	Zn	1.750765	0.387038	1.001426
Zn10	Zn	1.078299	-0.397023	0.475275
Zn11	Zn	1.411632	-0.063690	0.808608
Zn12	Zn	1.744965	0.269643	1.141941
O13	O	1.148601	-0.338330	0.405025
O14	O	1.481934	-0.004996	0.738358
O15	O	1.815267	0.328337	1.071691
O16	O	1.330985	-0.295192	0.452466
O17	O	1.664318	0.038141	0.785800
O18	O	1.997652	0.371474	1.119133
O19	O	1.195945	-0.381507	0.226896
O20	O	1.529278	-0.048174	0.560229
O21	O	1.862611	0.285159	0.893562
O22	O	1.106861	-0.181341	0.347862
O23	O	1.440194	0.151992	0.681196
O24	O	1.773527	0.485325	1.014529
O25	O	1.326685	-0.381485	0.357624
O26	O	1.660018	-0.048152	0.690957
O27	O	1.993351	0.285182	1.024290
O28	O	1.205920	-0.181324	0.446913
O29	O	1.539254	0.152009	0.780246
O30	O	1.872587	0.485342	1.113579
O31	O	1.101185	-0.295231	0.222688
O32	O	1.434518	0.038102	0.556021
O33	O	1.767852	0.371435	0.889355
O34	O	0.970497	-0.295196	0.353386
O35	O	1.303830	0.038137	0.686720
O36	O	1.637164	0.371471	1.020053
O37	O	1.096976	-0.381423	0.587350
O38	O	1.430309	-0.048090	0.920684
O39	O	1.763643	0.285244	1.254017
O40	O	0.966236	-0.381445	0.456622
O41	O	1.299569	-0.048112	0.789956
O42	O	1.632903	0.285222	1.123289
O43	O	1.200297	-0.295157	0.583165
O44	O	1.533630	0.038176	0.916498
O45	O	1.866964	0.371510	1.249831
O46	O	1.190321	-0.495340	0.363148
O47	O	1.523654	-0.162007	0.696481
O48	O	1.856988	0.171327	1.029814
O49	O	1.091301	-0.495313	0.462176
O50	O	1.424634	-0.161980	0.795509
O51	O	1.757967	0.171354	1.128843
C52	C	0.939110	-0.338320	0.405002
C53	C	1.272444	-0.004986	0.738335
C54	C	1.605777	0.328347	1.071668
C55	C	0.849489	-0.338332	0.405012
C56	C	1.182822	-0.004999	0.738345
C57	C	1.516155	0.328334	1.071678
C58	C	0.521313	-0.338337	0.405046
C59	C	0.854646	-0.005003	0.738380
C60	C	1.187979	0.328330	1.071713
C61	C	0.612621	-0.338334	0.405034
C62	C	0.945955	-0.005000	0.738367
C63	C	1.279288	0.328333	1.071701
C64	C	0.685398	-0.338335	0.405028
C65	C	1.018731	-0.005002	0.738362
C66	C	1.352064	0.328332	1.071695
C67	C	0.776712	-0.338331	0.405017
C68	C	1.110046	-0.004998	0.738351
C69	C	1.443379	0.328336	1.071684
C70	C	1.139568	-0.520811	0.413919
C71	C	1.472902	-0.187477	0.747252
C72	C	1.806235	0.145856	1.080586
C73	C	1.135778	-0.598877	0.417751
C74	C	1.469111	-0.265543	0.751084
C75	C	1.802444	0.067790	1.084418
C76	C	1.185592	-0.635543	0.368035
C77	C	1.518925	-0.302210	0.701369
C78	C	1.852258	0.031124	1.034702
C79	C	1.182032	-0.708894	0.371644
C80	C	1.515365	-0.375561	0.704977
C81	C	1.848698	-0.042228	1.038311
C82	C	1.128653	-0.745578	0.424965
C83	C	1.461986	-0.412245	0.758298
C84	C	1.795320	-0.078911	1.091632
C85	C	1.078837	-0.708907	0.474686
C86	C	1.412170	-0.375573	0.808019
C87	C	1.745504	-0.042240	1.141353
C88	C	1.082402	-0.635557	0.471081
C89	C	1.415735	-0.302223	0.804414
C90	C	1.749068	0.031110	1.137748
C91	C	1.115313	-0.967048	0.438432
C92	C	1.448646	-0.633715	0.771765
C93	C	1.781979	-0.300382	1.105098
C94	C	1.111750	-1.040404	0.442031
C95	C	1.445083	-0.707070	0.775365
C96	C	1.778417	-0.373737	1.108698
C97	C	1.214946	-1.040386	0.338990
C98	C	1.548279	-0.707053	0.672323
C99	C	1.881613	-0.373720	1.005657
C100	C	1.218503	-0.967035	0.335386
C101	C	1.551836	-0.633701	0.668719
C102	C	1.885169	-0.300368	1.002053
C103	C	1.168690	-0.930370	0.385110
C104	C	1.502023	-0.597036	0.718443
C105	C	1.835356	-0.263703	1.051777
C106	C	1.125011	-0.820555	0.428653
C107	C	1.458344	-0.487222	0.761987
C108	C	1.791678	-0.153888	1.095320
C109	C	1.172336	-0.855394	0.381425
C110	C	1.505670	-0.522061	0.714759
C111	C	1.839003	-0.188727	1.048092
C112	C	1.358909	-0.338340	0.405048
C113	C	1.692242	-0.005007	0.738382
C114	C	2.025576	0.328326	1.071715
C115	C	1.448530	-0.338345	0.405058
C116	C	1.781863	-0.005011	0.738392
C117	C	2.115197	0.328322	1.071725
C118	C	1.148642	-0.338283	0.615331
C119	C	1.481976	-0.004950	0.948665
C120	C	1.815309	0.328383	1.281998
C121	C	1.148660	-0.338264	0.704952
C122	C	1.481994	-0.004930	1.038285
C123	C	1.815327	0.328403	1.371618
C124	C	1.157690	-0.155136	0.396113
C125	C	1.491024	0.178197	0.729446
C126	C	1.824357	0.511531	1.062780
C127	C	1.161564	-0.077070	0.392316
C128	C	1.494897	0.256263	0.725649
C129	C	1.828231	0.589597	1.058982
C130	C	1.148608	-0.338325	0.195534
C131	C	1.481941	-0.004992	0.528867
C132	C	1.815275	0.328342	0.862200
C133	C	1.148756	-0.338147	0.105904
C134	C	1.482089	-0.004814	0.439238
C135	C	1.815423	0.328520	0.772571
C136	C	1.148674	-0.338248	0.777733
C137	C	1.482008	-0.004915	1.111067
C138	C	1.815341	0.328419	1.444400
C139	C	1.148694	-0.338222	0.869041
C140	C	1.482028	-0.004888	1.202374
C141	C	1.815361	0.328445	1.535707
C142	C	1.148715	-0.338197	0.941816
C143	C	1.482048	-0.004864	1.275149
C144	C	1.815381	0.328470	1.608482
C145	C	1.148736	-0.338172	1.033129
C146	C	1.482069	-0.004838	1.366462
C147	C	1.815403	0.328495	1.699796
H148	H	1.222595	-0.738745	0.331160
H149	H	1.555928	-0.405411	0.664493
H150	H	1.889262	-0.072078	0.997826
O151	O	1.268687	-1.079940	0.285387
O152	O	1.602020	-0.746607	0.618720
O153	O	1.935354	-0.413274	0.952053
H154	H	1.231010	-1.113422	0.245978
H155	H	1.564343	-0.780088	0.579311
H156	H	1.897676	-0.446755	0.912645
H157	H	1.261968	-0.937168	0.291968
H158	H	1.595301	-0.603835	0.625301
H159	H	1.928634	-0.270502	0.958635
H160	H	1.068292	-1.070270	0.485466
H161	H	1.401626	-0.736936	0.818799
H162	H	1.734959	-0.403603	1.152132
O163	O	1.061564	-0.927506	0.492035
O164	O	1.394897	-0.594173	0.825368
O165	O	1.728231	-0.260839	1.158701
H166	H	1.023835	-0.965340	0.529702
H167	H	1.357169	-0.632006	0.863035
H168	H	1.690502	-0.298673	1.196368
O169	O	1.021253	-0.748467	0.532190
O170	O	1.354586	-0.415134	0.865523
O171	O	1.687920	-0.081801	1.198856
H172	H	1.027132	-0.805633	0.526336
H173	H	1.360466	-0.472300	0.859669
H174	H	1.693799	-0.138966	1.193003
H175	H	1.041839	-0.605704	0.511566
H176	H	1.375172	-0.272370	0.844899
H177	H	1.708506	0.060963	1.178232
O178	O	1.229918	-0.815828	0.323929
O179	O	1.563251	-0.482495	0.657262
O180	O	1.896585	-0.149162	0.990595
H181	H	1.195479	-0.782459	0.281233
H182	H	1.528813	-0.449125	0.614566
H183	H	1.862146	-0.115792	0.947900
O184	O	1.067426	-0.860128	0.486146
O185	O	1.400759	-0.526794	0.819479
O186	O	1.734093	-0.193461	1.152813
H187	H	1.101862	-0.893503	0.528838
H188	H	1.435196	-0.560170	0.862171
H189	H	1.768529	-0.226836	1.195504
H190	H	1.229055	-0.605680	0.324612
H191	H	1.562388	-0.272347	0.657946
H192	H	1.895722	0.060987	0.991279
