data_functionalizedCrystal
_audit_creation_method	'MofGen! by Chris Wilmer'
_symmetry_space_group_name_H-M	'P1'
_symmetry_Int_Tables_number	1
_symmetry_cell_setting	triclinic
loop_
_symmetry_equiv_pos_as_xyz
  x,y,z
_cell_length_a	19.077105
_cell_length_b	17.077402
_cell_length_c	19.077271
_cell_angle_alpha	87.673975
_cell_angle_beta	90.107074
_cell_angle_gamma	92.279266
loop_
_atom_site_label
_atom_site_type_symbol
_atom_site_fract_x
_atom_site_fract_y
_atom_site_fract_z
Zn1	Zn	1.058274	0.340278	0.440431
Zn2	Zn	1.558274	0.840278	0.940431
Zn3	Zn	1.062914	0.477024	0.322924
Zn4	Zn	1.562914	0.977024	0.822924
Zn5	Zn	0.945491	0.340717	0.318222
Zn6	Zn	1.445491	0.840717	0.818222
Zn7	Zn	0.940736	0.466443	0.435679
Zn8	Zn	1.440736	0.966443	0.935679
O9	O	1.001854	0.406115	0.379314
O10	O	1.501854	0.906115	0.879314
O11	O	1.157222	0.362662	0.428800
O12	O	1.657222	0.862662	0.928800
O13	O	1.051269	0.463554	0.223967
O14	O	1.551269	0.963554	0.723967
O15	O	0.960501	0.230813	0.334455
O16	O	1.460501	0.730813	0.834455
O17	O	1.160630	0.463128	0.342468
O18	O	1.660630	0.963128	0.842468
O19	O	1.043362	0.230490	0.424241
O20	O	1.543362	0.730490	0.924241
O21	O	0.964999	0.363409	0.220513
O22	O	1.464999	0.863409	0.720513
O23	O	0.846529	0.353150	0.329846
O24	O	1.346529	0.853150	0.829846
O25	O	0.952396	0.445096	0.534642
O26	O	1.452396	0.945096	1.034642
O27	O	0.843035	0.445521	0.416141
O28	O	1.343035	0.945521	0.916141
O29	O	1.038751	0.352403	0.538134
O30	O	1.538751	0.852403	1.038134
O31	O	1.046658	0.585466	0.337860
O32	O	1.546658	1.085466	0.837860
O33	O	0.956895	0.577693	0.420700
O34	O	1.456895	1.077693	0.920700
C35	C	0.819285	0.398236	0.371968
C36	C	1.319285	0.898236	0.871968
C37	C	0.741181	0.394883	0.368842
C38	C	1.241181	0.894883	0.868842
C39	C	1.001782	0.610061	0.379290
C40	C	1.501782	1.110061	0.879290
C41	C	1.001815	0.697312	0.379306
C42	C	1.501815	1.197312	0.879306
C43	C	0.994526	0.397520	0.562598
C44	C	1.494526	0.897520	1.062598
C45	C	0.991403	0.393858	0.640702
C46	C	1.491403	0.893858	1.140702
C47	C	0.702690	0.441480	0.412232
C48	C	1.202690	0.941480	0.912232
C49	C	0.629303	0.438319	0.409298
C50	C	1.129303	0.938319	0.909298
C51	C	0.594408	0.388565	0.362971
C52	C	1.094408	0.888565	0.862971
C53	C	0.632905	0.341963	0.319579
C54	C	1.132905	0.841963	0.819579
C55	C	0.706290	0.345120	0.322517
C56	C	1.206290	0.845120	0.822517
C57	C	0.375121	0.373953	0.349378
C58	C	0.875121	0.873953	0.849378
C59	C	0.301730	0.370801	0.346442
C60	C	0.801730	0.870801	0.846442
C61	C	0.298133	0.467156	0.436162
C62	C	0.798133	0.967156	0.936162
C63	C	0.371521	0.470312	0.439093
C64	C	0.871521	0.970312	0.939093
C65	C	0.410010	0.423707	0.395704
C66	C	0.910010	0.923707	0.895704
N67	N	0.519395	0.385335	0.359969
N68	N	1.019395	0.885335	0.859969
N69	N	0.485022	0.426934	0.398709
N70	N	0.985022	0.926934	0.898709
C71	C	1.185135	0.414026	0.386689
C72	C	1.685135	0.914026	0.886689
C73	C	1.263239	0.417397	0.389832
C74	C	1.763239	0.917397	0.889832
C75	C	1.048598	0.742323	0.336223
C76	C	1.548598	1.242323	0.836223
C77	C	1.048629	0.824304	0.336245
C78	C	1.548629	1.324304	0.836245
C79	C	1.001874	0.861272	0.379348
C80	C	1.501874	1.361272	0.879348
C81	C	0.955089	0.816255	0.422436
C82	C	1.455089	1.316255	0.922436
C83	C	0.955062	0.734275	0.422417
C84	C	1.455062	1.234275	0.922417
C85	C	0.955149	0.987126	0.422472
C86	C	1.455149	1.487126	0.922472
C87	C	0.955176	1.069111	0.422490
C88	C	1.455176	1.569111	0.922490
C89	C	1.048717	1.077154	0.336300
C90	C	1.548717	1.577154	0.836300
C91	C	1.048689	0.995175	0.336281
C92	C	1.548689	1.495175	0.836281
C93	C	1.001903	0.950163	0.379368
C94	C	1.501903	1.450163	0.879368
C95	C	1.001938	1.201373	0.379363
C96	C	1.501938	1.701373	0.879363
C97	C	1.001959	1.114122	0.379406
C98	C	1.501959	1.614122	0.879406
C99	C	1.009194	0.414622	0.196745
C100	C	1.509194	0.914622	0.696745
C101	C	1.012453	0.418070	0.118646
C102	C	1.512453	0.918070	0.618646
C103	C	0.969006	0.367650	1.080156
C104	C	1.469006	0.867650	1.580156
C105	C	0.971944	0.371088	1.006769
C106	C	1.471944	0.871088	1.506769
C107	C	1.018324	0.424951	0.971872
C108	C	1.518324	0.924951	1.471872
C109	C	1.061776	0.475374	1.010368
C110	C	1.561776	0.975374	1.510368
C111	C	1.058841	0.471930	1.083754
C112	C	1.558841	0.971930	1.583754
C113	C	1.031920	0.440837	0.752584
C114	C	1.531920	0.940837	1.252584
C115	C	1.034850	0.444277	0.679192
C116	C	1.534850	0.944277	1.179192
C117	C	0.945018	0.339991	0.675598
C118	C	1.445018	0.839991	1.175598
C119	C	0.942085	0.336556	0.748986
C120	C	1.442085	0.836556	1.248986
C121	C	0.985539	0.386975	0.787475
C122	C	1.485539	0.886975	1.287475
N123	N	1.021327	0.428469	0.896859
N124	N	1.521327	0.928469	1.396859
N125	N	0.982539	0.383453	0.862488
N126	N	1.482539	0.883453	1.362488
H127	H	0.731096	0.481997	0.449955
H128	H	1.231096	0.981997	0.949955
H129	H	0.931236	0.323790	1.108563
H130	H	1.431236	0.823790	1.608563
H131	H	1.086724	0.860949	0.301162
H132	H	1.586724	1.360949	0.801162
H133	H	0.917024	0.846360	0.457534
H134	H	1.417024	1.346360	0.957534
C135	C	0.903602	0.684763	0.469810
C136	C	1.403602	1.184763	0.969810
H137	H	0.875757	0.718520	0.495480
H138	H	1.375757	1.218520	0.995480
H139	H	0.929224	0.652465	0.501521
H140	H	1.429224	1.152465	1.001521
H141	H	0.874068	0.652766	0.441665
H142	H	1.374068	1.152766	0.941665
C143	C	0.924155	0.315623	0.964433
C144	C	1.424155	0.815623	1.464433
H145	H	0.896108	0.283057	0.995726
H146	H	1.396108	0.783057	1.495726
H147	H	0.952199	0.283925	0.936896
H148	H	1.452199	0.783925	1.436896
H149	H	0.894666	0.345671	0.934564
H150	H	1.394666	0.845671	1.434564
H151	H	1.094221	0.512987	1.115092
H152	H	1.594221	1.012987	1.615092
C153	C	0.903748	1.109778	0.469900
C154	C	1.403748	1.609778	0.969900
H155	H	0.910461	1.165049	0.463731
H156	H	1.410461	1.665049	0.963731
H157	H	0.912101	1.094544	0.517532
H158	H	1.412101	1.594544	1.017532
H159	H	0.856949	1.094840	0.457673
H160	H	1.356949	1.594840	0.957673
C161	C	0.903688	0.937614	0.469870
C162	C	1.403688	1.437614	0.969870
H163	H	0.875843	0.971371	0.495539
H164	H	1.375843	1.471371	0.995539
H165	H	0.929309	0.905316	0.501581
H166	H	1.429309	1.405316	1.001581
H167	H	0.874155	0.905619	0.441723
H168	H	1.374155	1.405619	0.941723
H169	H	0.597966	0.476263	0.444630
H170	H	1.097966	0.976263	0.944630
C171	C	0.891070	0.277302	0.787367
C172	C	1.391070	0.777302	1.287367
H173	H	0.865619	0.247760	0.753932
H174	H	1.365619	0.747760	1.253932
H175	H	0.859294	0.304660	0.814759
H176	H	1.359294	0.804660	1.314759
H177	H	0.916829	0.242917	0.817081
H178	H	1.416829	0.742917	1.317081
C179	C	0.255793	0.518408	0.483892
C180	C	0.755793	1.018408	0.983892
H181	H	0.207089	0.509399	0.475514
H182	H	0.707089	1.009399	0.975514
H183	H	0.268214	0.572135	0.474010
H184	H	0.768214	1.072135	0.974010
H185	H	0.265947	0.505296	0.531607
H186	H	0.765947	1.005296	1.031607
C187	C	0.897230	0.284528	0.633260
C188	C	1.397230	0.784528	1.133260
H189	H	0.905623	0.294286	0.584556
H190	H	1.405623	0.794286	1.084556
H191	H	0.849530	0.293406	0.643384
H192	H	1.349530	0.793406	1.143384
H193	H	0.907067	0.231666	0.645712
H194	H	1.407067	0.731666	1.145712
H195	H	1.099543	0.519227	0.981950
H196	H	1.599543	1.019227	1.481950
H197	H	1.072635	0.488126	0.650783
H198	H	1.572635	0.988126	1.150783
C199	C	0.409899	0.525036	0.490058
C200	C	0.909899	1.025036	0.990058
H201	H	0.376464	0.552330	0.515484
H202	H	0.876464	1.052330	1.015484
H203	H	0.439589	0.561685	0.464271
H204	H	0.939589	1.061685	0.964271
H205	H	0.437315	0.494848	0.521870
H206	H	0.937315	0.994848	1.021870
H207	H	0.273321	0.330276	0.308720
H208	H	0.773321	0.830276	0.808720
C209	C	1.100119	0.954511	0.288870
C210	C	1.600119	1.454511	0.788870
H211	H	1.127991	0.993058	0.263216
H212	H	1.627991	1.493058	0.763216
H213	H	1.074478	0.922848	0.257145
H214	H	1.574478	1.422848	0.757145
H215	H	1.129628	0.922548	0.317006
H216	H	1.629628	1.422548	0.817006
C217	C	0.748634	0.293866	0.274789
C218	C	1.248634	0.793866	0.774789
H219	H	0.797337	0.302866	0.283179
H220	H	1.297337	0.802866	0.783179
H221	H	0.738484	0.306965	0.227075
H222	H	1.238484	0.806965	0.727075
H223	H	0.736210	0.240137	0.284683
H224	H	1.236210	0.740137	0.784683
H225	H	1.086814	1.113807	0.301219
H226	H	1.586814	1.613807	0.801219
C227	C	1.079705	0.496309	0.794912
C228	C	1.579705	0.996309	1.294912
H229	H	1.107738	0.528887	0.763616
H230	H	1.607738	1.028887	1.263616
H231	H	1.109197	0.466273	0.824781
H232	H	1.609197	0.966273	1.324781
H233	H	1.051653	0.528006	0.822448
H234	H	1.551653	1.028006	1.322448
H235	H	0.604487	0.301449	0.281861
H236	H	1.104487	0.801449	0.781861
C237	C	0.417451	0.322704	0.301639
C238	C	0.917451	0.822704	0.801639
H239	H	0.386157	0.292631	0.273621
H240	H	0.886157	0.792631	0.773621
H241	H	0.445022	0.288513	0.329710
H242	H	0.945022	0.788513	0.829710
H243	H	0.447284	0.355359	0.272119
H244	H	0.947284	0.855359	0.772119
H245	H	1.086668	0.712229	0.301121
H246	H	1.586668	1.212229	0.801121
