data_functionalizedCrystal
_audit_creation_method	'MofGen! by Chris Wilmer'
_symmetry_space_group_name_H-M	'P1'
_symmetry_Int_Tables_number	1
_symmetry_cell_setting	triclinic
loop_
_symmetry_equiv_pos_as_xyz
  x,y,z
_cell_length_a	17.019372
_cell_length_b	15.500227
_cell_length_c	14.971496
_cell_angle_alpha	92.830747
_cell_angle_beta	96.495192
_cell_angle_gamma	88.970414
loop_
_atom_site_label
_atom_site_type_symbol
_atom_site_fract_x
_atom_site_fract_y
_atom_site_fract_z
O1	O	1.046474	-0.005950	-0.114266
O2	O	1.379807	0.327383	0.219068
O3	O	1.713141	0.660717	0.552401
O4	O	0.817694	0.011082	-0.127820
O5	O	1.151027	0.344415	0.205514
O6	O	1.484360	0.677748	0.538847
O7	O	0.938211	0.002102	0.009146
O8	O	1.271545	0.335435	0.342479
O9	O	1.604878	0.668769	0.675812
O10	O	0.925956	0.003030	-0.251231
O11	O	1.259290	0.336363	0.082103
O12	O	1.592623	0.669696	0.415436
O13	O	0.930898	-0.141242	0.000867
O14	O	1.264231	0.192091	0.334200
O15	O	1.597565	0.525425	0.667534
O16	O	0.810380	-0.132262	-0.136098
O17	O	1.143714	0.201071	0.197235
O18	O	1.477047	0.534404	0.530568
O19	O	1.039161	-0.149294	-0.122544
O20	O	1.372494	0.184040	0.210789
O21	O	1.705827	0.517373	0.544122
Cu22	Cu	0.924103	-0.153866	-0.130077
Cu23	Cu	1.257436	0.179467	0.203256
Cu24	Cu	1.590769	0.512800	0.536589
Cu25	Cu	0.932752	0.015654	-0.120287
Cu26	Cu	1.266085	0.348988	0.213047
Cu27	Cu	1.599418	0.682321	0.546380
O28	O	0.918643	-0.140314	-0.259509
O29	O	1.251976	0.193019	0.073824
O30	O	1.585310	0.526352	0.407157
C31	C	0.784759	-0.058411	-0.131283
C32	C	1.118092	0.274923	0.202050
C33	C	1.451425	0.608256	0.535384
C34	C	0.697519	-0.051916	-0.129258
C35	C	1.030852	0.281417	0.204076
C36	C	1.364186	0.614750	0.537409
C37	C	0.204314	-0.011208	-0.117545
C38	C	0.537647	0.322125	0.215789
C39	C	0.870981	0.655458	0.549122
C40	C	0.286285	-0.017322	-0.119448
C41	C	0.619618	0.316011	0.213885
C42	C	0.952951	0.649344	0.547218
C43	C	0.323275	-0.098516	-0.124919
C44	C	0.656608	0.234817	0.208414
C45	C	0.989941	0.568150	0.541747
C46	C	0.278291	-0.173602	-0.128478
C47	C	0.611624	0.159731	0.204855
C48	C	0.944957	0.493065	0.538189
C49	C	0.196322	-0.167487	-0.126568
C50	C	0.529656	0.165846	0.206765
C51	C	0.862989	0.499179	0.540099
C52	C	0.570567	-0.120887	-0.130906
C53	C	0.903900	0.212446	0.202427
C54	C	1.237233	0.545779	0.535760
C55	C	0.652541	-0.126996	-0.132819
C56	C	0.985874	0.206337	0.200514
C57	C	1.319207	0.539670	0.533848
C58	C	0.660529	0.029284	-0.123787
C59	C	0.993863	0.362618	0.209546
C60	C	1.327196	0.695951	0.542879
C61	C	0.578558	0.035392	-0.121883
C62	C	0.911892	0.368725	0.211450
C63	C	1.245225	0.702058	0.544784
C64	C	0.533582	-0.039694	-0.125437
C65	C	0.866915	0.293639	0.207896
C66	C	1.200249	0.626973	0.541230
C67	C	0.407061	-0.104768	-0.126868
C68	C	0.740395	0.228566	0.206465
C69	C	1.073728	0.561899	0.539799
C70	C	0.449798	-0.033442	-0.123482
C71	C	0.783131	0.299891	0.209851
C72	C	1.116464	0.633225	0.543185
N73	N	0.918025	-0.273099	-0.136963
N74	N	1.251359	0.060235	0.196371
N75	N	1.584692	0.393568	0.529704
C76	C	0.969111	-0.322182	-0.078947
C77	C	1.302444	0.011152	0.254386
C78	C	1.635777	0.344485	0.587719
C79	C	0.964522	-0.412412	-0.084163
C80	C	1.297855	-0.079079	0.249170
C81	C	1.631188	0.254254	0.582504
C82	C	0.908850	-0.453559	-0.147399
C83	C	1.242184	-0.120226	0.185934
C84	C	1.575517	0.213108	0.519267
C85	C	0.857760	-0.404469	-0.205417
C86	C	1.191093	-0.071136	0.127916
C87	C	1.524426	0.262197	0.461249
C88	C	0.862346	-0.314240	-0.200197
C89	C	1.195679	0.019094	0.133137
C90	C	1.529012	0.352427	0.466470
C91	C	0.892330	-0.725795	-0.166191
C92	C	1.225664	-0.392462	0.167142
C93	C	1.558997	-0.059128	0.500475
C94	C	0.887750	-0.816031	-0.171409
C95	C	1.221083	-0.482698	0.161924
C96	C	1.554417	-0.149365	0.495257
C97	C	0.994511	-0.823968	-0.050154
C98	C	1.327845	-0.490635	0.283180
C99	C	1.661178	-0.157301	0.616513
C100	C	0.999095	-0.733737	-0.044942
C101	C	1.332429	-0.400403	0.288391
C102	C	1.665762	-0.067070	0.621724
C103	C	0.948002	-0.684655	-0.102957
C104	C	1.281335	-0.351321	0.230376
C105	C	1.614669	-0.017988	0.563710
C106	C	0.904160	-0.545789	-0.152734
C107	C	1.237493	-0.212456	0.180599
C108	C	1.570827	0.120877	0.513933
C109	C	0.952689	-0.592426	-0.097617
C110	C	1.286022	-0.259092	0.235716
C111	C	1.619356	0.074241	0.569049
C112	C	1.072096	-0.079800	-0.119081
C113	C	1.405429	0.253534	0.214252
C114	C	1.738762	0.586867	0.547586
C115	C	1.159336	-0.086288	-0.121106
C116	C	1.492669	0.247045	0.212228
C117	C	1.826003	0.580378	0.545561
C118	C	0.934005	-0.069529	0.038332
C119	C	1.267339	0.263804	0.371665
C120	C	1.600672	0.597137	0.704998
C121	C	0.932359	-0.069407	0.137631
C122	C	1.265692	0.263926	0.470965
C123	C	1.599025	0.597260	0.804298
N124	N	0.938835	0.134886	-0.113394
N125	N	1.272169	0.468219	0.219939
N126	N	1.605502	0.801552	0.553273
C127	C	0.922849	-0.068681	-0.288696
C128	C	1.256183	0.264652	0.044638
C129	C	1.589516	0.597986	0.377971
C130	C	0.924496	-0.068798	-0.387995
C131	C	1.257830	0.264536	-0.054661
C132	C	1.591163	0.597869	0.278672
C133	C	0.929258	0.009280	0.569862
C134	C	1.262591	0.342613	0.903195
C135	C	1.595925	0.675947	1.236528
C136	C	0.930809	0.009161	0.476560
C137	C	1.264143	0.342494	0.809893
C138	C	1.597476	0.675827	1.143226
C139	C	0.927593	-0.069037	0.425402
C140	C	1.260926	0.264297	0.758735
C141	C	1.594260	0.597630	1.092069
C142	C	0.922833	-0.147121	0.467552
C143	C	1.256166	0.186213	0.800885
C144	C	1.589500	0.519546	1.134219
C145	C	0.921288	-0.147001	0.560853
C146	C	1.254621	0.186333	0.894186
C147	C	1.587954	0.519666	1.227520
C148	C	0.926053	-0.147365	0.273083
C149	C	1.259386	0.185969	0.606416
C150	C	1.592719	0.519302	0.939749
C151	C	0.927597	-0.147485	0.179775
C152	C	1.260930	0.185849	0.513108
C153	C	1.594263	0.519182	0.846441
C154	C	0.935574	0.008797	0.188789
C155	C	1.268908	0.342130	0.522123
C156	C	1.602241	0.675463	0.855456
C157	C	0.934029	0.008917	0.282090
C158	C	1.267362	0.342250	0.615424
C159	C	1.600696	0.675583	0.948757
C160	C	0.929268	-0.069167	0.324234
C161	C	1.262601	0.264166	0.657567
C162	C	1.595934	0.597499	0.990900
H163	H	0.308415	-0.239712	-0.132927
H164	H	0.641748	0.093621	0.200406
H165	H	0.975082	0.426954	0.533740
Cl166	Cl	0.936797	0.107320	0.423584
Cl167	Cl	1.270131	0.440653	0.756917
Cl168	Cl	1.603464	0.773986	1.090250
H169	H	1.006119	-0.452376	-0.036922
H170	H	1.339452	-0.119042	0.296411
H171	H	1.672785	0.214291	0.629745
H172	H	0.437188	-0.170876	-0.131324
H173	H	0.770521	0.162457	0.202009
H174	H	1.103854	0.495790	0.535342
Cl175	Cl	0.787768	-0.456194	-0.284911
Cl176	Cl	1.121102	-0.122861	0.048422
Cl177	Cl	1.454435	0.210473	0.381755
H178	H	0.697158	0.090414	-0.120893
H179	H	1.030491	0.423748	0.212441
H180	H	1.363824	0.757081	0.545774
H181	H	0.850729	-0.685839	-0.213431
H182	H	1.184063	-0.352506	0.119902
H183	H	1.517396	-0.019173	0.453236
Cl184	Cl	0.938067	0.107224	0.346401
Cl185	Cl	1.271400	0.440557	0.679735
Cl186	Cl	1.604733	0.773890	1.013068
Cl187	Cl	0.933296	0.107592	0.634165
Cl188	Cl	1.266629	0.440925	0.967498
Cl189	Cl	1.599963	0.774258	1.300831
H190	H	0.924953	-0.211158	0.138121
H191	H	1.258286	0.122175	0.471454
H192	H	1.591619	0.455509	0.804787
H193	H	0.820746	-0.274277	-0.247438
H194	H	1.154079	0.059057	0.085896
H195	H	1.487412	0.392390	0.419229
Cl196	Cl	1.069084	-0.682010	0.034554
Cl197	Cl	1.402417	-0.348676	0.367888
Cl198	Cl	1.735750	-0.015343	0.701221
H199	H	0.858833	-0.579298	-0.204224
H200	H	1.192166	-0.245965	0.129110
H201	H	1.525499	0.087368	0.462443
H202	H	1.014447	-0.288687	-0.027458
H203	H	1.347780	0.044647	0.305876
H204	H	1.681114	0.377980	0.639209
Cl205	Cl	0.699041	-0.229077	-0.139696
Cl206	Cl	1.032375	0.104256	0.193637
Cl207	Cl	1.365708	0.437590	0.526971
H208	H	0.159701	-0.228625	-0.129477
H209	H	0.493034	0.104708	0.203856
H210	H	0.826367	0.438041	0.537189
Cl211	Cl	0.157820	0.090870	-0.110673
Cl212	Cl	0.491153	0.424203	0.222661
Cl213	Cl	0.824487	0.757537	0.555994
Cl214	Cl	0.941520	0.106962	0.135804
Cl215	Cl	1.274854	0.440296	0.469137
Cl216	Cl	1.608187	0.773629	0.802471
Cl217	Cl	0.403296	0.068627	-0.116590
Cl218	Cl	0.736630	0.401960	0.216743
Cl219	Cl	1.069963	0.735294	0.550076
Cl220	Cl	0.915306	-0.245160	0.613834
Cl221	Cl	1.248639	0.088173	0.947168
Cl222	Cl	1.581973	0.421507	1.280501
Cl223	Cl	1.058736	-0.885674	0.022778
Cl224	Cl	1.392070	-0.552341	0.356111
Cl225	Cl	1.725403	-0.219008	0.689445
Cl226	Cl	0.532063	0.137469	-0.115006
Cl227	Cl	0.865396	0.470802	0.218328
Cl228	Cl	1.198729	0.804135	0.551661
Cl229	Cl	0.342826	0.077069	-0.114967
Cl230	Cl	0.676159	0.410402	0.218367
Cl231	Cl	1.009493	0.743735	0.551700
H232	H	0.922177	-0.210949	0.307393
H233	H	1.255510	0.122384	0.640726
H234	H	1.588843	0.455718	0.974059
H235	H	0.533958	-0.182028	-0.133787
H236	H	0.867291	0.151306	0.199546
H237	H	1.200625	0.484639	0.532879
Cl238	Cl	0.817758	-0.867752	-0.250916
Cl239	Cl	1.151091	-0.534419	0.082418
Cl240	Cl	1.484424	-0.201085	0.415751
Cl241	Cl	1.022671	-0.540698	-0.018120
Cl242	Cl	1.356004	-0.207364	0.315213
Cl243	Cl	1.689338	0.125969	0.648547
Cl244	Cl	0.918794	-0.245427	0.403240
Cl245	Cl	1.252128	0.087906	0.736573
Cl246	Cl	1.585461	0.421240	1.069906
