data_functionalizedCrystal
_audit_creation_method	'MofGen! by Chris Wilmer'
_symmetry_space_group_name_H-M	'P1'
_symmetry_Int_Tables_number	1
_symmetry_cell_setting	triclinic
loop_
_symmetry_equiv_pos_as_xyz
  x,y,z
_cell_length_a	19.188925
_cell_length_b	19.188930
_cell_length_c	16.053802
_cell_angle_alpha	92.551696
_cell_angle_beta	87.426601
_cell_angle_gamma	83.143665
loop_
_atom_site_label
_atom_site_type_symbol
_atom_site_fract_x
_atom_site_fract_y
_atom_site_fract_z
O1	O	0.929103	0.084200	-0.069456
O2	O	0.725791	0.095938	-0.069455
O3	O	0.833313	-0.011586	-0.069439
O4	O	0.821580	0.191724	-0.069472
O5	O	0.827395	-0.005692	0.069419
O6	O	0.719873	0.101832	0.069403
O7	O	0.923185	0.090094	0.069402
Zn8	Zn	0.820589	0.096899	0.091449
Zn9	Zn	0.828387	0.089133	-0.091502
O10	O	0.815662	0.197618	0.069386
C11	C	0.696821	0.098505	-0.000026
C12	C	0.619316	0.097366	-0.000025
C13	C	0.057546	0.152830	-0.000036
C14	C	0.130370	0.153906	-0.000040
C15	C	0.175304	0.090815	-0.000029
C16	C	0.147410	0.026641	-0.000034
C17	C	0.074588	0.025566	-0.000038
N18	N	0.293966	0.047145	0.047247
N19	N	0.363143	0.048170	0.047252
C20	C	0.394712	0.094049	-0.000019
N21	N	0.354490	0.138874	-0.047286
N22	N	0.285306	0.137851	-0.047287
C23	C	0.254268	0.091973	-0.000025
C24	C	0.501562	0.159385	-0.000025
C25	C	0.574387	0.160459	-0.000035
C26	C	0.591426	0.033192	-0.000020
C27	C	0.518602	0.032120	-0.000019
C28	C	0.473674	0.095219	-0.000017
C29	C	0.829974	-0.034650	-0.000008
C30	C	0.828833	-0.112154	-0.000001
C31	C	0.891924	-0.157079	0.000003
C32	C	0.890853	-0.229904	-0.000011
C33	C	0.826687	-0.257799	-0.000011
C34	C	0.763588	-0.212864	-0.000019
C35	C	0.764661	-0.140042	-0.000014
N36	N	0.775625	-0.363797	0.047245
N37	N	0.774610	-0.432976	0.047242
C38	C	0.823449	-0.477208	-0.000028
N39	N	0.873353	-0.449650	-0.047284
N40	N	0.874370	-0.380465	-0.047278
C41	C	0.825516	-0.336762	-0.000017
C42	C	0.885383	-0.601098	-0.000040
C43	C	0.884310	-0.673924	-0.000058
C44	C	0.757042	-0.656883	-0.000059
C45	C	0.758118	-0.584059	-0.000048
C46	C	0.822290	-0.556171	-0.000035
C47	C	0.952155	0.087526	-0.000029
C48	C	1.029660	0.088665	-0.000036
C49	C	0.819002	0.220682	-0.000047
C50	C	0.820143	0.298186	-0.000060
N51	N	0.815273	0.102198	0.216309
N52	N	0.833709	0.083828	-0.216362
C53	C	0.861040	0.056463	0.260009
C54	C	0.857328	0.060176	0.347415
C55	C	0.807850	0.109629	0.391119
C56	C	0.762078	0.155367	0.347413
C57	C	0.765788	0.151649	0.260008
C58	C	0.791646	0.125848	0.652527
C59	C	0.787941	0.129563	0.739937
C60	C	0.883190	0.034371	0.739934
C61	C	0.886898	0.030661	0.652528
C62	C	0.841124	0.076396	0.608829
N63	N	0.804056	0.113428	0.480463
N64	N	0.844915	0.072594	0.519487
H65	H	0.495897	-0.020130	-0.000014
Br66	Br	0.945309	-0.027696	0.799243
Br67	Br	0.652400	-0.052435	-0.000022
Br68	Br	0.676505	-0.250721	-0.000030
H69	H	0.721789	0.195630	0.383001
Br70	Br	0.703667	0.213717	0.200700
H71	H	0.153079	0.206159	-0.000032
H72	H	0.927187	-0.009607	0.616946
Br73	Br	0.928196	-0.010651	0.200706
H74	H	0.051884	-0.026686	-0.000038
H75	H	0.935688	-0.710502	-0.000060
Br76	Br	0.979015	-0.119236	-0.000002
H77	H	0.020970	0.204210	-0.000038
Br78	Br	0.672490	-0.523085	-0.000053
Br79	Br	0.972471	-0.563246	-0.000013
H80	H	0.464979	0.210764	-0.000026
Br81	Br	0.208390	-0.058985	-0.000025
Br82	Br	0.669958	-0.694733	-0.000067
H83	H	0.894595	0.022934	0.382996
Br84	Br	0.720790	0.196687	0.799245
Br85	Br	0.729526	0.187916	0.593225
Br86	Br	0.976482	-0.290886	-0.000009
Br87	Br	0.612234	0.247547	-0.000047
H88	H	0.713283	-0.103463	-0.000017
