data_functionalizedCrystal
_audit_creation_method	'MofGen! by Chris Wilmer'
_symmetry_space_group_name_H-M	'P1'
_symmetry_Int_Tables_number	1
_symmetry_cell_setting	triclinic
loop_
_symmetry_equiv_pos_as_xyz
  x,y,z
_cell_length_a	18.101398
_cell_length_b	18.101397
_cell_length_c	18.101389
_cell_angle_alpha	90.022030
_cell_angle_beta	90.008593
_cell_angle_gamma	90.018533
loop_
_atom_site_label
_atom_site_type_symbol
_atom_site_fract_x
_atom_site_fract_y
_atom_site_fract_z
Zn1	Zn	-1.132159	0.295010	-0.418509
Zn2	Zn	-1.132071	0.418836	-0.294660
Zn3	Zn	-1.008318	0.295001	-0.294704
Zn4	Zn	-1.008284	0.418803	-0.418482
O5	O	-1.070208	0.356912	-0.356589
O6	O	-1.235780	0.311453	-0.402073
O7	O	-1.115632	0.402419	-0.191033
O8	O	-1.024796	0.191370	-0.311157
O9	O	-1.235715	0.402427	-0.311081
O10	O	-1.115782	0.191376	-0.402116
O11	O	-1.024711	0.311438	-0.191066
O12	O	-0.904681	0.311406	-0.311131
O13	O	-1.024740	0.402371	-0.522119
O14	O	-0.904656	0.402363	-0.402070
O15	O	-1.115750	0.311421	-0.522139
O16	O	-1.115599	0.522464	-0.311055
O17	O	-1.024654	0.522440	-0.402027
C18	C	-0.877797	0.356881	-0.356603
C19	C	-0.795483	0.356885	-0.356627
C20	C	-0.496392	0.356925	-0.356602
C21	C	-0.527727	0.414429	-0.413535
C22	C	-0.613345	0.414250	-0.413768
C23	C	-0.644775	0.356906	-0.356614
C24	C	-0.613710	0.278907	-0.377948
C25	C	-0.528065	0.279251	-0.378354
C26	C	-0.527942	0.376732	-0.278197
C27	C	-0.613593	0.378445	-0.278614
C28	C	-0.728634	0.356890	-0.356620
C29	C	-0.412533	0.356935	-0.356598
C30	C	-1.070134	0.549323	-0.356550
C31	C	-1.070170	0.631637	-0.356558
C32	C	-1.070251	0.356894	-0.549751
C33	C	-1.070269	0.356886	-0.632065
C34	C	-0.263370	0.356941	-0.356580
C35	C	-0.345684	0.356945	-0.356589
C36	C	-1.070204	0.782345	-0.356573
C37	C	-1.127479	0.813683	-0.299390
C38	C	-1.127330	0.899302	-0.299174
C39	C	-1.070239	0.930728	-0.356589
C40	C	-0.992140	0.899701	-0.335598
C41	C	-0.992451	0.814056	-0.335174
C42	C	-1.090354	0.813855	-0.434895
C43	C	-1.092097	0.899505	-0.434486
C44	C	-1.070255	1.014588	-0.356598
C45	C	-1.070184	0.698486	-0.356562
C46	C	-1.070285	1.163751	-0.356628
C47	C	-1.070274	1.081436	-0.356604
C48	C	-1.070312	0.356747	-0.931156
C49	C	-1.012854	0.413788	-0.899819
C50	C	-1.013009	0.414053	-0.814200
C51	C	-1.070290	0.356816	-0.782774
C52	C	-1.148318	0.378007	-0.813857
C53	C	-1.147998	0.378381	-0.899502
C54	C	-1.050421	0.278388	-0.899591
C55	C	-1.048685	0.278840	-0.813940
C56	C	-1.070282	0.356853	-0.698914
C57	C	-1.070325	0.356711	-1.015016
C58	C	-1.070208	0.356878	-0.164179
C59	C	-1.070333	0.356677	-0.081865
H60	H	-0.507119	0.472458	-0.400314
F61	F	-0.934852	0.926308	-0.388368
F62	F	-0.969478	0.927790	-0.261600
F63	F	-0.936995	0.396629	-0.926741
H64	H	-0.506215	0.401491	-0.471292
F65	F	-0.640145	0.397122	-0.489698
H66	H	-1.146324	0.792208	-0.454033
H67	H	-1.192279	0.337766	-0.793501
F68	F	-0.501970	0.257292	-0.453272
H69	H	-1.053450	0.920894	-0.479362
F70	F	-1.170741	0.452083	-0.785821
H71	H	-0.633904	0.435840	-0.262525
H72	H	-0.634988	0.339602	-0.233915
F73	F	-0.640799	0.489858	-0.396315
H74	H	-1.025857	0.471516	-0.921337
F75	F	-1.030210	0.489963	-0.787415
H76	H	-0.507338	0.234871	-0.338788
H77	H	-0.991263	0.262860	-0.793625
F78	F	-1.170036	0.453253	-0.925613
F79	F	-1.105121	0.222838	-0.926080
F80	F	-0.977341	0.253154	-0.927824
H81	H	-1.185237	0.920278	-0.312284
H82	H	-0.955149	0.400791	-0.793185
H83	H	-1.113987	0.919832	-0.241145
H84	H	-1.087480	0.234085	-0.792548
H85	H	-1.149572	0.919779	-0.450318
H86	H	-0.634069	0.234901	-0.337773
H87	H	-1.114291	0.792198	-0.241688
H88	H	-0.635173	0.261802	-0.434641
F89	F	-1.035842	0.787353	-0.490584
F90	F	-1.205821	0.326402	-0.926601
F91	F	-0.499691	0.449795	-0.252853
F92	F	-0.934758	0.786960	-0.387257
F93	F	-1.203392	0.786713	-0.316325
F94	F	-0.970161	0.788000	-0.260351
F95	F	-0.501455	0.321986	-0.222749
