data_functionalizedCrystal
_audit_creation_method	'MofGen! by Chris Wilmer'
_symmetry_space_group_name_H-M	'P1'
_symmetry_Int_Tables_number	1
_symmetry_cell_setting	triclinic
loop_
_symmetry_equiv_pos_as_xyz
  x,y,z
_cell_length_a	15.944551
_cell_length_b	19.288865
_cell_length_c	18.366186
_cell_angle_alpha	89.988521
_cell_angle_beta	89.995445
_cell_angle_gamma	83.317493
loop_
_atom_site_label
_atom_site_type_symbol
_atom_site_fract_x
_atom_site_fract_y
_atom_site_fract_z
O1	O	1.114185	0.089583	-0.060482
O2	O	1.614185	0.589583	0.439518
O3	O	0.869592	0.100628	-0.060501
O4	O	1.369592	0.600628	0.439499
O5	O	0.998956	-0.006006	-0.060477
O6	O	1.498956	0.493994	0.439523
O7	O	0.984821	0.196217	-0.060507
O8	O	1.484821	0.696217	0.439493
O9	O	0.998934	-0.006012	0.060622
O10	O	1.498934	0.493988	0.560622
O11	O	0.869570	0.100622	0.060598
O12	O	1.369570	0.600622	0.560598
O13	O	1.114163	0.089578	0.060617
O14	O	1.614163	0.589578	0.560617
Zn15	Zn	0.991863	0.095099	0.079835
Zn16	Zn	1.491863	0.595099	0.579835
Zn17	Zn	0.991892	0.095106	-0.079719
Zn18	Zn	1.491892	0.595106	0.420281
O19	O	0.984799	0.196212	0.060593
O20	O	1.484799	0.696212	0.560593
C21	C	0.998490	-0.031887	0.000075
C22	C	1.498490	0.468113	0.500075
C23	C	0.997125	-0.108994	0.000081
C24	C	1.497125	0.391006	0.500081
C25	C	0.838289	0.100167	0.000046
C26	C	1.338289	0.600167	0.500046
C27	C	0.745048	0.098792	0.000039
C28	C	1.245048	0.598792	0.500039
C29	C	1.073030	-0.153490	0.000091
C30	C	1.573030	0.346510	0.500091
C31	C	1.071747	-0.225941	0.000079
C32	C	1.571747	0.274059	0.500079
C33	C	0.994555	-0.253891	0.000073
C34	C	1.494555	0.246109	0.500073
C35	C	0.918641	-0.209385	0.000059
C36	C	1.418641	0.290615	0.500059
C37	C	0.919925	-0.136936	0.000063
C38	C	1.419925	0.363064	0.500063
C39	C	0.933866	-0.362341	0.042486
C40	C	1.433866	0.137659	0.542486
C41	C	0.932584	-0.434788	0.042486
C42	C	1.432584	0.065212	0.542486
C43	C	0.990589	-0.477347	0.000056
C44	C	1.490589	0.022653	0.500056
C45	C	1.049890	-0.447451	-0.042365
C46	C	1.549890	0.052549	0.457635
C47	C	1.051175	-0.375003	-0.042361
C48	C	1.551175	0.124997	0.457639
C49	C	0.993153	-0.332449	0.000067
C50	C	1.493153	0.167551	0.500067
C51	C	1.065108	-0.600404	0.000052
C52	C	1.565108	-0.100404	0.500052
C53	C	1.063822	-0.672855	0.000036
C54	C	1.563822	-0.172855	0.500036
C55	C	0.910714	-0.656298	0.000023
C56	C	1.410714	-0.156298	0.500023
C57	C	0.912002	-0.583848	0.000032
C58	C	1.412002	-0.083848	0.500032
C59	C	0.989201	-0.555906	0.000050
C60	C	1.489201	-0.055906	0.500050
C61	C	0.530459	0.029410	0.000064
C62	C	1.030459	0.529410	0.500064
C63	C	0.469326	0.061631	-0.059649
C64	C	0.969326	0.561631	0.440351
C65	C	0.574332	0.096305	0.000048
C66	C	1.074332	0.596305	0.500048
C67	C	0.469326	0.061642	0.059745
C68	C	0.969326	0.561642	0.559745
C69	C	0.409429	0.093898	0.000060
C70	C	0.909429	0.593898	0.500060
C71	C	0.514427	0.128545	-0.059714
C72	C	1.014427	0.628545	0.440286
C73	C	0.514434	0.128546	0.059734
C74	C	1.014434	0.628546	0.559734
C75	C	0.453318	0.160816	0.000006
C76	C	0.953318	0.660816	0.500006
C77	C	0.669329	0.097690	0.000041
C78	C	1.169329	0.597690	0.500041
C79	C	0.314433	0.092519	0.000062
C80	C	0.814433	0.592519	0.500062
C81	C	1.145466	0.090039	0.000068
C82	C	1.645466	0.590039	0.500068
C83	C	1.238706	0.091414	0.000070
C84	C	1.738706	0.591414	0.500070
C85	C	0.985265	0.222092	0.000039
C86	C	1.485265	0.722092	0.500039
C87	C	0.986630	0.299199	0.000028
C88	C	1.486630	0.799199	0.500028
N89	N	0.991849	0.095094	0.188726
N90	N	1.491849	0.595094	0.688726
N91	N	0.991912	0.095106	-0.188610
N92	N	1.491912	0.595106	0.311390
C93	C	1.049150	0.047900	0.226837
C94	C	1.549150	0.547900	0.726837
C95	C	1.049156	0.047897	0.303065
C96	C	1.549156	0.547897	0.803065
C97	C	0.991868	0.095100	0.341178
C98	C	1.491868	0.595100	0.841178
C99	C	0.934556	0.142298	0.303058
C100	C	1.434556	0.642298	0.803058
C101	C	0.934547	0.142295	0.226832
C102	C	1.434547	0.642295	0.726832
C103	C	0.980624	0.158358	0.461929
C104	C	1.480624	0.658358	0.961929
C105	C	0.980639	0.158362	0.538154
C106	C	1.480639	0.658362	1.038154
C107	C	0.991892	0.095109	0.576286
C108	C	1.491892	0.595109	1.076286
C109	C	1.003148	0.031849	0.538184
C110	C	1.503148	0.531849	1.038184
C111	C	1.003138	0.031846	0.461957
C112	C	1.503138	0.531846	0.961957
C113	C	0.991871	0.095108	0.423833
C114	C	1.491871	0.595108	0.923833
C115	C	1.049202	0.047907	0.697052
C116	C	1.549202	0.547907	1.197052
C117	C	1.049201	0.047903	0.773281
C118	C	1.549201	0.547903	1.273281
C119	C	0.934606	0.142310	0.773273
C120	C	1.434606	0.642310	1.273273
C121	C	0.934603	0.142308	0.697045
C122	C	1.434603	0.642308	1.197045
C123	C	0.991905	0.095107	0.658939
C124	C	1.491905	0.595107	1.158939
H125	H	1.133560	-0.262177	0.000084
H126	H	1.633560	0.237823	0.500084
H127	H	0.858113	-0.100707	0.000056
H128	H	1.358113	0.399293	0.500056
O129	O	0.540964	0.165983	0.126596
O130	O	1.040964	0.665983	0.626596
H131	H	0.484499	0.183179	0.160201
H132	H	0.984499	0.683179	0.660201
H133	H	0.419945	0.216391	-0.000035
H134	H	0.919945	0.716391	0.499965
O135	O	0.872745	0.193198	0.185714
O136	O	1.372745	0.693198	0.685714
H137	H	0.883240	0.247354	0.200321
H138	H	1.383240	0.747354	0.700321
O139	O	1.148369	-0.570259	0.000063
O140	O	1.648369	-0.070259	0.500063
H141	H	1.152619	-0.537629	-0.049289
H142	H	1.652619	-0.037629	0.450711
H143	H	0.887946	0.180741	0.666013
H144	H	1.387946	0.680741	1.166013
H145	H	1.012310	-0.019658	0.569229
H146	H	1.512310	0.480342	1.069229
O147	O	0.442856	0.024154	0.126621
O148	O	0.942856	0.524154	0.626621
H149	H	0.474069	-0.030370	0.126498
H150	H	0.974069	0.469630	0.626498
H151	H	0.534315	0.156820	-0.110252
H152	H	1.034315	0.656820	0.389748
H153	H	0.449334	0.033339	-0.110125
H154	H	0.949334	0.533339	0.389875
H155	H	1.095807	0.009465	0.195813
H156	H	1.595807	0.509465	0.695813
O157	O	0.830129	-0.535853	0.000029
O158	O	1.330129	-0.035853	0.500029
H159	H	0.843990	-0.480780	0.000028
H160	H	1.343990	0.019220	0.500028
H161	H	0.971479	0.209872	0.569171
H162	H	1.471479	0.709872	1.069171
O163	O	0.574829	-0.044152	0.000026
O164	O	1.074829	0.455848	0.500026
H165	H	0.556876	-0.071758	-0.049602
H166	H	1.056876	0.428242	0.450398
H167	H	0.884294	-0.459123	0.077024
H168	H	1.384294	0.040877	0.577024
O169	O	1.110969	-0.003000	0.344185
O170	O	1.610969	0.497000	0.844185
H171	H	1.150817	-0.035817	0.304881
H172	H	1.650817	0.464183	0.804881
H173	H	1.012301	-0.019662	0.430938
H174	H	1.512301	0.480338	0.930938
O175	O	1.110991	-0.003007	0.655943
O176	O	1.610991	0.496993	1.155943
H177	H	1.150828	-0.035835	0.695255
H178	H	1.650828	0.464165	1.195255
O179	O	0.968483	0.226581	0.420795
O180	O	1.468483	0.726581	0.920795
H181	H	1.019715	0.258374	0.435397
H182	H	1.519715	0.758374	0.935397
H183	H	1.095860	0.009468	0.804312
H184	H	1.595860	0.509468	1.304312
H185	H	0.887911	0.180730	0.334094
H186	H	1.387911	0.680730	0.834094
O187	O	1.156291	-0.123350	0.000090
O188	O	1.656291	0.376650	0.500090
H189	H	1.208857	-0.166468	0.000084
H190	H	1.708857	0.333532	0.500084
O191	O	1.115117	-0.342752	-0.088123
O192	O	1.615117	0.157248	0.411877
H193	H	1.155233	-0.384511	-0.117636
H194	H	1.655233	0.115489	0.382364
O195	O	1.112456	-0.493341	-0.088140
O196	O	1.612456	0.006659	0.411860
H197	H	1.101595	-0.548741	-0.081027
H198	H	1.601595	-0.048741	0.418973
O199	O	0.872819	0.193237	0.814359
O200	O	1.372819	0.693237	1.314359
H201	H	0.832106	0.163992	0.849109
H202	H	1.332106	0.663992	1.349109
O203	O	1.145695	-0.720854	0.000052
O204	O	1.645695	-0.220854	0.500052
H205	H	1.199588	-0.689248	0.000074
H206	H	1.699588	-0.189248	0.500074
H207	H	0.886629	-0.327694	0.077042
H208	H	1.386629	0.172306	0.577042
O209	O	0.827453	-0.686432	0.000019
O210	O	1.327453	-0.186432	0.500019
H211	H	0.839310	-0.744287	0.000023
H212	H	1.339310	-0.244287	0.500023
H213	H	0.855790	-0.232147	0.000052
H214	H	1.355790	0.267853	0.500052
