data_functionalizedCrystal
_audit_creation_method	'MofGen! by Chris Wilmer'
_symmetry_space_group_name_H-M	'P1'
_symmetry_Int_Tables_number	1
_symmetry_cell_setting	triclinic
loop_
_symmetry_equiv_pos_as_xyz
  x,y,z
_cell_length_a	16.109293
_cell_length_b	16.109295
_cell_length_c	14.586319
_cell_angle_alpha	89.997157
_cell_angle_beta	89.996045
_cell_angle_gamma	83.458729
loop_
_atom_site_label
_atom_site_type_symbol
_atom_site_fract_x
_atom_site_fract_y
_atom_site_fract_z
O1	O	-1.103129	-0.106838	0.076306
O2	O	-0.853129	0.143162	0.326306
O3	O	-0.603129	0.393162	0.576306
O4	O	-0.353129	0.643162	0.826306
O5	O	-0.861066	-0.120145	0.076291
O6	O	-0.611066	0.129855	0.326291
O7	O	-0.361066	0.379855	0.576291
O8	O	-0.111066	0.629855	0.826291
O9	O	-0.988749	0.007540	0.076301
O10	O	-0.738749	0.257540	0.326301
O11	O	-0.488749	0.507540	0.576301
O12	O	-0.238749	0.757540	0.826301
O13	O	-0.975445	-0.234523	0.076297
O14	O	-0.725445	0.015477	0.326297
O15	O	-0.475445	0.265477	0.576297
O16	O	-0.225445	0.515477	0.826297
O17	O	-0.988748	0.007548	-0.076180
O18	O	-0.738748	0.257548	0.173820
O19	O	-0.488748	0.507548	0.423820
O20	O	-0.238748	0.757548	0.673820
O21	O	-0.861065	-0.120137	-0.076189
O22	O	-0.611065	0.129863	0.173811
O23	O	-0.361065	0.379863	0.423811
O24	O	-0.111065	0.629863	0.673811
O25	O	-1.103128	-0.106830	-0.076174
O26	O	-0.853128	0.143170	0.173826
O27	O	-0.603128	0.393170	0.423826
O28	O	-0.353128	0.643170	0.673826
Cu29	Cu	-0.982096	-0.113483	-0.090105
Cu30	Cu	-0.732096	0.136517	0.159895
Cu31	Cu	-0.482096	0.386517	0.409895
Cu32	Cu	-0.232096	0.636517	0.659895
Cu33	Cu	-0.982097	-0.113492	0.090222
Cu34	Cu	-0.732097	0.136508	0.340222
Cu35	Cu	-0.482097	0.386508	0.590222
Cu36	Cu	-0.232097	0.636508	0.840222
O37	O	-0.975444	-0.234515	-0.076184
O38	O	-0.725444	0.015485	0.173816
O39	O	-0.475444	0.265485	0.423816
O40	O	-0.225444	0.515485	0.673816
C41	C	-0.830090	-0.119603	0.000049
C42	C	-0.580090	0.130397	0.250049
C43	C	-0.330090	0.380397	0.500049
C44	C	-0.080090	0.630397	0.750049
C45	C	-0.737795	-0.117990	0.000044
C46	C	-0.487795	0.132010	0.250044
C47	C	-0.237795	0.382010	0.500044
C48	C	0.012205	0.632010	0.750044
C49	C	-0.525452	-0.114257	-0.083070
C50	C	-0.275452	0.135743	0.166930
C51	C	-0.025452	0.385743	0.416930
C52	C	0.224548	0.635743	0.666930
C53	C	-0.438732	-0.112733	-0.083070
C54	C	-0.188732	0.137267	0.166930
C55	C	0.061268	0.387267	0.416930
C56	C	0.311268	0.637267	0.666930
C57	C	-0.438744	-0.112746	0.083173
C58	C	-0.188744	0.137254	0.333173
C59	C	0.061256	0.387254	0.583173
C60	C	0.311256	0.637254	0.833173
C61	C	-0.525463	-0.114264	0.083172
C62	C	-0.275463	0.135736	0.333172
C63	C	-0.025463	0.385736	0.583172
C64	C	0.224537	0.635736	0.833172
C65	C	-0.568815	-0.115024	0.000047
C66	C	-0.318815	0.134976	0.250047
C67	C	-0.068815	0.384976	0.500047
C68	C	0.181185	0.634976	0.750047
C69	C	-0.395375	-0.111982	0.000050
C70	C	-0.145375	0.138018	0.250050
C71	C	0.104625	0.388018	0.500050
C72	C	0.354625	0.638018	0.750050
C73	C	-0.301349	-0.110329	0.000051
C74	C	-0.051349	0.139671	0.250051
C75	C	0.198651	0.389671	0.500051
C76	C	0.448651	0.639671	0.750051
C77	C	-0.662847	-0.116675	0.000045
C78	C	-0.412847	0.133325	0.250045
C79	C	-0.162847	0.383325	0.500045
C80	C	0.087153	0.633325	0.750045
C81	C	-0.988211	0.038519	0.000062
C82	C	-0.738211	0.288519	0.250062
C83	C	-0.488211	0.538519	0.500062
C84	C	-0.238211	0.788519	0.750062
C85	C	-0.986597	0.130815	0.000069
C86	C	-0.736597	0.380815	0.250069
C87	C	-0.486597	0.630815	0.500069
C88	C	-0.236597	0.880815	0.750069
C89	C	-0.134102	-0.107380	0.000063
C90	C	0.115898	0.142620	0.250063
C91	C	0.365898	0.392620	0.500063
C92	C	0.615898	0.642620	0.750063
C93	C	-0.226395	-0.109016	0.000053
C94	C	0.023605	0.140984	0.250053
C95	C	0.273605	0.390984	0.500053
C96	C	0.523605	0.640984	0.750053
N97	N	-0.982099	-0.113493	0.217053
N98	N	-0.732099	0.136507	0.467053
N99	N	-0.482099	0.386507	0.717053
N100	N	-0.232099	0.636507	0.967053
C101	C	-1.058610	0.353090	0.000107
C102	C	-0.808610	0.603090	0.250107
C103	C	-0.558610	0.853090	0.500107
C104	C	-0.308610	1.103090	0.750107
C105	C	-1.057088	0.439810	0.000122
C106	C	-0.807088	0.689810	0.250122
C107	C	-0.557088	0.939810	0.500122
C108	C	-0.307088	1.189810	0.750122
C109	C	-0.905598	0.419931	0.000108
C110	C	-0.655598	0.669931	0.250108
C111	C	-0.405598	0.919931	0.500108
C112	C	-0.155598	1.169931	0.750108
C113	C	-0.907121	0.333213	0.000100
C114	C	-0.657121	0.583213	0.250100
C115	C	-0.407121	0.833213	0.500100
C116	C	-0.157121	1.083213	0.750100
C117	C	-0.983630	0.299794	0.000095
C118	C	-0.733630	0.549794	0.250095
C119	C	-0.483630	0.799794	0.500095
C120	C	-0.233630	1.049794	0.750095
C121	C	-0.980584	0.473234	0.000118
C122	C	-0.730584	0.723234	0.250118
C123	C	-0.480584	0.973234	0.500118
C124	C	-0.230584	1.223234	0.750118
C125	C	-0.978933	0.567260	0.000134
C126	C	-0.728933	0.817260	0.250134
C127	C	-0.478933	1.067260	0.500134
C128	C	-0.228933	1.317260	0.750134
C129	C	-0.985281	0.205762	0.000080
C130	C	-0.735281	0.455762	0.250080
C131	C	-0.485281	0.705762	0.500080
C132	C	-0.235281	0.955762	0.750080
C133	C	-0.975988	0.734507	0.000079
C134	C	-0.725988	0.984507	0.250079
C135	C	-0.475988	1.234507	0.500079
C136	C	-0.225988	1.484507	0.750079
C137	C	-0.977616	0.642213	0.000144
C138	C	-0.727616	0.892213	0.250144
C139	C	-0.477616	1.142213	0.500144
C140	C	-0.227616	1.392213	0.750144
N141	N	-0.982101	-0.113476	-0.216936
N142	N	-0.732101	0.136524	0.033064
N143	N	-0.482101	0.386524	0.283064
N144	N	-0.232101	0.636524	0.533064
C145	C	-1.038746	-0.057064	0.452064
C146	C	-0.788746	0.192936	0.702064
C147	C	-0.538746	0.442936	0.952064
C148	C	-0.288746	0.692936	1.202064
C149	C	-1.038749	-0.057062	0.548045
C150	C	-0.788749	0.192938	0.798045
C151	C	-0.538749	0.442938	1.048045
C152	C	-0.288749	0.692938	1.298045
C153	C	-0.925451	-0.169911	0.548046
C154	C	-0.675451	0.080089	0.798046
C155	C	-0.425451	0.330089	1.048046
C156	C	-0.175451	0.580089	1.298046
C157	C	-0.925453	-0.169916	0.452067
C158	C	-0.675453	0.080084	0.702067
C159	C	-0.425453	0.330084	0.952067
C160	C	-0.175453	0.580084	1.202067
C161	C	-0.982100	-0.113488	0.404078
C162	C	-0.732100	0.136512	0.654078
C163	C	-0.482100	0.386512	0.904078
C164	C	-0.232100	0.636512	1.154078
C165	C	-0.982100	-0.113480	0.596039
C166	C	-0.732100	0.136520	0.846039
C167	C	-0.482100	0.386520	1.096039
C168	C	-0.232100	0.636520	1.346039
C169	C	-0.982102	-0.113479	0.700106
C170	C	-0.732102	0.136521	0.950106
C171	C	-0.482102	0.386521	1.200106
C172	C	-0.232102	0.636521	1.450106
C173	C	-0.982099	-0.113490	0.300004
C174	C	-0.732099	0.136510	0.550004
C175	C	-0.482099	0.386510	0.800004
C176	C	-0.232099	0.636510	1.050004
H177	H	-0.560770	-0.114886	0.150860
H178	H	-0.310770	0.135114	0.400860
H179	H	-0.060770	0.385114	0.650860
H180	H	0.189230	0.635114	0.900860
H181	H	-1.120908	0.325883	0.000105
H182	H	-0.870908	0.575883	0.250105
H183	H	-0.620908	0.825883	0.500105
H184	H	-0.370908	1.075883	0.750105
H185	H	-0.843307	0.447152	0.000111
H186	H	-0.593307	0.697152	0.250111
H187	H	-0.343307	0.947152	0.500111
H188	H	-0.093307	1.197152	0.750111
H189	H	-0.879325	-0.215867	0.412994
H190	H	-0.629325	0.034133	0.662994
H191	H	-0.379325	0.284133	0.912994
H192	H	-0.129325	0.534133	1.162994
H193	H	-1.118144	0.483200	0.000134
H194	H	-0.868144	0.733200	0.250134
H195	H	-0.618144	0.983200	0.500134
H196	H	-0.368144	1.233200	0.750134
H197	H	-0.846059	0.289817	0.000092
H198	H	-0.596059	0.539817	0.250092
H199	H	-0.346059	0.789817	0.500092
H200	H	-0.096059	1.039817	0.750092
F201	F	-1.099037	0.002990	0.400994
F202	F	-0.849037	0.252990	0.650994
F203	F	-0.599037	0.502990	0.900994
F204	F	-0.349037	0.752990	1.150994
H205	H	-0.403436	-0.112128	0.150850
H206	H	-0.153436	0.137872	0.400850
H207	H	0.096564	0.387872	0.650850
H208	H	0.346564	0.637872	0.900850
H209	H	-1.084876	-0.011117	0.587112
H210	H	-0.834876	0.238883	0.837112
H211	H	-0.584876	0.488883	1.087112
H212	H	-0.334876	0.738883	1.337112
H213	H	-0.560747	-0.114876	-0.150756
H214	H	-0.310747	0.135124	0.099244
H215	H	-0.060747	0.385124	0.349244
H216	H	0.189253	0.635124	0.599244
F217	F	-0.392586	-0.111918	-0.171535
F218	F	-0.142586	0.138082	0.078465
F219	F	0.107414	0.388082	0.328465
F220	F	0.357414	0.638082	0.578465
H221	H	-0.879330	-0.215852	0.587129
H222	H	-0.629330	0.034148	0.837129
H223	H	-0.379330	0.284148	1.087129
H224	H	-0.129330	0.534148	1.337129
