data_functionalizedCrystal
_audit_creation_method	'MofGen! by Chris Wilmer'
_symmetry_space_group_name_H-M	'P1'
_symmetry_Int_Tables_number	1
_symmetry_cell_setting	triclinic
loop_
_symmetry_equiv_pos_as_xyz
  x,y,z
_cell_length_a	21.395364
_cell_length_b	15.299816
_cell_length_c	21.395364
_cell_angle_alpha	80.317202
_cell_angle_beta	90.017013
_cell_angle_gamma	80.365592
loop_
_atom_site_label
_atom_site_type_symbol
_atom_site_fract_x
_atom_site_fract_y
_atom_site_fract_z
Zn1	Zn	1.000983	-0.358948	0.397464
Zn2	Zn	1.500983	0.141052	0.897464
Zn3	Zn	1.019032	-0.509715	0.310832
Zn4	Zn	1.519032	-0.009715	0.810832
Zn5	Zn	0.896212	-0.358949	0.292700
Zn6	Zn	1.396212	0.141051	0.792700
Zn7	Zn	0.914306	-0.509769	0.415579
Zn8	Zn	1.414306	-0.009769	0.915579
O9	O	0.957633	-0.434345	0.354144
O10	O	1.457633	0.065655	0.854144
O11	O	1.091052	-0.378925	0.385979
O12	O	1.591052	0.121075	0.885979
O13	O	1.002720	-0.489693	0.220746
O14	O	1.502720	0.010307	0.720746
O15	O	0.894984	-0.232735	0.291428
O16	O	1.394984	0.267265	0.791428
O17	O	1.104313	-0.489692	0.322331
O18	O	1.604313	0.010308	0.822331
O19	O	0.971959	-0.232734	0.368397
O20	O	1.471959	0.267266	0.868397
O21	O	0.912485	-0.378926	0.207425
O22	O	1.412485	0.121074	0.707425
O23	O	0.810937	-0.378979	0.308994
O24	O	1.310937	0.121021	0.808994
O25	O	0.925823	-0.489785	0.500856
O26	O	1.425823	0.010215	1.000856
O27	O	0.824231	-0.489786	0.399272
O28	O	1.324231	0.010214	0.899272
O29	O	0.989504	-0.378978	0.487547
O30	O	1.489504	0.121022	0.987547
O31	O	1.020266	-0.635937	0.339896
O32	O	1.520266	-0.135937	0.839896
O33	O	0.943324	-0.635977	0.416853
O34	O	1.443324	-0.135977	0.916853
C35	C	0.794851	-0.434389	0.354131
C36	C	1.294851	0.065611	0.854131
C37	C	0.725214	-0.434430	0.354144
C38	C	1.225214	0.065570	0.854144
C39	C	0.685630	-0.376848	0.387358
C40	C	1.185630	0.123152	0.887358
C41	C	0.620192	-0.376824	0.387358
C42	C	1.120192	0.123176	0.887358
C43	C	0.594342	-0.434398	0.354151
C44	C	1.094342	0.065602	0.854151
C45	C	0.633935	-0.491984	0.320929
C46	C	1.133935	0.008016	0.820929
C47	C	0.699371	-0.492000	0.320925
C48	C	1.199371	0.008000	0.820925
C49	C	0.500387	-0.515621	0.358889
C50	C	1.000387	-0.015621	0.858889
C51	C	0.434952	-0.515607	0.358898
C52	C	0.934952	-0.015607	0.858898
C53	C	0.392516	-0.434348	0.354159
C54	C	0.892516	0.065652	0.854159
C55	C	0.415521	-0.353102	0.349425
C56	C	0.915521	0.146898	0.849425
C57	C	0.480957	-0.353118	0.349421
C58	C	0.980957	0.146882	0.849421
C59	C	0.523389	-0.434387	0.354151
C60	C	1.023389	0.065613	0.854151
C61	C	0.281975	-0.376735	0.387375
C62	C	0.781975	0.123265	0.887375
C63	C	0.216536	-0.376710	0.387370
C64	C	0.716536	0.123290	0.887370
C65	C	0.230280	-0.491878	0.320945
C66	C	0.730280	0.008122	0.820945
C67	C	0.295718	-0.491896	0.320946
C68	C	0.795718	0.008104	0.820946
C69	C	0.321562	-0.434325	0.354164
C70	C	0.821562	0.065675	0.854164
C71	C	0.985734	-0.668683	0.382322
C72	C	1.485734	-0.168683	0.882322
C73	C	0.997813	-0.768933	0.394397
C74	C	1.497813	-0.268933	0.894397
C75	C	0.871714	-1.051823	0.268050
C76	C	1.371714	-0.551823	0.768050
C77	C	0.860362	-0.957632	0.256706
C78	C	1.360362	-0.457632	0.756706
C79	C	0.894724	-0.910453	0.291128
C80	C	1.394724	-0.410453	0.791128
C81	C	0.940439	-0.957473	0.336896
C82	C	1.440439	-0.457473	0.836896
C83	C	0.951789	-1.051672	0.348245
C84	C	1.451789	-0.551672	0.848245
C85	C	0.974799	-0.910303	0.371322
C86	C	1.474799	-0.410303	0.871322
C87	C	1.020514	-0.957323	0.417090
C88	C	1.520514	-0.457323	0.917090
C89	C	1.031862	-1.051513	0.428436
C90	C	1.531862	-0.551513	0.928436
C91	C	0.997500	-1.098693	0.394015
C92	C	1.497500	-0.598693	0.894015
C93	C	0.963449	-0.816103	0.359973
C94	C	1.463449	-0.316103	0.859973
C95	C	1.043524	-0.815953	0.440168
C96	C	1.543524	-0.315953	0.940168
C97	C	1.054876	-0.910143	0.451512
C98	C	1.554876	-0.410143	0.951512
C99	C	1.121051	-0.434302	0.354157
C100	C	1.621051	0.065698	0.854157
C101	C	1.190690	-0.434284	0.354162
C102	C	1.690690	0.065716	0.854162
C103	C	0.957669	-0.434387	0.517572
C104	C	1.457669	0.065613	1.017572
C105	C	0.957684	-0.434405	0.587215
C106	C	1.457684	0.065595	1.087215
C107	C	0.929440	-0.199093	0.325869
C108	C	1.429440	0.300907	0.825869
C109	C	0.917425	-0.098843	0.313821
C110	C	1.417425	0.401157	0.813821
C111	C	0.990838	-0.376717	0.613001
C112	C	1.490838	0.123283	1.113001
C113	C	0.990826	-0.376703	0.678434
C114	C	1.490826	0.123297	1.178434
C115	C	0.957670	-0.434392	0.718082
C116	C	1.457670	0.065608	1.218082
C117	C	0.924509	-0.492084	0.692289
C118	C	1.424509	0.007916	1.192289
C119	C	0.924516	-0.492090	0.626856
C120	C	1.424516	0.007910	1.126856
C121	C	0.962452	-0.515643	0.831527
C122	C	1.462452	-0.015643	1.331527
C123	C	0.962450	-0.515638	0.896959
C124	C	1.462450	-0.015638	1.396959
C125	C	0.957645	-0.434371	0.919900
C126	C	1.457645	0.065629	1.419900
C127	C	0.952855	-0.353106	0.877401
C128	C	1.452855	0.146894	1.377401
C129	C	0.952862	-0.353113	0.811967
C130	C	1.452862	0.146887	1.311967
C131	C	0.957658	-0.434390	0.789034
C132	C	1.457658	0.065610	1.289034
C133	C	0.990788	-0.376662	1.016636
C134	C	1.490788	0.123338	1.516636
C135	C	0.990772	-0.376646	1.082070
C136	C	1.490772	0.123354	1.582070
C137	C	0.924458	-0.492035	1.095925
C138	C	1.424458	0.007965	1.595925
C139	C	0.924470	-0.492043	1.030491
C140	C	1.424470	0.007957	1.530491
C141	C	0.957638	-0.434358	0.990850
C142	C	1.457638	0.065642	1.490850
C143	C	0.957604	-0.434331	1.191354
C144	C	1.457604	0.065669	1.691354
C145	C	0.957614	-0.434334	1.121714
C146	C	1.457614	0.065666	1.621714
H147	H	0.587956	-0.329929	0.414404
H148	H	1.087956	0.170071	0.914404
H149	H	0.966196	-0.581804	0.812853
H150	H	1.466196	-0.081804	1.312853
C151	C	1.009949	-1.202303	0.406535
C152	C	1.509949	-0.702303	0.906535
H153	H	1.042084	-1.223552	0.438733
H154	H	1.542084	-0.723552	0.938733
H155	H	0.972066	-1.223616	0.419909
H156	H	1.472066	-0.723616	0.919909
H157	H	1.023376	-1.223662	0.368694
H158	H	1.523376	-0.723662	0.868694
H159	H	1.071504	-0.777540	0.468198
H160	H	1.571504	-0.277540	0.968198
H161	H	0.843738	-1.090245	0.240032
H162	H	1.343738	-0.590245	0.740032
H163	H	0.966354	-0.581809	0.931558
H164	H	1.466354	-0.081809	1.431558
C165	C	1.027315	-0.313259	0.569399
C166	C	1.527315	0.186741	1.069399
H167	H	1.047055	-0.278895	0.594130
H168	H	1.547055	0.221105	1.094130
H169	H	1.058750	-0.347754	0.548033
H170	H	1.558750	0.152246	1.048033
H171	H	0.998637	-0.273963	0.539136
H172	H	1.498637	0.226037	1.039136
H173	H	0.416227	-0.581762	0.362756
H174	H	0.916227	-0.081762	0.862756
C175	C	1.105156	-0.961872	0.501858
C176	C	1.605156	-0.461872	1.001858
H177	H	1.106989	-1.024726	0.503687
H178	H	1.606989	-0.524726	1.003687
H179	H	1.145393	-0.946373	0.490862
H180	H	1.645393	-0.446373	0.990862
H181	H	1.094097	-0.946438	0.542090
H182	H	1.594097	-0.446438	1.042090
H183	H	1.017822	-0.329721	0.699432
H184	H	1.517822	0.170279	1.199432
C185	C	0.172990	-0.313368	0.423907
C186	C	0.672990	0.186632	0.923907
H187	H	0.130315	-0.321595	0.419147
H188	H	0.630315	0.178405	0.919147
H189	H	0.185320	-0.326682	0.467589
H190	H	0.685320	0.173318	0.967589
H191	H	0.176461	-0.252743	0.407517
H192	H	0.676461	0.247257	0.907517
C193	C	1.082145	-1.103237	0.478781
C194	C	1.582145	-0.603237	0.978781
H195	H	1.083980	-1.166092	0.480612
H196	H	1.583980	-0.666092	0.980612
H197	H	1.122380	-1.087736	0.467781
H198	H	1.622380	-0.587736	0.967781
H199	H	1.071088	-1.087803	0.519014
H200	H	1.571088	-0.587803	1.019014
C201	C	0.888037	-0.555542	0.735896
C202	C	1.388037	-0.055542	1.235896
H203	H	0.868288	-0.589897	0.711165
H204	H	1.368288	-0.089897	1.211165
H205	H	0.916710	-0.594833	0.766160
H206	H	1.416710	-0.094833	1.266160
H207	H	0.856599	-0.521038	0.757259
H208	H	1.356599	-0.021038	1.257259
C209	C	0.742918	-0.555346	0.284392
C210	C	1.242918	-0.055346	0.784392
H211	H	0.785591	-0.547107	0.289145
H212	H	1.285591	-0.047107	0.789145
H213	H	0.739447	-0.615966	0.300781
H214	H	1.239447	-0.115966	0.800781
H215	H	0.730589	-0.542031	0.240707
H216	H	1.230589	-0.042031	0.740707
H217	H	0.948943	-0.286930	0.896077
H218	H	1.448943	0.213070	1.396077
C219	C	0.547062	-0.605011	0.364107
C220	C	1.047062	-0.105011	0.864107
H221	H	0.523991	-0.653395	0.366938
H222	H	1.023991	-0.153395	0.866938
H223	H	0.572428	-0.603763	0.327640
H224	H	1.072428	-0.103763	0.827640
H225	H	0.573558	-0.613028	0.400975
H226	H	1.073558	-0.113028	0.900975
H227	H	0.209234	-0.538756	0.293908
H228	H	0.709234	-0.038756	0.793908
H229	H	1.017768	-0.329664	1.103062
H230	H	1.517768	0.170336	1.603062
H231	H	0.948960	-0.286944	0.777367
H232	H	1.448960	0.213056	1.277367
H233	H	0.897454	-0.538997	1.128205
H234	H	1.397454	-0.038997	1.628205
H235	H	0.303017	-0.329853	0.414419
H236	H	0.803017	0.170147	0.914419
H237	H	0.897515	-0.539065	0.605863
H238	H	1.397515	-0.039065	1.105863
C239	C	1.027258	-0.313197	0.973027
C240	C	1.527258	0.186803	1.473027
H241	H	1.046993	-0.278825	0.997756
H242	H	1.546993	0.221175	1.497756
H243	H	1.058696	-0.347687	0.951662
H244	H	1.558696	0.152313	1.451662
H245	H	0.998576	-0.273909	0.942765
H246	H	1.498576	0.226091	1.442765
C247	C	0.888006	-0.555507	1.002126
C248	C	1.388006	-0.055507	1.502126
H249	H	0.868260	-0.589868	1.035109
H250	H	1.368260	-0.089868	1.535109
H251	H	0.856576	-0.521015	0.972438
H252	H	1.356576	-0.021015	1.472438
H253	H	0.916689	-0.594806	0.981341
H254	H	1.416689	-0.094806	1.481341
C255	C	0.714058	-0.313523	0.423894
C256	C	1.214058	0.186477	0.923894
H257	H	0.758700	-0.321783	0.419140
H258	H	1.258700	0.178217	0.919140
H259	H	0.696080	-0.252896	0.407509
H260	H	1.196080	0.247104	0.907509
H261	H	0.704941	-0.326838	0.467579
H262	H	1.204941	0.173162	0.967579
C263	C	0.506262	-0.263755	0.344205
C264	C	1.006262	0.236245	0.844205
H265	H	0.471620	-0.215354	0.341378
H266	H	0.971620	0.284646	0.841378
H267	H	0.531956	-0.265020	0.380670
H268	H	1.031956	0.234980	0.880670
H269	H	0.530814	-0.255752	0.307335
H270	H	1.030814	0.244248	0.807335
H271	H	0.327949	-0.538789	0.293902
H272	H	0.827949	-0.038789	0.793902
C273	C	0.368849	-0.263713	0.344215
C274	C	0.868849	0.236287	0.844215
H275	H	0.326583	-0.275336	0.344888
H276	H	0.826583	0.224664	0.844888
H277	H	0.376150	-0.234974	0.378935
H278	H	0.876150	0.265026	0.878935
H279	H	0.375014	-0.225691	0.305598
H280	H	0.875014	0.274309	0.805598
C281	C	0.913169	-0.764387	0.309631
C282	C	1.413169	-0.264387	0.809631
H283	H	0.911325	-0.701532	0.307804
H284	H	1.411325	-0.201532	0.807804
H285	H	0.924221	-0.779825	0.269402
H286	H	1.424221	-0.279825	0.769402
H287	H	0.872932	-0.779891	0.320638
H288	H	1.372932	-0.279891	0.820638
C289	C	0.810085	-0.905917	0.206361
C290	C	1.310085	-0.405917	0.706361
H291	H	0.791250	-0.947503	0.187481
H292	H	1.291250	-0.447503	0.687481
H293	H	0.778347	-0.869205	0.225878
H294	H	1.278347	-0.369205	0.725878
H295	H	0.829645	-0.869145	0.174652
H296	H	1.329645	-0.369145	0.674652
H297	H	0.612884	-0.538861	0.293891
H298	H	1.112884	-0.038861	0.793891
H299	H	0.885479	-0.833759	0.281888
H300	H	1.385479	-0.333759	0.781888
