data_functionalizedCrystal
_audit_creation_method	'MofGen! by Chris Wilmer'
_symmetry_space_group_name_H-M	'P1'
_symmetry_Int_Tables_number	1
_symmetry_cell_setting	triclinic
loop_
_symmetry_equiv_pos_as_xyz
  x,y,z
_cell_length_a	14.853568
_cell_length_b	13.330367
_cell_length_c	14.853567
_cell_angle_alpha	89.991237
_cell_angle_beta	96.364941
_cell_angle_gamma	89.995890
loop_
_atom_site_label
_atom_site_type_symbol
_atom_site_fract_x
_atom_site_fract_y
_atom_site_fract_z
O1	O	-1.196369	0.083350	0.117694
O2	O	-0.696369	0.583350	0.617694
O3	O	-0.933910	0.083365	0.131714
O4	O	-0.433910	0.583365	0.631714
O5	O	-1.072150	0.083360	-0.006526
O6	O	-0.572150	0.583360	0.493474
O7	O	-1.058129	0.083355	0.255934
O8	O	-0.558129	0.583355	0.755934
O9	O	-1.072129	-0.083487	-0.006504
O10	O	-0.572129	0.416513	0.493496
O11	O	-0.933888	-0.083482	0.131737
O12	O	-0.433888	0.416518	0.631737
O13	O	-1.196348	-0.083498	0.117716
O14	O	-0.696348	0.416502	0.617716
Cu15	Cu	-1.065116	-0.098724	0.124728
Cu16	Cu	-0.565116	0.401276	0.624728
Cu17	Cu	-1.065141	0.098592	0.124702
Cu18	Cu	-0.565141	0.598592	0.624702
O19	O	-1.058107	-0.083493	0.255956
O20	O	-0.558107	0.416507	0.755956
C21	C	-0.900310	-0.000057	0.131090
C22	C	-0.400310	0.499943	0.631090
C23	C	-0.800227	-0.000050	0.129186
C24	C	-0.300227	0.499950	0.629186
C25	C	-0.387693	-0.000072	0.039019
C26	C	0.112307	0.499928	0.539019
C27	C	-0.366412	-0.000075	0.203252
C28	C	0.133588	0.499925	0.703252
C29	C	-0.460446	-0.000071	0.205043
C30	C	0.039554	0.499929	0.705043
C31	C	-0.518107	-0.000067	0.123820
C32	C	-0.018107	0.499933	0.623820
C33	C	-0.481736	-0.000066	0.040807
C34	C	0.018264	0.499934	0.540807
C35	C	-0.496825	-0.000062	0.288054
C36	C	0.003175	0.499938	0.788054
C37	C	-0.590864	-0.000057	0.289848
C38	C	-0.090864	0.499943	0.789848
C39	C	-0.648527	-0.000060	0.208624
C40	C	-0.148527	0.499940	0.708624
C41	C	-0.612150	-0.000060	0.125608
C42	C	-0.112150	0.499940	0.625608
C43	C	-0.669812	-0.000056	0.044385
C44	C	-0.169812	0.499944	0.544385
C45	C	-0.633437	-0.000063	-0.038632
C46	C	-0.133437	0.499937	0.461368
C47	C	-0.539399	-0.000069	-0.040416
C48	C	-0.039399	0.499931	0.459584
C49	C	-0.742565	-0.000055	0.210409
C50	C	-0.242565	0.499945	0.710409
C51	C	-0.763855	-0.000049	0.046173
C52	C	-0.263855	0.499951	0.546173
C53	C	-0.229947	-0.000075	0.118340
C54	C	0.270053	0.499925	0.618340
C55	C	-0.330031	-0.000077	0.120242
C56	C	0.169969	0.499923	0.620242
N57	N	-1.065105	-0.237506	0.124746
N58	N	-0.565105	0.262494	0.624746
C59	C	-1.119897	-0.710123	0.179465
C60	C	-0.619897	-0.210123	0.679465
C61	C	-1.010413	-0.710103	0.069902
C62	C	-0.510413	-0.210103	0.569902
C63	C	-1.010400	-0.605084	0.069916
C64	C	-0.510400	-0.105084	0.569916
C65	C	-1.065137	-0.552580	0.124705
C66	C	-0.565137	-0.052580	0.624705
C67	C	-1.119887	-0.605095	0.179479
C68	C	-0.619887	-0.105095	0.679479
C69	C	-0.955657	-0.552562	0.015136
C70	C	-0.455657	-0.052562	0.515136
C71	C	-0.955643	-0.447538	0.015147
C72	C	-0.455643	0.052462	0.515147
C73	C	-1.010376	-0.395032	0.069941
C74	C	-0.510376	0.104968	0.569941
C75	C	-1.065128	-0.447552	0.124718
C76	C	-0.565128	0.052448	0.624718
C77	C	-1.119865	-0.395048	0.179507
C78	C	-0.619865	0.104952	0.679507
C79	C	-1.174612	-0.447567	0.234290
C80	C	-0.674612	0.052433	0.734290
C81	C	-1.174620	-0.552589	0.234273
C82	C	-0.674620	-0.052589	0.734273
C83	C	-1.010368	-0.290010	0.069958
C84	C	-0.510368	0.209990	0.569958
C85	C	-1.119855	-0.290020	0.179520
C86	C	-0.619855	0.209980	0.679520
N87	N	-1.065159	0.237373	0.124677
N88	N	-0.565159	0.737373	0.624677
C89	C	-1.071504	-0.000061	-0.040103
C90	C	-0.571504	0.499939	0.459897
C91	C	-1.069600	-0.000052	-0.140187
C92	C	-0.569600	0.499948	0.359813
C93	C	-0.979435	-0.000066	-0.552721
C94	C	-0.479435	0.499934	-0.052721
C95	C	-1.143667	-0.000075	-0.574002
C96	C	-0.643667	0.499925	-0.074002
C97	C	-1.145457	-0.000070	-0.479968
C98	C	-0.645457	0.499930	0.020032
C99	C	-1.064235	-0.000063	-0.422306
C100	C	-0.564235	0.499937	0.077694
C101	C	-0.981222	-0.000063	-0.458678
C102	C	-0.481222	0.499937	0.041322
C103	C	-1.228469	-0.000080	-0.443589
C104	C	-0.728469	0.499920	0.056411
C105	C	-1.230262	-0.000075	-0.349550
C106	C	-0.730262	0.499925	0.150450
C107	C	-1.149039	-0.000062	-0.291886
C108	C	-0.649039	0.499938	0.208114
C109	C	-1.066023	-0.000061	-0.328263
C110	C	-0.566023	0.499939	0.171737
C111	C	-0.984800	-0.000054	-0.270602
C112	C	-0.484800	0.499946	0.229398
C113	C	-0.901783	-0.000046	-0.306977
C114	C	-0.401783	0.499954	0.193023
C115	C	-0.899999	-0.000050	-0.401015
C116	C	-0.399999	0.499950	0.098985
C117	C	-1.150823	-0.000058	-0.197849
C118	C	-0.650823	0.499942	0.302151
C119	C	-0.986588	-0.000052	-0.176559
C120	C	-0.486588	0.499948	0.323441
C121	C	-1.058753	-0.000070	0.289534
C122	C	-0.558753	0.499930	0.789534
C123	C	-1.060657	-0.000072	0.389617
C124	C	-0.560657	0.499928	0.889617
H125	H	-0.319459	-0.000070	0.269380
H126	H	0.180541	0.499930	0.769380
Br127	Br	-1.194184	-0.781393	0.253819
Br128	Br	-0.694184	-0.281393	0.753819
Br129	Br	-0.936095	-0.218738	-0.004404
Br130	Br	-0.436095	0.281262	0.495596
Br131	Br	-0.842104	-0.000055	-0.064064
Br132	Br	-0.342104	0.499945	0.435936
Br133	Br	-0.791557	-0.000050	-0.228712
Br134	Br	-0.291557	0.499950	0.271288
Br135	Br	-0.881329	-0.376271	-0.059183
Br136	Br	-0.381329	0.123729	0.440817
H137	H	-1.218414	-0.000072	-0.168236
H138	H	-0.718414	0.499928	0.331764
Br139	Br	-1.194137	-0.218773	0.253889
Br140	Br	-0.694137	0.281227	0.753889
Br141	Br	-1.338692	-0.000116	-0.521846
Br142	Br	-0.838692	0.499884	-0.021846
H143	H	-1.219195	-0.595359	0.278872
H144	H	-0.719195	-0.095359	0.778872
Br145	Br	-0.787343	-0.000032	-0.450387
Br146	Br	-0.287343	0.499968	0.049613
Br147	Br	-0.881376	-0.623821	-0.059215
Br148	Br	-0.381376	-0.123821	0.440785
Br149	Br	-0.711703	-0.000045	-0.148858
Br150	Br	-0.211703	0.499955	0.351142
Br151	Br	-0.866774	-0.000040	-0.602084
Br152	Br	-0.366774	0.499960	-0.102084
Br153	Br	-0.640223	-0.000048	0.402510
Br154	Br	-0.140223	0.499952	0.902510
Br155	Br	-1.253893	-0.000105	-0.652256
Br156	Br	-0.753893	0.499895	-0.152256
Br157	Br	-0.936134	-0.781358	-0.004454
Br158	Br	-0.436134	-0.281358	0.495546
H159	H	-0.772178	-0.000051	0.278000
H160	H	-0.272178	0.499949	0.778000
H161	H	-0.509774	-0.000098	-0.108004
H162	H	-0.009774	0.499902	0.391996
Br163	Br	-0.338330	-0.000091	-0.073641
Br164	Br	0.161670	0.499909	0.426359
Br165	Br	-0.418567	-0.000046	0.398277
Br166	Br	0.081433	0.499954	0.898277
H167	H	-1.219183	-0.404805	0.278894
H168	H	-0.719183	0.095195	0.778894
Br169	Br	-1.342925	-0.000072	-0.300190
Br170	Br	-0.842925	0.499928	0.199810
H171	H	-0.920445	-0.000042	-0.129616
H172	H	-0.420445	0.499958	0.370384
