data_functionalizedCrystal
_audit_creation_method	'MofGen! by Chris Wilmer'
_symmetry_space_group_name_H-M	'P1'
_symmetry_Int_Tables_number	1
_symmetry_cell_setting	triclinic
loop_
_symmetry_equiv_pos_as_xyz
  x,y,z
_cell_length_a	18.878441
_cell_length_b	14.560438
_cell_length_c	14.560438
_cell_angle_alpha	60.000905
_cell_angle_beta	90.000055
_cell_angle_gamma	60.000434
loop_
_atom_site_label
_atom_site_type_symbol
_atom_site_fract_x
_atom_site_fract_y
_atom_site_fract_z
Zr1	Zr	0.682379	1.005308	-0.120537
O2	O	0.569273	1.196906	-0.267177
O3	O	0.717052	0.813708	-0.075587
O4	O	0.717048	1.005312	-0.267187
O5	O	0.569280	1.005300	0.075564
O6	O	0.833616	1.005318	-0.267192
O7	O	0.569277	1.005302	-0.075577
O8	O	0.833622	0.662573	0.075546
O9	O	0.569273	1.348044	-0.267174
O10	O	0.818833	0.892521	-0.056417
O11	O	0.731842	0.892515	0.056382
O12	O	0.731838	1.118104	-0.169203
O13	O	0.644847	1.118098	-0.056405
Zr14	Zr	0.868296	1.005313	0.120507
Zr15	Zr	0.868291	1.005317	-0.120545
Zr16	Zr	0.682384	1.005304	0.120515
Zr17	Zr	0.682379	1.246356	-0.120533
Zr18	Zr	0.868295	0.764265	0.120502
O19	O	0.833623	1.196913	0.075556
O20	O	0.833616	1.196918	-0.267189
O21	O	0.569280	1.196901	0.075568
O22	O	0.981402	0.813715	0.267147
O23	O	0.981395	0.813721	-0.075598
O24	O	0.717058	0.813703	0.267159
O25	O	0.981395	1.005321	-0.075595
O26	O	0.833627	1.005309	0.267157
O27	O	0.717059	1.005303	0.267162
O28	O	0.981398	1.005319	0.075546
O29	O	0.717049	1.348051	-0.267181
O30	O	0.833626	0.662570	0.267151
O31	O	0.981401	0.662577	0.267144
O32	O	0.981398	0.662580	0.075540
O33	O	0.569277	1.348041	-0.075570
O34	O	0.717052	1.348048	-0.075577
O35	O	0.818837	0.892517	0.169173
O36	O	0.905828	0.892523	0.056374
O37	O	0.818833	1.118106	-0.056412
O38	O	0.731842	1.118100	0.056386
C39	C	0.775337	0.703797	-0.000021
C40	C	0.775337	0.601466	-0.000023
C41	C	0.820743	0.553393	-0.058903
C42	C	0.820747	0.457233	-0.058892
C43	C	0.729930	0.457232	0.058880
C44	C	0.729932	0.553383	0.058875
C45	C	0.542790	1.005300	-0.000005
C46	C	0.463865	1.005296	-0.000001
C47	C	0.472194	0.887545	0.058868
C48	C	0.398033	0.887550	0.058869
C49	C	0.315544	1.005306	-0.000007
C50	C	0.307216	1.123066	-0.058878
C51	C	0.381376	1.123060	-0.058872
C52	C	0.152646	1.123070	-0.058890
C53	C	0.078480	1.123076	-0.058898
C54	C	0.169303	0.887559	0.058851
C55	C	0.243463	0.887553	0.058857
C56	C	0.235130	1.005314	-0.000016
C57	C	1.007885	1.005321	-0.000025
C58	C	1.086810	1.005325	-0.000029
C59	C	0.775331	1.005316	-0.301535
C60	C	0.775329	1.005317	-0.403868
C61	C	0.775338	1.306824	-0.000009
C62	C	0.775338	1.409155	-0.000008
C63	C	0.729920	1.123067	-0.510817
C64	C	0.729930	1.123061	-0.606966
C65	C	0.820761	0.887545	-0.489202
C66	C	0.820755	0.887552	-0.393055
C67	C	0.775343	1.005306	0.301504
C68	C	0.775345	1.005304	0.403837
C69	C	1.007885	0.703808	-0.000031
C70	C	1.086809	0.601480	-0.000036
C71	C	0.775343	0.703792	0.301499
C72	C	0.775345	0.601459	0.403830
C73	C	1.007891	0.703802	0.301488
C74	C	1.086817	0.601473	0.403816
C75	C	0.542784	1.306819	-0.301519
C76	C	0.463858	1.409148	-0.403846
C77	C	0.542790	1.306814	0.000001
C78	C	0.463866	1.409141	0.000006
C79	C	0.775332	1.306829	-0.301529
C80	C	0.775330	1.409162	-0.403860
C81	C	1.078462	0.553425	-0.058925
C82	C	1.152613	0.457291	-0.058952
C83	C	1.235110	0.409207	-0.000084
C84	C	1.243455	0.457272	0.058806
C85	C	1.169305	0.553411	0.058826
C86	C	1.169298	0.553422	0.392990
C87	C	1.243465	0.457286	0.489129
C88	C	1.235149	0.409197	0.596092
C89	C	1.152659	0.457258	0.606915
C90	C	1.078494	0.553399	0.510778
C91	C	0.381377	1.457211	-0.393021
C92	C	0.307210	1.553377	-0.489159
C93	C	0.315526	1.601471	-0.596122
C94	C	0.398015	1.553403	-0.606945
C95	C	0.472180	1.457246	-0.510808
C96	C	0.472213	1.457206	0.058884
C97	C	0.398062	1.553367	0.058885
C98	C	0.315565	1.601454	0.000014
C99	C	0.307219	1.553385	-0.058872
C100	C	0.381369	1.457233	-0.058878
C101	C	0.820755	0.553382	0.510781
C102	C	0.820747	0.457239	0.606928
C103	C	0.729916	0.457254	0.489159
C104	C	0.729920	0.553402	0.393014
H105	H	0.692956	0.592523	0.106827
C106	C	0.870711	0.758012	-0.275400
N107	N	0.908337	0.660446	-0.186783
C108	C	0.870716	0.758010	-0.477321
N109	N	0.908339	0.660442	-0.468370
H110	H	1.176086	0.592561	0.305904
H111	H	0.692937	0.592550	0.305924
H112	H	0.404776	1.592574	-0.694046
H113	H	0.539379	1.418061	0.106832
C114	C	0.234005	1.707219	0.000039
N115	N	0.172578	1.786878	0.000065
C116	C	1.334210	0.404356	0.123565
N117	N	1.402569	0.364489	0.172350
C118	C	0.407261	1.606215	0.123677
N119	N	0.414192	1.646014	0.172481
C120	C	0.679959	1.252596	-0.724611
N121	N	0.642313	1.350167	-0.813224
C122	C	0.562930	0.758002	0.123637
N123	N	0.631272	0.660425	0.172428
C124	C	0.679958	0.404374	0.477275
N125	N	0.642331	0.364542	0.468321
H126	H	0.240041	1.592552	-0.106803
C127	C	1.178502	0.606248	0.123625
N128	N	1.185435	0.646039	0.172436
H129	H	0.539338	1.418114	-0.519636
H130	H	0.857716	0.592537	-0.106859
C131	C	0.870708	0.404352	0.724574
N132	N	0.908341	0.364517	0.813188
C133	C	0.372173	1.404357	-0.123638
N134	N	0.365240	1.364533	-0.172417
H135	H	1.295481	0.330923	-0.000109
C136	C	0.143475	1.252613	-0.123656
N137	N	0.136569	1.350183	-0.172442
C138	C	0.216480	1.606231	-0.477228
N139	N	0.148144	1.646038	-0.468239
H140	H	1.310625	0.418164	0.480296
H141	H	0.857722	0.418093	-0.106836
C142	C	1.316742	0.303430	0.701835
N143	N	1.378201	0.223761	0.781478
H144	H	0.692962	0.418073	0.106831
C145	C	0.233933	1.707237	-0.701866
N146	N	0.172474	1.786894	-0.781508
H147	H	0.404823	0.791665	0.106808
H148	H	0.310628	0.791666	0.106788
H149	H	0.857740	0.592512	0.519593
H150	H	0.176086	0.791674	0.106779
H151	H	0.011315	1.218963	-0.106840
H152	H	0.240046	1.218945	-0.106809
H153	H	0.374589	1.218945	-0.106795
H154	H	0.692932	1.218959	-0.519627
H155	H	1.011296	0.592574	-0.106876
H156	H	1.145801	0.418168	-0.106907
H157	H	1.145901	0.418090	0.694017
H158	H	1.011337	0.592510	0.519608
H159	H	0.374589	1.418058	-0.305935
