data_functionalizedCrystal
_audit_creation_method	'MofGen! by Chris Wilmer'
_symmetry_space_group_name_H-M	'P1'
_symmetry_Int_Tables_number	1
_symmetry_cell_setting	triclinic
loop_
_symmetry_equiv_pos_as_xyz
  x,y,z
_cell_length_a	16.109318
_cell_length_b	14.586319
_cell_length_c	16.109301
_cell_angle_alpha	90.005214
_cell_angle_beta	83.465022
_cell_angle_gamma	89.999925
loop_
_atom_site_label
_atom_site_type_symbol
_atom_site_fract_x
_atom_site_fract_y
_atom_site_fract_z
O1	O	1.103122	0.076167	0.106935
O2	O	1.436455	0.409500	0.440268
O3	O	1.769788	0.742834	0.773601
O4	O	0.861062	0.076186	0.120219
O5	O	1.194395	0.409519	0.453552
O6	O	1.527728	0.742853	0.786886
O7	O	0.988741	0.076167	-0.007454
O8	O	1.322075	0.409500	0.325880
O9	O	1.655408	0.742833	0.659213
O10	O	0.975442	0.076186	0.234607
O11	O	1.308776	0.409520	0.567941
O12	O	1.642109	0.742853	0.901274
O13	O	0.988733	-0.076314	-0.007456
O14	O	1.322066	0.257019	0.325878
O15	O	1.655399	0.590352	0.659211
O16	O	0.861053	-0.076295	0.120217
O17	O	1.194386	0.257038	0.453550
O18	O	1.527720	0.590372	0.786884
O19	O	1.103113	-0.076314	0.106933
O20	O	1.436446	0.257020	0.440266
O21	O	1.769780	0.590353	0.773599
Cu22	Cu	0.982082	-0.090227	0.113575
Cu23	Cu	1.315415	0.243106	0.446908
Cu24	Cu	1.648749	0.576440	0.780241
Cu25	Cu	0.982093	0.090099	0.113577
Cu26	Cu	1.315426	0.423433	0.446910
Cu27	Cu	1.648759	0.756766	0.780244
O28	O	0.975433	-0.076294	0.234606
O29	O	1.308767	0.257039	0.567939
O30	O	1.642100	0.590372	0.901272
C31	C	0.830083	-0.000052	0.119677
C32	C	1.163416	0.333281	0.453011
C33	C	1.496749	0.666615	0.786344
C34	C	0.737788	-0.000045	0.118057
C35	C	1.071122	0.333288	0.451390
C36	C	1.404455	0.666621	0.784723
C37	C	0.438719	0.083055	0.112823
C38	C	0.772053	0.416389	0.446156
C39	C	1.105386	0.749722	0.779489
C40	C	0.525441	0.083061	0.114340
C41	C	0.858774	0.416395	0.447673
C42	C	1.192107	0.749728	0.781007
C43	C	0.525450	-0.083182	0.114327
C44	C	0.858783	0.250152	0.447660
C45	C	1.192116	0.583485	0.780993
C46	C	0.438731	-0.083187	0.112803
C47	C	0.772064	0.250147	0.446137
C48	C	1.105397	0.583480	0.779470
C49	C	0.395367	-0.000065	0.112056
C50	C	0.728701	0.333268	0.445389
C51	C	1.062034	0.666601	0.778722
C52	C	0.568807	-0.000055	0.115096
C53	C	0.902141	0.333279	0.448430
C54	C	1.235474	0.666612	0.781763
C55	C	0.662835	-0.000049	0.116742
C56	C	0.996168	0.333284	0.450075
C57	C	1.329501	0.666618	0.783408
C58	C	0.301334	-0.000070	0.110409
C59	C	0.634668	0.333263	0.443742
C60	C	0.968001	0.666596	0.777075
N61	N	0.982081	-0.217059	0.113573
N62	N	1.315414	0.116275	0.446906
N63	N	1.648747	0.449608	0.780239
C64	C	1.038636	-0.452074	0.057058
C65	C	1.371969	-0.118740	0.390391
C66	C	1.705303	0.214593	0.723725
C67	C	1.038638	-0.548055	0.057056
C68	C	1.371972	-0.214722	0.390389
C69	C	1.705305	0.118612	0.723723
C70	C	0.925539	-0.548047	0.170090
C71	C	1.258873	-0.214714	0.503423
C72	C	1.592206	0.118619	0.836756
C73	C	0.925534	-0.452068	0.170087
C74	C	1.258867	-0.118735	0.503420
C75	C	1.592200	0.214599	0.836754
C76	C	0.982087	-0.404084	0.113572
C77	C	1.315420	-0.070750	0.446906
C78	C	1.648753	0.262583	0.780239
C79	C	0.982095	-0.596044	0.113573
C80	C	1.315428	-0.262711	0.446906
C81	C	1.648761	0.070622	0.780240
C82	C	0.982097	-0.700111	0.113571
C83	C	1.315430	-0.366778	0.446904
C84	C	1.648764	-0.033445	0.780238
C85	C	0.982084	-0.300010	0.113573
C86	C	1.315417	0.033324	0.446906
C87	C	1.648750	0.366657	0.780239
C88	C	1.134092	-0.000074	0.107474
C89	C	1.467425	0.333260	0.440808
C90	C	1.800759	0.666593	0.774141
C91	C	1.226387	-0.000075	0.109095
C92	C	1.559720	0.333259	0.442429
C93	C	1.893053	0.666592	0.775762
C94	C	0.988198	-0.000074	-0.038430
C95	C	1.321532	0.333259	0.294904
C96	C	1.654865	0.666592	0.628237
C97	C	0.986583	-0.000075	-0.130725
C98	C	1.319916	0.333258	0.202608
C99	C	1.653250	0.666591	0.535942
N100	N	0.982100	0.216931	0.113573
N101	N	1.315434	0.550264	0.446906
N102	N	1.648767	0.883598	0.780239
C103	C	1.058590	-0.000067	-0.352993
C104	C	1.391924	0.333267	-0.019660
C105	C	1.725257	0.666600	0.313674
C106	C	1.057066	-0.000059	-0.439713
C107	C	1.390400	0.333274	-0.106380
C108	C	1.723733	0.666608	0.226953
C109	C	0.905579	-0.000051	-0.419848
C110	C	1.238912	0.333283	-0.086515
C111	C	1.572245	0.666616	0.246818
C112	C	0.907104	-0.000052	-0.333130
C113	C	1.240437	0.333282	0.000204
C114	C	1.573770	0.666615	0.333537
C115	C	0.983612	-0.000064	-0.299704
C116	C	1.316945	0.333269	0.033629
C117	C	1.650279	0.666602	0.366962
C118	C	0.980563	-0.000056	-0.473144
C119	C	1.313896	0.333278	-0.139810
C120	C	1.647230	0.666611	0.193523
C121	C	0.978910	-0.000047	-0.567170
C122	C	1.312243	0.333286	-0.233837
C123	C	1.645577	0.666619	0.099497
C124	C	0.985265	-0.000071	-0.205672
C125	C	1.318599	0.333262	0.127661
C126	C	1.651932	0.666596	0.460994
C127	C	0.975976	-0.000052	0.265581
C128	C	1.309310	0.333282	0.598915
C129	C	1.642643	0.666615	0.932248
C130	C	0.977592	-0.000044	0.357877
C131	C	1.310925	0.333289	0.691210
C132	C	1.644258	0.666622	1.024543
H133	H	0.560734	0.150746	0.114964
H134	H	0.894067	0.484080	0.448297
H135	H	1.227401	0.817413	0.781630
H136	H	1.118121	-0.000059	-0.483098
H137	H	1.451455	0.333275	-0.149765
H138	H	1.784788	0.666608	0.183569
H139	H	0.403415	0.150738	0.112213
H140	H	0.736749	0.484072	0.445546
H141	H	1.070082	0.817405	0.778879
H142	H	1.120888	-0.000075	-0.325781
H143	H	1.454221	0.333258	0.007552
H144	H	1.787555	0.666592	0.340885
H145	H	0.843288	-0.000042	-0.447074
H146	H	1.176622	0.333291	-0.113741
H147	H	1.509955	0.666625	0.219592
H148	H	0.846043	-0.000047	-0.289740
H149	H	1.179377	0.333286	0.043594
H150	H	1.512710	0.666620	0.376927
Br151	Br	0.379891	-0.196002	0.111757
Br152	Br	0.713224	0.137332	0.445090
Br153	Br	1.046558	0.470665	0.778423
H154	H	0.560767	-0.150856	0.114937
H155	H	0.894100	0.182477	0.448270
H156	H	1.227433	0.515811	0.781604
Br157	Br	1.115385	-0.386956	-0.019642
Br158	Br	1.448718	-0.053622	0.313691
Br159	Br	1.782051	0.279711	0.647025
H160	H	1.084685	-0.587126	0.011036
H161	H	1.418018	-0.253793	0.344370
H162	H	1.751352	0.079541	0.677703
H163	H	0.879496	-0.587126	0.216104
H164	H	1.212829	-0.253792	0.549437
H165	H	1.546163	0.079541	0.882771
Br166	Br	0.848776	-0.386931	0.246784
Br167	Br	1.182110	-0.053597	0.580117
Br168	Br	1.515443	0.279736	0.913450
