data_functionalizedCrystal
_audit_creation_method	'MofGen! by Chris Wilmer'
_symmetry_space_group_name_H-M	'P1'
_symmetry_Int_Tables_number	1
_symmetry_cell_setting	triclinic
loop_
_symmetry_equiv_pos_as_xyz
  x,y,z
_cell_length_a	10.685972
_cell_length_b	10.686551
_cell_length_c	12.645330
_cell_angle_alpha	85.596656
_cell_angle_beta	85.636602
_cell_angle_gamma	98.409768
loop_
_atom_site_label
_atom_site_type_symbol
_atom_site_fract_x
_atom_site_fract_y
_atom_site_fract_z
Zn1	Zn	-1.995876	-0.866777	-0.237655
Zn2	Zn	-1.979522	-0.654533	-0.429696
Zn3	Zn	-1.767313	-0.638239	-0.267154
Zn4	Zn	-1.783645	-0.850439	-0.429588
O5	O	-1.881589	-0.752497	-0.341023
O6	O	-2.171336	-0.852279	-0.250830
O7	O	-1.937693	-0.474741	-0.420525
O8	O	-1.797642	-0.668573	-0.114892
O9	O	-2.159321	-0.696345	-0.391922
O10	O	-1.965566	-0.836479	-0.093219
O11	O	-1.781784	-0.462769	-0.301106
O12	O	-1.591850	-0.652731	-0.301001
O13	O	-1.825477	-1.030237	-0.391737
O14	O	-1.603849	-0.808633	-0.420340
O15	O	-1.981403	-1.042240	-0.250725
O16	O	-1.953529	-0.680503	-0.578031
O17	O	-1.809619	-0.824434	-0.577951
C18	C	-1.551793	-0.727142	-0.363860
C19	C	-1.410706	-0.716325	-0.373654
C20	C	-1.907086	-1.083584	-0.317929
C21	C	-1.917951	-1.224674	-0.308087
C22	C	-1.881608	-0.752494	-0.616452
C23	C	-1.881736	-0.752544	-0.734271
C24	C	-1.212673	-0.777946	-0.318091
C25	C	-1.353760	-0.788775	-0.308302
C26	C	-1.856264	-0.422703	-0.363946
C27	C	-1.845645	-0.281633	-0.373472
C28	C	-1.881607	-0.752531	-0.064515
C29	C	-1.881614	-0.752545	0.053317
C30	C	-1.776371	-0.646595	0.207252
C31	C	-1.775937	-0.646855	0.084681
C32	C	-1.855612	-0.883504	0.104653
C33	C	-1.854928	-0.882878	0.227167
C34	C	-2.013411	-0.728723	0.227419
C35	C	-2.012405	-0.725716	0.104553
H36	H	-1.775432	-1.222460	-0.436983
F37	F	-1.431112	-0.880667	-0.225367
H38	H	-1.758979	-0.904271	0.251014
H39	H	-1.351518	-0.646011	-0.437101
H40	H	-1.928892	-0.963951	0.266838
F41	F	-2.046996	-0.606756	0.262060
H42	H	-1.988178	-1.283854	-0.244579
H43	H	-1.791021	-0.549423	0.049234
H44	H	-1.791196	-0.548833	0.231340
F45	F	-1.649290	-0.665828	0.240635
H46	H	-1.678133	-0.661798	0.050066
H47	H	-1.930395	-0.964133	0.085534
H48	H	-1.760744	-0.905489	0.069308
H49	H	-2.032200	-0.629390	0.070485
F50	F	-2.119379	-0.820304	0.077514
H51	H	-2.091787	-0.806013	0.266467
