data_functionalizedCrystal
_audit_creation_method	'MofGen! by Chris Wilmer'
_symmetry_space_group_name_H-M	'P1'
_symmetry_Int_Tables_number	1
_symmetry_cell_setting	triclinic
loop_
_symmetry_equiv_pos_as_xyz
  x,y,z
_cell_length_a	16.956984
_cell_length_b	10.723023
_cell_length_c	15.455313
_cell_angle_alpha	92.691554
_cell_angle_beta	87.518126
_cell_angle_gamma	80.260483
loop_
_atom_site_label
_atom_site_type_symbol
_atom_site_fract_x
_atom_site_fract_y
_atom_site_fract_z
O1	O	1.061785	0.045856	-0.072134
O2	O	0.829867	0.089641	-0.072135
O3	O	0.951176	-0.114451	-0.072131
O4	O	0.940477	0.249948	-0.072138
O5	O	0.944239	-0.102825	0.072131
O6	O	0.822930	0.101267	0.072127
O7	O	1.054848	0.057482	0.072128
Cu8	Cu	0.938256	0.080436	0.085300
Cu9	Cu	0.946460	0.066687	-0.085307
O10	O	0.933539	0.261574	0.072124
C11	C	0.796703	0.097696	-0.000004
C12	C	0.708219	0.104362	-0.000004
C13	C	0.675525	-0.007091	-0.000000
C14	C	0.592384	-0.000821	-0.000006
C15	C	0.541938	0.116904	-0.000010
C16	C	0.574638	0.228365	-0.000017
C17	C	0.657777	0.222093	-0.000017
C18	C	0.292336	0.147949	-0.000017
C19	C	0.209191	0.154213	-0.000014
C20	C	0.226943	-0.074974	-0.000006
C21	C	0.310083	-0.081235	-0.000000
C22	C	0.342776	0.030226	-0.000011
N23	N	0.456955	0.123316	-0.000014
N24	N	0.427758	0.023812	-0.000014
C25	C	0.946929	-0.155047	-0.000001
C26	C	0.944600	-0.293330	-0.000004
C27	C	0.947155	-0.360997	-0.074737
C28	C	0.944748	-0.503920	-0.074741
C29	C	1.088013	0.049427	-0.000005
C30	C	1.176497	0.042760	-0.000011
C31	C	0.937787	0.302170	-0.000008
C32	C	0.940116	0.440452	-0.000011
N33	N	0.932491	0.090105	0.205295
N34	N	0.952231	0.057008	-0.205302
C35	C	0.984046	0.003427	0.250691
C36	C	0.979694	0.010750	0.341499
C37	C	0.923790	0.104757	0.386909
C38	C	0.872230	0.191439	0.341507
C39	C	0.876579	0.184109	0.250701
C40	C	0.905019	0.136360	0.658490
C41	C	0.900676	0.143685	0.749302
C42	C	1.008139	-0.037006	0.749288
C43	C	1.012486	-0.044322	0.658480
C44	C	0.960923	0.042355	0.613086
N45	N	0.919342	0.112247	0.479729
N46	N	0.965368	0.034859	0.520267
H47	H	0.168119	0.250084	-0.000014
F48	F	0.952358	-0.298429	-0.158364
F49	F	0.729206	-0.132391	0.000010
F50	F	0.520948	0.353657	-0.000029
H51	H	0.318944	0.238708	-0.000032
H52	H	0.940625	-0.341206	0.063975
F53	F	0.850145	0.228611	0.610185
F54	F	0.692572	0.340717	-0.000024
F55	F	0.192144	-0.193590	0.000003
H56	H	0.946936	-0.562091	-0.138723
F57	F	0.937267	-0.483530	0.083625
F58	F	0.812729	0.291484	0.389837
F59	F	1.043550	-0.096623	0.202370
F60	F	0.557594	-0.119446	-0.000022
H61	H	1.021673	-0.059830	0.378459
F62	F	0.821705	0.276361	0.202389
F63	F	1.071985	-0.144373	0.610152
F64	F	1.063010	-0.129251	0.797605
H65	H	0.855151	0.220242	0.786271
H66	H	0.351151	-0.177099	0.000006
