data_functionalizedCrystal
_audit_creation_method	'MofGen! by Chris Wilmer'
_symmetry_space_group_name_H-M	'P1'
_symmetry_Int_Tables_number	1
_symmetry_cell_setting	triclinic
loop_
_symmetry_equiv_pos_as_xyz
  x,y,z
_cell_length_a	19.077105
_cell_length_b	14.908520
_cell_length_c	19.076919
_cell_angle_alpha	84.570994
_cell_angle_beta	89.923776
_cell_angle_gamma	91.150228
loop_
_atom_site_label
_atom_site_type_symbol
_atom_site_fract_x
_atom_site_fract_y
_atom_site_fract_z
Zn1	Zn	1.037881	-0.436364	0.459234
Zn2	Zn	1.287881	-0.186364	0.709234
Zn3	Zn	1.537881	0.063636	0.959234
Zn4	Zn	1.787881	0.313636	1.209234
Zn5	Zn	1.035744	-0.581390	0.347980
Zn6	Zn	1.285744	-0.331390	0.597980
Zn7	Zn	1.535744	-0.081390	0.847980
Zn8	Zn	1.785744	0.168610	1.097980
Zn9	Zn	0.925663	-0.424281	0.336506
Zn10	Zn	1.175663	-0.174281	0.586506
Zn11	Zn	1.425663	0.075719	0.836506
Zn12	Zn	1.675663	0.325719	1.086506
Zn13	Zn	0.913591	-0.580846	0.460710
Zn14	Zn	1.163591	-0.330846	0.710710
Zn15	Zn	1.413591	-0.080846	0.960710
Zn16	Zn	1.663591	0.169154	1.210710
O17	O	0.978220	-0.505720	0.401107
O18	O	1.228220	-0.255720	0.651107
O19	O	1.478220	-0.005720	0.901107
O20	O	1.728220	0.244280	1.151107
O21	O	1.135682	-0.460886	0.448660
O22	O	1.385682	-0.210886	0.698660
O23	O	1.635682	0.039114	0.948660
O24	O	1.885682	0.289114	1.198660
O25	O	1.025299	-0.555720	0.247919
O26	O	1.275299	-0.305720	0.497919
O27	O	1.525299	-0.055720	0.747919
O28	O	1.775299	0.194280	0.997919
O29	O	0.946495	-0.299666	0.347366
O30	O	1.196495	-0.049666	0.597366
O31	O	1.446495	0.200334	0.847366
O32	O	1.696495	0.450334	1.097366
O33	O	1.134112	-0.567437	0.366923
O34	O	1.384112	-0.317437	0.616923
O35	O	1.634112	-0.067437	0.866923
O36	O	1.884112	0.182563	1.116923
O37	O	1.028941	-0.308543	0.437534
O38	O	1.278941	-0.058543	0.687534
O39	O	1.528941	0.191457	0.937534
O40	O	1.778941	0.441457	1.187534
O41	O	0.944423	-0.440292	0.239489
O42	O	1.194423	-0.190292	0.489489
O43	O	1.444423	0.059708	0.739489
O44	O	1.694423	0.309708	0.989489
O45	O	0.825977	-0.439765	0.348797
O46	O	1.075977	-0.189765	0.598797
O47	O	1.325977	0.060235	0.848797
O48	O	1.575977	0.310235	1.098797
O49	O	0.925920	-0.566510	0.559053
O50	O	1.175920	-0.316510	0.809053
O51	O	1.425920	-0.066510	1.059053
O52	O	1.675920	0.183490	1.309053
O53	O	0.817107	-0.554793	0.440049
O54	O	1.067107	-0.304793	0.690049
O55	O	1.317107	-0.054793	0.940049
O56	O	1.567107	0.195207	1.190049
O57	O	1.017235	-0.460359	0.557969
O58	O	1.267235	-0.210359	0.807969
O59	O	1.517235	0.039641	1.057969
O60	O	1.767235	0.289641	1.307969
O61	O	1.013594	-0.707536	0.368354
O62	O	1.263594	-0.457536	0.618354
O63	O	1.513594	-0.207536	0.868354
O64	O	1.763594	0.042464	1.118354
O65	O	0.923848	-0.707136	0.451175
O66	O	1.173848	-0.457136	0.701175
O67	O	1.423848	-0.207136	0.951175
O68	O	1.673848	0.042864	1.201175
C69	C	0.796110	-0.495910	0.393339
C70	C	1.046110	-0.245910	0.643339
C71	C	1.296110	0.004090	0.893339
C72	C	1.546110	0.254090	1.143339
C73	C	0.718201	-0.491735	0.390033
C74	C	0.968201	-0.241735	0.640033
C75	C	1.218201	0.008265	0.890033
C76	C	1.468201	0.258265	1.140033
C77	C	0.967198	-0.740065	0.411186
C78	C	1.217198	-0.490065	0.661186
C79	C	1.467198	-0.240065	0.911186
C80	C	1.717198	0.009935	1.161186
C81	C	0.962545	-0.840323	0.415524
C82	C	1.212545	-0.590323	0.665524
C83	C	1.462545	-0.340323	0.915524
C84	C	1.712545	-0.090323	1.165524
C85	C	0.676998	-0.549746	0.435923
C86	C	0.926998	-0.299746	0.685923
C87	C	1.176998	-0.049746	0.935923
C88	C	1.426998	0.200254	1.185923
C89	C	0.603795	-0.545812	0.432820
C90	C	0.853795	-0.295812	0.682820
C91	C	1.103795	-0.045812	0.932820
C92	C	1.353795	0.204188	1.182820
C93	C	0.571795	-0.483870	0.383823
C94	C	0.821795	-0.233870	0.633823
C95	C	1.071795	0.016130	0.883823
C96	C	1.321795	0.266130	1.133823
C97	C	0.613003	-0.425853	0.337931
C98	C	0.863003	-0.175853	0.587931
C99	C	1.113003	0.074147	0.837931
C100	C	1.363003	0.324147	1.087931
C101	C	0.686205	-0.429783	0.341038
C102	C	0.936205	-0.179783	0.591038
C103	C	1.186205	0.070217	0.841038
C104	C	1.436205	0.320217	1.091038
C105	C	0.353358	-0.465680	0.369446
C106	C	0.603358	-0.215680	0.619446
C107	C	0.853358	0.034320	0.869446
C108	C	1.103358	0.284320	1.119446
C109	C	0.280150	-0.461756	0.366341
C110	C	0.530150	-0.211756	0.616341
C111	C	0.780150	0.038244	0.866341
C112	C	1.030150	0.288244	1.116341
C113	C	0.270947	-0.581715	0.461231
C114	C	0.520947	-0.331715	0.711231
C115	C	0.770947	-0.081715	0.961231
C116	C	1.020947	0.168285	1.211231
C117	C	0.344151	-0.585643	0.464331
C118	C	0.594151	-0.335643	0.714331
C119	C	0.844151	-0.085643	0.964331
C120	C	1.094151	0.164357	1.214331
C121	C	0.385353	-0.527623	0.418441
C122	C	0.635353	-0.277623	0.668441
C123	C	0.885353	-0.027623	0.918441
C124	C	1.135353	0.222377	1.168441
N125	N	0.496969	-0.479850	0.380648
N126	N	0.746969	-0.229850	0.630648
N127	N	0.996969	0.020150	0.880648
N128	N	1.246969	0.270150	1.130648
N129	N	0.460177	-0.531640	0.421620
N130	N	0.710177	-0.281640	0.671620
N131	N	0.960177	-0.031640	0.921620
N132	N	1.210177	0.218360	1.171620
C133	C	1.047344	-1.029082	0.337510
C134	C	1.297344	-0.779082	0.587510
C135	C	1.547344	-0.529082	0.837510
C136	C	1.797344	-0.279082	1.087510
C137	C	1.042976	-1.123283	0.341584
C138	C	1.292976	-0.873283	0.591584
C139	C	1.542976	-0.623283	0.841584
C140	C	1.792976	-0.373283	1.091584
C141	C	0.949443	-1.122929	0.427749
C142	C	1.199443	-0.872929	0.677749
C143	C	1.449443	-0.622929	0.927749
C144	C	1.699443	-0.372929	1.177749
C145	C	0.953812	-1.028727	0.423675
C146	C	1.203812	-0.778727	0.673675
C147	C	1.453812	-0.528727	0.923675
C148	C	1.703812	-0.278727	1.173675
C149	C	1.002763	-0.981807	0.378553
C150	C	1.252763	-0.731807	0.628553
C151	C	1.502763	-0.481807	0.878553
C152	C	1.752763	-0.231807	1.128553
C153	C	1.007128	-0.887604	0.374476
C154	C	1.257128	-0.637604	0.624476
C155	C	1.507128	-0.387604	0.874476
C156	C	1.757128	-0.137604	1.124476
C157	C	0.913600	-0.887251	0.460644
C158	C	1.163600	-0.637251	0.710644
C159	C	1.413600	-0.387251	0.960644
C160	C	1.663600	-0.137251	1.210644
C161	C	0.909231	-0.981453	0.464718
C162	C	1.159231	-0.731453	0.714718
C163	C	1.409231	-0.481453	0.964718
C164	C	1.659231	-0.231453	1.214718
C165	C	1.161040	-0.515570	0.408907
C166	C	1.411040	-0.265570	0.658907
C167	C	1.661040	-0.015570	0.908907
C168	C	1.911040	0.234430	1.158907
C169	C	1.238948	-0.519767	0.412230
C170	C	1.488948	-0.269767	0.662230
C171	C	1.738948	-0.019767	0.912230
C172	C	1.988948	0.230233	1.162230
C173	C	0.970470	-0.514721	0.584776
C174	C	1.220470	-0.264721	0.834776
C175	C	1.470470	-0.014721	1.084776
C176	C	1.720470	0.235279	1.334776
C177	C	0.967167	-0.518557	0.663044
C178	C	1.217167	-0.268557	0.913044
C179	C	1.467167	-0.018557	1.163044
C180	C	1.717167	0.231443	1.413044
C181	C	0.989303	-0.270463	0.391006
C182	C	1.239303	-0.020463	0.641006
C183	C	1.489303	0.229537	0.891006
C184	C	1.739303	0.479537	1.141006
C185	C	0.994026	-0.170210	0.386701
C186	C	1.244026	0.079790	0.636701
C187	C	1.494026	0.329790	0.886701
C188	C	1.744026	0.579790	1.136701
C189	C	0.985983	-0.496691	0.218153
C190	C	1.235983	-0.246691	0.468153
C191	C	1.485983	0.003309	0.718153
C192	C	1.735983	0.253309	0.968153
C193	C	0.989433	-0.492609	0.139879
C194	C	1.239433	-0.242609	0.389879
C195	C	1.489433	0.007391	0.639879
C196	C	1.739433	0.257391	0.889879
C197	C	1.013156	-0.465095	0.699251
C198	C	1.263156	-0.215095	0.949251
C199	C	1.513156	0.034905	1.199251
C200	C	1.763156	0.284905	1.449251
C201	C	1.010044	-0.468695	0.772793
C202	C	1.260044	-0.218695	1.022793
C203	C	1.510044	0.031305	1.272793
C204	C	1.760044	0.281305	1.522793
C205	C	0.960947	-0.525763	0.810125
C206	C	1.210947	-0.275763	1.060125
C207	C	1.460947	-0.025763	1.310125
C208	C	1.710947	0.224237	1.560125
C209	C	0.914953	-0.579227	0.773913
C210	C	1.164953	-0.329227	1.023913
C211	C	1.414953	-0.079227	1.273913
C212	C	1.664953	0.170773	1.523913
C213	C	0.918062	-0.575622	0.700373
C214	C	1.168062	-0.325622	0.950373
C215	C	1.418062	-0.075622	1.200373
C216	C	1.668062	0.174378	1.450373
C217	C	0.946548	-0.542468	1.030127
C218	C	1.196548	-0.292468	1.280127
C219	C	1.446548	-0.042468	1.530127
C220	C	1.696548	0.207532	1.780127
C221	C	0.943444	-0.546071	1.103672
C222	C	1.193444	-0.296071	1.353672
C223	C	1.443444	-0.046071	1.603672
C224	C	1.693444	0.203929	1.853672
C225	C	1.038535	-0.435537	1.102547
C226	C	1.288535	-0.185537	1.352547
C227	C	1.538535	0.064463	1.602547
C228	C	1.788535	0.314463	1.852547
C229	C	1.041642	-0.431941	1.029006
C230	C	1.291642	-0.181941	1.279006
C231	C	1.541642	0.068059	1.529006
C232	C	1.791642	0.318059	1.779006
C233	C	0.995646	-0.485402	0.992799
C234	C	1.245646	-0.235402	1.242799
C235	C	1.495646	0.014598	1.492799
C236	C	1.745646	0.264598	1.742799
N237	N	0.957767	-0.529446	0.885296
N238	N	1.207767	-0.279446	1.135296
N239	N	1.457767	-0.029446	1.385296
N240	N	1.707767	0.220554	1.635296
N241	N	0.998824	-0.481713	0.917629
N242	N	1.248824	-0.231713	1.167629
N243	N	1.498824	0.018287	1.417629
N244	N	1.748824	0.268287	1.667629
H245	H	0.703047	-0.600189	0.475819
H246	H	0.953047	-0.350189	0.725819
H247	H	1.203047	-0.100189	0.975819
H248	H	1.453047	0.149811	1.225819
F249	F	0.227093	-0.643461	0.510065
F250	F	0.477093	-0.393461	0.760065
F251	F	0.727093	-0.143461	1.010065
F252	F	0.977093	0.106539	1.260065
F253	F	1.059015	-0.411825	0.811326
F254	F	1.309015	-0.161825	1.061326
F255	F	1.559015	0.088175	1.311326
F256	F	1.809015	0.338175	1.561326
H257	H	0.254099	-0.411305	0.326445
H258	H	0.504099	-0.161305	0.576445
H259	H	0.754099	0.088695	0.826445
H260	H	1.004099	0.338695	1.076445
H261	H	1.075982	-0.392011	1.132034
H262	H	1.325982	-0.142011	1.382034
H263	H	1.575982	0.107989	1.632034
H264	H	1.825982	0.357989	1.882034
F265	F	0.862697	-0.639960	0.813647
F266	F	1.112697	-0.389960	1.063647
F267	F	1.362697	-0.139960	1.313647
F268	F	1.612697	0.110040	1.563647
F269	F	0.897358	-1.172881	0.475774
F270	F	1.147358	-0.922881	0.725774
F271	F	1.397358	-0.672881	0.975774
F272	F	1.647358	-0.422881	1.225774
F273	F	1.093899	-0.371201	0.989278
F274	F	1.343899	-0.121201	1.239278
F275	F	1.593899	0.128799	1.489278
F276	F	1.843899	0.378799	1.739278
H277	H	0.386895	-0.418442	0.332074
H278	H	0.636895	-0.168442	0.582074
H279	H	0.886895	0.081558	0.832074
H280	H	1.136895	0.331558	1.082074
F281	F	0.869112	-0.632522	0.661838
F282	F	1.119112	-0.382522	0.911838
F283	F	1.369112	-0.132522	1.161838
F284	F	1.619112	0.117478	1.411838
H285	H	1.046985	-0.849402	0.337734
H286	H	1.296985	-0.599402	0.587734
H287	H	1.546985	-0.349402	0.837734
H288	H	1.796985	-0.099402	1.087734
F289	F	0.730055	-0.368038	0.292197
F290	F	0.980055	-0.118038	0.542197
F291	F	1.230055	0.131962	0.792197
F292	F	1.480055	0.381962	1.042197
F293	F	0.891183	-0.606810	1.143403
F294	F	1.141183	-0.356810	1.393403
F295	F	1.391183	-0.106810	1.643403
F296	F	1.641183	0.143190	1.893403
H297	H	0.370200	-0.636085	0.504228
H298	H	0.620200	-0.386085	0.754228
H299	H	0.870200	-0.136085	1.004228
H300	H	1.120200	0.113915	1.254228
F301	F	0.559947	-0.607556	0.481662
F302	F	0.809947	-0.357556	0.731662
F303	F	1.059947	-0.107556	0.981662
F304	F	1.309947	0.142444	1.231662
F305	F	1.065416	-0.404359	0.659526
F306	F	1.315416	-0.154359	0.909526
F307	F	1.565416	0.095641	1.159526
F308	F	1.815416	0.345641	1.409526
H309	H	0.586943	-0.375415	0.298039
H310	H	0.836943	-0.125415	0.548039
H311	H	1.086943	0.124585	0.798039
H312	H	1.336943	0.374585	1.048039
F313	F	1.099432	-0.979143	0.289480
F314	F	1.349432	-0.729143	0.539480
F315	F	1.599432	-0.479143	0.789480
F316	F	1.849432	-0.229143	1.039480
H317	H	1.079279	-1.161771	0.308163
H318	H	1.329279	-0.911771	0.558163
H319	H	1.579279	-0.661771	0.808163
H320	H	1.829279	-0.411771	1.058163
H321	H	0.877297	-0.848750	0.494062
H322	H	1.127297	-0.598750	0.744062
H323	H	1.377297	-0.348750	0.994062
H324	H	1.627297	-0.098750	1.244062
F325	F	0.857139	-1.031399	0.512739
F326	F	1.107139	-0.781399	0.762739
F327	F	1.357139	-0.531399	1.012739
F328	F	1.607139	-0.281399	1.262739
F329	F	0.897595	-0.599366	0.991602
F330	F	1.147595	-0.349366	1.241602
F331	F	1.397595	-0.099366	1.491602
F332	F	1.647595	0.150634	1.741602
