data_functionalizedCrystal
_audit_creation_method	'MofGen! by Chris Wilmer'
_symmetry_space_group_name_H-M	'P1'
_symmetry_Int_Tables_number	1
_symmetry_cell_setting	triclinic
loop_
_symmetry_equiv_pos_as_xyz
  x,y,z
_cell_length_a	16.625546
_cell_length_b	21.395362
_cell_length_c	21.395355
_cell_angle_alpha	90.048039
_cell_angle_beta	89.981524
_cell_angle_gamma	89.959270
loop_
_atom_site_label
_atom_site_type_symbol
_atom_site_fract_x
_atom_site_fract_y
_atom_site_fract_z
Zn1	Zn	-0.320702	-0.957895	-0.354654
Zn2	Zn	-0.455517	-0.957813	-0.249877
Zn3	Zn	-0.320745	-0.853110	-0.249848
Zn4	Zn	-0.455539	-0.853095	-0.354574
O5	O	-0.388126	-0.905478	-0.302238
O6	O	-0.338558	-1.045562	-0.340801
O7	O	-0.437648	-0.943896	-0.162195
O8	O	-0.207907	-0.867051	-0.263772
O9	O	-0.437606	-1.045502	-0.263821
O10	O	-0.207875	-0.944037	-0.340773
O11	O	-0.338632	-0.866971	-0.162174
O12	O	-0.338653	-0.765430	-0.263695
O13	O	-0.437644	-0.867025	-0.442263
O14	O	-0.437686	-0.765419	-0.340636
O15	O	-0.338580	-0.944021	-0.442322
O16	O	-0.568352	-0.943881	-0.263744
O17	O	-0.568369	-0.866945	-0.340664
C18	C	-0.388177	-0.742691	-0.302154
C19	C	-0.388219	-0.673049	-0.302133
C20	C	-0.439855	-0.640347	-0.342134
C21	C	-0.439839	-0.574911	-0.342157
C22	C	-0.388195	-0.542181	-0.302168
C23	C	-0.336548	-0.574892	-0.262164
C24	C	-0.336560	-0.640326	-0.262146
C25	C	-0.381705	-0.438456	-0.245755
C26	C	-0.381698	-0.373023	-0.245772
C27	C	-0.388153	-0.340360	-0.302223
C28	C	-0.394631	-0.373139	-0.358659
C29	C	-0.394643	-0.438573	-0.358641
C30	C	-0.388175	-0.471229	-0.302183
C31	C	-0.439774	-0.236705	-0.342253
C32	C	-0.439752	-0.171269	-0.342277
C33	C	-0.336466	-0.171250	-0.262278
C34	C	-0.336484	-0.236686	-0.262259
C35	C	-0.388142	-0.269409	-0.302246
C36	C	-0.597617	-0.905419	-0.302212
C37	C	-0.687238	-0.905451	-0.302222
C38	C	-1.015413	-0.905560	-0.302287
C39	C	-0.924105	-0.905528	-0.302271
C40	C	-0.851328	-0.905505	-0.302254
C41	C	-0.760014	-0.905474	-0.302238
C42	C	-0.177817	-0.905555	-0.302278
C43	C	-0.088196	-0.905588	-0.302296
C44	C	-0.388110	-0.905530	-0.465662
C45	C	-0.388103	-0.905553	-0.535303
C46	C	-0.388088	-0.068902	-0.302305
C47	C	-0.388107	-0.138543	-0.302288
C48	C	-0.336518	-0.945643	-0.568048
C49	C	-0.336483	-0.945642	-0.633483
C50	C	-0.388048	-0.905557	-0.666171
C51	C	-0.439636	-0.865459	-0.633419
C52	C	-0.439664	-0.865457	-0.567985
C53	C	-0.460650	-0.900590	-0.769835
C54	C	-0.460624	-0.900596	-0.835268
C55	C	-0.387962	-0.905561	-0.867992
C56	C	-0.315324	-0.910532	-0.835276
C57	C	-0.315352	-0.910530	-0.769841
C58	C	-0.388023	-0.905555	-0.737124
C59	C	-0.336335	-0.945653	-0.971690
C60	C	-0.336299	-0.945648	-1.037126
C61	C	-0.439460	-0.865468	-1.037061
C62	C	-0.439489	-0.865470	-0.971625
C63	C	-0.387928	-0.905566	-0.938944
C64	C	-0.388084	-0.905463	-0.139451
C65	C	-0.387864	-0.905562	-0.069810
H66	H	-0.481918	-0.666986	-0.374695
H67	H	-0.294347	-0.978298	-0.945079
Br68	Br	-0.266368	-0.126838	-0.208012
Br69	Br	-0.509920	-0.530519	-0.396450
Br70	Br	-0.403389	-0.328821	-0.435277
Br71	Br	-0.509877	-0.281119	-0.396521
H72	H	-0.294509	-0.666952	-0.229572
H73	H	-0.481618	-0.832820	-0.660038
Br74	Br	-0.403430	-0.483057	-0.435228
H75	H	-0.481799	-0.144643	-0.374855
H76	H	-0.376445	-0.465044	-0.199783
H77	H	-0.294440	-0.263313	-0.229683
H78	H	-0.519770	-0.896552	-0.861901
H79	H	-0.481500	-0.832828	-0.944964
H80	H	-0.376428	-0.346339	-0.199818
H81	H	-0.294498	-0.548239	-0.229606
H82	H	-0.294531	-0.978291	-0.541443
H83	H	-0.294472	-0.978287	-0.660149
Br84	Br	-0.216777	-0.917273	-0.725442
H85	H	-0.481437	-0.832824	-1.063675
H86	H	-0.256156	-0.914576	-0.861918
Br87	Br	-0.266297	-1.000071	-1.081567
Br88	Br	-0.559274	-0.893870	-0.725430
Br89	Br	-0.509676	-0.811043	-0.523542
