data_functionalizedCrystal
_audit_creation_method	'MofGen! by Chris Wilmer'
_symmetry_space_group_name_H-M	'P1'
_symmetry_Int_Tables_number	1
_symmetry_cell_setting	triclinic
loop_
_symmetry_equiv_pos_as_xyz
  x,y,z
_cell_length_a	6.817900
_cell_length_b	17.982959
_cell_length_c	10.992410
_cell_angle_alpha	94.193478
_cell_angle_beta	108.764651
_cell_angle_gamma	102.451857
loop_
_atom_site_label
_atom_site_type_symbol
_atom_site_fract_x
_atom_site_fract_y
_atom_site_fract_z
V1	V	-4.082291	-0.105413	-0.401130
O2	O	-4.073912	0.005065	-0.392942
O3	O	-4.028461	-0.209015	-0.398917
O4	O	-4.060375	-0.103791	-0.575834
O5	O	-4.041777	-0.100887	-0.214800
V6	V	-4.563191	-0.092198	-0.378779
O7	O	-4.349303	-0.134400	-0.450158
O8	O	-4.746375	-0.063211	-0.329750
O9	O	-4.393814	0.011405	-0.380991
O10	O	-4.688967	-0.202676	-0.386967
O11	O	-4.721101	-0.096723	-0.565108
O12	O	-4.361900	-0.093820	-0.204074
C13	C	-3.871284	-0.234271	-0.392726
C14	C	-3.908735	-0.318968	-0.392082
C15	C	-4.109221	-0.362639	-0.398207
C16	C	-4.144402	-0.442221	-0.397609
C17	C	-3.979090	-0.478130	-0.390877
C18	C	-3.778590	-0.434453	-0.384754
C19	C	-3.743416	-0.354873	-0.385362
C20	C	-3.920439	-0.755389	-0.382307
C21	C	-3.955627	-0.834974	-0.381696
C22	C	-4.321425	-0.842736	-0.394555
C23	C	-4.286251	-0.763157	-0.395162
C24	C	-4.085759	-0.719488	-0.389047
C25	C	-4.047615	-0.633196	-0.389698
C26	C	-4.017227	-0.564419	-0.390216
C27	C	-3.911992	-0.100046	-0.618399
C28	C	-3.975320	-0.099406	-0.761224
C29	C	-3.844212	-0.093573	-0.956318
C30	C	-3.778364	-0.094555	-0.807840
C31	C	-4.150562	-0.174528	-0.838711
C32	C	-4.215077	-0.173864	-0.987274
C33	C	-4.136942	-0.028401	-0.948502
C34	C	-4.066341	-0.028045	-0.799487
C35	C	-4.214332	0.036657	-0.387179
C36	C	-4.156121	0.121353	-0.387831
C37	C	-4.173624	-0.097567	-0.161502
C38	C	-4.089534	-0.098203	-0.018676
H39	H	-3.757187	-0.719842	-0.377320
Cl40	Cl	-4.573482	-0.897640	-0.402247
Cl41	Cl	-3.491370	-0.299973	-0.377668
Cl42	Cl	-4.166313	-0.255463	-1.059133
Cl43	Cl	-3.688690	-0.009528	-0.984743
Cl44	Cl	-3.666299	-0.173068	-0.769920
Cl45	Cl	-4.055121	-0.256332	-0.799599
H46	H	-3.939934	0.027527	-0.746846
H47	H	-4.299039	-0.180791	-0.809939
H48	H	-4.395098	-0.180396	-1.029939
Cl49	Cl	-3.747789	-0.880115	-0.373233
H50	H	-3.646284	-0.040539	-0.754224
Cl51	Cl	-3.570771	-0.479596	-0.376298
Cl52	Cl	-3.782225	-0.171007	-1.030798
Cl53	Cl	-4.004757	0.059674	-0.979487
Cl54	Cl	-4.396450	-0.497119	-0.405308
Cl55	Cl	-4.286159	-0.026676	-0.749276
Cl56	Cl	-4.494075	-0.718018	-0.403610
H57	H	-4.315098	-0.031131	-0.989356
H58	H	-4.243836	-0.333408	-0.403678
