data_functionalizedCrystal
_audit_creation_method	'MofGen! by Chris Wilmer'
_symmetry_space_group_name_H-M	'P1'
_symmetry_Int_Tables_number	1
_symmetry_cell_setting	triclinic
loop_
_symmetry_equiv_pos_as_xyz
  x,y,z
_cell_length_a	10.540535
_cell_length_b	15.995363
_cell_length_c	9.616153
_cell_angle_alpha	90.003718
_cell_angle_beta	89.996418
_cell_angle_gamma	95.989481
loop_
_atom_site_label
_atom_site_type_symbol
_atom_site_fract_x
_atom_site_fract_y
_atom_site_fract_z
O1	O	0.163687	-1.111959	-0.115548
O2	O	0.183876	-0.868306	-0.115574
O3	O	-0.011001	-0.995694	-0.115546
O4	O	0.358565	-0.984572	-0.115576
O5	O	-0.010997	-0.995676	0.115745
O6	O	0.183880	-0.868288	0.115718
O7	O	0.163692	-1.111942	0.115743
Zn8	Zn	0.173786	-0.990112	0.152453
Zn9	Zn	0.173781	-0.990136	-0.152283
O10	O	0.358569	-0.984554	0.115716
C11	C	0.183041	-0.837098	0.000069
C12	C	0.180530	-0.744133	0.000059
C13	C	0.171514	-0.406333	0.000094
C14	C	0.032723	-0.452939	0.000620
C15	C	0.035235	-0.549643	0.000088
C16	C	0.175986	-0.573920	0.000078
C17	C	0.244439	-0.533252	-0.132000
C18	C	0.240946	-0.436595	-0.132100
C19	C	0.243818	-0.436254	0.130922
C20	C	0.243792	-0.533198	0.132656
C21	C	0.178521	-0.668632	0.000064
C22	C	0.168984	-0.311621	0.000099
C23	C	-0.058291	-0.994851	0.000100
C24	C	-0.199205	-0.992359	0.000102
C25	C	-0.234604	-0.899350	0.000082
C26	C	-0.381168	-0.896727	-0.000468
C27	C	-0.409113	-1.034825	-0.131747
C28	C	-0.262375	-1.036805	-0.131833
C29	C	-0.262527	-1.038137	0.131198
C30	C	-0.408814	-1.033836	0.132905
C31	C	0.405858	-0.985396	0.000066
C32	C	0.546773	-0.987889	0.000056
N33	N	0.173790	-0.990103	0.360427
C34	C	0.164510	-0.143152	0.000101
C35	C	0.166970	-0.236120	0.000112
N36	N	0.173768	-0.990152	-0.360258
C37	C	0.277692	-0.921751	0.580783
C38	C	0.278076	-0.921901	0.419615
C39	C	0.202726	-1.077643	0.418883
C40	C	0.203460	-1.077270	0.580101
C41	C	0.040601	-0.971786	0.580347
C42	C	0.041493	-0.969777	0.419120
H43	H	0.346433	-0.549175	0.140627
H44	H	-0.221764	-1.005121	-0.230743
H45	H	0.342844	-0.404956	-0.138100
F46	F	-0.233486	-1.125924	-0.139124
H47	H	0.347846	-0.547994	-0.136919
H48	H	-0.039464	-1.016295	0.378836
F49	F	0.184508	-0.409053	0.261777
F50	F	0.178375	-0.568419	0.260371
H51	H	0.300578	-1.093333	0.617683
F52	F	0.106425	-1.145799	0.368775
H53	H	-0.439566	-1.002637	-0.230226
H54	H	0.346148	-0.405103	0.131808
F55	F	-0.039470	-0.426903	-0.122482
F56	F	0.407256	-0.937303	0.369174
F57	F	0.108189	-1.145789	0.631081
F58	F	-0.039791	-0.428283	0.124427
F59	F	-0.035289	-0.585623	-0.124067
F60	F	0.175689	-0.412283	-0.261139
F61	F	-0.418870	-0.848746	0.122998
H62	H	0.298739	-1.094063	0.378487
F63	F	0.182292	-0.569975	-0.260474
F64	F	0.004251	-0.890100	0.633548
H65	H	0.019534	-0.905378	0.380915
H66	H	-0.036736	-1.021659	0.618474
H67	H	-0.192151	-0.863627	0.094591
F68	F	-0.206522	-1.000192	0.261832
F69	F	-0.177169	-0.853455	-0.123289
H70	H	-0.409116	-0.860218	-0.095525
H71	H	-0.457387	-1.101947	-0.136273
F72	F	-0.445597	-0.989192	0.260362
H73	H	-0.458760	-1.100372	0.141268
H74	H	-0.241267	-1.106566	0.132490
H75	H	-0.018573	-0.577744	0.094768
H76	H	0.260834	-0.856857	0.380095
H77	H	0.260732	-0.856503	0.619589
F78	F	0.406136	-0.936987	0.633685
