data_functionalizedCrystal
_audit_creation_method	'MofGen! by Chris Wilmer'
_symmetry_space_group_name_H-M	'P1'
_symmetry_Int_Tables_number	1
_symmetry_cell_setting	triclinic
loop_
_symmetry_equiv_pos_as_xyz
  x,y,z
_cell_length_a	10.540539
_cell_length_b	15.944551
_cell_length_c	9.616153
_cell_angle_alpha	89.996788
_cell_angle_beta	89.995174
_cell_angle_gamma	84.012115
loop_
_atom_site_label
_atom_site_type_symbol
_atom_site_fract_x
_atom_site_fract_y
_atom_site_fract_z
O1	O	1.684280	0.118370	-0.115583
O2	O	1.314716	0.129523	-0.115601
O3	O	1.509590	0.001731	-0.115579
O4	O	1.489406	0.246161	-0.115605
O5	O	1.509563	0.001734	0.115712
O6	O	1.314689	0.129525	0.115690
O7	O	1.684254	0.118372	0.115708
Zn8	Zn	1.499467	0.123949	0.152422
Zn9	Zn	1.499502	0.123946	-0.152315
O10	O	1.489379	0.246163	0.115686
C11	C	1.267411	0.128688	0.000043
C12	C	1.126497	0.126185	0.000036
C13	C	0.944375	0.030298	0.000587
C14	C	1.090959	0.032835	0.000051
C15	C	1.064228	0.171108	-0.132042
C16	C	0.917727	0.167922	-0.132138
C17	C	0.917182	0.169824	0.130883
C18	C	1.064152	0.170684	0.132615
C19	C	1.508739	-0.029566	0.000067
C20	C	1.506227	-0.122827	0.000067
C21	C	1.379430	-0.338440	0.000042
C22	C	1.438297	-0.399105	0.114086
C23	C	1.501682	-0.293580	0.000056
C24	C	1.438352	-0.399091	-0.113950
C25	C	1.497283	-0.458519	0.000040
C26	C	1.560583	-0.353017	0.114194
C27	C	1.560621	-0.352996	-0.113944
C28	C	1.619577	-0.413643	0.000128
C29	C	1.504213	-0.198563	0.000067
C30	C	1.494762	-0.553535	0.000039
C31	C	1.731559	0.119207	0.000061
C32	C	1.872473	0.121710	0.000058
C33	C	1.490231	0.277461	0.000037
C34	C	1.492743	0.370722	0.000027
N35	N	1.499452	0.123951	0.360396
N36	N	1.499527	0.123937	-0.360289
C37	C	1.394895	0.192081	0.580755
C38	C	1.395120	0.192337	0.419587
C39	C	1.631904	0.143890	0.418850
C40	C	1.631333	0.144372	0.580067
C41	C	1.472882	0.035659	0.580316
C42	C	1.469828	0.036231	0.419089
H43	H	1.134043	-0.002512	0.094731
C44	C	1.368440	-0.426693	0.244324
H45	H	1.425017	-0.464028	0.298020
H46	H	1.297102	-0.454577	0.216912
H47	H	1.340118	-0.378486	0.298403
H48	H	1.386639	-0.419477	-0.210371
C49	C	1.630351	-0.325600	0.244592
H50	H	1.631475	-0.266100	0.243828
H51	H	1.715401	-0.352022	0.244932
H52	H	1.587192	-0.341751	0.325470
H53	H	1.107252	0.139900	-0.230331
C54	C	1.242354	-0.294254	0.000185
H55	H	1.199113	-0.309934	0.081314
H56	H	1.198498	-0.310689	-0.080006
H57	H	1.244894	-0.234873	-0.000632
H58	H	0.886035	0.139615	0.230998
C59	C	0.880237	0.123060	-0.265493
H60	H	0.954509	0.106947	-0.319096
H61	H	0.822677	0.160240	-0.318301
H62	H	0.840418	0.074302	-0.241349
H63	H	1.105550	0.137866	0.230326
C64	C	1.417584	0.280066	0.635397
H65	H	1.353960	0.320863	0.599271
H66	H	1.499366	0.293286	0.606543
H67	H	1.413410	0.280333	0.734084
H68	H	1.721141	-0.446196	0.000197
C69	C	1.575947	-0.032862	0.631827
H70	H	1.634936	-0.007839	0.689253
H71	H	1.619574	-0.059122	0.554300
H72	H	1.536911	-0.073888	0.683741
C73	C	1.630425	-0.325377	-0.244187
H74	H	1.586873	-0.340981	-0.325142
H75	H	1.715256	-0.352167	-0.245004
H76	H	1.632178	-0.265934	-0.242783
C77	C	1.262115	0.176147	0.366194
H78	H	1.207456	0.169357	0.443034
H79	H	1.269071	0.126419	0.311125
H80	H	1.227746	0.222692	0.311502
C81	C	1.095619	0.262626	0.143384
H82	H	1.147413	0.275136	0.066817
H83	H	1.140107	0.270004	0.227678
H84	H	1.018740	0.299467	0.142267
H85	H	1.296131	0.180269	0.619562
C86	C	1.418101	0.280811	0.367451
H87	H	1.427349	0.316735	0.444802
H88	H	1.347605	0.303209	0.312621
H89	H	1.493555	0.277073	0.312781
H90	H	1.711624	0.096739	0.619064
C91	C	1.739599	0.078680	0.367053
H92	H	1.818828	0.091922	0.403631
H93	H	1.742622	0.079887	0.268350
H94	H	1.723794	0.023998	0.397248
C95	C	0.851684	0.258611	-0.140282
H96	H	0.914426	0.297235	-0.143528
H97	H	0.799349	0.269894	-0.060645
H98	H	0.800551	0.264654	-0.221736
H99	H	0.869037	0.237250	0.131769
H100	H	1.654811	0.208777	0.617650
H101	H	1.655935	0.207567	0.378454
C102	C	0.906417	-0.019523	0.128542
H103	H	0.846371	0.014973	0.182787
H104	H	0.980061	-0.035968	0.182923
H105	H	0.869369	-0.068309	0.098851
C106	C	1.345222	0.010040	0.635284
H107	H	1.306975	0.052949	0.694977
H108	H	1.360053	-0.041354	0.685500
H109	H	1.289863	0.002743	0.559275
C110	C	1.338205	0.015812	0.367490
H111	H	1.301453	0.060550	0.310407
H112	H	1.284218	0.009297	0.444997
H113	H	1.347749	-0.035006	0.315200
H114	H	1.541078	-0.016915	0.378802
C115	C	0.904265	-0.019322	-0.126640
H116	H	0.948143	-0.074478	-0.125519
H117	H	0.924979	0.008843	-0.209354
H118	H	0.814920	-0.022953	-0.123522
C119	C	1.148030	-0.015245	-0.128071
H120	H	1.081614	-0.036398	-0.180002
H121	H	1.207106	-0.060857	-0.098622
H122	H	1.190564	0.021868	-0.184654
H123	H	1.085648	0.239662	-0.136963
