data_functionalizedCrystal
_audit_creation_method	'MofGen! by Chris Wilmer'
_symmetry_space_group_name_H-M	'P1'
_symmetry_Int_Tables_number	1
_symmetry_cell_setting	triclinic
loop_
_symmetry_equiv_pos_as_xyz
  x,y,z
_cell_length_a	11.169417
_cell_length_b	12.645330
_cell_length_c	11.169409
_cell_angle_alpha	89.967722
_cell_angle_beta	89.980487
_cell_angle_gamma	90.018941
loop_
_atom_site_label
_atom_site_type_symbol
_atom_site_fract_x
_atom_site_fract_y
_atom_site_fract_z
Zn1	Zn	1.834901	-0.421918	-0.678533
Zn2	Zn	2.334901	0.078082	-0.178533
Zn3	Zn	1.834765	-0.599229	-0.477850
Zn4	Zn	2.334765	-0.099229	0.022150
Zn5	Zn	1.634187	-0.421984	-0.477869
Zn6	Zn	2.134187	0.078016	0.022131
Zn7	Zn	1.634169	-0.599144	-0.678496
Zn8	Zn	2.134169	-0.099144	-0.178496
O9	O	1.734505	-0.510569	-0.578187
O10	O	2.234505	-0.010569	-0.078187
O11	O	2.002833	-0.445447	-0.651920
O12	O	2.502833	0.054553	-0.151920
O13	O	1.808108	-0.575780	-0.309903
O14	O	2.308108	-0.075780	0.190097
O15	O	1.660877	-0.273628	-0.504510
O16	O	2.160877	0.226372	-0.004510
O17	O	2.002732	-0.575717	-0.504479
O18	O	2.502732	-0.075717	-0.004479
O19	O	1.808341	-0.273580	-0.651938
O20	O	2.308341	0.226420	-0.151938
O21	O	1.660745	-0.445559	-0.309916
O22	O	2.160745	0.054441	0.190084
O23	O	1.466235	-0.445476	-0.504475
O24	O	1.966235	0.054524	-0.004475
O25	O	1.660846	-0.575571	-0.846451
O26	O	2.160846	-0.075571	-0.346451
O27	O	1.466221	-0.575635	-0.651875
O28	O	1.966221	-0.075635	-0.151875
O29	O	1.808323	-0.445364	-0.846478
O30	O	2.308323	0.054636	-0.346478
O31	O	1.808090	-0.747565	-0.504443
O32	O	2.308090	-0.247565	-0.004443
O33	O	1.660713	-0.747502	-0.651857
O34	O	2.160713	-0.247502	-0.151857
C35	C	1.422681	-0.510554	-0.578173
C36	C	1.922681	-0.010554	-0.078173
C37	C	1.289281	-0.510574	-0.578196
C38	C	1.789281	-0.010574	-0.078196
C39	C	1.734418	-0.785999	-0.578170
C40	C	2.234418	-0.285999	-0.078170
C41	C	1.734490	-0.903829	-0.578203
C42	C	2.234490	-0.403829	-0.078203
C43	C	1.642158	-1.071397	-0.671227
C44	C	2.142158	-0.571397	-0.171227
C45	C	1.641685	-0.948838	-0.670928
C46	C	2.141685	-0.448838	-0.170928
C47	C	1.700247	-0.948438	-0.451721
C48	C	2.200247	-0.448438	0.048279
C49	C	1.699683	-1.071036	-0.452285
C50	C	2.199683	-0.571036	0.047715
C51	C	1.861631	-1.070912	-0.610636
C52	C	2.361631	-0.570912	-0.110636
C53	C	1.860852	-0.948305	-0.613402
C54	C	2.360852	-0.448305	-0.113402
C55	C	2.047548	-0.510584	-0.578202
C56	C	2.547548	-0.010584	-0.078202
C57	C	2.180948	-0.510590	-0.578208
C58	C	2.680948	-0.010590	-0.078208
C59	C	1.734597	-0.510451	-0.891230
C60	C	2.234597	-0.010451	-0.391230
C61	C	1.734637	-0.510401	-1.024630
C62	C	2.234637	-0.010401	-0.524630
C63	C	1.734626	-0.234063	-0.578230
C64	C	2.234626	0.265937	-0.078230
C65	C	1.734677	-0.116233	-0.578249
C66	C	2.234677	0.383767	-0.078249
C67	C	1.734483	-0.510610	-0.266362
C68	C	2.234483	-0.010610	0.233638
C69	C	1.734676	-0.510361	-0.132963
C70	C	2.234676	-0.010361	0.367037
H71	H	1.663110	-0.918673	-0.764714
H72	H	2.163110	-0.418673	-0.264714
H73	H	1.606879	-1.099732	-0.424848
H74	H	2.106879	-0.599732	0.075152
H75	H	1.608410	-0.917832	-0.423787
H76	H	2.108410	-0.417832	0.076213
H77	H	1.764146	-1.100700	-0.380647
H78	H	2.264146	-0.600700	0.119353
H79	H	1.765497	-0.919286	-0.380552
H80	H	2.265497	-0.419286	0.119448
H81	H	1.892868	-1.101745	-0.701299
H82	H	2.392868	-0.601745	-0.201299
H83	H	1.886676	-0.919143	-0.706486
H84	H	2.386676	-0.419143	-0.206486
H85	H	1.663386	-1.100798	-0.765321
H86	H	2.163386	-0.600798	-0.265321
H87	H	1.930560	-1.099906	-0.542916
H88	H	2.430560	-0.599906	-0.042916
H89	H	1.548628	-1.102302	-0.650045
H90	H	2.048628	-0.602302	-0.150045
H91	H	1.547568	-0.919607	-0.649472
H92	H	2.047568	-0.419607	-0.149472
H93	H	1.933414	-0.917660	-0.550612
H94	H	2.433414	-0.417660	-0.050612
