data_functionalizedCrystal
_audit_creation_method	'MofGen! by Chris Wilmer'
_symmetry_space_group_name_H-M	'P1'
_symmetry_Int_Tables_number	1
_symmetry_cell_setting	triclinic
loop_
_symmetry_equiv_pos_as_xyz
  x,y,z
_cell_length_a	11.169417
_cell_length_b	18.101397
_cell_length_c	11.169409
_cell_angle_alpha	90.039881
_cell_angle_beta	90.019824
_cell_angle_gamma	90.021344
loop_
_atom_site_label
_atom_site_type_symbol
_atom_site_fract_x
_atom_site_fract_y
_atom_site_fract_z
Zn1	Zn	1.834878	-0.294752	0.678480
Zn2	Zn	2.168211	0.038581	1.011813
Zn3	Zn	2.501545	0.371914	1.345146
Zn4	Zn	1.834732	-0.418619	0.477770
Zn5	Zn	2.168065	-0.085285	0.811104
Zn6	Zn	2.501398	0.248048	1.144437
Zn7	Zn	1.634164	-0.294797	0.477814
Zn8	Zn	1.967497	0.038536	0.811148
Zn9	Zn	2.300830	0.371869	1.144481
Zn10	Zn	1.634136	-0.418558	0.678415
Zn11	Zn	1.967469	-0.085225	1.011749
Zn12	Zn	2.300802	0.248108	1.345082
O13	O	1.734477	-0.356682	0.578120
O14	O	2.067811	-0.023348	0.911453
O15	O	2.401144	0.309985	1.244787
O16	O	2.002808	-0.311190	0.651864
O17	O	2.336142	0.022144	0.985197
O18	O	2.669475	0.355477	1.318531
O19	O	1.808077	-0.402238	0.309826
O20	O	2.141410	-0.068904	0.643160
O21	O	2.474743	0.264429	0.976493
O22	O	1.660862	-0.191159	0.504478
O23	O	1.994195	0.142175	0.837812
O24	O	2.327528	0.475508	1.171145
O25	O	2.002701	-0.402194	0.504404
O26	O	2.336034	-0.068861	0.837737
O27	O	2.669367	0.264473	1.171070
O28	O	1.808326	-0.191125	0.651907
O29	O	2.141659	0.142208	0.985240
O30	O	2.474992	0.475541	1.318573
O31	O	1.660720	-0.311267	0.309859
O32	O	1.994053	0.022067	0.643192
O33	O	2.327387	0.355400	0.976525
O34	O	1.466210	-0.311208	0.504416
O35	O	1.799544	0.022125	0.837749
O36	O	2.132877	0.355458	1.171082
O37	O	1.660814	-0.402091	0.846374
O38	O	1.994147	-0.068758	1.179707
O39	O	2.327481	0.264576	1.513040
O40	O	1.466190	-0.402135	0.651796
O41	O	1.799523	-0.068802	0.985130
O42	O	2.132856	0.264532	1.318463
O43	O	1.808298	-0.311131	0.846421
O44	O	2.141632	0.022202	1.179754
O45	O	2.474965	0.355535	1.513088
O46	O	1.808049	-0.522244	0.504341
O47	O	2.141383	-0.188910	0.837674
O48	O	2.474716	0.144423	1.171008
O49	O	1.660672	-0.522199	0.651754
O50	O	1.994006	-0.188866	0.985087
O51	O	2.327339	0.144467	1.318420
C52	C	1.422653	-0.356670	0.578104
C53	C	1.755986	-0.023337	0.911438
C54	C	2.089319	0.309996	1.244771
C55	C	1.289253	-0.356683	0.578126
C56	C	1.622586	-0.023350	0.911460
C57	C	1.955919	0.309983	1.244793
C58	C	1.734375	-0.549092	0.578062
C59	C	2.067708	-0.215759	0.911395
C60	C	2.401041	0.117574	1.244728
C61	C	1.734440	-0.631406	0.578077
C62	C	2.067774	-0.298073	0.911410
C63	C	2.401107	0.035260	1.244744
C64	C	1.734594	-0.930497	0.578186
C65	C	2.067927	-0.597164	0.911520
C66	C	2.401260	-0.263831	1.244853
C67	C	1.827061	-0.899169	0.485190
C68	C	2.160394	-0.565836	0.818523
C69	C	2.493727	-0.232502	1.151856
C70	C	1.827381	-0.813551	0.485431
C71	C	2.160714	-0.480217	0.818764
C72	C	2.494048	-0.146884	1.152097
C73	C	1.734518	-0.782115	0.578131
C74	C	2.067851	-0.448781	0.911464
C75	C	2.401184	-0.115448	1.244798
C76	C	1.768813	-0.813109	0.704636
C77	C	2.102146	-0.479776	1.037969
C78	C	2.435479	-0.146442	1.371303
C79	C	1.769528	-0.898754	0.704129
C80	C	2.102862	-0.565421	1.037463
C81	C	2.436195	-0.232087	1.370796
C82	C	1.607585	-0.899011	0.545773
C83	C	1.940918	-0.565677	0.879106
C84	C	2.274252	-0.232344	1.212440
C85	C	1.608212	-0.813361	0.542949
C86	C	1.941546	-0.480028	0.876283
C87	C	2.274879	-0.146695	1.209616
C88	C	1.734473	-0.698255	0.578108
C89	C	2.067806	-0.364922	0.911441
C90	C	2.401139	-0.031589	1.244774
C91	C	1.734642	-1.014357	0.578218
C92	C	2.067975	-0.681023	0.911552
C93	C	2.401308	-0.347690	1.244885
C94	C	2.047520	-0.356693	0.578136
C95	C	2.380853	-0.023360	0.911469
C96	C	2.714186	0.309973	1.244803
C97	C	2.180920	-0.356699	0.578143
C98	C	2.514253	-0.023365	0.911476
C99	C	2.847586	0.309968	1.244810
C100	C	1.734569	-0.356599	0.891162
C101	C	2.067903	-0.023266	1.224496
C102	C	2.401236	0.310067	1.557829
C103	C	1.734609	-0.356564	1.024563
C104	C	2.067942	-0.023231	1.357896
C105	C	2.401275	0.310102	1.691229
C106	C	1.734613	-0.163520	0.578205
C107	C	2.067946	0.169814	0.911538
C108	C	2.401280	0.503147	1.244871
C109	C	1.734671	-0.081206	0.578241
C110	C	2.068004	0.252128	0.911574
C111	C	2.401338	0.585461	1.244907
C112	C	1.734455	-0.356710	0.266295
C113	C	2.067788	-0.023377	0.599628
C114	C	2.401121	0.309957	0.932962
C115	C	1.734648	-0.356537	0.132896
C116	C	2.067981	-0.023203	0.466229
C117	C	2.401314	0.310130	0.799562
H118	H	1.805924	-0.792599	0.391629
H119	H	2.139258	-0.459265	0.724962
H120	H	2.472591	-0.125932	1.058296
H121	H	1.582353	-0.793113	0.449852
H122	H	1.915686	-0.459779	0.783185
H123	H	2.249020	-0.126446	1.116519
H124	H	1.921462	-0.793004	0.506876
H125	H	2.254795	-0.459671	0.840209
H126	H	2.588128	-0.126337	1.173543
H127	H	1.860611	-0.791598	0.732558
H128	H	2.193944	-0.458264	1.065891
H129	H	2.527278	-0.124931	1.399224
H130	H	1.920627	-0.920634	0.506389
H131	H	2.253960	-0.587301	0.839722
H132	H	2.587294	-0.253967	1.173055
H133	H	1.538690	-0.919270	0.613507
H134	H	1.872024	-0.585937	0.946840
H135	H	2.205357	-0.252604	1.280173
H136	H	1.805863	-0.919822	0.391107
H137	H	2.139196	-0.586488	0.724440
H138	H	2.472530	-0.253155	1.057774
H139	H	1.576387	-0.920681	0.455126
H140	H	1.909721	-0.587347	0.788459
H141	H	2.243054	-0.254014	1.121793
H142	H	1.705130	-0.919474	0.775807
H143	H	2.038463	-0.586141	1.109140
H144	H	2.371797	-0.252807	1.442473
H145	H	1.862366	-0.918669	0.731587
H146	H	2.195699	-0.585336	1.064920
H147	H	2.529033	-0.252003	1.398254
H148	H	1.703524	-0.792743	0.775789
H149	H	2.036857	-0.459410	1.109122
H150	H	2.370190	-0.126077	1.442455
H151	H	1.535611	-0.791970	0.605724
H152	H	1.868944	-0.458637	0.939057
H153	H	2.202277	-0.125304	1.272390
