data_functionalizedCrystal
_audit_creation_method	'MofGen! by Chris Wilmer'
_symmetry_space_group_name_H-M	'P1'
_symmetry_Int_Tables_number	1
_symmetry_cell_setting	triclinic
loop_
_symmetry_equiv_pos_as_xyz
  x,y,z
_cell_length_a	11.169417
_cell_length_b	12.759394
_cell_length_c	11.169409
_cell_angle_alpha	89.965476
_cell_angle_beta	89.980176
_cell_angle_gamma	90.015716
loop_
_atom_site_label
_atom_site_type_symbol
_atom_site_fract_x
_atom_site_fract_y
_atom_site_fract_z
Zn1	Zn	1.834925	-0.418157	-0.678525
Zn2	Zn	2.334925	0.081843	-0.178525
Zn3	Zn	1.834798	-0.593883	-0.477834
Zn4	Zn	2.334798	-0.093883	0.022166
Zn5	Zn	1.634211	-0.418221	-0.477859
Zn6	Zn	2.134211	0.081779	0.022141
Zn7	Zn	1.634202	-0.593797	-0.678479
Zn8	Zn	2.134202	-0.093797	-0.178479
O9	O	1.734534	-0.506014	-0.578174
O10	O	2.234534	-0.006014	-0.078174
O11	O	2.002858	-0.441476	-0.651911
O12	O	2.502858	0.058524	-0.151911
O13	O	1.808141	-0.570643	-0.309887
O14	O	2.308141	-0.070643	0.190113
O15	O	1.660892	-0.271191	-0.504507
O16	O	2.160892	0.228809	-0.004507
O17	O	2.002765	-0.570581	-0.504465
O18	O	2.502765	-0.070581	-0.004465
O19	O	1.808356	-0.271144	-0.651935
O20	O	2.308356	0.228856	-0.151935
O21	O	1.660770	-0.441585	-0.309906
O22	O	2.160770	0.058415	0.190094
O23	O	1.466260	-0.441502	-0.504463
O24	O	1.966260	0.058498	-0.004463
O25	O	1.660878	-0.570435	-0.846435
O26	O	2.160878	-0.070435	-0.346435
O27	O	1.466254	-0.570498	-0.651857
O28	O	1.966254	-0.070498	-0.151857
O29	O	1.808348	-0.441393	-0.846468
O30	O	2.308348	0.058607	-0.346468
O31	O	1.808133	-0.740892	-0.504420
O32	O	2.308133	-0.240892	-0.004420
O33	O	1.660756	-0.740830	-0.651833
O34	O	2.160756	-0.240830	-0.151833
C35	C	1.422709	-0.505998	-0.578159
C36	C	1.922709	-0.005998	-0.078159
C37	C	1.289309	-0.506017	-0.578180
C38	C	1.789309	-0.006017	-0.078180
C39	C	1.734462	-0.778982	-0.578145
C40	C	2.234462	-0.278982	-0.078145
C41	C	1.734541	-0.895759	-0.578173
C42	C	2.234541	-0.395759	-0.078173
C43	C	1.888120	-0.895771	-0.424787
C44	C	2.388120	-0.395771	0.075213
C45	C	1.964941	-0.950637	-0.348108
C46	C	2.464941	-0.450637	0.151892
C47	C	1.965011	-1.060359	-0.348140
C48	C	2.465011	-0.560359	0.151860
C49	C	1.888255	-1.115216	-0.424863
C50	C	2.388255	-0.615216	0.075137
C51	C	1.811434	-1.060349	-0.501541
C52	C	2.311434	-0.560349	-0.001541
C53	C	1.811370	-0.950625	-0.501498
C54	C	2.311370	-0.450625	-0.001498
C55	C	1.657863	-1.060337	-0.654932
C56	C	2.157863	-0.560337	-0.154932
C57	C	1.657785	-0.950616	-0.654895
C58	C	2.157785	-0.450616	-0.154895
C59	C	1.581107	-1.115195	-0.731654
C60	C	2.081107	-0.615195	-0.231654
C61	C	1.504279	-1.060328	-0.808329
C62	C	2.004279	-0.560328	-0.308329
C63	C	1.504210	-0.950600	-0.808292
C64	C	2.004210	-0.450600	-0.308292
C65	C	1.580964	-0.895749	-0.731574
C66	C	2.080964	-0.395749	-0.231574
C67	C	2.047576	-0.506031	-0.578190
C68	C	2.547576	-0.006031	-0.078190
C69	C	2.180976	-0.506038	-0.578197
C70	C	2.680976	-0.006038	-0.078197
C71	C	1.734626	-0.505898	-0.891217
C72	C	2.234626	-0.005898	-0.391217
C73	C	1.734666	-0.505848	-1.024617
C74	C	2.234666	-0.005848	-0.524617
C75	C	1.734639	-0.231981	-0.578229
C76	C	2.234639	0.268019	-0.078229
C77	C	1.734684	-0.115204	-0.578253
C78	C	2.234684	0.384796	-0.078253
C79	C	1.734511	-0.506055	-0.266349
C80	C	2.234511	-0.006055	0.233651
C81	C	1.734705	-0.505808	-0.132950
C82	C	2.234705	-0.005808	0.367050
H83	H	1.888055	-0.806430	-0.424737
H84	H	2.388055	-0.306430	0.075263
Br85	Br	2.069114	-0.876185	-0.243999
Br86	Br	2.569114	-0.376185	0.256001
Br87	Br	1.887790	-1.264124	-0.424343
Br88	Br	2.387790	-0.764124	0.075657
H89	H	2.027571	-1.105031	-0.285708
H90	H	2.527571	-0.605031	0.214292
Br91	Br	1.580640	-1.264102	-0.731138
Br92	Br	2.080640	-0.764102	-0.231138
H93	H	1.441796	-1.105001	-0.870795
H94	H	1.941796	-0.605001	-0.370795
Br95	Br	1.399958	-0.876147	-0.912373
Br96	Br	1.899958	-0.376147	-0.412373
Br97	Br	1.581263	-0.746840	-0.731903
Br98	Br	2.081263	-0.246840	-0.231903
