data_functionalizedCrystal
_audit_creation_method	'MofGen! by Chris Wilmer'
_symmetry_space_group_name_H-M	'P1'
_symmetry_Int_Tables_number	1
_symmetry_cell_setting	triclinic
loop_
_symmetry_equiv_pos_as_xyz
  x,y,z
_cell_length_a	14.519709
_cell_length_b	10.654550
_cell_length_c	9.730223
_cell_angle_alpha	89.996251
_cell_angle_beta	90.002285
_cell_angle_gamma	95.917476
loop_
_atom_site_label
_atom_site_type_symbol
_atom_site_fract_x
_atom_site_fract_y
_atom_site_fract_z
O1	O	0.129528	-1.666589	0.114406
O2	O	0.629528	-1.166589	0.614406
O3	O	0.141869	-1.300991	0.114384
O4	O	0.641869	-0.800991	0.614384
O5	O	0.001510	-1.493483	0.114384
O6	O	0.501510	-0.993483	0.614384
O7	O	0.269887	-1.474097	0.114407
O8	O	0.769887	-0.974097	0.614407
O9	O	0.001514	-1.493481	-0.114196
O10	O	0.501514	-0.993481	0.385804
O11	O	0.141873	-1.300989	-0.114195
O12	O	0.641873	-0.800989	0.385805
O13	O	0.129532	-1.666586	-0.114174
O14	O	0.629532	-1.166586	0.385826
Zn15	Zn	0.135703	-1.483787	-0.150477
Zn16	Zn	0.635703	-0.983787	0.349523
Zn17	Zn	0.135698	-1.483790	0.150687
Zn18	Zn	0.635698	-0.983790	0.650687
O19	O	0.269890	-1.474094	-0.114173
O20	O	0.769890	-0.974094	0.385827
C21	C	0.140965	-1.254201	0.000092
C22	C	0.640965	-0.754201	0.500092
C23	C	0.138254	-1.114784	0.000083
C24	C	0.638254	-0.614784	0.500083
C25	C	-0.032852	-1.492579	0.000093
C26	C	0.467148	-0.992579	0.500093
C27	C	-0.135247	-1.489871	0.000092
C28	C	0.364753	-0.989871	0.500092
C29	C	0.130436	-1.713377	0.000122
C30	C	0.630436	-1.213377	0.500122
C31	C	0.133147	-1.852794	0.000140
C32	C	0.633147	-1.352794	0.500140
C33	C	-0.510195	-1.479904	0.000127
C34	C	-0.010195	-0.979904	0.500127
C35	C	-0.405873	-1.482672	0.000117
C36	C	0.094127	-0.982672	0.500117
C37	C	-0.322725	-1.484887	0.000109
C38	C	0.177275	-0.984887	0.500109
C39	C	-0.218396	-1.487656	0.000101
C40	C	0.281604	-0.987656	0.500101
C41	C	0.304253	-1.474999	0.000120
C42	C	0.804253	-0.974999	0.500120
C43	C	0.406648	-1.477707	0.000130
C44	C	0.906648	-0.977707	0.500130
N45	N	0.135705	-1.483795	-0.356013
N46	N	0.635705	-0.983795	0.143987
C47	C	0.220895	-1.034504	0.000110
C48	C	0.720895	-0.534504	0.500110
C49	C	0.218342	-0.903507	0.000134
C50	C	0.718342	-0.403507	0.500134
C51	C	0.050500	-0.933085	0.000108
C52	C	0.550500	-0.433085	0.500108
C53	C	0.053054	-1.064078	0.000075
C54	C	0.553054	-0.564078	0.500075
C55	C	0.306095	-1.085209	0.000118
C56	C	0.806095	-0.585209	0.500118
C57	C	0.388743	-1.004928	0.000147
C58	C	0.888743	-0.504928	0.500147
C59	C	0.386190	-0.873931	0.000170
C60	C	0.886190	-0.373931	0.500170
C61	C	0.300989	-0.823217	0.000165
C62	C	0.800989	-0.323217	0.500165
C63	C	0.073576	-1.569052	-0.427939
C64	C	0.573576	-1.069052	0.072061
C65	C	0.073565	-1.569048	-0.571822
C66	C	0.573565	-1.069048	-0.071822
C67	C	0.197821	-1.398527	-0.571840
C68	C	0.697821	-0.898527	-0.071840
C69	C	0.197827	-1.398525	-0.427959
C70	C	0.697827	-0.898525	0.072041
C71	C	0.011455	-1.654321	-0.355993
C72	C	0.511455	-1.154321	0.144007
C73	C	-0.050679	-1.739586	-0.427920
C74	C	0.449321	-1.239586	0.072080
C75	C	-0.050691	-1.739583	-0.571803
C76	C	0.449309	-1.239583	-0.071803
C77	C	0.011432	-1.654315	-0.643759
C78	C	0.511432	-1.154315	-0.143759
N79	N	0.135688	-1.483793	0.356224
N80	N	0.635688	-0.983793	0.856224
H81	H	0.308183	-1.191871	0.000105
H82	H	0.808183	-0.691871	0.500105
H83	H	-0.101288	-1.809000	-0.630364
H84	H	0.398712	-1.309000	-0.130364
C85	C	0.266172	-1.304751	-0.348835
C86	C	0.766172	-0.804751	0.151165
H87	H	0.303178	-1.253981	-0.412288
H88	H	0.803178	-0.753981	0.087712
H89	H	0.232641	-1.252407	-0.292707
H90	H	0.732641	-0.752407	0.207293
H91	H	0.304876	-1.350018	-0.292708
H92	H	0.804876	-0.850018	0.207292
H93	H	0.458110	-1.046228	0.000140
H94	H	0.958110	-0.546228	0.500140
H95	H	-0.101263	-1.809002	-0.369325
H96	H	0.398737	-1.309002	0.130675
C97	C	0.477096	-0.785625	0.000200
C98	C	0.977096	-0.285625	0.500200
H99	H	0.528200	-0.834590	0.000211
H100	H	1.028200	-0.334590	0.500211
H101	H	0.479597	-0.733887	-0.079497
H102	H	0.979597	-0.233887	0.420503
H103	H	0.479581	-0.733934	0.079935
H104	H	0.979581	-0.233934	0.579935
H105	H	0.298917	-0.716549	0.000163
H106	H	0.798917	-0.216549	0.500163
H107	H	0.011411	-1.654311	-0.760918
H108	H	0.511411	-1.154311	-0.260918
C109	C	-0.043211	-0.877300	0.000122
C110	C	0.456789	-0.377300	0.500122
H111	H	-0.032896	-0.787787	0.000161
H112	H	0.467104	-0.287787	0.500161
H113	H	-0.077278	-0.904818	-0.079594
H114	H	0.422722	-0.404818	0.420406
H115	H	-0.077270	-0.904868	0.079838
H116	H	0.422730	-0.404868	0.579838
C117	C	0.011470	-1.654326	-0.197727
C118	C	0.511470	-1.154326	0.302273
H119	H	0.057374	-1.591342	-0.165194
H120	H	0.557374	-1.091342	0.334806
H121	H	-0.047591	-1.637024	-0.165164
H122	H	0.452409	-1.137024	0.334836
H123	H	0.024656	-1.734618	-0.165186
H124	H	0.524656	-1.234618	0.334814
C125	C	-0.037849	-1.152391	0.000064
C126	C	0.462151	-0.652391	0.500064
H127	H	-0.088957	-1.103434	0.000088
H128	H	0.411043	-0.603434	0.500088
H129	H	-0.040343	-1.204091	-0.079655
H130	H	0.459657	-0.704091	0.420345
H131	H	-0.040335	-1.204121	0.079776
H132	H	0.459665	-0.704121	0.579776
H133	H	0.248399	-1.329106	-0.630436
H134	H	0.748399	-0.829106	-0.130436
