data_functionalizedCrystal
_audit_creation_method	'MofGen! by Chris Wilmer'
_symmetry_space_group_name_H-M	'P1'
_symmetry_Int_Tables_number	1
_symmetry_cell_setting	triclinic
loop_
_symmetry_equiv_pos_as_xyz
  x,y,z
_cell_length_a	19.077105
_cell_length_b	16.625546
_cell_length_c	19.077569
_cell_angle_alpha	87.674615
_cell_angle_beta	85.299277
_cell_angle_gamma	87.718759
loop_
_atom_site_label
_atom_site_type_symbol
_atom_site_fract_x
_atom_site_fract_y
_atom_site_fract_z
Zn1	Zn	1.093727	-0.351109	-0.441842
Zn2	Zn	1.593727	0.148891	0.058158
Zn3	Zn	1.088914	-0.491150	-0.323948
Zn4	Zn	1.588914	0.008850	0.176052
Zn5	Zn	0.971109	-0.351121	-0.319237
Zn6	Zn	1.471109	0.148879	0.180763
Zn7	Zn	0.975810	-0.480687	-0.437068
Zn8	Zn	1.475810	0.019313	0.062932
O9	O	1.032390	-0.418516	-0.380524
O10	O	1.532390	0.081484	0.119476
O11	O	1.191739	-0.374059	-0.430172
O12	O	1.691739	0.125941	0.069828
O13	O	1.069305	-0.476958	-0.224672
O14	O	1.569305	0.023042	0.275328
O15	O	0.987422	-0.238288	-0.335527
O16	O	1.487422	0.261712	0.164473
O17	O	1.188202	-0.476947	-0.343556
O18	O	1.688202	0.023053	0.156444
O19	O	1.077509	-0.238279	-0.425604
O20	O	1.577509	0.261721	0.074396
O21	O	0.982755	-0.374079	-0.221211
O22	O	1.482755	0.125921	0.278789
O23	O	0.873082	-0.363934	-0.330898
O24	O	1.373082	0.136066	0.169102
O25	O	0.995433	-0.459114	-0.536353
O26	O	1.495433	0.040886	-0.036353
O27	O	0.876536	-0.459126	-0.417468
O28	O	1.376536	0.040874	0.082532
O29	O	1.082067	-0.363914	-0.539860
O30	O	1.582067	0.136086	-0.039860
O31	O	1.073863	-0.602593	-0.338928
O32	O	1.573863	-0.102593	0.161072
O33	O	0.990766	-0.594906	-0.422037
O34	O	1.490766	-0.094906	0.077963
C35	C	0.849230	-0.410396	-0.373155
C36	C	1.349230	0.089604	0.126845
C37	C	0.770874	-0.406941	-0.370019
C38	C	1.270874	0.093059	0.129981
C39	C	0.735876	-0.454960	-0.413547
C40	C	1.235876	0.045040	0.086453
C41	C	0.662253	-0.451703	-0.410604
C42	C	1.162253	0.048297	0.089396
C43	C	0.623629	-0.400430	-0.364128
C44	C	1.123629	0.099570	0.135872
C45	C	0.658632	-0.352406	-0.320598
C46	C	1.158632	0.147594	0.179402
C47	C	0.732254	-0.355660	-0.323546
C48	C	1.232254	0.144340	0.176454
C49	C	0.403247	-0.385372	-0.350492
C50	C	0.903247	0.114628	0.149508
C51	C	0.329619	-0.382124	-0.347547
C52	C	0.829619	0.117876	0.152453
C53	C	0.333246	-0.481420	-0.437553
C54	C	0.833246	0.018580	0.062447
C55	C	0.406869	-0.484673	-0.440493
C56	C	0.906869	0.015327	0.059507
C57	C	0.441866	-0.436645	-0.396966
C58	C	0.941866	0.063355	0.103034
N59	N	0.548373	-0.397102	-0.361117
N60	N	1.048373	0.102898	0.138883
N61	N	0.517120	-0.439971	-0.399981
N62	N	1.017120	0.060029	0.100019
C63	C	1.032322	-0.628006	-0.380492
C64	C	1.532322	-0.128006	0.119508
C65	C	1.032358	-0.717628	-0.380504
C66	C	1.532358	-0.217628	0.119496
C67	C	1.032484	-1.045806	-0.380582
C68	C	1.532484	-0.545806	0.119418
C69	C	1.032447	-0.954496	-0.380562
C70	C	1.532447	-0.454496	0.119438
C71	C	1.032421	-0.881720	-0.380543
C72	C	1.532421	-0.381720	0.119457
C73	C	1.032385	-0.790405	-0.380524
C74	C	1.532385	-0.290405	0.119476
C75	C	1.216265	-0.426669	-0.387922
C76	C	1.716265	0.073331	0.112078
C77	C	1.294621	-0.430143	-0.391075
C78	C	1.794621	0.069857	0.108925
C79	C	1.039811	-0.410346	-0.564401
C80	C	1.539811	0.089654	-0.064401
C81	C	1.042974	-0.406864	-0.642758
C82	C	1.542974	0.093136	-0.142758
C83	C	1.032478	-0.208209	-0.380572
C84	C	1.532478	0.291791	0.119428
C85	C	1.032515	-0.118589	-0.380593
C86	C	1.532515	0.381411	0.119407
C87	C	0.999355	-0.454790	-0.677746
C88	C	1.499355	0.045210	-0.177746
C89	C	1.002333	-0.451519	-0.751371
C90	C	1.502333	0.048481	-0.251371
C91	C	1.048926	-0.400317	-0.790008
C92	C	1.548926	0.099683	-0.290008
C93	C	1.092549	-0.352389	-0.755015
C94	C	1.592549	0.147611	-0.255015
C95	C	1.089575	-0.355665	-0.681391
C96	C	1.589575	0.144335	-0.181391
C97	C	1.062661	-0.385208	-1.010396
C98	C	1.562661	0.114792	-0.510396
C99	C	1.065631	-0.381934	-1.084024
C100	C	1.565631	0.118066	-0.584024
C101	C	0.975415	-0.481065	-1.080376
C102	C	1.475415	0.018935	-0.580376
C103	C	0.972442	-0.484333	-1.006751
C104	C	1.472442	0.015667	-0.506751
C105	C	1.016068	-0.436408	-0.971764
C106	C	1.516068	0.063592	-0.471764
N107	N	1.051968	-0.396970	-0.865265
N108	N	1.551968	0.103030	-0.365265
N109	N	1.013028	-0.439760	-0.896509
N110	N	1.513028	0.060240	-0.396509
C111	C	1.025038	-0.426599	-0.197364
C112	C	1.525038	0.073401	0.302636
C113	C	1.022012	-0.429860	-0.119012
C114	C	1.522012	0.070140	0.380988
H115	H	0.304743	-0.520520	-0.472992
H116	H	0.804743	-0.020520	0.027008
H117	H	0.438312	-0.526426	-0.478337
H118	H	0.938312	-0.026426	0.021663
H119	H	0.298174	-0.340362	-0.309705
H120	H	0.798174	0.159638	0.190295
H121	H	1.103570	-0.340231	-1.115480
H122	H	1.603570	0.159769	-0.615480
H123	H	0.767319	-0.496714	-0.451390
H124	H	1.267319	0.003286	0.048610
O125	O	0.933146	-0.527711	-1.114398
O126	O	1.433146	-0.027711	-0.614398
C127	C	0.974982	-0.579659	-1.158601
C128	C	1.474982	-0.079659	-0.658601
H129	H	1.029607	-0.588084	-1.138645
H130	H	1.529607	-0.088084	-0.638645
H131	H	0.979673	-0.552356	-1.214502
H132	H	1.479673	-0.052356	-0.714502
C133	C	0.873464	-0.651555	-1.182838
C134	C	1.373464	-0.151555	-0.682838
C135	C	0.940554	-0.661909	-1.158325
C136	C	1.440554	-0.161909	-0.658325
H137	H	0.852226	-0.702290	-1.182671
H138	H	1.352226	-0.202290	-0.682671
H139	H	0.845278	-0.616555	-1.153060
H140	H	1.345278	-0.116555	-0.653060
H141	H	0.877382	-0.628800	-1.229420
H142	H	1.377382	-0.128800	-0.729420
H143	H	0.936634	-0.684654	-1.111741
H144	H	1.436634	-0.184654	-0.611741
H145	H	0.968738	-0.696915	-1.188095
H146	H	1.468738	-0.196915	-0.688095
O147	O	0.766288	-0.308927	-0.281361
O148	O	1.266288	0.191073	0.218639
C149	C	0.810533	-0.257029	-0.323284
C150	C	1.310533	0.242971	0.176716
H151	H	0.790601	-0.248701	-0.377928
H152	H	1.290601	0.251299	0.122072
H153	H	0.866420	-0.284321	-0.327906
H154	H	1.366420	0.215679	0.172094
C155	C	0.834774	-0.184952	-0.221906
C156	C	1.334774	0.315048	0.278094
C157	C	0.810290	-0.174717	-0.289019
C158	C	1.310290	0.325283	0.210981
H159	H	0.834628	-0.134179	-0.200769
H160	H	1.334628	0.365821	0.299231
H161	H	0.804968	-0.219918	-0.193661
H162	H	1.304968	0.280082	0.306339
H163	H	0.881345	-0.207698	-0.225767
H164	H	1.381345	0.292302	0.274233
H165	H	0.763717	-0.151981	-0.285157
H166	H	1.263717	0.348019	0.214843
H167	H	0.840089	-0.139745	-0.317263
H168	H	1.340089	0.360255	0.182737
H169	H	0.633761	-0.490806	-0.446049
H170	H	1.133761	0.009194	0.053951
H171	H	1.130489	-0.310703	-0.786478
H172	H	1.630489	0.189297	-0.286478
H173	H	1.098185	-0.346184	-0.981919
H174	H	1.598185	0.153816	-0.481919
H175	H	0.431732	-0.346271	-0.315044
H176	H	0.931732	0.153729	0.184956
O177	O	1.131971	-0.309028	-0.647511
O178	O	1.631971	0.190972	-0.147511
C179	C	1.173746	-0.263147	-0.697399
C180	C	1.673746	0.236853	-0.197399
H181	H	1.146991	-0.256737	-0.748720
H182	H	1.646991	0.243263	-0.248720
H183	H	1.227589	-0.294701	-0.707377
H184	H	1.727589	0.205299	-0.207377
C185	C	1.215644	-0.186936	-0.606054
C186	C	1.715644	0.313064	-0.106054
C187	C	1.182781	-0.179057	-0.669086
C188	C	1.682781	0.320943	-0.169086
H189	H	1.221221	-0.135067	-0.588589
H190	H	1.721221	0.364933	-0.088589
H191	H	1.187502	-0.217849	-0.572443
H192	H	1.687502	0.282151	-0.072443
H193	H	1.260510	-0.213234	-0.614378
H194	H	1.760510	0.286766	-0.114378
H195	H	1.137913	-0.152769	-0.660759
H196	H	1.637913	0.347231	-0.160759
H197	H	1.210916	-0.148138	-0.702694
H198	H	1.710916	0.351862	-0.202694
H199	H	0.627178	-0.310655	-0.282760
H200	H	1.127178	0.189345	0.217240
H201	H	0.966815	-0.490546	-0.779855
H202	H	1.466815	0.009454	-0.279855
H203	H	0.961406	-0.496475	-0.646293
H204	H	1.461406	0.003525	-0.146293
O205	O	0.927149	-0.534125	-0.969329
O206	O	1.427149	-0.034125	-0.469329
C207	C	0.889266	-0.575701	-1.015998
C208	C	1.389266	-0.075701	-0.515998
H209	H	0.920267	-0.577465	-1.069635
H210	H	1.420267	-0.077465	-0.569635
H211	H	0.836068	-0.543426	-1.021696
H212	H	1.336068	-0.043426	-0.521696
C213	C	0.839794	-0.660163	-0.920947
C214	C	1.339794	-0.160163	-0.420947
C215	C	0.877873	-0.662336	-0.986824
C216	C	1.377873	-0.162336	-0.486824
H217	H	0.832763	-0.713603	-0.902950
H218	H	1.332763	-0.213603	-0.402950
H219	H	0.865315	-0.632151	-0.889504
H220	H	1.365315	-0.132151	-0.389504
H221	H	0.795467	-0.633264	-0.925704
H222	H	1.295467	-0.133264	-0.425704
H223	H	0.922203	-0.689226	-0.982064
H224	H	1.422203	-0.189226	-0.482064
H225	H	0.852360	-0.690355	-1.018265
H226	H	1.352360	-0.190355	-0.518265
