data_functionalizedCrystal
_audit_creation_method	'MofGen! by Chris Wilmer'
_symmetry_space_group_name_H-M	'P1'
_symmetry_Int_Tables_number	1
_symmetry_cell_setting	triclinic
loop_
_symmetry_equiv_pos_as_xyz
  x,y,z
_cell_length_a	21.295417
_cell_length_b	18.215407
_cell_length_c	21.295420
_cell_angle_alpha	90.006529
_cell_angle_beta	90.018953
_cell_angle_gamma	90.030955
loop_
_atom_site_label
_atom_site_type_symbol
_atom_site_fract_x
_atom_site_fract_y
_atom_site_fract_z
Zn1	Zn	-0.250690	1.124947	0.355913
Zn2	Zn	0.082643	1.458280	0.689247
Zn3	Zn	0.415976	1.791613	1.022580
Zn4	Zn	-0.355937	1.124871	0.250639
Zn5	Zn	-0.022604	1.458205	0.583972
Zn6	Zn	0.310730	1.791538	0.917305
Zn7	Zn	-0.250687	1.001908	0.250658
Zn8	Zn	0.082647	1.335241	0.583992
Zn9	Zn	0.415980	1.668574	0.917325
Zn10	Zn	-0.355926	1.001833	0.355870
Zn11	Zn	-0.022593	1.335166	0.689204
Zn12	Zn	0.310740	1.668500	1.022537
O13	O	-0.303310	1.063390	0.303270
O14	O	0.030023	1.396723	0.636603
O15	O	0.363357	1.730056	0.969937
O16	O	-0.264657	1.227921	0.341958
O17	O	0.068676	1.561254	0.675292
O18	O	0.402009	1.894587	1.008625
O19	O	-0.341978	1.108560	0.162552
O20	O	-0.008645	1.441893	0.495885
O21	O	0.324688	1.775227	0.829219
O22	O	-0.162598	1.018292	0.264647
O23	O	0.170736	1.351625	0.597980
O24	O	0.504069	1.684958	0.931313
O25	O	-0.341982	1.227866	0.264614
O26	O	-0.008649	1.561199	0.597947
O27	O	0.324685	1.894532	0.931280
O28	O	-0.162600	1.108688	0.341977
O29	O	0.170733	1.442021	0.675310
O30	O	0.504066	1.775355	1.008644
O31	O	-0.264651	1.018219	0.162566
O32	O	0.068682	1.351552	0.495900
O33	O	0.402015	1.684886	0.829233
O34	O	-0.264641	0.898914	0.264605
O35	O	0.068693	1.232247	0.597938
O36	O	0.402026	1.565580	0.931272
O37	O	-0.341964	1.018164	0.443965
O38	O	-0.008630	1.351498	0.777299
O39	O	0.324703	1.684831	1.110632
O40	O	-0.341960	0.898859	0.341904
O41	O	-0.008627	1.232192	0.675237
O42	O	0.324707	1.565525	1.008570
O43	O	-0.264647	1.108615	0.443997
O44	O	0.068686	1.441949	0.777330
O45	O	0.402020	1.775282	1.110664
O46	O	-0.444025	1.108487	0.264572
O47	O	-0.110692	1.441821	0.597905
O48	O	0.222642	1.775154	0.931238
O49	O	-0.444017	1.018092	0.341885
O50	O	-0.110684	1.351425	0.675218
O51	O	0.222650	1.684758	1.008552
C52	C	-0.303299	0.872183	0.303252
C53	C	0.030034	1.205517	0.636585
C54	C	0.363367	1.538850	0.969919
C55	C	-0.303310	0.790384	0.303259
C56	C	0.030024	1.123718	0.636593
C57	C	0.363357	1.457051	0.969926
C58	C	-0.343633	0.602181	0.343458
C59	C	-0.010300	0.935515	0.676792
C60	C	0.323033	1.268848	1.010125
C61	C	-0.343635	0.525322	0.343466
C62	C	-0.010302	0.858656	0.676799
C63	C	0.323032	1.191989	1.010133
C64	C	-0.262998	0.525350	0.263096
C65	C	0.070335	0.858683	0.596429
C66	C	0.403668	1.192017	0.929762
C67	C	-0.262994	0.602207	0.263092
C68	C	0.070340	0.935541	0.596425
C69	C	0.403673	1.268874	0.929758
C70	C	-0.303315	0.640621	0.303272
C71	C	0.030019	0.973954	0.636605
C72	C	0.363352	1.307288	0.969939
C73	C	-0.303321	0.486905	0.303284
C74	C	0.030012	0.820238	0.636617
C75	C	0.363345	1.153572	0.969951
C76	C	-0.303323	0.403571	0.303292
C77	C	0.030010	0.736905	0.636625
C78	C	0.363344	1.070238	0.969959
C79	C	-0.303312	0.723960	0.303265
C80	C	0.030021	1.057293	0.636598
C81	C	0.363355	1.390627	0.969931
C82	C	-0.466862	1.063293	0.303235
C83	C	-0.133528	1.396627	0.636569
C84	C	0.199805	1.729960	0.969902
C85	C	-0.536830	1.063319	0.303241
C86	C	-0.203496	1.396653	0.636575
C87	C	0.129837	1.729986	0.969908
C88	C	-0.569680	1.110430	0.263026
C89	C	-0.236346	1.443764	0.596359
C90	C	0.096987	1.777097	0.929692
C91	C	-0.635422	1.110465	0.263040
C92	C	-0.302089	1.443798	0.596373
C93	C	0.031245	1.777131	0.929707
C94	C	-0.668312	1.063375	0.303263
C95	C	-0.334979	1.396708	0.636596
C96	C	-0.001646	1.730042	0.969930
C97	C	-0.635454	1.016261	0.343487
C98	C	-0.302121	1.349594	0.676820
C99	C	0.031212	1.682928	1.010153
C100	C	-0.569713	1.016233	0.343476
C101	C	-0.236380	1.349566	0.676809
C102	C	0.096953	1.682900	1.010142
N103	N	-0.771580	0.998995	0.308056
N104	N	-0.438246	1.332328	0.641389
N105	N	-0.104913	1.665662	0.974723
N106	N	-0.834031	0.999024	0.308063
N107	N	-0.500698	1.332357	0.641396
N108	N	-0.167364	1.665690	0.974729
C109	C	-0.866387	1.063458	0.303299
C110	C	-0.533054	1.396791	0.636633
C111	C	-0.199720	1.730124	0.969966
N112	N	-0.833932	1.127863	0.298517
N113	N	-0.500599	1.461196	0.631850
N114	N	-0.167266	1.794530	0.965183
N115	N	-0.771475	1.127834	0.298507
N116	N	-0.438142	1.461167	0.631840
N117	N	-0.104808	1.794500	0.965173
C118	C	-0.739598	1.063400	0.303280
C119	C	-0.406264	1.396734	0.636613
C120	C	-0.072931	1.730067	0.969946
C121	C	-0.970522	1.110610	0.263097
C122	C	-0.637189	1.443943	0.596430
C123	C	-0.303856	1.777276	0.929763
C124	C	-1.036266	1.110646	0.263115
C125	C	-0.702933	1.443979	0.596449
C126	C	-0.369599	1.777312	0.929782
C127	C	-1.036297	1.016435	0.343559
C128	C	-0.702964	1.349768	0.676892
C129	C	-0.369630	1.683102	1.010225
C130	C	-0.970555	1.016406	0.343543
C131	C	-0.637221	1.349739	0.676877
C132	C	-0.303888	1.683073	1.010210
C133	C	-0.937671	1.063492	0.303309
C134	C	-0.604338	1.396826	0.636642
C135	C	-0.271005	1.730159	0.969976
C136	C	-0.139120	1.063507	0.303319
C137	C	0.194214	1.396840	0.636652
C138	C	0.527547	1.730173	0.969986
C139	C	-0.069152	1.063556	0.303340
C140	C	0.264182	1.396890	0.636673
C141	C	0.597515	1.730223	0.970006
C142	C	-0.303304	1.063390	0.467460
C143	C	0.030029	1.396723	0.800794
C144	C	0.363362	1.730057	1.134127
C145	C	-0.303302	1.063390	0.537428
C146	C	0.030031	1.396723	0.870762
C147	C	0.363365	1.730057	1.204095
C148	C	-0.303321	1.255343	0.303289
C149	C	0.030012	1.588676	0.636622
C150	C	0.363345	1.922009	0.969955
C151	C	-0.303326	1.337141	0.303296
C152	C	0.030007	1.670475	0.636630
C153	C	0.363341	2.003808	0.969963
C154	C	-0.263050	1.110455	1.036904
C155	C	0.070283	1.443789	1.370237
C156	C	0.403616	1.777122	1.703571
C157	C	-0.263052	1.110463	0.971161
C158	C	0.070282	1.443796	1.304495
C159	C	0.403615	1.777130	1.637828
C160	C	-0.303305	1.063372	0.938268
C161	C	0.030029	1.396705	1.271601
C162	C	0.363362	1.730038	1.604935
C163	C	-0.343571	1.016282	0.971122
C164	C	-0.010237	1.349616	1.304456
C165	C	0.323096	1.682949	1.637789
C166	C	-0.343573	1.016281	1.036864
C167	C	-0.010240	1.349614	1.370197
C168	C	0.323094	1.682948	1.703530
N169	N	-0.308127	0.998951	0.835039
N170	N	0.025207	1.332284	1.168372
N171	N	0.358540	1.665618	1.501706
N172	N	-0.308121	0.998954	0.772588
N173	N	0.025212	1.332288	1.105921
N174	N	0.358546	1.665621	1.439254
C175	C	-0.303302	1.063374	0.740193
C176	C	0.030032	1.396707	1.073527
C177	C	0.363365	1.730040	1.406860
N178	N	-0.298476	1.127791	0.772609
N179	N	0.034858	1.461124	1.105943
N180	N	0.368191	1.794458	1.439276
N181	N	-0.298478	1.127787	0.835067
N182	N	0.034855	1.461120	1.168400
N183	N	0.368188	1.794453	1.501733
C184	C	-0.303307	1.063368	0.866983
C185	C	0.030026	1.396701	1.200316
C186	C	0.363360	1.730035	1.533649
C187	C	-0.263042	1.110472	0.636061
C188	C	0.070291	1.443805	0.969394
C189	C	0.403624	1.777139	1.302728
C190	C	-0.263048	1.110481	0.570317
C191	C	0.070285	1.443814	0.903651
C192	C	0.403619	1.777148	1.236984
C193	C	-0.343564	1.016294	0.570280
C194	C	-0.010231	1.349627	0.903613
C195	C	0.323103	1.682960	1.236946
C196	C	-0.343562	1.016291	0.636022
C197	C	-0.010228	1.349625	0.969355
C198	C	0.323105	1.682958	1.302689
C199	C	-0.303297	1.063379	0.668909
C200	C	0.030036	1.396713	1.002242
C201	C	0.363369	1.730046	1.335576
C202	C	-0.303324	1.063380	1.139719
C203	C	0.030010	1.396714	1.473052
C204	C	0.363343	1.730047	1.806385
C205	C	-0.303309	1.063369	1.069750
C206	C	0.030025	1.396703	1.403084
C207	C	0.363358	1.730036	1.736417
H208	H	-0.542908	1.148772	0.230266
H209	H	-0.209574	1.482106	0.563599
H210	H	0.123759	1.815439	0.896933
H211	H	-1.063011	1.149014	0.230368
H212	H	-0.729678	1.482347	0.563701
H213	H	-0.396345	1.815680	0.897035
F214	F	-0.386412	0.966166	0.936114
F215	F	-0.053079	1.299500	1.269447
F216	F	0.280254	1.632833	1.602781
F217	F	-0.220075	0.643120	0.220321
F218	F	0.113258	0.976454	0.553654
F219	F	0.446591	1.309787	0.886987
H220	H	-0.376464	0.633455	0.376177
H221	H	-0.043130	0.966789	0.709511
H222	H	0.290203	1.300122	1.042844
F223	F	-0.386547	0.484415	0.386239
F224	F	-0.053213	0.817749	0.719573
F225	F	0.280120	1.151082	1.052906
H226	H	-1.063076	0.978097	0.376312
H227	H	-0.729742	1.311430	0.709645
H228	H	-0.396409	1.644764	1.042979
F229	F	-0.670391	1.160608	0.220235
F230	F	-0.337057	1.493941	0.553568
F231	F	-0.003724	1.827275	0.886901
F232	F	-0.670459	0.966148	0.386297
F233	F	-0.337126	1.299481	0.719631
F234	F	-0.003793	1.632814	1.052964
H235	H	-0.230171	0.494064	0.230381
H236	H	0.103162	0.827398	0.563715
H237	H	0.436495	1.160731	0.897048
H238	H	-0.943748	1.148953	0.230337
H239	H	-0.610414	1.482286	0.563671
H240	H	-0.277081	1.815619	0.897004
F241	F	-0.534751	0.966089	0.386281
F242	F	-0.201418	1.299422	0.719614
F243	F	0.131916	1.632755	1.052947
H244	H	-0.943806	0.978041	0.376288
H245	H	-0.610473	1.311374	0.709622
H246	H	-0.277140	1.644707	1.042955
H247	H	-0.230266	1.148829	0.543575
H248	H	0.103067	1.482163	0.876908
H249	H	0.436400	1.815496	1.210242
F250	F	-0.220217	1.160594	1.071901
F251	F	0.113116	1.493927	1.405234
F252	F	0.446450	1.827260	1.738567
H253	H	-0.230266	1.148806	0.944413
H254	H	0.103067	1.482139	1.277746
H255	H	0.436401	1.815473	1.611079
F256	F	-0.386409	0.966174	0.670981
F257	F	-0.053076	1.299507	1.004315
F258	F	0.280257	1.632840	1.337648
F259	F	-0.386424	0.966164	1.071822
F260	F	-0.053090	1.299497	1.405156
F261	F	0.280243	1.632831	1.738489
H262	H	-0.230257	1.148814	0.662839
H263	H	0.103077	1.482147	0.996172
H264	H	0.436410	1.815480	1.329506
F265	F	-0.386410	0.966182	0.535276
F266	F	-0.053077	1.299515	0.868610
F267	F	0.280256	1.632848	1.201943
