data_functionalizedCrystal
_audit_creation_method	'MofGen! by Chris Wilmer'
_symmetry_space_group_name_H-M	'P1'
_symmetry_Int_Tables_number	1
_symmetry_cell_setting	triclinic
loop_
_symmetry_equiv_pos_as_xyz
  x,y,z
_cell_length_a	19.188930
_cell_length_b	19.188930
_cell_length_c	17.666332
_cell_angle_alpha	90.011603
_cell_angle_beta	89.976766
_cell_angle_gamma	96.855221
loop_
_atom_site_label
_atom_site_type_symbol
_atom_site_fract_x
_atom_site_fract_y
_atom_site_fract_z
O1	O	0.926150	-0.087169	-0.063200
O2	O	1.426150	0.412831	0.436800
O3	O	0.722838	-0.098903	-0.063149
O4	O	1.222838	0.401097	0.436851
O5	O	0.830361	0.008620	-0.063161
O6	O	1.330361	0.508620	0.436839
O7	O	0.818627	-0.194692	-0.063188
O8	O	1.318627	0.305308	0.436812
O9	O	0.830342	0.008625	0.062735
O10	O	1.330342	0.508625	0.562735
O11	O	0.722820	-0.098897	0.062747
O12	O	1.222820	0.401103	0.562747
O13	O	0.926131	-0.087163	0.062697
O14	O	1.426131	0.412837	0.562697
Cu15	Cu	0.824473	-0.093030	0.074217
Cu16	Cu	1.324473	0.406970	0.574217
Cu17	Cu	0.824496	-0.093036	-0.074670
Cu18	Cu	1.324496	0.406964	0.425330
O19	O	0.818608	-0.194686	0.062709
O20	O	1.318608	0.305314	0.562709
C21	C	0.696818	-0.098520	-0.000194
C22	C	1.196818	0.401480	0.499806
C23	C	0.619313	-0.097380	-0.000174
C24	C	1.119313	0.402620	0.499826
C25	C	0.574389	-0.160470	-0.000194
C26	C	1.074389	0.339530	0.499806
C27	C	0.501566	-0.159399	-0.000203
C28	C	1.001566	0.340601	0.499797
C29	C	0.473669	-0.095233	-0.000206
C30	C	0.973669	0.404767	0.499794
C31	C	0.518603	-0.032133	-0.000181
C32	C	1.018603	0.467867	0.499819
C33	C	0.591425	-0.033207	-0.000166
C34	C	1.091425	0.466793	0.499834
N35	N	0.365695	-0.046188	-0.043078
N36	N	0.865695	0.453812	0.456922
N37	N	0.296517	-0.045172	-0.043095
N38	N	0.796517	0.454828	0.456905
C39	C	0.254260	-0.091994	-0.000252
C40	C	0.754260	0.408006	0.499748
N41	N	0.283795	-0.139881	0.042599
N42	N	0.783795	0.360119	0.542599
N43	N	0.352979	-0.140899	0.042612
N44	N	0.852979	0.359101	0.542612
C45	C	0.394707	-0.094062	-0.000222
C46	C	0.894707	0.405938	0.499778
C47	C	0.130372	-0.153928	-0.000280
C48	C	0.630372	0.346072	0.499720
C49	C	0.057547	-0.152853	-0.000283
C50	C	0.557547	0.347147	0.499717
C51	C	0.074586	-0.025586	-0.000270
C52	C	0.574586	0.474414	0.499730
C53	C	0.147409	-0.026662	-0.000258
C54	C	0.647409	0.473338	0.499742
C55	C	0.175298	-0.090835	-0.000267
C56	C	0.675298	0.409165	0.499733
C57	C	0.829972	0.034634	-0.000211
C58	C	1.329972	0.534634	0.499789
C59	C	0.828831	0.112138	-0.000204
C60	C	1.328831	0.612138	0.499796
C61	C	0.952151	-0.087546	-0.000260
C62	C	1.452151	0.412454	0.499740
C63	C	1.029656	-0.088687	-0.000285
C64	C	1.529656	0.411313	0.499715
C65	C	0.818997	-0.220700	-0.000244
C66	C	1.318997	0.279300	0.499756
C67	C	0.820138	-0.298204	-0.000255
C68	C	1.320138	0.201796	0.499745
N69	N	0.824463	-0.093025	0.178937
N70	N	1.324463	0.406975	0.678937
C71	C	0.891922	0.157062	-0.000216
C72	C	1.391922	0.657062	0.499784
C73	C	0.890850	0.229886	-0.000228
C74	C	1.390850	0.729886	0.499772
C75	C	0.826684	0.257782	-0.000212
C76	C	1.326684	0.757782	0.499788
C77	C	0.763585	0.212849	-0.000205
C78	C	1.263585	0.712849	0.499795
C79	C	0.764658	0.140026	-0.000200
C80	C	1.264658	0.640026	0.499800
N81	N	0.777630	0.365789	0.042645
N82	N	1.277630	0.865789	0.542645
N83	N	0.776615	0.434968	0.042642
N84	N	1.276615	0.934968	0.542642
C85	C	0.823446	0.477191	-0.000227
C86	C	1.323446	0.977191	0.499773
N87	N	0.871341	0.447624	-0.043084
N88	N	1.371341	0.947624	0.456916
N89	N	0.872359	0.378439	-0.043079
N90	N	1.372359	0.878439	0.456921
C91	C	0.825513	0.336745	-0.000218
C92	C	1.325513	0.836745	0.499782
C93	C	0.885379	0.601079	-0.000253
C94	C	1.385379	1.101079	0.499747
C95	C	0.884305	0.673904	-0.000270
C96	C	1.384305	1.173904	0.499730
C97	C	0.757038	0.656865	-0.000239
C98	C	1.257038	1.156865	0.499761
C99	C	0.758114	0.584042	-0.000230
C100	C	1.258114	1.084042	0.499770
C101	C	0.822287	0.556154	-0.000233
C102	C	1.322287	1.056154	0.499767
N103	N	0.824512	-0.093036	-0.179390
N104	N	1.324512	0.406964	0.320610
C105	C	0.872089	-0.045437	0.218541
C106	C	1.372089	0.454563	0.718541
C107	C	0.872093	-0.045433	0.297789
C108	C	1.372093	0.454567	0.797789
C109	C	0.824478	-0.093030	0.337429
C110	C	1.324478	0.406970	0.837429
C111	C	0.776842	-0.140621	0.297815
C112	C	1.276842	0.359379	0.797815
C113	C	0.776835	-0.140619	0.218569
C114	C	1.276835	0.359381	0.718569
N115	N	0.815401	-0.154837	0.461841
N116	N	1.315401	0.345163	0.961841
N117	N	0.815413	-0.154837	0.537121
N118	N	1.315413	0.345163	1.037121
C119	C	0.824496	-0.093040	0.576193
C120	C	1.324496	0.406960	1.076193
N121	N	0.833582	-0.031239	0.537140
N122	N	1.333582	0.468761	1.037140
N123	N	0.833574	-0.031240	0.461853
N124	N	1.333574	0.468760	0.961853
C125	C	0.824480	-0.093038	0.423358
C126	C	1.324480	0.406962	0.923358
C127	C	0.872130	-0.045444	0.701727
C128	C	1.372130	0.454556	1.201727
C129	C	0.872129	-0.045440	0.780976
C130	C	1.372129	0.454560	1.280976
C131	C	0.776881	-0.140634	0.781000
C132	C	1.276881	0.359366	1.281000
C133	C	0.776878	-0.140632	0.701753
C134	C	1.276878	0.359368	1.201753
C135	C	0.824506	-0.093038	0.662121
C136	C	1.324506	0.406962	1.162121
H137	H	0.153080	-0.206181	-0.000276
H138	H	0.653080	0.293819	0.499724
C139	C	0.239223	0.045952	-0.064957
C140	C	0.739223	0.545952	0.435043
C141	C	0.196796	0.042689	-0.000248
C142	C	0.696796	0.542689	0.499752
H143	H	0.269714	0.088767	-0.064945
H144	H	0.769714	0.588767	0.435055
H145	H	0.210483	0.043725	-0.108857
H146	H	0.710483	0.543725	0.391143
H147	H	0.266254	0.007579	-0.064945
H148	H	0.766254	0.507579	0.435055
H149	H	0.169761	0.081059	-0.000263
H150	H	0.669761	0.581059	0.499737
H151	H	0.225539	0.044923	0.043663
H152	H	0.725539	0.544923	0.543663
C153	C	0.966272	0.048656	0.709659
C154	C	1.466272	0.548656	1.209659
C155	C	0.924473	0.006877	0.658157
C156	C	1.424473	0.506877	1.158157
H157	H	0.998582	0.080960	0.682761
H158	H	1.498582	0.580960	1.182761
H159	H	0.991298	0.019656	0.740546
H160	H	1.491298	0.519656	1.240546
H161	H	0.937281	0.073696	0.740590
H162	H	1.437281	0.573696	1.240590
H163	H	0.953463	-0.018167	0.627229
H164	H	1.453463	0.481833	1.127229
H165	H	0.899445	0.035881	0.627257
H166	H	1.399445	0.535881	1.127257
H167	H	0.495885	0.020111	-0.000194
H168	H	0.995885	0.520111	0.499806
H169	H	0.944176	0.134360	-0.000222
H170	H	1.444176	0.634360	0.499778
H171	H	0.628003	0.018171	-0.000150
H172	H	1.128003	0.518171	0.499850
H173	H	0.020970	-0.204232	-0.000295
H174	H	0.520970	0.295768	0.499705
C175	C	-0.029475	0.032568	-0.000296
C176	C	0.470525	0.532568	0.499704
C177	C	0.043931	0.044948	-0.000277
C178	C	0.543931	0.544948	0.499723
H179	H	-0.048401	0.076115	-0.000304
H180	H	0.451599	0.576115	0.499696
H181	H	-0.044929	0.006609	0.043600
H182	H	0.455071	0.506609	0.543600
H183	H	-0.044878	0.006594	-0.044206
H184	H	0.455122	0.506594	0.455794
H185	H	0.059334	0.070917	0.043636
H186	H	0.559334	0.570917	0.543636
H187	H	0.059391	0.070918	-0.044178
H188	H	0.559391	0.570918	0.455822
H189	H	0.942228	0.266470	-0.000241
H190	H	1.442228	0.766470	0.499759
C191	C	0.913477	0.075537	0.322210
C192	C	1.413477	0.575537	0.822210
C193	C	0.924445	0.006879	0.341337
C194	C	1.424445	0.506879	0.841337
H195	H	0.945799	0.107831	0.349092
H196	H	1.445799	0.607831	0.849092
H197	H	0.866911	0.083000	0.335225
H198	H	1.366911	0.583000	0.835225
H199	H	0.920295	0.082346	0.269342
H200	H	1.420295	0.582346	0.769342
H201	H	0.917623	0.000069	0.394205
H202	H	1.417623	0.500069	0.894205
H203	H	0.971022	-0.000587	0.328328
H204	H	1.471022	0.499413	0.828328
H205	H	0.738051	-0.179371	0.186322
H206	H	1.238051	0.320629	0.686322
H207	H	0.711340	0.235567	-0.000194
H208	H	1.211340	0.735567	0.499806
C209	C	0.638754	0.130501	-0.000170
C210	C	1.138754	0.630501	0.499830
C211	C	0.695304	0.090641	-0.000179
C212	C	1.195304	0.590641	0.499821
H213	H	0.595938	0.100010	-0.000151
H214	H	1.095938	0.600010	0.499849
H215	H	0.640988	0.159244	-0.044075
H216	H	1.140988	0.659244	0.455925
H217	H	0.640980	0.159273	0.043732
H218	H	1.140980	0.659273	0.543732
H219	H	0.693081	0.061872	-0.044084
H220	H	1.193081	0.561872	0.455916
H221	H	0.693069	0.061886	0.043730
H222	H	1.193069	0.561886	0.543730
H223	H	0.937632	0.578372	-0.000259
H224	H	1.437632	1.078372	0.499741
C225	C	1.010209	0.683427	-0.000279
C226	C	1.510209	1.183427	0.499721
C227	C	0.953660	0.723288	-0.000281
C228	C	1.453660	1.223288	0.499719
H229	H	1.053025	0.713917	-0.000280
H230	H	1.553025	1.213917	0.499720
H231	H	1.007993	0.654661	-0.044176
H232	H	1.507993	1.154661	0.455824
H233	H	1.007963	0.654678	0.043631
H234	H	1.507963	1.154678	0.543631
H235	H	0.955903	0.752034	-0.044193
H236	H	1.455903	1.252034	0.455807
H237	H	0.955877	0.752067	0.043621
H238	H	1.455877	1.252067	0.543621
H239	H	0.738099	-0.179386	0.669505
H240	H	1.238099	0.320614	1.169505
C241	C	0.735506	-0.261609	0.805384
C242	C	1.235506	0.238391	1.305384
C243	C	0.724538	-0.192953	0.824562
C244	C	1.224538	0.307047	1.324562
H245	H	0.703186	-0.293907	0.832277
H246	H	1.203186	0.206093	1.332277
H247	H	0.782073	-0.269073	0.818349
H248	H	1.282073	0.230927	1.318349
H249	H	0.728686	-0.268411	0.752517
H250	H	1.228686	0.231589	1.252517
H251	H	0.731364	-0.186150	0.877428
H252	H	1.231364	0.313850	1.377428
H253	H	0.677961	-0.185486	0.811602
H254	H	1.177961	0.314514	1.311602
H255	H	0.706738	0.547464	-0.000216
H256	H	1.206738	1.047464	0.499784
C257	C	0.550227	-0.286159	-0.000207
C258	C	1.050227	0.213841	0.499793
C259	C	0.605043	-0.231008	-0.000191
C260	C	1.105043	0.268992	0.499809
H261	H	0.569154	-0.329705	-0.000199
H262	H	1.069154	0.170295	0.499801
H263	H	0.522207	-0.283096	-0.044115
H264	H	1.022207	0.216904	0.455885
H265	H	0.522151	-0.283084	0.043692
H266	H	1.022151	0.216916	0.543692
H267	H	0.633116	-0.234080	-0.044093
H268	H	1.133116	0.265920	0.455907
H269	H	0.633076	-0.234072	0.043721
H270	H	1.133076	0.265928	0.543721
C271	C	0.409817	-0.232009	-0.064959
C272	C	0.909817	0.267991	0.435041
C273	C	0.452170	-0.228751	-0.000230
C274	C	0.952170	0.271249	0.499770
H275	H	0.379321	-0.274822	-0.064973
H276	H	0.879321	0.225178	0.435027
H277	H	0.438606	-0.229786	-0.108846
H278	H	0.938606	0.270214	0.391154
H279	H	0.382791	-0.193633	-0.064949
H280	H	0.882791	0.306367	0.435051
H281	H	0.479200	-0.267124	-0.000242
H282	H	0.979200	0.232876	0.499758
H283	H	0.423377	-0.230981	0.043668
H284	H	0.923377	0.269019	0.543668
H285	H	0.704792	0.679578	-0.000230
H286	H	1.204792	1.179578	0.499770
H287	H	0.910869	-0.006681	0.186275
H288	H	1.410869	0.493319	0.686275
C289	C	0.734571	-0.182899	0.419306
C290	C	1.234571	0.317101	0.919306
C291	C	0.724504	-0.192943	0.341385
C292	C	1.224504	0.307057	0.841385
H293	H	0.702259	-0.215204	0.446202
H294	H	1.202259	0.284796	0.946202
H295	H	0.727133	-0.136326	0.432307
H296	H	1.227133	0.363674	0.932307
H297	H	0.781146	-0.190370	0.432255
H298	H	1.281146	0.309630	0.932255
H299	H	0.677930	-0.185467	0.328435
H300	H	1.177930	0.314533	0.828435
H301	H	0.731936	-0.239527	0.328378
H302	H	1.231936	0.260473	0.828378
H303	H	0.910910	-0.006684	0.813222
H304	H	1.410910	0.493316	1.313222
