data_functionalizedCrystal
_audit_creation_method	'MofGen! by Chris Wilmer'
_symmetry_space_group_name_H-M	'P1'
_symmetry_Int_Tables_number	1
_symmetry_cell_setting	triclinic
loop_
_symmetry_equiv_pos_as_xyz
  x,y,z
_cell_length_a	11.026660
_cell_length_b	11.792254
_cell_length_c	10.065922
_cell_angle_alpha	80.238920
_cell_angle_beta	82.290603
_cell_angle_gamma	96.391716
loop_
_atom_site_label
_atom_site_type_symbol
_atom_site_fract_x
_atom_site_fract_y
_atom_site_fract_z
O1	O	1.629355	0.493986	-0.113510
O2	O	1.275692	0.439797	-0.113510
O3	O	1.461097	0.303423	-0.113500
O4	O	1.443951	0.630360	-0.113520
O5	O	1.428990	0.267240	0.113490
O6	O	1.243585	0.403614	0.113480
O7	O	1.597249	0.457803	0.113480
Zn8	Zn	1.415319	0.424964	0.149520
Zn9	Zn	1.457621	0.472636	-0.149550
O10	O	1.411844	0.594177	0.113471
C11	C	1.214362	0.411709	-0.000015
C12	C	1.079451	0.381907	-0.000014
C13	C	0.866754	0.433405	-0.000021
C14	C	1.006190	0.464209	-0.000020
C15	C	1.443963	0.242826	-0.000006
C16	C	1.440730	0.116171	-0.000007
C17	C	1.438104	0.013314	-0.000012
C18	C	1.434820	-0.115723	-0.000024
C19	C	1.658579	0.485892	-0.000018
C20	C	1.793491	0.515695	-0.000027
C21	C	1.428978	0.654774	-0.000027
C22	C	1.432212	0.781430	-0.000035
N23	N	1.386459	0.392429	0.353627
C24	C	1.447566	0.461319	0.421403
C25	C	1.425364	0.436271	0.578571
N26	N	1.486480	0.505170	0.646344
H27	H	0.833997	0.608949	-0.000024
N28	N	1.028680	0.264905	-0.000025
N29	N	1.097491	0.187527	-0.000027
H30	H	1.061636	0.104895	-0.000037
H31	H	1.317709	0.314904	0.411957
N32	N	0.815930	0.316417	-0.000002
N33	N	0.702732	0.291559	0.000003
H34	H	0.666838	0.208933	0.000018
H35	H	1.516323	0.538837	0.363072
N36	N	1.339120	0.339010	0.651748
N37	N	1.321210	0.318798	0.779318
H38	H	1.260302	0.250109	0.831002
H39	H	1.555240	0.582696	0.588020
H40	H	1.046690	0.557469	-0.000017
