data_functionalizedCrystal
_audit_creation_method	'MofGen! by Chris Wilmer'
_symmetry_space_group_name_H-M	'P1'
_symmetry_Int_Tables_number	1
_symmetry_cell_setting	triclinic
loop_
_symmetry_equiv_pos_as_xyz
  x,y,z
_cell_length_a	14.853569
_cell_length_b	13.330367
_cell_length_c	14.853567
_cell_angle_alpha	90.002150
_cell_angle_beta	83.635248
_cell_angle_gamma	89.996941
loop_
_atom_site_label
_atom_site_type_symbol
_atom_site_fract_x
_atom_site_fract_y
_atom_site_fract_z
O1	O	1.196365	-0.083369	0.117707
O2	O	0.933906	-0.083380	0.131727
O3	O	1.072146	-0.083377	-0.006513
O4	O	1.058125	-0.083372	0.255946
O5	O	1.072132	0.083470	-0.006509
O6	O	0.933891	0.083467	0.131731
O7	O	1.196351	0.083478	0.117711
Cu8	Cu	1.065120	0.098707	0.124721
Cu9	Cu	1.065137	-0.098609	0.124716
O10	O	1.058110	0.083475	0.255950
C11	C	1.071504	0.000043	-0.040100
C12	C	1.069600	0.000035	-0.140183
C13	C	0.900310	0.000042	0.131093
C14	C	0.800226	0.000037	0.129189
C15	C	0.763850	0.000032	0.046178
C16	C	0.742560	0.000047	0.210410
C17	C	0.648526	0.000048	0.208624
C18	C	0.612150	0.000043	0.125613
C19	C	0.669807	0.000036	0.044389
C20	C	0.590862	0.000065	0.289847
C21	C	0.496821	0.000067	0.288064
C22	C	0.460443	0.000054	0.205052
C23	C	0.518107	0.000047	0.123824
C24	C	0.481730	0.000042	0.040813
C25	C	0.539393	0.000027	-0.040415
C26	C	0.633429	0.000024	-0.038623
C27	C	0.366407	0.000057	0.203259
C28	C	0.387688	0.000046	0.039024
C29	C	1.229947	0.000054	0.118344
C30	C	1.330030	0.000052	0.120249
N31	N	1.065115	0.237489	0.124724
N32	N	1.065149	-0.237390	0.124706
C33	C	1.003893	0.290013	0.185918
C34	C	1.126341	0.289993	0.063527
C35	C	1.126350	0.395011	0.063523
C36	C	1.065129	0.447535	0.124717
C37	C	1.003899	0.395041	0.185914
C38	C	1.187574	0.447513	0.002321
C39	C	1.187584	0.552538	0.002314
C40	C	1.126367	0.605064	0.063513
C41	C	1.065135	0.552563	0.124713
C42	C	1.003913	0.605087	0.185907
C43	C	0.942685	0.552588	0.247113
C44	C	0.942681	0.447567	0.247113
C45	C	1.126370	0.710086	0.063512
C46	C	1.003919	0.710115	0.185904
C47	C	0.979434	0.000050	-0.552718
C48	C	1.143667	0.000057	-0.573998
C49	C	1.145457	0.000051	-0.479964
C50	C	1.064234	0.000046	-0.422303
C51	C	0.981222	0.000047	-0.458675
C52	C	1.228468	0.000060	-0.443585
C53	C	1.230262	0.000055	-0.349545
C54	C	1.149038	0.000043	-0.291882
C55	C	1.066022	0.000043	-0.328260
C56	C	0.984800	0.000038	-0.270599
C57	C	0.901783	0.000031	-0.306974
C58	C	0.899998	0.000035	-0.401012
C59	C	1.150822	0.000039	-0.197845
C60	C	0.986587	0.000036	-0.176556
C61	C	1.058753	0.000053	0.289537
C62	C	1.060657	0.000055	0.389621
H63	H	0.358078	0.000036	-0.028574
H64	H	1.297859	0.000060	-0.319937
H65	H	0.509763	0.000016	-0.108003
H66	H	0.772184	0.000058	0.277994
Br67	Br	0.640234	0.000070	0.402497
Br68	Br	1.338692	0.000094	-0.521841
H69	H	0.449880	0.000077	0.354205
Br70	Br	0.920835	0.781390	0.268964
Br71	Br	0.859593	0.623882	0.330150
H72	H	1.176182	0.247224	0.013700
H73	H	0.832410	0.000030	-0.430638
Br74	Br	0.288156	0.000093	0.313488
H75	H	0.892830	0.404816	0.296944
H76	H	1.218413	0.000052	-0.168232
H77	H	1.209794	0.000069	-0.620951
Br78	Br	1.270678	0.623780	-0.080746
Br79	Br	0.920806	0.218772	0.268985
H80	H	1.237414	0.404745	-0.047506
Br81	Br	1.209452	0.781328	-0.019554
Br82	Br	0.842100	0.000007	-0.064056
Br83	Br	0.791556	0.000037	-0.228709
Br84	Br	0.711688	0.000014	-0.148851
Br85	Br	0.866774	0.000026	-0.602081
H86	H	0.920445	0.000027	-0.129613
