data_functionalizedCrystal
_audit_creation_method	'MofGen! by Chris Wilmer'
_symmetry_space_group_name_H-M	'P1'
_symmetry_Int_Tables_number	1
_symmetry_cell_setting	triclinic
loop_
_symmetry_equiv_pos_as_xyz
  x,y,z
_cell_length_a	15.944551
_cell_length_b	14.971486
_cell_length_c	13.448316
_cell_angle_alpha	89.993189
_cell_angle_beta	89.997731
_cell_angle_gamma	83.556433
loop_
_atom_site_label
_atom_site_type_symbol
_atom_site_fract_x
_atom_site_fract_y
_atom_site_fract_z
O1	O	1.114636	0.115362	-0.082589
O2	O	0.870100	0.129585	-0.082613
O3	O	0.998923	-0.007734	-0.082593
O4	O	0.985814	0.252680	-0.082609
O5	O	0.998906	-0.007742	0.082791
O6	O	0.870084	0.129576	0.082770
O7	O	1.114620	0.115354	0.082795
Cu8	Cu	0.992351	0.122464	0.097884
Cu9	Cu	0.992370	0.122474	-0.097702
O10	O	0.985798	0.252672	0.082775
C11	C	0.998328	-0.041062	0.000098
C12	C	0.996572	-0.140357	0.000097
C13	C	0.838798	0.128990	0.000075
C14	C	0.745550	0.127220	0.000066
C15	C	1.072251	-0.197664	0.000106
C16	C	1.070595	-0.290962	0.000095
C17	C	0.993259	-0.326951	0.000084
C18	C	0.917574	-0.269637	0.000073
C19	C	0.919230	-0.176341	0.000076
C20	C	0.914127	-0.464095	0.000069
C21	C	0.912470	-0.557398	0.000067
C22	C	1.065491	-0.578717	0.000088
C23	C	1.067148	-0.485421	0.000091
C24	C	0.991462	-0.428113	0.000082
C25	C	0.530608	0.037872	0.000091
C26	C	0.469636	0.079366	-0.081455
C27	C	0.574821	0.124017	0.000078
C28	C	0.469642	0.079379	0.081601
C29	C	0.409905	0.120918	0.000094
C30	C	0.515077	0.165535	-0.081535
C31	C	0.515089	0.165535	0.081594
C32	C	0.454134	0.207092	0.000029
C33	C	0.669825	0.125801	0.000068
C34	C	0.314903	0.119141	0.000097
C35	C	1.145923	0.115948	0.000104
C36	C	1.239171	0.117718	0.000107
C37	C	0.986392	0.286000	0.000081
C38	C	0.988149	0.385295	0.000076
N39	N	0.992343	0.122456	0.235448
N40	N	0.992384	0.122475	-0.235266
C41	C	1.049404	0.061677	0.287497
C42	C	1.049409	0.061676	0.391600
C43	C	0.992357	0.122460	0.443653
C44	C	0.935291	0.183243	0.391596
C45	C	0.935282	0.183238	0.287495
C46	C	0.935314	0.183249	0.608576
C47	C	0.935324	0.183254	0.712685
C48	C	1.049441	0.061686	0.712682
C49	C	1.049432	0.061682	0.608581
C50	C	0.992367	0.122466	0.556531
H51	H	1.135227	-0.168370	0.000121
Br52	Br	0.548453	0.226227	-0.196566
Br53	Br	0.586010	-0.081305	-0.000030
H54	H	0.852495	-0.417437	0.000058
H55	H	0.888865	0.232750	0.755060
H56	H	0.888834	0.232731	0.433983
H57	H	0.449514	0.042923	0.150539
H58	H	0.421044	0.278659	-0.000021
Br59	Br	0.816518	-0.098565	0.000056
Br60	Br	1.126842	-0.020814	0.216866
Br61	Br	1.126889	-0.020801	0.783323
H62	H	0.888843	0.232743	0.566201
Br63	Br	1.126846	-0.020815	0.462242
Br64	Br	0.548692	0.226211	0.196499
Br65	Br	1.126866	-0.020802	0.537935
H66	H	1.127118	-0.625382	0.000093
H67	H	0.854605	-0.298946	0.000057
Br68	Br	1.173308	-0.368733	0.000107
Br69	Br	1.172105	-0.436579	0.000104
H70	H	0.849496	-0.586696	0.000074
H71	H	0.888817	0.232730	0.245117
Br72	Br	0.436074	0.018649	-0.196358
