data_functionalizedCrystal
_audit_creation_method	'MofGen! by Chris Wilmer'
_symmetry_space_group_name_H-M	'P1'
_symmetry_Int_Tables_number	1
_symmetry_cell_setting	triclinic
loop_
_symmetry_equiv_pos_as_xyz
  x,y,z
_cell_length_a	17.019383
_cell_length_b	17.038272
_cell_length_c	15.186229
_cell_angle_alpha	89.995962
_cell_angle_beta	86.120670
_cell_angle_gamma	87.246883
loop_
_atom_site_label
_atom_site_type_symbol
_atom_site_fract_x
_atom_site_fract_y
_atom_site_fract_z
O1	O	1.053352	0.099657	-0.153028
O2	O	1.386685	0.432990	0.180306
O3	O	1.720018	0.766324	0.513639
O4	O	0.824541	0.112345	-0.135696
O5	O	1.157875	0.445679	0.197638
O6	O	1.491208	0.779012	0.530971
O7	O	0.937586	-0.007813	-0.144252
O8	O	1.270920	0.325520	0.189082
O9	O	1.604253	0.658853	0.522415
O10	O	0.940306	0.219815	-0.144472
O11	O	1.273640	0.553149	0.188862
O12	O	1.606973	0.886482	0.522195
O13	O	0.937578	-0.007815	0.002206
O14	O	1.270912	0.325518	0.335539
O15	O	1.604245	0.658852	0.668873
O16	O	0.824533	0.112344	0.010762
O17	O	1.157866	0.445677	0.344095
O18	O	1.491200	0.779010	0.677429
O19	O	1.053343	0.099655	-0.006570
O20	O	1.386677	0.432989	0.326763
O21	O	1.720010	0.766322	0.660097
Zn22	Zn	0.938937	0.105999	0.025349
Zn23	Zn	1.272270	0.439332	0.358683
Zn24	Zn	1.605604	0.772666	0.692016
Zn25	Zn	0.938948	0.106001	-0.167615
Zn26	Zn	1.272281	0.439335	0.165718
Zn27	Zn	1.605614	0.772668	0.499052
O28	O	0.940298	0.219814	0.001986
O29	O	1.273631	0.553147	0.335319
O30	O	1.606965	0.886480	0.668653
C31	C	0.795116	0.111861	-0.060238
C32	C	1.128449	0.445195	0.273095
C33	C	1.461783	0.778528	0.606429
C34	C	0.707450	0.110412	-0.053597
C35	C	1.040783	0.443746	0.279736
C36	C	1.374116	0.777079	0.613069
C37	C	0.666261	0.109734	-0.130305
C38	C	0.999594	0.443068	0.203028
C39	C	1.332928	0.776401	0.536361
C40	C	0.583889	0.108385	-0.124053
C41	C	0.917222	0.441719	0.209281
C42	C	1.250555	0.775052	0.542614
C43	C	0.542706	0.107708	-0.041091
C44	C	0.876040	0.441042	0.292242
C45	C	1.209373	0.774375	0.625575
C46	C	0.583901	0.108389	0.035622
C47	C	0.917234	0.441722	0.368956
C48	C	1.250567	0.775056	0.702289
C49	C	0.666271	0.109744	0.029369
C50	C	0.999605	0.443077	0.362702
C51	C	1.332938	0.776410	0.696035
C52	C	0.294000	0.103623	-0.018216
C53	C	0.627333	0.436957	0.315118
C54	C	0.960666	0.770290	0.648451
C55	C	0.211623	0.102266	-0.011968
C56	C	0.544957	0.435600	0.321365
C57	C	0.878290	0.768933	0.654699
C58	C	0.211617	0.102264	-0.171644
C59	C	0.544950	0.435597	0.161690
C60	C	0.878284	0.768931	0.495023
C61	C	0.293990	0.103614	-0.177890
C62	C	0.627323	0.436947	0.155443
C63	C	0.960656	0.770281	0.488777
C64	C	0.335176	0.104299	-0.101176
C65	C	0.668510	0.437632	0.232157
C66	C	1.001843	0.770965	0.565490
C67	C	0.458508	0.106327	-0.034698
C68	C	0.791842	0.439660	0.298635
C69	C	1.125175	0.772994	0.631969
C70	C	0.419372	0.105686	-0.107570
C71	C	0.752706	0.439019	0.225763
C72	C	1.086039	0.772352	0.559096
C73	C	0.935109	-0.036940	-0.070836
C74	C	1.268442	0.296393	0.262498
C75	C	1.601775	0.629726	0.595831
C76	C	0.927728	-0.123727	-0.070277
C77	C	1.261062	0.209606	0.263057
C78	C	1.594395	0.542939	0.596390
C79	C	0.995488	-0.173896	-0.075408
C80	C	1.328821	0.159437	0.257925
C81	C	1.662155	0.492771	0.591258
C82	C	0.988549	-0.255441	-0.074891
C83	C	1.321882	0.077892	0.258442
C84	C	1.655215	0.411226	0.591775
C85	C	0.913849	-0.286816	-0.069236
C86	C	1.247183	0.046518	0.264097
C87	C	1.580516	0.379851	0.597431
C88	C	0.846085	-0.236640	-0.064106
C89	C	1.179418	0.096693	0.269227
C90	C	1.512751	0.430026	0.602560
C91	C	0.853025	-0.155097	-0.064630
C92	C	1.186358	0.178236	0.268703
C93	C	1.519691	0.511570	0.602037
C94	C	0.889332	-0.532554	-0.067391
C95	C	1.222665	-0.199220	0.265943
C96	C	1.555998	0.134113	0.599276
C97	C	0.882397	-0.614104	-0.066865
C98	C	1.215730	-0.280770	0.266468
C99	C	1.549063	0.052563	0.599802
C100	C	1.024861	-0.632898	-0.077651
C101	C	1.358195	-0.299565	0.255682
C102	C	1.691528	0.033768	0.589015
C103	C	1.031795	-0.551353	-0.078169
C104	C	1.365128	-0.218019	0.255164
C105	C	1.698461	0.115314	0.588497
C106	C	0.964030	-0.501185	-0.073044
C107	C	1.297364	-0.167851	0.260289
C108	C	1.630697	0.165482	0.593622
C109	C	0.906754	-0.370167	-0.068704
C110	C	1.240088	-0.036834	0.264629
C111	C	1.573421	0.296499	0.597962
C112	C	0.971126	-0.417834	-0.073582
C113	C	1.304459	-0.084501	0.259751
C114	C	1.637792	0.248832	0.593084
C115	C	1.082769	0.100139	-0.082029
C116	C	1.416102	0.433473	0.251304
C117	C	1.749435	0.766806	0.584637
C118	C	1.170435	0.101588	-0.088676
C119	C	1.503768	0.434922	0.244657
C120	C	1.837102	0.768255	0.577991
C121	C	0.942776	0.248941	-0.071432
C122	C	1.276109	0.582274	0.261901
C123	C	1.609443	0.915607	0.595235
C124	C	0.950156	0.335728	-0.071997
C125	C	1.283489	0.669061	0.261337
C126	C	1.616823	1.002394	0.594670
N127	N	0.938935	0.105997	0.157042
N128	N	1.272269	0.439330	0.490376
N129	N	1.605602	0.772664	0.823709
N130	N	0.938955	0.105997	-0.299308
N131	N	1.272288	0.439331	0.034025
N132	N	1.605622	0.772664	0.367358
C133	C	0.989011	0.052809	0.378975
C134	C	1.322344	0.386142	0.712308
C135	C	1.655678	0.719475	1.045642
C136	C	0.989014	0.052807	0.471165
C137	C	1.322347	0.386140	0.804498
C138	C	1.655680	0.719474	1.137831
C139	C	0.888874	0.159188	0.478753
C140	C	1.222207	0.492521	0.812086
C141	C	1.555540	0.825855	1.145420
C142	C	0.888868	0.159186	0.386565
C143	C	1.222201	0.492519	0.719899
C144	C	1.555535	0.825852	1.053232
C145	C	0.938941	0.105997	0.336678
C146	C	1.272274	0.439330	0.670012
C147	C	1.605608	0.772664	1.003345
C148	C	0.938949	0.105997	0.521055
C149	C	1.272283	0.439331	0.854389
C150	C	1.605616	0.772664	1.187722
C151	C	0.938951	0.105996	0.621011
C152	C	1.272285	0.439329	0.954345
C153	C	1.605618	0.772663	1.287678
C154	C	0.938938	0.105997	0.236716
C155	C	1.272271	0.439331	0.570050
C156	C	1.605605	0.772664	0.903383
H157	H	0.699786	0.110283	-0.197861
H158	H	1.033119	0.443616	0.135472
H159	H	1.366453	0.776949	0.468805
F160	F	0.540056	0.107665	-0.205696
F161	F	0.873389	0.440998	0.127637
F162	F	1.206723	0.774331	0.460970
H163	H	0.178094	0.101737	0.055592
H164	H	0.511427	0.435071	0.388926
H165	H	0.844760	0.768404	0.722259
F166	F	0.463203	0.106409	-0.195861
F167	F	0.796536	0.439742	0.137472
F168	F	1.129869	0.773075	0.470806
H169	H	1.092623	-0.525814	-0.082774
H170	H	1.425956	-0.192481	0.250559
H171	H	1.759289	0.140853	0.583892
H172	H	1.029784	0.009496	0.505600
H173	H	1.363117	0.342829	0.838933
H174	H	1.696451	0.676162	1.172266
H175	H	1.043726	-0.296286	-0.079068
H176	H	1.377059	0.037048	0.254265
H177	H	1.710393	0.370381	0.587599
F178	F	0.817210	-0.479172	-0.061939
F179	F	1.150543	-0.145838	0.271395
F180	F	1.483876	0.187495	0.604728
H181	H	0.785263	-0.262192	-0.059507
H182	H	1.118596	0.071141	0.273826
H183	H	1.451929	0.404475	0.607159
H184	H	0.327524	0.104176	0.044250
H185	H	0.660858	0.437509	0.377583
H186	H	0.994191	0.770842	0.710917
H187	H	0.327515	0.104159	-0.245446
H188	H	0.660848	0.437493	0.087888
H189	H	0.994182	0.770826	0.421221
F190	F	0.167778	0.101528	-0.253282
F191	F	0.501111	0.434862	0.080052
F192	F	0.834445	0.768195	0.413385
F193	F	0.835587	0.215795	0.531852
F194	F	1.168920	0.549128	0.865185
F195	F	1.502253	0.882461	1.198518
F196	F	1.042302	-0.003801	0.325885
F197	F	1.375635	0.329532	0.659219
F198	F	1.708968	0.662865	0.992552
H199	H	0.550363	0.107843	0.103171
H200	H	0.883696	0.441176	0.436505
H201	H	1.217030	0.774509	0.769838
F202	F	0.835571	0.215795	0.341547
F203	F	1.168904	0.549128	0.674880
F204	F	1.502237	0.882462	1.008214
F205	F	1.050624	-0.384441	-0.079606
F206	F	1.383957	-0.051108	0.253727
F207	F	1.717290	0.282225	0.587061
F208	F	0.710107	0.110468	0.111012
F209	F	1.043440	0.443801	0.444345
F210	F	1.376773	0.777135	0.777679
F211	F	1.096976	-0.686296	-0.083106
F212	F	1.430309	-0.352962	0.250227
F213	F	1.763642	-0.019629	0.583560
F214	F	0.827256	-0.403566	-0.062689
F215	F	1.160589	-0.070233	0.270644
F216	F	1.493922	0.263101	0.603978
H217	H	0.424969	0.105774	0.032849
H218	H	0.758302	0.439107	0.366183
H219	H	1.091636	0.772440	0.699516
F220	F	1.074994	-0.140513	-0.081419
F221	F	1.408327	0.192821	0.251914
F222	F	1.741660	0.526154	0.585247
F223	F	0.802888	-0.647492	-0.060841
F224	F	1.136221	-0.314159	0.272492
F225	F	1.469555	0.019174	0.605826
F226	F	0.780906	-0.101704	-0.059171
F227	F	1.114239	0.231630	0.274163
F228	F	1.447572	0.564963	0.607496
