data_functionalizedCrystal
_audit_creation_method	'MofGen! by Chris Wilmer'
_symmetry_space_group_name_H-M	'P1'
_symmetry_Int_Tables_number	1
_symmetry_cell_setting	triclinic
loop_
_symmetry_equiv_pos_as_xyz
  x,y,z
_cell_length_a	16.120484
_cell_length_b	16.625547
_cell_length_c	16.625539
_cell_angle_alpha	90.023545
_cell_angle_beta	92.870299
_cell_angle_gamma	87.074925
loop_
_atom_site_label
_atom_site_type_symbol
_atom_site_fract_x
_atom_site_fract_y
_atom_site_fract_z
Zn1	Zn	-0.331940	-1.216356	-0.472307
Zn2	Zn	-0.081940	-0.966356	-0.222307
Zn3	Zn	0.168060	-0.716356	0.027693
Zn4	Zn	0.418060	-0.466356	0.277693
Zn5	Zn	-0.471359	-1.209423	-0.344303
Zn6	Zn	-0.221359	-0.959423	-0.094303
Zn7	Zn	0.028641	-0.709423	0.155697
Zn8	Zn	0.278641	-0.459423	0.405697
Zn9	Zn	-0.331962	-1.081525	-0.337474
Zn10	Zn	-0.081962	-0.831525	-0.087474
Zn11	Zn	0.168038	-0.581525	0.162526
Zn12	Zn	0.418038	-0.331525	0.412526
Zn13	Zn	-0.471312	-1.074646	-0.479076
Zn14	Zn	-0.221312	-0.824646	-0.229076
Zn15	Zn	0.028688	-0.574646	0.020924
Zn16	Zn	0.278688	-0.324646	0.270924
O17	O	-0.401643	-1.145488	-0.408290
O18	O	-0.151643	-0.895488	-0.158290
O19	O	0.098357	-0.645488	0.091710
O20	O	0.348357	-0.395488	0.341710
O21	O	-0.350445	-1.328268	-0.455353
O22	O	-0.100445	-1.078268	-0.205353
O23	O	0.149555	-0.828268	0.044647
O24	O	0.399555	-0.578268	0.294647
O25	O	-0.452898	-1.192434	-0.230566
O26	O	-0.202898	-0.942434	0.019434
O27	O	0.047102	-0.692434	0.269434
O28	O	0.297102	-0.442434	0.519434
O29	O	-0.215293	-1.105191	-0.349669
O30	O	0.034707	-0.855191	-0.099669
O31	O	0.284707	-0.605191	0.150331
O32	O	0.534707	-0.355191	0.400331
O33	O	-0.452876	-1.323175	-0.361309
O34	O	-0.202876	-1.073175	-0.111309
O35	O	0.047124	-0.823175	0.138691
O36	O	0.297124	-0.573175	0.388691
O37	O	-0.215277	-1.204251	-0.448731
O38	O	0.034723	-0.954251	-0.198731
O39	O	0.284723	-0.704251	0.051269
O40	O	0.534723	-0.454251	0.301269
O41	O	-0.350483	-1.098468	-0.225549
O42	O	-0.100483	-0.848468	0.024451
O43	O	0.149517	-0.598468	0.274451
O44	O	0.399517	-0.348468	0.524451
O45	O	-0.350437	-0.967781	-0.356232
O46	O	-0.100437	-0.717781	-0.106232
O47	O	0.149563	-0.467781	0.143768
O48	O	0.399563	-0.217781	0.393768
O49	O	-0.452794	-1.093467	-0.591009
O50	O	-0.202794	-0.843467	-0.341009
O51	O	0.047206	-0.593467	-0.091009
O52	O	0.297206	-0.343467	0.158991
O53	O	-0.452816	-0.962727	-0.460266
O54	O	-0.202816	-0.712727	-0.210266
O55	O	0.047184	-0.462727	0.039734
O56	O	0.297184	-0.212727	0.289734
O57	O	-0.350398	-1.197581	-0.586036
O58	O	-0.100398	-0.947581	-0.336036
O59	O	0.149602	-0.697581	-0.086036
O60	O	0.399602	-0.447581	0.163964
O61	O	-0.588019	-1.185764	-0.367872
O62	O	-0.338019	-0.935764	-0.117872
O63	O	-0.088019	-0.685764	0.132128
O64	O	0.161981	-0.435764	0.382128
O65	O	-0.587984	-1.086744	-0.466889
O66	O	-0.337984	-0.836744	-0.216889
O67	O	-0.087984	-0.586744	0.033111
O68	O	0.162016	-0.336744	0.283111
C69	C	-0.401624	-0.935998	-0.408243
C70	C	-0.151624	-0.685998	-0.158243
C71	C	0.098376	-0.435998	0.091757
C72	C	0.348376	-0.185998	0.341757
C73	C	-0.401636	-0.846376	-0.408243
C74	C	-0.151636	-0.596376	-0.158243
C75	C	0.098364	-0.346376	0.091757
C76	C	0.348364	-0.096376	0.341757
C77	C	-0.401637	-0.773594	-0.408250
C78	C	-0.151637	-0.523594	-0.158250
C79	C	0.098363	-0.273594	0.091750
C80	C	0.348363	-0.023594	0.341750
C81	C	-0.401640	-0.682285	-0.408267
C82	C	-0.151640	-0.432285	-0.158267
C83	C	0.098360	-0.182285	0.091733
C84	C	0.348360	0.067715	0.341733
C85	C	-0.401647	-0.609508	-0.408285
C86	C	-0.151647	-0.359508	-0.158285
C87	C	0.098353	-0.109508	0.091715
C88	C	0.348353	0.140492	0.341715
C89	C	-0.401651	-0.518194	-0.408301
C90	C	-0.151651	-0.268194	-0.158301
C91	C	0.098349	-0.018194	0.091699
C92	C	0.348349	0.231806	0.341699
C93	C	-0.618252	-1.134777	-0.418873
C94	C	-0.368252	-0.884777	-0.168873
C95	C	-0.118252	-0.634777	0.081127
C96	C	0.131748	-0.384777	0.331127
C97	C	-0.710918	-1.130269	-0.423428
C98	C	-0.460918	-0.880269	-0.173428
C99	C	-0.210918	-0.630269	0.076572
C100	C	0.039082	-0.380269	0.326572
C101	C	-0.880579	-1.122043	-0.431760
C102	C	-0.630579	-0.872043	-0.181760
C103	C	-0.380579	-0.622043	0.068240
C104	C	-0.130579	-0.372043	0.318240
C105	C	-0.921867	-1.169077	-0.384833
C106	C	-0.671867	-0.919077	-0.134833
C107	C	-0.421867	-0.669077	0.115167
C108	C	-0.171867	-0.419077	0.365167
C109	C	-1.016272	-1.164500	-0.389469
C110	C	-0.766272	-0.914500	-0.139469
C111	C	-0.516272	-0.664500	0.110531
C112	C	-0.266272	-0.414500	0.360531
C113	C	-0.786165	-1.126619	-0.427125
C114	C	-0.536165	-0.876619	-0.177125
C115	C	-0.286165	-0.626619	0.072875
C116	C	-0.036165	-0.376619	0.322875
C117	C	-0.184189	-1.156262	-0.397683
C118	C	0.065811	-0.906262	-0.147683
C119	C	0.315811	-0.656262	0.102317
C120	C	0.565811	-0.406262	0.352317
C121	C	-0.091523	-1.160853	-0.393163
C122	C	0.158477	-0.910853	-0.143163
C123	C	0.408477	-0.660853	0.106837
C124	C	0.658477	-0.410853	0.356837
C125	C	-0.401588	-1.145530	-0.618596
C126	C	-0.151588	-0.895530	-0.368596
C127	C	0.098412	-0.645530	-0.118596
C128	C	0.348412	-0.395530	0.131404
C129	C	-0.401565	-1.145548	-0.708216
C130	C	-0.151565	-0.895548	-0.458216
C131	C	0.098435	-0.645548	-0.208216
C132	C	0.348435	-0.395548	0.041784
C133	C	-0.401660	-0.355796	-0.408328
C134	C	-0.151660	-0.105796	-0.158328
C135	C	0.098340	0.144204	0.091672
C136	C	0.348340	0.394204	0.341672
C137	C	-0.401658	-0.445417	-0.408319
C138	C	-0.151658	-0.195417	-0.158319
C139	C	0.098342	0.054583	0.091681
C140	C	0.348342	0.304583	0.341681
C141	C	-0.401546	-1.145562	-0.780998
C142	C	-0.151546	-0.895562	-0.530998
C143	C	0.098454	-0.645562	-0.280998
C144	C	0.348454	-0.395562	-0.030998
C145	C	-0.401515	-1.145582	-0.872305
C146	C	-0.151515	-0.895582	-0.622305
C147	C	0.098485	-0.645582	-0.372305
C148	C	0.348485	-0.395582	-0.122305
C149	C	-0.401486	-1.145603	-0.945080
C150	C	-0.151486	-0.895603	-0.695080
C151	C	0.098514	-0.645603	-0.445080
C152	C	0.348514	-0.395603	-0.195080
C153	C	-0.401456	-1.145624	-1.036393
C154	C	-0.151456	-0.895624	-0.786393
C155	C	0.098544	-0.645624	-0.536393
C156	C	0.348544	-0.395624	-0.286393
C157	C	-0.401638	-1.145495	-0.198799
C158	C	-0.151638	-0.895495	0.051201
C159	C	0.098362	-0.645495	0.301201
C160	C	0.348362	-0.395495	0.551201
C161	C	-0.401426	-1.145645	-0.109168
C162	C	-0.151426	-0.895645	0.140832
C163	C	0.098574	-0.645645	0.390832
C164	C	0.348574	-0.395645	0.640832
H165	H	-0.886312	-1.212781	-0.341176
H166	H	-0.636312	-0.962781	-0.091176
H167	H	-0.386312	-0.712781	0.158824
H168	H	-0.136312	-0.462781	0.408824
H169	H	-0.916131	-1.078341	-0.475413
H170	H	-0.666131	-0.828341	-0.225413
H171	H	-0.416131	-0.578341	0.024587
H172	H	-0.166131	-0.328341	0.274587
