data_functionalizedCrystal
_audit_creation_method	'MofGen! by Chris Wilmer'
_symmetry_space_group_name_H-M	'P1'
_symmetry_Int_Tables_number	1
_symmetry_cell_setting	triclinic
loop_
_symmetry_equiv_pos_as_xyz
  x,y,z
_cell_length_a	8.497374
_cell_length_b	8.497374
_cell_length_c	12.759395
_cell_angle_alpha	89.997371
_cell_angle_beta	90.001171
_cell_angle_gamma	90.005237
loop_
_atom_site_label
_atom_site_type_symbol
_atom_site_fract_x
_atom_site_fract_y
_atom_site_fract_z
Zn1	Zn	0.892083	0.628265	1.606168
Zn2	Zn	0.628349	0.892011	1.606159
Zn3	Zn	0.628313	0.628245	1.430525
Zn4	Zn	0.892083	0.892004	1.430500
O5	O	0.760207	0.760131	1.518338
O6	O	0.857113	0.663262	1.753187
O7	O	0.407582	0.857016	1.582868
O8	O	0.663288	0.407486	1.453838
O9	O	0.663349	0.857035	1.753181
O10	O	0.857078	0.407500	1.582882
O11	O	0.407555	0.663229	1.453830
O12	O	0.663287	0.663223	1.283501
O13	O	1.112845	0.857024	1.453795
O14	O	0.857078	0.857005	1.283482
O15	O	1.112845	0.663256	1.582858
O16	O	0.663348	1.112772	1.582844
O17	O	0.857113	1.112767	1.453787
C18	C	0.760180	0.760112	1.245370
C19	C	0.760205	0.760142	1.128594
C20	C	1.171687	0.760133	1.518330
C21	C	1.350331	0.760150	1.518332
C22	C	0.760230	1.170011	1.518325
C23	C	0.760204	1.348655	1.518353
C24	C	0.961673	0.962253	1.128613
C25	C	1.062412	1.063321	1.073762
C26	C	1.062431	1.063341	0.964040
C27	C	0.961704	0.962277	0.909167
C28	C	0.860966	0.861209	0.964018
C29	C	0.860954	0.861204	1.073743
C30	C	0.659509	0.659092	0.963999
C31	C	0.659479	0.659078	1.073721
C32	C	0.558782	0.558029	0.909126
C33	C	0.458033	0.456966	0.963977
C34	C	0.458017	0.456952	1.073705
C35	C	0.558740	0.558010	1.128572
C36	C	0.760235	0.760152	1.792371
C37	C	0.760247	0.760160	1.909148
H38	H	0.961656	0.962259	1.217954
O39	O	0.558939	0.557795	0.802543
C40	C	0.599629	0.406631	0.645078
C41	C	0.599555	0.406683	0.765782
H42	H	0.632431	0.284462	0.615320
H43	H	0.688977	0.496138	0.615242
H44	H	0.477410	0.439243	0.615312
H45	H	0.721708	0.374032	0.795638
H46	H	0.510123	0.317209	0.795547
O47	O	1.160101	1.161443	1.127228
C48	C	1.249427	1.250942	1.296269
C49	C	1.138688	1.139770	1.235856
H50	H	1.232177	1.233435	1.384105
H51	H	1.221519	1.378139	1.274774
H52	H	1.376665	1.223476	1.274643
H53	H	1.011413	1.167095	1.257449
H54	H	1.166731	1.012607	1.257356
O55	O	0.360029	0.359030	0.910629
C56	C	0.147170	0.337466	0.786671
C57	C	0.258040	0.448557	0.847044
H58	H	0.064707	0.409803	0.735231
H59	H	0.075041	0.265261	0.844671
H60	H	0.219775	0.255068	0.735358
H61	H	0.185558	0.531050	0.898359
H62	H	0.330175	0.520652	0.788987
H63	H	0.375994	0.374639	1.118359
H64	H	0.961743	0.962288	0.819826
H65	H	1.144469	1.145631	0.919381
H66	H	0.558732	0.558013	1.217913
