data_functionalizedCrystal
_audit_creation_method	'MofGen! by Chris Wilmer'
_symmetry_space_group_name_H-M	'P1'
_symmetry_Int_Tables_number	1
_symmetry_cell_setting	triclinic
loop_
_symmetry_equiv_pos_as_xyz
  x,y,z
_cell_length_a	10.654550
_cell_length_b	27.732064
_cell_length_c	9.130313
_cell_angle_alpha	90.002876
_cell_angle_beta	89.996220
_cell_angle_gamma	83.567163
loop_
_atom_site_label
_atom_site_type_symbol
_atom_site_fract_x
_atom_site_fract_y
_atom_site_fract_z
O1	O	1.664991	0.067883	-0.121905
O2	O	1.299241	0.074351	-0.121880
O3	O	1.493465	0.000792	-0.121899
O4	O	1.470768	0.141443	-0.121886
O5	O	1.493462	0.000794	0.121700
O6	O	1.299239	0.074353	0.121719
O7	O	1.664988	0.067885	0.121694
Cu8	Cu	1.482114	0.071119	0.143949
Cu9	Cu	1.482116	0.071117	-0.144135
O10	O	1.470765	0.141444	0.121713
C11	C	1.252462	0.073877	-0.000078
C12	C	1.113078	0.072456	-0.000069
C13	C	1.492984	-0.017217	-0.000104
C14	C	1.491540	-0.070881	-0.000118
C15	C	1.031779	0.115767	-0.000086
C16	C	0.900814	0.114429	-0.000112
C17	C	0.932462	0.026466	-0.000108
C18	C	1.063424	0.027804	-0.000072
C19	C	1.013506	0.166551	-0.000094
C20	C	0.882541	0.165213	-0.000120
C21	C	1.366931	-0.448729	-0.000115
C22	C	1.372247	-0.247036	-0.000117
O23	O	1.275555	-0.216386	-0.000169
N24	N	1.487418	-0.227191	-0.000125
C25	C	1.601268	-0.257773	-0.000142
O26	O	1.699350	-0.236266	-0.000164
C27	C	1.595951	-0.459466	-0.000150
C28	C	1.480773	-0.479308	-0.000128
C29	C	1.251762	-0.468572	-0.000094
C30	C	1.250435	-0.518992	-0.000085
C31	C	1.364276	-0.549570	-0.000098
C32	C	1.479445	-0.529728	-0.000119
C33	C	1.709799	-0.490047	-0.000178
C34	C	1.708460	-0.540473	-0.000184
C35	C	1.593282	-0.560314	-0.000161
C36	C	1.591958	-0.610726	-0.000123
N37	N	1.476788	-0.630571	-0.000115
C38	C	1.362946	-0.599993	-0.000102
C39	C	1.604051	-0.151882	-0.000135
C40	C	1.605381	-0.101459	-0.000130
C41	C	1.376359	-0.090725	-0.000108
C42	C	1.375031	-0.141149	-0.000102
C43	C	1.488880	-0.171726	-0.000127
C44	C	1.360167	-0.705880	-0.000083
C45	C	1.358849	-0.756305	-0.000069
C46	C	1.587870	-0.767035	-0.000099
C47	C	1.589188	-0.716614	-0.000105
C48	C	1.475326	-0.686037	-0.000103
O49	O	1.688599	-0.641406	-0.000088
O50	O	1.264879	-0.621510	-0.000113
C51	C	1.368259	-0.398309	-0.000123
C52	C	1.483428	-0.378467	-0.000145
C53	C	1.597269	-0.409045	-0.000157
C54	C	1.484757	-0.328044	-0.000140
C55	C	1.370916	-0.297466	-0.000127
C56	C	1.255745	-0.317310	-0.000119
C57	C	1.254418	-0.367731	-0.000111
C58	C	1.712440	-0.389200	-0.000165
C59	C	1.713758	-0.338779	-0.000172
C60	C	1.599917	-0.308201	-0.000159
C61	C	1.711768	0.068359	-0.000112
C62	C	1.851151	0.069780	-0.000130
C63	C	1.471246	0.159453	-0.000085
C64	C	1.472690	0.213117	-0.000081
N65	N	1.482121	0.071121	0.346572
N66	N	1.482119	0.071112	-0.346758
C67	C	1.568144	0.038560	0.423215
C68	C	1.568141	0.038554	0.576552
C69	C	1.396087	0.103674	0.576588
C70	C	1.396085	0.103677	0.423254
C71	C	1.667482	0.000964	0.423196
C72	C	1.667479	0.000959	0.576532
H73	H	1.129615	-0.007463	-0.000037
O74	O	1.641190	-0.048244	0.368014
H75	H	1.554036	-0.044232	0.300463
H76	H	0.892016	-0.009888	-0.000134
H77	H	1.042004	0.186414	0.101859
H78	H	1.159054	-0.443679	-0.000088
H79	H	1.803590	-0.473901	-0.000198
O80	O	1.629021	-0.045539	0.639555
H81	H	1.707016	-0.063317	0.707959
O82	O	1.303316	0.138792	0.659311
H83	H	1.318592	0.176527	0.629884
O84	O	1.303285	0.138792	0.340593
H85	H	1.317724	0.133322	0.221087
O86	O	1.787617	0.016546	0.360170
H87	H	1.851311	0.024803	0.450759
O88	O	0.821178	0.185541	0.139185
H89	H	0.751209	0.217023	0.112401
H90	H	1.048485	0.182721	-0.105264
H91	H	1.801172	-0.565367	-0.000212
O92	O	1.794844	0.011935	0.631678
H93	H	1.869050	-0.016176	0.591092
H94	H	1.265053	-0.772457	-0.000043
O95	O	0.826182	0.190560	-0.135153
H96	H	0.902454	0.204024	-0.201251
O97	O	1.253568	-0.057740	-0.000107
H98	H	1.273854	-0.019346	-0.000121
O99	O	1.237363	-0.672904	-0.000057
H100	H	1.157066	-0.695180	-0.000023
H101	H	1.156645	-0.535142	-0.000079
H102	H	1.281243	-0.157300	-0.000078
H103	H	1.680556	-0.791940	-0.000102
O104	O	1.729607	-0.080059	-0.000155
H105	H	1.808537	-0.109798	-0.000185
O106	O	1.726858	-0.184857	-0.000131
H107	H	1.782031	-0.177749	-0.099410
O108	O	1.713413	-0.695209	-0.000130
H109	H	1.768079	-0.707458	0.099145
O110	O	1.130190	-0.389129	-0.000095
H111	H	1.051264	-0.359389	-0.000099
H112	H	1.163052	-0.292405	-0.000100
H113	H	1.807557	-0.322630	-0.000179
H114	H	1.805145	-0.414093	-0.000177
