data_functionalizedCrystal
_audit_creation_method	'MofGen! by Chris Wilmer'
_symmetry_space_group_name_H-M	'P1'
_symmetry_Int_Tables_number	1
_symmetry_cell_setting	triclinic
loop_
_symmetry_equiv_pos_as_xyz
  x,y,z
_cell_length_a	16.109317
_cell_length_b	9.016244
_cell_length_c	16.109301
_cell_angle_alpha	90.002250
_cell_angle_beta	96.535101
_cell_angle_gamma	89.997252
loop_
_atom_site_label
_atom_site_type_symbol
_atom_site_fract_x
_atom_site_fract_y
_atom_site_fract_z
O1	O	-1.103127	0.123182	0.106929
O2	O	-0.603127	0.623182	0.606929
O3	O	-0.861067	0.123220	0.120214
O4	O	-0.361067	0.623220	0.620214
O5	O	-0.988747	0.123190	-0.007459
O6	O	-0.488747	0.623190	0.492541
O7	O	-0.975448	0.123212	0.234602
O8	O	-0.475448	0.623212	0.734602
O9	O	-0.988728	-0.123491	-0.007456
O10	O	-0.488728	0.376509	0.492544
O11	O	-0.861048	-0.123461	0.120217
O12	O	-0.361048	0.376539	0.620217
O13	O	-1.103109	-0.123499	0.106932
O14	O	-0.603109	0.376501	0.606932
Cu15	Cu	-0.982077	-0.146004	0.113575
Cu16	Cu	-0.482077	0.353996	0.613575
Cu17	Cu	-0.982099	0.145725	0.113571
Cu18	Cu	-0.482099	0.645725	0.613571
O19	O	-0.975429	-0.123469	0.234605
O20	O	-0.475429	0.376531	0.734605
C21	C	-0.830083	-0.000116	0.119675
C22	C	-0.330083	0.499884	0.619675
C23	C	-0.737789	-0.000102	0.118054
C24	C	-0.237789	0.499898	0.618054
N25	N	-0.982067	-0.351190	0.113577
N26	N	-0.482067	0.148810	0.613577
C27	C	-0.438725	0.134347	0.112819
C28	C	0.061275	0.634347	0.612819
C29	C	-0.525446	0.134353	0.114336
C30	C	-0.025446	0.634353	0.614336
C31	C	-0.525445	-0.134591	0.114328
C32	C	-0.025445	0.365409	0.614328
C33	C	-0.438726	-0.134596	0.112805
C34	C	0.061274	0.365404	0.612805
C35	C	-0.395368	-0.000123	0.112054
C36	C	0.104632	0.499877	0.612054
C37	C	-0.568808	-0.000111	0.115095
C38	C	-0.068808	0.499889	0.615095
C39	C	-0.662835	-0.000105	0.116740
C40	C	-0.162835	0.499895	0.616740
C41	C	-0.301335	-0.000128	0.110408
C42	C	0.198665	0.499872	0.610408
C43	C	-0.913562	-0.586207	0.181648
C44	C	-0.413562	-0.086207	0.681648
C45	C	-0.913710	-0.414315	0.181899
C46	C	-0.413710	0.085685	0.681899
C47	C	-1.068814	-0.413540	0.132507
C48	C	-0.568814	0.086460	0.632507
C49	C	-1.068439	-0.585485	0.132988
C50	C	-0.568439	-0.085485	0.632988
C51	C	-0.964692	-0.585738	0.026346
C52	C	-0.464692	-0.085738	0.526346
C53	C	-0.962692	-0.413783	0.026931
C54	C	-0.462692	0.086217	0.526931
C55	C	-0.134092	-0.000152	0.107472
C56	C	0.365908	0.499848	0.607472
C57	C	-0.226387	-0.000133	0.109095
C58	C	0.273613	0.499867	0.609095
C59	C	-0.988199	-0.000149	-0.038433
C60	C	-0.488199	0.499851	0.461567
C61	C	-0.986583	-0.000147	-0.130728
C62	C	-0.486583	0.499853	0.369272
N63	N	-0.982115	0.350911	0.113563
N64	N	-0.482115	0.850911	0.613563
C65	C	-1.057066	-0.000133	-0.439722
C66	C	-0.557066	0.499867	0.060278
C67	C	-1.058591	-0.000141	-0.353002
C68	C	-0.558591	0.499859	0.146998
C69	C	-0.907104	-0.000138	-0.333137
C70	C	-0.407104	0.499862	0.166863
C71	C	-0.905579	-0.000139	-0.419856
C72	C	-0.405579	0.499861	0.080144
C73	C	-0.980563	-0.000129	-0.473147
C74	C	-0.480563	0.499871	0.026853
C75	C	-0.983613	-0.000136	-0.299708
C76	C	-0.483613	0.499864	0.200292
C77	C	-0.985266	-0.000146	-0.205681
C78	C	-0.485266	0.499854	0.294319
C79	C	-0.978910	-0.000123	-0.567179
C80	C	-0.478910	0.499877	-0.067179
C81	C	-0.975977	-0.000126	0.265578
C82	C	-0.475977	0.499874	0.765578
C83	C	-0.977592	-0.000118	0.357874
C84	C	-0.477592	0.499882	0.857874
H85	H	-0.403425	0.243844	0.112207
H86	H	0.096575	0.743844	0.612207
H87	H	-0.403423	-0.244105	0.112181
H88	H	0.096577	0.255895	0.612181
H89	H	-1.120888	-0.000147	-0.325792
H90	H	-0.620888	0.499853	0.174208
Cl91	Cl	-1.151331	-0.000128	-0.506713
Cl92	Cl	-0.651331	0.499872	-0.006713
Cl93	Cl	-0.812844	-0.000138	-0.266139
Cl94	Cl	-0.312844	0.499862	0.233861
Cl95	Cl	-0.814141	-0.349228	0.164544
Cl96	Cl	-0.314141	0.150772	0.664544
H97	H	-0.848877	-0.627591	0.170556
H98	H	-0.348877	-0.127591	0.670556
Cl99	Cl	-0.809396	-0.000144	-0.461879
Cl100	Cl	-0.309396	0.499856	0.038121
H101	H	-0.560744	0.243852	0.114957
H102	H	-0.060744	0.743852	0.614957
H103	H	-0.902817	-0.629177	0.008137
H104	H	-0.402817	-0.129177	0.508137
H105	H	-1.014685	-0.626402	-0.024321
H106	H	-0.514685	-0.126402	0.475679
H107	H	-0.924531	-0.629396	0.246006
H108	H	-0.424531	-0.129396	0.746006
Cl109	Cl	-0.579957	-0.303634	0.115280
Cl110	Cl	-0.079957	0.196366	0.615280
H111	H	-0.924828	-0.373165	0.246623
H112	H	-0.424828	0.126835	0.746623
Cl113	Cl	-1.092146	-0.647381	0.231191
Cl114	Cl	-0.592146	-0.147381	0.731191
Cl115	Cl	-1.149485	-0.649711	0.059255
Cl116	Cl	-0.649485	-0.149711	0.559255
H117	H	-1.121039	-0.372647	0.084237
H118	H	-0.621039	0.127353	0.584237
H119	H	-0.898881	-0.373033	0.012564
H120	H	-0.398881	0.126967	0.512564
Cl121	Cl	-1.093086	-0.347033	0.229593
Cl122	Cl	-0.593086	0.152967	0.729593
Cl123	Cl	-1.034778	-0.347473	-0.054957
Cl124	Cl	-0.534778	0.152527	0.445043
