data_functionalizedCrystal
_audit_creation_method	'MofGen! by Chris Wilmer'
_symmetry_space_group_name_H-M	'P1'
_symmetry_Int_Tables_number	1
_symmetry_cell_setting	triclinic
loop_
_symmetry_equiv_pos_as_xyz
  x,y,z
_cell_length_a	26.809956
_cell_length_b	10.654550
_cell_length_c	10.654550
_cell_angle_alpha	84.484931
_cell_angle_beta	90.004547
_cell_angle_gamma	89.994336
loop_
_atom_site_label
_atom_site_type_symbol
_atom_site_fract_x
_atom_site_fract_y
_atom_site_fract_z
O1	O	0.041442	-1.667851	-0.176381
O2	O	0.041451	-1.302372	-0.193188
O3	O	0.041443	-1.493515	-0.002045
O4	O	0.041450	-1.476709	-0.367524
O5	O	-0.041516	-1.493479	-0.002074
O6	O	-0.041508	-1.302336	-0.193217
O7	O	-0.041517	-1.667815	-0.176411
Zn8	Zn	-0.054684	-1.485070	-0.184818
Zn9	Zn	0.054618	-1.485117	-0.184780
O10	O	-0.041509	-1.476672	-0.367553
C11	C	-0.000027	-1.255556	-0.191968
C12	C	-0.000024	-1.116113	-0.188276
N13	N	-0.129280	-1.485046	-0.184844
C14	C	-0.000036	-1.492263	0.044738
C15	C	-0.000035	-1.488571	0.184181
C16	C	-0.473910	-1.569744	-0.100163
C17	C	-0.682787	-1.569774	-0.100144
O18	O	-0.709794	-1.641736	-0.028153
N19	N	-0.708907	-1.485124	-0.184752
C20	C	-0.682804	-1.400455	-0.269365
O21	O	-0.709814	-1.328447	-0.341321
C22	C	-0.473928	-1.400420	-0.269377
C23	C	-0.447810	-1.485084	-0.184772
C24	C	-0.447792	-1.654401	-0.015564
C25	C	-0.395576	-1.654397	-0.015574
C26	C	-0.369477	-1.569737	-0.100183
C27	C	-0.395594	-1.485081	-0.184782
C28	C	-0.447826	-1.315746	-0.353983
C29	C	-0.395603	-1.315743	-0.353977
C30	C	-0.369486	-1.400407	-0.269372
C31	C	-0.317279	-1.400417	-0.269402
N32	N	-0.291159	-1.485067	-0.184794
C33	C	-0.317258	-1.569727	-0.100185
C34	C	-0.792468	-1.400481	-0.269355
C35	C	-0.844687	-1.400491	-0.269354
C36	C	-0.844666	-1.569809	-0.100131
C37	C	-0.792446	-1.569804	-0.100139
C38	C	-0.766348	-1.485131	-0.184747
C39	C	-0.207600	-1.569714	-0.100213
C40	C	-0.155379	-1.569706	-0.100234
C41	C	-0.155404	-1.400385	-0.269452
C42	C	-0.207621	-1.400396	-0.269436
C43	C	-0.233717	-1.485066	-0.184806
O44	O	-0.290240	-1.328483	-0.341346
O45	O	-0.290240	-1.641706	-0.028221
C46	C	-0.526126	-1.569748	-0.100153
C47	C	-0.552243	-1.485092	-0.184752
C48	C	-0.526144	-1.400432	-0.269361
C49	C	-0.604462	-1.485102	-0.184751
C50	C	-0.630561	-1.569762	-0.100142
C51	C	-0.604441	-1.654412	-0.015533
C52	C	-0.552225	-1.654408	-0.015544
C53	C	-0.552264	-1.315782	-0.353969
C54	C	-0.604480	-1.315793	-0.353953
C55	C	-0.630579	-1.400453	-0.269344
N56	N	0.129214	-1.485151	-0.184745
C57	C	-0.000037	-1.714631	-0.177630
C58	C	-0.000038	-1.854074	-0.181322
C59	C	-0.000023	-1.036628	-0.300818
C60	C	-0.000032	-0.905607	-0.297341
C61	C	-0.000040	-0.933570	-0.068772
C62	C	-0.000035	-1.064588	-0.072250
C63	C	-0.000029	-1.477925	-0.414336
C64	C	-0.000026	-1.481616	-0.553779
C65	C	-0.000038	-1.601112	0.263667
C66	C	-0.000031	-1.597636	0.394688
C67	C	-0.000022	-1.369066	0.366725
C68	C	-0.000025	-1.372544	0.235706
H69	H	-0.134116	-1.638655	-0.031339
C70	C	-0.000005	-1.225052	-0.407643
C71	C	-0.000013	-1.093267	-0.428351
H72	H	0.000004	-1.260013	-0.486381
H73	H	-0.028934	-1.252263	-0.361281
H74	H	0.028926	-1.252255	-0.361242
H75	H	-0.028946	-1.066064	-0.474745
H76	H	0.028919	-1.066045	-0.474734
C77	C	-0.379678	-1.726035	0.201235
C78	C	-0.366955	-1.747444	0.077626
H79	H	-0.362033	-1.783473	0.258832
H80	H	-0.414526	-1.738017	0.213133
H81	H	-0.371095	-1.642097	0.215575
H82	H	-0.375542	-1.831379	0.063283
H83	H	-0.332100	-1.735472	0.065723
C84	C	-0.506551	-1.289930	-0.524667
C85	C	-0.476526	-1.222673	-0.446977
H86	H	-0.524265	-1.232462	-0.582082
H87	H	-0.529571	-1.340336	-0.474289
H88	H	-0.486175	-1.342590	-0.570333
H89	H	-0.496902	-1.170019	-0.401304
H90	H	-0.453502	-1.172245	-0.497362
H91	H	-0.000052	-0.891602	0.025693
H92	H	-0.000036	-1.129309	0.019401
C93	C	-0.620563	-1.099015	-0.425667
C94	C	-0.633185	-1.222719	-0.446957
H95	H	-0.638286	-1.041554	-0.483072
H96	H	-0.585732	-1.086917	-0.437782
H97	H	-0.629120	-1.084676	-0.341712
H98	H	-0.624625	-1.237061	-0.530910
H99	H	-0.668025	-1.234823	-0.434853
C100	C	-0.797683	-1.737163	0.067128
C101	C	-0.763741	-1.662858	-0.007129
H102	H	-0.779962	-1.794605	0.124557
H103	H	-0.818045	-1.782789	0.014424
H104	H	-0.818055	-1.684482	0.112781
H105	H	-0.743371	-1.715538	-0.052789
H106	H	-0.743369	-1.617228	0.045582
C107	C	-0.202320	-1.737082	0.067053
C108	C	-0.236280	-1.662785	-0.007189
H109	H	-0.220027	-1.794545	0.124472
H110	H	-0.181954	-1.684408	0.112704
H111	H	-0.181953	-1.782696	0.014328
H112	H	-0.256645	-1.617163	0.045535
H113	H	-0.256654	-1.715466	-0.052844
H114	H	-0.531018	-1.246840	-0.422867
H115	H	-0.134146	-1.331459	-0.338344
H116	H	-0.000021	-1.280893	0.170985
H117	H	-0.771222	-1.331528	-0.338256
H118	H	-0.000032	-0.840894	-0.388984
H119	H	-0.228886	-1.331467	-0.338342
H120	H	-0.469038	-1.723341	0.053341
H121	H	-0.865924	-1.638744	-0.031240
C122	C	-0.839449	-1.233122	-0.436613
C123	C	-0.873391	-1.307432	-0.362361
H124	H	-0.857169	-1.175661	-0.494023
H125	H	-0.819082	-1.285787	-0.482275
H126	H	-0.819081	-1.187504	-0.383894
H127	H	-0.893757	-1.353057	-0.415079
H128	H	-0.893766	-1.254759	-0.316695
C129	C	-0.000037	-1.826692	0.304472
C130	C	-0.000040	-1.728647	0.207029
H131	H	-0.000033	-1.905427	0.269506
H132	H	-0.028965	-1.820575	0.354983
H133	H	0.028895	-1.820577	0.354999
H134	H	-0.028974	-1.734756	0.156508
H135	H	0.028891	-1.734767	0.156497
H136	H	-0.000033	-1.689279	0.459401
H137	H	-0.000015	-1.274601	0.408693
H138	H	-0.530964	-1.723349	0.053350
C139	C	-0.379545	-1.243865	-0.570719
C140	C	-0.366916	-1.222673	-0.446989
H141	H	-0.361832	-1.186414	-0.628139
H142	H	-0.414378	-1.231750	-0.582808
H143	H	-0.370980	-1.327800	-0.585126
H144	H	-0.375484	-1.138740	-0.432578
H145	H	-0.332074	-1.234777	-0.434894
C146	C	-0.684485	-1.729576	0.059607
C147	C	-0.633136	-1.747467	0.077476
H148	H	-0.702201	-1.787013	0.117033
H149	H	-0.693041	-1.743949	-0.024330
H150	H	-0.693037	-1.645634	0.074020
H151	H	-0.624584	-1.831407	0.063054
H152	H	-0.624577	-1.733104	0.161433
