data_functionalizedCrystal
_audit_creation_method	'MofGen! by Chris Wilmer'
_symmetry_space_group_name_H-M	'P1'
_symmetry_Int_Tables_number	1
_symmetry_cell_setting	triclinic
loop_
_symmetry_equiv_pos_as_xyz
  x,y,z
_cell_length_a	17.000371
_cell_length_b	17.019370
_cell_length_c	15.186229
_cell_angle_alpha	93.874485
_cell_angle_beta	89.996233
_cell_angle_gamma	79.506162
loop_
_atom_site_label
_atom_site_type_symbol
_atom_site_fract_x
_atom_site_fract_y
_atom_site_fract_z
O1	O	1.056069	0.028426	-0.071078
O2	O	0.824304	0.057057	-0.068908
O3	O	0.946652	-0.072538	-0.078725
O4	O	0.933721	0.158021	-0.061260
O5	O	0.946644	-0.072539	0.067732
O6	O	0.824296	0.057056	0.077549
O7	O	1.056061	0.028425	0.075380
Zn8	Zn	0.940177	0.042740	0.099718
Zn9	Zn	0.940188	0.042742	-0.093246
O10	O	0.933712	0.158020	0.085197
C11	C	0.794644	0.058595	0.004437
C12	C	0.706280	0.063168	0.004783
C13	C	0.946158	-0.101893	-0.007722
C14	C	0.944687	-0.189360	-0.014353
C15	C	0.674335	-0.007205	-0.000546
C16	C	0.591307	-0.002903	-0.000226
C17	C	0.540226	0.071772	0.005429
C18	C	0.572177	0.142150	0.010756
C19	C	0.655203	0.137847	0.010430
C20	C	0.289061	0.088390	0.006681
C21	C	0.206030	0.092687	0.007010
C22	C	0.225166	-0.052367	-0.003974
C23	C	0.308193	-0.056662	-0.004294
C24	C	0.340136	0.013716	0.001028
C25	C	0.455358	0.076170	0.005758
C26	C	0.425003	0.009316	0.000692
C27	C	0.943990	-0.230460	0.062361
C28	C	0.942613	-0.312646	0.056123
C29	C	0.941928	-0.353729	-0.026831
C30	C	0.942628	-0.312624	-0.103552
C31	C	0.944010	-0.230441	-0.097312
C32	C	0.937760	-0.601870	-0.049664
C33	C	0.936375	-0.684058	-0.055897
C34	C	0.936362	-0.684074	0.103777
C35	C	0.937739	-0.601889	0.110009
C36	C	0.938443	-0.560792	0.033289
C37	C	0.940518	-0.437736	-0.033210
C38	C	0.939859	-0.476788	0.039669
C39	C	1.085720	0.026887	0.002033
C40	C	1.174084	0.022314	0.001680
C41	C	0.934207	0.187375	0.014192
C42	C	0.935677	0.274842	0.020817
N43	N	0.940175	0.042738	0.231410
N44	N	0.940196	0.042737	-0.224939
C45	C	0.994370	-0.014630	0.452787
C46	C	0.994372	-0.014632	0.544977
C47	C	0.885995	0.100108	0.553677
C48	C	0.885990	0.100106	0.461489
C49	C	0.940181	0.042738	0.411047
C50	C	0.940190	0.042738	0.595424
C51	C	0.940192	0.042736	0.695380
C52	C	0.940178	0.042738	0.311084
H53	H	0.715920	-0.068014	-0.005147
H54	H	1.038495	-0.061344	0.411718
H55	H	0.940421	-0.443335	0.107209
C56	C	1.053982	-0.077733	0.590888
H57	H	1.086257	-0.111894	0.547640
H58	H	1.025393	-0.108605	0.624518
H59	H	1.087087	-0.051627	0.628821
H60	H	0.841875	0.146817	0.594757
C61	C	0.941842	-0.357851	0.140509
H62	H	0.942437	-0.321611	0.190806
H63	H	0.987698	-0.399144	0.140701
H64	H	0.894900	-0.380677	0.142089
H65	H	0.349779	-0.117471	-0.008895
C66	C	0.826382	0.163215	0.415572
H67	H	0.794116	0.197389	0.458816
H68	H	0.793280	0.137115	0.377638
H69	H	0.854981	0.194084	0.381942
H70	H	0.935790	-0.717544	0.166239
C71	C	0.941898	-0.357815	-0.194801
H72	H	0.942525	-0.321567	-0.239596
H73	H	0.894969	-0.380650	-0.199874
H74	H	0.987768	-0.399101	-0.201235
H75	H	0.565302	-0.060208	-0.004567
H76	H	0.199148	-0.109664	-0.008317
H77	H	0.164440	0.153500	0.011619
H78	H	0.315059	0.145697	0.011009
H79	H	0.530580	0.202951	0.015354
C80	C	0.690343	0.215257	0.016293
H81	H	0.648031	0.260347	0.019715
H82	H	0.722337	0.216593	-0.034679
H83	H	0.722331	0.216594	0.067473
H84	H	0.466597	-0.051484	-0.003917
C85	C	0.944744	-0.185276	0.153611
H86	H	0.944139	-0.221529	0.198405
H87	H	0.898887	-0.143982	0.160067
H88	H	0.991686	-0.162453	0.158663
C89	C	0.399170	0.158310	0.011979
H90	H	0.430083	0.199610	0.015103
H91	H	0.366376	0.163001	0.063404
H92	H	0.366393	0.162997	-0.038749
H93	H	0.938314	-0.568448	0.177559
C94	C	0.935665	-0.729257	-0.147151
H95	H	0.936301	-0.693015	-0.191950
H96	H	0.888740	-0.752098	-0.152235
H97	H	0.981539	-0.770540	-0.153567
C98	C	0.938520	-0.556670	-0.134053
H99	H	0.937902	-0.592908	-0.184348
H100	H	0.985454	-0.533842	-0.135646
H101	H	0.892655	-0.515378	-0.134235
H102	H	0.944579	-0.196979	-0.159782
H103	H	0.939959	-0.471194	-0.100751
