data_functionalizedCrystal
_audit_creation_method	'MofGen! by Chris Wilmer'
_symmetry_space_group_name_H-M	'P1'
_symmetry_Int_Tables_number	1
_symmetry_cell_setting	triclinic
loop_
_symmetry_equiv_pos_as_xyz
  x,y,z
_cell_length_a	6.817900
_cell_length_b	17.078472
_cell_length_c	17.078481
_cell_angle_alpha	96.872237
_cell_angle_beta	99.306161
_cell_angle_gamma	99.306020
loop_
_atom_site_label
_atom_site_type_symbol
_atom_site_fract_x
_atom_site_fract_y
_atom_site_fract_z
V1	V	-3.958854	-0.109582	-0.247282
V2	V	-3.458854	0.390418	0.252718
O3	O	-3.969080	0.005456	-0.242657
O4	O	-3.469080	0.505456	0.257343
O5	O	-3.890234	-0.217466	-0.245512
O6	O	-3.390234	0.282534	0.254488
O7	O	-3.890235	-0.107813	-0.355166
O8	O	-3.390235	0.392187	0.144834
O9	O	-3.969079	-0.104956	-0.132243
O10	O	-3.469079	0.395044	0.367757
V11	V	-4.447722	-0.095832	-0.233532
V12	V	-3.947722	0.404168	0.266468
O13	O	-4.208388	-0.139744	-0.277444
O14	O	-3.708388	0.360256	0.222556
O15	O	-4.648385	-0.065670	-0.203370
O16	O	-4.148385	0.434330	0.296630
O17	O	-4.293135	0.012052	-0.235302
O18	O	-3.793135	0.512052	0.264698
O19	O	-4.554892	-0.210871	-0.238157
O20	O	-4.054892	0.289129	0.261843
O21	O	-4.554893	-0.100458	-0.348571
O22	O	-4.054893	0.399542	0.151429
O23	O	-4.293134	-0.097601	-0.125648
O24	O	-3.793134	0.402399	0.374352
C25	C	-3.730970	-0.243769	-0.241591
C26	C	-3.230970	0.256231	0.258409
C27	C	-3.756017	-0.331965	-0.240863
C28	C	-3.256017	0.168035	0.259137
C29	C	-3.948372	-0.377437	-0.244475
C30	C	-3.448372	0.122563	0.255525
C31	C	-3.971897	-0.460307	-0.243795
C32	C	-3.471897	0.039693	0.256205
C33	C	-3.803061	-0.497703	-0.239498
C34	C	-3.303061	0.002297	0.260502
C35	C	-3.610692	-0.452224	-0.235888
C36	C	-3.110692	0.047776	0.264112
C37	C	-3.587172	-0.369357	-0.236573
C38	C	-3.087172	0.130643	0.263427
C39	C	-3.854040	-0.745108	-0.237030
C40	C	-3.354040	-0.245108	0.262970
C41	C	-3.877575	-0.827982	-0.236342
C42	C	-3.377575	-0.327982	0.263658
C43	C	-4.238780	-0.836060	-0.244251
C44	C	-3.738780	-0.336060	0.255749
C45	C	-4.215241	-0.753189	-0.244932
C46	C	-3.715241	-0.253189	0.255068
C47	C	-4.022876	-0.707719	-0.241326
C48	C	-3.522876	-0.207719	0.258674
N49	N	-3.827102	-0.582409	-0.238801
N50	N	-3.327102	-0.082409	0.261199
N51	N	-3.998840	-0.623015	-0.242029
N52	N	-3.498840	-0.123015	0.257971
C53	C	-3.730971	-0.103894	-0.381465
C54	C	-3.230971	0.396106	0.118535
C55	C	-3.756017	-0.103161	-0.469660
C56	C	-3.256017	0.396839	0.030340
C57	C	-3.948374	-0.106777	-0.515133
C58	C	-3.448374	0.393223	-0.015133
C59	C	-3.971895	-0.106088	-0.598002
C60	C	-3.471895	0.393912	-0.098002
C61	C	-3.803060	-0.101789	-0.635397
C62	C	-3.303060	0.398211	-0.135397
C63	C	-3.610687	-0.098170	-0.589917
C64	C	-3.110687	0.401830	-0.089917
C65	C	-3.587166	-0.098853	-0.507049
C66	C	-3.087166	0.401147	-0.007049
C67	C	-3.854039	-0.099316	-0.882802
C68	C	-3.354039	0.400684	-0.382802
C69	C	-3.877577	-0.098635	-0.965676
C70	C	-3.377577	0.401365	-0.465676
C71	C	-4.238784	-0.106552	-0.973755
C72	C	-3.738784	0.393448	-0.473755
C73	C	-4.215247	-0.107240	-0.890886
C74	C	-3.715247	0.392760	-0.390886
C75	C	-4.022876	-0.103617	-0.845413
C76	C	-3.522876	0.396383	-0.345413
N77	N	-3.827099	-0.101087	-0.720102
N78	N	-3.327099	0.398913	-0.220102
N79	N	-3.998837	-0.104313	-0.760708
N80	N	-3.498837	0.395687	-0.260708
C81	C	-4.115740	0.038350	-0.239221
C82	C	-3.615740	0.538350	0.260779
C83	C	-4.069930	0.126546	-0.239955
C84	C	-3.569930	0.626546	0.260045
C85	C	-4.115740	-0.101523	-0.099345
C86	C	-3.615740	0.398477	0.400655
C87	C	-4.069933	-0.102251	-0.011149
C88	C	-3.569933	0.397749	0.488851
H89	H	-4.352731	-0.722749	-0.248437
H90	H	-3.852731	-0.222749	0.251563
Cl91	Cl	-4.213724	-0.517470	-0.248335
Cl92	Cl	-3.713724	-0.017470	0.251665
H93	H	-3.740085	-0.858429	-0.232861
H94	H	-3.240085	-0.358429	0.267139
Cl95	Cl	-4.427511	-0.112648	-0.843882
Cl96	Cl	-3.927511	0.387352	-0.343882
H97	H	-3.697412	-0.096394	-0.845792
H98	H	-3.197412	0.403606	-0.345792
H99	H	-3.430524	-0.095889	-0.470022
H100	H	-2.930524	0.404111	0.029978
H101	H	-3.697407	-0.708095	-0.234089
H102	H	-3.197407	-0.208095	0.265911
H103	H	-4.395397	-0.873090	-0.247187
H104	H	-3.895397	-0.373090	0.252813
H105	H	-3.473218	-0.094665	-0.620370
H106	H	-2.973218	0.405335	-0.120370
Cl107	Cl	-4.480608	-0.111103	-1.030925
Cl108	Cl	-3.980608	0.388897	-0.530925
Cl109	Cl	-3.665308	-0.093230	-1.012685
Cl110	Cl	-3.165308	0.406770	-0.512685
Cl111	Cl	-4.213729	-0.110646	-0.655167
Cl112	Cl	-3.713729	0.389354	-0.155167
Cl113	Cl	-3.398442	-0.499236	-0.230490
Cl114	Cl	-2.898442	0.000764	0.269510
Cl115	Cl	-4.160637	-0.330434	-0.249875
Cl116	Cl	-3.660637	0.169566	0.250125
H117	H	-3.430539	-0.332334	-0.233635
H118	H	-2.930539	0.167666	0.266365
Cl119	Cl	-4.160642	-0.112188	-0.468132
Cl120	Cl	-3.660642	0.387812	0.031868
