data_functionalizedCrystal
_audit_creation_method	'MofGen! by Chris Wilmer'
_symmetry_space_group_name_H-M	'P1'
_symmetry_Int_Tables_number	1
_symmetry_cell_setting	triclinic
loop_
_symmetry_equiv_pos_as_xyz
  x,y,z
_cell_length_a	12.827893
_cell_length_b	25.639239
_cell_length_c	12.827885
_cell_angle_alpha	90.035982
_cell_angle_beta	90.019272
_cell_angle_gamma	90.038657
loop_
_atom_site_label
_atom_site_type_symbol
_atom_site_fract_x
_atom_site_fract_y
_atom_site_fract_z
Zn1	Zn	1.597500	-0.208126	0.590804
Zn2	Zn	1.597324	-0.295571	0.416045
Zn3	Zn	1.422742	-0.208151	0.416077
Zn4	Zn	1.422656	-0.295532	0.590745
O5	O	1.510055	-0.251845	0.503418
O6	O	1.743713	-0.219731	0.567633
O7	O	1.574127	-0.284002	0.269813
O8	O	1.446034	-0.134983	0.439293
O9	O	1.743583	-0.283977	0.439238
O10	O	1.574428	-0.134964	0.567664
O11	O	1.445862	-0.219775	0.269837
O12	O	1.276494	-0.219737	0.439236
O13	O	1.445888	-0.283911	0.736989
O14	O	1.276431	-0.283935	0.567564
O15	O	1.574345	-0.219694	0.737032
O16	O	1.574044	-0.368731	0.439181
O17	O	1.445716	-0.368702	0.567533
C18	C	1.238546	-0.251835	0.503398
C19	C	1.122392	-0.251843	0.503414
C20	C	1.509880	-0.387688	0.503370
C21	C	1.509900	-0.445802	0.503384
C22	C	1.070604	-0.283660	0.566817
C23	C	0.950554	-0.283670	0.566835
C24	C	1.577050	-0.806167	0.436699
C25	C	1.577090	-0.860771	0.436713
O26	O	1.634001	-0.889010	0.379962
N27	N	1.510239	-0.888084	0.503487
C28	C	1.443350	-0.860790	0.570259
O29	O	1.386493	-0.889035	0.627057
C30	C	1.443316	-0.806186	0.570249
C31	C	1.510164	-0.778876	0.503463
C32	C	1.643893	-0.778857	0.369920
C33	C	1.643851	-0.724256	0.369904
C34	C	1.576966	-0.696966	0.436669
C35	C	1.510122	-0.724276	0.503448
C36	C	1.376433	-0.778893	0.637026
C37	C	1.376405	-0.724286	0.637011
C38	C	1.443253	-0.696976	0.570225
C39	C	1.443194	-0.642385	0.570198
N40	N	1.510045	-0.615072	0.503424
C41	C	1.576931	-0.642363	0.436659
C42	C	1.443429	-0.975460	0.570275
C43	C	1.443458	-1.030063	0.570280
C44	C	1.577199	-1.030040	0.436735
C45	C	1.577165	-0.975437	0.436726
C46	C	1.510281	-0.948148	0.503501
C47	C	1.576837	-0.527698	0.436632
C48	C	1.576786	-0.473092	0.436620
C49	C	1.443049	-0.473119	0.570168
C50	C	1.443095	-0.527720	0.570177
C51	C	1.509998	-0.555008	0.503405
O52	O	1.386315	-0.614112	0.626923
O53	O	1.633789	-0.614110	0.379880
C54	C	1.782626	-0.251856	0.503438
C55	C	1.898779	-0.251860	0.503447
C56	C	1.510127	-0.251795	0.775988
C57	C	1.510157	-0.251773	0.892141
C58	C	1.510260	-0.115472	0.503489
C59	C	1.510348	-0.057358	0.503519
C60	C	1.510045	-0.251857	0.231908
C61	C	1.510217	-0.251731	0.115755
C62	C	1.573729	-0.219991	0.943947
C63	C	1.573761	-0.219968	1.063998
H64	H	1.115143	-0.310891	0.621088
H65	H	1.077854	-0.224608	0.449151
H66	H	1.698366	-0.801071	0.315552
C67	C	1.646105	-0.183701	0.884455
C68	C	1.586916	-0.150235	0.821784
C69	C	1.653557	-0.116803	0.766957
H70	H	1.686021	-0.163708	0.932403
H71	H	1.691537	-0.203719	0.841809
H72	H	1.541502	-0.130220	0.864427
H73	H	1.547003	-0.170214	0.773817
H74	H	1.698989	-0.136821	0.724311
H75	H	1.693470	-0.096813	0.814912
H76	H	1.613408	-0.094096	0.724422
C77	C	1.649310	-0.443509	0.363939
C78	C	1.626641	-0.456855	0.260530
C79	C	1.693436	-0.429622	0.193552
H80	H	1.639777	-0.407072	0.373343
H81	H	1.719539	-0.452428	0.379237
H82	H	1.556429	-0.447933	0.245236
H83	H	1.636181	-0.493288	0.251092
H84	H	1.763665	-0.438540	0.208850
H85	H	1.683897	-0.393186	0.202966
H86	H	1.678071	-0.438677	0.123382
H87	H	1.455748	-0.278964	0.936665
H88	H	1.631318	-0.549909	0.382263
H89	H	1.698288	-0.702024	0.315525
H90	H	1.631599	-0.953205	0.382344
H91	H	1.389013	-1.052294	0.624654
C92	C	0.891122	-0.319905	0.639348
C93	C	0.828543	-0.290315	0.706403
C94	C	0.773787	-0.323677	0.773228
H95	H	0.848414	-0.342657	0.599381
H96	H	0.939144	-0.339851	0.679178
H97	H	0.780526	-0.270378	0.666578
H98	H	0.871224	-0.267564	0.746393
H99	H	0.821810	-0.343624	0.813057
H100	H	0.731086	-0.346428	0.733252
H101	H	0.731329	-0.303605	0.818738
C102	C	1.370969	-0.945806	0.642897
C103	C	1.430071	-0.914414	0.709951
C104	C	1.363359	-0.887098	0.776873
H105	H	1.325421	-0.924500	0.603000
H106	H	1.331181	-0.969880	0.682722
H107	H	1.469841	-0.890343	0.670130
H108	H	1.475616	-0.935707	0.749870
H109	H	1.323572	-0.911171	0.816698
H110	H	1.317815	-0.865795	0.736968
H111	H	1.403451	-0.865799	0.822383
C112	C	1.649871	-1.059771	0.364449
C113	C	1.635645	-1.113434	0.378819
C114	C	1.702614	-1.140839	0.312299
H115	H	1.634763	-1.050945	0.294145
H116	H	1.720064	-1.050790	0.379897
H117	H	1.565468	-1.122411	0.363364
H118	H	1.650760	-1.122276	0.449109
H119	H	1.772807	-1.131858	0.327748
H120	H	1.687501	-1.132009	0.242000
H121	H	1.692978	-1.177252	0.322047
H122	H	0.943309	-0.224621	0.449159
H123	H	1.321993	-0.801120	0.691405
C124	C	1.303674	-0.694753	0.709555
C125	C	1.245130	-0.730361	0.768022
C126	C	1.178111	-0.703176	0.834850
H127	H	1.343496	-0.673413	0.755209
H128	H	1.258085	-0.673501	0.669566
H129	H	1.290713	-0.751604	0.808009
H130	H	1.205287	-0.751702	0.722397
H131	H	1.132522	-0.681924	0.794861
H132	H	1.217941	-0.681837	0.880496
H133	H	1.138374	-0.727332	0.874521
H134	H	1.455792	-0.278945	1.071210
H135	H	1.388665	-0.549957	0.624562
C136	C	1.370549	-0.443389	0.642616
C137	C	1.384852	-0.389725	0.628323
C138	C	1.318100	-0.362320	0.695060
H139	H	1.300304	-0.452312	0.627338
H140	H	1.385828	-0.452272	0.712867
H141	H	1.369567	-0.380846	0.558088
H142	H	1.455084	-0.380786	0.643608
H143	H	1.333379	-0.371203	0.765312
H144	H	1.247859	-0.371248	0.679777
H145	H	1.327802	-0.325907	0.685379
H146	H	1.628191	-0.192759	1.108550
