data_functionalizedCrystal
_audit_creation_method	'MofGen! by Chris Wilmer'
_symmetry_space_group_name_H-M	'P1'
_symmetry_Int_Tables_number	1
_symmetry_cell_setting	triclinic
loop_
_symmetry_equiv_pos_as_xyz
  x,y,z
_cell_length_a	12.594516
_cell_length_b	11.169417
_cell_length_c	11.169409
_cell_angle_alpha	89.981053
_cell_angle_beta	89.966970
_cell_angle_gamma	90.014400
loop_
_atom_site_label
_atom_site_type_symbol
_atom_site_fract_x
_atom_site_fract_y
_atom_site_fract_z
Zn1	Zn	-0.423583	1.834950	-0.678509
Zn2	Zn	-0.601609	1.834834	-0.477823
Zn3	Zn	-0.423653	1.634236	-0.477846
Zn4	Zn	-0.601527	1.634238	-0.678471
O5	O	-0.512593	1.734565	-0.578162
O6	O	-0.447203	2.002884	-0.651894
O7	O	-0.578066	1.808175	-0.309877
O8	O	-0.274698	1.660909	-0.504490
O9	O	-0.577998	2.002799	-0.504451
O10	O	-0.274646	1.808372	-0.651916
O11	O	-0.447322	1.660796	-0.309893
O12	O	-0.447243	1.466287	-0.504454
O13	O	-0.577859	1.660912	-0.846426
O14	O	-0.577927	1.466288	-0.651852
O15	O	-0.447124	1.808375	-0.846454
O16	O	-0.750544	1.808177	-0.504414
O17	O	-0.750484	1.660800	-0.651830
C18	C	-0.512585	1.422740	-0.578152
C19	C	-0.512607	1.289340	-0.578176
C20	C	-0.789134	1.734509	-0.578142
C21	C	-0.907439	1.734595	-0.578173
C22	C	-0.512475	1.734657	-0.891205
C23	C	-0.512424	1.734696	-1.024605
C24	C	-0.976686	1.814846	-0.498079
C25	C	-1.047373	1.844180	-0.607622
C26	C	-1.047552	1.705412	-0.468700
C27	C	-0.976568	1.763984	-0.687773
C28	C	-0.976740	1.625165	-0.548777
C29	C	-1.047395	1.654457	-0.658395
C30	C	-0.234972	1.734653	-0.578210
C31	C	-0.116667	1.734691	-0.578230
C32	C	-0.512602	2.047607	-0.578174
C33	C	-0.512605	2.181007	-0.578179
C34	C	-0.512634	1.734542	-0.266338
C35	C	-0.512384	1.734735	-0.132938
H36	H	-0.945638	1.882723	-0.430408
O37	O	-1.084349	1.954700	-0.637126
C38	C	-1.048310	2.038996	-0.552449
H39	H	-1.028536	1.991304	-0.465012
H40	H	-1.113054	2.108315	-0.535698
H41	H	-0.974200	2.085534	-0.588162
H42	H	-1.078246	1.586632	-0.726231
O43	O	-0.939361	1.793647	-0.798196
C44	C	-0.827420	1.793257	-0.796826
H45	H	-0.798180	1.806641	-0.701189
H46	H	-0.796422	1.868922	-0.855793
H47	H	-0.797140	1.703898	-0.832389
O48	O	-1.084799	1.676116	-0.358196
C49	C	-1.147936	1.770447	-0.313864
H50	H	-1.124805	1.857487	-0.360403
H51	H	-1.134864	1.779858	-0.213320
H52	H	-1.235190	1.750276	-0.332020
O53	O	-0.939508	1.514804	-0.519118
C54	C	-0.827572	1.516055	-0.520556
H55	H	-0.798626	1.591894	-0.580609
H56	H	-0.796975	1.426984	-0.556488
H57	H	-0.796598	1.530295	-0.425736
