data_functionalizedCrystal
_audit_creation_method	'MofGen! by Chris Wilmer'
_symmetry_space_group_name_H-M	'P1'
_symmetry_Int_Tables_number	1
_symmetry_cell_setting	triclinic
loop_
_symmetry_equiv_pos_as_xyz
  x,y,z
_cell_length_a	17.000383
_cell_length_b	16.992694
_cell_length_c	16.053802
_cell_angle_alpha	92.750953
_cell_angle_beta	92.361483
_cell_angle_gamma	96.865737
loop_
_atom_site_label
_atom_site_type_symbol
_atom_site_fract_x
_atom_site_fract_y
_atom_site_fract_z
O1	O	0.164913	-1.032326	-0.069323
O2	O	0.163068	-0.804169	-0.069347
O3	O	0.049025	-0.932413	-0.069330
O4	O	0.278955	-0.904082	-0.069340
O5	O	0.055275	-0.925356	0.069528
O6	O	0.169318	-0.797112	0.069511
O7	O	0.171162	-1.025269	0.069535
Zn8	Zn	0.171232	-0.910070	0.091570
Zn9	Zn	0.162998	-0.919367	-0.091382
O10	O	0.285205	-0.897025	0.069518
C11	C	0.163821	-0.771591	0.000079
C12	C	0.156745	-0.685035	0.000069
C13	C	0.022593	-0.930406	0.000098
C14	C	-0.065477	-0.934930	0.000096
C15	C	0.170409	-1.057846	0.000108
C16	C	0.177485	-1.144402	0.000112
C17	C	-0.563836	-0.964146	0.000096
C18	C	-0.481084	-0.959888	0.000100
C19	C	-0.434790	-0.885991	0.000088
C20	C	-0.471252	-0.816347	0.000080
C21	C	-0.554003	-0.820605	0.000082
C22	C	-0.184690	-0.869544	0.000089
C23	C	-0.101934	-0.865291	0.000085
C24	C	-0.111772	-1.008833	0.000107
C25	C	-0.194523	-1.013085	0.000103
C26	C	-0.230978	-0.943441	0.000099
C27	C	-0.350204	-0.881638	0.000091
C28	C	-0.315563	-0.947795	0.000103
C29	C	0.311637	-0.899031	0.000088
C30	C	0.399707	-0.894507	0.000085
N31	N	0.176852	-0.903730	0.216429
C32	C	0.225017	-0.630088	0.000067
C33	C	0.218364	-0.548760	0.000079
C34	C	0.143438	-0.522380	0.000087
C35	C	0.075161	-0.577334	0.000092
C36	C	0.081815	-0.658660	0.000086
C37	C	0.115861	-0.280682	0.000110
C38	C	0.109213	-0.199349	0.000114
C39	C	0.252417	-0.170781	0.000103
C40	C	0.259063	-0.252110	0.000092
C41	C	0.190786	-0.307057	0.000101
N42	N	0.136636	-0.439250	0.000096
N43	N	0.197589	-0.390185	0.000097
N44	N	0.157373	-0.925714	-0.216241
C45	C	0.128346	-0.958315	0.260131
C46	C	0.132285	-0.953887	0.347537
C47	C	0.184734	-0.894877	0.391240
C48	C	0.233241	-0.840286	0.347533
C49	C	0.229298	-0.844711	0.260128
C50	C	0.201937	-0.875548	0.652647
C51	C	0.205878	-0.871129	0.740058
C52	C	0.104920	-0.984730	0.740056
C53	C	0.100985	-0.989152	0.652649
C54	C	0.149489	-0.934559	0.608950
N55	N	0.188763	-0.890350	0.480583
N56	N	0.145455	-0.939082	0.519608
H57	H	-0.601523	-1.024321	0.000098
Br58	Br	0.029807	-1.069241	0.593336
Br59	Br	-0.287370	-0.781352	0.000071
Br60	Br	0.007522	-0.163548	0.000142
H61	H	0.065429	-1.029176	0.775644
H62	H	0.320075	-0.273582	0.000076
H63	H	-0.451405	-1.016596	0.000110
H64	H	0.248592	-0.823073	0.775637
Br65	Br	-0.026525	-0.541533	0.000111
H66	H	-0.232211	-1.073260	0.000116
H67	H	-0.082081	-1.065534	0.000103
Br68	Br	0.267764	-0.801461	0.593345
Br69	Br	-0.408425	-0.716057	0.000071
H70	H	-0.064243	-0.805112	0.000078
H71	H	-0.214362	-0.812835	0.000076
Br72	Br	0.023199	-0.355242	0.000125
H73	H	0.026220	-0.703398	0.000087
Br74	Br	0.057167	-1.038410	0.200828
Br75	Br	-0.603480	-0.726091	0.000076
Br76	Br	0.304418	-0.760193	0.406841
Br77	Br	-0.378390	-1.048080	0.000128
H78	H	0.268795	-0.800261	0.224547
Br79	Br	0.326707	-0.665881	0.000048
H80	H	0.308004	-0.126035	0.000097
H81	H	0.273959	-0.504024	0.000076
H82	H	0.092787	-0.998334	0.383118
