data_functionalizedCrystal
_audit_creation_method	'MofGen! by Chris Wilmer'
_symmetry_space_group_name_H-M	'P1'
_symmetry_Int_Tables_number	1
_symmetry_cell_setting	triclinic
loop_
_symmetry_equiv_pos_as_xyz
  x,y,z
_cell_length_a	9.065218
_cell_length_b	10.268362
_cell_length_c	9.065218
_cell_angle_alpha	89.996569
_cell_angle_beta	85.015919
_cell_angle_gamma	89.993259
loop_
_atom_site_label
_atom_site_type_symbol
_atom_site_fract_x
_atom_site_fract_y
_atom_site_fract_z
O1	O	-1.960401	0.108361	-0.216359
O2	O	-1.627068	0.441694	0.116974
O3	O	-1.293735	0.775028	0.450308
O4	O	-1.531117	0.108349	-0.234105
O5	O	-1.197783	0.441682	0.099228
O6	O	-0.864450	0.775015	0.432561
O7	O	-1.754632	0.108352	-0.010590
O8	O	-1.421299	0.441686	0.322744
O9	O	-1.087966	0.775019	0.656077
O10	O	-1.736886	0.108357	-0.439875
O11	O	-1.403553	0.441691	-0.106541
O12	O	-1.070219	0.775024	0.226792
O13	O	-1.754613	-0.108248	-0.010580
O14	O	-1.421279	0.225085	0.322753
O15	O	-1.087946	0.558419	0.656086
O16	O	-1.531097	-0.108252	-0.234096
O17	O	-1.197764	0.225081	0.099238
O18	O	-0.864430	0.558415	0.432571
O19	O	-1.960382	-0.108240	-0.216350
O20	O	-1.627048	0.225094	0.116984
O21	O	-1.293715	0.558427	0.450317
Cu22	Cu	-1.745737	-0.128023	-0.225222
Cu23	Cu	-1.412404	0.205310	0.108112
Cu24	Cu	-1.079071	0.538644	0.441445
Cu25	Cu	-1.745761	0.128132	-0.225233
Cu26	Cu	-1.412428	0.461466	0.108100
Cu27	Cu	-1.079094	0.794799	0.441434
O28	O	-1.736866	-0.108243	-0.439865
O29	O	-1.403533	0.225090	-0.106532
O30	O	-1.070199	0.558423	0.226802
C31	C	-1.476120	0.000047	-0.232395
C32	C	-1.142787	0.333380	0.100938
C33	C	-0.809454	0.666713	0.434272
C34	C	-1.312277	0.000042	-0.227295
C35	C	-0.978944	0.333375	0.106038
C36	C	-0.645611	0.666709	0.439371
N37	N	-1.745732	-0.308189	-0.225213
N38	N	-1.412398	0.025144	0.108120
N39	N	-1.079065	0.358478	0.441454
C40	C	-1.745753	-0.573860	-0.225230
C41	C	-1.412420	-0.240526	0.108103
C42	C	-1.079087	0.092807	0.441437
C43	C	-1.745737	-0.426022	-0.225225
C44	C	-1.412403	-0.092688	0.108108
C45	C	-1.079070	0.240645	0.441442
C46	C	-1.015378	0.000057	-0.218060
C47	C	-0.682045	0.333390	0.115274
C48	C	-0.348712	0.666724	0.448607
C49	C	-1.179221	0.000046	-0.223159
C50	C	-0.845888	0.333379	0.110174
C51	C	-0.512554	0.666713	0.443508
C52	C	-1.752917	0.000054	0.044402
C53	C	-1.419584	0.333388	0.377735
C54	C	-1.086250	0.666721	0.711068
C55	C	-1.747817	0.000060	0.208244
C56	C	-1.414484	0.333394	0.541578
C57	C	-1.081151	0.666727	0.874911
N58	N	-1.745778	0.308298	-0.225230
N59	N	-1.412445	0.641631	0.108103
N60	N	-1.079111	0.974965	0.441436
C61	C	-1.738581	0.000058	-0.494856
C62	C	-1.405248	0.333391	-0.161523
C63	C	-1.071915	0.666724	0.171810
C64	C	-1.743681	0.000060	-0.658699
C65	C	-1.410348	0.333394	-0.325366
C66	C	-1.077015	0.666727	0.007967
