data_functionalizedCrystal
_audit_creation_method	'MofGen! by Chris Wilmer'
_symmetry_space_group_name_H-M	'P1'
_symmetry_Int_Tables_number	1
_symmetry_cell_setting	triclinic
loop_
_symmetry_equiv_pos_as_xyz
  x,y,z
_cell_length_a	14.971486
_cell_length_b	17.699083
_cell_length_c	14.048226
_cell_angle_alpha	89.992674
_cell_angle_beta	89.998499
_cell_angle_gamma	83.448572
loop_
_atom_site_label
_atom_site_type_symbol
_atom_site_fract_x
_atom_site_fract_y
_atom_site_fract_z
O1	O	1.186608	0.098633	-0.079053
O2	O	0.926167	0.110445	-0.079079
O3	O	1.063746	-0.005632	-0.079057
O4	O	1.049030	0.214710	-0.079075
O5	O	1.063729	-0.005639	0.079264
O6	O	0.926151	0.110438	0.079242
O7	O	1.186591	0.098626	0.079268
Zn8	Zn	1.056368	0.104531	0.104392
Zn9	Zn	1.056390	0.104540	-0.104203
O10	O	1.049013	0.214703	0.079246
C11	C	0.892836	0.109913	0.000078
C12	C	0.793544	0.108330	0.000068
C13	C	0.736085	0.176522	0.000064
C14	C	0.642790	0.175030	0.000078
C15	C	0.606958	0.105346	0.000090
C16	C	0.664425	0.037148	0.000097
C17	C	0.757717	0.038641	0.000090
C18	C	0.469973	0.034042	0.000111
C19	C	0.376674	0.032549	0.000117
C20	C	0.355046	0.170431	0.000099
C21	C	0.448339	0.171924	0.000092
C22	C	0.505799	0.103726	0.000097
C23	C	1.063210	-0.033834	0.000104
C24	C	1.061628	-0.117856	0.000104
C25	C	1.142384	-0.166278	0.000113
C26	C	1.140892	-0.245225	0.000105
C27	C	1.058644	-0.275748	0.000094
C28	C	0.977882	-0.227320	0.000081
C29	C	0.979375	-0.148374	0.000083
C30	C	0.971860	-0.545698	0.000073
C31	C	0.970374	-0.624649	0.000074
C32	C	1.133378	-0.642548	0.000095
C33	C	1.134871	-0.563603	0.000096
C34	C	1.054109	-0.515181	0.000079
C35	C	1.055728	-0.429578	0.000087
C36	C	1.057024	-0.361350	0.000093
C37	C	1.219923	0.099158	0.000109
C38	C	1.319214	0.100741	0.000112
C39	C	1.049549	0.242905	0.000083
C40	C	1.051131	0.326927	0.000077
N41	N	1.056360	0.104524	0.246753
N42	N	1.056406	0.104541	-0.246564
C43	C	1.117299	0.053147	0.296581
C44	C	1.117305	0.053146	0.396238
C45	C	1.056376	0.104528	0.446066
C46	C	0.995431	0.155908	0.396231
C47	C	0.995421	0.155904	0.296576
C48	C	0.995456	0.155913	0.603946
C49	C	0.995467	0.155918	0.703608
C50	C	1.117340	0.053156	0.703608
C51	C	1.117331	0.053152	0.603953
C52	C	1.056386	0.104533	0.554125
H53	H	0.804501	-0.016888	0.000093
H54	H	0.945816	0.197741	0.436807
H55	H	0.913615	-0.108949	0.000075
C56	C	0.337254	-0.044100	0.000143
H57	H	0.273463	-0.035219	0.000137
H58	H	0.356987	-0.072178	0.055360
H59	H	0.356983	-0.072187	-0.055067
C60	C	1.229721	-0.298490	0.000106
H61	H	1.217055	-0.349878	0.000088
H62	H	1.263454	-0.289242	0.055318
H63	H	1.263452	-0.289217	-0.055110
H64	H	0.945797	0.197740	0.256007
C65	C	0.883029	-0.492441	0.000053
H66	H	0.895692	-0.441051	0.000043
H67	H	0.849285	-0.501704	0.055257
H68	H	0.849311	-0.501702	-0.055170
C69	C	0.928444	0.212431	0.758422
H70	H	0.937188	0.205078	0.824909
H71	H	0.868769	0.204123	0.742106
H72	H	0.938041	0.262962	0.742078
C73	C	1.232858	-0.132709	0.000126
H74	H	1.280739	-0.172858	0.000121
H75	H	1.236826	-0.102290	0.055336
H76	H	1.236834	-0.102281	-0.055091
H77	H	1.166948	0.011317	0.563383
C78	C	0.775493	0.253176	0.000051
H79	H	0.727906	0.293575	0.000059
H80	H	0.811434	0.256629	-0.055162
H81	H	0.811438	0.256622	0.055265
C82	C	0.579588	0.250041	0.000071
H83	H	0.614291	0.291756	0.000051
H84	H	0.542749	0.252327	0.055284
H85	H	0.542742	0.252325	-0.055143
H86	H	1.166963	0.011319	0.744184
H87	H	1.199138	-0.681983	0.000104
H88	H	0.308257	0.225960	0.000099
H89	H	0.477510	0.228667	0.000073
C90	C	0.928423	0.212435	0.549137
H91	H	0.892144	0.243043	0.593084
H92	H	0.891247	0.185159	0.510269
H93	H	0.960533	0.243986	0.510253
C94	C	0.879897	-0.658223	0.000049
H95	H	0.832011	-0.618079	0.000028
H96	H	0.875914	-0.688654	0.055257
H97	H	0.875945	-0.688642	-0.055170
H98	H	0.516756	-0.021492	0.000117
C99	C	1.225343	-0.530031	0.000105
H100	H	1.273226	-0.570178	0.000100
H101	H	1.229311	-0.499610	0.055313
H102	H	1.229314	-0.499603	-0.055114
H103	H	0.910914	-0.252178	0.000066
C104	C	0.625015	-0.039505	0.000109
H105	H	0.672601	-0.079904	0.000119
H106	H	0.589070	-0.042952	-0.055098
H107	H	0.589074	-0.042955	0.055329
H108	H	1.166918	0.011309	0.256017
C109	C	1.184346	-0.003362	0.451045
H110	H	1.220641	-0.033955	0.407096
H111	H	1.152256	-0.034918	0.489935
H112	H	1.221518	0.023930	0.489906
