data_functionalizedCrystal
_audit_creation_method	'MofGen! by Chris Wilmer'
_symmetry_space_group_name_H-M	'P1'
_symmetry_Int_Tables_number	1
_symmetry_cell_setting	triclinic
loop_
_symmetry_equiv_pos_as_xyz
  x,y,z
_cell_length_a	16.959455
_cell_length_b	25.639239
_cell_length_c	16.959447
_cell_angle_alpha	89.966924
_cell_angle_beta	89.985678
_cell_angle_gamma	90.035633
loop_
_atom_site_label
_atom_site_type_symbol
_atom_site_fract_x
_atom_site_fract_y
_atom_site_fract_z
Zn1	Zn	1.208282	-0.208183	-0.446894
Zn2	Zn	1.208161	-0.295624	-0.314709
Zn3	Zn	1.076110	-0.208199	-0.314731
Zn4	Zn	1.076032	-0.295585	-0.446847
O5	O	1.142146	-0.251898	-0.380795
O6	O	1.318876	-0.219792	-0.429369
O7	O	1.190627	-0.284050	-0.204101
O8	O	1.093726	-0.135032	-0.332291
O9	O	1.318788	-0.284034	-0.332253
O10	O	1.190832	-0.135020	-0.429391
O11	O	1.093609	-0.219820	-0.204117
O12	O	0.965489	-0.219782	-0.332247
O13	O	1.093593	-0.283967	-0.557464
O14	O	0.965431	-0.283983	-0.429312
O15	O	1.190756	-0.219754	-0.557498
O16	O	1.190551	-0.368784	-0.332208
O17	O	1.093476	-0.368755	-0.429290
C18	C	0.936780	-0.251880	-0.380777
C19	C	0.848923	-0.251886	-0.380788
C20	C	1.142013	-0.387740	-0.380759
C21	C	1.142029	-0.445854	-0.380770
C22	C	0.477453	-0.218441	-0.330359
C23	C	0.477442	-0.285398	-0.431277
C24	C	0.559988	-0.285390	-0.431272
C25	C	0.601270	-0.251908	-0.380809
C26	C	0.560007	-0.218433	-0.330351
C27	C	0.601258	-0.318868	-0.481723
C28	C	0.683809	-0.318863	-0.481720
C29	C	0.725092	-0.285377	-0.431260
C30	C	0.683824	-0.251901	-0.380801
C31	C	0.725106	-0.218418	-0.330338
C32	C	0.683839	-0.184939	-0.279882
C33	C	0.601290	-0.184948	-0.279891
C34	C	0.807641	-0.285368	-0.431251
C35	C	0.807660	-0.218411	-0.330330
C36	C	1.192825	-0.806220	-0.330331
C37	C	1.192855	-0.860824	-0.330341
O38	O	1.235906	-0.889063	-0.287417
N39	N	1.142285	-0.888137	-0.380847
C40	C	1.091686	-0.860842	-0.431352
O41	O	1.048675	-0.889088	-0.474313
C42	C	1.091660	-0.806239	-0.431345
C43	C	1.142228	-0.778929	-0.380830
C44	C	1.243389	-0.778910	-0.279820
C45	C	1.243358	-0.724309	-0.279809
C46	C	1.192761	-0.697019	-0.330308
C47	C	1.142196	-0.724329	-0.380818
C48	C	1.041066	-0.778946	-0.481853
C49	C	1.041045	-0.724339	-0.481842
C50	C	1.091613	-0.697029	-0.431326
C51	C	1.091568	-0.642437	-0.431306
N52	N	1.142139	-0.615125	-0.380800
C53	C	1.192735	-0.642415	-0.330301
C54	C	1.091746	-0.975513	-0.431364
C55	C	1.091767	-1.030115	-0.431368
C56	C	1.192938	-1.030093	-0.330358
C57	C	1.192912	-0.975490	-0.330351
C58	C	1.142316	-0.948200	-0.380858
C59	C	1.192664	-0.527750	-0.330280
C60	C	1.192625	-0.473145	-0.330271
C61	C	1.091458	-0.473172	-0.431283
C62	C	1.091493	-0.527772	-0.431290
C63	C	1.142103	-0.555060	-0.380786
O64	O	1.048541	-0.614164	-0.474211
O65	O	1.235746	-0.614163	-0.287355
C66	C	1.348314	-0.251915	-0.380814
C67	C	1.436171	-0.251923	-0.380822
C68	C	1.142179	-0.251854	-0.586963
C69	C	1.142193	-0.251836	-0.674820
C70	C	1.142301	-0.115525	-0.380849
C71	C	1.142367	-0.057411	-0.380872
C72	C	1.091699	-0.285214	-1.046281
C73	C	1.192876	-0.218348	-1.046311
C74	C	1.192855	-0.218359	-0.963765
C75	C	1.142256	-0.251799	-0.922473
C76	C	1.091678	-0.285227	-0.963727
C77	C	1.243438	-0.184935	-0.922505
C78	C	1.243419	-0.184945	-0.839954
C79	C	1.192816	-0.218382	-0.798661
C80	C	1.142235	-0.251812	-0.839920
C81	C	1.091636	-0.285251	-0.798628
C82	C	1.041051	-0.318679	-0.839885
C83	C	1.041074	-0.318665	-0.922433
C84	C	1.192792	-0.218396	-0.716112
C85	C	1.091615	-0.285265	-0.716074
C86	C	1.142159	-0.251903	-0.175429
C87	C	1.142298	-0.251774	-0.087573
H88	H	0.841266	-0.191142	-0.289241
O89	O	0.561280	-0.351432	-0.530776
C90	C	0.615402	-0.380966	-0.575327
H91	H	0.674229	-0.382759	-0.542934
H92	H	0.591511	-0.422165	-0.583668
H93	H	0.624229	-0.361858	-0.635401
H94	H	0.717401	-0.346123	-0.522805
H95	H	1.233876	-0.549962	-0.289157
H96	H	1.050538	-0.953296	-0.472491
H97	H	1.050319	-0.550009	-0.472426
O98	O	1.241954	-0.185886	-1.086541
C99	C	1.231146	-0.193055	-1.168247
H100	H	1.170128	-0.210170	-1.179514
H101	H	1.236563	-0.153889	-1.199645
H102	H	1.278004	-0.220900	-1.191653
O103	O	1.292672	-0.805421	-0.230898
C104	C	1.343705	-0.836942	-0.275976
H105	H	1.348469	-0.820464	-0.338243
H106	H	1.404576	-0.837495	-0.247490
H107	H	1.319337	-0.878353	-0.278647
O108	O	0.847693	-0.317830	-0.480370
C109	C	0.827540	-0.306482	-0.559183
H110	H	0.804876	-0.264719	-0.563294
H111	H	0.881837	-0.311012	-0.598217
H112	H	0.779612	-0.334537	-0.579768
O113	O	0.437408	-0.185846	-0.281431
C114	C	0.457646	-0.133750	-0.298834
H115	H	0.480362	-0.131161	-0.361985
H116	H	0.403378	-0.107915	-0.292100
H117	H	0.505560	-0.120047	-0.256489
H118	H	1.233804	-0.450911	-0.289133
H119	H	0.443825	-0.312661	-0.472356
H120	H	1.284537	-0.702077	-0.238678
H121	H	1.284638	-0.157713	-0.956131
H122	H	1.050511	-0.312428	-1.079876
O123	O	0.991921	-0.805385	-0.531001
C124	C	0.947255	-0.769578	-0.575554
H125	H	0.979616	-0.730635	-0.578299
H126	H	0.938796	-0.785324	-0.637831
H127	H	0.887236	-0.763821	-0.546559
H128	H	1.234089	-0.953257	-0.289218
O129	O	1.242012	-1.056604	-0.281218
C130	C	1.224834	-1.043330	-0.202400
H131	H	1.161693	-1.028348	-0.198309
H132	H	1.231682	-1.079273	-0.163403
H133	H	1.267236	-1.011638	-0.181755
H134	H	1.050403	-0.312491	-0.682460
H135	H	1.050582	-1.052346	-0.472495
H136	H	0.999845	-0.702122	-0.522973
H137	H	0.567683	-0.157691	-0.238812
H138	H	1.284608	-0.157726	-0.806369
H139	H	0.999857	-0.345907	-0.806254
H140	H	0.999893	-0.345881	-0.956033
H141	H	1.233980	-0.191182	-0.682524
O142	O	0.724033	-0.152489	-0.230823
C143	C	0.771722	-0.182216	-0.179674
H144	H	0.784057	-0.221862	-0.207442
H145	H	0.829789	-0.160913	-0.169137
H146	H	0.739885	-0.187911	-0.121083
O147	O	1.042428	-0.446631	-0.480422
C148	C	1.087395	-0.414985	-0.531484
H149	H	1.149651	-0.431405	-0.536419
H150	H	1.058776	-0.414348	-0.592292
H151	H	1.090120	-0.373614	-0.507032
