data_functionalizedCrystal
_audit_creation_method	'MofGen! by Chris Wilmer'
_symmetry_space_group_name_H-M	'P1'
_symmetry_Int_Tables_number	1
_symmetry_cell_setting	triclinic
loop_
_symmetry_equiv_pos_as_xyz
  x,y,z
_cell_length_a	17.077404
_cell_length_b	12.759394
_cell_length_c	17.077396
_cell_angle_alpha	90.026316
_cell_angle_beta	90.019501
_cell_angle_gamma	90.015062
loop_
_atom_site_label
_atom_site_type_symbol
_atom_site_fract_x
_atom_site_fract_y
_atom_site_fract_z
Zn1	Zn	1.200099	-0.418260	0.443855
Zn2	Zn	1.200024	-0.593961	0.312593
Zn3	Zn	1.068830	-0.418297	0.312602
Zn4	Zn	1.068817	-0.593898	0.443817
O5	O	1.134442	-0.506104	0.378217
O6	O	1.309936	-0.441578	0.426454
O7	O	1.182595	-0.570700	0.202748
O8	O	1.086280	-0.271271	0.330033
O9	O	1.309881	-0.570664	0.330017
O10	O	1.182722	-0.271244	0.426463
O11	O	1.086208	-0.441641	0.202754
O12	O	0.958982	-0.441580	0.329996
O13	O	1.086257	-0.570558	0.553669
O14	O	0.958972	-0.570594	0.426399
O15	O	1.182709	-0.441517	0.553697
O16	O	1.182582	-0.740974	0.329981
O17	O	1.086185	-0.740928	0.426391
C18	C	0.930495	-0.506085	0.378195
C19	C	0.843245	-0.506102	0.378205
C20	C	0.802270	-0.573381	0.428321
C21	C	0.720290	-0.573383	0.428334
C22	C	0.679285	-0.506111	0.378225
C23	C	0.720266	-0.438825	0.328107
C24	C	0.802245	-0.438818	0.328099
C25	C	0.549396	-0.438846	0.328125
C26	C	0.467411	-0.438854	0.328132
C27	C	0.467441	-0.573411	0.428360
C28	C	0.549419	-0.573404	0.428352
C29	C	0.590394	-0.506119	0.378233
C30	C	1.134395	-0.779072	0.378198
C31	C	1.134447	-0.895848	0.378216
C32	C	1.234901	-0.895843	0.277900
C33	C	1.285148	-0.950701	0.227751
C34	C	1.285194	-1.060422	0.227773
C35	C	1.234989	-1.115288	0.277950
C36	C	1.184742	-1.060430	0.328099
C37	C	1.184700	-0.950706	0.328070
C38	C	1.084293	-1.060436	0.428417
C39	C	1.084242	-0.950714	0.428393
C40	C	1.034088	-1.115302	0.478594
C41	C	0.983835	-1.060444	0.528740
C42	C	0.983791	-0.950716	0.528716
C43	C	1.033994	-0.895856	0.478542
C44	C	1.339187	-0.506124	0.378239
C45	C	1.426436	-0.506132	0.378249
C46	C	1.134490	-0.506027	0.582961
C47	C	1.134510	-0.505994	0.670211
C48	C	1.134511	-0.232071	0.378253
C49	C	1.134540	-0.115294	0.378269
C50	C	1.134440	-0.506105	0.174269
C51	C	1.134572	-0.505842	0.087020
C52	C	1.184735	-0.438797	0.711217
C53	C	1.184744	-0.438762	0.793197
C54	C	1.134532	-0.505930	0.834171
C55	C	1.084302	-0.573130	0.793159
C56	C	1.084290	-0.573159	0.711180
C57	C	1.084334	-0.573067	0.964029
C58	C	1.084348	-0.573039	1.046014
C59	C	1.184788	-0.438670	1.046047
C60	C	1.184776	-0.438699	0.964068
C61	C	1.134546	-0.505900	0.923062
H62	H	0.434028	-0.384062	0.287339
C63	C	1.240036	-0.364740	1.091151
C64	C	1.233662	-0.245308	1.079891
C65	C	1.288909	-0.171385	1.125001
C66	C	1.350529	-0.216895	1.181371
C67	C	1.356905	-0.336333	1.192634
C68	C	1.301658	-0.410256	1.147524
H69	H	1.188045	-0.211613	1.038160
H70	H	1.284188	-0.082969	1.116663
H71	H	1.391426	-0.162172	1.214764
H72	H	1.402522	-0.370027	1.234364
H73	H	1.306379	-0.498672	1.155862
C74	C	0.594524	-0.647404	0.483472
C75	C	0.583235	-0.766830	0.476915
C76	C	0.628339	-0.840829	0.532037
C77	C	0.684733	-0.795401	0.593716
C78	C	0.696025	-0.675968	0.600275
C79	C	0.650921	-0.601969	0.545153
H80	H	0.541486	-0.800465	0.431255
H81	H	0.619979	-0.929241	0.527181
H82	H	0.718122	-0.850179	0.634520
H83	H	0.737774	-0.642333	0.645935
H84	H	0.659281	-0.513557	0.550009
C85	C	0.928617	-1.120796	0.583932
C86	C	0.928674	-1.241486	0.583964
C87	C	0.873455	-1.301842	0.639157
C88	C	0.818180	-1.241508	0.694318
C89	C	0.818121	-1.120811	0.694289
C90	C	0.873340	-1.060455	0.639096
H91	H	0.969593	-1.286155	0.543128
H92	H	0.873498	-1.391190	0.639178
H93	H	0.777303	-1.286187	0.735175
H94	H	0.777201	-1.076143	0.735124
H95	H	0.873297	-0.971107	0.639074
C96	C	1.239969	-0.364909	0.666150
C97	C	1.233592	-0.245469	0.677437
C98	C	1.288826	-0.171576	0.632372
C99	C	1.350437	-0.217124	0.576020
C100	C	1.356816	-0.336571	0.564730
C101	C	1.301582	-0.410463	0.609795
H102	H	1.187982	-0.211746	0.719154
H103	H	1.284103	-0.083154	0.640730
H104	H	1.391324	-0.162425	0.542660
H105	H	1.402426	-0.370294	0.523013
H106	H	1.306305	-0.498886	0.601437
C107	C	0.847370	-0.647382	0.483443
C108	C	0.903763	-0.601957	0.545124
C109	C	0.948861	-0.675958	0.600249
C110	C	0.937565	-0.795384	0.593694
C111	C	0.881170	-0.840815	0.532011
C112	C	0.836072	-0.766814	0.476885
H113	H	0.912127	-0.513545	0.549978
H114	H	0.990609	-0.642326	0.645911
H115	H	0.970949	-0.850164	0.634502
H116	H	0.872806	-0.929227	0.527156
H117	H	0.794324	-0.800446	0.431223
C118	C	0.422372	-0.647426	0.483494
C119	C	0.332199	-0.647436	0.483510
C120	C	0.287127	-0.721454	0.538637
C121	C	0.332228	-0.795462	0.593748
C122	C	0.422407	-0.795454	0.593734
C123	C	0.467479	-0.721436	0.538607
H124	H	0.298807	-0.592649	0.442712
H125	H	0.220370	-0.721460	0.538647
H126	H	0.298863	-0.850254	0.634556
H127	H	0.455798	-0.850241	0.634532
H128	H	0.534235	-0.721430	0.538597
H129	H	1.033958	-0.806515	0.478512
H130	H	0.686931	-0.628169	0.469143
C131	C	0.594473	-0.364830	0.272998
C132	C	0.583223	-0.245406	0.279560
C133	C	0.628303	-0.171396	0.224434
C134	C	0.684633	-0.216809	0.162746
C135	C	0.695886	-0.336240	0.156181
C136	C	0.650806	-0.410250	0.211307
H137	H	0.541522	-0.211783	0.325228
H138	H	0.619973	-0.082985	0.229294
H139	H	0.718003	-0.162022	0.121938
H140	H	0.737586	-0.369863	0.110513
H141	H	0.659136	-0.498661	0.206447
H142	H	1.043384	-0.627867	0.677794
H143	H	1.235038	-1.204629	0.277970
C144	C	1.239993	-0.364841	0.838300
C145	C	1.329226	-0.373433	0.827044
C146	C	1.384477	-0.299505	0.872145
C147	C	1.350494	-0.216986	0.928501
C148	C	1.261257	-0.208391	0.939759
C149	C	1.206007	-0.282318	0.894659
H150	H	1.354386	-0.434522	0.785324
H151	H	1.450536	-0.305868	0.863810
H152	H	1.391394	-0.162260	0.961887
H153	H	1.236098	-0.147302	0.981480
H154	H	1.139947	-0.275955	0.902993
C155	C	1.029143	-0.646960	1.091087
C156	C	0.973909	-0.720901	1.045986
C157	C	0.918718	-0.794843	1.091059
C158	C	0.918762	-0.794844	1.181233
C159	C	0.973998	-0.720900	1.226339
C160	C	1.029188	-0.646958	1.181265
H161	H	0.973875	-0.720903	0.979230
H162	H	0.877829	-0.849581	1.057668
H163	H	0.877907	-0.849580	1.214599
H164	H	0.974032	-0.720898	1.293095
H165	H	1.070078	-0.592220	1.214656
H166	H	0.686874	-0.384047	0.287311
C167	C	0.847322	-0.364811	0.272971
C168	C	0.836069	-0.245387	0.279536
C169	C	0.881146	-0.171372	0.224412
C170	C	0.937476	-0.216780	0.162721
C171	C	0.948732	-0.336210	0.156153
C172	C	0.903655	-0.410225	0.211278
H173	H	0.794367	-0.211768	0.325205
H174	H	0.872813	-0.082962	0.229274
H175	H	0.970845	-0.161990	0.121915
H176	H	0.990434	-0.369829	0.110484
H177	H	0.911988	-0.498635	0.206416
H178	H	1.043420	-0.627773	0.930645
H179	H	1.234858	-0.806502	0.277868
H180	H	1.225667	-0.384010	0.930709
C181	C	1.340374	-0.890348	0.172560
C182	C	1.340330	-0.769658	0.172531
C183	C	1.395559	-0.709309	0.117343
C184	C	1.450832	-0.769651	0.062185
C185	C	1.450879	-0.890348	0.062212
C186	C	1.395650	-0.950696	0.117400
H187	H	1.299411	-0.724983	0.213364
H188	H	1.395524	-0.619961	0.117323
H189	H	1.491716	-0.724977	0.021332
H190	H	1.491798	-0.935022	0.021379
H191	H	1.395685	-1.040044	0.117420
C192	C	1.029075	-0.647033	0.838221
C193	C	0.939837	-0.638472	0.826937
C194	C	0.884613	-0.712387	0.871994
C195	C	0.918626	-0.794862	0.928333
C196	C	1.007869	-0.803426	0.939619
C197	C	1.063093	-0.729512	0.894563
H198	H	0.914654	-0.577415	0.785229
H199	H	0.818549	-0.706047	0.863639
H200	H	0.877746	-0.849578	0.961687
H201	H	1.033052	-0.864483	0.981327
H202	H	1.129156	-0.735852	0.902917
H203	H	1.326114	-1.105087	0.186941
H204	H	1.034132	-1.204643	0.478612
H205	H	0.942876	-0.906056	0.569557
