data_functionalizedCrystal
_audit_creation_method	'MofGen! by Chris Wilmer'
_symmetry_space_group_name_H-M	'P1'
_symmetry_Int_Tables_number	1
_symmetry_cell_setting	triclinic
loop_
_symmetry_equiv_pos_as_xyz
  x,y,z
_cell_length_a	12.837943
_cell_length_b	15.944551
_cell_length_c	11.892095
_cell_angle_alpha	93.888509
_cell_angle_beta	85.689438
_cell_angle_gamma	89.163839
loop_
_atom_site_label
_atom_site_type_symbol
_atom_site_fract_x
_atom_site_fract_y
_atom_site_fract_z
O1	O	1.382096	0.213524	-0.093988
O2	O	1.080290	0.202737	-0.093995
O3	O	1.239434	0.086515	-0.093981
O4	O	1.222952	0.329745	-0.094002
O5	O	1.226164	0.096189	0.094025
O6	O	1.067021	0.212411	0.094012
O7	O	1.368826	0.223198	0.094018
Zn8	Zn	1.215817	0.219340	0.123865
Zn9	Zn	1.233299	0.206594	-0.123842
O10	O	1.209683	0.339419	0.094005
C11	C	1.035034	0.203930	0.000008
C12	C	0.919957	0.193062	0.000006
C13	C	1.232115	0.060004	0.000022
C14	C	1.230063	-0.033407	0.000023
C15	C	0.679007	0.323714	0.000011
C16	C	0.570881	0.313507	0.000010
C17	C	0.595575	0.162440	0.000010
C18	C	0.703701	0.172648	0.000012
C19	C	0.745413	0.253287	0.000010
C20	C	0.853542	0.263494	0.000003
C21	C	0.878234	0.112428	0.000012
C22	C	0.770107	0.102221	0.000011
C23	C	1.126515	-0.256548	0.000005
C24	C	1.168058	-0.308949	0.092705
C25	C	1.226352	-0.204430	0.000014
C26	C	1.181163	-0.318468	-0.092655
C27	C	1.222761	-0.369631	0.000001
C28	C	1.267917	-0.255596	0.092790
C29	C	1.281014	-0.265115	-0.092653
C30	C	1.322628	-0.317491	0.000069
C31	C	1.228418	-0.109262	0.000023
C32	C	1.220702	-0.464796	0.000000
C33	C	1.414082	0.222005	0.000013
C34	C	1.529160	0.232872	0.000008
C35	C	1.217002	0.365931	-0.000001
C36	C	1.219054	0.459340	-0.000009
N37	N	1.203893	0.228039	0.292918
N38	N	1.245231	0.197890	-0.292895
C39	C	1.328203	0.137313	0.529576
C40	C	1.319876	0.143400	0.647918
C41	C	1.178907	0.246295	0.647944
C42	C	1.187234	0.240208	0.529603
C43	C	1.261886	0.185716	0.470423
C44	C	1.270217	0.179634	0.352080
C45	C	1.129244	0.282524	0.352108
C46	C	1.120917	0.288611	0.470449
H47	H	0.887502	0.329155	0.000004
H48	H	1.043639	-0.229864	0.000096
H49	H	1.118121	0.290655	0.696143
C50	C	1.056291	0.335773	0.287043
H51	H	1.010648	0.369101	0.339241
H52	H	1.016387	0.299715	0.240883
H53	H	1.096842	0.371369	0.240875
H54	H	1.388994	0.092949	0.481392
H55	H	0.712969	0.389374	0.000008
C56	C	0.497838	0.390976	0.000001
H57	H	0.538171	0.440460	-0.000009
H58	H	0.450514	0.393508	0.065559
H59	H	0.459777	0.386760	-0.065573
C60	C	1.392827	0.090159	0.712983
H61	H	1.438481	0.056840	0.660785
H62	H	1.352289	0.054568	0.759160
H63	H	1.432737	0.126227	0.759133
H64	H	1.304571	-0.228194	0.171246
H65	H	1.060134	0.332975	0.518647
C66	C	1.345444	-0.238749	-0.198518
H67	H	1.402868	-0.206337	-0.176255
H68	H	1.302593	-0.206132	-0.241359
H69	H	1.370618	-0.287504	-0.243252
H70	H	0.561587	0.096792	0.000105
C71	C	0.951278	0.034952	0.000011
H72	H	0.910947	-0.014533	0.000003
H73	H	0.989351	0.039162	0.065569
H74	H	0.998593	0.032425	-0.065563
C75	C	0.724223	0.013523	0.000008
H76	H	0.779261	-0.026959	0.000012
H77	H	0.687180	0.003033	-0.065553
H78	H	0.677932	0.009769	0.065579
C79	C	1.103545	-0.335235	0.198569
H80	H	1.033885	-0.314313	0.198457
H81	H	1.133694	-0.312782	0.264396
H82	H	1.103236	-0.394833	0.198150
C83	C	1.434663	-0.353328	0.000141
H84	H	1.465304	-0.331602	0.066049
H85	H	1.474994	-0.337603	-0.065082
H86	H	1.432802	-0.412898	-0.000474
C87	C	1.131575	-0.355612	-0.198525
H88	H	1.061906	-0.334662	-0.198405
H89	H	1.131204	-0.415164	-0.198138
H90	H	1.171011	-0.339908	-0.264350
C91	C	1.352325	0.119693	0.286983
H92	H	1.390620	0.091731	0.339167
H93	H	1.398730	0.151001	0.240805
H94	H	1.318272	0.079350	0.240832
