data_functionalizedCrystal
_audit_creation_method	'MofGen! by Chris Wilmer'
_symmetry_space_group_name_H-M	'P1'
_symmetry_Int_Tables_number	1
_symmetry_cell_setting	triclinic
loop_
_symmetry_equiv_pos_as_xyz
  x,y,z
_cell_length_a	12.759401
_cell_length_b	12.759399
_cell_length_c	12.759393
_cell_angle_alpha	89.971563
_cell_angle_beta	89.980441
_cell_angle_gamma	90.013754
loop_
_atom_site_label
_atom_site_type_symbol
_atom_site_fract_x
_atom_site_fract_y
_atom_site_fract_z
Zn1	Zn	-1.606249	0.418256	0.594034
Zn2	Zn	-1.606140	0.593975	0.418364
Zn3	Zn	-1.430551	0.418305	0.418370
Zn4	Zn	-1.430537	0.593888	0.594002
O5	O	-1.518369	0.506106	0.506192
O6	O	-1.753255	0.441582	0.570742
O7	O	-1.582809	0.570729	0.271343
O8	O	-1.453909	0.271278	0.441688
O9	O	-1.753176	0.570682	0.441677
O10	O	-1.582993	0.271242	0.570748
O11	O	-1.453804	0.441665	0.271348
O12	O	-1.283528	0.441581	0.441657
O13	O	-1.453885	0.570533	0.741027
O14	O	-1.283517	0.570581	0.570693
O15	O	-1.582980	0.441497	0.741051
O16	O	-1.582795	0.740985	0.441646
O17	O	-1.453780	0.740921	0.570687
C18	C	-1.245402	0.506077	0.506173
C19	C	-1.128625	0.506090	0.506190
C20	C	-1.073785	0.573366	0.573267
C21	C	-0.964061	0.573375	0.573276
C22	C	-0.964027	0.438830	0.439123
C23	C	-1.073749	0.438816	0.439119
C24	C	-1.073804	0.651048	0.650716
C25	C	-0.964080	0.651058	0.650725
C26	C	-1.518302	0.779073	0.506185
C27	C	-1.518370	0.895850	0.506217
C28	C	-1.518443	0.506000	0.780226
C29	C	-1.518474	0.505955	0.897003
C30	C	-0.792402	0.506127	0.506208
C31	C	-0.909179	0.506113	0.506202
C32	C	-1.585622	0.950710	0.439103
C33	C	-1.585685	1.060434	0.439142
C34	C	-1.451235	1.060428	0.573411
C35	C	-1.451178	0.950706	0.573378
C36	C	-1.663242	0.950715	0.361580
C37	C	-1.663305	1.060439	0.361619
C38	C	-1.518461	1.232073	0.506236
C39	C	-1.518489	1.115296	0.506290
C40	C	-1.518356	0.506136	0.233225
C41	C	-1.518528	0.505885	0.116449
C42	C	-1.585703	0.438759	0.951879
C43	C	-1.585728	0.438722	1.061603
C44	C	-1.451292	0.573083	1.061565
C45	C	-1.451263	0.573115	0.951843
C46	C	-1.663322	0.361190	0.951901
C47	C	-1.663347	0.361152	1.061625
H48	H	-1.103613	0.629350	0.732122
C49	C	-1.378413	1.119934	0.646497
C50	C	-1.401242	1.093158	0.750458
C51	C	-1.334188	1.147962	0.817814
H52	H	-1.307782	1.102067	0.631195
H53	H	-1.388089	1.193148	0.636979
H54	H	-1.391557	1.019961	0.759971
H55	H	-1.471861	1.111028	0.765792
H56	H	-1.343864	1.221176	0.808296
H57	H	-1.263561	1.130091	0.802503
H58	H	-1.349674	1.129810	0.888359
H59	H	-0.934283	0.732406	0.628797
C60	C	-1.118966	0.754151	0.611701
C61	C	-1.037040	0.822465	0.585847
C62	C	-1.078603	0.917455	0.549913
H63	H	-1.160834	0.741731	0.551427
H64	H	-1.160856	0.784678	0.665150
H65	H	-0.995167	0.791944	0.532402
H66	H	-0.995165	0.834915	0.646105
H67	H	-1.120493	0.947983	0.603362
H68	H	-1.120471	0.905025	0.489643
H69	H	-1.023023	0.963822	0.532376
H70	H	-0.919333	0.384057	0.384517
C71	C	-1.624567	0.257970	1.106828
C72	C	-1.598840	0.189655	1.024929
C73	C	-1.563123	0.094595	1.066531
H74	H	-1.564278	0.270285	1.148708
H75	H	-1.678094	0.227502	1.148712
H76	H	-1.545317	0.220117	0.983062
H77	H	-1.659112	0.177310	0.983042
H78	H	-1.616651	0.064126	1.108415
H79	H	-1.502837	0.106920	1.108411
H80	H	-1.545672	0.048228	1.010970
H81	H	-0.930083	0.622012	0.728075
C82	C	-1.766255	0.400270	0.906454
C83	C	-1.747513	0.489096	0.844753
C84	C	-1.842311	0.525137	0.802882
H85	H	-1.796756	0.346896	0.864492
H86	H	-1.812771	0.417858	0.961876
H87	H	-1.701015	0.471504	0.789339
H88	H	-1.717028	0.542492	0.886691
H89	H	-1.888826	0.542725	0.858304
H90	H	-1.872804	0.471756	0.760925
H91	H	-1.829609	0.585414	0.761021
C92	C	-1.624244	0.905583	0.258474
C93	C	-1.521565	0.939736	0.240157
C94	C	-1.485608	0.898193	0.145181
H95	H	-1.625443	0.831223	0.261888
H96	H	-1.668301	0.928616	0.203050
H97	H	-1.477519	0.916697	0.295567
H98	H	-1.520338	1.014090	0.236723
H99	H	-1.529665	0.921226	0.089757
H100	H	-1.486814	0.823834	0.148604
H101	H	-1.415941	0.921367	0.132736
H102	H	-1.744717	0.382947	1.091406
H103	H	-1.118395	0.384027	0.384506
H104	H	-1.396426	0.906040	0.628037
H105	H	-1.744586	0.920860	0.383432
C106	C	-1.766276	1.105918	0.400600
C107	C	-1.760811	1.215499	0.398581
C108	C	-1.855637	1.257431	0.434501
H109	H	-1.821802	1.083041	0.356625
H110	H	-1.778772	1.082919	0.470324
H111	H	-1.748327	1.238488	0.328869
H112	H	-1.705305	1.238405	0.442558
H113	H	-1.868133	1.234432	0.504225
H114	H	-1.911155	1.234547	0.390523
H115	H	-1.851938	1.331785	0.433145
C116	C	-1.378212	0.646167	0.892452
C117	C	-1.319376	0.704988	0.963966
C118	C	-1.252073	0.772301	0.909294
H119	H	-1.332353	0.606085	0.849656
H120	H	-1.418334	0.692027	0.849659
H121	H	-1.279257	0.659134	1.006741
H122	H	-1.365207	0.745091	1.006764
H123	H	-1.292194	0.818161	0.866501
H124	H	-1.206221	0.732211	0.866500
H125	H	-1.212151	0.812226	0.957808
C126	C	-1.378444	0.645964	1.121298
C127	C	-1.392874	0.631573	1.229135
C128	C	-1.325795	0.698706	1.284190
H129	H	-1.307811	0.630654	1.103439
H130	H	-1.393802	0.716585	1.103365
H131	H	-1.377508	0.560968	1.247060
H132	H	-1.463492	0.646891	1.247025
H133	H	-1.341153	0.769326	1.266257
H134	H	-1.255167	0.683389	1.266323
H135	H	-1.335583	0.688957	1.357363
H136	H	-1.641567	1.090301	0.280239
H137	H	-1.641554	0.279825	0.922140
