data_functionalizedCrystal
_audit_creation_method	'MofGen! by Chris Wilmer'
_symmetry_space_group_name_H-M	'P1'
_symmetry_Int_Tables_number	1
_symmetry_cell_setting	triclinic
loop_
_symmetry_equiv_pos_as_xyz
  x,y,z
_cell_length_a	14.395555
_cell_length_b	14.395555
_cell_length_c	14.809374
_cell_angle_alpha	67.422363
_cell_angle_beta	89.999658
_cell_angle_gamma	60.002087
loop_
_atom_site_label
_atom_site_type_symbol
_atom_site_fract_x
_atom_site_fract_y
_atom_site_fract_z
Zr1	Zr	0.907088	0.992430	-0.108024
O2	O	0.773629	1.156494	-0.239364
O3	O	0.948001	0.807743	-0.067752
O4	O	0.967424	0.962699	-0.239355
O5	O	0.738886	1.032182	0.067591
O6	O	1.120291	0.962705	-0.239358
O7	O	0.754207	1.001538	-0.067762
O8	O	1.085548	0.685518	0.067607
O9	O	0.773629	1.309369	-0.239375
O10	O	1.079533	0.891350	-0.050590
O11	O	0.954015	0.914214	0.050424
O12	O	0.976883	1.096654	-0.151616
O13	O	0.851365	1.119519	-0.050601
Zr14	Zr	1.126458	1.041312	0.107842
Zr15	Zr	1.150894	0.992439	-0.108029
Zr16	Zr	0.882652	1.041302	0.107847
Zr17	Zr	0.907087	1.236248	-0.108041
Zr18	Zr	1.126460	0.797494	0.107859
O19	O	1.085545	1.225999	0.067570
O20	O	1.120290	1.156508	-0.239371
O21	O	0.738885	1.225985	0.067578
O22	O	1.259918	0.877248	0.239182
O23	O	1.294662	0.807757	-0.067760
O24	O	0.913257	0.877234	0.239189
O25	O	1.294661	1.001560	-0.067773
O26	O	1.066123	1.071043	0.239173
O27	O	0.913256	1.071037	0.239176
O28	O	1.279340	1.032204	0.067580
O29	O	0.967422	1.309377	-0.239379
O30	O	1.066125	0.724365	0.239197
O31	O	1.259918	0.724373	0.239193
O32	O	1.279342	0.685525	0.067603
O33	O	0.754205	1.348216	-0.067785
O34	O	0.947999	1.348224	-0.067789
O35	O	1.056664	0.937088	0.151434
O36	O	1.182182	0.914223	0.050419
O37	O	1.079532	1.119528	-0.050606
O38	O	0.954014	1.142392	0.050408
C39	C	1.016775	0.711891	-0.000070
C40	C	1.016776	0.608384	-0.000063
C41	C	0.948326	0.498371	0.054980
C42	C	1.051078	0.493141	0.094928
C43	C	0.914038	0.614963	-0.039964
C44	C	1.119580	0.418714	0.039883
C45	C	0.982469	0.540588	-0.095061
C46	C	1.085288	0.535306	-0.055137
C47	C	0.711809	1.016859	-0.000085
C48	C	0.608307	1.016854	-0.000082
C49	C	0.603688	0.904913	0.054999
C50	C	0.506153	0.976144	0.094915
C51	C	0.521410	0.945635	-0.039969
C52	C	0.512129	1.088098	0.039888
C53	C	0.527406	1.057560	-0.095048
C54	C	0.429857	1.128876	-0.055156
C55	C	1.321738	1.016883	-0.000097
C56	C	1.425240	1.016887	-0.000100
C57	C	1.047339	0.955738	-0.270114
C58	C	1.057713	0.934991	-0.361757
C59	C	1.016772	1.321850	-0.000112
C60	C	1.016771	1.425358	-0.000119
C61	C	1.011416	1.027585	-0.452730
C62	C	1.022137	1.006144	-0.547449
C63	C	0.986208	1.078004	0.269932
C64	C	0.975834	1.098751	0.361575
C65	C	1.321739	0.711904	-0.000076
C66	C	1.425242	0.608401	-0.000072
C67	C	0.986209	0.773024	0.269952
C68	C	0.975836	0.690265	0.361603
C69	C	1.291174	0.773036	0.269946
C70	C	1.384303	0.690281	0.361594
C71	C	0.742373	1.260706	-0.270128
C72	C	0.649244	1.343461	-0.361776
C73	C	0.711808	1.321838	-0.000106
C74	C	0.608305	1.425341	-0.000110
C75	C	1.047337	1.260718	-0.270134
C76	C	1.057711	1.343477	-0.361785
C77	C	1.024546	0.663342	0.457378
C78	C	1.014794	0.585596	0.543501
C79	C	0.956339	0.534768	0.533847
C80	C	0.907623	0.561698	0.438062
C81	C	0.917369	0.639449	0.351941
C82	C	1.493566	0.639483	0.351905
C83	C	1.581081	0.561738	0.438010
C84	C	1.559330	0.534785	0.533803
C85	C	1.450055	0.585591	0.543491
C86	C	1.362543	0.663342	0.457387
C87	C	0.539981	1.394270	-0.352087
C88	C	0.452466	1.472046	-0.438192
C89	C	0.474217	1.499004	-0.533985
C90	C	0.583492	1.448191	-0.543673
C91	C	0.671004	1.370424	-0.457569
C92	C	1.116174	1.394282	-0.352099
C93	C	1.125942	1.472032	-0.438206
C94	C	1.077239	1.498983	-0.533998
C95	C	1.018774	1.448169	-0.543682
C96	C	1.009014	1.370414	-0.457576
C97	C	1.541801	0.560310	0.054977
C98	C	1.568146	0.431229	0.094876
C99	C	1.583319	0.553102	-0.040018
C100	C	1.450217	0.480632	0.039884
C101	C	1.465400	0.602567	-0.095063
C102	C	1.491675	0.473490	-0.055188
H103	H	1.206493	0.334807	0.073702
N104	N	1.374515	0.441191	0.084721
H105	H	1.304624	0.511777	0.084513
H106	H	1.412948	0.376787	0.156215
H107	H	1.511297	0.661415	0.273912
N108	N	1.120736	0.808954	-0.351467
H109	H	1.085217	0.765447	-0.313453
H110	H	1.199745	0.765563	-0.313483
H111	H	1.143244	0.551734	-0.101698
H112	H	0.827156	0.698931	-0.073688
N113	N	1.426614	0.556499	0.646817
H114	H	1.382752	0.517960	0.654895
H115	H	1.382781	0.632554	0.654837
N116	N	0.334619	1.526818	-0.427717
H117	H	0.295390	1.502342	-0.461094
H118	H	0.295469	1.616875	-0.461062
N119	N	0.948408	1.153621	-0.463016
H120	H	0.884736	1.166419	-0.429601
H121	H	0.919058	1.212394	-0.536757
H122	H	1.640612	0.582706	-0.073769
H123	H	0.496137	0.941743	0.175220
H124	H	1.273578	0.704692	0.465290
H125	H	0.355500	1.223619	-0.101734
H126	H	1.561960	0.597944	0.101624
N127	N	0.702325	0.779535	0.116763
H128	H	0.695073	0.748935	0.188495
H129	H	0.772075	0.780335	0.115744
H130	H	1.069717	0.910989	-0.539680
H131	H	1.420952	0.676057	-0.175340
H132	H	0.953420	0.559618	-0.175360
H133	H	1.072145	0.704720	0.465257
H134	H	0.890524	0.481668	0.101607
N135	N	0.516505	1.365199	-0.248773
H136	H	0.434003	1.409200	-0.255716
H137	H	0.549963	1.390726	-0.210748
N138	N	1.089522	0.467907	0.201317
H139	H	1.029596	0.530756	0.218288
H140	H	1.158460	0.469668	0.207222
N141	N	0.379823	1.582882	-0.626850
H142	H	0.307307	1.610971	-0.606167
H143	H	0.384557	1.539591	-0.668256
N144	N	1.627037	0.333906	0.201226
H145	H	1.577085	0.306751	0.231802
H146	H	1.646830	0.365930	0.242712
N147	N	0.606943	1.477272	-0.646995
H148	H	0.534918	1.534243	-0.700063
H149	H	0.650838	1.401197	-0.654976
N150	N	1.067344	0.556556	0.646803
H151	H	1.105863	0.600546	0.639842
H152	H	1.122907	0.467538	0.684837
H153	H	0.759970	1.329053	-0.465470
H154	H	0.877706	0.661357	0.273960
N155	N	0.508130	1.167836	0.084698
H156	H	0.514222	1.233887	0.033191
H157	H	0.571568	1.118976	0.145985
N158	N	0.540727	1.103083	-0.201398
H159	H	0.545181	1.049184	-0.231472
H160	H	0.610681	1.103474	-0.200565
N161	N	0.525252	0.865850	-0.084650
H162	H	0.590024	0.781303	-0.042976
H163	H	0.533776	0.895833	-0.155978
N164	N	0.945947	1.315631	-0.468040
H165	H	0.866951	1.381233	-0.506089
H166	H	0.947229	1.262270	-0.398931
N167	N	0.912821	1.224797	-0.648726
H168	H	0.849146	1.237600	-0.615314
H169	H	0.883474	1.283563	-0.722469
H170	H	0.948411	0.471460	0.603981
H171	H	0.860029	0.520302	0.430217
H172	H	1.471292	0.435925	-0.101769
H173	H	1.670050	0.520377	0.430104
N174	N	1.653718	0.450904	0.626673
H175	H	1.649087	0.494120	0.668125
H176	H	1.726189	0.422830	0.605915
N177	N	1.168707	1.365226	-0.248787
H178	H	1.207225	1.409213	-0.255732
H179	H	1.224267	1.276207	-0.210759
N180	N	1.189004	1.526826	-0.427748
H181	H	1.218363	1.497958	-0.353997
H182	H	1.138118	1.616886	-0.461184
H183	H	0.979123	1.470125	-0.621687
N184	N	1.087758	1.582865	-0.626862
H185	H	1.048033	1.592238	-0.689021
H186	H	1.168440	1.548954	-0.626801
