data_functionalizedCrystal
_audit_creation_method	'MofGen! by Chris Wilmer'
_symmetry_space_group_name_H-M	'P1'
_symmetry_Int_Tables_number	1
_symmetry_cell_setting	triclinic
loop_
_symmetry_equiv_pos_as_xyz
  x,y,z
_cell_length_a	14.044220
_cell_length_b	14.044191
_cell_length_c	9.198806
_cell_angle_alpha	89.997762
_cell_angle_beta	90.001345
_cell_angle_gamma	86.809673
loop_
_atom_site_label
_atom_site_type_symbol
_atom_site_fract_x
_atom_site_fract_y
_atom_site_fract_z
O1	O	-0.230197	1.277173	-0.120815
O2	O	-0.221884	1.000500	-0.120834
O3	O	-0.087705	1.134684	-0.120819
O4	O	-0.364376	1.142989	-0.120831
O5	O	-0.087705	1.134670	0.120966
O6	O	-0.221885	1.000487	0.120951
O7	O	-0.230197	1.277159	0.120970
Cu8	Cu	-0.226041	1.138822	0.143037
Cu9	Cu	-0.226041	1.138838	-0.142902
O10	O	-0.364377	1.142976	0.120954
C11	C	-0.218248	0.964872	0.000056
C12	C	-0.207401	0.858728	0.000049
C13	C	-0.264501	0.613270	0.000061
C14	C	-0.187585	0.664395	0.000062
C15	C	-0.198613	0.772532	0.000055
C16	C	-0.253474	0.505123	0.000068
C17	C	-0.399998	1.146618	0.000060
C18	C	-0.506142	1.157463	0.000056
C19	C	-0.700480	1.177289	0.000063
C20	C	-0.751608	1.100375	0.000059
C21	C	-0.859744	1.111406	0.000064
C22	C	-0.592333	1.166259	0.000059
C23	C	-0.052083	1.131041	0.000072
C24	C	0.054060	1.120197	0.000067
C25	C	-0.233834	1.312788	0.000076
C26	C	-0.244681	1.418931	0.000074
N27	N	-0.226041	1.138818	0.344151
C28	C	-0.169435	1.195136	0.416355
C29	C	-0.169434	1.195150	0.583767
N30	N	-0.226040	1.138842	0.655984
H31	H	-0.338628	0.650711	0.000053
C32	C	-0.103959	1.260291	0.667648
N33	N	-0.054641	1.309355	0.730831
H34	H	-0.714167	1.026241	0.000055
C35	C	-0.751059	1.277434	0.000094
N36	N	-0.789166	1.352863	0.000128
H37	H	-0.120968	1.243340	0.354234
H38	H	-0.274510	1.090626	0.593902
H39	H	-0.274500	1.090607	0.406274
H40	H	-0.113452	0.626952	-0.000037
