data_functionalizedCrystal
_audit_creation_method	'MofGen! by Chris Wilmer'
_symmetry_space_group_name_H-M	'P1'
_symmetry_Int_Tables_number	1
_symmetry_cell_setting	triclinic
loop_
_symmetry_equiv_pos_as_xyz
  x,y,z
_cell_length_a	6.817900
_cell_length_b	12.908942
_cell_length_c	14.125465
_cell_angle_alpha	96.061960
_cell_angle_beta	100.398878
_cell_angle_gamma	100.860556
loop_
_atom_site_label
_atom_site_type_symbol
_atom_site_fract_x
_atom_site_fract_y
_atom_site_fract_z
V1	V	-3.977989	-0.144948	-0.299444
O2	O	-3.980234	0.007897	-0.294295
O3	O	-3.916565	-0.288305	-0.296867
O4	O	-3.914374	-0.142310	-0.430284
O5	O	-3.982440	-0.139108	-0.159954
V6	V	-4.465277	-0.126715	-0.282825
O7	O	-4.230991	-0.184946	-0.335901
O8	O	-4.662473	-0.086717	-0.246368
O9	O	-4.303495	0.016642	-0.285402
O10	O	-4.580429	-0.279560	-0.287974
O11	O	-4.578223	-0.132555	-0.422315
O12	O	-4.305685	-0.129353	-0.151985
C13	C	-3.758889	-0.323265	-0.292006
C14	C	-3.789853	-0.440458	-0.290771
C15	C	-4.210188	-0.671389	-0.298031
C16	C	-4.239290	-0.781502	-0.296871
C17	C	-3.877165	-0.770801	-0.287296
C18	C	-3.848062	-0.660688	-0.288457
C19	C	-4.014581	-0.610985	-0.293823
C20	C	-3.985474	-0.500869	-0.294977
C21	C	-3.623353	-0.490171	-0.285409
C22	C	-3.652456	-0.600284	-0.284248
C23	C	-3.756094	-0.137033	-0.462192
C24	C	-3.785279	-0.135824	-0.569151
C25	C	-3.838773	-0.133607	-0.764982
C26	C	-4.023862	-0.138054	-0.817287
C27	C	-4.053629	-0.136820	-0.926254
C28	C	-3.808999	-0.134841	-0.656005
C29	C	-4.124512	0.051596	-0.290260
C30	C	-4.072786	0.168788	-0.291502
C31	C	-4.127308	-0.134634	-0.120072
C32	C	-4.077362	-0.135837	-0.013112
H33	H	-4.398570	-0.830679	-0.300299
H34	H	-4.159969	-0.142797	-0.780231
H35	H	-4.121062	-0.460402	-0.299339
H36	H	-3.702681	-0.128876	-0.802037
H37	H	-3.741605	-0.811290	-0.282936
H38	H	-4.345770	-0.630918	-0.302386
C39	C	-3.417931	-0.316623	-0.282923
C40	C	-3.408322	-0.423771	-0.280776
H41	H	-3.285182	-0.275633	-0.280063
H42	H	-3.469349	-0.291329	-0.228755
H43	H	-3.505758	-0.310240	-0.341417
H44	H	-3.320507	-0.430155	-0.222279
H45	H	-3.356876	-0.449072	-0.334949
H46	H	-3.516889	-0.640768	-0.279883
