data_functionalizedCrystal
_audit_creation_method	'MofGen! by Chris Wilmer'
_symmetry_space_group_name_H-M	'P1'
_symmetry_Int_Tables_number	1
_symmetry_cell_setting	triclinic
loop_
_symmetry_equiv_pos_as_xyz
  x,y,z
_cell_length_a	12.594516
_cell_length_b	12.759401
_cell_length_c	12.759393
_cell_angle_alpha	90.022497
_cell_angle_beta	89.971950
_cell_angle_gamma	89.983125
loop_
_atom_site_label
_atom_site_type_symbol
_atom_site_fract_x
_atom_site_fract_y
_atom_site_fract_z
Zn1	Zn	-0.423667	-1.606257	-0.594082
Zn2	Zn	-0.601683	-1.606143	-0.418409
Zn3	Zn	-0.423722	-1.430555	-0.418412
Zn4	Zn	-0.601607	-1.430543	-0.594042
O5	O	-0.512670	-1.518375	-0.506236
O6	O	-0.447291	-1.753263	-0.570794
O7	O	-0.578131	-1.582809	-0.271389
O8	O	-0.274769	-1.453915	-0.441733
O9	O	-0.578078	-1.753179	-0.441728
O10	O	-0.274729	-1.583002	-0.570797
O11	O	-0.447383	-1.453805	-0.271391
O12	O	-0.447309	-1.283533	-0.441694
O13	O	-0.577948	-1.453894	-0.741068
O14	O	-0.578001	-1.283524	-0.570728
O15	O	-0.447216	-1.582990	-0.741097
O16	O	-0.750619	-1.582797	-0.441689
O17	O	-0.750563	-1.453784	-0.570726
C18	C	-0.512653	-1.245407	-0.506208
C19	C	-0.512672	-1.128631	-0.506221
C20	C	-0.789211	-1.518306	-0.506226
C21	C	-0.907516	-1.518372	-0.506257
C22	C	-0.580826	-1.073791	-0.573302
C23	C	-0.580828	-0.964067	-0.573320
C24	C	-0.444520	-0.964031	-0.439166
C25	C	-0.444513	-1.073753	-0.439155
C26	C	-0.619019	-0.814170	-0.697178
C27	C	-0.687189	-0.759328	-0.764249
C28	C	-0.791063	-0.794923	-0.780202
C29	C	-0.826787	-0.885359	-0.729069
C30	C	-0.758622	-0.940197	-0.661989
C31	C	-0.654734	-0.904603	-0.646056
C32	C	-0.406334	-1.223652	-0.315295
C33	C	-0.338174	-1.278491	-0.248210
C34	C	-0.234298	-1.242898	-0.232246
C35	C	-0.198578	-1.152458	-0.283361
C36	C	-0.266738	-1.097619	-0.350447
C37	C	-0.370612	-1.133220	-0.366412
C38	C	-0.976777	-1.448195	-0.576390
C39	C	-1.047646	-1.422594	-0.480522
C40	C	-1.047446	-1.544069	-0.602141
C41	C	-0.976827	-1.492721	-0.410338
C42	C	-0.976621	-1.614240	-0.532021
C43	C	-1.047457	-1.588675	-0.436087
C44	C	-0.235049	-1.518472	-0.506270
C45	C	-0.116743	-1.518514	-0.506284
C46	C	-0.512568	-1.518453	-0.780270
C47	C	-0.512524	-1.518487	-0.897046
C48	C	-0.512684	-0.792408	-0.506258
C49	C	-0.512682	-0.909184	-0.506250
C50	C	-0.444441	-1.585712	-0.951925
C51	C	-0.444395	-1.585730	-1.061649
C52	C	-0.580524	-1.451294	-1.061606
C53	C	-0.580564	-1.451272	-0.951884
C54	C	-0.318817	-1.623345	-1.211623
C55	C	-0.250743	-1.690586	-1.266506
C56	C	-0.234423	-1.793100	-1.230917
C57	C	-0.286192	-1.828392	-1.140446
C58	C	-0.354273	-1.761156	-1.085569
C59	C	-0.370573	-1.658628	-1.121157
C60	C	-0.706144	-1.413668	-0.801908
C61	C	-0.774231	-1.346436	-0.747029
C62	C	-0.790563	-1.243921	-0.782616
C63	C	-0.738813	-1.208632	-0.873090
C64	C	-0.670725	-1.275864	-0.927969
C65	C	-0.654392	-1.378378	-0.892374
C66	C	-0.512695	-1.518357	-0.233269
C67	C	-0.512438	-1.518527	-0.116493
H68	H	-0.636322	-1.118469	-0.627914
N69	N	-0.268598	-1.938967	-1.102066
H70	H	-0.217611	-1.976204	-1.150556
H71	H	-0.237909	-1.936998	-1.028978
H72	H	-0.945742	-1.388743	-0.635614
N73	N	-0.797140	-1.037728	-0.606833
H74	H	-0.873293	-1.051955	-0.627110
H75	H	-0.751380	-1.099229	-0.627960
N76	N	-0.935911	-1.463881	-0.302913
H77	H	-0.962378	-1.391758	-0.283305
H78	H	-0.962233	-1.516649	-0.249959
H79	H	-0.178807	-1.287553	-0.177610
N80	N	-1.088962	-1.315288	-0.451647
H81	H	-1.063256	-1.262271	-0.504652
H82	H	-1.169143	-1.316398	-0.451182
H83	H	-0.692845	-1.497142	-0.772919
N84	N	-0.228217	-1.000070	-0.405580
H85	H	-0.152069	-0.985839	-0.385289
H86	H	-0.232930	-1.010574	-0.483898
H87	H	-1.078296	-1.648082	-0.376721
H88	H	-0.911376	-0.914327	-0.742054
H89	H	-0.846567	-0.750262	-0.834815
H90	H	-0.396426	-1.789892	-1.011913
H91	H	-0.178995	-1.847848	-1.275610
N92	N	-0.653921	-1.378804	-1.120739
H93	H	-0.637386	-1.303743	-1.101626
H94	H	-0.643545	-1.389099	-1.198559
N95	N	-0.756413	-1.098064	-0.911491
H96	H	-0.834197	-1.087402	-0.927498
H97	H	-0.733482	-1.046858	-0.855532
H98	H	-1.078467	-1.565747	-0.683218
N99	N	-0.864011	-1.171408	-0.723435
H100	H	-0.894328	-1.209316	-0.660724
H101	H	-0.823070	-1.107870	-0.699064
H102	H	-0.332090	-1.539868	-1.240604
N103	N	-0.648655	-0.661791	-0.819396
H104	H	-0.585765	-0.679791	-0.865138
H105	H	-0.707666	-0.632490	-0.864245
N106	N	-0.506979	-0.775778	-0.679972
H107	H	-0.467806	-0.774677	-0.749052
H108	H	-0.508948	-0.702705	-0.649577
H109	H	-0.816379	-1.375181	-0.673367
N110	N	-0.371058	-1.658203	-0.892777
H111	H	-0.327921	-1.700791	-0.944196
H112	H	-0.321815	-1.615447	-0.847249
N113	N	-0.194890	-1.652526	-1.364071
H114	H	-0.216182	-1.697644	-1.425624
H115	H	-0.215563	-1.577364	-1.378193
N116	N	-0.371037	-0.904842	-0.366806
H117	H	-0.381393	-0.827012	-0.376980
H118	H	-0.387538	-0.923997	-0.291752
H119	H	-0.628588	-1.247123	-1.001638
N120	N	-0.086543	-1.114054	-0.266143
H121	H	-0.048784	-1.162518	-0.215891
H122	H	-0.047447	-1.112947	-0.335262
H123	H	-0.490915	-1.252648	-0.328297
N124	N	-0.376697	-1.376036	-0.193071
H125	H	-0.452843	-1.390272	-0.213368
H126	H	-0.330925	-1.437530	-0.214192
N127	N	-0.935264	-1.721521	-0.560909
H128	H	-0.960904	-1.740817	-0.633380
H129	H	-0.855084	-1.720757	-0.559944
