data_functionalizedCrystal
_audit_creation_method	'MofGen! by Chris Wilmer'
_symmetry_space_group_name_H-M	'P1'
_symmetry_Int_Tables_number	1
_symmetry_cell_setting	triclinic
loop_
_symmetry_equiv_pos_as_xyz
  x,y,z
_cell_length_a	12.594517
_cell_length_b	16.625546
_cell_length_c	16.625527
_cell_angle_alpha	89.912139
_cell_angle_beta	89.939794
_cell_angle_gamma	90.022268
loop_
_atom_site_label
_atom_site_type_symbol
_atom_site_fract_x
_atom_site_fract_y
_atom_site_fract_z
Zn1	Zn	1.627628	-0.320547	-0.455906
Zn2	Zn	1.960961	0.012786	-0.122572
Zn3	Zn	2.294295	0.346120	0.210761
Zn4	Zn	1.627378	-0.455526	-0.321068
Zn5	Zn	1.960711	-0.122192	0.012266
Zn6	Zn	2.294045	0.211141	0.345599
Zn7	Zn	1.449511	-0.320710	-0.321085
Zn8	Zn	1.782844	0.012623	0.012248
Zn9	Zn	2.116178	0.345957	0.345581
Zn10	Zn	1.449594	-0.455341	-0.455857
Zn11	Zn	1.782928	-0.122008	-0.122524
Zn12	Zn	2.116261	0.211326	0.210810
O13	O	1.538528	-0.388031	-0.388479
O14	O	1.871861	-0.054698	-0.055146
O15	O	2.205195	0.278636	0.278188
O16	O	1.776541	-0.338461	-0.438032
O17	O	2.109874	-0.005128	-0.104699
O18	O	2.443207	0.328205	0.228634
O19	O	1.603644	-0.437787	-0.208237
O20	O	1.936978	-0.104454	0.125096
O21	O	2.270311	0.228879	0.458429
O22	O	1.473209	-0.207856	-0.338997
O23	O	1.806542	0.125477	-0.005664
O24	O	2.139875	0.458811	0.327670
O25	O	1.776357	-0.437629	-0.338967
O26	O	2.109690	-0.104296	-0.005634
O27	O	2.443024	0.229037	0.327699
O28	O	1.604070	-0.207736	-0.438049
O29	O	1.937404	0.125597	-0.104716
O30	O	2.270737	0.458930	0.228617
O31	O	1.472966	-0.338739	-0.208250
O32	O	1.806300	-0.005406	0.125083
O33	O	2.139633	0.327928	0.458416
O34	O	1.300576	-0.338560	-0.338950
O35	O	1.633910	-0.005227	-0.005617
O36	O	1.967243	0.328107	0.327717
O37	O	1.473350	-0.437315	-0.568696
O38	O	1.806683	-0.103982	-0.235363
O39	O	2.140017	0.229352	0.097970
O40	O	1.300637	-0.437473	-0.437966
O41	O	1.633971	-0.104140	-0.104633
O42	O	1.967304	0.229194	0.228700
O43	O	1.604151	-0.338282	-0.568732
O44	O	1.937484	-0.004949	-0.235399
O45	O	2.270818	0.328384	0.097935
O46	O	1.603725	-0.568333	-0.338920
O47	O	1.937058	-0.235000	-0.005587
O48	O	2.270392	0.098333	0.327746
O49	O	1.473108	-0.568198	-0.437949
O50	O	1.806441	-0.234865	-0.104616
O51	O	2.139774	0.098469	0.228717
C52	C	1.538427	-0.597522	-0.388445
C53	C	1.871760	-0.264189	-0.055112
C54	C	2.205094	0.069145	0.278221
C55	C	1.538481	-0.687143	-0.388458
C56	C	1.871815	-0.353810	-0.055124
C57	C	2.205148	-0.020476	0.278209
C58	C	1.261987	-0.388015	-0.388455
C59	C	1.595320	-0.054681	-0.055122
C60	C	1.928654	0.278652	0.278211
C61	C	1.143681	-0.388027	-0.388464
C62	C	1.477015	-0.054694	-0.055131
C63	C	1.810348	0.278639	0.278202
C64	C	1.538667	-1.015318	-0.388542
C65	C	1.872001	-0.681985	-0.055208
C66	C	2.205334	-0.348652	0.278125
C67	C	1.538612	-0.924010	-0.388521
C68	C	1.871945	-0.590677	-0.055187
C69	C	2.205279	-0.257343	0.278146
C70	C	1.538573	-0.851234	-0.388499
C71	C	1.871907	-0.517900	-0.055166
C72	C	2.205240	-0.184567	0.278167
C73	C	1.538520	-0.759919	-0.388479
C74	C	1.871853	-0.426586	-0.055146
C75	C	2.205187	-0.093253	0.278188
C76	C	1.074364	-0.334155	-0.334712
C77	C	1.407698	-0.000822	-0.001379
C78	C	1.741031	0.332512	0.331955
C79	C	1.003525	-0.407723	-0.314873
C80	C	1.336858	-0.074389	0.018460
C81	C	1.670191	0.258944	0.351794
C82	C	1.003722	-0.314496	-0.408317
C83	C	1.337055	0.018838	-0.074984
C84	C	1.670389	0.352171	0.258350
C85	C	1.074400	-0.461633	-0.368587
C86	C	1.407733	-0.128300	-0.035253
C87	C	1.741067	0.205033	0.298080
C88	C	1.074604	-0.368357	-0.462065
C89	C	1.407937	-0.035024	-0.128732
C90	C	1.741270	0.298310	0.204602
C91	C	1.003796	-0.441975	-0.442254
C92	C	1.337129	-0.108642	-0.108921
C93	C	1.670463	0.224691	0.224413
C94	C	1.816149	-0.388048	-0.388503
C95	C	2.149482	-0.054714	-0.055170
C96	C	2.482815	0.278619	0.278163
C97	C	1.934454	-0.388055	-0.388514
C98	C	2.267788	-0.054722	-0.055180
C99	C	2.601121	0.278612	0.278153
C100	C	1.538788	-0.387760	-0.598788
C101	C	1.872121	-0.054427	-0.265455
C102	C	2.205454	0.278907	0.067878
C103	C	1.538898	-0.387644	-0.688410
C104	C	1.872232	-0.054311	-0.355076
C105	C	2.205565	0.279022	-0.021743
C106	C	1.538658	-0.177722	-0.388531
C107	C	1.871991	0.155611	-0.055197
C108	C	2.205325	0.488945	0.278136
C109	C	1.538714	-0.088101	-0.388552
C110	C	1.872047	0.245233	-0.055219
C111	C	2.205380	0.578566	0.278114
C112	C	1.538330	-0.388243	-0.178988
C113	C	1.871664	-0.054909	0.154346
C114	C	2.204997	0.278424	0.487679
C115	C	1.538426	-0.388131	-0.089367
C116	C	1.871759	-0.054798	0.243967
C117	C	2.205093	0.278536	0.577300
C118	C	1.538821	-0.387736	0.238808
C119	C	1.872154	-0.054403	0.572141
C120	C	2.205488	0.278931	0.905475
C121	C	1.538714	-0.387848	0.147500
C122	C	1.872047	-0.054515	0.480833
C123	C	2.205381	0.278818	0.814166
C124	C	1.538623	-0.387934	0.074723
C125	C	1.871956	-0.054601	0.408057
C126	C	2.205290	0.278733	0.741390
C127	C	1.538517	-0.388045	-0.016591
C128	C	1.871850	-0.054712	0.316743
C129	C	2.205184	0.278621	0.650076
H130	H	1.105351	-0.288642	-0.289199
H131	H	1.438685	0.044692	0.044134
H132	H	1.772018	0.378025	0.377467
C133	C	0.961328	-0.430218	-0.230826
C134	C	1.294661	-0.096884	0.102508
C135	C	1.627995	0.236449	0.435841
H136	H	0.919826	-0.477804	-0.234411
H137	H	1.253159	-0.144470	0.098923
H138	H	1.586493	0.188863	0.432256
H139	H	0.918740	-0.387591	-0.210716
H140	H	1.252073	-0.054258	0.122617
H141	H	1.585406	0.279076	0.455950
H142	H	1.019394	-0.439145	-0.195500
H143	H	1.352727	-0.105812	0.137834
H144	H	1.686061	0.227521	0.471167
H145	H	1.105317	-0.523848	-0.351747
H146	H	1.438651	-0.190515	-0.018414
H147	H	1.771984	0.142818	0.314920
C148	C	0.962186	-0.503603	-0.503687
C149	C	1.295519	-0.170269	-0.170353
C150	C	1.628852	0.163064	0.162980
H151	H	0.986516	-0.555799	-0.489470
H152	H	1.319849	-0.222466	-0.156136
H153	H	1.653183	0.110867	0.177197
H154	H	0.987598	-0.490066	-0.555795
H155	H	1.320931	-0.156733	-0.222462
H156	H	1.654265	0.176600	0.110872
H157	H	0.886761	-0.502973	-0.503680
H158	H	1.220094	-0.169639	-0.170347
H159	H	1.553428	0.163694	0.162987
C160	C	1.116820	-0.345829	-0.546092
C161	C	1.450153	-0.012496	-0.212759
C162	C	1.783486	0.320838	0.120574
H163	H	1.092666	-0.293530	-0.560102
H164	H	1.425999	0.039804	-0.226769
H165	H	1.759332	0.373137	0.106565
H166	H	1.091608	-0.383573	-0.584431
H167	H	1.424942	-0.050239	-0.251098
H168	H	1.758275	0.283094	0.082235
H169	H	1.192241	-0.346466	-0.545577
H170	H	1.525574	-0.013132	-0.212244
H171	H	1.858907	0.320201	0.121090
H172	H	0.972619	-0.252308	-0.425060
H173	H	1.305953	0.081026	-0.091727
H174	H	1.639286	0.414359	0.241607
