data_functionalizedCrystal
_audit_creation_method	'MofGen! by Chris Wilmer'
_symmetry_space_group_name_H-M	'P1'
_symmetry_Int_Tables_number	1
_symmetry_cell_setting	triclinic
loop_
_symmetry_equiv_pos_as_xyz
  x,y,z
_cell_length_a	14.044220
_cell_length_b	15.995300
_cell_length_c	12.503572
_cell_angle_alpha	86.472848
_cell_angle_beta	93.835250
_cell_angle_gamma	88.330342
loop_
_atom_site_label
_atom_site_type_symbol
_atom_site_fract_x
_atom_site_fract_y
_atom_site_fract_z
O1	O	1.263124	0.197436	0.089186
O2	O	1.763124	0.697436	0.589186
O3	O	0.987158	0.190150	0.089214
O4	O	1.487158	0.690150	0.589214
O5	O	1.132710	0.072468	0.089205
O6	O	1.632710	0.572468	0.589205
O7	O	1.117572	0.315118	0.089195
O8	O	1.617572	0.815118	0.589195
O9	O	1.121764	0.081334	-0.089437
O10	O	1.621764	0.581334	0.410563
O11	O	0.976212	0.199017	-0.089427
O12	O	1.476212	0.699017	0.410573
O13	O	1.252178	0.206302	-0.089455
O14	O	1.752178	0.706302	0.410545
Cu15	Cu	1.113195	0.203469	-0.105753
Cu16	Cu	1.613195	0.703469	0.394247
Cu17	Cu	1.126141	0.192983	0.105511
Cu18	Cu	1.626141	0.692983	0.605511
O19	O	1.106626	0.323985	-0.089446
O20	O	1.606626	0.823985	0.410554
C21	C	0.946371	0.191395	-0.000103
C22	C	1.446371	0.691395	0.499897
C23	C	0.841148	0.181883	-0.000092
C24	C	1.341148	0.681883	0.499908
C25	C	1.126620	0.045659	-0.000112
C26	C	1.626620	0.545659	0.499888
C27	C	1.124769	-0.047432	-0.000101
C28	C	1.624769	0.452568	0.499899
C29	C	0.648489	0.164496	-0.000112
C30	C	1.148489	0.664496	0.499888
C31	C	0.590842	0.231953	-0.000119
C32	C	1.090842	0.731953	0.499881
C33	C	0.483640	0.222278	-0.000131
C34	C	0.983640	0.722278	0.499869
C35	C	0.755701	0.174169	-0.000101
C36	C	1.255701	0.674169	0.499899
C37	C	1.121351	-0.217870	-0.000112
C38	C	1.621351	0.282130	0.499888
C39	C	1.224987	-0.257595	-0.000120
C40	C	1.724987	0.242405	0.499880
C41	C	1.223071	-0.354404	-0.000529
C42	C	1.723071	0.145596	0.499471
C43	C	1.117986	-0.385678	-0.000120
C44	C	1.617986	0.114322	0.499880
C45	C	1.060330	-0.343331	-0.101926
C46	C	1.560330	0.156669	0.398074
C47	C	1.062947	-0.246498	-0.102008
C48	C	1.562947	0.253502	0.397992
C49	C	1.073861	-0.256420	0.101148
C50	C	1.573861	0.243580	0.601148
C51	C	1.073953	-0.353429	0.102482
C52	C	1.573953	0.146571	0.602482
C53	C	1.116078	-0.480515	-0.000129
C54	C	1.616078	0.019485	0.499871
C55	C	1.123254	-0.123032	-0.000110
C56	C	1.623254	0.376968	0.499890
C57	C	1.292965	0.205058	-0.000136
C58	C	1.792965	0.705058	0.499864
C59	C	1.398188	0.214569	-0.000140
C60	C	1.898188	0.714569	0.499860
C61	C	1.112716	0.350793	-0.000127
C62	C	1.612716	0.850793	0.499873
C63	C	1.114567	0.443884	-0.000131
C64	C	1.614567	0.943884	0.499869
N65	N	1.104097	0.210844	-0.254344
N66	N	1.604097	0.710844	0.245656
C67	C	1.090713	0.221700	-0.473459
C68	C	1.590713	0.721700	0.026541
C69	C	1.148627	0.174749	-0.526790
C70	C	1.648627	0.674749	-0.026790
C71	C	1.141180	0.180789	-0.648712
C72	C	1.641180	0.680789	-0.148712
C73	C	1.098159	0.215661	-0.351525
C74	C	1.598159	0.715661	0.148475
N75	N	1.135246	0.185602	0.254103
N76	N	1.635246	0.685602	0.754103
H77	H	0.622000	0.296970	-0.000117
H78	H	1.122000	0.796970	0.499883
H79	H	1.035543	0.266430	-0.519363
H80	H	1.535543	0.766430	-0.019363
C81	C	1.270875	-0.382552	-0.098374
C82	C	1.770875	0.117448	0.401626
C83	C	1.365513	-0.357068	-0.094064
C84	C	1.865513	0.142932	0.405936
C85	C	1.409581	-0.382964	-0.184192
C86	C	1.909581	0.117036	0.315808
H87	H	1.269989	-0.441874	-0.099080
H88	H	1.769989	0.058126	0.400920
H89	H	1.237461	-0.358069	-0.161735
H90	H	1.737461	0.141931	0.338265
H91	H	1.398918	-0.381554	-0.030719
H92	H	1.898918	0.118446	0.469281
H93	H	1.366427	-0.297749	-0.093372
H94	H	1.866427	0.202251	0.406628
H95	H	1.376168	-0.358481	-0.247554
H96	H	1.876168	0.141519	0.252446
H97	H	1.408689	-0.442286	-0.184891
H98	H	1.908689	0.057714	0.315109
H99	H	1.473795	-0.365670	-0.181285
H100	H	1.973795	0.134330	0.318715
H101	H	0.617333	0.099483	-0.000116
H102	H	1.117333	0.599483	0.499884
H103	H	1.112710	-0.237201	0.178337
H104	H	1.612710	0.262799	0.678337
H105	H	1.267944	-0.383472	0.072432
H106	H	1.767944	0.116528	0.572432
H107	H	0.982883	-0.363025	-0.105419
H108	H	1.482883	0.136975	0.394581
H109	H	1.271103	-0.239630	0.072885
H110	H	1.771103	0.260370	0.572885
H111	H	1.261579	-0.231244	-0.072970
H112	H	1.761579	0.268756	0.427030
H113	H	1.095321	-0.221618	-0.178406
H114	H	1.595321	0.278382	0.321594
H115	H	1.090952	-0.365273	-0.177984
H116	H	1.590952	0.134727	0.322016
C117	C	0.961055	-0.210909	-0.107847
C118	C	1.461055	0.289091	0.392153
C119	C	0.897411	-0.276610	-0.111282
C120	C	1.397411	0.223390	0.388718
C121	C	0.803542	-0.243861	-0.116681
C122	C	1.303542	0.256139	0.383319
H123	H	0.951812	-0.180445	-0.046301
H124	H	1.451812	0.319555	0.453699
H125	H	0.949791	-0.174598	-0.170742
H126	H	1.449791	0.325402	0.329258
H127	H	0.908670	-0.312906	-0.048394
H128	H	1.408670	0.187094	0.451606
H129	H	0.906623	-0.307079	-0.172825
H130	H	1.406623	0.192921	0.327175
H131	H	0.792278	-0.207550	-0.179576
H132	H	1.292278	0.292450	0.320424
H133	H	0.794310	-0.213398	-0.055133
H134	H	1.294310	0.286602	0.444867
H135	H	0.760348	-0.288433	-0.119023
H136	H	1.260348	0.211567	0.380977
H137	H	1.116116	-0.381704	0.177799
H138	H	1.616116	0.118296	0.677799
H139	H	0.997719	-0.374818	0.108943
H140	H	1.497719	0.125182	0.608943
H141	H	0.997507	-0.230405	0.102126
H142	H	1.497507	0.269595	0.602126
H143	H	1.203802	0.130017	-0.480880
H144	H	1.703802	0.630017	0.019120
