data_functionalizedCrystal
_audit_creation_method	'MofGen! by Chris Wilmer'
_symmetry_space_group_name_H-M	'P1'
_symmetry_Int_Tables_number	1
_symmetry_cell_setting	triclinic
loop_
_symmetry_equiv_pos_as_xyz
  x,y,z
_cell_length_a	15.944545
_cell_length_b	27.731996
_cell_length_c	15.021413
_cell_angle_alpha	89.998029
_cell_angle_beta	89.995468
_cell_angle_gamma	83.058780
loop_
_atom_site_label
_atom_site_type_symbol
_atom_site_fract_x
_atom_site_fract_y
_atom_site_fract_z
O1	O	1.113697	0.062321	-0.073986
O2	O	0.869043	0.070010	-0.074002
O3	O	0.998991	-0.004200	-0.073975
O4	O	0.983749	0.136531	-0.074014
O5	O	0.998971	-0.004189	0.074090
O6	O	0.869023	0.070021	0.074062
O7	O	1.113676	0.062332	0.074078
Zn8	Zn	0.991346	0.066178	0.097578
Zn9	Zn	0.991373	0.066164	-0.097503
O10	O	0.983728	0.136542	0.074050
C11	C	0.837743	0.069697	0.000028
C12	C	0.744510	0.068742	0.000023
C13	C	0.474532	0.019888	0.000046
C14	C	0.524788	0.043446	0.073045
C15	C	0.408912	0.065334	0.000039
C16	C	0.524788	0.043448	-0.072935
C17	C	0.573803	0.067006	0.000030
C18	C	0.457939	0.088881	0.073098
C19	C	0.457937	0.088876	-0.072947
C20	C	0.508159	0.112468	0.000070
C21	C	0.313922	0.064370	0.000045
C22	C	0.668789	0.067974	0.000030
C23	C	0.998668	-0.022203	0.000061
C24	C	0.997725	-0.075864	0.000070
C25	C	0.991802	-0.408611	-0.080684
C26	C	0.988221	-0.610285	-0.080700
O27	O	0.987732	-0.636363	-0.149341
N28	N	0.987765	-0.635498	0.000009
C29	C	0.988199	-0.610290	0.080728
O30	O	0.987720	-0.636362	0.149375
C31	C	0.991774	-0.408617	0.080743
C32	C	0.992239	-0.383407	0.000028
C33	C	0.992266	-0.383401	-0.161392
C34	C	0.993166	-0.332986	-0.161387
C35	C	0.993602	-0.307781	-0.080675
C36	C	0.993139	-0.332991	0.000033
C37	C	0.992202	-0.383408	0.161460
C38	C	0.993094	-0.332987	0.161457
C39	C	0.993558	-0.307777	0.080743
C40	C	0.994475	-0.257371	0.080750
N41	N	0.994931	-0.232158	0.000041
C42	C	0.994495	-0.257363	-0.080671
C43	C	0.986323	-0.716171	0.080714
C44	C	0.985431	-0.766589	0.080711
C45	C	0.985452	-0.766581	-0.080717
C46	C	0.986350	-0.716163	-0.080713
C47	C	0.986779	-0.690958	0.000005
C48	C	0.996385	-0.151488	-0.080655
C49	C	0.997289	-0.101069	-0.080643
C50	C	0.997263	-0.101081	0.080785
C51	C	0.996364	-0.151496	0.080773
C52	C	0.995922	-0.176698	0.000046
O53	O	0.994955	-0.231262	0.149356
O54	O	0.994955	-0.231281	-0.149308
C55	C	0.990903	-0.459027	-0.080689
C56	C	0.990439	-0.484237	0.000019
C57	C	0.990875	-0.459032	0.080731
C58	C	0.989547	-0.534655	0.000015
C59	C	0.989110	-0.559860	-0.080697
C60	C	0.989566	-0.534646	-0.161406
C61	C	0.990466	-0.484231	-0.161401
C62	C	0.990419	-0.484245	0.161440
C63	C	0.989520	-0.534660	0.161429
C64	C	0.989084	-0.559865	0.080716
C65	C	1.144976	0.062645	0.000045
C66	C	1.238210	0.063600	0.000045
C67	C	0.984052	0.154545	0.000013
C68	C	0.984995	0.208206	-0.000002
N69	N	0.991334	0.066187	0.230716
N70	N	0.991393	0.066151	-0.230640
C71	C	0.931237	0.100486	0.470386
C72	C	1.007012	0.109869	0.529723
C73	C	0.991355	0.066175	0.412323
C74	C	0.915601	0.056803	0.529728
C75	C	0.991369	0.066165	0.587747
C76	C	1.067168	0.075580	0.470353
C77	C	0.975708	0.022495	0.470353
C78	C	1.051538	0.031859	0.529662
C79	C	0.991346	0.066182	0.311265
C80	C	0.991388	0.066157	0.688802
H81	H	0.523126	0.151637	0.000102
C82	C	0.862630	0.139712	0.435214
H83	H	0.873897	0.170725	0.455542
H84	H	0.808914	0.133364	0.456414
H85	H	0.862771	0.139253	0.371976
H86	H	0.990776	-0.463728	0.227168
C87	C	0.991682	-0.411128	0.250248
H88	H	0.992058	-0.388888	0.298309
H89	H	1.040329	-0.434486	0.253623
H90	H	0.942322	-0.427104	0.253595
H91	H	0.962436	-0.014429	0.444255
C92	C	0.829050	0.046093	0.564952
H93	H	0.786399	0.070504	0.544643
H94	H	0.829826	0.045870	0.628185
H95	H	0.817522	0.015301	0.543739
C96	C	1.120292	-0.007349	0.564606
H97	H	1.094808	-0.030206	0.599419
H98	H	1.159244	0.007468	0.600212
H99	H	1.149233	-0.023503	0.515738
C100	C	0.993661	-0.305260	-0.250174
H101	H	0.993262	-0.327498	-0.298237
H102	H	1.043007	-0.289277	-0.253539
H103	H	0.945000	-0.281907	-0.253529
H104	H	0.428864	0.108064	0.134880
C105	C	1.024904	0.159762	0.564966
H106	H	0.982133	0.184109	0.544678
H107	H	1.078310	0.166655	0.543766
H108	H	1.025285	0.159303	0.628202
C109	C	1.153737	0.086348	0.435275
H110	H	1.153193	0.086304	0.372032
H111	H	1.196464	0.062117	0.456043
H112	H	1.164949	0.117276	0.456097
H113	H	0.459403	-0.019251	0.000128
H114	H	0.428742	0.108048	-0.134675
C115	C	0.564219	0.017525	0.156424
H116	H	0.552994	-0.015349	0.156344
H117	H	0.540446	0.033347	0.208263
H118	H	0.623551	0.018574	0.156089
H119	H	0.997669	-0.080545	-0.146373
C120	C	0.564208	0.017507	-0.156304
H121	H	0.552964	-0.015363	-0.156200
H122	H	0.623537	0.018553	-0.155998
H123	H	0.540424	0.033322	-0.208150
C124	C	0.991795	-0.411120	-0.250184
H125	H	0.992206	-0.388878	-0.298241
H126	H	0.942451	-0.427104	-0.253561
H127	H	1.040458	-0.434472	-0.253536
C128	C	0.995922	-0.179205	-0.169452
H129	H	0.996340	-0.156965	-0.217512
H130	H	0.946579	-0.195189	-0.172836
H131	H	1.044586	-0.202557	-0.172795
H132	H	0.986727	-0.695640	-0.146438
H133	H	0.990844	-0.463710	-0.227127
H134	H	0.985066	-0.787112	0.146436
C135	C	0.984964	-0.794312	-0.169499
H136	H	0.984359	-0.827949	-0.157934
H137	H	1.034110	-0.789739	-0.202671
H138	H	0.936103	-0.782362	-0.202657
C139	C	0.995856	-0.179228	0.169556
H140	H	0.996240	-0.156994	0.217625
H141	H	1.044499	-0.202589	0.172920
H142	H	0.946492	-0.195202	0.172902
C143	C	0.989082	-0.562378	-0.250188
H144	H	0.988474	-0.596014	-0.238621
H145	H	1.038232	-0.557807	-0.283355
H146	H	0.940225	-0.550427	-0.283350
C147	C	0.986807	-0.688453	0.169510
H148	H	0.986417	-0.710695	0.217570
H149	H	0.938157	-0.665097	0.172876
H150	H	1.036164	-0.672475	0.172870
C151	C	0.989005	-0.562388	0.250219
H152	H	0.988409	-0.596026	0.238665
H153	H	0.940144	-0.550432	0.283370
H154	H	1.038152	-0.557816	0.283391
H155	H	0.993431	-0.312467	0.227189
H156	H	0.997622	-0.080550	0.146499
