data_functionalizedCrystal
_audit_creation_method	'MofGen! by Chris Wilmer'
_symmetry_space_group_name_H-M	'P1'
_symmetry_Int_Tables_number	1
_symmetry_cell_setting	triclinic
loop_
_symmetry_equiv_pos_as_xyz
  x,y,z
_cell_length_a	18.215407
_cell_length_b	25.639239
_cell_length_c	18.215399
_cell_angle_alpha	89.969965
_cell_angle_beta	89.980167
_cell_angle_gamma	90.039134
loop_
_atom_site_label
_atom_site_type_symbol
_atom_site_fract_x
_atom_site_fract_y
_atom_site_fract_z
Zn1	Zn	1.125001	-0.208150	-0.416105
Zn2	Zn	1.124880	-0.295586	-0.293034
Zn3	Zn	1.001934	-0.208167	-0.293053
Zn4	Zn	1.001870	-0.295557	-0.416059
O5	O	1.063421	-0.251865	-0.354563
O6	O	1.227970	-0.219754	-0.399791
O7	O	1.108547	-0.284009	-0.190052
O8	O	1.018337	-0.135000	-0.309403
O9	O	1.227880	-0.283992	-0.309372
O10	O	1.108754	-0.134987	-0.399809
O11	O	1.018219	-0.219783	-0.190066
O12	O	0.898941	-0.219754	-0.309358
O13	O	1.018228	-0.283943	-0.519050
O14	O	0.898894	-0.283959	-0.399731
O15	O	1.108692	-0.219725	-0.519083
O16	O	1.108485	-0.368747	-0.309327
O17	O	1.018110	-0.368726	-0.399713
C18	C	0.872215	-0.251856	-0.354542
C19	C	0.790416	-0.251865	-0.354550
C20	C	0.602217	-0.285349	-0.401548
C21	C	0.525358	-0.285350	-0.401557
C22	C	0.525378	-0.218391	-0.307594
C23	C	0.602235	-0.218387	-0.307589
C24	C	0.640653	-0.251869	-0.354565
C25	C	0.486937	-0.251874	-0.354579
C26	C	0.403603	-0.251876	-0.354589
C27	C	0.723992	-0.251867	-0.354556
C28	C	1.063298	-0.387708	-0.354529
C29	C	1.063312	-0.445822	-0.354539
C30	C	1.110602	-0.806183	-0.307579
C31	C	1.110631	-0.860787	-0.307589
O32	O	1.150711	-0.889023	-0.267625
N33	N	1.063551	-0.888104	-0.354612
C34	C	1.016444	-0.860813	-0.401633
O35	O	0.976402	-0.889062	-0.441631
C36	C	1.016420	-0.806210	-0.401626
C37	C	1.063498	-0.778896	-0.354595
C38	C	1.157677	-0.778869	-0.260553
C39	C	1.157647	-0.724269	-0.260542
C40	C	1.110543	-0.696982	-0.307558
C41	C	1.063468	-0.724296	-0.354584
C42	C	0.969318	-0.778920	-0.448650
C43	C	0.969298	-0.724313	-0.448640
C44	C	1.016376	-0.697000	-0.401609
C45	C	1.016334	-0.642408	-0.401590
N46	N	1.063414	-0.615092	-0.354567
C47	C	1.110519	-0.642379	-0.307551
C48	C	1.016500	-0.975484	-0.401644
C49	C	1.016520	-1.030086	-0.401648
C50	C	1.110708	-1.030057	-0.307605
C51	C	1.110683	-0.975453	-0.307598
C52	C	1.063580	-0.948167	-0.354621
C53	C	1.110452	-0.527714	-0.307532
C54	C	1.110416	-0.473108	-0.307523
C55	C	1.016232	-0.473143	-0.401569
C56	C	1.016265	-0.527743	-0.401575
C57	C	1.063381	-0.555027	-0.354554
O58	O	0.976277	-0.614138	-0.441536
O59	O	1.150561	-0.614123	-0.267567
C60	C	1.255374	-0.251874	-0.354584
C61	C	1.337173	-0.251878	-0.354594
C62	C	1.063466	-0.251829	-0.546516
C63	C	1.063485	-0.251814	-0.628315
C64	C	1.063566	-0.115492	-0.354613
C65	C	1.063627	-0.057378	-0.354634
C66	C	1.110607	-0.218344	-0.816528
C67	C	1.110616	-0.218329	-0.893386
C68	C	1.016416	-0.285202	-0.893340
C69	C	1.016404	-0.285214	-0.816483
C70	C	1.063504	-0.251786	-0.778078
C71	C	1.063524	-0.251759	-0.931795
C72	C	1.063534	-0.251742	-1.015128
C73	C	1.063494	-0.251801	-0.694739
C74	C	1.063419	-0.251863	-0.163357
C75	C	1.063543	-0.251731	-0.081558
H76	H	0.494089	-0.191131	-0.269346
C77	C	1.152658	-1.113751	-0.265962
C78	C	1.162553	-1.060057	-0.255988
H79	H	1.184684	-1.132272	-0.234119
H80	H	1.103248	-1.122759	-0.255086
H81	H	1.163343	-1.122638	-0.315445
H82	H	1.151862	-1.051170	-0.206506
H83	H	1.211974	-1.051047	-0.266859
C84	C	0.923419	-1.024617	-0.494604
C85	C	0.964766	-1.060106	-0.453341
H86	H	0.891474	-1.043150	-0.526523
H87	H	0.895279	-1.003358	-0.462507
H88	H	0.955467	-1.003281	-0.522774
H89	H	0.932718	-1.081439	-0.425166
H90	H	0.992908	-1.081374	-0.485442
H91	H	0.978136	-0.953270	-0.439934
H92	H	0.930941	-0.702100	-0.486935
C93	C	0.923147	-0.478643	-0.494543
C94	C	0.964463	-0.443143	-0.453256
H95	H	0.891189	-0.460120	-0.526453
H96	H	0.955207	-0.499906	-0.522717
H97	H	0.895014	-0.499974	-0.462456
H98	H	0.992601	-0.421814	-0.485343
H99	H	0.932399	-0.421871	-0.425079
H100	H	0.930978	-0.801150	-0.486945
H101	H	0.978071	-0.312419	-0.924618
H102	H	1.148971	-0.191096	-0.924688
H103	H	1.149019	-0.953218	-0.269302
C104	C	1.120792	-0.589161	-0.208566
C105	C	1.162246	-0.557706	-0.255858
H106	H	1.152768	-0.607680	-0.176670
H107	H	1.088742	-0.567900	-0.180376
H108	H	1.092760	-0.613242	-0.236580
H109	H	1.190274	-0.533622	-0.227843
H110	H	1.194309	-0.578969	-0.284050
H111	H	1.148956	-0.191123	-0.785261
C112	C	0.923296	-0.351322	-0.824151
C113	C	0.964627	-0.321979	-0.774213
H114	H	0.891335	-0.374019	-0.798054
H115	H	0.895172	-0.328538	-0.854130
H116	H	0.955352	-0.371317	-0.854127
H117	H	0.932571	-0.301981	-0.744240
H118	H	0.992753	-0.344765	-0.744221
H119	H	1.196039	-0.801080	-0.222266
C120	C	0.594476	-0.351530	-0.494435
C121	C	0.644447	-0.322146	-0.453192
H122	H	0.620546	-0.374243	-0.526323
H123	H	0.564471	-0.371503	-0.462325
H124	H	0.564527	-0.328769	-0.522639
H125	H	0.674392	-0.344907	-0.424984
H126	H	0.674464	-0.302171	-0.485306
H127	H	0.977932	-0.549983	-0.439874
C128	C	0.407535	-0.315085	-0.443293
C129	C	0.483109	-0.322153	-0.453202
H130	H	0.381454	-0.337804	-0.475183
H131	H	0.394914	-0.322694	-0.393835
H132	H	0.394984	-0.279964	-0.454155
H133	H	0.495661	-0.357273	-0.442335
H134	H	0.495736	-0.314547	-0.502672
C135	C	0.594540	-0.152201	-0.214700
C136	C	0.644489	-0.181584	-0.255938
H137	H	0.620628	-0.129484	-0.182814
H138	H	0.564595	-0.132232	-0.246814
H139	H	0.564530	-0.174963	-0.186495
H140	H	0.674496	-0.158823	-0.284147
H141	H	0.674447	-0.201555	-0.223820
C142	C	1.203525	-0.478572	-0.214567
C143	C	1.162171	-0.443086	-0.255826
H144	H	1.235478	-0.460038	-0.182657
H145	H	1.171488	-0.499905	-0.186393
H146	H	1.231664	-0.499834	-0.246672
H147	H	1.134028	-0.421826	-0.223722
H148	H	1.194213	-0.421744	-0.284003
C149	C	1.250759	-0.729741	-0.167600
C150	C	1.209409	-0.694250	-0.208854
H151	H	1.282721	-0.711210	-0.135695
H152	H	1.218720	-0.751070	-0.139421
H153	H	1.278888	-0.751007	-0.199708
H154	H	1.181275	-0.672987	-0.176746
H155	H	1.241451	-0.672912	-0.237035
