data_functionalizedCrystal
_audit_creation_method	'MofGen! by Chris Wilmer'
_symmetry_space_group_name_H-M	'P1'
_symmetry_Int_Tables_number	1
_symmetry_cell_setting	triclinic
loop_
_symmetry_equiv_pos_as_xyz
  x,y,z
_cell_length_a	29.839131
_cell_length_b	19.077105
_cell_length_c	19.076919
_cell_angle_alpha	90.076224
_cell_angle_beta	87.728385
_cell_angle_gamma	92.261923
loop_
_atom_site_label
_atom_site_type_symbol
_atom_site_fract_x
_atom_site_fract_y
_atom_site_fract_z
Zn1	Zn	-0.217337	-1.058168	0.440417
Zn2	Zn	0.282663	-0.558168	0.940417
Zn3	Zn	-0.289570	-1.062774	0.322910
Zn4	Zn	0.210430	-0.562774	0.822910
Zn5	Zn	-0.211319	-0.945389	0.318210
Zn6	Zn	0.288681	-0.445389	0.818210
Zn7	Zn	-0.289299	-0.940596	0.435662
Zn8	Zn	0.210701	-0.440596	0.935662
O9	O	-0.251882	-1.001731	0.379300
O10	O	0.248118	-0.501731	0.879300
O11	O	-0.229551	-1.157109	0.428786
O12	O	0.270449	-0.657109	0.928786
O13	O	-0.276785	-1.051136	0.223955
O14	O	0.223215	-0.551136	0.723955
O15	O	-0.149253	-0.960427	0.334444
O16	O	0.350747	-0.460427	0.834444
O17	O	-0.282620	-1.160493	0.342454
O18	O	0.217380	-0.660493	0.842454
O19	O	-0.153675	-1.043286	0.424229
O20	O	0.346325	-0.543286	0.924229
O21	O	-0.219294	-0.964893	0.220502
O22	O	0.280706	-0.464893	0.720502
O23	O	-0.219031	-0.846422	0.329834
O24	O	0.280969	-0.346422	0.829834
O25	O	-0.282159	-0.952258	0.534624
O26	O	0.217841	-0.452258	1.034624
O27	O	-0.276323	-0.842901	0.416125
O28	O	0.223677	-0.342901	0.916125
O29	O	-0.229289	-1.038638	0.538117
O30	O	0.270711	-0.538638	1.038117
O31	O	-0.352399	-1.046488	0.337844
O32	O	0.147601	-0.546488	0.837844
O33	O	-0.352200	-0.956724	0.420682
O34	O	0.147800	-0.456724	0.920682
C35	C	-0.368600	-1.001605	0.379273
C36	C	0.131400	-0.501605	0.879273
C37	C	-0.418535	-1.001614	0.379288
C38	C	0.081465	-0.501614	0.879288
C39	C	-0.246995	-0.819165	0.371954
C40	C	0.253005	-0.319165	0.871954
C41	C	-0.244916	-0.741062	0.368828
C42	C	0.255084	-0.241062	0.868828
C43	C	-0.256365	-0.994400	0.562580
C44	C	0.243635	-0.494400	1.062580
C45	C	-0.258275	-0.991276	0.640683
C46	C	0.241725	-0.491276	1.140683
C47	C	-0.775038	-0.955020	0.422432
C48	C	-0.275038	-0.455020	0.922432
C49	C	-0.587362	-0.954928	0.422406
C50	C	-0.087362	-0.454928	0.922406
O51	O	-0.563022	-0.915161	0.459070
O52	O	-0.063022	-0.415161	0.959070
N53	N	-0.563983	-1.001687	0.379312
N54	N	-0.063983	-0.501687	0.879312
C55	C	-0.587525	-1.048475	0.336224
C56	C	-0.087525	-0.548475	0.836224
O57	O	-0.563334	-1.088249	0.299574
O58	O	-0.063334	-0.588249	0.799574
C59	C	-0.775201	-1.048570	0.336254
C60	C	-0.275201	-0.548570	0.836254
C61	C	-0.798578	-1.001803	0.379346
C62	C	-0.298578	-0.501803	0.879346
C63	C	-0.798415	-0.908258	0.465521
C64	C	-0.298415	-0.408258	0.965521
C65	C	-0.845331	-0.908279	0.465525
C66	C	-0.345331	-0.408279	0.965525
C67	C	-0.868871	-0.955062	0.422438
C68	C	-0.368871	-0.455062	0.922438
C69	C	-0.845494	-1.001824	0.379349
C70	C	-0.345494	-0.501824	0.879349
C71	C	-0.798743	-1.095361	0.293170
C72	C	-0.298743	-0.595361	0.793170
C73	C	-0.845665	-1.095381	0.293183
C74	C	-0.345665	-0.595381	0.793183
C75	C	-0.869041	-1.048615	0.336275
C76	C	-0.369041	-0.548615	0.836275
C77	C	-0.915949	-1.048628	0.336266
C78	C	-0.415949	-0.548628	0.836266
N79	N	-0.939328	-1.001870	0.379361
N80	N	-0.439328	-0.501870	0.879361
C81	C	-0.915789	-0.955087	0.422447
C82	C	-0.415789	-0.455087	0.922447
C83	C	-0.488993	-1.048421	0.336210
C84	C	0.011007	-0.548421	0.836210
C85	C	-0.442074	-1.048396	0.336202
C86	C	0.057926	-0.548396	0.836202
C87	C	-0.441915	-0.954851	0.422385
C88	C	0.058085	-0.454851	0.922385
C89	C	-0.488834	-0.954872	0.422390
C90	C	0.011166	-0.454872	0.922390
C91	C	-0.512373	-1.001662	0.379305
C92	C	-0.012373	-0.501662	0.879305
C93	C	-1.014316	-0.955134	0.422450
C94	C	-0.514316	-0.455134	0.922450
C95	C	-1.061236	-0.955157	0.422447
C96	C	-0.561236	-0.455157	0.922447
C97	C	-1.061392	-1.048705	0.336266
C98	C	-0.561392	-0.548705	0.836266
C99	C	-1.014476	-1.048679	0.336266
C100	C	-0.514476	-0.548679	0.836266
C101	C	-0.990939	-1.001891	0.379364
C102	C	-0.490939	-0.501891	0.879364
O103	O	-0.940318	-1.088380	0.299628
O104	O	-0.440318	-0.588380	0.799628
O105	O	-0.939990	-0.915329	0.459103
O106	O	-0.439990	-0.415329	0.959103
C107	C	-0.728122	-0.955000	0.422429
C108	C	-0.228122	-0.455000	0.922429
C109	C	-0.704745	-1.001762	0.379340
C110	C	-0.204745	-0.501762	0.879340
C111	C	-0.728285	-1.048545	0.336253
C112	C	-0.228285	-0.548545	0.836253
C113	C	-0.657827	-1.001737	0.379331
C114	C	-0.157827	-0.501737	0.879331
C115	C	-0.634288	-0.954954	0.422417
C116	C	-0.134288	-0.454954	0.922417
C117	C	-0.657667	-0.908196	0.465512
C118	C	-0.157667	-0.408196	0.965512
C119	C	-0.704583	-0.908217	0.465515
C120	C	-0.204583	-0.408217	0.965515
C121	C	-0.704905	-1.095303	0.293159
C122	C	-0.204905	-0.595303	0.793159
C123	C	-0.657989	-1.095278	0.293158
C124	C	-0.157989	-0.595278	0.793158
C125	C	-0.634450	-1.048495	0.336245
C126	C	-0.134450	-0.548495	0.836245
C127	C	-0.134708	-1.001877	0.379343
C128	C	0.365292	-0.501877	0.879343
C129	C	-0.084776	-1.001940	0.379361
C130	C	0.415224	-0.501940	0.879361
C131	C	-0.256787	-1.185010	0.386674
C132	C	0.243213	-0.685010	0.886674
C133	C	-0.258878	-1.263113	0.389817
C134	C	0.241122	-0.763113	0.889817
C135	C	-0.273809	-0.702557	0.412217
C136	C	0.226191	-0.202557	0.912217
C137	C	-0.271850	-0.629171	0.409283
C138	C	0.228150	-0.129171	0.909283
C139	C	-0.240999	-0.594291	0.362957
C140	C	0.259001	-0.094291	0.862957
C141	C	-0.212102	-0.632801	0.319567
C142	C	0.287898	-0.132801	0.819567
C143	C	-0.214060	-0.706186	0.322505
C144	C	0.285940	-0.206186	0.822505
C145	C	-0.231939	-0.375008	0.349365
C146	C	0.268061	0.124992	0.849365
C147	C	-0.229984	-0.301618	0.346429
C148	C	0.270016	0.198382	0.846429
C149	C	-0.289732	-0.297992	0.436146
C150	C	0.210268	0.202008	0.936146
C151	C	-0.291688	-0.371379	0.439076
C152	C	0.208312	0.128621	0.939076
C153	C	-0.262790	-0.409883	0.395689
C154	C	0.237210	0.090117	0.895689
N155	N	-0.238996	-0.519278	0.359956
N156	N	0.261004	-0.019278	0.859956
N157	N	-0.264791	-0.484894	0.398694
N158	N	0.235209	0.015106	0.898694
C159	C	-0.247385	-1.009075	0.196734
C160	C	0.252615	-0.509075	0.696734
C161	C	-0.245351	-1.012335	0.118637
C162	C	0.254649	-0.512335	0.618637
C163	C	-0.231647	-1.034779	0.679196
C164	C	0.268353	-0.534779	1.179196
C165	C	-0.233440	-1.031835	0.752581
C166	C	0.266560	-0.531835	1.252581
C167	C	-0.261864	-0.985390	0.787453
C168	C	0.238136	-0.485390	1.287453
C169	C	-0.288493	-0.941882	0.748935
C170	C	0.211507	-0.441882	1.248935
C171	C	-0.286697	-0.944823	0.675551
C172	C	0.213303	-0.444823	1.175551
C173	C	-0.270184	-0.971768	1.006734
C174	C	0.229816	-0.471768	1.506734
C175	C	-0.271979	-0.968832	1.080124
C176	C	0.228021	-0.468832	1.580124
C177	C	-0.216926	-1.058784	1.083765
C178	C	0.283074	-0.558784	1.583765
C179	C	-0.215134	-1.061724	1.010379
C180	C	0.284866	-0.561724	1.510379
C181	C	-0.241761	-1.018213	0.971868
C182	C	0.258239	-0.518213	1.471868
N183	N	-0.263699	-0.982381	0.862465
N184	N	0.236301	-0.482381	1.362465
N185	N	-0.239924	-1.021219	0.896857
N186	N	0.260076	-0.521219	1.396857
H187	H	-1.080268	-0.917072	0.457540
H188	H	-0.580268	-0.417072	0.957540
H189	H	-0.204857	-0.273221	0.308709
H190	H	0.295143	0.226779	0.808709
F191	F	-0.324525	-0.408495	0.488381
F192	F	0.175475	0.091505	0.988381
F193	F	-0.318742	-0.892450	0.786050
F194	F	0.181258	-0.392450	1.286050
F195	F	-0.205115	-1.078161	0.793567
F196	F	0.294885	-0.578161	1.293567
F197	F	-0.179266	-0.595678	0.270268
F198	F	0.320734	-0.095678	0.770268
H199	H	-0.208411	-0.406349	0.314030
H200	H	0.291589	0.093651	0.814030
F201	F	-0.302231	-0.919394	1.117236
F202	F	0.197769	-0.419394	1.617236
F203	F	-0.306648	-0.739672	0.461520
F204	F	0.193352	-0.239672	0.961520
H205	H	-0.723612	-0.870136	0.500606
H206	H	-0.223612	-0.370136	1.000606
F207	F	-0.320486	-0.257009	0.482317
F208	F	0.179514	0.242991	0.982317
F209	F	-0.184882	-1.111157	0.973272
F210	F	0.315118	-0.611157	1.473272
H211	H	-0.195247	-1.094207	1.115129
H212	H	0.304753	-0.594207	1.615129
F213	F	-0.298523	-0.925460	0.965757
F214	F	0.201477	-0.425460	1.465757
H215	H	-0.779254	-0.870162	0.500611
H216	H	-0.279254	-0.370162	1.000611
F217	F	-0.183307	-0.747166	0.276326
F218	F	0.316693	-0.247166	0.776326
F219	F	-0.201397	-1.084215	0.642089
F220	F	0.298603	-0.584215	1.142089
H221	H	-0.308376	-0.909391	0.644194
H222	H	0.191624	-0.409391	1.144194
H223	H	-0.507864	-0.916795	0.457483
H224	H	-0.007864	-0.416795	0.957483
H225	H	-0.864360	-0.870196	0.500614
H226	H	-0.364360	-0.370196	1.000614
F227	F	-0.989273	-0.905336	0.468319
F228	F	-0.489273	-0.405336	0.968319
H229	H	-0.422741	-0.916757	0.457467
H230	H	0.077259	-0.416757	0.957467
H231	H	-0.423044	-1.086470	0.301104
H232	H	0.076956	-0.586470	0.801104
H233	H	-0.508154	-1.086525	0.301122
H234	H	-0.008154	-0.586525	0.801122
H235	H	-0.779716	-1.133442	0.258081
H236	H	-0.279716	-0.633442	0.758081
H237	H	-1.080566	-1.086792	0.301184
H238	H	-0.580566	-0.586792	0.801184
F239	F	-0.870713	-1.145185	0.247326
F240	F	-0.370713	-0.645185	0.747326
F241	F	-0.632607	-0.858404	0.511365
F242	F	-0.132607	-0.358404	1.011365
F243	F	-0.989595	-1.098441	0.290390
F244	F	-0.489595	-0.598441	0.790390
H245	H	-0.724066	-1.133401	0.258073
H246	H	-0.224066	-0.633401	0.758073
F247	F	-0.302602	-0.588194	0.455463
F248	F	0.197398	-0.088194	0.955463
F249	F	-0.633115	-1.145055	0.247288
F250	F	-0.133115	-0.645055	0.747288
