data_functionalizedCrystal
_audit_creation_method	'MofGen! by Chris Wilmer'
_symmetry_space_group_name_H-M	'P1'
_symmetry_Int_Tables_number	1
_symmetry_cell_setting	triclinic
loop_
_symmetry_equiv_pos_as_xyz
  x,y,z
_cell_length_a	14.853567
_cell_length_b	17.699083
_cell_length_c	13.330367
_cell_angle_alpha	89.996702
_cell_angle_beta	89.995281
_cell_angle_gamma	83.458973
loop_
_atom_site_label
_atom_site_type_symbol
_atom_site_fract_x
_atom_site_fract_y
_atom_site_fract_z
O1	O	-1.196005	-0.098812	0.083356
O2	O	-0.696005	0.401188	0.583356
O3	O	-0.933503	-0.110583	0.083374
O4	O	-0.433503	0.389417	0.583374
O5	O	-1.072170	0.005472	0.083356
O6	O	-0.572170	0.505472	0.583356
O7	O	-1.057338	-0.214868	0.083374
O8	O	-0.557338	0.285132	0.583374
O9	O	-1.072149	0.005470	-0.083491
O10	O	-0.572149	0.505470	0.416509
O11	O	-0.933482	-0.110586	-0.083473
O12	O	-0.433482	0.389414	0.416527
O13	O	-1.195984	-0.098814	-0.083491
O14	O	-0.695984	0.401186	0.416509
Cu15	Cu	-1.064731	-0.104700	-0.098717
Cu16	Cu	-0.564731	0.395300	0.401283
Cu17	Cu	-1.064756	-0.104697	0.098600
Cu18	Cu	-0.564756	0.395303	0.598600
O19	O	-1.057317	-0.214870	-0.083473
O20	O	-0.557317	0.285130	0.416527
C21	C	-0.899905	-0.110051	-0.000048
C22	C	-0.399905	0.389949	0.499952
C23	C	-0.799828	-0.108453	-0.000041
C24	C	-0.299828	0.391547	0.499959
C25	C	-1.071628	0.033670	-0.000068
C26	C	-0.571628	0.533670	0.499932
C27	C	-1.070034	0.117692	-0.000068
C28	C	-0.570034	0.617692	0.499932
C29	C	-1.229582	-0.099347	-0.000067
C30	C	-0.729582	0.400653	0.499933
C31	C	-1.329659	-0.100945	-0.000067
C32	C	-0.829659	0.399055	0.499933
C33	C	-0.387572	-0.032757	-0.000070
C34	C	0.112428	0.467243	0.499930
C35	C	-0.365784	-0.170634	-0.000057
C36	C	0.134216	0.329366	0.499943
C37	C	-0.459812	-0.172136	-0.000054
C38	C	0.040188	0.327864	0.499946
C39	C	-0.517725	-0.103948	-0.000057
C40	C	-0.017725	0.396052	0.499943
C41	C	-0.481610	-0.034258	-0.000064
C42	C	0.018390	0.465742	0.499936
C43	C	-0.495934	-0.241826	-0.000037
C44	C	0.004066	0.258174	0.499963
C45	C	-0.589968	-0.243332	-0.000033
C46	C	-0.089968	0.256668	0.499967
C47	C	-0.647883	-0.175143	-0.000043
C48	C	-0.147883	0.324857	0.499957
C49	C	-0.611762	-0.105449	-0.000051
C50	C	-0.111762	0.394551	0.499949
C51	C	-0.669675	-0.037261	-0.000054
C52	C	-0.169675	0.462739	0.499946
C53	C	-0.633556	0.032433	-0.000069
C54	C	-0.133556	0.532433	0.499931
C55	C	-0.539524	0.033931	-0.000074
C56	C	-0.039524	0.533931	0.499926
C57	C	-0.741915	-0.176641	-0.000038
C58	C	-0.241915	0.323359	0.499962
C59	C	-0.763712	-0.038762	-0.000048
C60	C	-0.263712	0.461238	0.499952
C61	C	-1.057859	-0.243067	-0.000047
C62	C	-0.557859	0.256933	0.499953
C63	C	-1.059453	-0.327089	-0.000040
C64	C	-0.559453	0.172911	0.499960
C65	C	-1.151429	0.166101	-0.000075
C66	C	-0.651429	0.666101	0.499925
C67	C	-1.149925	0.245049	-0.000066
C68	C	-0.649925	0.745049	0.499934
C69	C	-1.067026	0.275585	-0.000057
C70	C	-0.567026	0.775585	0.499943
C71	C	-0.985625	0.227169	-0.000048
C72	C	-0.485625	0.727169	0.499952
C73	C	-0.987129	0.148223	-0.000049
C74	C	-0.487129	0.648223	0.499951
C75	C	-0.979555	0.545548	-0.000039
C76	C	-0.479555	1.045548	0.499961
C77	C	-0.978057	0.624499	-0.000040
C78	C	-0.478057	1.124499	0.499960
C79	C	-1.142352	0.642373	-0.000056
C80	C	-0.642352	1.142373	0.499944
C81	C	-1.143856	0.563428	-0.000058
C82	C	-0.643856	1.063428	0.499942
C83	C	-1.062455	0.515019	-0.000042
C84	C	-0.562455	1.015019	0.499958
C85	C	-1.064087	0.429415	-0.000050
C86	C	-0.564087	0.929415	0.499950
C87	C	-1.065394	0.361187	-0.000057
C88	C	-0.565394	0.861187	0.499943
N89	N	-1.064720	-0.104702	-0.237498
N90	N	-0.564720	0.395298	0.262502
C91	C	-1.010149	-0.058713	-0.290023
C92	C	-0.510149	0.441287	0.209977
C93	C	-1.119302	-0.150687	-0.290001
C94	C	-0.619302	0.349313	0.209999
C95	C	-1.119313	-0.150686	-0.395019
C96	C	-0.619313	0.349314	0.104981
C97	C	-1.064742	-0.104698	-0.447544
C98	C	-0.564742	0.395302	0.052456
C99	C	-1.010160	-0.058710	-0.395051
C100	C	-0.510160	0.441290	0.104949
C101	C	-1.173900	-0.196667	-0.447520
C102	C	-0.673900	0.303333	0.052480
C103	C	-1.173914	-0.196668	-0.552545
C104	C	-0.673914	0.303332	-0.052545
C105	C	-1.119337	-0.150683	-0.605072
C106	C	-0.619337	0.349317	-0.105072
C107	C	-1.064753	-0.104694	-0.552573
C108	C	-0.564753	0.395306	-0.052573
C109	C	-1.010181	-0.058705	-0.605098
C110	C	-0.510181	0.441295	-0.105098
C111	C	-0.955591	-0.012720	-0.552600
C112	C	-0.455591	0.487280	-0.052600
C113	C	-0.955583	-0.012725	-0.447579
C114	C	-0.455583	0.487275	0.052421
C115	C	-1.119345	-0.150678	-0.710094
C116	C	-0.619345	0.349322	-0.210094
C117	C	-1.010192	-0.058702	-0.710126
C118	C	-0.510192	0.441298	-0.210126
N119	N	-1.064774	-0.104690	0.237381
N120	N	-0.564774	0.395310	0.737381
H121	H	-0.810860	0.016766	-0.000054
H122	H	-0.310860	0.516766	0.499946
F123	F	-1.177383	-0.199623	-0.234097
F124	F	-0.677383	0.300377	0.265903
H125	H	-0.910546	0.649358	-0.000035
H126	H	-0.410546	1.149358	0.499965
H127	H	-1.208632	0.681798	-0.000063
H128	H	-0.708632	1.181798	0.499937
F129	F	-1.232089	0.530934	-0.000066
F130	F	-0.732089	1.030934	0.499934
F131	F	-0.695202	0.105001	-0.000065
F132	F	-0.195202	0.605001	0.499935
H133	H	-0.771318	-0.233385	-0.000028
H134	H	-0.271318	0.266615	0.499972
H135	H	-0.920849	0.108808	-0.000044
H136	H	-0.420849	0.608808	0.499956
F137	F	-1.231980	-0.245603	-0.391614
F138	F	-0.731980	0.254397	0.108386
H139	H	-0.510108	0.090673	-0.000110
H140	H	-0.010108	0.590673	0.499890
H141	H	-0.358160	0.023987	-0.000086
H142	H	0.141840	0.523987	0.499914
F143	F	-0.892921	0.494037	-0.000020
F144	F	-0.392921	0.994037	0.499980
H145	H	-0.918126	0.252037	-0.000034
H146	H	-0.418126	0.752037	0.499966
H147	H	-1.163795	-0.188116	-0.752832
H148	H	-0.663795	0.311884	-0.252832
H149	H	-0.965749	-0.021255	-0.752885
H150	H	-0.465749	0.478745	-0.252885
H151	H	-0.911163	0.024727	-0.595380
H152	H	-0.411163	0.524727	-0.095380
H153	H	-1.218935	0.141246	-0.000088
H154	H	-0.718935	0.641246	0.499912
F155	F	-1.236557	0.296567	-0.000075
F156	F	-0.736557	0.796567	0.499925
F157	F	-0.897492	0.036213	-0.391701
F158	F	-0.397492	0.536213	0.108299
H159	H	-0.318626	-0.226149	-0.000046
H160	H	0.181374	0.273851	0.499954
F161	F	-0.434296	-0.314391	-0.000019
F162	F	0.065704	0.185609	0.499981
H163	H	-1.218364	-0.234113	-0.595279
H164	H	-0.718364	0.265887	-0.095279
F165	F	-0.628400	-0.317505	-0.000019
F166	F	-0.128400	0.182495	0.499981
H167	H	-0.965700	-0.021275	-0.247275
H168	H	-0.465700	0.478725	0.252725
