data_functionalizedCrystal
_audit_creation_method	'MofGen! by Chris Wilmer'
_symmetry_space_group_name_H-M	'P1'
_symmetry_Int_Tables_number	1
_symmetry_cell_setting	triclinic
loop_
_symmetry_equiv_pos_as_xyz
  x,y,z
_cell_length_a	29.839134
_cell_length_b	18.101396
_cell_length_c	18.101389
_cell_angle_alpha	90.016209
_cell_angle_beta	90.030437
_cell_angle_gamma	90.032371
loop_
_atom_site_label
_atom_site_type_symbol
_atom_site_fract_x
_atom_site_fract_y
_atom_site_fract_z
Zn1	Zn	-0.686763	0.294999	-0.418971
Zn2	Zn	-0.686692	0.418825	-0.295134
Zn3	Zn	-0.611637	0.294992	-0.295119
Zn4	Zn	-0.611600	0.418793	-0.418909
O5	O	-0.649173	0.356902	-0.357033
O6	O	-0.749621	0.311441	-0.402576
O7	O	-0.676722	0.402408	-0.191499
O8	O	-0.621648	0.191360	-0.311567
O9	O	-0.749569	0.402415	-0.311593
O10	O	-0.676843	0.191365	-0.402561
O11	O	-0.621580	0.311428	-0.191488
O12	O	-0.548765	0.311398	-0.311508
O13	O	-0.621584	0.402362	-0.522550
O14	O	-0.548737	0.402354	-0.402456
O15	O	-0.676807	0.311411	-0.522596
O16	O	-0.676686	0.522454	-0.311534
O17	O	-0.621515	0.522430	-0.402471
C18	C	-0.532451	0.356872	-0.356974
C19	C	-0.482516	0.356878	-0.356966
C20	C	-0.649101	0.549313	-0.357014
C21	C	-0.649111	0.631627	-0.357030
C22	C	-0.172868	0.404340	-0.404309
C23	C	0.014805	0.404364	-0.404332
O24	O	0.039074	0.444680	-0.444565
N25	N	0.038269	0.356939	-0.357055
C26	C	0.014812	0.309502	-0.309772
O27	O	0.039075	0.269160	-0.269566
C28	C	-0.172861	0.309475	-0.309753
C29	C	-0.196322	0.356908	-0.357028
C30	C	-0.196329	0.451768	-0.451580
C31	C	-0.243245	0.451765	-0.451571
C32	C	-0.266699	0.404333	-0.404290
C33	C	-0.243237	0.356905	-0.357018
C34	C	-0.196317	0.262035	-0.262474
C35	C	-0.243238	0.262031	-0.262475
C36	C	-0.266700	0.309464	-0.309750
C37	C	-0.313607	0.309469	-0.309728
N38	N	-0.337071	0.356894	-0.357005
C39	C	-0.313617	0.404326	-0.404286
C40	C	0.113342	0.309520	-0.309785
C41	C	0.160260	0.309528	-0.309789
C42	C	0.160250	0.404389	-0.404350
C43	C	0.113332	0.404384	-0.404342
C44	C	0.089878	0.356945	-0.357062
C45	C	-0.412142	0.404315	-0.404263
C46	C	-0.459062	0.404309	-0.404247
C47	C	-0.459048	0.309446	-0.309689
C48	C	-0.412133	0.309454	-0.309702
C49	C	-0.388681	0.356891	-0.356995
O50	O	-0.337905	0.269168	-0.269523
O51	O	-0.337888	0.444650	-0.444498
C52	C	-0.125952	0.404344	-0.404318
C53	C	-0.102491	0.356915	-0.357046
C54	C	-0.125945	0.309483	-0.309765
C55	C	-0.055573	0.356923	-0.357050
C56	C	-0.032119	0.404354	-0.404331
C57	C	-0.055583	0.451779	-0.451608
C58	C	-0.102498	0.451775	-0.451599
C59	C	-0.102481	0.262059	-0.262488
C60	C	-0.055566	0.262067	-0.262501
C61	C	-0.032112	0.309499	-0.309782
C62	C	-0.649199	0.356884	-0.550195
C63	C	-0.649210	0.356876	-0.632509
C64	C	0.233649	0.356936	-0.357081
C65	C	0.183714	0.356960	-0.357069
C66	C	-0.649191	0.930718	-0.357073
C67	C	-0.614562	0.899409	-0.414430
C68	C	-0.614403	0.813791	-0.414250
C69	C	-0.649151	0.782335	-0.357052
C70	C	-0.636332	0.813471	-0.278999
C71	C	-0.636103	0.899116	-0.279343
C72	C	-0.696718	0.899072	-0.377082
C73	C	-0.696444	0.813421	-0.378793
C74	C	-0.649130	0.698476	-0.357036
C75	C	-0.649212	1.014577	-0.357084
C76	C	-0.649242	1.163740	-0.357072
C77	C	-0.649231	1.081426	-0.357096
C78	C	-0.649236	0.356737	-0.931601
C79	C	-0.614372	0.413779	-0.900247
C80	C	-0.614466	0.414043	-0.814629
C81	C	-0.649223	0.356806	-0.783218
C82	C	-0.696554	0.377996	-0.814333
C83	C	-0.696360	0.378370	-0.899978
C84	C	-0.637181	0.278378	-0.900020
C85	C	-0.636127	0.278830	-0.814368
C86	C	-0.649218	0.356843	-0.699358
C87	C	-0.649244	0.356701	-1.015460
C88	C	-0.649173	0.356867	-0.164623
C89	C	-0.649249	0.356667	-0.082309
H90	H	-0.478162	0.442938	-0.442745
O91	O	-0.568179	0.927977	-0.397094
H92	H	-0.569682	0.964377	-0.347803
H93	H	-0.601362	0.919151	-0.262395
H94	H	-0.723612	0.792005	-0.340063
H95	H	-0.722518	0.919317	-0.335307
H96	H	-0.579177	0.793361	-0.400994
O97	O	-0.624801	0.490237	-0.928796
H98	H	-0.658987	0.506466	-0.910939
O99	O	-0.668055	0.926562	-0.220796
H100	H	-0.683599	0.878660	-0.192360
H101	H	-0.579368	0.400782	-0.793589
H102	H	-0.579168	0.400653	-0.920826
O103	O	0.088046	0.258356	-0.258784
H104	H	0.066691	0.291448	-0.221052
H105	H	-0.601961	0.792078	-0.261747
H106	H	-0.177238	0.490393	-0.490086
H107	H	-0.603267	0.259073	-0.921599
H108	H	-0.660763	0.793096	-0.235097
O109	O	0.185555	0.455623	-0.455269
H110	H	0.161362	0.488634	-0.488118
H111	H	-0.622425	0.472125	-0.794150
O112	O	-0.386851	0.455532	-0.455215
H113	H	-0.411053	0.488531	-0.488056
O114	O	-0.268547	0.502914	-0.502571
H115	H	-0.244349	0.535885	-0.535452
H116	H	-0.036478	0.490402	-0.490104
O117	O	0.185563	0.258373	-0.258796
H118	H	0.161367	0.225386	-0.225927
H119	H	-0.177223	0.223412	-0.223976
O120	O	-0.712194	0.927618	-0.451197
H121	H	-0.743947	0.958737	-0.444154
H122	H	-0.723228	0.337755	-0.793990
H123	H	-0.706111	0.793069	-0.436236
O124	O	0.088027	0.455535	-0.455338
H125	H	0.112224	0.488512	-0.488216
O126	O	-0.670815	0.222082	-0.926884
H127	H	-0.687866	0.196568	-0.878742
O128	O	-0.268535	0.210873	-0.211470
H129	H	-0.244336	0.177901	-0.178595
O130	O	-0.710331	0.453068	-0.785947
H131	H	-0.683546	0.475408	-0.749689
H132	H	-0.622500	0.919968	-0.472493
O133	O	-0.667315	0.219541	-0.786071
H134	H	-0.647751	0.177813	-0.754807
O135	O	-0.731940	0.325743	-0.927465
H136	H	-0.749211	0.300142	-0.879583
H137	H	-0.601296	0.262850	-0.794030
O138	O	-0.709891	0.454247	-0.926463
H139	H	-0.716509	0.490328	-0.878100
O140	O	-0.625025	0.785901	-0.490912
H141	H	-0.624923	0.724584	-0.490860
O142	O	-0.386824	0.258298	-0.258713
H143	H	-0.411017	0.225314	-0.225837
H144	H	-0.478153	0.270831	-0.271192
H145	H	-0.121596	0.490400	-0.490095
H146	H	-0.121573	0.223433	-0.223986
O147	O	-0.030263	0.210902	-0.211510
H148	H	-0.054459	0.177916	-0.178640
