data_functionalizedCrystal
_audit_creation_method	'MofGen! by Chris Wilmer'
_symmetry_space_group_name_H-M	'P1'
_symmetry_Int_Tables_number	1
_symmetry_cell_setting	triclinic
loop_
_symmetry_equiv_pos_as_xyz
  x,y,z
_cell_length_a	19.188930
_cell_length_b	18.266242
_cell_length_c	9.065218
_cell_angle_alpha	90.000210
_cell_angle_beta	95.919667
_cell_angle_gamma	90.020224
loop_
_atom_site_label
_atom_site_type_symbol
_atom_site_fract_x
_atom_site_fract_y
_atom_site_fract_z
O1	O	0.927578	0.061114	-0.184169
O2	O	1.427578	0.561114	0.315831
O3	O	0.724459	0.061063	-0.208962
O4	O	1.224459	0.561063	0.291038
O5	O	0.830217	0.061088	0.018222
O6	O	1.330217	0.561088	0.518222
O7	O	0.821820	0.061089	-0.411354
O8	O	1.321820	0.561089	0.088646
O9	O	0.830203	-0.060674	0.018215
O10	O	1.330203	0.439326	0.518215
O11	O	0.724446	-0.060699	-0.208970
O12	O	1.224446	0.439301	0.291030
O13	O	0.927564	-0.060648	-0.184176
O14	O	1.427564	0.439352	0.315824
Zn15	Zn	0.826003	-0.080006	-0.196574
Zn16	Zn	1.326003	0.419994	0.303426
Zn17	Zn	0.826021	0.080421	-0.196565
Zn18	Zn	1.326021	0.580421	0.303435
O19	O	0.821806	-0.060673	-0.411361
O20	O	1.321806	0.439327	0.088639
C21	C	0.698435	0.000176	-0.208163
C22	C	1.198435	0.500176	0.291837
C23	C	0.620912	0.000157	-0.205753
C24	C	1.120912	0.500157	0.294247
N25	N	0.825995	-0.189493	-0.196580
N26	N	1.325995	0.310507	0.303420
C27	C	0.868941	-0.771758	-0.285787
C28	C	1.368941	-0.271758	0.214213
C29	C	0.868934	-0.695113	-0.285802
C30	C	1.368934	-0.195113	0.214198
C31	C	0.826027	-0.656805	-0.196549
C32	C	1.326027	-0.156805	0.303451
C33	C	0.783111	-0.695149	-0.107304
C34	C	1.283111	-0.195149	0.392696
C35	C	0.783114	-0.771792	-0.107303
C36	C	1.283114	-0.271792	0.392697
N37	N	0.823332	-0.536469	-0.067324
N38	N	1.323332	-0.036469	0.432676
N39	N	0.823333	-0.463661	-0.067329
N40	N	1.323333	0.036339	0.432671
C41	C	0.826014	-0.425883	-0.196550
C42	C	1.326014	0.074117	0.303450
N43	N	0.828707	-0.463664	-0.325767
N44	N	1.328707	0.036336	0.174233
N45	N	0.828710	-0.536479	-0.325760
N46	N	1.328710	-0.036479	0.174240
C47	C	0.826018	-0.573698	-0.196541
C48	C	1.326018	-0.073698	0.303459
C49	C	0.868916	-0.304441	-0.285813
C50	C	1.368916	0.195559	0.214187
C51	C	0.868903	-0.227795	-0.285831
C52	C	1.368903	0.272205	0.214169
C53	C	0.783085	-0.227832	-0.107320
C54	C	1.283085	0.272168	0.392680
C55	C	0.783093	-0.304477	-0.107316
C56	C	1.283093	0.195523	0.392684
C57	C	0.826012	-0.342777	-0.196560
C58	C	1.326012	0.157223	0.303440
C59	C	0.577024	0.000168	-0.339058
C60	C	1.077024	0.500168	0.160942
C61	C	0.504182	0.000176	-0.336793
C62	C	1.004182	0.500176	0.163207
C63	C	0.475232	0.000187	-0.201217
C64	C	0.975232	0.500187	0.298783
C65	C	0.519130	0.000172	-0.067895
C66	C	1.019130	0.500172	0.432105
C67	C	0.591970	0.000156	-0.070163
C68	C	1.091970	0.500156	0.429837
N69	N	0.366452	0.041658	-0.097583
N70	N	0.866452	0.541658	0.402417
N71	N	0.297256	0.041674	-0.095438
N72	N	0.797256	0.541674	0.404562
C73	C	0.255771	0.000232	-0.194375
C74	C	0.755771	0.500232	0.305625
N75	N	0.286093	-0.041217	-0.295561
N76	N	0.786093	0.458783	0.204439
N77	N	0.355294	-0.041230	-0.297711
N78	N	0.855294	0.458770	0.202289
C79	C	0.396251	0.000204	-0.198742
C80	C	0.896251	0.500204	0.301258
C81	C	0.132899	0.000252	-0.325234
C82	C	0.632899	0.500252	0.174766
C83	C	0.060056	0.000255	-0.322964
C84	C	0.560056	0.500255	0.177036
C85	C	0.075006	0.000258	-0.054061
C86	C	0.575006	0.500258	0.445939
C87	C	0.147847	0.000247	-0.056335
C88	C	0.647847	0.500247	0.443665
C89	C	0.176789	0.000247	-0.191925
C90	C	0.676789	0.500247	0.308075
C91	C	0.953588	0.000241	-0.184976
C92	C	1.453588	0.500241	0.315024
C93	C	1.031112	0.000265	-0.187386
C94	C	1.531112	0.500265	0.312614
C95	C	0.829403	0.000208	0.073177
C96	C	1.329403	0.500208	0.573177
C97	C	0.826990	0.000211	0.236936
C98	C	1.326990	0.500211	0.736936
N99	N	0.826033	0.189908	-0.196547
N100	N	1.326033	0.689908	0.303453
C101	C	0.822620	0.000209	-0.466316
C102	C	1.322620	0.500209	0.033684
C103	C	0.825033	0.000211	-0.630075
C104	C	1.325033	0.500211	-0.130075
H105	H	0.903873	-0.663895	-0.358478
H106	H	1.403873	-0.163895	0.141522
O107	O	0.608235	0.000163	-0.485301
O108	O	1.108235	0.500163	0.014699
H109	H	0.666260	0.000156	-0.464489
H110	H	1.166260	0.500156	0.035511
H111	H	0.748145	-0.196643	-0.034658
H112	H	1.248145	0.303357	0.465342
O113	O	0.915204	-0.345749	-0.382077
O114	O	1.415204	0.154251	0.117923
H115	H	0.952288	-0.380641	-0.311144
H116	H	1.452288	0.119359	0.188856
O117	O	0.915225	-0.813063	-0.382057
O118	O	1.415225	-0.313063	0.117943
H119	H	0.952305	-0.847962	-0.311134
H120	H	1.452305	-0.347962	0.188866
H121	H	0.627705	0.000147	0.038393
H122	H	1.127705	0.500147	0.538393
O123	O	0.736841	-0.813153	-0.011044
O124	O	1.236841	-0.313153	0.488956
H125	H	0.769821	-0.848058	0.068404
H126	H	1.269821	-0.348058	0.568404
H127	H	0.183582	0.000241	0.052216
H128	H	0.683582	0.500241	0.552216
O129	O	0.164120	0.000235	-0.471470
O130	O	0.664120	0.500235	0.028530
H131	H	0.146576	0.049860	-0.535517
H132	H	0.646576	0.549860	-0.035517
H133	H	0.748156	-0.335689	-0.034640
H134	H	1.248156	0.164311	0.465360
O135	O	0.456831	0.000197	-0.480575
O136	O	0.956831	0.500197	0.019425
H137	H	0.489194	0.000200	-0.575238
H138	H	0.989194	0.500200	-0.075238
O139	O	0.487913	0.000184	0.078340
O140	O	0.987913	0.500184	0.578340
H141	H	0.429889	0.000203	0.057523
H142	H	0.929889	0.500203	0.557523
O143	O	0.915180	-0.186443	-0.382095
O144	O	1.415180	0.313557	0.117905
H145	H	0.945026	-0.225955	-0.444139
H146	H	1.445026	0.274045	0.055861
O147	O	0.012717	0.000260	-0.466753
O148	O	0.512717	0.500260	0.033247
H149	H	-0.020809	0.049889	-0.472140
H150	H	0.479191	0.549889	0.027860
O151	O	0.736866	-0.653838	-0.010963
O152	O	1.236866	-0.153838	0.489037
H153	H	0.744089	-0.594102	-0.025917
H154	H	1.244089	-0.094102	0.474083
O155	O	0.043794	0.000270	0.092175
O156	O	0.543794	0.500270	0.592175
H157	H	-0.014230	0.000286	0.071360
H158	H	0.485770	0.500286	0.571360
