data_functionalizedCrystal
_audit_creation_method	'MofGen! by Chris Wilmer'
_symmetry_space_group_name_H-M	'P1'
_symmetry_Int_Tables_number	1
_symmetry_cell_setting	triclinic
loop_
_symmetry_equiv_pos_as_xyz
  x,y,z
_cell_length_a	35.277628
_cell_length_b	35.288095
_cell_length_c	35.277682
_cell_angle_alpha	59.997929
_cell_angle_beta	89.998958
_cell_angle_gamma	60.000166
loop_
_atom_site_label
_atom_site_type_symbol
_atom_site_fract_x
_atom_site_fract_y
_atom_site_fract_z
O1	O	-0.323087	-0.271234	0.011271
O2	O	-0.267964	-0.193634	-0.011228
O3	O	-0.267962	-0.271233	0.066395
O4	O	-0.323089	-0.193635	-0.066351
O5	O	-0.204915	-0.334261	0.066394
O6	O	-0.204918	-0.256661	-0.011228
O7	O	-0.260040	-0.334261	0.011271
Cu8	Cu	-0.226722	-0.301216	0.000022
Cu9	Cu	-0.301282	-0.226679	0.000022
O10	O	-0.260043	-0.256662	-0.066351
C11	C	-0.163481	-0.071298	-0.023519
C12	C	-0.186872	-0.024531	-0.020298
C13	C	-0.117860	-0.093995	-0.023838
C14	C	-0.163483	-0.139918	-0.023524
C15	C	-0.186875	-0.166518	-0.020308
C16	C	-0.117862	-0.162510	-0.023843
C17	C	-0.094838	-0.139921	-0.023519
C18	C	-0.044836	-0.166525	-0.020298
C19	C	-0.186401	-0.093991	-0.023843
C20	C	-0.004439	-0.188019	-0.017694
C21	C	-0.205769	0.013252	-0.017695
C22	C	-0.205774	-0.188010	-0.017709
C23	C	0.046241	-0.214983	-0.014429
C24	C	-0.229477	0.060653	-0.014430
C25	C	-0.229483	-0.214971	-0.014450
C26	C	-0.500364	-0.466062	0.034181
C27	C	-0.477341	-0.511990	0.034503
C28	C	-0.431722	-0.466060	0.034178
C29	C	-0.408804	-0.511988	0.034500
C30	C	-0.431721	-0.534685	0.034181
C31	C	-0.477342	-0.443470	0.034500
C32	C	-0.665895	-0.342485	0.021756
C33	C	-0.712772	-0.317221	0.018243
C34	C	-0.736287	-0.338907	0.016481
C35	C	-0.787116	-0.311512	0.012664
C36	C	-0.712921	-0.385861	0.018236
C37	C	-0.666047	-0.411125	0.021755
C38	C	-0.642533	-0.389434	0.023515
C39	C	-0.389805	-0.687746	0.021758
C40	C	-0.368199	-0.731097	0.018245
C41	C	-0.322995	-0.752841	0.016478
C42	C	-0.299567	-0.799839	0.012662
C43	C	-0.299393	-0.731235	0.018230
C44	C	-0.320995	-0.687892	0.021751
C45	C	-0.366205	-0.666148	0.023512
C46	C	-0.389808	-0.342477	0.021744
C47	C	-0.368205	-0.317208	0.018222
C48	C	-0.322998	-0.338892	0.016457
C49	C	-0.299573	-0.311495	0.012637
C50	C	-0.299398	-0.385842	0.018210
C51	C	-0.321003	-0.411107	0.021730
C52	C	-0.366208	-0.389423	0.023501
C53	C	-0.591706	-0.416830	0.027326
C54	C	-0.551191	-0.438667	0.030366
C55	C	-0.408299	-0.438663	0.030360
C56	C	-0.389629	-0.416824	0.027317
C57	C	-0.408298	-0.581682	0.030365
C58	C	-0.389627	-0.619146	0.027325
C59	C	-0.432024	-0.061845	-0.438511
C60	C	-0.477645	-0.015917	-0.461431
C61	C	-0.432025	-0.061844	-0.369869
C62	C	-0.477645	-0.015916	-0.392892
C63	C	-0.500668	0.006779	-0.438513
C64	C	-0.409106	-0.084435	-0.392891
C65	C	-0.320834	-0.185425	-0.480424
C66	C	-0.299076	-0.210690	-0.502029
C67	C	-0.322531	-0.189005	-0.547237
C68	C	-0.298945	-0.216401	-0.570661
C69	C	-0.367745	-0.142051	-0.570839
C70	C	-0.389497	-0.116787	-0.549237
C71	C	-0.366040	-0.138476	-0.504027
C72	C	-0.666200	0.159838	-0.549704
C73	C	-0.713077	0.203188	-0.571462
C74	C	-0.736595	0.224934	-0.548009
C75	C	-0.787423	0.271931	-0.571594
C76	C	-0.713230	0.203329	-0.502796
C77	C	-0.666353	0.159987	-0.481041
C78	C	-0.642841	0.138241	-0.504500
C79	C	-0.320836	-0.185423	-0.204335
C80	C	-0.299080	-0.210691	-0.157455
C81	C	-0.322536	-0.189006	-0.133940
C82	C	-0.298950	-0.216402	-0.083110
C83	C	-0.367748	-0.142056	-0.157305
C84	C	-0.389502	-0.116792	-0.204182
C85	C	-0.366040	-0.138478	-0.227695
C86	C	-0.389632	-0.111079	-0.480604
C87	C	-0.408436	-0.089241	-0.461934
C88	C	-0.408437	-0.089240	-0.319041
C89	C	-0.389634	-0.111078	-0.278525
C90	C	-0.551496	0.053776	-0.462102
C91	C	-0.592011	0.091239	-0.480906
O92	O	0.196122	-0.334274	0.011291
O93	O	0.063378	-0.256674	-0.011208
O94	O	0.140994	-0.334276	0.066414
O95	O	0.118506	-0.256671	-0.066331
O96	O	0.140996	-0.271251	0.066419
O97	O	0.063380	-0.193649	-0.011203
O98	O	0.196124	-0.271249	0.011296
Cu99	Cu	0.129752	-0.226694	0.000047
Cu100	Cu	0.129750	-0.301228	0.000041
O101	O	0.118508	-0.193647	-0.066327
O102	O	-0.260036	0.184774	0.011294
O103	O	-0.204910	0.074561	-0.011204
O104	O	-0.204913	0.074554	0.066418
O105	O	-0.260033	0.184781	-0.066328
O106	O	-0.267961	0.074557	0.066413
O107	O	-0.267958	0.074564	-0.011209
O108	O	-0.323083	0.184777	0.011289
Cu109	Cu	-0.301278	0.129670	0.000040
Cu110	Cu	-0.226716	0.129668	0.000045
O111	O	-0.323081	0.184784	-0.066333
O112	O	-0.936929	0.397535	-0.602582
O113	O	-0.804185	0.287317	-0.547454
O114	O	-0.881802	0.287315	-0.547452
O115	O	-0.859312	0.397537	-0.602584
O116	O	-0.881801	0.287314	-0.610498
O117	O	-0.804183	0.287316	-0.610500
O118	O	-0.936927	0.397533	-0.665628
Cu119	Cu	-0.870555	0.342425	-0.643820
Cu120	Cu	-0.870557	0.342426	-0.569261
O121	O	-0.859310	0.397536	-0.665629
O122	O	-0.267961	-0.271234	-0.665316
O123	O	-0.323086	-0.193638	-0.610192
O124	O	-0.323085	-0.271236	-0.610189
O125	O	-0.267962	-0.193636	-0.665319
O126	O	-0.260038	-0.334264	-0.547142
O127	O	-0.260039	-0.256666	-0.547145
O128	O	-0.204914	-0.334262	-0.602269
Cu129	Cu	-0.226720	-0.301219	-0.568950
Cu130	Cu	-0.301280	-0.226681	-0.643511
O131	O	-0.204915	-0.256664	-0.602272
C132	C	-0.094840	-0.456607	0.293255
C133	C	-0.044837	-0.503376	0.316647
C134	C	-0.117862	-0.433912	0.316174
C135	C	-0.163483	-0.387984	0.224612
C136	C	-0.186875	-0.361381	0.174609
C137	C	-0.186401	-0.365393	0.247634
C138	C	-0.163483	-0.387984	0.293255
C139	C	-0.186874	-0.361382	0.316646
C140	C	-0.117862	-0.433912	0.247635
C141	C	-0.205772	-0.339889	0.335543
C142	C	-0.004440	-0.541160	0.335545
C143	C	-0.205773	-0.339888	0.134212
C144	C	-0.229480	-0.312925	0.359250
C145	C	0.046239	-0.588562	0.359254
C146	C	-0.229481	-0.312924	0.083532
C147	C	0.153295	-0.388013	0.293279
C148	C	0.150076	-0.361413	0.316673
C149	C	0.153614	-0.433940	0.316196
C150	C	0.153297	-0.388008	0.224634
C151	C	0.150079	-0.361403	0.174632
C152	C	0.153616	-0.433935	0.247655
C153	C	0.153293	-0.456633	0.293275
C154	C	0.150072	-0.503401	0.316665
C155	C	0.153617	-0.365420	0.247659
C156	C	0.147469	-0.541185	0.335561
C157	C	0.147474	-0.339922	0.335572
C158	C	0.147479	-0.339908	0.134234
C159	C	0.144204	-0.588587	0.359267
C160	C	0.144211	-0.312962	0.359282
C161	C	0.144218	-0.312942	0.083555
C162	C	-0.163482	-0.139963	0.293267
C163	C	-0.186875	-0.166567	0.316654
C164	C	-0.117861	-0.162559	0.316187
C165	C	-0.163482	-0.071333	0.224628
C166	C	-0.186873	-0.024557	0.174627
C167	C	-0.117860	-0.094033	0.247653
C168	C	-0.094838	-0.139967	0.293272
C169	C	-0.044835	-0.166574	0.316665
C170	C	-0.186401	-0.094030	0.247648
C171	C	-0.004438	-0.188070	0.335563
C172	C	-0.205773	-0.188061	0.335549
C173	C	-0.205771	0.013233	0.134231
C174	C	0.046242	-0.215038	0.359273
C175	C	-0.229482	-0.215026	0.359253
C176	C	-0.229479	0.060643	0.083553
C177	C	0.095627	0.006487	-0.438489
C178	C	0.095306	-0.016206	-0.461409
C179	C	0.095623	-0.062137	-0.369847
C180	C	0.095303	-0.084726	-0.392871
C181	C	0.095625	-0.062133	-0.438492
C182	C	0.095305	-0.016210	-0.392868
C183	C	0.108059	0.159543	-0.480399
C184	C	0.111575	0.202893	-0.502003
C185	C	0.113340	0.224640	-0.547210
C186	C	0.117161	0.271637	-0.570634
C187	C	0.111587	0.203038	-0.570814
C188	C	0.108065	0.159695	-0.549212
C189	C	0.106302	0.137948	-0.504002
C190	C	0.108054	-0.116452	-0.549685
C191	C	0.111568	-0.141562	-0.571444
C192	C	0.113332	-0.188519	-0.547992
C193	C	0.117148	-0.215753	-0.571578
C194	C	0.111577	-0.210363	-0.502779
C195	C	0.108055	-0.185249	-0.481023
C196	C	0.106297	-0.138292	-0.504481
C197	C	0.108046	-0.116473	-0.204312
C198	C	0.111564	-0.141591	-0.157432
C199	C	0.113326	-0.188548	-0.133918
C200	C	0.117142	-0.215786	-0.083088
C201	C	0.111574	-0.210388	-0.157283
C202	C	0.108058	-0.185270	-0.204161
C203	C	0.106290	-0.138308	-0.227673
C204	C	0.102487	0.090947	-0.480580
C205	C	0.099445	0.053484	-0.461911
C206	C	0.099438	-0.089371	-0.319019
C207	C	0.102477	-0.111078	-0.278503
C208	C	0.099442	-0.089362	-0.462081
C209	C	0.102482	-0.111066	-0.480886
O210	O	0.118477	-0.256700	0.452885
O211	O	0.140984	-0.334299	0.397762
O212	O	0.063360	-0.256699	0.397752
O213	O	0.196101	-0.334300	0.452895
O214	O	0.063367	-0.193672	0.334708
O215	O	0.140992	-0.271271	0.334718
O216	O	0.118484	-0.193673	0.389842
Cu217	Cu	0.129739	-0.226717	0.356523
Cu218	Cu	0.129730	-0.301254	0.431080
O219	O	0.196108	-0.271272	0.389852
C220	C	-0.500364	0.533998	-0.438484
C221	C	-0.477341	0.556591	-0.461399
C222	C	-0.431721	0.465364	-0.369840
C223	C	-0.408802	0.488061	-0.392859
C224	C	-0.431720	0.533995	-0.438478
C225	C	-0.477342	0.488064	-0.392865
C226	C	-0.665898	0.588334	-0.480407
C227	C	-0.712776	0.613450	-0.502014
C228	C	-0.736291	0.660414	-0.547220
C229	C	-0.787122	0.687654	-0.570647
C230	C	-0.712926	0.682257	-0.570819
C231	C	-0.666050	0.657138	-0.549214
C232	C	-0.642536	0.610174	-0.504006
C233	C	-0.389802	0.657585	-0.549654
C234	C	-0.368196	0.682850	-0.571408
C235	C	-0.322990	0.661164	-0.547952
C236	C	-0.299561	0.688558	-0.571532
C237	C	-0.299388	0.614205	-0.502740
C238	C	-0.320990	0.588935	-0.480990
C239	C	-0.366202	0.610633	-0.504452
C240	C	-0.389804	0.312282	-0.204314
C241	C	-0.368201	0.268929	-0.157436
C242	C	-0.322993	0.247179	-0.133918
C243	C	-0.299567	0.200174	-0.083089
C244	C	-0.299392	0.268786	-0.157278
C245	C	-0.320998	0.312139	-0.204154
C246	C	-0.366204	0.333881	-0.227670
C247	C	-0.591708	0.582942	-0.480581
C248	C	-0.551193	0.561234	-0.461909
C249	C	-0.408297	0.418359	-0.319013
C250	C	-0.389626	0.380890	-0.278499
C251	C	-0.408296	0.561393	-0.462062
C252	C	-0.389624	0.583232	-0.480862
H253	H	-0.371321	-0.530978	0.035012
H254	H	-0.426314	-0.078564	-0.223203
H255	H	-0.426614	0.329984	-0.223458
O256	O	-0.499459	-0.534581	0.035114
C257	C	-0.544742	-0.504695	0.035342
H258	H	-0.556096	-0.462137	0.020342
H259	H	-0.545126	-0.524350	0.072499
C260	C	-0.564406	-0.555257	0.024080
C261	C	-0.578352	-0.502985	0.005654
H262	H	-0.585138	-0.554204	0.005769
H263	H	-0.533897	-0.575393	0.023928
H264	H	-0.564726	-0.571630	0.055044
H265	H	-0.578026	-0.486615	-0.025308
H266	H	-0.608861	-0.482846	0.005799
H267	H	-0.387425	-0.278978	0.016792
H268	H	-0.426617	-0.324814	0.023182
H269	H	0.113004	0.220477	-0.482781
H270	H	-0.262264	-0.248919	-0.482808
O271	O	-0.095894	-0.456526	0.360903
C272	C	-0.126017	-0.426625	0.376278
H273	H	-0.163519	-0.403369	0.354431
H274	H	-0.118350	-0.397377	0.372572
C275	C	-0.072559	-0.493450	0.454425
C276	C	-0.118619	-0.464890	0.427595
H277	H	-0.067994	-0.517052	0.486080
H278	H	-0.052263	-0.513594	0.444066
H279	H	-0.066175	-0.469071	0.451332
H280	H	-0.125000	-0.489268	0.430684
H281	H	-0.138916	-0.444751	0.437955
H282	H	-0.732075	0.720493	-0.607626
O283	O	0.154153	-0.321276	0.225559
C284	C	0.114388	-0.278978	0.185536
H285	H	0.086072	-0.286158	0.189733
H286	H	0.123548	-0.277069	0.153918
C287	C	0.131606	-0.216832	0.173706
C288	C	0.096827	-0.225649	0.178862
H289	H	0.120774	-0.183936	0.169587
H290	H	0.158398	-0.245329	0.200668
H291	H	0.139236	-0.215245	0.147358
H292	H	0.089202	-0.227243	0.205212
H293	H	0.070033	-0.197150	0.151903
O294	O	-0.231110	-0.071314	0.225516
C295	C	-0.246490	-0.025814	0.180236
H296	H	-0.215268	-0.029446	0.168899
H297	H	-0.266554	0.011716	0.179851
C298	C	-0.316708	-0.017439	0.160535
C299	C	-0.278361	-0.021904	0.146609
H300	H	-0.336369	-0.015025	0.139792
H301	H	-0.306347	-0.048093	0.191042
H302	H	-0.333423	0.013835	0.160213
H303	H	-0.261644	-0.053181	0.146937
H304	H	-0.288720	0.008745	0.116102
O305	O	0.106375	-0.206549	-0.437098
C306	C	0.108673	-0.253371	-0.421064
H307	H	0.125758	-0.270409	-0.441278
H308	H	0.072101	-0.243256	-0.426402
C309	C	0.116523	-0.274241	-0.344210
C310	C	0.137510	-0.295169	-0.369033
H311	H	0.134309	-0.300023	-0.312114
H312	H	0.114973	-0.242695	-0.355012
H313	H	0.086046	-0.265812	-0.348663
H314	H	0.167983	-0.303591	-0.364585
H315	H	0.139066	-0.326717	-0.358229
H316	H	0.154138	-0.452930	0.229170
O317	O	-0.231126	-0.071248	-0.024486
C318	C	-0.246503	-0.025773	-0.024681
H319	H	-0.224665	-0.010110	-0.038923
H320	H	-0.242788	-0.037162	0.012249
C321	C	-0.324643	-0.001111	-0.038050
C322	C	-0.297823	0.018130	-0.055546
H323	H	-0.356300	0.025970	-0.057087
H324	H	-0.314284	-0.031749	-0.037917
H325	H	-0.321541	-0.010601	-0.007275
H326	H	-0.300921	0.027613	-0.086317
H327	H	-0.308185	0.048771	-0.055684
H328	H	-0.495832	0.469078	-0.374381
O329	O	-0.735770	0.224246	-0.615406
C330	C	-0.752329	0.278631	-0.644710
H331	H	-0.730862	0.286102	-0.628926
H332	H	-0.790265	0.304873	-0.648657
C333	C	-0.774536	0.283322	-0.712096
C334	C	-0.748167	0.292497	-0.692711
H335	H	-0.771971	0.291876	-0.741706
H336	H	-0.763382	0.246682	-0.692353
H337	H	-0.806147	0.305191	-0.715381
H338	H	-0.716556	0.270623	-0.689420
H339	H	-0.759316	0.329133	-0.712454
H340	H	-0.099376	-0.075038	0.229168
H341	H	0.113022	0.220750	-0.607622
H342	H	-0.099381	-0.199518	0.353671
H343	H	-0.647028	0.674924	-0.568431
O344	O	0.154201	-0.456519	0.360905
C345	C	0.154417	-0.426627	0.376291
H346	H	0.139440	-0.384077	0.345071
H347	H	0.191568	-0.446292	0.396359
C348	C	0.143096	-0.477151	0.446504
C349	C	0.124696	-0.424888	0.408160
H350	H	0.124764	-0.476080	0.466164
H351	H	0.142952	-0.497291	0.436139
H352	H	0.174054	-0.493532	0.463223
H353	H	0.093741	-0.408510	0.391439
H354	H	0.124834	-0.404745	0.418523
O355	O	-0.298065	-0.666940	0.023529
C356	C	-0.293855	-0.671160	0.065440
H357	H	-0.296610	-0.704676	0.092271
H358	H	-0.322793	-0.631664	0.059086
C359	C	-0.243060	-0.642685	0.050608
C360	C	-0.246440	-0.683853	0.083563
H361	H	-0.213814	-0.650513	0.061787
H362	H	-0.245898	-0.639840	0.022371
H363	H	-0.267178	-0.609775	0.045316
H364	H	-0.222327	-0.716761	0.088850
H365	H	-0.243597	-0.686705	0.111802
O366	O	0.094664	0.006530	-0.370890
C367	C	0.094469	0.052006	-0.401001
H368	H	0.080226	0.067673	-0.438508
H369	H	0.131399	0.040618	-0.393327
C370	C	0.081106	0.076660	-0.347525
C371	C	0.063608	0.095905	-0.393592
H372	H	0.062072	0.103739	-0.342954
H373	H	0.081239	0.046021	-0.327238
H374	H	0.111880	0.067170	-0.341136
H375	H	0.032837	0.105388	-0.399979
H376	H	0.063470	0.126547	-0.413881
H377	H	-0.646757	0.550094	-0.443598
H378	H	-0.426615	-0.670047	0.023195
O379	O	0.094651	-0.128791	-0.370768
C380	C	0.094449	-0.143967	-0.325475
H381	H	0.080213	-0.107898	-0.324049
H382	H	0.131375	-0.177179	-0.299930
C383	C	0.081061	-0.208702	-0.314186
C384	C	0.063573	-0.164401	-0.312435
H385	H	0.062017	-0.221310	-0.306141
H386	H	0.081199	-0.198480	-0.344699
H387	H	0.111832	-0.236373	-0.292898
H388	H	0.032805	-0.136729	-0.333727
H389	H	0.063429	-0.174620	-0.281925
H390	H	-0.099379	-0.074998	-0.024355
H391	H	-0.495829	-0.406511	0.035012
O392	O	-0.643115	-0.321368	0.023501
C393	C	-0.673787	-0.274512	0.021198
H394	H	-0.703369	-0.275778	0.033256
H395	H	-0.688528	-0.237904	-0.016118
C396	C	-0.611087	-0.269514	0.037990
C397	C	-0.647418	-0.271071	0.052803
H398	H	-0.594821	-0.267390	0.057484
H399	H	-0.590423	-0.301081	0.039540
H400	H	-0.623377	-0.239008	0.006894
H401	H	-0.635127	-0.301580	0.083897
H402	H	-0.668079	-0.239509	0.051259
O403	O	-0.298040	-0.206412	-0.227221
C404	C	-0.293923	-0.168623	-0.264914
H405	H	-0.296599	-0.139141	-0.258124
H406	H	-0.322952	-0.145951	-0.298031
C407	C	-0.243309	-0.234002	-0.278864
C408	C	-0.246592	-0.197796	-0.270523
H409	H	-0.214114	-0.251997	-0.282326
H410	H	-0.246084	-0.259462	-0.253471
H411	H	-0.267502	-0.215103	-0.306461
H412	H	-0.222402	-0.216696	-0.242924
H413	H	-0.243812	-0.172340	-0.295912
H414	H	-0.262584	-0.748943	0.016794
O415	O	0.094744	0.006488	-0.506110
C416	C	0.094543	0.051967	-0.521488
H417	H	0.109498	0.048338	-0.490262
H418	H	0.057400	0.089517	-0.541582
C419	C	0.105929	0.060280	-0.591672
C420	C	0.124301	0.055821	-0.553321
H421	H	0.124283	0.062659	-0.611310
H422	H	0.106063	0.029641	-0.581313
H423	H	0.074977	0.091572	-0.608412
H424	H	0.155251	0.024526	-0.536578
H425	H	0.124174	0.086455	-0.563678
H426	H	-0.387422	0.251343	-0.138417
O427	O	-0.735533	-0.271569	0.016468
C428	C	-0.773202	-0.229685	-0.025460
H429	H	-0.783811	-0.247294	-0.039284
H430	H	-0.762498	-0.204829	-0.052035
C431	C	-0.801450	-0.172094	0.000289
C432	C	-0.814482	-0.193722	-0.016687
H433	H	-0.826913	-0.149909	0.005699
H434	H	-0.776071	-0.200312	0.028536
H435	H	-0.792529	-0.151385	-0.021860
H436	H	-0.823397	-0.214436	0.005463
H437	H	-0.839864	-0.165507	-0.044931
O438	O	-0.390489	-0.120954	-0.134468
C439	C	-0.365298	-0.108303	-0.117907
H440	H	-0.342123	-0.102539	-0.139460
H441	H	-0.342905	-0.142369	-0.080009
C442	C	-0.427803	-0.063333	-0.095423
C443	C	-0.399341	-0.056249	-0.121897
H444	H	-0.448802	-0.031225	-0.097882
H445	H	-0.444774	-0.071858	-0.106579
H446	H	-0.409137	-0.091723	-0.063844
H447	H	-0.418007	-0.027864	-0.153476
H448	H	-0.382375	-0.047718	-0.110747
H449	H	-0.099372	-0.452898	0.229148
H450	H	0.113001	-0.123813	-0.138408
H451	H	0.106608	-0.078237	-0.223453
O452	O	-0.255154	-0.256280	-0.134835
C453	C	-0.239119	-0.270008	-0.165639
H454	H	-0.259333	-0.232719	-0.202895
H455	H	-0.244451	-0.301237	-0.160858
C456	C	-0.162265	-0.338987	-0.109658
C457	C	-0.187090	-0.293188	-0.155417
H458	H	-0.130171	-0.353288	-0.103352
H459	H	-0.173069	-0.329740	-0.088904
H460	H	-0.166714	-0.365005	-0.105680
H461	H	-0.182646	-0.267168	-0.159393
H462	H	-0.176285	-0.302431	-0.176171
O463	O	-0.255452	-0.406946	0.016581
C464	C	-0.226240	-0.419595	0.054428
H465	H	-0.242032	-0.425354	0.083366
H466	H	-0.222418	-0.385530	0.042746
C467	C	-0.158766	-0.464573	0.036918
C468	C	-0.178160	-0.471651	0.072462
H469	H	-0.129107	-0.496682	0.048041
H470	H	-0.178446	-0.456049	0.011419
H471	H	-0.155584	-0.436183	0.027186
H472	H	-0.181346	-0.500035	0.082189
H473	H	-0.158479	-0.480181	0.097964
O474	O	-0.499471	0.600712	-0.506102
C475	C	-0.544761	0.615884	-0.521486
H476	H	-0.556096	0.599629	-0.490264
H477	H	-0.545170	0.598829	-0.541572
C478	C	-0.564448	0.697419	-0.591679
C479	C	-0.578371	0.677457	-0.553332
H480	H	-0.585180	0.735400	-0.611325
H481	H	-0.533935	0.687196	-0.581316
H482	H	-0.564789	0.683201	-0.608412
H483	H	-0.578024	0.691670	-0.536597
H484	H	-0.608884	0.687684	-0.563694
O485	O	-0.735795	-0.406915	0.016584
C486	C	-0.752337	-0.419586	0.054442
H487	H	-0.755772	-0.394412	0.067216
H488	H	-0.726909	-0.463917	0.083727
C489	C	-0.795900	-0.438468	0.023295
C490	C	-0.800122	-0.407546	0.038981
H491	H	-0.825374	-0.431043	0.013759
H492	H	-0.784754	-0.429933	-0.002210
H493	H	-0.774708	-0.475408	0.047702
H494	H	-0.821309	-0.370607	0.014573
H495	H	-0.811272	-0.416074	0.064482
H496	H	0.106623	0.141841	-0.443588
H497	H	-0.386837	-0.124397	-0.607648
O498	O	-0.231118	-0.321304	0.225517
C499	C	-0.246492	-0.306118	0.180219
H500	H	-0.224674	-0.342194	0.178797
H501	H	-0.242742	-0.272940	0.154690
C502	C	-0.324619	-0.241305	0.168888
C503	C	-0.297825	-0.285615	0.167143
H504	H	-0.356284	-0.228655	0.160821
H505	H	-0.314262	-0.251535	0.199405
H506	H	-0.321489	-0.213662	0.147614
H507	H	-0.300951	-0.313259	0.188421
H508	H	-0.308184	-0.275389	0.136629
H509	H	0.106637	0.142110	-0.568432
H510	H	-0.647026	-0.449354	0.023185
O511	O	-0.499632	0.006769	-0.506177
C512	C	-0.474785	0.022136	-0.534379
H513	H	-0.437107	-0.002597	-0.512126
H514	H	-0.491012	0.066473	-0.551500
C515	C	-0.522900	0.042818	-0.599450
C516	C	-0.476622	0.012437	-0.572118
H517	H	-0.524035	0.036838	-0.622731
H518	H	-0.539641	0.032467	-0.580450
H519	H	-0.536417	0.079763	-0.613713
H520	H	-0.463108	-0.024507	-0.557851
H521	H	-0.459879	0.022782	-0.591116
H522	H	0.106619	-0.078217	-0.568789
H523	H	-0.387419	-0.748683	0.016816
O524	O	0.113299	-0.120293	-0.615351
C525	C	0.110983	-0.073460	-0.631390
H526	H	0.123048	-0.074859	-0.600457
H527	H	0.073664	-0.036846	-0.653224
C528	C	0.127750	-0.068156	-0.699193
C529	C	0.142572	-0.069876	-0.661200
H530	H	0.147233	-0.065943	-0.717583
H531	H	0.129308	-0.099707	-0.688388
H532	H	0.096651	-0.037644	-0.717383
H533	H	0.173669	-0.100391	-0.643008
H534	H	0.141020	-0.038330	-0.672003
O535	O	0.113227	-0.255936	-0.480067
C536	C	0.075369	-0.247292	-0.505256
H537	H	0.062597	-0.212778	-0.543211
H538	H	0.046085	-0.236929	-0.490197
C539	C	0.106515	-0.340864	-0.455227
C540	C	0.090830	-0.298476	-0.501844
H541	H	0.116050	-0.372437	-0.453121
H542	H	0.132019	-0.346687	-0.438256
H543	H	0.082108	-0.332221	-0.442683
H544	H	0.115238	-0.307116	-0.514386
H545	H	0.065330	-0.292655	-0.518818
O546	O	-0.095835	-0.206640	-0.024397
C547	C	-0.093511	-0.248954	0.015387
H548	H	-0.122134	-0.231854	0.029086
H549	H	-0.058253	-0.276008	0.043274
C550	C	-0.064781	-0.302732	-0.014155
C551	C	-0.099939	-0.281729	0.002668
H552	H	-0.068743	-0.322951	-0.022000
H553	H	-0.066344	-0.274225	-0.040958
H554	H	-0.035402	-0.325273	0.009087
H555	H	-0.129316	-0.259183	-0.020576
H556	H	-0.098380	-0.310233	0.029466
O557	O	-0.298003	-0.456725	0.023453
C558	C	-0.253475	-0.470441	0.021131
H559	H	-0.242801	-0.451588	0.033202
H560	H	-0.254177	-0.454949	-0.016192
C561	C	-0.231412	-0.554976	0.037880
C562	C	-0.218302	-0.531824	0.052709
H563	H	-0.209716	-0.592839	0.057357
H564	H	-0.261412	-0.545735	0.039442
H565	H	-0.231997	-0.542060	0.006777
H566	H	-0.217722	-0.544735	0.083809
H567	H	-0.188300	-0.541069	0.051153
O568	O	0.113198	-0.255947	-0.134450
C569	C	0.075349	-0.247311	-0.117894
H570	H	0.046414	-0.202592	-0.139448
H571	H	0.087028	-0.262814	-0.079995
C572	C	0.092850	-0.332266	-0.095416
C573	C	0.057311	-0.277343	-0.121891
H574	H	0.081725	-0.350793	-0.097880
H575	H	0.118351	-0.338086	-0.106569
H576	H	0.102580	-0.345178	-0.063837
H577	H	0.047586	-0.264431	-0.153471
H578	H	0.031808	-0.271521	-0.110744
H579	H	0.106630	-0.203055	-0.223182
H580	H	-0.496128	0.003076	-0.374407
H581	H	-0.371622	-0.121391	-0.374409
H582	H	-0.371318	0.469063	-0.374372
O583	O	-0.735408	0.592178	-0.479017
C584	C	-0.704600	0.545336	-0.434488
H585	H	-0.675067	0.546731	-0.423812
H586	H	-0.689808	0.508730	-0.435194
C587	C	-0.767098	0.540024	-0.412428
C588	C	-0.730826	0.541738	-0.399314
H589	H	-0.783275	0.537802	-0.390731
H590	H	-0.787854	0.571581	-0.442429
H591	H	-0.754766	0.509518	-0.413016
H592	H	-0.743159	0.572247	-0.398732
H593	H	-0.710073	0.510186	-0.369313
O594	O	-0.433710	0.678713	-0.572519
C595	C	-0.449910	0.725580	-0.617081
H596	H	-0.419064	0.724312	-0.627880
H597	H	-0.471770	0.762177	-0.616369
C598	C	-0.517629	0.730609	-0.638870
C599	C	-0.479743	0.729049	-0.652135
H600	H	-0.536033	0.732750	-0.660492
H601	H	-0.506715	0.699035	-0.608847
H602	H	-0.535841	0.761107	-0.638276
H603	H	-0.461529	0.698548	-0.652722
H604	H	-0.490654	0.760617	-0.682159
O605	O	-0.391097	0.728508	-0.615296
C606	C	-0.395319	0.770384	-0.615253
H607	H	-0.367097	0.752765	-0.583810
H608	H	-0.430886	0.795238	-0.613541
C609	C	-0.424674	0.827991	-0.698612
C610	C	-0.390009	0.806352	-0.659995
H611	H	-0.421401	0.850180	-0.726211
H612	H	-0.421831	0.799780	-0.698641
H613	H	-0.454310	0.848700	-0.697179
H614	H	-0.360374	0.785639	-0.661425
H615	H	-0.392847	0.834561	-0.659967
H616	H	-0.301729	-0.203089	-0.443614
H617	H	-0.647059	0.142138	-0.568809
H618	H	-0.426308	-0.078556	-0.568458
H619	H	-0.732378	0.221040	-0.483702
H620	H	-0.647332	0.142401	-0.444230
O621	O	-0.255505	0.593206	-0.479943
C622	C	-0.255605	0.630984	-0.475814
H623	H	-0.291884	0.660468	-0.478491
H624	H	-0.245160	0.653654	-0.504837
C625	C	-0.176258	0.565586	-0.425192
C626	C	-0.220816	0.601796	-0.428476
H627	H	-0.154797	0.547582	-0.395993
H628	H	-0.176189	0.540134	-0.427975
H629	H	-0.167560	0.584483	-0.449381
H630	H	-0.229515	0.582898	-0.404291
H631	H	-0.220885	0.627244	-0.425688
H632	H	-0.301770	0.550701	-0.444180
H633	H	-0.301778	0.329728	-0.223172
H634	H	-0.262581	0.251075	-0.138127
