data_functionalizedCrystal
_audit_creation_method	'MofGen! by Chris Wilmer'
_symmetry_space_group_name_H-M	'P1'
_symmetry_Int_Tables_number	1
_symmetry_cell_setting	triclinic
loop_
_symmetry_equiv_pos_as_xyz
  x,y,z
_cell_length_a	17.077404
_cell_length_b	16.120484
_cell_length_c	17.077396
_cell_angle_alpha	92.868746
_cell_angle_beta	89.978556
_cell_angle_gamma	92.923903
loop_
_atom_site_label
_atom_site_type_symbol
_atom_site_fract_x
_atom_site_fract_y
_atom_site_fract_z
Zn1	Zn	1.184192	-0.331946	-0.459715
Zn2	Zn	1.684192	0.168054	0.040285
Zn3	Zn	1.177437	-0.471370	-0.335099
Zn4	Zn	1.677437	0.028630	0.164901
Zn5	Zn	1.052923	-0.331970	-0.328460
Zn6	Zn	1.552923	0.168030	0.171540
Zn7	Zn	1.046232	-0.471315	-0.466315
Zn8	Zn	1.546232	0.028685	0.033685
O9	O	1.115196	-0.401650	-0.397397
O10	O	1.615196	0.098350	0.102603
O11	O	1.293142	-0.350453	-0.443201
O12	O	1.793142	0.149547	0.056799
O13	O	1.160893	-0.452911	-0.224373
O14	O	1.660893	0.047089	0.275627
O15	O	1.075963	-0.215301	-0.340331
O16	O	1.575963	0.284699	0.159669
O17	O	1.288179	-0.452887	-0.351646
O18	O	1.788179	0.047113	0.148354
O19	O	1.172406	-0.215284	-0.436763
O20	O	1.672406	0.284716	0.063237
O21	O	1.069413	-0.350495	-0.219495
O22	O	1.569413	0.149505	0.280505
O23	O	0.942189	-0.350442	-0.346730
O24	O	1.442189	0.149558	0.153270
O25	O	1.064560	-0.452795	-0.575285
O26	O	1.564560	0.047205	-0.075285
O27	O	0.937273	-0.452818	-0.448012
O28	O	1.437273	0.047182	0.051988
O29	O	1.165919	-0.350401	-0.570436
O30	O	1.665919	0.149599	-0.070436
O31	O	1.154405	-0.588028	-0.358046
O32	O	1.654405	-0.088028	0.141954
O33	O	1.058009	-0.587988	-0.454450
O34	O	1.558009	-0.087988	0.045550
C35	C	0.911249	-0.401628	-0.397368
C36	C	1.411249	0.098372	0.102632
C37	C	0.823999	-0.401638	-0.397375
C38	C	1.323999	0.098362	0.102625
C39	C	0.450760	-0.348432	-0.445185
C40	C	0.950760	0.151568	0.054815
C41	C	0.532740	-0.348426	-0.445176
C42	C	1.032740	0.151574	0.054824
C43	C	0.571149	-0.401668	-0.397418
C44	C	1.071149	0.098332	0.102582
C45	C	0.527571	-0.454925	-0.349672
C46	C	1.027571	0.045075	0.150328
C47	C	0.445592	-0.454935	-0.349686
C48	C	0.945592	0.045065	0.150314
C49	C	0.698443	-0.454900	-0.349645
C50	C	1.198443	0.045100	0.150355
C51	C	0.780428	-0.454890	-0.349631
C52	C	1.280428	0.045110	0.150369
C53	C	0.785591	-0.348391	-0.445135
C54	C	1.285591	0.151609	0.054865
C55	C	0.703612	-0.348401	-0.445149
C56	C	1.203612	0.151599	0.054851
C57	C	0.660040	-0.401657	-0.397402
C58	C	1.160040	0.098343	0.102598
C59	C	1.104769	-0.618258	-0.407702
C60	C	1.604769	-0.118258	0.092298
C61	C	1.100381	-0.710924	-0.412136
C62	C	1.600381	-0.210924	0.087864
C63	C	1.092372	-0.880585	-0.420248
C64	C	1.592372	-0.380585	0.079752
C65	C	1.138160	-0.921875	-0.374559
C66	C	1.638160	-0.421875	0.125441
C67	C	1.133704	-1.016280	-0.379073
C68	C	1.633704	-0.516280	0.120927
C69	C	1.096827	-0.786171	-0.415735
C70	C	1.596827	-0.286171	0.084265
C71	C	1.319939	-0.401674	-0.397428
C72	C	1.819939	0.098326	0.102572
C73	C	1.407188	-0.401683	-0.397440
C74	C	1.907188	0.098317	0.102560
C75	C	1.115246	-0.401589	-0.602139
C76	C	1.615246	0.098411	-0.102139
C77	C	1.115268	-0.401563	-0.689387
C78	C	1.615268	0.098437	-0.189387
C79	C	1.125685	-0.184197	-0.387070
C80	C	1.625685	0.315803	0.112930
C81	C	1.130154	-0.091531	-0.382669
C82	C	1.630154	0.408469	0.117331
C83	C	1.168047	-0.348242	-0.727854
C84	C	1.668047	0.151758	-0.227854
C85	C	1.168058	-0.348214	-0.809833
C86	C	1.668058	0.151786	-0.309833
C87	C	1.115293	-0.401512	-0.853344
C88	C	1.615293	0.098488	-0.353344
C89	C	1.062507	-0.454835	-0.814873
C90	C	1.562507	0.045165	-0.314873
C91	C	1.062494	-0.454858	-0.732895
C92	C	1.562494	0.045142	-0.232895
C93	C	1.062541	-0.454785	-0.985740
C94	C	1.562541	0.045215	-0.485740
C95	C	1.062556	-0.454764	-1.067724
C96	C	1.562556	0.045236	-0.567724
C97	C	1.168106	-0.348141	-1.062678
C98	C	1.668106	0.151859	-0.562678
C99	C	1.168092	-0.348164	-0.980701
C100	C	1.668092	0.151836	-0.480701
C101	C	1.115308	-0.401488	-0.942234
C102	C	1.615308	0.098512	-0.442234
C103	C	1.115194	-0.401651	-0.193450
C104	C	1.615194	0.098349	0.306550
C105	C	1.115336	-0.401443	-0.106190
C106	C	1.615336	0.098557	0.393810
H107	H	0.811697	-0.498247	-0.310744
H108	H	1.311697	0.001753	0.189256
H109	H	1.019588	-0.498162	-1.103149
H110	H	1.519588	0.001838	-0.603149
Br111	Br	1.209073	-0.862624	-0.303711
Br112	Br	1.709073	-0.362624	0.196289
Br113	Br	0.639309	-0.527191	-0.284858
Br114	Br	1.139309	-0.027191	0.215142
H115	H	0.821071	-0.305026	-0.484012
H116	H	1.321071	0.194974	0.015988
Br117	Br	1.239668	-0.275911	-0.668810
Br118	Br	1.739668	0.224089	-0.168810
H119	H	1.049829	-0.916135	-0.462749
H120	H	1.549829	-0.416135	0.037251
Br121	Br	1.239725	-0.275885	-0.862036
Br122	Br	1.739725	0.224115	-0.362036
H123	H	1.019547	-0.498195	-0.954423
H124	H	1.519547	0.001805	-0.454423
H125	H	1.019507	-0.498269	-0.701576
H126	H	1.519507	0.001731	-0.201576
H127	H	1.211063	-0.304768	-0.945276
H128	H	1.711063	0.195232	-0.445276
Br129	Br	0.990891	-0.527165	-0.873923
Br130	Br	1.490891	-0.027165	-0.373923
H131	H	0.419494	-0.305071	-0.484069
H132	H	0.919494	0.194929	0.015931
Br133	Br	0.651486	-0.276137	-0.509958
Br134	Br	1.151486	0.223863	-0.009958
Br135	Br	0.591870	-0.276159	-0.509981
Br136	Br	1.091870	0.223841	-0.009981
Br137	Br	0.579695	-0.527190	-0.284863
Br138	Br	1.079695	-0.027190	0.215137
H139	H	0.410117	-0.498300	-0.310809
H140	H	0.910117	0.001700	0.189191
H141	H	1.211084	-0.304721	-1.094001
H142	H	1.711084	0.195279	-0.594001
