data_functionalizedCrystal
_audit_creation_method	'MofGen! by Chris Wilmer'
_symmetry_space_group_name_H-M	'P1'
_symmetry_Int_Tables_number	1
_symmetry_cell_setting	triclinic
loop_
_symmetry_equiv_pos_as_xyz
  x,y,z
_cell_length_a	18.050589
_cell_length_b	13.897449
_cell_length_c	13.897441
_cell_angle_alpha	90.018596
_cell_angle_beta	89.973098
_cell_angle_gamma	89.970500
loop_
_atom_site_label
_atom_site_type_symbol
_atom_site_fract_x
_atom_site_fract_y
_atom_site_fract_z
Zn1	Zn	-0.295618	-1.474612	-0.545399
Zn2	Zn	-0.045618	-1.224612	-0.295399
Zn3	Zn	0.204382	-0.974612	-0.045399
Zn4	Zn	0.454382	-0.724612	0.204601
Zn5	Zn	-0.419820	-1.474482	-0.384108
Zn6	Zn	-0.169820	-1.224482	-0.134108
Zn7	Zn	0.080180	-0.974482	0.115892
Zn8	Zn	0.330180	-0.724482	0.365892
Zn9	Zn	-0.295651	-1.313307	-0.384118
Zn10	Zn	-0.045651	-1.063307	-0.134118
Zn11	Zn	0.204349	-0.813307	0.115882
Zn12	Zn	0.454349	-0.563307	0.365882
Zn13	Zn	-0.419773	-1.313253	-0.545361
Zn14	Zn	-0.169773	-1.063253	-0.295361
Zn15	Zn	0.080227	-0.813253	-0.045361
Zn16	Zn	0.330227	-0.563253	0.204639
O17	O	-0.357715	-1.393913	-0.464747
O18	O	-0.107715	-1.143913	-0.214747
O19	O	0.142285	-0.893913	0.035253
O20	O	0.392285	-0.643913	0.285253
O21	O	-0.312099	-1.609576	-0.524016
O22	O	-0.062099	-1.359576	-0.274016
O23	O	0.187901	-1.109576	-0.024016
O24	O	0.437901	-0.859576	0.225984
O25	O	-0.403382	-1.453070	-0.249128
O26	O	-0.153382	-1.203070	0.000872
O27	O	0.096618	-0.953070	0.250872
O28	O	0.346618	-0.703070	0.500872
O29	O	-0.191722	-1.334781	-0.405532
O30	O	0.058278	-1.084781	-0.155532
O31	O	0.308278	-0.834781	0.094468
O32	O	0.558278	-0.584781	0.344468
O33	O	-0.403350	-1.609481	-0.405516
O34	O	-0.153350	-1.359481	-0.155516
O35	O	0.096650	-1.109481	0.094484
O36	O	0.346650	-0.859481	0.344484
O37	O	-0.191697	-1.453291	-0.524025
O38	O	0.058303	-1.203291	-0.274025
O39	O	0.308303	-0.953291	-0.024025
O40	O	0.558303	-0.703291	0.225975
O41	O	-0.312156	-1.334655	-0.249135
O42	O	-0.062156	-1.084655	0.000865
O43	O	0.187844	-0.834655	0.250865
O44	O	0.437844	-0.584655	0.500865
O45	O	-0.312110	-1.178318	-0.405495
O46	O	-0.062110	-0.928318	-0.155495
O47	O	0.187890	-0.678318	0.094505
O48	O	0.437890	-0.428318	0.344505
O49	O	-0.403270	-1.334689	-0.680348
O50	O	-0.153270	-1.084689	-0.430348
O51	O	0.096730	-0.834689	-0.180348
O52	O	0.346730	-0.584689	0.069652
O53	O	-0.403302	-1.178278	-0.523960
O54	O	-0.153302	-0.928278	-0.273960
O55	O	0.096698	-0.678278	-0.023960
O56	O	0.346698	-0.428278	0.226040
O57	O	-0.312054	-1.453239	-0.680376
O58	O	-0.062054	-1.203239	-0.430376
O59	O	0.187946	-0.953239	-0.180376
O60	O	0.437946	-0.703239	0.069624
O61	O	-0.523738	-1.453018	-0.405479
O62	O	-0.273738	-1.203018	-0.155479
O63	O	-0.023738	-0.953018	0.094521
O64	O	0.226262	-0.703018	0.344521
O65	O	-0.523704	-1.334564	-0.523951
O66	O	-0.273704	-1.084564	-0.273951
O67	O	-0.023704	-0.834564	-0.023951
O68	O	0.226296	-0.584564	0.226049
C69	C	-0.357705	-1.143299	-0.464725
C70	C	-0.107705	-0.893299	-0.214725
C71	C	0.142295	-0.643299	0.035275
C72	C	0.392295	-0.393299	0.285275
C73	C	-0.357719	-1.036085	-0.464738
C74	C	-0.107719	-0.786085	-0.214738
C75	C	0.142281	-0.536085	0.035262
C76	C	0.392281	-0.286085	0.285262
C77	C	-0.550667	-1.393797	-0.464731
C78	C	-0.300667	-1.143797	-0.214731
C79	C	-0.050667	-0.893797	0.035269
C80	C	0.199333	-0.643797	0.285269
C81	C	-0.633213	-1.393835	-0.464756
C82	C	-0.383213	-1.143835	-0.214756
C83	C	-0.133213	-0.893835	0.035244
C84	C	0.116787	-0.643835	0.285244
C85	C	-0.357653	-1.393972	-0.716340
C86	C	-0.107653	-1.143972	-0.466340
C87	C	0.142347	-0.893972	-0.216340
C88	C	0.392347	-0.643972	0.033660
C89	C	-0.357626	-1.393998	-0.823554
C90	C	-0.107626	-1.143998	-0.573554
C91	C	0.142374	-0.893998	-0.323554
C92	C	0.392374	-0.643998	-0.073554
C93	C	-0.832672	-1.329483	-0.529158
C94	C	-0.582672	-1.079483	-0.279158
C95	C	-0.332672	-0.829483	-0.029158
C96	C	-0.082672	-0.579483	0.220842
C97	C	-0.882117	-1.305969	-0.441140
C98	C	-0.632117	-1.055969	-0.191140
C99	C	-0.382117	-0.805969	0.058860
C100	C	-0.132117	-0.555969	0.308860
C101	C	-0.784344	-1.393930	-0.464769
C102	C	-0.534344	-1.143930	-0.214769
C103	C	-0.284344	-0.893930	0.035231
C104	C	-0.034344	-0.643930	0.285231
C105	C	-0.881981	-1.417491	-0.552797
C106	C	-0.631981	-1.167491	-0.302797
C107	C	-0.381981	-0.917491	-0.052797
C108	C	-0.131981	-0.667491	0.197203
C109	C	-0.930329	-1.394020	-0.464789
C110	C	-0.680329	-1.144020	-0.214789
C111	C	-0.430329	-0.894020	0.035211
C112	C	-0.180329	-0.644020	0.285211
C113	C	-0.832701	-1.370370	-0.376703
C114	C	-0.582701	-1.120370	-0.126703
C115	C	-0.332701	-0.870370	0.123297
C116	C	-0.082701	-0.620370	0.373297
C117	C	-0.832560	-1.481933	-0.488420
C118	C	-0.582560	-1.231933	-0.238420
C119	C	-0.332560	-0.981933	0.011580
C120	C	-0.082560	-0.731933	0.261580
C121	C	-0.881983	-1.458453	-0.400341
C122	C	-0.631983	-1.208453	-0.150341
C123	C	-0.381983	-0.958453	0.099659
C124	C	-0.131983	-0.708453	0.349659
C125	C	-0.700245	-1.393876	-0.464758
C126	C	-0.450245	-1.143876	-0.214758
C127	C	-0.200245	-0.893876	0.035242
C128	C	0.049755	-0.643876	0.285242
C129	C	-1.014425	-1.394074	-0.464789
C130	C	-0.764425	-1.144074	-0.214789
C131	C	-0.514425	-0.894074	0.035211
C132	C	-0.264425	-0.644074	0.285211
C133	C	-0.164010	-1.394057	-0.464784
C134	C	0.085990	-1.144057	-0.214784
C135	C	0.335990	-0.894057	0.035216
C136	C	0.585990	-0.644057	0.285216
C137	C	-0.081464	-1.394118	-0.464800
C138	C	0.168536	-1.144118	-0.214800
C139	C	0.418536	-0.894118	0.035200
C140	C	0.668536	-0.644118	0.285200
C141	C	-0.357726	-1.645506	-0.464769
C142	C	-0.107726	-1.395506	-0.214769
C143	C	0.142274	-1.145506	0.035231
C144	C	0.392274	-0.895506	0.285231
C145	C	-0.357730	-1.752720	-0.464779
C146	C	-0.107730	-1.502720	-0.214779
C147	C	0.142270	-1.252720	0.035221
C148	C	0.392270	-1.002720	0.285221
C149	C	-0.357722	-0.839790	-0.464763
C150	C	-0.107722	-0.589790	-0.214763
C151	C	0.142278	-0.339790	0.035237
C152	C	0.392278	-0.089790	0.285237
C153	C	-0.357718	-0.949023	-0.464747
C154	C	-0.107718	-0.699023	-0.214747
C155	C	0.142282	-0.449023	0.035253
C156	C	0.392282	-0.199023	0.285253
C157	C	-0.357605	-1.394017	-0.910624
C158	C	-0.107605	-1.144017	-0.660624
C159	C	0.142395	-0.894017	-0.410624
C160	C	0.392395	-0.644017	-0.160624
C161	C	-0.357572	-1.394045	-1.019856
C162	C	-0.107572	-1.144045	-0.769856
C163	C	0.142428	-0.894045	-0.519856
C164	C	0.392428	-0.644045	-0.269856
C165	C	-0.357724	-1.393910	-0.214132
C166	C	-0.107724	-1.143910	0.035868
C167	C	0.142276	-0.893910	0.285868
C168	C	0.392276	-0.643910	0.535868
C169	C	-0.357541	-1.394072	-0.106919
C170	C	-0.107541	-1.144072	0.143081
C171	C	0.142459	-0.894072	0.393081
C172	C	0.392459	-0.644072	0.643081
H173	H	-0.811020	-1.274902	-0.583534
H174	H	-0.561020	-1.024902	-0.333534
H175	H	-0.311020	-0.774902	-0.083534
H176	H	-0.061020	-0.524902	0.166466
Br177	Br	-0.918394	-1.181994	-0.407796
Br178	Br	-0.668394	-0.931994	-0.157796
Br179	Br	-0.418394	-0.681994	0.092204
Br180	Br	-0.168394	-0.431994	0.342204
Br181	Br	-0.796777	-1.337076	-0.252600
Br182	Br	-0.546777	-1.087076	-0.002600
Br183	Br	-0.296777	-0.837076	0.247400
Br184	Br	-0.046777	-0.587076	0.497400
H185	H	-0.810779	-1.556295	-0.508449
H186	H	-0.560779	-1.306295	-0.258449
H187	H	-0.310779	-1.056295	-0.008449
H188	H	-0.060779	-0.806295	0.241551
H189	H	-0.903627	-1.437384	-0.627234
H190	H	-0.653627	-1.187384	-0.377234
H191	H	-0.403627	-0.937384	-0.127234
H192	H	-0.153627	-0.687384	0.122766
H193	H	-0.903498	-1.512992	-0.345834
H194	H	-0.653498	-1.262992	-0.095834
H195	H	-0.403498	-1.012992	0.154166
H196	H	-0.153498	-0.762992	0.404166
