data_functionalizedCrystal
_audit_creation_method	'MofGen! by Chris Wilmer'
_symmetry_space_group_name_H-M	'P1'
_symmetry_Int_Tables_number	1
_symmetry_cell_setting	triclinic
loop_
_symmetry_equiv_pos_as_xyz
  x,y,z
_cell_length_a	16.120484
_cell_length_b	12.759401
_cell_length_c	12.759393
_cell_angle_alpha	90.021916
_cell_angle_beta	92.863685
_cell_angle_gamma	87.077999
loop_
_atom_site_label
_atom_site_type_symbol
_atom_site_fract_x
_atom_site_fract_y
_atom_site_fract_z
Zn1	Zn	-0.331942	-1.584968	-0.615240
Zn2	Zn	-0.471377	-1.575919	-0.448452
Zn3	Zn	-0.331974	-1.409268	-0.439572
Zn4	Zn	-0.471306	-1.400321	-0.624079
O5	O	-0.401650	-1.492619	-0.531836
O6	O	-0.350454	-1.730788	-0.593133
O7	O	-0.452928	-1.553770	-0.300256
O8	O	-0.215305	-1.440106	-0.455459
O9	O	-0.452897	-1.724140	-0.470594
O10	O	-0.215281	-1.569193	-0.584521
O11	O	-0.350510	-1.431332	-0.293731
O12	O	-0.350441	-1.261061	-0.464030
O13	O	-0.452775	-1.424858	-0.769925
O14	O	-0.452807	-1.254488	-0.599587
O15	O	-0.350385	-1.560517	-0.763431
O16	O	-0.588032	-1.545094	-0.479166
O17	O	-0.587980	-1.416083	-0.608198
C18	C	-0.401620	-1.219654	-0.531805
C19	C	-0.401628	-1.102876	-0.531817
C20	C	-0.348253	-1.051411	-0.461350
C21	C	-0.348269	-0.941686	-0.461360
C22	C	-0.455036	-0.934901	-0.602315
C23	C	-0.455024	-1.044624	-0.602299
C24	C	-0.294857	-1.109663	-0.390868
C25	C	-0.241478	-1.058198	-0.320396
C26	C	-0.241494	-0.948473	-0.320406
C27	C	-0.294889	-0.890213	-0.390889
C28	C	-0.618256	-1.478664	-0.545628
C29	C	-0.710921	-1.472791	-0.551563
C30	C	-0.880582	-1.462073	-0.562421
C31	C	-0.921877	-1.523353	-0.501268
C32	C	-1.016282	-1.517390	-0.507310
C33	C	-0.786168	-1.468035	-0.556381
C34	C	-0.184197	-1.506657	-0.518013
C35	C	-0.091532	-1.512639	-0.512123
C36	C	-0.401568	-1.492699	-0.805864
C37	C	-0.401534	-1.492733	-0.922639
C38	C	-0.401670	-0.766651	-0.531859
C39	C	-0.401655	-0.883429	-0.531844
C40	C	-0.348164	-1.429026	-1.083825
C41	C	-0.348194	-1.429000	-0.974103
C42	C	-0.454842	-1.556503	-0.980902
C43	C	-0.454807	-1.556533	-1.090622
C44	C	-0.294827	-1.365281	-1.135284
C45	C	-0.241518	-1.301513	-1.077028
C46	C	-0.241547	-1.301487	-0.967306
C47	C	-0.294886	-1.365231	-0.915839
C48	C	-0.401670	-1.492604	-0.258870
C49	C	-0.401470	-1.492788	-0.142081
H50	H	-0.198011	-1.105639	-0.263006
O51	O	-0.189627	-1.239570	-1.126850
C52	C	-0.083886	-1.113056	-1.108526
C53	C	-0.142597	-1.183175	-1.051973
H54	H	-0.045858	-1.067426	-1.048014
H55	H	-0.040227	-1.164069	-1.157101
H56	H	-0.122156	-1.055707	-1.162345
H57	H	-0.104393	-1.240534	-0.998101
H58	H	-0.186257	-1.132097	-1.003464
O59	O	-0.294777	-0.783634	-0.390983
C60	C	-0.214893	-0.631309	-0.413005
C61	C	-0.214911	-0.752011	-0.412950
H62	H	-0.150324	-0.605705	-0.430741
H63	H	-0.262171	-0.598462	-0.475518
H64	H	-0.232163	-0.600400	-0.332711
H65	H	-0.197619	-0.783011	-0.493199
H66	H	-0.167649	-0.784786	-0.350382
O67	O	-0.189880	-1.239490	-0.910607
C68	C	-0.178694	-1.098290	-0.786048
C69	C	-0.237298	-1.168454	-0.850177
H70	H	-0.217009	-1.040826	-0.737191
H71	H	-0.135131	-1.149262	-0.731846
H72	H	-0.140551	-1.052789	-0.841697
H73	H	-0.275495	-1.213967	-0.794607
H74	H	-0.280806	-1.117425	-0.904391
H75	H	-0.498268	-1.608398	-0.938990
H76	H	-0.886330	-1.580295	-0.444377
H77	H	-0.294901	-1.365212	-0.826496
O78	O	-0.506667	-1.618497	-1.147061
C79	C	-0.612415	-1.745007	-1.142234
C80	C	-0.553743	-1.674860	-1.078190
H81	H	-0.650478	-1.790611	-1.086578
H82	H	-0.656041	-1.694020	-1.196344
H83	H	-0.574111	-1.802380	-1.191201
H84	H	-0.591980	-1.617477	-1.029161
H85	H	-0.510114	-1.725912	-1.024145
H86	H	-0.294837	-1.199007	-0.390854
H87	H	-0.916126	-1.405135	-0.619307
H88	H	-0.198035	-0.906572	-0.263018
O89	O	-0.506774	-0.878270	-0.670888
C90	C	-0.518125	-0.753683	-0.813407
C91	C	-0.459441	-0.817777	-0.735820
H92	H	-0.479881	-0.704742	-0.865909
H93	H	-0.556259	-0.809266	-0.863850
H94	H	-0.561693	-0.699535	-0.767841
H95	H	-0.415823	-0.871930	-0.781301
H96	H	-0.421365	-0.762134	-0.685377
O97	O	-0.506893	-1.094461	-0.670855
C98	C	-0.612824	-1.076160	-0.810628
C99	C	-0.554107	-1.019588	-0.733063
H100	H	-0.651024	-1.015650	-0.860928
H101	H	-0.574632	-1.129981	-0.863272
H102	H	-0.656327	-1.124741	-0.765046
H103	H	-0.510592	-0.970952	-0.778559
H104	H	-0.592351	-0.965830	-0.680419
H105	H	-0.294798	-1.365294	-1.224625
