data_functionalizedCrystal
_audit_creation_method	'MofGen! by Chris Wilmer'
_symmetry_space_group_name_H-M	'P1'
_symmetry_Int_Tables_number	1
_symmetry_cell_setting	triclinic
loop_
_symmetry_equiv_pos_as_xyz
  x,y,z
_cell_length_a	14.853567
_cell_length_b	14.586319
_cell_length_c	16.109301
_cell_angle_alpha	90.005214
_cell_angle_beta	96.451794
_cell_angle_gamma	89.999465
loop_
_atom_site_label
_atom_site_type_symbol
_atom_site_fract_x
_atom_site_fract_y
_atom_site_fract_z
O1	O	1.196184	-0.076180	-0.108546
O2	O	0.933703	-0.076196	-0.121477
O3	O	1.072154	-0.076178	0.006009
O4	O	1.057733	-0.076198	-0.236033
O5	O	1.072145	0.076302	0.006011
O6	O	0.933694	0.076285	-0.121475
O7	O	1.196175	0.076301	-0.108545
Cu8	Cu	1.064933	0.090215	-0.115010
Cu9	Cu	1.064945	-0.090111	-0.115012
O10	O	1.057724	0.076283	-0.236031
C11	C	0.900111	0.000042	-0.120890
C12	C	0.800030	0.000036	-0.119135
N13	N	1.064932	0.217047	-0.115008
N14	N	1.064953	-0.216943	-0.115007
C15	C	0.387634	0.000064	-0.035983
C16	C	0.366102	0.000051	-0.187440
C17	C	0.460133	0.000047	-0.189090
C18	C	0.517919	0.000051	-0.114187
C19	C	0.481674	0.000058	-0.037632
C20	C	0.496386	0.000031	-0.265644
C21	C	0.590422	0.000027	-0.267298
C22	C	0.648210	0.000038	-0.192393
C23	C	0.611959	0.000045	-0.115835
C24	C	0.669745	0.000049	-0.040931
C25	C	0.633496	0.000063	0.035628
C26	C	0.539461	0.000068	0.037273
C27	C	0.742245	0.000033	-0.194038
C28	C	0.763785	0.000043	-0.042580
C29	C	1.229767	0.000060	-0.109131
C30	C	1.329848	0.000060	-0.110887
C31	C	1.071566	0.000062	0.036986
C32	C	1.069814	0.000064	0.129284
C33	C	1.126258	0.452061	-0.058576
C34	C	1.126261	0.548043	-0.058574
C35	C	1.003620	0.548036	-0.171442
C36	C	1.003614	0.452057	-0.171439
C37	C	1.064938	0.404072	-0.115007
C38	C	1.064947	0.596033	-0.115008
C39	C	1.064949	0.700100	-0.115006
C40	C	1.064935	0.299998	-0.115008
C41	C	1.058313	0.000040	-0.267007
C42	C	1.060064	0.000033	-0.359305
C43	C	1.147896	0.000054	0.351446
C44	C	1.146243	0.000046	0.438169
C45	C	0.981976	0.000040	0.418525
C46	C	0.983629	0.000041	0.331804
C47	C	1.066592	0.000053	0.298267
C48	C	1.063286	0.000044	0.471711
C49	C	1.061494	0.000036	0.565740
C50	C	1.068385	0.000059	0.204233
H51	H	0.810829	0.000050	0.018417
H52	H	0.771754	0.000023	-0.256371
O53	O	1.185743	0.594801	-0.003789
C54	C	1.172615	0.689806	-0.015901
H55	H	1.100933	0.702917	-0.046853
H56	H	1.223627	0.717036	-0.057687
C57	C	1.274239	0.722986	0.107144
C58	C	1.186195	0.739090	0.069134
H59	H	1.282620	0.753388	0.159597
H60	H	1.283087	0.658980	0.115303
H61	H	1.316739	0.745678	0.072314
H62	H	1.143697	0.716388	0.103960
H63	H	1.177341	0.803093	0.060984
O64	O	0.352383	-0.000086	0.038361
C65	C	0.298608	-0.079039	0.043840
H66	H	0.320828	-0.134243	0.000368
H67	H	0.224449	-0.061178	0.024746
C68	C	0.282735	-0.047036	0.187731
C69	C	0.310032	-0.114842	0.134344
H70	H	0.289778	-0.069120	0.243558
H71	H	0.318962	0.006158	0.184040
H72	H	0.220938	-0.032159	0.171810
H73	H	0.371831	-0.129710	0.150259
H74	H	0.273816	-0.168039	0.138039
O75	O	0.689596	-0.000099	0.108409
C76	C	0.673149	-0.079050	0.154894
H77	H	0.640984	-0.134246	0.111041
H78	H	0.625290	-0.061183	0.203077
C79	C	0.802787	-0.047075	0.253681
C80	C	0.763288	-0.114871	0.199819
H81	H	0.858387	-0.069170	0.281397
H82	H	0.813866	0.006118	0.222366
H83	H	0.762896	-0.032192	0.293826
H84	H	0.803174	-0.129745	0.159669
H85	H	0.752217	-0.168068	0.231129
H86	H	1.215449	0.000061	0.324144
O87	O	0.310009	-0.000119	-0.260218
C88	C	0.326450	-0.079082	-0.306703
H89	H	0.358604	-0.134275	-0.262849
H90	H	0.374316	-0.061231	-0.354882
C91	C	0.196824	-0.047105	-0.405498
C92	C	0.236309	-0.114897	-0.351636
H93	H	0.141222	-0.069196	-0.433219
H94	H	0.185749	0.006096	-0.374183
H95	H	0.236721	-0.032236	-0.445640
H96	H	0.196418	-0.129757	-0.311489
H97	H	0.247376	-0.168102	-0.382946
H98	H	0.509938	0.000102	0.099603
O99	O	0.440290	-0.000139	-0.338421
C100	C	0.456720	-0.079108	-0.384901
H101	H	0.488872	-0.134300	-0.341046
H102	H	0.504584	-0.061267	-0.433084
C103	C	0.327091	-0.047127	-0.483692
C104	C	0.366574	-0.114918	-0.429827
H105	H	0.271486	-0.069215	-0.511408
H106	H	0.316023	0.006078	-0.452379
H107	H	0.366986	-0.032265	-0.523837
H108	H	0.326684	-0.129770	-0.389677
H109	H	0.377633	-0.168126	-0.461134
O110	O	0.901469	0.000078	0.451243
C111	C	0.917441	0.000057	0.539189
H112	H	0.987801	0.028926	0.559477
H113	H	0.913079	-0.073095	0.563329
C114	C	0.759320	0.024399	0.550326
C115	C	0.845734	0.059863	0.575243
H116	H	0.715086	0.061286	0.572567
H117	H	0.748557	0.024410	0.491075
H118	H	0.755697	-0.036560	0.570444
H119	H	0.849359	0.120817	0.555116
H120	H	0.856495	0.059864	0.634492
H121	H	0.619928	0.000016	-0.329636
H122	H	0.917418	0.000037	0.288503
O123	O	1.185854	0.405590	-0.003675
C124	C	1.239991	0.468534	0.046120
H125	H	1.203033	0.536954	0.047116
H126	H	1.306953	0.478733	0.019015
C127	C	1.303986	0.347054	0.134558
C128	C	1.258591	0.431086	0.135788
H129	H	1.315464	0.323953	0.189869
H130	H	1.267516	0.304646	0.101009
H131	H	1.359783	0.355564	0.111967
H132	H	1.202791	0.422572	0.158369
H133	H	1.295052	0.473491	0.169343
H134	H	0.953693	0.587115	-0.217389
H135	H	0.953676	0.412981	-0.217393
H136	H	1.212449	0.000045	0.481464
