data_functionalizedCrystal
_audit_creation_method	'MofGen! by Chris Wilmer'
_symmetry_space_group_name_H-M	'P1'
_symmetry_Int_Tables_number	1
_symmetry_cell_setting	triclinic
loop_
_symmetry_equiv_pos_as_xyz
  x,y,z
_cell_length_a	17.699083
_cell_length_b	16.176319
_cell_length_c	17.699083
_cell_angle_alpha	90.008460
_cell_angle_beta	96.716985
_cell_angle_gamma	90.005199
loop_
_atom_site_label
_atom_site_type_symbol
_atom_site_fract_x
_atom_site_fract_y
_atom_site_fract_z
O1	O	-1.004072	0.068624	0.095715
O2	O	-0.504072	0.568624	0.595715
O3	O	-0.783693	0.068653	0.108167
O4	O	-0.283693	0.568653	0.608167
O5	O	-0.900109	0.068630	-0.008248
O6	O	-0.400109	0.568630	0.491752
O7	O	-0.887656	0.068647	0.212130
O8	O	-0.387656	0.568647	0.712130
O9	O	-0.900107	-0.068863	-0.008259
O10	O	-0.400107	0.431137	0.491741
O11	O	-0.783691	-0.068840	0.108157
O12	O	-0.283691	0.431160	0.608157
O13	O	-1.004070	-0.068869	0.095704
O14	O	-0.504070	0.431131	0.595704
Cu15	Cu	-0.893880	-0.081409	0.101929
Cu16	Cu	-0.393880	0.418591	0.601929
Cu17	Cu	-0.893883	0.081193	0.101942
Cu18	Cu	-0.393883	0.581193	0.601942
O19	O	-0.887654	-0.068846	0.212119
O20	O	-0.387654	0.431154	0.712119
C21	C	-0.755495	-0.000090	0.107716
C22	C	-0.255495	0.499910	0.607716
C23	C	-0.671477	-0.000079	0.106377
C24	C	-0.171477	0.499921	0.606377
C25	C	-0.899662	-0.000116	-0.036451
C26	C	-0.399662	0.499884	0.463549
C27	C	-0.898323	-0.000116	-0.120469
C28	C	-0.398323	0.499884	0.379531
C29	C	-0.622856	-0.000074	0.174710
C30	C	-0.122856	0.499926	0.674710
C31	C	-0.543913	-0.000084	0.173448
C32	C	-0.043913	0.499916	0.673448
C33	C	-0.513592	-0.000093	0.103852
C34	C	-0.013592	0.499907	0.603852
C35	C	-0.562219	-0.000101	0.035513
C36	C	-0.062219	0.499899	0.535513
C37	C	-0.641161	-0.000097	0.036776
C38	C	-0.141161	0.499903	0.536776
C39	C	-0.243856	-0.000119	0.030418
C40	C	0.256144	0.499881	0.530418
C41	C	-0.164908	-0.000121	0.029160
C42	C	0.335092	0.499879	0.529160
C43	C	-0.146608	-0.000106	0.167090
C44	C	0.353392	0.499894	0.667090
C45	C	-0.225550	-0.000102	0.168353
C46	C	0.274450	0.499898	0.668353
C47	C	-0.274170	-0.000114	0.100015
C48	C	0.225830	0.499886	0.600015
C49	C	-0.359769	-0.000105	0.101384
C50	C	0.140231	0.499895	0.601384
C51	C	-0.427995	-0.000097	0.102481
C52	C	0.072005	0.499903	0.602481
C53	C	-0.032268	-0.000122	0.096156
C54	C	0.467732	0.499878	0.596156
C55	C	-0.116286	-0.000122	0.097494
C56	C	0.383714	0.499878	0.597494
N57	N	-0.893885	0.195558	0.101945
N58	N	-0.393885	0.695558	0.601945
N59	N	-0.893884	-0.195774	0.101920
N60	N	-0.393884	0.304226	0.601920
C61	C	-0.945529	0.238812	0.050498
C62	C	-0.445529	0.738812	0.550498
C63	C	-0.945532	0.325359	0.050496
C64	C	-0.445532	0.825359	0.550496
C65	C	-0.893887	0.368651	0.101939
C66	C	-0.393887	0.868651	0.601939
C67	C	-0.842240	0.325390	0.153392
C68	C	-0.342240	0.825390	0.653392
C69	C	-0.842241	0.238845	0.153397
C70	C	-0.342241	0.738845	0.653397
C71	C	-0.842234	0.674419	0.153375
C72	C	-0.342234	1.174419	0.653375
C73	C	-0.842236	0.760970	0.153364
C74	C	-0.342236	1.260970	0.653364
C75	C	-0.945525	0.760933	0.050474
C76	C	-0.445525	1.260933	0.550474
C77	C	-0.945527	0.674388	0.050479
C78	C	-0.445527	1.174388	0.550479
C79	C	-0.893883	0.631135	0.101934
C80	C	-0.393883	1.131135	0.601934
C81	C	-0.893881	0.537291	0.101936
C82	C	-0.393881	1.037291	0.601936
C83	C	-0.893884	0.462493	0.101934
C84	C	-0.393884	0.962493	0.601934
C85	C	-0.966656	-0.000127	-0.169090
C86	C	-0.466656	0.499873	0.330910
C87	C	-0.965394	-0.000119	-0.248033
C88	C	-0.465394	0.499881	0.251967
C89	C	-0.895798	-0.000107	-0.278354
C90	C	-0.395798	0.499893	0.221646
C91	C	-0.827459	-0.000095	-0.229727
C92	C	-0.327459	0.499905	0.270273
C93	C	-0.828722	-0.000096	-0.150785
C94	C	-0.328722	0.499904	0.349215
C95	C	-0.822364	-0.000087	-0.548090
C96	C	-0.322364	0.499913	-0.048090
C97	C	-0.821106	-0.000088	-0.627038
C98	C	-0.321106	0.499912	-0.127038
C99	C	-0.959036	-0.000110	-0.645338
C100	C	-0.459036	0.499890	-0.145338
C101	C	-0.960299	-0.000112	-0.566396
C102	C	-0.460299	0.499888	-0.066396
C103	C	-0.891961	-0.000095	-0.517776
C104	C	-0.391961	0.499905	-0.017776
C105	C	-0.893330	-0.000101	-0.432177
C106	C	-0.393330	0.499899	0.067823
C107	C	-0.894427	-0.000107	-0.363951
C108	C	-0.394427	0.499893	0.136049
C109	C	-0.888102	-0.000098	0.240322
C110	C	-0.388102	0.499902	0.740322
C111	C	-0.889440	-0.000092	0.324340
C112	C	-0.389440	0.499908	0.824340
H113	H	-0.647537	-0.000066	0.231384
H114	H	-0.147537	0.499934	0.731384
H115	H	-0.140225	-0.000130	-0.027517
H116	H	0.359775	0.499870	0.472483
O117	O	-0.792136	0.632282	0.203320
O118	O	-0.292136	1.132282	0.703320
C119	C	-0.803194	0.546611	0.192287
C120	C	-0.303194	1.046611	0.692287
H121	H	-0.863459	0.534774	0.164038
H122	H	-0.363459	1.034774	0.664038
H123	H	-0.794552	0.513736	0.249616
H124	H	-0.294552	1.013736	0.749616
H125	H	-0.760512	0.522047	0.154289
H126	H	-0.260512	1.022047	0.654289
H127	H	-0.504328	-0.000079	0.229092
H128	H	-0.004328	0.499921	0.729092
H129	H	-0.800188	0.203628	0.195291
H130	H	-0.300188	0.703628	0.695291
H131	H	-0.283434	-0.000130	-0.025228
H132	H	0.216566	0.499870	0.474772
H133	H	-1.014680	-0.000120	-0.684934
H134	H	-0.514680	0.499880	-0.184934
O135	O	-0.792146	0.367405	0.203468
O136	O	-0.292146	0.867405	0.703468
C137	C	-0.804151	0.346260	0.278418
C138	C	-0.304151	0.846260	0.778418
H139	H	-0.864730	0.322466	0.278829
H140	H	-0.364730	0.822466	0.778829
H141	H	-0.795303	0.403187	0.316402
H142	H	-0.295303	0.903187	0.816402
H143	H	-0.762129	0.296033	0.300631
H144	H	-0.262129	0.796033	0.800631
H145	H	-1.023330	-0.000141	-0.144409
H146	H	-0.523330	0.499859	0.355591
H147	H	-0.987579	0.639142	0.008587
H148	H	-0.487579	1.139142	0.508587
H149	H	-0.987582	0.203570	0.008604
H150	H	-0.487582	0.703570	0.508604
O151	O	-0.532642	-0.000075	-0.032027
O152	O	-0.032642	0.499925	0.467973
C153	C	-0.452540	-0.000096	-0.018491
C154	C	0.047460	0.499904	0.481509
H155	H	-0.433889	0.025940	0.040608
H156	H	0.066111	0.525940	0.540608
H157	H	-0.428379	0.039817	-0.063015
H158	H	0.071621	0.539817	0.436985
H159	H	-0.430579	-0.066059	-0.022123
H160	H	0.069421	0.433941	0.477877
H161	H	-0.250232	-0.000091	0.225025
H162	H	0.249768	0.499909	0.725025
O163	O	-0.688286	-0.000060	-0.029673
O164	O	-0.188286	0.499940	0.470327
C165	C	-0.644599	-0.000088	-0.091372
C166	C	-0.144599	0.499912	0.408628
H167	H	-0.585640	0.025941	-0.072053
H168	H	-0.085640	0.525941	0.427947
H169	H	-0.673804	0.039827	-0.139239
H170	H	-0.173804	0.539827	0.360761
H171	H	-0.639026	-0.066053	-0.112717
H172	H	-0.139026	0.433947	0.387283
H173	H	-0.800178	0.796217	0.195258
H174	H	-0.300178	1.296217	0.695258
O175	O	-0.995726	0.367248	0.000445
O176	O	-0.495726	0.867248	0.500445
C177	C	-1.041318	0.310480	-0.044949
C178	C	-0.541318	0.810480	0.455051
H179	H	-1.010297	0.248791	-0.045819
H180	H	-0.510297	0.748791	0.454181
H181	H	-1.053087	0.335471	-0.105402
H182	H	-0.553087	0.835471	0.394598
H183	H	-1.097437	0.301274	-0.020336
H184	H	-0.597437	0.801274	0.479664
H185	H	-0.987579	0.796159	0.008579
H186	H	-0.487579	1.296159	0.508579
O187	O	-1.027924	0.000025	-0.536980
O188	O	-0.527924	0.500025	-0.036980
C189	C	-1.069579	0.071219	-0.561844
C190	C	-0.569579	0.571219	-0.061844
H191	H	-1.028878	0.120994	-0.578183
H192	H	-0.528878	0.620994	-0.078183
H193	H	-1.101691	0.095118	-0.514076
H194	H	-0.601691	0.595118	-0.014076
H195	H	-1.111849	0.055115	-0.613374
H196	H	-0.611849	0.555115	-0.113374
O197	O	-1.031843	-0.000171	-0.295155
O198	O	-0.531843	0.499829	0.204845
C199	C	-1.093541	-0.000169	-0.251465
C200	C	-0.593541	0.499831	0.248535
H201	H	-1.074218	-0.026196	-0.192514
H202	H	-0.574218	0.473804	0.307486
H203	H	-1.141407	-0.040098	-0.280681
H204	H	-0.641407	0.459902	0.219319
H205	H	-1.114889	0.065788	-0.245874
H206	H	-0.614889	0.565788	0.254126
O207	O	-0.099454	-0.000213	0.233526
O208	O	0.400546	0.499787	0.733526
C209	C	-0.113176	-0.071424	0.275781
C210	C	0.386824	0.428576	0.775781
H211	H	-0.173098	-0.095163	0.257084
H212	H	0.326902	0.404837	0.757084
H213	H	-0.107505	-0.055398	0.338916
H214	H	0.392495	0.444602	0.838916
H215	H	-0.070021	-0.121292	0.265512
H216	H	0.429979	0.378708	0.765512
H217	H	-0.764429	-0.000080	-0.651721
H218	H	-0.264429	0.499920	-0.151721
H219	H	-0.766718	-0.000074	-0.508512
H220	H	-0.266718	0.499926	-0.008512
O221	O	-0.759918	-0.000120	-0.259304
O222	O	-0.259918	0.499880	0.240696
C223	C	-0.773455	-0.000103	-0.339406
C224	C	-0.273455	0.499897	0.160594
H225	H	-0.832552	-0.026141	-0.358057
H226	H	-0.332552	0.473859	0.141943
H227	H	-0.728928	-0.040015	-0.363567
H228	H	-0.228928	0.459985	0.136433
H229	H	-0.769828	0.065860	-0.361366
H230	H	-0.269828	0.565860	0.138634
H231	H	-0.773078	-0.000088	-0.111198
H232	H	-0.273078	0.499912	0.388802
