data_functionalizedCrystal
_audit_creation_method	'MofGen! by Chris Wilmer'
_symmetry_space_group_name_H-M	'P1'
_symmetry_Int_Tables_number	1
_symmetry_cell_setting	triclinic
loop_
_symmetry_equiv_pos_as_xyz
  x,y,z
_cell_length_a	17.640280
_cell_length_b	18.215407
_cell_length_c	18.215399
_cell_angle_alpha	90.018561
_cell_angle_beta	78.775397
_cell_angle_gamma	101.207578
loop_
_atom_site_label
_atom_site_type_symbol
_atom_site_fract_x
_atom_site_fract_y
_atom_site_fract_z
Zn1	Zn	-0.314854	-1.184402	-0.356900
Zn2	Zn	-0.447036	-1.209218	-0.208984
Zn3	Zn	-0.314860	-1.061336	-0.233849
Zn4	Zn	-0.446972	-1.086196	-0.332024
O5	O	-0.380930	-1.135288	-0.282939
O6	O	-0.332413	-1.290683	-0.337283
O7	O	-0.429531	-1.189583	-0.109293
O8	O	-0.204252	-1.056871	-0.270989
O9	O	-0.429526	-1.308915	-0.228610
O10	O	-0.204248	-1.147287	-0.361394
O11	O	-0.332423	-1.080934	-0.127561
O12	O	-0.332360	-0.961645	-0.246867
O13	O	-0.429417	-1.099242	-0.438314
O14	O	-0.429422	-0.979909	-0.318996
O15	O	-0.332351	-1.171393	-0.456590
O16	O	-0.557635	-1.213689	-0.204489
O17	O	-0.557587	-1.123305	-0.294886
C18	C	-0.380886	-0.944073	-0.282931
C19	C	-0.380885	-0.862274	-0.282941
C20	C	-0.330433	-0.587739	-0.339580
C21	C	-0.330424	-0.664596	-0.339581
C22	C	-0.431401	-0.683573	-0.226306
C23	C	-0.431413	-0.606718	-0.226310
C24	C	-0.380925	-0.558802	-0.282946
C25	C	-0.380904	-0.712514	-0.282943
C26	C	-0.380895	-0.795846	-0.282943
C27	C	-0.380935	-0.475465	-0.282947
C28	C	-0.586290	-1.173908	-0.244306
C29	C	-0.674144	-1.190496	-0.227803
C30	C	-0.963099	-1.009565	-0.408577
C31	C	-1.045651	-1.025155	-0.393047
C32	C	-1.045635	-1.119330	-0.299012
C33	C	-0.963081	-1.103751	-0.314537
C34	C	-0.921820	-1.048867	-0.369320
C35	C	-0.921802	-1.143053	-0.275280
C36	C	-0.839255	-1.127472	-0.290801
C37	C	-0.797988	-1.072590	-0.345580
C38	C	-0.839273	-1.033287	-0.384841
C39	C	-0.963065	-1.197932	-0.220493
C40	C	-0.921785	-1.237234	-0.181236
C41	C	-0.839237	-1.221658	-0.196761
C42	C	-0.797970	-1.166775	-0.251539
C43	C	-0.797952	-1.260961	-0.157499
C44	C	-0.715406	-1.245380	-0.173020
C45	C	-0.715424	-1.151195	-0.267061
C46	C	-0.174768	-1.096538	-0.321740
C47	C	-0.086915	-1.080024	-0.338274
C48	C	-0.380876	-1.135323	-0.474903
C49	C	-0.380853	-1.135337	-0.556706
C50	C	-0.380963	-0.327247	-0.282947
C51	C	-0.380943	-0.409042	-0.282949
C52	C	-0.330263	-1.172914	-0.754426
C53	C	-0.330240	-1.172919	-0.831290
C54	C	-0.431320	-1.097789	-0.812246
C55	C	-0.431338	-1.097781	-0.735385
C56	C	-0.380811	-1.135348	-0.706477
C57	C	-0.380770	-1.135361	-0.860201
C58	C	-0.380745	-1.135365	-0.943540
C59	C	-0.380834	-1.135342	-0.623134
C60	C	-0.380928	-1.135285	-0.091734
C61	C	-0.380728	-1.135371	-0.009973
H62	H	-0.472506	-0.722595	-0.180194
H63	H	-0.289309	-0.688152	-0.385698
H64	H	-0.472534	-0.583159	-0.180190
F65	F	-0.485094	-1.057813	-0.843019
H66	H	-0.289118	-1.203502	-0.730893
H67	H	-0.929503	-0.964879	-0.453193
H68	H	-0.472500	-1.067184	-0.696343
F69	F	-0.671506	-1.092787	-0.325373
H70	H	-0.289322	-0.548728	-0.385697
F71	F	-0.710134	-1.056140	-0.362232
H72	H	-0.805677	-0.988600	-0.429456
H73	H	-1.079258	-0.993155	-0.425028
F74	F	-0.965707	-1.295644	-0.122935
F75	F	-1.089557	-1.177740	-0.240711
F76	F	-1.050919	-1.214534	-0.203996
F77	F	-0.841876	-1.319365	-0.099193
F78	F	-0.671470	-1.287204	-0.131233
F79	F	-0.276445	-1.212909	-0.882317
