data_functionalizedCrystal
_audit_creation_method	'MofGen! by Chris Wilmer'
_symmetry_space_group_name_H-M	'P1'
_symmetry_Int_Tables_number	1
_symmetry_cell_setting	triclinic
loop_
_symmetry_equiv_pos_as_xyz
  x,y,z
_cell_length_a	21.295420
_cell_length_b	21.295417
_cell_length_c	19.805399
_cell_angle_alpha	89.969157
_cell_angle_beta	89.981220
_cell_angle_gamma	90.028757
loop_
_atom_site_label
_atom_site_type_symbol
_atom_site_fract_x
_atom_site_fract_y
_atom_site_fract_z
Zn1	Zn	0.962319	-0.250653	-0.382690
Zn2	Zn	1.295652	0.082680	-0.049357
Zn3	Zn	1.628985	0.416013	0.283977
Zn4	Zn	0.962232	-0.355922	-0.269495
Zn5	Zn	1.295565	-0.022589	0.063838
Zn6	Zn	1.628899	0.310745	0.397171
Zn7	Zn	0.857053	-0.250667	-0.269516
Zn8	Zn	1.190386	0.082666	0.063817
Zn9	Zn	1.523719	0.415999	0.397151
Zn10	Zn	0.857011	-0.355885	-0.382644
Zn11	Zn	1.190345	-0.022552	-0.049310
Zn12	Zn	1.523678	0.310781	0.284023
O13	O	0.909654	-0.303282	-0.326086
O14	O	1.242987	0.030051	0.007247
O15	O	1.576320	0.363385	0.340580
O16	O	1.050396	-0.264627	-0.367685
O17	O	1.383730	0.068707	-0.034352
O18	O	1.717063	0.402040	0.298982
O19	O	0.948261	-0.341981	-0.174781
O20	O	1.281594	-0.008648	0.158552
O21	O	1.614927	0.324686	0.491885
O22	O	0.871070	-0.162576	-0.284557
O23	O	1.204403	0.170757	0.048776
O24	O	1.537737	0.504091	0.382110
O25	O	1.050333	-0.341967	-0.284521
O26	O	1.383666	-0.008634	0.048812
O27	O	1.716999	0.324699	0.382145
O28	O	0.948409	-0.162566	-0.367705
O29	O	1.281742	0.170768	-0.034372
O30	O	1.615075	0.504101	0.298961
O31	O	0.870986	-0.264651	-0.174797
O32	O	1.204319	0.068682	0.158537
O33	O	1.537653	0.402016	0.491870
O34	O	0.768958	-0.264615	-0.284512
O35	O	1.102291	0.068718	0.048821
O36	O	1.435624	0.402051	0.382155
O37	O	0.870999	-0.341905	-0.477366
O38	O	1.204333	-0.008571	-0.144033
O39	O	1.537666	0.324762	0.189300
O40	O	0.768927	-0.341918	-0.367626
O41	O	1.102261	-0.008585	-0.034293
O42	O	1.435594	0.324748	0.299040
O43	O	0.948368	-0.264591	-0.477400
O44	O	1.281702	0.068742	-0.144067
O45	O	1.615035	0.402075	0.189266
O46	O	0.948220	-0.444006	-0.284476
O47	O	1.281554	-0.110673	0.048857
O48	O	1.614887	0.222660	0.382190
O49	O	0.870915	-0.443980	-0.367606
O50	O	1.204249	-0.110646	-0.034273
O51	O	1.537582	0.222687	0.299061
C52	C	0.746102	-0.303265	-0.326067
C53	C	1.079435	0.030068	0.007267
C54	C	1.412769	0.363402	0.340600
C55	C	0.676134	-0.303273	-0.326075
C56	C	1.009467	0.030061	0.007259
C57	C	1.342801	0.363394	0.340592
C58	C	0.176677	-0.343608	-0.369322
C59	C	0.510010	-0.010274	-0.035988
C60	C	0.843343	0.323059	0.297345
C61	C	0.242419	-0.343608	-0.369315
C62	C	0.575752	-0.010275	-0.035981
C63	C	0.909086	0.323059	0.297352
C64	C	0.275294	-0.303296	-0.326107
C65	C	0.608628	0.030037	0.007226
C66	C	0.941961	0.363370	0.340559
C67	C	0.242422	-0.262993	-0.282892
C68	C	0.575755	0.070341	0.050441
C69	C	0.909089	0.403674	0.383775
C70	C	0.176681	-0.262998	-0.282895
C71	C	0.510014	0.070335	0.050438
C72	C	0.843347	0.403669	0.383771
N73	N	0.378536	-0.248179	-0.321019
N74	N	0.711869	0.085154	0.012314
N75	N	1.045202	0.418487	0.345648
N76	N	0.440987	-0.248176	-0.321019
N77	N	0.774320	0.085157	0.012314
N78	N	1.107654	0.418490	0.345647
C79	C	0.473369	-0.303278	-0.326093
C80	C	0.806703	0.030055	0.007240
C81	C	1.140036	0.363388	0.340574
N82	N	0.440941	-0.358385	-0.331179
N83	N	0.774274	-0.025052	0.002154
N84	N	1.107607	0.308281	0.335487
N85	N	0.378483	-0.358388	-0.331182
N86	N	0.711817	-0.025055	0.002151
N87	N	1.045150	0.308279	0.335484
C88	C	0.346580	-0.303286	-0.326099
C89	C	0.679913	0.030047	0.007235
C90	C	1.013246	0.363381	0.340568
C91	C	0.577519	-0.343583	-0.369295
C92	C	0.910853	-0.010250	-0.035962
C93	C	1.244186	0.323084	0.297372
C94	C	0.643263	-0.343584	-0.369283
C95	C	0.976596	-0.010251	-0.035950
C96	C	1.309930	0.323082	0.297384
C97	C	0.643265	-0.262963	-0.282864
C98	C	0.976598	0.070370	0.050470
C99	C	1.309931	0.403704	0.383803
C100	C	0.577522	-0.262967	-0.282872
C101	C	0.910856	0.070366	0.050461
C102	C	1.244189	0.403699	0.383795
C103	C	0.544653	-0.303277	-0.326091
C104	C	0.877987	0.030057	0.007242
C105	C	1.211320	0.363390	0.340575
C106	C	0.909571	-0.466834	-0.326049
C107	C	1.242904	-0.133500	0.007285
C108	C	1.576238	0.199833	0.340618
C109	C	0.909593	-0.536802	-0.326055
C110	C	1.242927	-0.203468	0.007278
C111	C	1.576260	0.129865	0.340611
C112	C	0.949882	-0.569661	-0.282814
C113	C	1.283215	-0.236328	0.050519
C114	C	1.616549	0.097005	0.383853
C115	C	0.949911	-0.635404	-0.282829
C116	C	1.283245	-0.302071	0.050504
C117	C	1.616578	0.031263	0.383837
C118	C	0.909641	-0.668284	-0.326079
C119	C	1.242974	-0.334951	0.007255
C120	C	1.576308	-0.001617	0.340588
C121	C	0.869350	-0.635416	-0.369328
C122	C	1.202683	-0.302083	-0.035995
C123	C	1.536016	0.031250	0.297338
C124	C	0.869326	-0.569675	-0.369317
C125	C	1.202659	-0.236342	-0.035983
C126	C	1.535993	0.096991	0.297350
N127	N	0.854574	-0.771548	-0.331232
N128	N	1.187907	-0.438215	0.002101
N129	N	1.521240	-0.104882	0.335435
N130	N	0.854598	-0.834000	-0.331239
N131	N	1.187931	-0.500666	0.002094
N132	N	1.521265	-0.167333	0.335427
C133	C	0.909712	-0.866359	-0.326117
C134	C	1.243045	-0.533025	0.007216
C135	C	1.576378	-0.199692	0.340549
N136	N	0.964801	-0.833907	-0.320975
N137	N	1.298134	-0.500574	0.012358
N138	N	1.631468	-0.167241	0.345692
N139	N	0.964776	-0.771450	-0.320964
N140	N	1.298109	-0.438117	0.012369
N141	N	1.631442	-0.104783	0.345702
C142	C	0.909663	-0.739569	-0.326096
C143	C	1.242996	-0.406236	0.007237
C144	C	1.576330	-0.072903	0.340570
C145	C	0.950036	-0.970504	-0.282890
C146	C	1.283369	-0.637171	0.050443
C147	C	1.616702	-0.303837	0.383776
C148	C	0.950066	-1.036248	-0.282910
C149	C	1.283399	-0.702914	0.050423
C150	C	1.616733	-0.369581	0.383756
C151	C	0.869499	-1.036259	-0.369406
C152	C	1.202832	-0.702926	-0.036073
C153	C	1.536166	-0.369592	0.297261
C154	C	0.869474	-0.970517	-0.369389
C155	C	1.202807	-0.637183	-0.036056
C156	C	1.536141	-0.303850	0.297277
C157	C	0.909741	-0.937643	-0.326128
C158	C	1.243075	-0.604310	0.007205
C159	C	1.576408	-0.270976	0.340539
C160	C	1.073844	-0.303299	-0.326106
C161	C	1.407177	0.030034	0.007227
C162	C	1.740511	0.363367	0.340561
C163	C	1.143812	-0.303307	-0.326115
C164	C	1.477145	0.030026	0.007219
C165	C	1.810479	0.363360	0.340552
C166	C	0.909689	-0.303242	-0.502629
C167	C	1.243022	0.030091	-0.169296
C168	C	1.576356	0.363424	0.164038
C169	C	0.909704	-0.303225	-0.577861
C170	C	1.243037	0.030108	-0.244528
C171	C	1.576371	0.363441	0.088806
C172	C	0.909754	-0.139092	-0.326139
C173	C	1.243087	0.194242	0.007195
C174	C	1.576420	0.527575	0.340528
C175	C	0.909796	-0.069123	-0.326161
C176	C	1.243130	0.264210	0.007172
C177	C	1.576463	0.597543	0.340506
C178	C	0.949991	-0.262966	-0.613224
C179	C	1.283324	0.070367	-0.279891
C180	C	1.616658	0.403700	0.053443
C181	C	0.949997	-0.262948	-0.683913
C182	C	1.283331	0.070385	-0.350579
C183	C	1.616664	0.403719	-0.017246
C184	C	0.909720	-0.303192	-0.719237
C185	C	1.243053	0.030141	-0.385903
C186	C	1.576386	0.363474	-0.052570
C187	C	0.869428	-0.343453	-0.683869
C188	C	1.202762	-0.010120	-0.350535
C189	C	1.536095	0.323213	-0.017202
C190	C	0.869419	-0.343468	-0.613182
C191	C	1.202752	-0.010135	-0.279848
C192	C	1.536086	0.323199	0.053485
C193	C	0.869464	-0.343395	-0.968942
C194	C	1.202797	-0.010061	-0.635609
C195	C	1.536130	0.323272	-0.302276
C196	C	0.869477	-0.343378	-1.039634
C197	C	1.202811	-0.010045	-0.706301
C198	C	1.536144	0.323288	-0.372968
C199	C	0.950042	-0.262875	-1.039673
C200	C	1.283375	0.070459	-0.706340
C201	C	1.616709	0.403792	-0.373007
C202	C	0.950033	-0.262889	-0.968986
C203	C	1.283366	0.070444	-0.635653
C204	C	1.616700	0.403777	-0.302319
C205	C	0.909739	-0.303148	-0.933624
C206	C	1.243073	0.030186	-0.600291
C207	C	1.576406	0.363519	-0.266958
C208	C	0.909732	-0.303166	-0.856976
C209	C	1.243065	0.030167	-0.523642
C210	C	1.576399	0.363501	-0.190309
C211	C	0.909730	-0.303178	-0.795884
C212	C	1.243063	0.030156	-0.462551
C213	C	1.576396	0.363489	-0.129217
C214	C	0.909655	-0.303276	-0.150230
C215	C	1.242988	0.030057	0.183103
C216	C	1.576321	0.363391	0.516436
C217	C	0.909762	-0.303116	-0.074999
C218	C	1.243095	0.030218	0.258335
C219	C	1.576428	0.363551	0.591668
H220	H	0.550756	-0.376406	-0.404486
H221	H	0.884090	-0.043072	-0.071152
H222	H	1.217423	0.290261	0.262181
N223	N	0.678713	-0.387059	-0.415881
N224	N	1.012047	-0.053726	-0.082548
N225	N	1.345380	0.279607	0.250785
H226	H	0.647913	-0.412593	-0.443259
H227	H	0.981246	-0.079260	-0.109926
H228	H	1.314580	0.254073	0.223408
H229	H	0.706015	-0.361470	-0.447249
H230	H	1.039349	-0.028137	-0.113916
H231	H	1.372682	0.305196	0.219417
N232	N	0.993449	-0.219532	-0.722064
N233	N	1.326782	0.113801	-0.388731
N234	N	1.660116	0.447134	-0.055397
H235	H	0.967886	-0.190352	-0.751394
H236	H	1.301219	0.142981	-0.418061
H237	H	1.634552	0.476315	-0.084728
H238	H	1.018961	-0.194081	-0.688925
H239	H	1.352294	0.139253	-0.355592
H240	H	1.685628	0.472586	-0.022259
N241	N	0.542075	-0.219495	-0.236271
N242	N	0.875409	0.113839	0.097063
N243	N	1.208742	0.447172	0.430396
H244	H	0.553539	-0.174529	-0.246870
H245	H	0.886873	0.158804	0.086463
H246	H	1.220206	0.492137	0.419796
H247	H	0.495452	-0.225667	-0.242848
H248	H	0.828785	0.107667	0.090485
H249	H	1.162118	0.441000	0.423819
N250	N	0.825862	-0.534234	-0.415954
N251	N	1.159196	-0.200901	-0.082620
N252	N	1.492529	0.132432	0.250713
H253	H	0.796696	-0.507004	-0.388410
H254	H	1.130030	-0.173671	-0.055077
H255	H	1.463363	0.159662	0.278257
H256	H	0.851459	-0.506949	-0.447331
H257	H	1.184792	-0.173616	-0.113998
H258	H	1.518126	0.159718	0.219335
H259	H	0.836676	-0.376152	-1.068393
H260	H	1.170009	-0.042818	-0.735060
H261	H	1.503342	0.290515	-0.401727
N262	N	0.826015	-0.386811	-0.930792
N263	N	1.159349	-0.053478	-0.597459
N264	N	1.492682	0.279856	-0.264125
H265	H	0.796860	-0.361223	-0.901470
H266	H	1.130193	-0.027890	-0.568137
H267	H	1.463527	0.305443	-0.234803
H268	H	0.800539	-0.412302	-0.963927
H269	H	1.133872	-0.078968	-0.630594
H270	H	1.467205	0.254365	-0.297261
N271	N	0.993478	-0.219486	-0.930886
N272	N	1.326811	0.113847	-0.597553
N273	N	1.660145	0.447180	-0.264219
H274	H	1.019001	-0.193978	-0.964015
H275	H	1.352334	0.139355	-0.630682
H276	H	1.685668	0.472689	-0.297349
H277	H	0.967867	-0.190359	-0.901562
H278	H	1.301201	0.142974	-0.568229
H279	H	1.634534	0.476308	-0.234895
N280	N	0.993361	-0.670863	-0.236188
N281	N	1.326694	-0.337529	0.097145
N282	N	1.660028	-0.004196	0.430478
H283	H	1.038331	-0.659382	-0.246734
H284	H	1.371665	-0.326048	0.086599
H285	H	1.704998	0.007285	0.419932
H286	H	0.983548	-0.659450	-0.187835
H287	H	1.316881	-0.326117	0.145498
H288	H	1.650215	0.007216	0.478832
H289	H	0.836665	-0.943760	-0.404598
H290	H	1.169998	-0.610427	-0.071264
H291	H	1.503331	-0.277094	0.262069
H292	H	0.149919	-0.376433	-0.404512
H293	H	0.483252	-0.043099	-0.071179
H294	H	0.816586	0.290234	0.262155
N295	N	0.993465	-0.935042	-0.236235
N296	N	1.326798	-0.601708	0.097099
N297	N	1.660132	-0.268375	0.430432
H298	H	1.018997	-0.965837	-0.208846
H299	H	1.352330	-0.632504	0.124487
H300	H	1.685664	-0.299170	0.457820
H301	H	1.022570	-0.907719	-0.263809
H302	H	1.355903	-0.574385	0.069524
H303	H	1.689236	-0.241052	0.402858
H304	H	0.836607	-0.376245	-0.584390
H305	H	1.169940	-0.042912	-0.251057
H306	H	1.503274	0.290422	0.082277
H307	H	0.982878	-1.063001	-0.247700
H308	H	1.316211	-0.729668	0.085634
H309	H	1.649545	-0.396334	0.418967
H310	H	0.982792	-0.230196	-0.584468
H311	H	1.316125	0.103137	-0.251135
H312	H	1.649458	0.436470	0.082199
H313	H	0.982849	-0.230092	-1.068473
H314	H	1.316182	0.103241	-0.735140
H315	H	1.649515	0.436575	-0.401807
H316	H	0.836713	-1.063029	-0.404623
H317	H	1.170046	-0.729696	-0.071290
H318	H	1.503379	-0.396363	0.262043
N319	N	0.277877	-0.387077	-0.415917
N320	N	0.611210	-0.053744	-0.082584
N321	N	0.944543	0.279589	0.250749
H322	H	0.247079	-0.412614	-0.443296
H323	H	0.580412	-0.079281	-0.109962
H324	H	0.913745	0.254053	0.223371
H325	H	0.305174	-0.361483	-0.447285
H326	H	0.638507	-0.028150	-0.113951
H327	H	0.971841	0.305184	0.219382
N328	N	0.277876	-0.219515	-0.236286
N329	N	0.611209	0.113818	0.097047
N330	N	0.944542	0.447151	0.430380
H331	H	0.324510	-0.225626	-0.242841
H332	H	0.657843	0.107708	0.090492
H333	H	0.991177	0.441041	0.423825
H334	H	0.266406	-0.174571	-0.246907
H335	H	0.599739	0.158762	0.086426
H336	H	0.933072	0.492096	0.419760
N337	N	0.141229	-0.219530	-0.236291
N338	N	0.474562	0.113803	0.097043
N339	N	0.807896	0.447137	0.430376
H340	H	0.172028	-0.193993	-0.208915
H341	H	0.505362	0.139340	0.124419
H342	H	0.838695	0.472674	0.457752
H343	H	0.113976	-0.190432	-0.263901
H344	H	0.447309	0.142901	0.069433
H345	H	0.780643	0.476235	0.402766
H346	H	0.670031	-0.230143	-0.247681
H347	H	1.003364	0.103191	0.085652
H348	H	1.336698	0.436524	0.418985
N349	N	0.825971	-0.386847	-0.721965
N350	N	1.159304	-0.053514	-0.388631
N351	N	1.492637	0.279820	-0.055298
H352	H	0.832086	-0.380727	-0.772111
H353	H	1.165420	-0.047394	-0.438778
H354	H	1.498753	0.285939	-0.105444
H355	H	0.835727	-0.431812	-0.709601
H356	H	1.169060	-0.098479	-0.376267
H357	H	1.502394	0.234855	-0.042934
H358	H	0.836563	-0.662192	-0.404543
H359	H	1.169896	-0.328858	-0.071210
H360	H	1.503229	0.004475	0.262123
N361	N	0.993320	-0.534205	-0.236166
N362	N	1.326654	-0.200872	0.097168
N363	N	1.659987	0.132462	0.430501
H364	H	1.018851	-0.565002	-0.208778
H365	H	1.352184	-0.231668	0.124555
H366	H	1.685518	0.101665	0.457889
H367	H	1.022426	-0.506891	-0.263749
H368	H	1.355759	-0.173557	0.069584
H369	H	1.689092	0.159776	0.402918
