data_functionalizedCrystal
_audit_creation_method	'MofGen! by Chris Wilmer'
_symmetry_space_group_name_H-M	'P1'
_symmetry_Int_Tables_number	1
_symmetry_cell_setting	triclinic
loop_
_symmetry_equiv_pos_as_xyz
  x,y,z
_cell_length_a	10.685661
_cell_length_b	18.050590
_cell_length_c	10.686551
_cell_angle_alpha	85.590282
_cell_angle_beta	80.927378
_cell_angle_gamma	85.639637
loop_
_atom_site_label
_atom_site_type_symbol
_atom_site_fract_x
_atom_site_fract_y
_atom_site_fract_z
Zn1	Zn	1.995678	-0.346640	-0.866129
Zn2	Zn	1.979241	-0.479696	-0.653853
Zn3	Zn	1.767113	-0.346674	-0.637654
Zn4	Zn	1.783373	-0.461940	-0.849817
O5	O	1.881351	-0.408738	-0.751863
O6	O	2.171124	-0.371707	-0.851576
O7	O	1.937417	-0.469496	-0.474075
O8	O	1.797507	-0.242746	-0.668010
O9	O	2.159048	-0.469463	-0.695617
O10	O	1.965433	-0.242722	-0.835869
O11	O	1.781568	-0.371765	-0.462174
O12	O	1.591644	-0.354548	-0.652193
O13	O	1.825220	-0.439200	-1.029611
O14	O	1.603590	-0.439233	-0.808068
O15	O	1.981200	-0.354490	-1.041595
O16	O	1.953184	-0.581264	-0.679800
O17	O	1.809281	-0.568219	-0.823775
C18	C	1.551560	-0.394968	-0.726603
C19	C	1.410476	-0.389093	-0.715827
C20	C	1.881250	-0.601688	-0.751805
C21	C	1.881326	-0.684236	-0.751832
C22	C	1.959766	-0.890756	-0.673670
C23	C	1.999670	-0.936543	-0.791891
C24	C	1.881402	-0.835367	-0.751888
C25	C	1.841631	-0.936665	-0.633730
C26	C	1.881477	-0.981354	-0.751932
C27	C	1.921370	-0.880066	-0.870174
C28	C	1.763271	-0.880186	-0.711930
C29	C	1.803137	-0.925945	-0.830227
C30	C	1.881362	-0.751268	-0.751861
C31	C	1.881518	-1.065450	-0.751972
C32	C	2.212430	-0.422562	-0.777223
C33	C	2.353516	-0.428453	-0.788030
C34	C	1.906857	-0.394861	-1.082948
C35	C	1.917726	-0.388947	-1.224036
C36	C	1.881490	-0.215034	-0.751952
C37	C	1.881549	-0.132490	-0.751990
C38	C	1.856018	-0.422510	-0.422073
C39	C	1.845395	-0.428225	-0.281004
H40	H	2.026065	-0.875072	-0.607600
Br41	Br	1.728325	-0.491822	-1.182397
H42	H	1.412684	-0.466640	-0.858099
Br43	Br	1.311860	-0.325428	-0.599051
H44	H	1.663363	-0.855533	-0.678076
Br45	Br	2.166239	-0.977589	-0.848293
H46	H	1.736906	-0.941487	-0.896475
H47	H	1.987977	-0.350796	-1.283208
Br48	Br	1.977697	-0.838990	-1.036814
H49	H	1.807963	-0.961410	-0.533786
