data_functionalizedCrystal
_audit_creation_method	'MofGen! by Chris Wilmer'
_symmetry_space_group_name_H-M	'P1'
_symmetry_Int_Tables_number	1
_symmetry_cell_setting	triclinic
loop_
_symmetry_equiv_pos_as_xyz
  x,y,z
_cell_length_a	15.944557
_cell_length_b	15.021413
_cell_length_c	16.109301
_cell_angle_alpha	90.002593
_cell_angle_beta	83.481425
_cell_angle_gamma	89.994532
loop_
_atom_site_label
_atom_site_type_symbol
_atom_site_fract_x
_atom_site_fract_y
_atom_site_fract_z
O1	O	-1.114490	0.073997	-0.107243
O2	O	-0.869937	0.074007	-0.120457
O3	O	-0.998931	0.073993	0.007179
O4	O	-0.985495	0.074011	-0.234878
O5	O	-0.998911	-0.074072	0.007161
O6	O	-0.869916	-0.074057	-0.120475
O7	O	-1.114469	-0.074068	-0.107261
Zn8	Zn	-0.992190	-0.097571	-0.113871
Zn9	Zn	-0.992217	0.097510	-0.113847
O10	O	-0.985475	-0.074053	-0.234897
C11	C	-0.838633	-0.000024	-0.119917
C12	C	-0.745388	-0.000020	-0.118269
C13	C	-0.474784	-0.000041	-0.034228
C14	C	-0.525342	-0.073042	-0.074751
C15	C	-0.409748	-0.000042	-0.112394
C16	C	-0.525343	0.072938	-0.074754
C17	C	-0.574659	-0.000029	-0.115276
C18	C	-0.459077	-0.073103	-0.152896
C19	C	-0.459075	0.072942	-0.152887
C20	C	-0.509600	-0.000077	-0.193468
C21	C	-0.314747	-0.000049	-0.110731
C22	C	-0.669658	-0.000028	-0.116945
N23	N	-0.992177	-0.230708	-0.113887
C24	C	-0.932521	-0.470385	-0.172878
C25	C	-1.008416	-0.529721	-0.189020
C26	C	-0.992199	-0.412315	-0.113866
C27	C	-0.916325	-0.529721	-0.097742
C28	C	-0.992213	-0.587739	-0.113848
C29	C	-1.068132	-0.470345	-0.130046
C30	C	-0.975991	-0.470339	-0.038735
C31	C	-1.051940	-0.529649	-0.054846
C32	C	-0.992190	-0.311258	-0.113879
C33	C	-0.992231	-0.688794	-0.113835
C34	C	-0.145775	-0.000039	-0.107790
C35	C	-0.239025	-0.000050	-0.109403
C36	C	-0.998377	-0.000040	0.038145
C37	C	-0.996745	-0.000041	0.130441
N38	N	-0.992236	0.230648	-0.113824
C39	C	-0.986029	-0.000018	-0.265863
C40	C	-0.987661	-0.000011	-0.358158
C41	C	-1.069494	-0.000030	0.352688
C42	C	-1.067954	-0.000023	0.439409
C43	C	-0.914906	-0.000020	0.419588
C44	C	-0.916447	-0.000021	0.332868
C45	C	-0.993743	-0.000031	0.299421
C46	C	-0.990663	-0.000022	0.472861
C47	C	-0.988993	-0.000014	0.566888
C48	C	-0.995414	-0.000037	0.205388
H49	H	-0.459153	-0.000117	0.033092
H50	H	-0.554280	0.134652	-0.041722
H51	H	-0.525069	-0.000115	-0.260840
H52	H	-1.132434	-0.000036	0.325458
H53	H	-0.430126	0.134667	-0.185862
H54	H	-0.430249	-0.134888	-0.185890
C55	C	-1.153720	-0.435876	-0.148479
C56	C	-1.170612	-0.466741	-0.226893
C57	C	-1.249451	-0.435028	-0.243908
H58	H	-1.153303	-0.372642	-0.148473
H59	H	-1.196166	-0.456678	-0.106839
H60	H	-1.128178	-0.445934	-0.268523
H61	H	-1.171046	-0.529971	-0.226919
H62	H	-1.291896	-0.455830	-0.202268
H63	H	-1.249026	-0.371794	-0.243898
H64	H	-1.260925	-0.455971	-0.297109
H65	H	-1.022137	-0.555804	-0.252549
H66	H	-0.882104	-0.444364	-0.222823
H67	H	-1.102469	-0.555507	-0.004930
C68	C	-0.563801	-0.155450	-0.030840
C69	C	-0.528903	-0.231708	-0.071101
C70	C	-0.564299	-0.307635	-0.030664
H71	H	-0.623142	-0.155251	-0.032632
H72	H	-0.552128	-0.155430	0.025696
H73	H	-0.540582	-0.231728	-0.127623
H74	H	-0.469564	-0.231936	-0.069311
H75	H	-0.552626	-0.307615	0.025873
H76	H	-0.623640	-0.307427	-0.032458
H77	H	-0.540620	-0.359385	-0.057970
H78	H	-0.962245	-0.444236	0.024774
H79	H	-1.129638	-0.000021	0.482776
H80	H	-0.851974	-0.000014	0.446831
H81	H	-0.852153	-0.555804	-0.084113
H82	H	-0.854758	-0.000018	0.289496
