data_functionalizedCrystal
_audit_creation_method	'MofGen! by Chris Wilmer'
_symmetry_space_group_name_H-M	'P1'
_symmetry_Int_Tables_number	1
_symmetry_cell_setting	triclinic
loop_
_symmetry_equiv_pos_as_xyz
  x,y,z
_cell_length_a	18.215407
_cell_length_b	13.897448
_cell_length_c	13.897449
_cell_angle_alpha	90.009266
_cell_angle_beta	90.005175
_cell_angle_gamma	90.018140
loop_
_atom_site_label
_atom_site_type_symbol
_atom_site_fract_x
_atom_site_fract_y
_atom_site_fract_z
Zn1	Zn	1.125002	-0.384176	0.545414
Zn2	Zn	1.625002	0.115824	1.045414
Zn3	Zn	1.124958	-0.545437	0.384116
Zn4	Zn	1.624958	-0.045437	0.884116
Zn5	Zn	1.001966	-0.384159	0.384129
Zn6	Zn	1.501966	0.115841	0.884129
Zn7	Zn	1.001916	-0.545432	0.545365
Zn8	Zn	1.501916	-0.045432	1.045365
O9	O	1.063461	-0.464801	0.464756
O10	O	1.563461	0.035199	0.964756
O11	O	1.227981	-0.405577	0.524033
O12	O	1.727981	0.094423	1.024033
O13	O	1.108645	-0.524039	0.249136
O14	O	1.608645	-0.024039	0.749136
O15	O	1.018327	-0.249180	0.405550
O16	O	1.518327	0.250820	0.905550
O17	O	1.227948	-0.524055	0.405528
O18	O	1.727948	-0.024055	0.905528
O19	O	1.108721	-0.249192	0.524046
O20	O	1.608721	0.250808	1.024046
O21	O	1.018284	-0.405549	0.249146
O22	O	1.518284	0.094451	0.749146
O23	O	0.898975	-0.405543	0.405502
O24	O	1.398975	0.094457	0.905502
O25	O	1.018241	-0.524045	0.680353
O26	O	1.518241	-0.024045	1.180353
O27	O	0.898939	-0.524029	0.523961
O28	O	1.398939	-0.024029	1.023961
O29	O	1.108672	-0.405571	0.680389
O30	O	1.608672	0.094429	1.180389
O31	O	1.108596	-0.680418	0.405479
O32	O	1.608596	-0.180418	0.905479
O33	O	1.018198	-0.680414	0.523948
O34	O	1.518198	-0.180414	1.023948
C35	C	0.872254	-0.464784	0.464728
C36	C	1.372254	0.035216	0.964728
C37	C	0.790455	-0.464801	0.464739
C38	C	1.290455	0.035199	0.964739
C39	C	0.602262	-0.526593	0.526343
C40	C	1.102262	-0.026593	1.026343
C41	C	0.525403	-0.526596	0.526355
C42	C	1.025403	-0.026596	1.026355
C43	C	0.525412	-0.403026	0.403189
C44	C	1.025412	0.096974	0.903189
C45	C	0.602269	-0.403019	0.403183
C46	C	1.102269	0.096981	0.903183
C47	C	0.640692	-0.464808	0.464759
C48	C	1.140692	0.035192	0.964759
C49	C	0.486976	-0.464818	0.464777
C50	C	0.986976	0.035182	0.964777
C51	C	0.403642	-0.464821	0.464790
C52	C	0.903642	0.035179	0.964790
C53	C	0.724031	-0.464804	0.464748
C54	C	1.224031	0.035196	0.964748
C55	C	1.063407	-0.715415	0.464728
C56	C	1.563407	-0.215415	0.964728
C57	C	1.063451	-0.822629	0.464748
C58	C	1.563451	-0.322629	0.964748
C59	C	1.063528	-1.018924	0.464809
C60	C	1.563528	-0.518924	0.964809
C61	C	1.063483	-0.909692	0.464778
C62	C	1.563483	-0.409692	0.964778
C63	C	1.255413	-0.464818	0.464784
C64	C	1.755413	0.035182	0.964784
C65	C	1.337212	-0.464826	0.464796
C66	C	1.837212	0.035174	0.964796
C67	C	1.063456	-0.464809	0.716349
C68	C	1.563456	0.035191	1.216349
C69	C	1.063454	-0.464813	0.823563
C70	C	1.563454	0.035187	1.323563
C71	C	1.063535	-0.213208	0.464805
C72	C	1.563535	0.286792	0.964805
C73	C	1.063566	-0.105994	0.464826
C74	C	1.563566	0.394006	0.964826
C75	C	1.063452	-0.464817	0.910633
C76	C	1.563452	0.035183	1.410633
C77	C	1.063452	-0.464812	1.019865
C78	C	1.563452	0.035188	1.519865
C79	C	1.063458	-0.464812	1.214142
C80	C	1.563458	0.035188	1.714142
C81	C	1.063455	-0.464803	1.106928
C82	C	1.563455	0.035197	1.606928
H83	H	0.633560	-0.352700	0.353033
H84	H	1.133560	0.147300	0.853033
N85	N	0.643703	-0.593226	0.592764
N86	N	1.143703	-0.093226	1.092764
H87	H	0.698223	-0.583851	0.583415
H88	H	1.198223	-0.083851	1.083415
H89	H	0.630251	-0.662093	0.577634
H90	H	1.130251	-0.162093	1.077634
N91	N	0.483951	-0.593242	0.592771
N92	N	0.983951	-0.093242	1.092771
H93	H	0.497339	-0.578375	0.661716
H94	H	0.997339	-0.078375	1.161716
H95	H	0.497329	-0.662108	0.577580
H96	H	0.997329	-0.162108	1.077580
N97	N	0.483970	-0.336410	0.336753
N98	N	0.983970	0.163590	0.836753
H99	H	0.429449	-0.345799	0.346091
H100	H	0.929449	0.154201	0.846091
H101	H	0.497405	-0.351340	0.267846
H102	H	0.997405	0.148660	0.767846
