data_functionalizedCrystal
_audit_creation_method	'MofGen! by Chris Wilmer'
_symmetry_space_group_name_H-M	'P1'
_symmetry_Int_Tables_number	1
_symmetry_cell_setting	triclinic
loop_
_symmetry_equiv_pos_as_xyz
  x,y,z
_cell_length_a	11.792254
_cell_length_b	17.666332
_cell_length_c	11.792241
_cell_angle_alpha	89.994673
_cell_angle_beta	95.803993
_cell_angle_gamma	90.009198
loop_
_atom_site_label
_atom_site_type_symbol
_atom_site_fract_x
_atom_site_fract_y
_atom_site_fract_z
O1	O	1.506908	0.062948	-0.155636
O2	O	2.006908	0.562948	0.344364
O3	O	1.176569	0.062950	-0.171654
O4	O	1.676569	0.562950	0.328346
O5	O	1.349755	0.062944	0.001525
O6	O	1.849755	0.562944	0.501525
O7	O	1.333722	0.062954	-0.328815
O8	O	1.833722	0.562954	0.171185
O9	O	1.349724	-0.062953	0.001530
O10	O	1.849724	0.437047	0.501530
O11	O	1.176538	-0.062947	-0.171649
O12	O	1.676538	0.437053	0.328351
O13	O	1.506877	-0.062949	-0.155631
O14	O	2.006877	0.437051	0.344369
Cu15	Cu	1.341705	-0.074443	-0.163639
Cu16	Cu	1.841705	0.425557	0.336361
Cu17	Cu	1.341741	0.074444	-0.163646
Cu18	Cu	1.841741	0.574444	0.336354
O19	O	1.333691	-0.062943	-0.328810
O20	O	1.833691	0.437057	0.171190
C21	C	1.134263	0.000002	-0.170642
C22	C	1.634263	0.500002	0.329358
C23	C	1.008250	0.000002	-0.167622
C24	C	1.508250	0.500002	0.332378
N25	N	1.341688	-0.179163	-0.163634
N26	N	1.841688	0.320837	0.336366
C27	C	0.905913	0.000005	-0.165168
C28	C	1.405913	0.500005	0.334832
C29	C	0.777527	0.000006	-0.162100
C30	C	1.277527	0.500006	0.337900
C31	C	1.410937	-0.218764	-0.232946
C32	C	1.910937	0.281236	0.267054
C33	C	1.410955	-0.298012	-0.232943
C34	C	1.910955	0.201988	0.267057
C35	C	1.341703	-0.337655	-0.163641
C36	C	1.841703	0.162345	0.336359
C37	C	1.272449	-0.298044	-0.094315
C38	C	1.772449	0.201956	0.405685
C39	C	1.272441	-0.218798	-0.094312
C40	C	1.772441	0.281202	0.405688
N41	N	1.242271	-0.462094	-0.159925
N42	N	1.742271	0.037906	0.340075
N43	N	1.242281	-0.537374	-0.159935
N44	N	1.742281	-0.037374	0.340065
C45	C	1.341724	-0.576419	-0.163645
C46	C	1.841724	-0.076419	0.336355
N47	N	1.441157	-0.537339	-0.167368
N48	N	1.941157	-0.037339	0.332632
N49	N	1.441145	-0.462052	-0.167364
N50	N	1.941145	0.037948	0.332636
C51	C	1.341704	-0.423584	-0.163636
C52	C	1.841704	0.076416	0.336364
C53	C	1.410999	-0.701950	-0.232957
C54	C	1.910999	-0.201950	0.267043
C55	C	1.411019	-0.781199	-0.232946
C56	C	1.911019	-0.281199	0.267054
C57	C	1.272502	-0.781229	-0.094324
C58	C	1.772502	-0.281229	0.405676
C59	C	1.272492	-0.701982	-0.094329
C60	C	1.772492	-0.201982	0.405671
C61	C	1.341739	-0.662347	-0.163652
C62	C	1.841739	-0.162347	0.336348
C63	C	1.549183	0.000001	-0.156643
C64	C	2.049183	0.500001	0.343357
C65	C	1.675196	0.000006	-0.159663
C66	C	2.175196	0.500006	0.340337
C67	C	1.348732	-0.000005	0.043819
C68	C	1.848732	0.499995	0.543819
C69	C	1.345718	-0.000004	0.169832
C70	C	1.845718	0.499996	0.669832
N71	N	1.341767	0.179164	-0.163642
N72	N	1.841767	0.679164	0.336358
C73	C	1.334714	0.000007	-0.371104
C74	C	1.834714	0.500007	0.128896
C75	C	1.337728	0.000011	-0.497118
C76	C	1.837728	0.500011	0.002882
C77	C	1.340175	0.000009	0.400545
C78	C	1.840175	0.500009	0.900545
C79	C	1.343255	0.000002	0.272160
C80	C	1.843255	0.500002	0.772160
H81	H	1.467328	-0.186498	-0.289390
H82	H	1.967328	0.313502	0.210610
C83	C	1.487122	-0.341583	-0.309200
C84	C	1.987122	0.158417	0.190800
H85	H	1.528354	-0.306627	-0.350491
H86	H	2.028354	0.193373	0.149509
H87	H	1.539077	-0.372497	-0.263056
H88	H	2.039077	0.127503	0.236944
H89	H	1.440911	-0.372494	-0.361120
H90	H	1.940911	0.127506	0.138880
H91	H	1.216117	-0.813506	-0.037896
H92	H	1.716117	-0.313506	0.462104
H93	H	1.467384	-0.669677	-0.289403
H94	H	1.967384	-0.169677	0.210597
H95	H	1.467419	-0.813441	-0.289385
H96	H	1.967419	-0.313441	0.210615
C97	C	1.196269	-0.341648	-0.018089
C98	C	1.696269	0.158352	0.481911
H99	H	1.206182	-0.394516	-0.028026
H100	H	1.706182	0.105484	0.471974
H101	H	1.216880	-0.328667	0.059430
H102	H	1.716880	0.171333	0.559430
H103	H	1.118738	-0.328668	-0.038658
H104	H	1.618738	0.171332	0.461342
C105	C	1.196254	-0.175234	-0.018074
C106	C	1.696254	0.324766	0.481926
H107	H	1.155007	-0.210191	0.023198
H108	H	1.655007	0.289809	0.523198
H109	H	1.242438	-0.144313	0.033845
H110	H	1.742438	0.355687	0.533845
H111	H	1.144296	-0.144330	-0.064243
H112	H	1.644296	0.355670	0.435757
C113	C	1.196303	-0.658418	-0.018099
C114	C	1.696303	-0.158418	0.481901
H115	H	1.155052	-0.693376	0.023169
H116	H	1.655052	-0.193376	0.523169
H117	H	1.242486	-0.627499	0.033824
H118	H	1.742486	-0.127499	0.533824
H119	H	1.144346	-0.627511	-0.064267
H120	H	1.644346	-0.127511	0.435733
