data_functionalizedCrystal
_audit_creation_method	'MofGen! by Chris Wilmer'
_symmetry_space_group_name_H-M	'P1'
_symmetry_Int_Tables_number	1
_symmetry_cell_setting	triclinic
loop_
_symmetry_equiv_pos_as_xyz
  x,y,z
_cell_length_a	19.902436
_cell_length_b	15.698487
_cell_length_c	15.698487
_cell_angle_alpha	90.000712
_cell_angle_beta	60.003327
_cell_angle_gamma	59.996164
loop_
_atom_site_label
_atom_site_type_symbol
_atom_site_fract_x
_atom_site_fract_y
_atom_site_fract_z
Zr1	Zr	0.735499	-0.111889	0.820630
O2	O	0.875674	-0.247919	0.684618
O3	O	0.595320	-0.070177	0.862322
O4	O	0.735497	-0.247905	0.862325
O5	O	0.735500	0.069990	0.684616
O6	O	0.735500	-0.247907	1.002506
O7	O	0.735497	-0.070191	0.684615
O8	O	0.484749	0.070016	1.002500
O9	O	0.986250	-0.247933	0.684621
O10	O	0.652981	-0.052403	0.984722
O11	O	0.652981	0.052214	0.880106
O12	O	0.818021	-0.157037	0.880110
O13	O	0.818021	-0.052420	0.775495
Zr14	Zr	0.735507	0.111680	1.044203
Zr15	Zr	0.735503	-0.111893	1.044202
Zr16	Zr	0.735503	0.111683	0.820630
Zr17	Zr	0.911855	-0.111911	0.820634
Zr18	Zr	0.559150	0.111702	1.044198
O19	O	0.875686	0.069968	1.002511
O20	O	0.875680	-0.247924	1.002510
O21	O	0.875680	0.069972	0.684619
O22	O	0.595332	0.247710	1.180215
O23	O	0.595326	-0.070182	1.180213
O24	O	0.595326	0.247715	0.862323
O25	O	0.735506	-0.070199	1.180217
O26	O	0.735509	0.247695	1.002508
O27	O	0.735506	0.247697	0.862327
O28	O	0.735509	0.069982	1.180218
O29	O	0.986253	-0.247935	0.862331
O30	O	0.484752	0.247726	1.002501
O31	O	0.484756	0.247723	1.180212
O32	O	0.484752	0.070013	1.180211
O33	O	0.986253	-0.070222	0.684622
O34	O	0.986257	-0.070225	0.862332
O35	O	0.652985	0.156828	0.984722
O36	O	0.652985	0.052211	1.089338
O37	O	0.818025	-0.052423	0.984726
O38	O	0.818025	0.052194	0.880111
C39	C	0.514908	-0.000078	0.932410
C40	C	0.440040	-0.000068	0.932408
C41	C	0.735498	-0.000100	0.652761
C42	C	0.735496	-0.000099	0.557848
C43	C	0.735508	0.279551	0.932417
C44	C	0.735510	0.374463	0.932418
C45	C	0.168029	-0.000117	0.932419
C46	C	0.196268	0.066197	0.866745
C47	C	0.274387	0.065923	0.866389
C48	C	0.302976	-0.000092	0.932414
C49	C	0.338537	-0.113777	0.884284
C50	C	0.260699	-0.113428	0.883790
C51	C	0.133517	0.046343	1.046255
C52	C	0.210570	0.048657	1.046089
C53	C	0.379245	-0.000084	0.932412
C54	C	0.091765	-0.000133	0.932417
C55	C	0.956098	-0.000132	0.932422
C56	C	1.030966	-0.000141	0.932424
C57	C	0.735498	-0.279760	0.932415
C58	C	0.735496	-0.374672	0.932415
C59	C	0.735493	0.548248	0.932418
C60	C	0.735499	0.451545	0.932420
C61	C	0.735512	-0.000109	0.384063
C62	C	0.735507	-0.000106	0.480767
C63	C	0.735508	-0.000109	1.212072
C64	C	0.735510	-0.000110	1.306984
C65	C	0.514913	-0.000082	1.212066
C66	C	0.440047	-0.000074	1.306976
C67	C	0.514913	0.279578	0.932411
C68	C	0.440047	0.374499	0.932410
C69	C	0.514918	0.279573	1.212067
C70	C	0.440054	0.374494	1.306978
C71	C	0.956088	-0.279783	0.652766
C72	C	1.030952	-0.374703	0.557855
C73	C	0.956093	-0.000127	0.652767
C74	C	1.030959	-0.000135	0.557856
C75	C	0.956093	-0.279787	0.932421
C76	C	1.030959	-0.374709	0.932423
C77	C	0.404887	-0.054687	1.296939
C78	C	0.334551	-0.054701	1.386109
C79	C	0.299373	-0.000095	1.485315
C80	C	0.334540	0.054520	1.495351
C81	C	0.404879	0.054527	1.406182
C82	C	0.404891	0.473692	0.987017
C83	C	0.334556	0.562890	0.987012
C84	C	0.299373	0.552892	0.932404
C85	C	0.334536	0.453689	0.877790
C86	C	0.404875	0.364493	0.877790
C87	C	0.404897	0.364460	1.406166
C88	C	0.334563	0.453639	1.495354
C89	C	0.299384	0.552851	1.485350
C90	C	0.334548	0.562882	1.386151
C91	C	0.404884	0.473704	1.296966
C92	C	1.066118	-0.364669	0.458666
C93	C	1.136473	-0.453848	0.369479
C94	C	1.171656	-0.553060	0.379482
C95	C	1.136488	-0.563092	0.478681
C96	C	1.066139	-0.473914	0.567867
C97	C	1.066127	0.054469	0.567894
C98	C	1.136481	0.054458	0.478724
C99	C	1.171662	-0.000152	0.379517
C100	C	1.136492	-0.054762	0.369482
C101	C	1.066143	-0.054757	0.458651
C102	C	1.066120	-0.364678	0.987041
C103	C	1.136455	-0.453858	0.987063
C104	C	1.171634	-0.553069	0.932460
C105	C	1.136466	-0.563098	0.877840
C106	C	1.066128	-0.473918	0.877825
H107	H	0.247743	0.149637	0.898673
H108	H	0.405539	-0.151227	0.801318
H109	H	0.305894	0.643672	1.378022
O110	O	0.052396	0.144708	1.094043
C111	C	0.025534	0.173042	1.025286
H112	H	0.090464	0.124053	0.941421
H113	H	-0.005375	0.259183	1.036079
H114	H	-0.030207	0.158802	1.042758
O115	O	1.239937	-0.639801	0.932403
C116	C	1.263474	-0.729526	0.872474
H117	H	1.201788	-0.709075	0.868361
H118	H	1.278094	-0.792499	0.910297
H119	H	1.329572	-0.759557	0.790306
O120	O	0.363467	-0.175150	0.938687
C121	C	0.349032	-0.116030	1.021336
H122	H	0.350353	-0.046535	1.002466
H123	H	0.407833	-0.166860	1.032141
H124	H	0.277241	-0.086890	1.096231
H125	H	1.165095	-0.445660	0.288716
O126	O	0.231144	0.639395	1.572069
C127	C	0.265543	0.639222	1.631798
H128	H	0.325389	0.555933	1.612267
H129	H	0.205477	0.672016	1.718307
H130	H	0.293578	0.689577	1.613120
O131	O	1.170588	-0.107887	0.273188
C132	C	1.124448	-0.156061	0.283433
H133	H	1.095465	-0.166898	0.362999
H134	H	1.177220	-0.235380	0.219453
H135	H	1.063351	-0.104861	0.276130
O136	O	1.170491	-0.659391	0.488576
C137	C	1.124301	-0.649140	0.595246
H138	H	1.095430	-0.569636	0.642836
H139	H	1.177006	-0.713227	0.607668
H140	H	1.063119	-0.656271	0.621488
O141	O	1.031877	-0.483485	0.824814
C142	C	0.962283	-0.383508	0.836455
H143	H	0.931467	-0.324376	0.910232
H144	H	0.903135	-0.384506	0.842638
H145	H	0.995968	-0.360797	0.765910
H146	H	0.244751	-0.165521	0.928535
H147	H	1.037507	-0.482096	0.648628
H148	H	1.165081	-0.445672	1.031539
O149	O	0.119440	0.166393	0.904993
C150	C	0.147128	0.223704	0.844481
H151	H	0.226548	0.184156	0.803503
H152	H	0.106083	0.306325	0.897257
H153	H	0.131141	0.226973	0.783752
O154	O	0.439137	0.483233	1.040046
C155	C	0.508779	0.383246	1.028325
H156	H	0.497222	0.324135	1.008228
H157	H	0.503072	0.384238	1.104333
H158	H	0.582356	0.360511	0.962940
H159	H	1.228939	-0.625666	0.306854
H160	H	0.338843	0.033712	0.782421
H161	H	0.305880	0.445564	0.833330
O162	O	0.227233	0.027952	0.767195
C163	C	0.223435	-0.058450	0.756649
H164	H	0.225602	-0.093735	0.819459
H165	H	0.286853	-0.119469	0.676349
H166	H	0.154781	-0.032014	0.765610
O167	O	0.438887	0.107683	1.416126
C168	C	0.392762	0.155855	1.522812
H169	H	0.321472	0.166649	1.570353
H170	H	0.380619	0.235194	1.535262
H171	H	0.438897	0.104676	1.549089
O172	O	1.031980	0.107366	0.664310
C173	C	1.049186	0.037251	0.719154
H174	H	1.057930	-0.034619	0.685106
H175	H	0.986708	0.076878	0.804978
H176	H	1.116831	0.012800	0.711729
O177	O	0.231067	-0.000026	1.572037
C178	C	0.207528	0.059908	1.661759
H179	H	0.269216	0.064008	1.641320
H180	H	0.192903	0.022090	1.724733
H181	H	0.141434	0.142086	1.691778
O182	O	0.438996	0.268084	0.824905
C183	C	0.421769	0.213251	0.895020
H184	H	0.413032	0.247289	0.966890
H185	H	0.484235	0.127413	0.855406
H186	H	0.354115	0.220709	0.919462
H187	H	0.290239	-0.150621	0.800022
H188	H	1.165105	0.098932	0.486915
H189	H	1.037475	-0.283894	0.450501
O190	O	0.439140	0.268015	1.415712
C191	C	0.508781	0.191440	1.315735
H192	H	0.497225	0.226189	1.256622
H193	H	0.503071	0.122669	1.316727
H194	H	0.582359	0.163540	1.293010
O195	O	1.170660	-0.659417	0.824645
C196	C	1.211383	-0.670873	0.718041
H197	H	1.179601	-0.590597	0.709096
H198	H	1.195978	-0.717799	0.684575
H199	H	1.291499	-0.713488	0.674247
H200	H	0.305940	0.445453	1.576118
H201	H	0.181828	0.132410	1.082045
O202	O	0.300476	0.659169	1.040166
C203	C	0.346624	0.648855	1.088350
H204	H	0.375601	0.569266	1.099152
H205	H	0.293860	0.712812	1.167681
H206	H	0.407726	0.656148	1.037183
O207	O	1.239965	-0.000001	0.293011
C208	C	1.263468	0.059889	0.323157
H209	H	1.201767	0.117630	0.405475
H210	H	1.278080	0.104352	0.266829
H211	H	1.329561	0.006117	0.321544
H212	H	0.226176	0.005379	1.099144
H213	H	1.037488	-0.283903	1.031505
O214	O	0.111018	-0.011081	1.104778
C215	C	0.126414	-0.092892	1.043203
H216	H	0.123529	-0.071474	0.975154
H217	H	0.069009	-0.106011	1.092767
H218	H	0.199152	-0.167343	1.011897
O219	O	0.438977	-0.107828	1.200655
C220	C	0.392835	-0.156009	1.210938
H221	H	0.363853	-0.166818	1.290518
H222	H	0.445605	-0.235342	1.146980
H223	H	0.331737	-0.104830	1.203631
H224	H	0.305887	0.098978	1.576136
O225	O	0.231013	0.639649	0.932559
C226	C	0.207550	0.729339	0.992452
H227	H	0.226942	0.708847	1.050188
H228	H	0.128046	0.792338	1.036913
H229	H	0.248687	0.759359	0.938688
H230	H	0.305927	-0.099175	1.377917
O231	O	0.439173	0.483406	1.200594
C232	C	0.537746	0.435064	1.145709
H233	H	0.557025	0.430924	1.203556
H234	H	0.557953	0.482369	1.096413
H235	H	0.577969	0.352810	1.092778
O236	O	1.031812	-0.107637	0.449022
C237	C	0.933252	-0.037507	0.497298
H238	H	0.903414	0.034363	0.558088
H239	H	0.896796	-0.077119	0.536871
H240	H	0.919848	-0.013059	0.435972
