data_functionalizedCrystal
_audit_creation_method	'MofGen! by Chris Wilmer'
_symmetry_space_group_name_H-M	'P1'
_symmetry_Int_Tables_number	1
_symmetry_cell_setting	triclinic
loop_
_symmetry_equiv_pos_as_xyz
  x,y,z
_cell_length_a	14.971482
_cell_length_b	16.109304
_cell_length_c	13.448316
_cell_angle_alpha	89.996206
_cell_angle_beta	89.993798
_cell_angle_gamma	83.537623
loop_
_atom_site_label
_atom_site_type_symbol
_atom_site_fract_x
_atom_site_fract_y
_atom_site_fract_z
O1	O	1.186794	0.108333	-0.082673
O2	O	0.926375	0.121311	-0.082677
O3	O	1.063737	-0.006200	-0.082675
O4	O	1.049432	0.235844	-0.082674
O5	O	1.063720	-0.006208	0.082709
O6	O	0.926358	0.121303	0.082707
O7	O	1.186777	0.108325	0.082711
Cu8	Cu	1.056566	0.114814	0.097810
Cu9	Cu	1.056586	0.114823	-0.097776
O10	O	1.049415	0.235836	0.082710
C11	C	0.893043	0.120727	0.000015
C12	C	0.793748	0.118990	0.000013
C13	C	0.747095	0.118167	0.090165
C14	C	0.653799	0.116521	0.090166
C15	C	0.607157	0.115704	0.000014
C16	C	0.653816	0.116524	-0.090145
C17	C	0.747112	0.118164	-0.090145
C18	C	0.459359	0.113108	-0.090138
C19	C	0.366057	0.111469	-0.090139
C20	C	0.366047	0.111465	0.090172
C21	C	0.459342	0.113105	0.090172
C22	C	0.505995	0.113927	0.000013
C23	C	1.063149	-0.037179	0.000015
C24	C	1.061410	-0.129477	0.000008
C25	C	1.057403	-0.341815	-0.090139
C26	C	1.055761	-0.428537	-0.090138
C27	C	1.055747	-0.428543	0.090172
C28	C	1.057382	-0.341821	0.090170
C29	C	1.058215	-0.298460	0.000011
C30	C	1.054938	-0.471904	0.000014
C31	C	1.053157	-0.565932	0.000016
C32	C	1.059993	-0.204426	0.000009
C33	C	1.220110	0.108909	0.000018
C34	C	1.319404	0.110647	0.000013
C35	C	1.050003	0.266816	0.000018
C36	C	1.051742	0.359113	0.000018
N37	N	1.056558	0.114806	0.235374
N38	N	1.056601	0.114823	-0.235340
C39	C	1.117401	0.058368	0.287415
C40	C	1.117407	0.058367	0.391519
C41	C	1.056573	0.114810	0.443579
C42	C	0.995724	0.171251	0.391531
C43	C	0.995714	0.171247	0.287429
C44	C	0.995748	0.171257	0.608511
C45	C	0.995758	0.171262	0.712619
C46	C	1.117441	0.058377	0.712600
C47	C	1.117431	0.058373	0.608499
C48	C	1.056583	0.114815	0.556458
H49	H	0.328083	0.110804	-0.163548
C50	C	1.054836	-0.476250	0.189337
C51	C	0.976086	-0.526508	0.214122
C52	C	0.975175	-0.574218	0.313288
C53	C	1.053015	-0.571669	0.387668
C54	C	1.131770	-0.521408	0.362885
C55	C	1.132681	-0.473699	0.263720
H56	H	0.918459	-0.528397	0.159060
H57	H	0.916875	-0.611424	0.331633
H58	H	1.052341	-0.606986	0.461076
H59	H	1.189397	-0.519520	0.417947
H60	H	1.190981	-0.436493	0.245374
H61	H	1.166971	0.012417	0.566111
H62	H	0.615820	0.115837	0.163576
H63	H	0.946187	0.217205	0.433924
C64	C	1.058279	-0.294125	0.189343
C65	C	1.057376	-0.341818	0.288514
C66	C	1.058270	-0.294120	0.387681
C67	C	1.060067	-0.198730	0.387677
C68	C	1.060969	-0.151032	0.288502
C69	C	1.060075	-0.198729	0.189335
H70	H	1.056046	-0.412436	0.288520
H71	H	1.057602	-0.329431	0.461097
H72	H	1.060728	-0.163422	0.461087
H73	H	1.062299	-0.080413	0.288496
H74	H	1.060744	-0.163419	0.115919
H75	H	1.166942	0.012409	0.245035
C76	C	1.184371	-0.003714	0.769843
C77	C	1.184378	-0.003715	0.884351
C78	C	1.251309	-0.065799	0.941601
C79	C	1.318232	-0.127882	0.884343
C80	C	1.318227	-0.127882	0.769829
C81	C	1.251296	-0.065799	0.712580
H82	H	1.134836	0.042244	0.926742
H83	H	1.251312	-0.065798	1.026372
H84	H	1.367778	-0.173840	0.926723
H85	H	1.367770	-0.173842	0.727438
H86	H	1.251293	-0.065800	0.627809
H87	H	0.497341	0.113777	-0.163556
C88	C	0.928834	0.233345	0.769883
C89	C	0.861898	0.295419	0.712636
C90	C	0.794971	0.357503	0.769898
C91	C	0.794981	0.357513	0.884405
C92	C	0.861919	0.295436	0.941658
C93	C	0.928846	0.233352	0.884396
H94	H	0.861889	0.295413	0.627865
H95	H	0.745419	0.403455	0.727515
H96	H	0.745438	0.403471	0.926793
H97	H	0.861929	0.295442	1.026429
H98	H	0.978398	0.187400	0.926779
H99	H	1.166949	0.012410	0.433890
H100	H	0.785064	0.118839	0.163577
H101	H	0.497315	0.113775	0.163582
C102	C	0.798434	0.119072	-0.189313
C103	C	0.795795	0.046710	-0.263688
C104	C	0.847118	0.047614	-0.362859
C105	C	0.901080	0.120879	-0.387654
C106	C	0.903721	0.193246	-0.313276
C107	C	0.852398	0.192342	-0.214106
H108	H	0.755847	-0.007530	-0.245335
H109	H	0.845162	-0.005958	-0.417918
H110	H	0.939072	0.121547	-0.461065
H111	H	0.943669	0.247486	-0.331629
H112	H	0.854354	0.245913	-0.159047
C113	C	0.602511	0.115625	-0.189313
C114	C	0.548552	0.042363	-0.214106
C115	C	0.497248	0.041467	-0.313276
C116	C	0.499902	0.113834	-0.387654
C117	C	0.553862	0.187102	-0.362863
C118	C	0.605167	0.187997	-0.263693
H119	H	0.546586	-0.011212	-0.159046
H120	H	0.457303	-0.012771	-0.331628
H121	H	0.461923	0.113171	-0.461066
H122	H	0.555829	0.240677	-0.417923
H123	H	0.645112	0.242236	-0.245341
H124	H	0.328057	0.110796	0.163583
C125	C	1.058309	-0.294115	-0.189310
C126	C	1.135710	-0.315404	-0.263692
C127	C	1.136613	-0.267706	-0.362866
C128	C	1.060116	-0.198720	-0.387658
C129	C	0.982710	-0.177427	-0.313274
C130	C	0.981807	-0.225125	-0.214100
H131	H	1.192342	-0.366475	-0.245342
H132	H	1.193914	-0.283469	-0.417930
H133	H	1.060785	-0.163411	-0.461073
H134	H	0.926077	-0.126356	-0.331625
H135	H	0.924505	-0.209362	-0.159037
C136	C	1.054872	-0.476228	-0.189306
C137	C	1.055786	-0.428528	-0.288472
C138	C	1.054895	-0.476218	-0.387645
C139	C	1.053089	-0.571608	-0.387651
C140	C	1.052174	-0.619312	-0.288481
C141	C	1.053066	-0.571622	-0.189309
H142	H	1.057123	-0.357911	-0.288471
H143	H	1.055572	-0.440904	-0.461057
H144	H	1.052429	-0.606911	-0.461064
H145	H	1.050838	-0.689930	-0.288483
H146	H	1.052389	-0.606937	-0.115897
H147	H	0.946196	0.217216	0.566142
H148	H	0.946169	0.217204	0.245058
