data_functionalizedCrystal
_audit_creation_method	'MofGen! by Chris Wilmer'
_symmetry_space_group_name_H-M	'P1'
_symmetry_Int_Tables_number	1
_symmetry_cell_setting	triclinic
loop_
_symmetry_equiv_pos_as_xyz
  x,y,z
_cell_length_a	13.897448
_cell_length_b	13.033385
_cell_length_c	13.032268
_cell_angle_alpha	105.160384
_cell_angle_beta	82.851959
_cell_angle_gamma	97.153102
loop_
_atom_site_label
_atom_site_type_symbol
_atom_site_fract_x
_atom_site_fract_y
_atom_site_fract_z
Zn1	Zn	-0.611412	-1.547436	0.393984
Zn2	Zn	-0.111412	-1.047436	0.893984
Zn3	Zn	-0.754546	-1.569889	0.216387
Zn4	Zn	-0.254546	-1.069889	0.716387
Zn5	Zn	-0.575126	-1.392389	0.238985
Zn6	Zn	-0.075126	-0.892389	0.738985
Zn7	Zn	-0.754504	-1.369808	0.416530
Zn8	Zn	-0.254504	-0.869808	0.916530
O9	O	-0.673897	-1.469880	0.316471
O10	O	-0.173897	-0.969880	0.816471
O11	O	-0.645602	-1.699037	0.351532
O12	O	-0.145602	-1.199037	0.851532
O13	O	-0.715577	-1.565191	0.070757
O14	O	-0.215577	-1.065191	0.570757
O15	O	-0.444966	-1.413010	0.259568
O16	O	0.055034	-0.913010	0.759568
O17	O	-0.750762	-1.715533	0.221053
O18	O	-0.250762	-1.215533	0.721053
O19	O	-0.471625	-1.526922	0.373445
O20	O	0.028375	-1.026922	0.873445
O21	O	-0.583758	-1.434782	0.087359
O22	O	-0.083758	-0.934782	0.587359
O23	O	-0.583717	-1.240771	0.281430
O24	O	-0.083717	-0.740771	0.781430
O25	O	-0.750691	-1.374523	0.562167
O26	O	-0.250691	-0.874523	1.062167
O27	O	-0.715506	-1.224181	0.411871
O28	O	-0.215506	-0.724181	0.911871
O29	O	-0.645562	-1.505026	0.545602
O30	O	-0.145562	-1.005026	1.045602
O31	O	-0.889513	-1.543294	0.242915
O32	O	-0.389513	-1.043294	0.742915
O33	O	-0.889483	-1.396295	0.389959
O34	O	-0.389483	-0.896295	0.889959
C35	C	-0.645670	-1.193940	0.351549
C36	C	-0.145670	-0.693940	0.851549
C37	C	-0.633620	-1.075888	0.366581
C38	C	-0.133620	-0.575888	0.866581
C39	C	-0.667725	-0.909415	0.324161
C40	C	-0.167725	-0.409415	0.824161
C41	C	-0.680182	-1.031429	0.308620
C42	C	-0.180182	-0.531429	0.808620
C43	C	-0.924500	-1.469807	0.316451
C44	C	-0.424500	-0.969807	0.816451
C45	C	-1.031723	-1.469868	0.316465
C46	C	-0.531723	-0.969868	0.816465
C47	C	-1.228036	-1.469971	0.316517
C48	C	-0.728036	-0.969971	0.816517
C49	C	-1.118794	-1.469910	0.316492
C50	C	-0.618794	-0.969910	0.816492
C51	C	-0.422320	-1.469980	0.316512
C52	C	0.077680	-0.969980	0.816512
C53	C	-0.315113	-1.470023	0.316529
C54	C	0.184887	-0.970023	0.816529
C55	C	-0.702169	-1.434751	0.593500
C56	C	-0.202169	-0.934751	1.093500
C57	C	-0.714217	-1.419781	0.711553
C58	C	-0.214217	-0.919781	1.211553
C59	C	-0.702227	-0.746900	0.281246
C60	C	-0.202227	-0.246900	0.781246
C61	C	-0.714281	-0.864953	0.266208
C62	C	-0.214281	-0.364953	0.766208
C63	C	-0.645671	-1.504934	0.040513
C64	C	-0.145671	-1.004934	0.540513
C65	C	-0.633373	-1.520110	-0.077565
C66	C	-0.133373	-1.020110	0.422435
C67	C	-0.667573	-1.477677	0.755989
C68	C	-0.167573	-0.977677	1.255989
C69	C	-0.680024	-1.462206	0.878002
C70	C	-0.180024	-0.962206	1.378002
H71	H	-0.763367	-0.917215	0.205092
H72	H	-0.263367	-0.417215	0.705092
C73	C	-0.471853	-1.576223	0.881553
C74	C	0.028147	-1.076223	1.381553
C75	C	-0.567003	-1.602490	0.851876
C76	C	-0.067003	-1.102490	1.351876
H77	H	-0.430878	-1.627076	0.837992
H78	H	0.069122	-1.127076	1.337992
H79	H	-0.471532	-1.576632	0.954284
H80	H	0.028468	-1.076632	1.454284
H81	H	-0.448614	-1.507150	0.872493
H82	H	0.051386	-1.007150	1.372493
H83	H	-0.590244	-1.671560	0.860944
H84	H	-0.090244	-1.171560	1.360944
H85	H	-0.567327	-1.602092	0.779128
H86	H	-0.067327	-1.102092	1.279128
H87	H	-0.618417	-1.538693	0.703702
H88	H	-0.118417	-1.038693	1.203702
H89	H	-0.763362	-1.358754	0.763840
H90	H	-0.263362	-0.858754	1.263840
H91	H	-0.584539	-1.023629	0.427710
H92	H	-0.084539	-0.523629	0.927710
C93	C	-0.745884	-1.380453	1.055784
C94	C	-0.245884	-0.880453	1.555784
C95	C	-0.746390	-1.379830	0.948573
C96	C	-0.246390	-0.879830	1.448573
H97	H	-0.786862	-1.329604	1.099348
H98	H	-0.286862	-0.829604	1.599348
H99	H	-0.681333	-1.362644	1.075891
H100	H	-0.181333	-0.862644	1.575891
H101	H	-0.769131	-1.449532	1.064821
H102	H	-0.269131	-0.949532	1.564821
H103	H	-0.723136	-1.310753	0.939534
H104	H	-0.223136	-0.810753	1.439534
H105	H	-0.810955	-1.397632	0.928459
H106	H	-0.310955	-0.897632	1.428459
H107	H	-0.618650	-0.857151	0.385287
H108	H	-0.118650	-0.357151	0.885287
H109	H	-0.729272	-1.083688	0.247500
H110	H	-0.229272	-0.583688	0.747500
