data_functionalizedCrystal
_audit_creation_method	'MofGen! by Chris Wilmer'
_symmetry_space_group_name_H-M	'P1'
_symmetry_Int_Tables_number	1
_symmetry_cell_setting	triclinic
loop_
_symmetry_equiv_pos_as_xyz
  x,y,z
_cell_length_a	11.026607
_cell_length_b	9.482900
_cell_length_c	10.908878
_cell_angle_alpha	82.984801
_cell_angle_beta	95.664596
_cell_angle_gamma	78.636152
loop_
_atom_site_label
_atom_site_type_symbol
_atom_site_fract_x
_atom_site_fract_y
_atom_site_fract_z
O1	O	-1.528431	0.120894	0.498728
O2	O	-1.186931	0.120896	0.440226
O3	O	-1.402950	0.120889	0.293010
O4	O	-1.312412	0.120901	0.645943
O5	O	-1.359040	-0.120902	0.323067
O6	O	-1.143022	-0.120895	0.470282
O7	O	-1.484521	-0.120897	0.528784
Cu8	Cu	-1.309762	-0.142974	0.502278
Cu9	Cu	-1.361690	0.142972	0.466732
O10	O	-1.268502	-0.120891	0.676000
C11	C	-1.121943	0.000001	0.444461
C12	C	-0.993722	0.000001	0.412288
N13	N	-1.273247	-0.344093	0.527279
C14	C	-1.389457	-0.000005	0.262153
C15	C	-1.414656	0.000000	0.125424
C16	C	-1.549509	0.000001	0.524548
C17	C	-1.677732	0.000010	0.556720
C18	C	-0.901990	0.000005	0.501123
C19	C	-0.769466	0.000006	0.467873
C20	C	-1.350913	-0.416294	0.474098
C21	C	-1.320539	-0.583711	0.494912
N22	N	-1.398216	0.344091	0.441723
C23	C	-1.322712	0.000003	0.055161
C24	C	-1.348755	0.000008	-0.086155
C25	C	-1.281996	0.000007	0.706857
C26	C	-1.256798	0.000011	0.843584
H27	H	-0.921564	0.000000	0.601794
H28	H	-1.487198	-0.593787	0.380775
Br29	Br	-0.736857	-0.000016	0.300071
Br30	Br	-1.498992	-0.312758	0.372151
Br31	Br	-1.172216	-0.687242	0.596476
Br32	Br	-0.961107	-0.000020	0.244493
H33	H	-1.184265	-0.406220	0.588213
H34	H	-1.224715	-0.000005	0.099628
Br35	Br	-1.512100	-0.000007	-0.160246
Br36	Br	-1.093445	-0.000013	-0.082324
H37	H	-1.512651	-0.000005	0.080959
H38	H	-0.697298	0.000004	0.657399
