data_functionalizedCrystal
_audit_creation_method	'MofGen! by Chris Wilmer'
_symmetry_space_group_name_H-M	'P1'
_symmetry_Int_Tables_number	1
_symmetry_cell_setting	triclinic
loop_
_symmetry_equiv_pos_as_xyz
  x,y,z
_cell_length_a	13.339071
_cell_length_b	10.489741
_cell_length_c	11.804365
_cell_angle_alpha	101.953620
_cell_angle_beta	74.875833
_cell_angle_gamma	100.084226
loop_
_atom_site_label
_atom_site_type_symbol
_atom_site_fract_x
_atom_site_fract_y
_atom_site_fract_z
O1	O	1.367259	0.622519	-0.099048
O2	O	1.072119	0.538372	-0.099046
O3	O	1.226403	0.397148	-0.099040
O4	O	1.212975	0.763743	-0.099054
O5	O	1.185786	0.434275	0.099015
O6	O	1.031501	0.575499	0.099009
O7	O	1.326642	0.659645	0.099006
Cu8	Cu	1.175363	0.620962	0.117091
Cu9	Cu	1.223398	0.577055	-0.117131
O10	O	1.172357	0.800869	0.099001
C11	C	1.014017	0.542721	-0.000018
C12	C	0.901406	0.500353	-0.000017
C13	C	0.859744	0.368230	-0.000008
C14	C	0.753942	0.328417	-0.000012
C15	C	0.689791	0.420725	-0.000017
C16	C	0.731451	0.552853	-0.000018
C17	C	0.837265	0.592667	-0.000023
C18	C	0.667312	0.645163	-0.000032
C19	C	0.708972	0.777290	-0.000033
C20	C	0.814776	0.817098	-0.000037
C21	C	0.878927	0.724790	-0.000032
C22	C	0.561497	0.605348	-0.000027
C23	C	0.539019	0.829785	-0.000042
C24	C	0.644820	0.869598	-0.000037
C25	C	1.205080	0.367832	-0.000013
C26	C	1.202046	0.225163	-0.000015
C27	C	1.103880	0.123414	-0.000023
C28	C	1.130227	0.065473	0.097627
C29	C	1.170296	0.028902	-0.097639
C30	C	1.228416	0.169116	0.097716
C31	C	1.268490	0.132534	-0.097638
C32	C	1.294903	0.074649	0.000037
C33	C	1.384744	0.655295	-0.000024
C34	C	1.497356	0.697663	-0.000033
C35	C	1.193681	0.830185	-0.000029
C36	C	1.196717	0.972852	-0.000034
N37	N	1.141585	0.651846	0.281831
N38	N	1.257184	0.546164	-0.281870
C39	C	1.338296	0.471977	0.655787
C40	C	1.363848	0.448608	0.531126
C41	C	1.308284	0.499415	0.468796
C42	C	1.227165	0.573596	0.531139
C43	C	1.201616	0.596976	0.655812
C44	C	1.171604	0.624414	0.468821
C45	C	1.090484	0.698595	0.531164
C46	C	1.064939	0.721970	0.655825
C47	C	1.120503	0.671163	0.718155
C48	C	1.197152	0.601034	0.344149
C49	C	1.060472	0.726033	0.344174
C50	C	1.034920	0.749402	0.468834
H51	H	0.965080	0.757200	-0.000023
C52	C	1.353653	0.334902	0.174877
C53	C	1.261555	0.250824	0.209293
H54	H	1.374103	0.385350	0.243762
H55	H	1.407607	0.284366	0.129243
H56	H	1.341702	0.392024	0.128301
H57	H	1.273509	0.193695	0.255862
H58	H	1.207589	0.301364	0.254947
C59	C	0.871356	0.142392	-0.000016
C60	C	0.930261	0.266772	-0.000018
H61	H	0.914896	0.079751	-0.000034
H62	H	0.815466	0.144471	0.069052
H63	H	0.843772	0.118594	-0.069080
H64	H	0.957838	0.290575	0.069051
H65	H	0.986170	0.264696	-0.069094
C66	C	0.988158	0.644949	0.896757
C67	C	1.092418	0.696845	0.855189
H68	H	0.970826	0.660795	0.981357
H69	H	0.943469	0.685839	0.868574
H70	H	0.979479	0.553009	0.868546
H71	H	1.101096	0.788787	0.883394
H72	H	1.137120	0.655959	0.883385
C73	C	1.103434	-0.022970	0.276826
C74	C	1.051303	0.025292	0.209075
H75	H	1.054706	-0.047767	0.345628
H76	H	1.135020	-0.097275	0.230520
H77	H	1.155922	0.043413	0.300294
H78	H	0.998820	-0.041095	0.185599
H79	H	1.019701	0.099606	0.255390
C80	C	1.476483	0.081007	-0.101182
C81	C	1.403956	0.045311	0.000105
H82	H	1.543810	0.062915	-0.101130
H83	H	1.456023	0.032137	-0.170585
H84	H	1.478813	0.172186	-0.100511
H85	H	1.401620	-0.045870	-0.000571
H86	H	1.424422	0.094179	0.069525
H87	H	1.023147	0.145452	0.000076
C88	C	1.015456	0.914491	0.796016
C89	C	0.975779	0.803520	0.724356
H90	H	0.960412	0.964837	0.838316
H91	H	1.044885	0.887572	0.850967
H92	H	1.067970	0.966334	0.747355
H93	H	0.923270	0.751671	0.773018
H94	H	0.946334	0.830438	0.669399
C95	C	0.899883	1.011167	0.101723
C96	C	0.860593	0.962321	-0.000072
H97	H	0.928178	1.100816	0.101687
H98	H	0.844916	1.003954	0.170785
H99	H	0.953218	0.961866	0.101719
H100	H	0.807253	1.011616	-0.000064
H101	H	0.915566	0.969544	-0.069153
C102	C	0.868367	0.754489	0.609076
C103	C	0.945760	0.830948	0.537376
H104	H	0.813328	0.804837	0.651396
H105	H	0.841465	0.679220	0.560452
H106	H	0.897820	0.727577	0.664022
H107	H	0.916309	0.857852	0.482423
H108	H	0.972664	0.906241	0.586004
H109	H	0.527588	0.497770	-0.000027
H110	H	0.678756	0.977178	-0.000039
H111	H	1.383535	0.430625	0.706544
H112	H	0.603642	0.388302	-0.000020
C113	C	0.893293	0.731679	0.305832
C114	C	0.999388	0.781888	0.275674
H115	H	0.855590	0.766169	0.263542
H116	H	0.885854	0.638609	0.285405
H117	H	0.866481	0.756230	0.389002
H118	H	1.026202	0.757328	0.192505
H119	H	1.006833	0.874978	0.296093
C120	C	0.601737	0.167736	-0.000026
C121	C	0.708151	0.183191	-0.000017
H122	H	0.573471	0.078071	-0.000038
H123	H	0.565618	0.220252	0.069036
H124	H	0.593956	0.194383	-0.069096
H125	H	0.715932	0.156553	0.069058
H126	H	0.744280	0.130656	-0.069086
C127	C	1.295530	0.223245	-0.275662
C128	C	1.347372	0.172750	-0.209088
H129	H	1.344227	0.248079	-0.344469
H130	H	1.242331	0.158029	-0.299101
H131	H	1.264886	0.297889	-0.228569
H132	H	1.378009	0.098099	-0.256179
H133	H	1.400590	0.237972	-0.185651
C134	C	1.496375	0.327398	0.543633
C135	C	1.453003	0.367064	0.462603
H136	H	1.551413	0.277045	0.501326
H137	H	1.523278	0.402681	0.592243
H138	H	1.443847	0.275547	0.592272
H139	H	1.505529	0.418923	0.413969
H140	H	1.426102	0.291769	0.413973
H141	H	1.145679	-0.031763	-0.180203
H142	H	0.486786	0.904951	-0.000047
H143	H	1.263200	0.540636	0.293400
H144	H	1.329092	0.480384	0.367292
