data_functionalizedCrystal
_audit_creation_method	'MofGen! by Chris Wilmer'
_symmetry_space_group_name_H-M	'P1'
_symmetry_Int_Tables_number	1
_symmetry_cell_setting	triclinic
loop_
_symmetry_equiv_pos_as_xyz
  x,y,z
_cell_length_a	10.723024
_cell_length_b	9.065218
_cell_length_c	7.540329
_cell_angle_alpha	89.998243
_cell_angle_beta	89.997341
_cell_angle_gamma	84.741877
loop_
_atom_site_label
_atom_site_type_symbol
_atom_site_fract_x
_atom_site_fract_y
_atom_site_fract_z
O1	O	-1.658026	-0.206940	0.147463
O2	O	-1.294955	-0.226748	0.147469
O3	O	-1.483995	-0.002159	0.147462
O4	O	-1.468986	-0.431529	0.147470
O5	O	-1.483984	-0.002156	-0.147503
O6	O	-1.294943	-0.226745	-0.147497
O7	O	-1.658015	-0.206937	-0.147502
Cu8	Cu	-1.476478	-0.216841	-0.174432
Cu9	Cu	-1.476492	-0.216844	0.174399
O10	O	-1.468974	-0.431526	-0.147495
C11	C	-1.248443	-0.225305	-0.000013
C12	C	-1.109872	-0.220992	-0.000011
N13	N	-1.476478	-0.216838	-0.419780
C14	C	-1.704526	-0.208380	-0.000016
C15	C	-1.843098	-0.212693	-0.000007
C16	C	-1.035399	-0.346660	-0.000008
C17	C	-0.892178	-0.342206	-0.000005
C18	C	-1.482547	0.052821	-0.000018
C19	C	-1.478234	0.216639	-0.000009
C20	C	-1.470423	-0.486506	-0.000012
C21	C	-1.474736	-0.650324	-0.000009
N22	N	-1.476502	-0.216836	0.419747
H23	H	-1.077672	-0.457547	-0.000016
H24	H	-0.828182	-0.449788	0.000005
C25	C	-0.978764	-0.060876	0.151628
C26	C	-1.052823	-0.071287	-0.000006
H27	H	-0.943555	0.031553	0.151634
H28	H	-0.913489	-0.139130	0.151613
H29	H	-1.029033	-0.067967	0.254475
H30	H	-1.002552	-0.064208	-0.102854
H31	H	-1.118107	0.006989	-0.000007
H32	H	-0.907086	-0.105105	0.000002
