data_functionalizedCrystal
_audit_creation_method	'MofGen! by Chris Wilmer'
_symmetry_space_group_name_H-M	'P1'
_symmetry_Int_Tables_number	1
_symmetry_cell_setting	triclinic
loop_
_symmetry_equiv_pos_as_xyz
  x,y,z
_cell_length_a	14.560432
_cell_length_b	12.970454
_cell_length_c	12.970454
_cell_angle_alpha	120.000323
_cell_angle_beta	90.000744
_cell_angle_gamma	119.999151
loop_
_atom_site_label
_atom_site_type_symbol
_atom_site_fract_x
_atom_site_fract_y
_atom_site_fract_z
Zr1	Zr	0.884738	-1.128555	-0.135311
O2	O	0.738090	-1.343644	-0.299937
O3	O	0.929695	-0.913464	-0.084843
O4	O	0.929692	-1.128557	-0.299935
O5	O	0.738094	-1.128549	0.084823
O6	O	1.080830	-1.128561	-0.299936
O7	O	0.738093	-1.128550	-0.084844
O8	O	1.080835	-0.743799	0.084825
O9	O	0.738089	-1.513312	-0.299938
O10	O	1.061659	-1.001938	-0.063321
O11	O	0.948868	-1.001934	0.063300
O12	O	0.948864	-1.255179	-0.189943
O13	O	0.836073	-1.255175	-0.063322
Zr14	Zr	1.125786	-1.128560	0.135289
Zr15	Zr	1.125785	-1.128562	-0.135311
Zr16	Zr	0.884739	-1.128553	0.135289
Zr17	Zr	0.884736	-1.399156	-0.135313
Zr18	Zr	1.125789	-0.857959	0.135291
O19	O	1.080830	-1.343652	0.084821
O20	O	1.080828	-1.343653	-0.299937
O21	O	0.738092	-1.343642	0.084822
O22	O	1.272435	-0.913472	0.299915
O23	O	1.272433	-0.913473	-0.084844
O24	O	0.929697	-0.913462	0.299915
O25	O	1.272431	-1.128566	-0.084845
O26	O	1.080832	-1.128558	0.299913
O27	O	0.929695	-1.128554	0.299914
O28	O	1.272432	-1.128565	0.084822
O29	O	0.929689	-1.513318	-0.299938
O30	O	1.080836	-0.743798	0.299916
O31	O	1.272436	-0.743803	0.299916
O32	O	1.272435	-0.743804	0.084825
O33	O	0.738089	-1.513311	-0.084847
O34	O	0.929690	-1.513317	-0.084848
O35	O	1.061660	-1.001937	0.189921
O36	O	1.174452	-1.001940	0.063300
O37	O	1.061657	-1.255181	-0.063323
O38	O	0.948865	-1.255177	0.063298
C39	C	0.703749	-1.128549	-0.000010
C40	C	0.601418	-1.128546	-0.000010
C41	C	1.005265	-0.790076	-0.000008
C42	C	1.005266	-0.675199	-0.000007
C43	C	1.005261	-1.128559	-0.338490
C44	C	1.005261	-1.128560	-0.453367
C45	C	0.719160	-0.864160	0.132173
C46	C	0.729955	-0.731971	0.198258
C47	C	0.633802	-0.731977	0.198255
C48	C	0.526847	-0.864186	0.132162
C49	C	0.516053	-0.996375	0.066077
C50	C	0.612214	-0.996354	0.066084
C51	C	0.398312	-1.260758	-0.066097
C52	C	0.494463	-1.260755	-0.066103
C53	C	0.291357	-1.392967	-0.132190
C54	C	0.280562	-1.525158	-0.198284
C55	C	0.376722	-1.525146	-0.198279
C56	C	0.483669	-1.392943	-0.132188
C57	C	1.306776	-1.128566	-0.000012
C58	C	1.409106	-1.128569	-0.000012
C59	C	1.005262	-0.467037	-0.000013
C60	C	1.005268	-0.581910	-0.000012
C61	C	1.005264	-1.128556	0.338468
C62	C	1.005264	-1.128555	0.453345
C63	C	1.306779	-0.790085	-0.000009
C64	C	1.409110	-0.675210	-0.000008
C65	C	1.005267	-0.790074	0.338471
C66	C	1.005268	-0.675196	0.453348
C67	C	1.306780	-0.790083	0.338470
C68	C	1.409112	-0.675208	0.453348
C69	C	0.703745	-1.467032	-0.338492
C70	C	0.601413	-1.581907	-0.453370
C71	C	0.703746	-1.467030	-0.000013
C72	C	0.601414	-1.581905	-0.000014
C73	C	1.005258	-1.467041	-0.338493
C74	C	1.005257	-1.581919	-0.453371
C75	C	1.457169	-0.527777	0.093469
C76	C	1.553311	-0.419825	0.093474
C77	C	1.601397	-0.459310	0.000005
C78	C	1.553330	-0.606757	-0.093481
C79	C	1.457185	-0.714706	-0.093490
C80	C	1.457177	-0.527776	0.507295
C81	C	1.553340	-0.419822	0.615223
C82	C	1.601432	-0.459303	0.669206
C83	C	1.553362	-0.606750	0.615249
C84	C	1.457205	-0.714701	0.507318
C85	C	0.553356	-1.729339	-0.507327
C86	C	0.457214	-1.837293	-0.615278
C87	C	0.409127	-1.797811	-0.669265
C88	C	0.457192	-1.650364	-0.615303
C89	C	0.553337	-1.542414	-0.507359
C90	C	0.553358	-1.542375	0.093471
C91	C	0.457216	-1.650297	0.093496
C92	C	0.409127	-1.797748	0.000030
C93	C	0.457192	-1.837277	-0.093460
C94	C	0.553337	-1.729356	-0.093479
H95	H	0.797459	-0.864141	0.132172
H96	H	1.418067	-0.834752	-0.169609
F97	F	1.703770	-0.344394	0.784078
H98	H	0.330839	-1.885609	0.000059
F99	F	0.405997	-1.608366	-0.672771
H100	H	0.418093	-1.618083	0.169627
F101	F	0.405997	-1.994214	-0.192929
F102	F	1.406012	-0.485724	0.449861
H103	H	0.592452	-1.422369	-0.463430
H104	H	1.592434	-0.299775	0.169606
H105	H	0.592454	-1.761563	-0.169611
H106	H	0.193476	-1.632792	-0.252086
F107	F	0.843787	-0.591272	0.268616
F108	F	0.365222	-1.665843	-0.268610
F109	F	0.645290	-0.591289	0.268595
F110	F	0.604520	-1.385453	0.192958
H111	H	0.448560	-0.864180	0.132178
F112	F	1.604479	-0.262907	0.672632
H113	H	1.592533	-0.638876	0.659217
H114	H	0.213069	-1.392962	-0.132181
H115	H	0.561969	-1.392921	-0.132182
F116	F	1.703725	-0.344403	0.000032
H117	H	1.418029	-0.495600	0.169585
F118	F	1.604520	-0.648758	-0.192952
F119	F	0.406074	-1.994208	-0.672686
H120	H	1.418075	-0.834746	0.463406
F121	F	0.306799	-1.912720	-0.784149
H122	H	0.592493	-1.761514	-0.463382
