data_functionalizedCrystal
_audit_creation_method	'MofGen! by Chris Wilmer'
_symmetry_space_group_name_H-M	'P1'
_symmetry_Int_Tables_number	1
_symmetry_cell_setting	triclinic
loop_
_symmetry_equiv_pos_as_xyz
  x,y,z
_cell_length_a	10.654562
_cell_length_b	12.837942
_cell_length_c	9.130313
_cell_angle_alpha	89.998975
_cell_angle_beta	89.996930
_cell_angle_gamma	89.659522
loop_
_atom_site_label
_atom_site_type_symbol
_atom_site_fract_x
_atom_site_fract_y
_atom_site_fract_z
O1	O	1.683733	0.145782	-0.121896
O2	O	1.319770	0.159651	-0.121878
O3	O	1.493681	0.001755	-0.121877
O4	O	1.509822	0.303678	-0.121896
O5	O	1.493679	0.001760	0.121721
O6	O	1.319768	0.159656	0.121721
O7	O	1.683731	0.145786	0.121703
Cu8	Cu	1.501750	0.152721	0.143954
Cu9	Cu	1.501752	0.152716	-0.144129
O10	O	1.509820	0.303682	0.121703
C11	C	1.272860	0.158632	-0.000076
C12	C	1.133084	0.155577	-0.000069
C13	C	1.488227	-0.036902	-0.000079
C14	C	1.471965	-0.152097	-0.000080
C15	C	1.067397	0.154155	0.132706
C16	C	0.936062	0.151292	0.132681
C17	C	0.936114	0.151280	-0.132904
C18	C	1.067446	0.154135	-0.132878
C19	C	1.067366	0.154166	0.286039
C20	C	0.936031	0.151304	0.286015
C21	C	1.667469	-0.391643	-0.000121
C22	C	1.652195	-0.499879	-0.000122
C23	C	1.426144	-0.476808	-0.000096
C24	C	1.441418	-0.368572	-0.000094
C25	C	1.562084	-0.325993	-0.000104
C26	C	1.577357	-0.217755	-0.000092
C27	C	1.351307	-0.194686	-0.000076
C28	C	1.336033	-0.302922	-0.000078
C29	C	1.730641	0.146805	-0.000102
C30	C	1.870417	0.149860	-0.000119
C31	C	1.515274	0.342340	-0.000100
C32	C	1.531536	0.457534	-0.000108
N33	N	1.501757	0.152724	0.346577
N34	N	1.501753	0.152705	-0.346752
C35	C	1.578789	0.082832	0.423229
C36	C	1.578785	0.082819	0.576566
C37	C	1.424712	0.222601	0.576585
C38	C	1.424711	0.222607	0.423251
C39	C	1.667746	0.002133	0.423219
C40	C	1.667741	0.002120	0.576556
H41	H	1.120924	0.155277	-0.240995
C42	C	1.119298	0.057306	0.365572
H43	H	1.051534	0.015526	0.398252
H44	H	1.168012	0.078511	0.447324
H45	H	1.170375	0.018111	0.300183
C46	C	1.118483	0.256376	0.350323
H47	H	1.050366	0.299914	0.378939
H48	H	1.167359	0.291029	0.278455
H49	H	1.169247	0.241237	0.433260
H50	H	0.898186	0.075638	0.333599
C51	C	0.884057	0.248166	0.365515
H52	H	0.794935	0.246212	0.365508
H53	H	0.911417	0.309214	0.316477
H54	H	0.913740	0.248812	0.463621
H55	H	1.675610	-0.183090	-0.000095
H56	H	1.327902	-0.511495	-0.000103
C57	C	1.627014	-0.105589	0.366991
H58	H	1.610250	-0.149894	0.447919
H59	H	1.692292	-0.135068	0.309184
H60	H	1.553347	-0.098258	0.309197
H61	H	1.237790	-0.337605	-0.000075
C62	C	1.794650	0.036262	0.358952
H63	H	1.851166	0.051451	0.436438
H64	H	1.782732	0.096676	0.300392
H65	H	1.828356	-0.018301	0.300393
C66	C	1.235379	-0.122469	-0.000070
H67	H	1.261754	-0.051909	-0.000081
H68	H	1.186434	-0.135471	0.084878
H69	H	1.186441	-0.135466	-0.085029
C70	C	1.615435	-0.099686	0.640809
H71	H	1.592150	-0.145017	0.563317
H72	H	1.543959	-0.084453	0.699380
H73	H	1.677948	-0.132406	0.699355
C74	C	1.800192	-0.344802	-0.000120
H75	H	1.860770	-0.399404	-0.000133
H76	H	1.810845	-0.303060	0.084828
H77	H	1.810850	-0.303058	-0.085079
H78	H	0.882655	0.150105	-0.241032
C79	C	1.339968	0.299482	0.338938
H80	H	1.294094	0.341105	0.406567
H81	H	1.283188	0.261754	0.279123
H82	H	1.390349	0.343033	0.279125
C83	C	1.768118	-0.572090	-0.000132
H84	H	1.842165	-0.531226	-0.000127
H85	H	1.766858	-0.614793	-0.085079
H86	H	1.766860	-0.614791	0.084828
C87	C	1.339977	0.299472	0.660931
H88	H	1.351013	0.289463	0.763230
H89	H	1.254744	0.287560	0.635804
H90	H	1.361918	0.368827	0.635807
C91	C	1.800731	0.026142	0.632780
H92	H	1.855425	0.036041	0.551849
H93	H	1.830297	-0.030428	0.690572
H94	H	1.798513	0.087652	0.690588
