data_functionalizedCrystal
_audit_creation_method	'MofGen! by Chris Wilmer'
_symmetry_space_group_name_H-M	'P1'
_symmetry_Int_Tables_number	1
_symmetry_cell_setting	triclinic
loop_
_symmetry_equiv_pos_as_xyz
  x,y,z
_cell_length_a	11.169417
_cell_length_b	16.625545
_cell_length_c	11.169409
_cell_angle_alpha	90.036076
_cell_angle_beta	90.020564
_cell_angle_gamma	90.026437
loop_
_atom_site_label
_atom_site_type_symbol
_atom_site_fract_x
_atom_site_fract_y
_atom_site_fract_z
Zn1	Zn	1.834844	-0.320918	0.678511
Zn2	Zn	1.834678	-0.455780	0.477815
Zn3	Zn	1.634127	-0.320967	0.477845
Zn4	Zn	1.634084	-0.455714	0.678460
O5	O	1.734433	-0.388345	0.578158
O6	O	2.002772	-0.338815	0.651897
O7	O	1.808023	-0.437944	0.309869
O8	O	1.660841	-0.208128	0.504499
O9	O	2.002649	-0.437897	0.504446
O10	O	1.808306	-0.208092	0.651927
O11	O	1.660679	-0.338898	0.309892
O12	O	1.466172	-0.338835	0.504449
O13	O	1.660767	-0.437785	0.846416
O14	O	1.466140	-0.437833	0.651839
O15	O	1.808265	-0.338751	0.846454
O16	O	1.807981	-0.568604	0.504396
O17	O	1.660606	-0.568555	0.651809
C18	C	1.422609	-0.388333	0.578142
C19	C	1.289209	-0.388347	0.578164
C20	C	1.734303	-0.597836	0.578120
C21	C	1.734357	-0.687457	0.578144
C22	C	1.734404	-0.760239	0.578168
C23	C	1.734473	-0.851548	0.578194
C24	C	1.734536	-0.924324	0.578209
C25	C	1.734604	-1.015638	0.578234
C26	C	2.047476	-0.388358	0.578174
C27	C	2.180876	-0.388363	0.578181
C28	C	1.734530	-0.388255	0.891200
C29	C	1.734571	-0.388217	1.024600
C30	C	1.734597	-0.178036	0.578222
C31	C	1.734667	-0.088415	0.578249
C32	C	1.734407	-0.388376	0.266333
C33	C	1.734598	-0.388186	0.132934
