data_functionalizedCrystal
_audit_creation_method	'MofGen! by Chris Wilmer'
_symmetry_space_group_name_H-M	'P1'
_symmetry_Int_Tables_number	1
_symmetry_cell_setting	triclinic
loop_
_symmetry_equiv_pos_as_xyz
  x,y,z
_cell_length_a	15.944551
_cell_length_b	19.188930
_cell_length_c	15.021413
_cell_angle_alpha	89.998889
_cell_angle_beta	89.997174
_cell_angle_gamma	83.321760
loop_
_atom_site_label
_atom_site_type_symbol
_atom_site_fract_x
_atom_site_fract_y
_atom_site_fract_z
O1	O	1.114192	0.090039	-0.073949
O2	O	1.614192	0.590039	0.426051
O3	O	0.869601	0.101141	-0.073973
O4	O	1.369601	0.601141	0.426027
O5	O	0.998955	-0.006048	-0.073943
O6	O	1.498955	0.493952	0.426057
O7	O	0.984838	0.197227	-0.073979
O8	O	1.484838	0.697227	0.426021
O9	O	0.998934	-0.006033	0.074121
O10	O	1.498934	0.493967	0.574121
O11	O	0.869580	0.101156	0.074091
O12	O	1.369580	0.601156	0.574091
O13	O	1.114171	0.090054	0.074115
O14	O	1.614171	0.590054	0.574115
Zn15	Zn	0.991873	0.095607	0.097611
Zn16	Zn	1.491873	0.595607	0.597611
Zn17	Zn	0.991900	0.095587	-0.097470
Zn18	Zn	1.491900	0.595587	0.402530
O19	O	0.984817	0.197242	0.074085
O20	O	1.484817	0.697242	0.574085
C21	C	0.838298	0.100687	0.000056
C22	C	1.338298	0.600687	0.500056
C23	C	0.745057	0.099306	0.000048
C24	C	1.245057	0.599306	0.500048
C25	C	0.530462	0.029563	0.000078
C26	C	1.030462	0.529563	0.500078
C27	C	0.469331	0.061941	-0.072931
C28	C	0.969331	0.561941	0.427069
C29	C	0.574341	0.096806	0.000059
C30	C	1.074341	0.596806	0.500059
C31	C	0.469332	0.061972	0.073048
C32	C	0.969332	0.561972	0.573048
C33	C	0.409437	0.094386	0.000074
C34	C	0.909437	0.594386	0.500074
C35	C	0.514438	0.129203	-0.073010
C36	C	1.014438	0.629203	0.426990
C37	C	0.514446	0.129225	0.073035
C38	C	1.014446	0.629225	0.573035
C39	C	0.453332	0.161652	0.000008
C40	C	0.953332	0.661652	0.500008
C41	C	0.669338	0.098198	0.000050
C42	C	1.169338	0.598198	0.500050
C43	C	0.314441	0.093000	0.000076
C44	C	0.814441	0.593000	0.500076
C45	C	0.998487	-0.032052	0.000091
C46	C	1.498487	0.467948	0.500091
C47	C	0.997115	-0.109560	0.000099
C48	C	1.497115	0.390440	0.500099
C49	C	1.073016	-0.154288	0.000111
C50	C	1.573016	0.345712	0.500111
C51	C	1.071726	-0.227115	0.000096
C52	C	1.571726	0.272885	0.500096
C53	C	0.994532	-0.255211	0.000088
C54	C	1.494532	0.244789	0.500088
C55	C	0.918622	-0.210474	0.000072
C56	C	1.418622	0.289526	0.500072
C57	C	0.919913	-0.137648	0.000077
C58	C	1.419913	0.362352	0.500077
N59	N	0.935519	-0.363364	0.050472
N60	N	1.435519	0.136636	0.550472
N61	N	0.934298	-0.432546	0.050468
N62	N	1.434298	0.067454	0.550468
C63	C	0.990637	-0.474630	0.000070
C64	C	1.490637	0.025370	0.500070
N65	N	1.048256	-0.444921	-0.050314
N66	N	1.548256	0.055079	0.449686
N67	N	1.049480	-0.375733	-0.050307
N68	N	1.549480	0.124267	0.449693
C69	C	0.993123	-0.334178	0.000082
C70	C	1.493123	0.165822	0.500082
C71	C	1.065145	-0.598326	0.000064
C72	C	1.565145	-0.098326	0.500064
C73	C	1.063852	-0.671154	0.000044
C74	C	1.563852	-0.171154	0.500044
C75	C	0.910745	-0.654511	0.000029
C76	C	1.410745	-0.154511	0.500029
C77	C	0.912040	-0.581685	0.000040
C78	C	1.412040	-0.081685	0.500040
C79	C	0.989242	-0.553597	0.000062
C80	C	1.489242	-0.053597	0.500062
C81	C	1.145474	0.090507	0.000083
C82	C	1.645474	0.590507	0.500083
C83	C	1.238715	0.091889	0.000086
C84	C	1.738715	0.591889	0.500086
C85	C	0.985285	0.223247	0.000048
C86	C	1.485285	0.723247	0.500048
C87	C	0.986657	0.300755	0.000035
C88	C	1.486657	0.800755	0.500035
N89	N	0.991860	0.095621	0.230749
N90	N	1.491860	0.595621	0.730749
N91	N	0.991919	0.095568	-0.230607
N92	N	1.491919	0.595568	0.269393
C93	C	0.932038	0.145161	0.470418
C94	C	1.432038	0.645161	0.970418
C95	C	1.007887	0.158716	0.529757
C96	C	1.507887	0.658716	1.029757
C97	C	0.991882	0.095603	0.412356
C98	C	1.491882	0.595603	0.912356
C99	C	0.916053	0.082064	0.529759
C100	C	1.416053	0.582064	1.029759
C101	C	0.991896	0.095588	0.587780
C102	C	1.491896	0.595588	1.087780
C103	C	1.067770	0.109189	0.470388
C104	C	1.567770	0.609189	0.970388
C105	C	0.975885	0.032510	0.470384
C106	C	1.475885	0.532510	0.970384
C107	C	1.051789	0.046038	0.529697
C108	C	1.551789	0.546038	1.029697
C109	C	0.991872	0.095614	0.311299
C110	C	1.491872	0.595614	0.811299
C111	C	0.991914	0.095577	0.688835
C112	C	1.491914	0.595577	1.188835
H113	H	1.133536	-0.263540	0.000102
H114	H	1.633536	0.236460	0.500102
N115	N	1.156285	-0.124002	0.000128
N116	N	1.656285	0.375998	0.500128
H117	H	1.189533	-0.140314	-0.054756
H118	H	1.689533	0.359686	0.445244
H119	H	1.145525	-0.071084	0.000163
H120	H	1.645525	0.428916	0.500163
H121	H	0.449344	0.033525	0.134770
H122	H	0.949344	0.533525	0.634770
N123	N	0.540976	0.166888	0.154770
N124	N	1.040976	0.666888	0.654770
H125	H	0.511778	0.216502	0.155332
H126	H	1.011778	0.716502	0.655332
H127	H	0.524771	0.141404	0.209859
H128	H	1.024771	0.641404	0.709859
N129	N	0.835361	-0.240772	0.000058
N130	N	1.335361	0.259228	0.500058
H131	H	0.846059	-0.293694	0.000059
H132	H	1.346059	0.206306	0.500059
H133	H	0.802149	-0.224410	0.054943
H134	H	1.302149	0.275590	0.554943
H135	H	0.858103	-0.101230	0.000068
H136	H	1.358103	0.398770	0.500068
N137	N	0.442832	0.024260	-0.154673
N138	N	0.942832	0.524260	0.345327
H139	H	0.402653	0.057318	-0.191245
H140	H	0.902653	0.557318	0.308755
H141	H	0.494349	0.007681	-0.191431
H142	H	0.994349	0.507681	0.308569
N143	N	0.540785	0.166830	-0.154865
N144	N	1.040785	0.666830	0.345135
H145	H	0.523997	0.141616	-0.209930
H146	H	1.023997	0.641616	0.290070
H147	H	0.511977	0.216570	-0.155050
H148	H	1.011977	0.716570	0.344950
N149	N	0.827483	-0.684804	0.000010
N150	N	1.327483	-0.184804	0.500010
H151	H	0.838181	-0.737726	0.000006
H152	H	1.338181	-0.237726	0.500006
H153	H	0.794270	-0.668445	0.054896
H154	H	1.294270	-0.168445	0.554896
N155	N	0.409125	0.235647	-0.000053
N156	N	0.909125	0.735647	0.499947
H157	H	0.425507	0.260941	-0.055224
H158	H	0.925507	0.760941	0.444776
H159	H	0.346002	0.234254	0.000505
H160	H	0.846002	0.734254	0.500505
N161	N	0.830175	-0.533437	0.000033
N162	N	1.330175	-0.033437	0.500033
H163	H	0.781075	-0.562284	0.000026
H164	H	1.281075	-0.062284	0.500026
H165	H	0.827369	-0.502861	0.054924
H166	H	1.327369	-0.002861	0.554924
H167	H	1.128007	-0.575456	0.000078
H168	H	1.628007	-0.075456	0.500078
N169	N	1.145720	-0.719400	0.000053
N170	N	1.645720	-0.219400	0.500053
H171	H	1.194820	-0.690553	0.000071
H172	H	1.694820	-0.190553	0.500071
H173	H	1.148504	-0.749982	0.054940
H174	H	1.648504	-0.249982	0.554940
N175	N	0.831107	0.066890	0.564302
N176	N	1.331107	0.566890	1.064302
H177	H	0.831907	0.066544	0.631533
H178	H	1.331907	0.566544	1.131533
H179	H	0.785989	0.104372	0.542678
H180	H	1.285989	0.604372	1.042678
N181	N	0.865062	0.200712	0.435944
N182	N	1.365062	0.700712	0.935944
H183	H	0.877264	0.248349	0.457546
H184	H	1.377264	0.748349	0.957546
H185	H	0.865195	0.199971	0.368716
H186	H	1.365195	0.699971	0.868716
H187	H	1.021431	0.212066	0.555837
H188	H	1.521431	0.712066	1.055837
H189	H	1.131917	0.120698	0.444419
H190	H	1.631917	0.620698	0.944419
H191	H	1.102459	0.004119	0.555561
H192	H	1.602459	0.504119	1.055561
N193	N	0.574859	-0.044369	-0.000011
N194	N	1.074859	0.455631	0.499989
H195	H	0.637975	-0.042920	0.000550
H196	H	1.137975	0.457080	0.500550
H197	H	0.557706	-0.069999	0.054565
H198	H	1.057706	0.430001	0.554565
N199	N	0.957923	-0.038138	0.435811
N200	N	1.457923	0.461862	0.935811
H201	H	0.900593	-0.048317	0.457369
H202	H	1.400593	0.451683	0.957369
H203	H	0.958650	-0.037694	0.368584
H204	H	1.458650	0.462306	0.868584
