data_functionalizedCrystal
_audit_creation_method	'MofGen! by Chris Wilmer'
_symmetry_space_group_name_H-M	'P1'
_symmetry_Int_Tables_number	1
_symmetry_cell_setting	triclinic
loop_
_symmetry_equiv_pos_as_xyz
  x,y,z
_cell_length_a	16.992694
_cell_length_b	10.654551
_cell_length_c	16.053802
_cell_angle_alpha	92.592286
_cell_angle_beta	87.249047
_cell_angle_gamma	87.576826
loop_
_atom_site_label
_atom_site_type_symbol
_atom_site_fract_x
_atom_site_fract_y
_atom_site_fract_z
O1	O	1.045117	0.261481	-0.069319
O2	O	1.545117	0.761481	0.430681
O3	O	0.816817	0.258556	-0.069344
O4	O	1.316817	0.758556	0.430656
O5	O	0.936215	0.077733	-0.069329
O6	O	1.436215	0.577733	0.430671
O7	O	0.925718	0.442304	-0.069334
O8	O	1.425718	0.942304	0.430666
O9	O	0.929643	0.087643	0.069529
O10	O	1.429643	0.587643	0.569529
O11	O	0.810244	0.268466	0.069514
O12	O	1.310244	0.768466	0.569514
O13	O	1.038544	0.271391	0.069539
O14	O	1.538544	0.771391	0.569539
Zn15	Zn	0.923351	0.271501	0.091573
Zn16	Zn	1.423351	0.771501	0.591573
Zn17	Zn	0.932010	0.258446	-0.091378
Zn18	Zn	1.432010	0.758446	0.408622
O19	O	0.919146	0.452214	0.069524
O20	O	1.419146	0.952214	0.569524
C21	C	0.784298	0.259751	0.000082
C22	C	1.284298	0.759751	0.500082
C23	C	0.697193	0.248531	0.000073
C24	C	1.197193	0.748531	0.500073
C25	C	0.647541	0.356781	0.000072
C26	C	1.147541	0.856781	0.500072
C27	C	0.565697	0.346233	0.000084
C28	C	1.065697	0.846233	0.500084
C29	C	0.533506	0.227432	0.000090
C30	C	1.033506	0.727432	0.500090
C31	C	0.583163	0.119174	0.000093
C32	C	1.083163	0.619174	0.500093
C33	C	0.665006	0.129724	0.000088
C34	C	1.165006	0.629724	0.500088
C35	C	0.289669	0.183707	0.000113
C36	C	0.789669	0.683707	0.500113
C37	C	0.207820	0.173165	0.000116
C38	C	0.707820	0.673165	0.500116
C39	C	0.190359	0.400226	0.000108
C40	C	0.690359	0.900226	0.500108
C41	C	0.272204	0.410765	0.000097
C42	C	0.772204	0.910765	0.500097
C43	C	0.321855	0.302506	0.000105
C44	C	0.821855	0.802506	0.500105
N45	N	0.449848	0.216647	0.000099
N46	N	0.949848	0.716647	0.500099
N47	N	0.405511	0.313293	0.000102
N48	N	0.905511	0.813293	0.500102
C49	C	0.932158	0.035823	0.000099
C50	C	1.432158	0.535823	0.500099
C51	C	0.929852	-0.103819	0.000094
C52	C	1.429852	0.396181	0.500094
C53	C	0.932352	-0.174818	-0.075598
C54	C	1.432352	0.325182	0.424402
C55	C	0.930178	-0.306027	-0.075599
C56	C	1.430178	0.193973	0.424401
C57	C	0.923007	-0.295225	0.075792
C58	C	1.423007	0.204775	0.575792
C59	C	0.925175	-0.164019	0.075792
C60	C	1.425175	0.335981	0.575792
C61	C	0.885639	-0.486810	-0.166543
C62	C	1.385639	0.013190	0.333457
C63	C	0.888153	-0.557815	-0.242240
C64	C	1.388153	-0.057815	0.257760
C65	C	0.937911	-0.525017	-0.309064
C66	C	1.437911	-0.025017	0.190936
C67	C	0.985175	-0.421218	-0.300195
C68	C	1.485175	0.078782	0.199805
C69	C	0.982668	-0.350220	-0.224497
C70	C	1.482668	0.149780	0.275503
C71	C	0.932892	-0.383014	-0.157676
C72	C	1.432892	0.116986	0.342324
C73	C	0.969721	0.016765	0.166731
C74	C	1.469721	0.516765	0.666731
C75	C	0.967220	0.087765	0.242429
C76	C	1.467220	0.587765	0.742429
C77	C	0.917466	0.054969	0.309261
C78	C	1.417466	0.554969	0.809261
C79	C	0.870213	-0.048835	0.300400
C80	C	1.370213	0.451165	0.800400
C81	C	0.872714	-0.119834	0.224702
C82	C	1.372714	0.380166	0.724702
C83	C	0.922467	-0.087029	0.157870
C84	C	1.422467	0.412971	0.657870
C85	C	1.071063	0.270196	0.000111
C86	C	1.571063	0.770196	0.500111
C87	C	1.158168	0.281416	0.000115
C88	C	1.658168	0.781416	0.500115
C89	C	0.923203	0.494123	0.000095
C90	C	1.423203	0.994123	0.500095
C91	C	0.925510	0.633766	0.000093
C92	C	1.425510	1.133766	0.500093
N93	N	0.917447	0.280411	0.216433
N94	N	1.417447	0.780411	0.716433
N95	N	0.937920	0.249526	-0.216238
N96	N	1.437920	0.749526	0.283762
C97	C	0.968270	0.203502	0.260133
C98	C	1.468270	0.703502	0.760133
C99	C	0.964147	0.209747	0.347539
C100	C	1.464147	0.709747	0.847539
C101	C	0.909205	0.292909	0.391244
C102	C	1.409205	0.792909	0.891244
C103	C	0.858377	0.369822	0.347538
C104	C	1.358377	0.869822	0.847538
C105	C	0.862496	0.363569	0.260133
C106	C	1.362496	0.863569	0.760133
C107	C	0.891211	0.320186	0.652651
C108	C	1.391211	0.820186	1.152651
C109	C	0.887097	0.326436	0.740062
C110	C	1.387097	0.826436	1.240062
C111	C	0.992868	0.166359	0.740058
C112	C	1.492868	0.666359	1.240058
C113	C	0.996985	0.160119	0.652652
C114	C	1.496985	0.660119	1.152652
C115	C	0.946154	0.237026	0.608953
C116	C	1.446154	0.737026	1.108953
N117	N	0.904992	0.299298	0.480587
N118	N	1.404992	0.799298	0.980587
N119	N	0.950364	0.230631	0.519611
N120	N	1.450364	0.730631	1.019611
H121	H	0.149925	0.488363	0.000103
H122	H	0.649925	0.988363	0.500103
H123	H	0.936157	-0.125808	-0.137236
H124	H	1.436157	0.374192	0.362764
H125	H	0.705432	0.041574	0.000088
H126	H	1.205432	0.541574	0.500088
H127	H	0.330085	0.095555	0.000120
H128	H	0.830085	0.595555	0.500120
H129	H	1.041724	0.092402	0.617069
H130	H	1.541724	0.592402	1.117069
Cl131	Cl	0.827314	0.416873	0.597722
Cl132	Cl	1.327314	0.916873	1.097722
Cl133	Cl	0.542694	-0.030176	0.000107
Cl134	Cl	1.042694	0.469824	0.500107
Cl135	Cl	0.813312	-0.250336	0.213563
Cl136	Cl	1.313312	0.249664	0.713563
Cl137	Cl	0.789301	0.474364	0.402478
Cl138	Cl	1.289301	0.974364	0.902478
Cl139	Cl	0.798598	0.460256	0.205196
Cl140	Cl	1.298598	0.960256	0.705196
H141	H	1.021151	-0.265710	-0.217276
H142	H	1.521151	0.234290	0.282724
Cl143	Cl	1.047741	-0.380005	-0.384205
Cl144	Cl	1.547741	0.119995	0.115795
Cl145	Cl	1.028040	0.113058	0.402478
Cl146	Cl	1.528040	0.613058	0.902478
H147	H	0.939957	-0.582838	-0.370698
H148	H	1.439957	-0.082838	0.129302
H149	H	0.181614	0.076419	0.000120
H150	H	0.681614	0.576419	0.500120
Cl151	Cl	0.688002	0.506138	0.000058
Cl152	Cl	1.188002	1.006138	0.500058
Cl153	Cl	0.828734	-0.688297	-0.253389
Cl154	Cl	1.328734	-0.188297	0.246611
Cl155	Cl	0.917129	-0.370914	0.170949
Cl156	Cl	1.417129	0.129086	0.670949
Cl157	Cl	0.823067	-0.528034	-0.082541
Cl158	Cl	1.323067	-0.028034	0.417459
H159	H	0.915440	0.112782	0.370901
H160	H	1.415440	0.612782	0.870901
Cl161	Cl	0.503281	0.482327	0.000077
Cl162	Cl	1.003281	0.982327	0.500077
Cl163	Cl	0.312667	0.560120	0.000083
Cl164	Cl	0.812667	1.060120	0.500083
Cl165	Cl	0.807667	-0.090076	0.384420
Cl166	Cl	1.307667	0.409924	0.884420
Cl167	Cl	1.026633	0.218253	0.253572
Cl168	Cl	1.526633	0.718253	0.753572
Cl169	Cl	1.037348	0.098956	0.205200
Cl170	Cl	1.537348	0.598956	0.705200
H171	H	1.034251	0.103743	0.775645
H172	H	1.534251	0.603743	1.275645
Cl173	Cl	1.032288	0.057984	0.082719
Cl174	Cl	1.532288	0.557984	0.582719
Cl175	Cl	0.818021	0.430995	0.794999
Cl176	Cl	1.318021	0.930995	1.294999
