data_functionalizedCrystal
_audit_creation_method	'MofGen! by Chris Wilmer'
_symmetry_space_group_name_H-M	'P1'
_symmetry_Int_Tables_number	1
_symmetry_cell_setting	triclinic
loop_
_symmetry_equiv_pos_as_xyz
  x,y,z
_cell_length_a	16.109301
_cell_length_b	16.109295
_cell_length_c	15.186229
_cell_angle_alpha	90.000428
_cell_angle_beta	89.994833
_cell_angle_gamma	96.539666
loop_
_atom_site_label
_atom_site_type_symbol
_atom_site_fract_x
_atom_site_fract_y
_atom_site_fract_z
O1	O	0.106844	-1.103134	-0.073171
O2	O	0.120148	-0.861071	-0.073187
O3	O	-0.007535	-0.988752	-0.073170
O4	O	0.234527	-0.975453	-0.073188
O5	O	-0.007537	-0.988743	0.073288
O6	O	0.120146	-0.861062	0.073271
O7	O	0.106842	-1.103125	0.073286
Zn8	Zn	0.113494	-0.982092	0.096531
Zn9	Zn	0.113496	-0.982104	-0.096432
O10	O	0.234525	-0.975444	0.073269
C11	C	0.119609	-0.830092	0.000040
C12	C	0.117996	-0.737796	0.000035
C13	C	0.190008	-0.515523	0.000038
C14	C	0.188486	-0.428803	0.000044
C15	C	0.036996	-0.448677	0.000052
C16	C	0.038520	-0.535396	0.000053
C17	C	0.115028	-0.568816	0.000041
C18	C	0.111982	-0.395377	0.000046
C19	C	0.110331	-0.301351	0.000052
C20	C	0.116679	-0.662849	0.000037
C21	C	-0.038511	-0.988209	0.000059
C22	C	-0.130806	-0.986594	0.000061
C23	C	-0.353080	-1.058602	0.000051
C24	C	-0.439800	-1.057078	0.000044
C25	C	-0.419923	-0.905588	0.000038
C26	C	-0.333204	-0.907113	0.000039
C27	C	-0.299785	-0.983622	0.000050
C28	C	-0.473225	-0.980573	0.000042
C29	C	-0.567251	-0.978920	0.000034
C30	C	-0.205754	-0.985276	0.000056
C31	C	0.265501	-0.975987	0.000038
C32	C	0.357796	-0.977602	0.000031
N33	N	0.113492	-0.982091	0.228224
C34	C	0.107386	-0.134104	0.000056
C35	C	0.109014	-0.226397	0.000053
N36	N	0.113492	-0.982112	-0.228125
C37	C	0.056973	-1.038647	0.453955
C38	C	0.056971	-1.038650	0.546144
C39	C	0.170014	-0.925549	0.546138
C40	C	0.170011	-0.925543	0.453950
C41	C	0.113491	-0.982097	0.407861
C42	C	0.113492	-0.982106	0.592238
C43	C	0.113490	-0.982108	0.692195
C44	C	0.113492	-0.982094	0.307898
H45	H	-0.025294	-0.421455	0.000066
Br46	Br	0.246717	-0.848803	0.608691
Br47	Br	-0.307728	-1.162435	0.000067
Br48	Br	-0.063247	-0.607729	0.000068
H49	H	-0.483190	-1.118133	0.000043
H50	H	0.216036	-0.879489	0.416418
Br51	Br	0.293840	-0.560877	0.000026
H52	H	0.010950	-1.084695	0.416431
H53	H	0.249542	-0.385414	0.000043
Br54	Br	-0.465283	-0.801760	0.000020
Br55	Br	-0.260869	-0.805348	0.000025
Br56	Br	-0.019740	-1.115395	0.608698
