data_functionalizedCrystal
_audit_creation_method	'MofGen! by Chris Wilmer'
_symmetry_space_group_name_H-M	'P1'
_symmetry_Int_Tables_number	1
_symmetry_cell_setting	triclinic
loop_
_symmetry_equiv_pos_as_xyz
  x,y,z
_cell_length_a	25.639242
_cell_length_b	11.169416
_cell_length_c	25.639234
_cell_angle_alpha	89.983503
_cell_angle_beta	90.029352
_cell_angle_gamma	89.994132
loop_
_atom_site_label
_atom_site_type_symbol
_atom_site_fract_x
_atom_site_fract_y
_atom_site_fract_z
Zn1	Zn	0.799365	0.478023	0.295773
Zn2	Zn	0.799321	0.678713	0.208350
Zn3	Zn	0.711931	0.478027	0.208337
Zn4	Zn	0.711930	0.678647	0.295740
O5	O	0.755637	0.578353	0.252050
O6	O	0.872525	0.504671	0.284195
O7	O	0.787710	0.652121	0.135183
O8	O	0.723548	0.310077	0.219944
O9	O	0.872492	0.652117	0.219966
O10	O	0.787786	0.310074	0.284183
O11	O	0.723505	0.504678	0.135173
O12	O	0.638765	0.504614	0.219912
O13	O	0.723547	0.652005	0.368910
O14	O	0.638765	0.652009	0.284127
O15	O	0.787785	0.504607	0.368934
O16	O	0.787710	0.846654	0.219934
O17	O	0.723504	0.846606	0.284139
C18	C	0.619794	0.578306	0.252015
C19	C	0.561680	0.578314	0.252012
C20	C	0.755616	0.890178	0.252046
C21	C	0.755655	1.023578	0.252062
C22	C	0.755671	0.578298	0.388423
C23	C	0.755685	0.578275	0.446537
C24	C	0.201326	0.655230	0.285455
C25	C	0.146721	0.655237	0.285463
O26	O	0.118492	0.720574	0.313868
N27	N	0.119398	0.578386	0.252084
C28	C	0.146681	0.501514	0.218698
O29	O	0.118426	0.436146	0.190308
C30	C	0.201284	0.501502	0.218693
C31	C	0.228605	0.578366	0.252071
C32	C	0.228647	0.732087	0.318830
C33	C	0.283247	0.732081	0.318821
C34	C	0.310527	0.655217	0.285437
C35	C	0.283206	0.578360	0.252062
C36	C	0.228567	0.424624	0.185311
C37	C	0.283174	0.424618	0.185308
C38	C	0.310495	0.501483	0.218686
C39	C	0.365086	0.501491	0.218668
N40	N	0.392410	0.578342	0.252047
C41	C	0.365130	0.655205	0.285431
C42	C	0.032010	0.501545	0.218713
C43	C	-0.022592	0.501562	0.218715
C44	C	-0.022548	0.655284	0.285480
C45	C	0.032055	0.655271	0.285475
C46	C	0.059334	0.578396	0.252092
C47	C	0.479795	0.655187	0.285410
C48	C	0.534400	0.655178	0.285396
C49	C	0.534352	0.501452	0.218633
C50	C	0.479751	0.501466	0.218644
C51	C	0.452474	0.578337	0.252037
O52	O	0.393350	0.436183	0.190280
O53	O	0.393392	0.720551	0.313822
C54	C	0.892010	0.578401	0.252086
C55	C	0.950124	0.578422	0.252101
C56	C	0.755672	0.265311	0.252065
C57	C	0.755687	0.131911	0.252072
C58	C	0.755633	0.578321	0.116207
C59	C	0.755720	0.578006	0.058094
C60	C	0.722268	0.501358	0.806901
C61	C	0.722271	0.501336	0.861505
O62	O	0.693832	0.436071	0.889742
N63	N	0.755702	0.578087	0.888820
C64	C	0.789130	0.654872	0.861527
O65	O	0.817566	0.720153	0.889774
C66	C	0.789124	0.654899	0.806924
C67	C	0.755694	0.578135	0.779612
C68	C	0.688840	0.424602	0.779589
C69	C	0.688838	0.424622	0.724988
C70	C	0.722264	0.501399	0.697700
C71	C	0.755692	0.578156	0.725011
C72	C	0.822548	0.731690	0.779632
C73	C	0.822539	0.731711	0.725025
C74	C	0.789109	0.654947	0.697713
C75	C	0.789116	0.654953	0.643122
N76	N	0.755684	0.578203	0.615808
C77	C	0.722258	0.501426	0.643096
C78	C	0.789139	0.654811	0.976198
C79	C	0.789148	0.654779	1.030800
C80	C	0.722288	0.501245	1.030774
C81	C	0.722282	0.501272	0.976171
C82	C	0.755707	0.578061	0.948883
C83	C	0.722257	0.501474	0.528431
C84	C	0.722259	0.501498	0.473826
C85	C	0.789117	0.655036	0.473856
C86	C	0.789116	0.655008	0.528457
C87	C	0.755682	0.578223	0.555743
O88	O	0.817538	0.720188	0.614850
O89	O	0.693822	0.436167	0.614842
H90	H	0.457593	0.717780	0.312602
C91	C	0.061743	0.738864	0.321630
C92	C	0.093065	0.815714	0.291972
C93	C	0.120412	0.892747	0.325262
H94	H	0.083099	0.693162	0.344455
H95	H	0.037688	0.784710	0.341502
H96	H	0.117117	0.769872	0.272109
H97	H	0.071722	0.861443	0.269148
H98	H	0.096356	0.938593	0.345133
H99	H	0.141764	0.847034	0.348085
H100	H	0.141663	0.944905	0.305143
C101	C	0.652481	0.341240	0.695434
C102	C	0.623202	0.274031	0.731029
C103	C	0.589697	0.197217	0.703827
H104	H	0.672423	0.288849	0.674142
H105	H	0.629663	0.387124	0.674134
H106	H	0.646017	0.228150	0.752320
H107	H	0.603250	0.326390	0.752323
H108	H	0.566879	0.243101	0.682527
H109	H	0.609643	0.144834	0.682535
H110	H	0.569824	0.151614	0.727974
C111	C	0.825350	0.738324	0.946546
C112	C	0.795740	0.815285	0.915193
C113	C	0.829078	0.892244	0.887878
H114	H	0.848146	0.692573	0.925214
H115	H	0.845251	0.784094	0.970621
H116	H	0.775848	0.769520	0.891121
H117	H	0.772945	0.861062	0.936511
H118	H	0.848979	0.938013	0.911953
H119	H	0.851873	0.846483	0.866550
H120	H	0.808992	0.944478	0.866606
C121	C	0.858862	0.814890	0.695334
C122	C	0.892375	0.746971	0.663995
C123	C	0.925838	0.823553	0.636632
H124	H	0.878819	0.860625	0.719364
H125	H	0.838869	0.867167	0.673991
H126	H	0.912366	0.694716	0.685335
H127	H	0.872432	0.701239	0.639955
H128	H	0.905845	0.875830	0.615290
H129	H	0.945792	0.869284	0.660666
H130	H	0.948577	0.777482	0.615362
H131	H	-0.044832	0.438983	0.191530
C132	C	0.564035	0.738483	0.321726
C133	C	0.550795	0.712488	0.373477
C134	C	0.578086	0.789188	0.406958
H135	H	0.555100	0.819142	0.314087
H136	H	0.600467	0.727468	0.316977
H137	H	0.514371	0.723513	0.378224
H138	H	0.559731	0.631843	0.381132
H139	H	0.614519	0.778173	0.402210
H140	H	0.569150	0.869843	0.399315
H141	H	0.569111	0.771554	0.442075
H142	H	0.457505	0.438879	0.191464
C143	C	0.686070	0.417788	0.946494
C144	C	0.715675	0.340863	0.915169
C145	C	0.682331	0.263930	0.887831
H146	H	0.663268	0.463559	0.925141
H147	H	0.666175	0.371991	0.970555
H148	H	0.735560	0.386654	0.891110
H149	H	0.738474	0.295065	0.936508
H150	H	0.662437	0.218133	0.911893
H151	H	0.659532	0.309711	0.866482
H152	H	0.702414	0.211720	0.866578
H153	H	0.556572	0.438876	0.191450
H154	H	0.305487	0.794670	0.346001
H155	H	0.849770	0.794200	0.801860
C156	C	0.825435	0.738473	0.558019
C157	C	0.854700	0.805730	0.522430
C158	C	0.888154	0.882650	0.549639
H159	H	0.848267	0.692701	0.579337
H160	H	0.805440	0.790820	0.579293
H161	H	0.874693	0.753390	0.501165
H162	H	0.831881	0.851527	0.501111
H163	H	0.868159	0.934997	0.570914
H164	H	0.910983	0.836868	0.570957
H165	H	0.908011	0.928301	0.525497
H166	H	0.661618	0.362080	0.801802
H167	H	0.816333	0.717542	0.451628
H168	H	0.206331	0.362036	0.158130
C169	C	0.061531	0.418043	0.182400
C170	C	0.025909	0.350776	0.153162
C171	C	0.053081	0.273855	0.119702
H172	H	0.082847	0.365694	0.202373
H173	H	0.082804	0.463853	0.159555
H174	H	0.004645	0.304970	0.176005
H175	H	0.004592	0.403093	0.133179
H176	H	0.074354	0.319665	0.096856
H177	H	0.074396	0.221514	0.139679
H178	H	0.028916	0.228213	0.099857
H179	H	0.695037	0.438982	0.451591
C180	C	0.685940	0.417972	0.557956
C181	C	0.656679	0.350741	0.522342
C182	C	0.623226	0.273791	0.549521
H183	H	0.663105	0.463720	0.579247
H184	H	0.705935	0.365609	0.579256
H185	H	0.636685	0.403097	0.501051
H186	H	0.679500	0.304968	0.501050
H187	H	0.643222	0.221428	0.570821
H188	H	0.600395	0.319549	0.570810
H189	H	0.603372	0.228158	0.525361
H190	H	0.695071	0.438729	1.053003
C191	C	0.825468	0.738245	1.060355
C192	C	0.854729	0.805501	1.024763
C193	C	0.888186	0.882421	1.051967
H194	H	0.848303	0.692473	1.081671
H195	H	0.805476	0.790593	1.081632
H196	H	0.874719	0.753160	1.003495
H197	H	0.831907	0.851298	1.003446
H198	H	0.868194	0.934769	1.073244
H199	H	0.911017	0.836639	1.073282
H200	H	0.908040	0.928072	1.027822
H201	H	-0.044769	0.717867	0.312665
C202	C	0.199129	0.815683	0.355097
C203	C	0.234753	0.882998	0.384311
C204	C	0.207585	0.960044	0.417719
H205	H	0.177839	0.769999	0.377964
H206	H	0.177829	0.867988	0.335072
H207	H	0.256044	0.830700	0.404334
H208	H	0.256044	0.928707	0.361457
H209	H	0.186286	1.012349	0.397695
H210	H	0.186296	0.914350	0.440583
H211	H	0.231752	1.005734	0.437541
C212	C	0.312695	0.341112	0.149001
C213	C	0.277077	0.273832	0.119765
C214	C	0.304252	0.196913	0.086307
H215	H	0.334014	0.288771	0.168975
H216	H	0.333967	0.386923	0.126154
H217	H	0.255814	0.228025	0.142609
H218	H	0.255757	0.326142	0.099780
H219	H	0.325523	0.242724	0.063460
H220	H	0.325570	0.144579	0.106285
H221	H	0.280089	0.151262	0.066463
