data_functionalizedCrystal
_audit_creation_method	'MofGen! by Chris Wilmer'
_symmetry_space_group_name_H-M	'P1'
_symmetry_Int_Tables_number	1
_symmetry_cell_setting	triclinic
loop_
_symmetry_equiv_pos_as_xyz
  x,y,z
_cell_length_a	14.044220
_cell_length_b	10.654550
_cell_length_c	9.130313
_cell_angle_alpha	90.000110
_cell_angle_beta	89.999962
_cell_angle_gamma	91.163110
loop_
_atom_site_label
_atom_site_type_symbol
_atom_site_fract_x
_atom_site_fract_y
_atom_site_fract_z
O1	O	1.259693	-0.302980	-0.121789
O2	O	1.759693	0.197020	0.378211
O3	O	0.983652	-0.292047	-0.121793
O4	O	1.483652	0.207953	0.378207
O5	O	1.128019	-0.115412	-0.121785
O6	O	1.628019	0.384588	0.378215
O7	O	1.115326	-0.479615	-0.121796
O8	O	1.615326	0.020385	0.378204
O9	O	1.128017	-0.115417	0.121813
O10	O	1.628017	0.384583	0.621813
O11	O	0.983650	-0.292052	0.121806
O12	O	1.483650	0.207948	0.621806
O13	O	1.259691	-0.302985	0.121810
O14	O	1.759691	0.197015	0.621810
Cu15	Cu	1.121671	-0.297519	0.144050
Cu16	Cu	1.621671	0.202481	0.644050
Cu17	Cu	1.121673	-0.297513	-0.144033
Cu18	Cu	1.621673	0.202487	0.355967
O19	O	1.115324	-0.479620	0.121802
O20	O	1.615324	0.020380	0.621802
C21	C	0.948305	-0.287263	0.000006
C22	C	1.448305	0.212737	0.500006
C23	C	0.842986	-0.272988	0.000004
C24	C	1.342986	0.227012	0.500004
C25	C	1.295038	-0.307769	0.000008
C26	C	1.795038	0.192231	0.500008
C27	C	1.400358	-0.322044	-0.000000
C28	C	1.900358	0.177956	0.500000
C29	C	1.127086	-0.068523	0.000012
C30	C	1.627086	0.431477	0.500012
C31	C	1.124298	0.071201	0.000007
C32	C	1.624298	0.571201	0.500007
C33	C	1.593191	-0.348143	0.000000
C34	C	2.093191	0.151857	0.500000
C35	C	1.650158	-0.246895	0.000004
C36	C	2.150158	0.253105	0.500004
C37	C	1.757457	-0.261416	0.000004
C38	C	2.257457	0.238584	0.500004
C39	C	1.485882	-0.333623	-0.000000
C40	C	1.985882	0.166377	0.500000
C41	C	1.116257	-0.526509	0.000001
C42	C	1.616257	-0.026509	0.500001
C43	C	1.119045	-0.666233	-0.000003
C44	C	1.619045	-0.166233	0.499997
N45	N	1.121676	-0.297523	0.346673
N46	N	1.621676	0.202477	0.846673
C47	C	1.209299	0.142144	0.000013
C48	C	1.709299	0.642144	0.500013
C49	C	1.206673	0.273429	0.000002
C50	C	1.706673	0.773429	0.500002
C51	C	1.034038	0.262814	-0.000013
C52	C	1.534038	0.762814	0.499987
C53	C	1.036664	0.131532	-0.000013
C54	C	1.536664	0.631532	0.499987
C55	C	1.308969	0.148274	0.000028
C56	C	1.808969	0.648274	0.500028
C57	C	1.306343	0.279559	0.000018
C58	C	1.806343	0.779559	0.500018
N59	N	1.121675	-0.297500	-0.346656
N60	N	1.621675	0.202500	0.153344
C61	C	1.185618	-0.219340	0.423328
C62	C	1.685618	0.280660	0.923328
C63	C	1.185616	-0.219324	0.576665
C64	C	1.685616	0.280676	1.076665
C65	C	1.057725	-0.375686	0.576678
C66	C	1.557725	0.124314	1.076678
C67	C	1.057724	-0.375694	0.423344
C68	C	1.557724	0.124306	0.923344
C69	C	1.259458	-0.129069	0.423322
C70	C	1.759458	0.370931	0.923322
C71	C	1.259455	-0.129054	0.576659
C72	C	1.759455	0.370946	1.076659
H73	H	1.618346	-0.149307	-0.000100
H74	H	2.118346	0.350693	0.499900
C75	C	1.636166	-0.479971	-0.000014
C76	C	2.136166	0.020029	0.499986
N77	N	1.668547	-0.579263	-0.000032
N78	N	2.168547	-0.079263	0.499968
H79	H	0.967448	0.073774	-0.000038
H80	H	1.467448	0.573774	0.499962
H81	H	1.005657	-0.439330	0.639120
H82	H	1.505657	0.060670	1.139120
H83	H	0.962689	0.311952	-0.000031
H84	H	1.462689	0.811952	0.499969
H85	H	1.336465	0.322177	-0.105161
H86	H	1.836465	0.822177	0.394839
C87	C	1.361630	0.103317	-0.137688
C88	C	1.861630	0.603317	0.362312
N89	N	1.401291	0.069455	-0.241415
N90	N	1.901291	0.569455	0.258585
H91	H	1.343896	0.317543	0.101962
H92	H	1.843896	0.817543	0.601962
C93	C	1.351845	0.095826	0.142122
C94	C	1.851845	0.595826	0.642122
N95	N	1.384138	0.056321	0.249149
N96	N	1.884138	0.556321	0.749149
C97	C	1.352499	-0.179734	0.359066
C98	C	1.852499	0.320266	0.859066
N99	N	1.422579	-0.217895	0.310667
N100	N	1.922579	0.282105	0.810667
H101	H	1.005649	-0.439345	0.360932
H102	H	1.505649	0.060655	0.860932
C103	C	1.237572	0.003536	0.367092
C104	C	1.737572	0.503536	0.867092
N105	N	1.221085	0.103411	0.324739
N106	N	1.721085	0.603411	0.824739
C107	C	1.228310	-0.002696	0.640904
C108	C	1.728310	0.497304	1.140904
N109	N	1.204845	0.092472	0.689295
N110	N	1.704845	0.592472	1.189295
H111	H	1.332349	-0.157898	0.618276
H112	H	1.832349	0.342102	1.118276
