data_functionalizedCrystal
_audit_creation_method	'MofGen! by Chris Wilmer'
_symmetry_space_group_name_H-M	'P1'
_symmetry_Int_Tables_number	1
_symmetry_cell_setting	triclinic
loop_
_symmetry_equiv_pos_as_xyz
  x,y,z
_cell_length_a	20.919309
_cell_length_b	14.395555
_cell_length_c	20.919286
_cell_angle_alpha	93.156300
_cell_angle_beta	64.532808
_cell_angle_gamma	57.440906
loop_
_atom_site_label
_atom_site_type_symbol
_atom_site_fract_x
_atom_site_fract_y
_atom_site_fract_z
Zr1	Zr	0.700780	-0.110016	0.644062
O2	O	0.834345	-0.273659	0.547039
O3	O	0.567216	-0.054903	0.670194
O4	O	0.700785	-0.255841	0.675396
O5	O	0.700772	0.080154	0.541841
O6	O	0.700786	-0.247414	0.780753
O7	O	0.700777	-0.072721	0.541838
O8	O	0.461856	0.112026	0.771448
O9	O	0.939702	-0.279287	0.551146
O10	O	0.622153	-0.031088	0.764328
O11	O	0.622148	0.076712	0.685704
O12	O	0.779408	-0.159866	0.691828
O13	O	0.779404	-0.052066	0.613204
Zr14	Zr	0.700775	0.147240	0.812099
Zr15	Zr	0.700782	-0.096577	0.812093
Zr16	Zr	0.700772	0.133801	0.644067
Zr17	Zr	0.868811	-0.118993	0.650611
Zr18	Zr	0.532743	0.156217	0.805549
O19	O	0.834338	0.092127	0.785966
O20	O	0.834349	-0.254550	0.785959
O21	O	0.834335	0.073018	0.547047
O22	O	0.567209	0.310883	0.909122
O23	O	0.567220	-0.035794	0.909114
O24	O	0.567205	0.291774	0.670202
O25	O	0.700782	-0.042929	0.914320
O26	O	0.700770	0.293065	0.780765
O27	O	0.700768	0.284638	0.675408
O28	O	0.700778	0.109945	0.914323
O29	O	0.939704	-0.268604	0.684709
O30	O	0.461850	0.305828	0.771452
O31	O	0.461852	0.316511	0.905015
O32	O	0.461858	0.122709	0.905011
O33	O	0.939696	-0.085485	0.551150
O34	O	0.939698	-0.074802	0.684713
O35	O	0.622146	0.197090	0.764333
O36	O	0.622151	0.089290	0.842957
O37	O	0.779406	-0.039488	0.770457
O38	O	0.779401	0.068312	0.691833
C39	C	0.490595	0.029840	0.719888
C40	C	0.419261	0.033651	0.717107
C41	C	0.700774	0.001801	0.517898
C42	C	0.700773	-0.003904	0.446565
C43	C	0.700768	0.323590	0.728087
C44	C	0.700764	0.427097	0.728090
C45	C	0.385751	-0.020829	0.756840
C46	C	0.318721	-0.017237	0.754229
C47	C	0.285206	0.040828	0.711881
C48	C	0.318719	0.095316	0.672148
C49	C	0.385744	0.091731	0.674763
C50	C	0.082831	0.054475	0.701935
C51	C	0.015803	0.058053	0.699321
C52	C	0.015808	-0.054498	0.781404
C53	C	0.082838	-0.058085	0.784012
C54	C	0.116342	-0.003592	0.744282
C55	C	0.216692	0.044498	0.709210
C56	C	0.184850	-0.007255	0.746958
C57	C	0.910959	0.007384	0.736273
C58	C	0.982293	0.003573	0.739053
C59	C	0.700787	-0.286366	0.728073
C60	C	0.700790	-0.389873	0.728071
C61	C	0.615022	0.557901	0.767616
C62	C	0.657886	0.588924	0.800357
C63	C	0.657904	0.580499	0.695366
C64	C	0.743629	0.456760	0.760873
C65	C	0.743635	0.448335	0.655841
C66	C	0.786561	0.479280	0.688565
C67	C	0.700786	-0.040413	0.043105
C68	C	0.700789	-0.035051	0.110130
C69	C	0.700781	0.051857	0.143648
C70	C	0.700779	0.133402	0.110133
C71	C	0.700783	0.128035	0.043106
C72	C	0.700775	0.072273	0.346023
C73	C	0.700768	0.077637	0.413055
C74	C	0.700780	-0.090819	0.413048
C75	C	0.700778	-0.096174	0.346022
C76	C	0.700781	-0.014633	0.312511
C77	C	0.700780	0.057342	0.212159
C78	C	0.700788	-0.020124	0.243997
C79	C	0.700780	0.035423	0.938262
C80	C	0.700782	0.041128	1.009596
C81	C	0.490598	0.046651	0.930070
C82	C	0.419266	0.056167	0.998623
C83	C	0.490586	0.334819	0.719895
C84	C	0.419249	0.442136	0.717117
C85	C	0.490589	0.351629	0.930077
C86	C	0.419253	0.464652	0.998633
C87	C	0.910965	-0.314405	0.526084
C88	C	0.982301	-0.427428	0.457528
C89	C	0.910956	-0.009427	0.526091
C90	C	0.982288	-0.018943	0.457538
C91	C	0.910969	-0.297595	0.736266
C92	C	0.982306	-0.404912	0.739044
C93	C	0.385768	-0.002210	0.989773
C94	C	0.318753	0.006708	1.054180
C95	C	0.285232	0.074010	1.127437
C96	C	0.318736	0.132388	1.136286
C97	C	0.385754	0.123463	1.071879
C98	C	0.385747	0.555380	0.756856
C99	C	0.318727	0.656225	0.754243
C100	C	0.285207	0.643824	0.711895
C101	C	0.318715	0.530569	0.672151
C102	C	0.385738	0.429726	0.674760
C103	C	0.385755	0.461459	1.071875
C104	C	0.318737	0.567647	1.136297
C105	C	0.285213	0.677027	1.127475
C106	C	0.318717	0.680217	1.054225
C107	C	0.385739	0.574030	0.989805
C108	C	1.015807	-0.424236	0.384286
C109	C	1.082846	-0.530425	0.319865
C110	C	1.116374	-0.639805	0.328687
C111	C	1.082865	-0.642995	0.401937
C112	C	1.015832	-0.536807	0.466357
C113	C	1.015793	0.039423	0.466388
C114	C	1.082827	0.030478	0.401982
C115	C	1.116350	-0.036828	0.328725
C116	C	1.082843	-0.095201	0.319876
C117	C	1.015815	-0.086262	0.384282
C118	C	1.015805	-0.392474	0.781399
C119	C	1.082825	-0.493299	0.784024
C120	C	1.116349	-0.606563	0.744290
C121	C	1.082842	-0.618999	0.701933
C122	C	1.015819	-0.518174	0.699313
H123	H	0.413038	-0.068119	0.791320
H124	H	1.170956	-0.726261	0.276226
H125	H	0.413006	0.337522	0.642402
H126	H	0.413041	0.372407	1.079073
H127	H	0.988538	-0.133789	0.377065
H128	H	0.542519	0.590121	0.801094
H129	H	1.110148	-0.711231	0.669583
H130	H	0.700799	-0.090890	0.216703
H131	H	0.291412	0.520490	0.637672
H132	H	1.110117	-0.527804	0.260228
H133	H	0.413032	0.565499	0.791340
H134	H	0.700775	0.138669	0.318744
H135	H	0.230632	0.725947	0.709777
H136	H	1.170929	-0.044097	0.276288
H137	H	0.230660	0.081269	1.179874
H138	H	0.413004	0.576647	0.930170
H139	H	0.621649	0.633844	0.667697
H140	H	0.212136	-0.054527	0.781441
H141	H	1.110149	-0.150001	0.260222
H142	H	0.988503	0.094238	0.526031
H143	H	1.110172	-0.732065	0.409111
H144	H	0.291433	0.187185	1.195939
H145	H	0.413019	0.171009	1.079096
H146	H	0.988512	-0.335183	0.377088
H147	H	0.621649	0.649370	0.861450
H148	H	0.291453	0.748433	0.786610
H149	H	0.988552	-0.539420	0.525992
H150	H	0.291465	0.565029	1.195935
H151	H	1.110099	-0.483150	0.818514
H152	H	0.988551	-0.528319	0.664819
H153	H	0.291412	0.769289	1.047053
H154	H	1.170924	-0.688651	0.746429
H155	H	0.291436	-0.061598	0.786583
H156	H	1.110097	0.078019	0.409201
H157	H	0.700785	-0.166942	0.318734
H158	H	0.700781	0.194432	0.015822
H159	H	0.230640	0.763483	1.179937
H160	H	0.988521	-0.300258	0.813756
H161	H	-0.011478	-0.098862	0.813752
H162	H	0.110124	-0.105366	0.818495
H163	H	0.859124	0.446847	0.655141
H164	H	0.700787	-0.111179	0.015823
H165	H	0.413061	-0.057028	0.930130
H166	H	0.110098	0.098852	0.669587
H167	H	-0.011480	0.105337	0.664832
H168	H	0.413029	0.136091	0.642407
H169	H	0.291422	0.142601	0.637671
H170	H	0.779842	0.403566	0.788611
H171	H	0.189397	0.091775	0.674730
H172	H	0.291482	-0.040832	1.046960
H173	H	0.779840	0.387894	0.594760
H174	H	0.700793	-0.101449	0.137413
H175	H	0.700779	-0.157207	0.440338
H176	H	0.700761	0.148414	0.440343
H177	H	0.700778	0.204162	0.137424
H178	H	0.700772	0.128107	0.239456
