data_functionalizedCrystal
_audit_creation_method	'MofGen! by Chris Wilmer'
_symmetry_space_group_name_H-M	'P1'
_symmetry_Int_Tables_number	1
_symmetry_cell_setting	triclinic
loop_
_symmetry_equiv_pos_as_xyz
  x,y,z
_cell_length_a	10.654545
_cell_length_b	15.712078
_cell_length_c	9.130313
_cell_angle_alpha	89.997345
_cell_angle_beta	89.996934
_cell_angle_gamma	102.032114
loop_
_atom_site_label
_atom_site_type_symbol
_atom_site_fract_x
_atom_site_fract_y
_atom_site_fract_z
O1	O	1.722214	0.121720	-0.121782
O2	O	1.361918	0.133323	-0.121788
O3	O	1.494135	0.001407	-0.121778
O4	O	1.589998	0.253636	-0.121791
O5	O	1.494120	0.001403	0.121821
O6	O	1.361903	0.133319	0.121811
O7	O	1.722200	0.121716	0.121817
Cu8	Cu	1.542050	0.127517	0.144057
Cu9	Cu	1.542068	0.127522	-0.144027
O10	O	1.589983	0.253632	0.121807
C11	C	1.314732	0.132470	0.000011
C12	C	1.174151	0.129923	0.000009
C13	C	1.108103	0.128722	0.132795
C14	C	0.976009	0.126315	0.132796
C15	C	0.976023	0.126314	-0.132789
C16	C	1.108113	0.128715	-0.132788
C17	C	1.478466	-0.030892	0.000020
C18	C	1.431787	-0.127126	0.000016
C19	C	1.828106	-0.491851	0.000007
C20	C	1.784215	-0.582276	0.000007
C21	C	1.564286	-0.562976	0.000003
C22	C	1.608159	-0.472548	0.000010
C23	C	1.740070	-0.436993	0.000011
C24	C	1.520124	-0.417690	0.000014
C25	C	1.563994	-0.327270	0.000013
C26	C	1.695899	-0.291708	0.000010
C27	C	1.783941	-0.346573	0.000010
C28	C	1.388213	-0.453246	0.000003
C29	C	1.300177	-0.398388	0.000006
C30	C	1.344047	-0.307966	0.000016
C31	C	1.475953	-0.272405	0.000012
C32	C	1.256006	-0.253101	0.000015
C33	C	1.299876	-0.162681	0.000015
C34	C	1.519823	-0.181985	0.000012
C35	C	1.769385	0.122569	0.000015
C36	C	1.909966	0.125116	0.000008
C37	C	1.605651	0.285931	0.000006
C38	C	1.652331	0.382165	0.000001
N39	N	1.542047	0.127513	0.346679
N40	N	1.542078	0.127519	-0.346650
C41	C	1.600632	0.069126	0.423335
C42	C	1.600644	0.069126	0.576672
C43	C	1.483485	0.185909	0.576683
C44	C	1.483465	0.185904	0.423349
H45	H	1.161868	0.129706	0.240927
Cl46	Cl	1.674294	-0.004280	0.673036
H47	H	1.148603	-0.282064	0.000000
H48	H	1.891356	-0.317623	0.000026
Cl49	Cl	1.134351	-0.443094	-0.000007
H50	H	1.456883	-0.591937	-0.000003
H51	H	1.435791	0.233450	0.639123
Cl52	Cl	1.409802	0.259307	0.326972
Cl53	Cl	1.191150	0.130217	-0.299734
Cl54	Cl	0.892983	0.124807	0.299735
H55	H	0.922239	0.125331	-0.240907
H56	H	1.228188	-0.118014	0.000020
H57	H	1.648330	0.021580	0.360914
H58	H	1.627238	-0.153034	0.000028
H59	H	1.731616	-0.218082	0.000009
H60	H	1.935521	-0.462901	0.000023
Cl61	Cl	1.333062	-0.566919	0.000123
Cl62	Cl	1.894904	-0.651239	-0.000007
