data_functionalizedCrystal
_audit_creation_method	'MofGen! by Chris Wilmer'
_symmetry_space_group_name_H-M	'P1'
_symmetry_Int_Tables_number	1
_symmetry_cell_setting	triclinic
loop_
_symmetry_equiv_pos_as_xyz
  x,y,z
_cell_length_a	31.640172
_cell_length_b	12.970454
_cell_length_c	12.970454
_cell_angle_alpha	59.999776
_cell_angle_beta	90.003776
_cell_angle_gamma	59.998248
loop_
_atom_site_label
_atom_site_type_symbol
_atom_site_fract_x
_atom_site_fract_y
_atom_site_fract_z
Zr1	Zr	0.407182	1.128395	-0.135173
O2	O	0.339693	1.343506	-0.299819
O3	O	0.427871	0.913298	-0.084699
O4	O	0.427872	1.128388	-0.299790
O5	O	0.339692	1.128417	0.084938
O6	O	0.497429	1.128366	-0.299767
O7	O	0.339693	1.128416	-0.084729
O8	O	0.497428	0.743610	0.084991
O9	O	0.339693	1.513173	-0.299820
O10	O	0.488605	1.001749	-0.063156
O11	O	0.436695	1.001766	0.063447
O12	O	0.436696	1.255007	-0.189795
O13	O	0.384786	1.255023	-0.063191
Zr14	Zr	0.518117	1.128362	0.135462
Zr15	Zr	0.518118	1.128361	-0.135137
Zr16	Zr	0.407182	1.128396	0.135426
Zr17	Zr	0.407182	1.398995	-0.135174
Zr18	Zr	0.518117	0.857762	0.135463
O19	O	0.497428	1.343459	0.084988
O20	O	0.497429	1.343457	-0.299768
O21	O	0.339692	1.343508	0.084937
O22	O	0.585606	0.913252	0.300109
O23	O	0.585607	0.913250	-0.084648
O24	O	0.427870	0.913300	0.300057
O25	O	0.585607	1.128340	-0.084649
O26	O	0.497427	1.128370	0.300079
O27	O	0.427870	1.128391	0.300056
O28	O	0.585607	1.128341	0.085018
O29	O	0.427872	1.513146	-0.299792
O30	O	0.497427	0.743611	0.300081
O31	O	0.585606	0.743584	0.300110
O32	O	0.585607	0.743583	0.085020
O33	O	0.339693	1.513174	-0.084731
O34	O	0.427872	1.513147	-0.084702
O35	O	0.488604	1.001751	0.190084
O36	O	0.540514	1.001734	0.063481
O37	O	0.488605	1.254991	-0.063158
O38	O	0.436695	1.255008	0.063446
C39	C	0.462650	0.789899	0.000146
C40	C	0.462650	0.675023	0.000147
C41	C	0.323886	1.128421	0.000100
C42	C	0.276791	1.128436	0.000084
C43	C	0.011882	0.996167	0.066274
C44	C	-0.165104	0.996142	0.066299
O45	O	-0.164945	0.883712	0.122564
N46	N	-0.214329	1.128339	0.000193
C47	C	-0.219308	1.260551	-0.065916
O48	O	-0.265239	1.372992	-0.122132
C49	C	-0.042324	1.260575	-0.065933
C50	C	0.006902	1.128370	0.000166
C51	C	0.061105	0.863973	0.132369
C52	C	0.105348	0.863981	0.132357
C53	C	0.100368	0.996183	0.066249
C54	C	0.051145	1.128377	0.000154
C55	C	-0.047303	1.392786	-0.132035
C56	C	-0.003051	1.392780	-0.132031
C57	C	0.046174	1.260574	-0.065931
C58	C	0.090409	1.260587	-0.065967
N59	N	0.139634	1.128390	0.000139
C60	C	0.144614	0.996188	0.066247
C61	C	-0.312226	1.260529	-0.065905
C62	C	-0.356472	1.260524	-0.065903
C63	C	-0.302264	0.996114	0.066315
C64	C	-0.258017	0.996121	0.066305
C65	C	-0.263000	1.128333	0.000201
C66	C	0.237526	0.996214	0.066215
C67	C	0.281771	0.996234	0.066192
C68	C	0.227560	1.260642	-0.066020
C69	C	0.183319	1.260624	-0.066003
C70	C	0.188305	1.128398	0.000124
O71	O	0.090290	1.372958	-0.122190
O72	O	0.190549	0.883764	0.122477
C73	C	-0.032362	0.996160	0.066287
C74	C	-0.081585	1.128354	0.000191
C75	C	-0.086565	1.260556	-0.065916
C76	C	-0.125831	1.128349	0.000194
C77	C	-0.120851	0.996147	0.066301
C78	C	-0.071625	0.863950	0.132407
C79	C	-0.027382	0.863958	0.132394
C80	C	-0.135791	1.392753	-0.132022
C81	C	-0.180032	1.392734	-0.132005
C82	C	-0.175052	1.260532	-0.065898
C83	C	0.601413	1.128336	0.000190
C84	C	0.648508	1.128322	0.000205
C85	C	0.462651	1.128377	-0.338333
C86	C	0.462651	1.128376	-0.453209
C87	C	0.462650	1.466858	0.000143
C88	C	0.462650	1.581735	0.000142
C89	C	0.462649	1.128380	0.338622
C90	C	0.462648	1.128381	0.453498
C91	C	0.601413	0.789857	0.000191
C92	C	0.648508	0.674966	0.000207
C93	C	0.462649	0.789901	0.338624
C94	C	0.462648	0.675025	0.453501
C95	C	0.601412	0.789859	0.338669
C96	C	0.648507	0.674968	0.453561
C97	C	0.323887	1.466899	-0.338380
C98	C	0.276793	1.581789	-0.453272
C99	C	0.323886	1.466901	0.000098
C100	C	0.276791	1.581792	0.000082
C101	C	0.462651	1.466856	-0.338335
C102	C	0.462651	1.581732	-0.453211
C103	C	0.643528	0.621019	-0.065900
C104	C	0.687775	0.513082	-0.065910
C105	C	0.737001	0.459085	0.000195
C106	C	0.741979	0.513042	0.066304
C107	C	0.697733	0.620985	0.066306
C108	C	0.697724	0.621005	0.441430
C109	C	0.741979	0.513069	0.549373
C110	C	0.737015	0.459089	0.669446
C111	C	0.687793	0.513062	0.681574
C112	C	0.643539	0.621004	0.573633
C113	C	0.227575	1.635765	-0.441141
C114	C	0.183321	1.743736	-0.549084
C115	C	0.188285	1.797721	-0.669156
C116	C	0.237507	1.743741	-0.681285
C117	C	0.281761	1.635780	-0.573343
C118	C	0.281771	1.635749	0.066178
C119	C	0.237525	1.743717	0.066158
C120	C	0.188299	1.797717	0.000050
C121	C	0.183320	1.743755	-0.066054
C122	C	0.227566	1.635797	-0.066042
H123	H	0.241594	0.888544	0.120062
C124	C	0.589383	0.680409	-0.138630
C125	C	0.583917	0.621062	-0.211353
C126	C	0.529773	0.680450	-0.284096
C127	C	0.481097	0.799186	-0.284115
C128	C	0.486562	0.858540	-0.211389
C129	C	0.540705	0.799151	-0.138646
H130	H	0.619951	0.533160	-0.211342
H131	H	0.525728	0.636512	-0.337932
H132	H	0.441017	0.843149	-0.337963
H133	H	0.450527	0.946442	-0.211400
H134	H	0.544751	0.843090	-0.084810
H135	H	0.152246	1.885629	-0.757039
C136	C	0.796130	0.453619	0.139034
C137	C	0.844795	0.334867	0.139038
C138	C	0.898947	0.275428	0.211779
C139	C	0.904434	0.334741	0.284516
C140	C	0.855768	0.453498	0.284514
C141	C	0.801616	0.512937	0.211773
H142	H	0.840734	0.290955	0.085192
H143	H	0.934972	0.187516	0.211780
H144	H	0.944521	0.290740	0.338364
H145	H	0.859829	0.497411	0.338361
H146	H	0.765591	0.600850	0.211772
C147	C	0.796118	0.453706	0.536010
C148	C	0.812381	0.379496	0.466646
C149	C	0.866518	0.320138	0.453279
C150	C	0.904394	0.334990	0.509274
C151	C	0.888132	0.409203	0.578642
C152	C	0.833995	0.468561	0.592010
H153	H	0.784342	0.368499	0.425191
H154	H	0.878556	0.265200	0.401928
H155	H	0.944470	0.291050	0.499379
H156	H	0.916171	0.420201	0.620098
H157	H	0.821957	0.523499	0.643361
C158	C	-0.101441	1.538225	-0.204721
C159	C	-0.117724	1.647334	-0.348295
C160	C	-0.171862	1.792788	-0.420974
C161	C	-0.209718	1.829133	-0.350080
C162	C	-0.193437	1.720021	-0.206498
C163	C	-0.139298	1.574567	-0.133818
H164	H	-0.089700	1.620432	-0.400783
H165	H	-0.183915	1.873560	-0.527264
H166	H	-0.249795	1.936807	-0.403882
H167	H	-0.221461	1.746924	-0.154010
H168	H	-0.127246	1.493796	-0.027529
H169	H	0.321849	1.591790	0.120020
H170	H	0.701775	0.664940	0.343670
C171	C	0.335899	1.576405	-0.586700
C172	C	0.341353	1.635793	-0.718783
C173	C	0.395490	1.576428	-0.732151
C174	C	0.444174	1.457674	-0.613436
C175	C	0.438723	1.398278	-0.481344
C176	C	0.384585	1.457644	-0.467976
H177	H	0.305312	1.723709	-0.806671
H178	H	0.399526	1.620397	-0.829934
H179	H	0.484250	1.413728	-0.623332
H180	H	0.474763	1.310363	-0.393456
H181	H	0.380549	1.413674	-0.370192
C182	C	0.129169	1.803148	-0.138753
C183	C	0.080505	1.921879	-0.138738
C184	C	0.026353	1.981263	-0.211424
C185	C	0.020865	1.921915	-0.284125
C186	C	0.069531	1.803177	-0.284143
C187	C	0.123683	1.743793	-0.211457
H188	H	0.084566	1.965818	-0.084918
H189	H	-0.009673	2.069161	-0.211410
H190	H	-0.019221	1.965874	-0.337931
H191	H	0.065470	1.759238	-0.337963
H192	H	0.159709	1.655895	-0.211471
H193	H	0.223504	1.591868	-0.119861
H194	H	0.321853	0.888572	0.120022
C195	C	0.129181	1.803085	-0.535722
C196	C	0.112920	1.877245	-0.466317
C197	C	0.058782	1.936588	-0.452951
C198	C	0.020905	1.921770	-0.508990
C199	C	0.037165	1.847606	-0.578399
C200	C	0.091303	1.788264	-0.591765
H201	H	0.140959	1.888217	-0.424829
H202	H	0.046745	1.991489	-0.401569
H203	H	-0.019171	1.965699	-0.499095
H204	H	0.009126	1.836634	-0.619887
H205	H	0.103340	1.733363	-0.643147
C206	C	0.026763	0.718527	0.205115
C207	C	0.043029	0.609458	0.170614
C208	C	0.097171	0.464019	0.243342
C209	C	0.135048	0.427648	0.350571
C210	C	0.118783	0.536719	0.385077
C211	C	0.064640	0.682159	0.312349
H212	H	0.014989	0.636380	0.091233
H213	H	0.109212	0.383277	0.217798
H214	H	0.175128	0.319985	0.404408
H215	H	0.146822	0.509798	0.464458
H216	H	0.052600	0.762900	0.337893
C217	C	-0.008534	1.538218	-0.204752
C218	C	-0.036983	1.647285	-0.348330
C219	C	-0.042465	1.792721	-0.421053
C220	C	-0.019499	1.829089	-0.350199
C221	C	0.008953	1.720019	-0.206613
C222	C	0.014435	1.574584	-0.133889
H223	H	-0.053986	1.620366	-0.400788
H224	H	-0.063527	1.873461	-0.527346
H225	H	-0.023557	1.936749	-0.404033
H226	H	0.025956	1.746939	-0.154155
H227	H	0.035497	1.493843	-0.027597
C228	C	-0.203871	0.850695	0.139024
C229	C	-0.187601	0.741628	0.104519
C230	C	-0.133456	0.596196	0.177244
C231	C	-0.095582	0.559829	0.284475
C232	C	-0.111852	0.668899	0.318985
C233	C	-0.165996	0.814332	0.246260
H234	H	-0.215638	0.768546	0.025136
H235	H	-0.121412	0.515455	0.151697
H236	H	-0.055501	0.452171	0.338310
H237	H	-0.083814	0.641981	0.398368
H238	H	-0.178040	0.895072	0.271807
H239	H	0.145426	0.756325	0.186176
H240	H	0.683711	0.469163	-0.119744
H241	H	0.065168	0.756312	0.186209
H242	H	0.223524	1.591816	-0.343381
H243	H	-0.298216	0.888470	0.120135
H244	H	0.241542	1.787710	-0.779061
H245	H	-0.396550	1.368178	-0.119744
H246	H	-0.316291	1.368198	-0.119743
H247	H	0.143236	1.368276	-0.119843
H248	H	0.223514	1.368278	-0.119847
H249	H	0.701795	0.664894	0.120146
H250	H	-0.067578	0.756306	0.186226
H251	H	-0.220112	1.500400	-0.185844
H252	H	-0.139853	1.500410	-0.185858
H253	H	0.773053	0.371195	0.757329
H254	H	0.773024	0.371190	0.000184
H255	H	0.683759	0.469096	0.779352
H256	H	0.241589	1.787634	0.119993
H257	H	0.603466	0.664927	0.583528
H258	H	0.152275	1.885624	0.000049
