data_functionalizedCrystal
_audit_creation_method	'MofGen! by Chris Wilmer'
_symmetry_space_group_name_H-M	'P1'
_symmetry_Int_Tables_number	1
_symmetry_cell_setting	triclinic
loop_
_symmetry_equiv_pos_as_xyz
  x,y,z
_cell_length_a	8.559649
_cell_length_b	11.792254
_cell_length_c	7.681481
_cell_angle_alpha	84.218036
_cell_angle_beta	94.913240
_cell_angle_gamma	76.988631
loop_
_atom_site_label
_atom_site_type_symbol
_atom_site_fract_x
_atom_site_fract_y
_atom_site_fract_z
O1	O	2.104792	-0.026423	-0.146400
O2	O	1.640099	0.032147	-0.146410
O3	O	1.883713	-0.163340	-0.146392
O4	O	1.861178	0.169064	-0.146418
O5	O	1.913698	-0.187450	0.146468
O6	O	1.670083	0.008038	0.146450
O7	O	2.134777	-0.050533	0.146460
Zn8	Zn	1.907191	-0.025076	0.192953
Zn9	Zn	1.867685	0.006690	-0.192903
O10	O	1.891162	0.144954	0.146442
C11	C	1.595600	0.024531	0.000018
C12	C	1.418334	0.037743	0.000015
C13	C	1.897286	-0.217555	0.000037
C14	C	1.893037	-0.343179	0.000035
C15	C	1.889585	-0.445200	0.000029
C16	C	1.885267	-0.573190	0.000013
C17	C	2.179276	-0.042916	0.000027
C18	C	2.356540	-0.056128	0.000020
C19	C	1.877589	0.199170	0.000009
C20	C	1.881837	0.324795	-0.000001
N21	N	1.934164	-0.046757	0.456289
N22	N	1.840724	0.028361	-0.456239
H23	H	1.439247	-0.146602	0.000018
C24	C	1.146796	0.149786	0.000001
C25	C	1.306683	0.159894	0.000004
H26	H	1.077873	0.225195	0.000004
H27	H	1.116583	0.117073	-0.102119
H28	H	1.137498	0.100247	0.102136
H29	H	1.315985	0.209426	-0.102139
H30	H	1.336905	0.192623	0.102134
H31	H	1.745341	0.105034	0.468557
C32	C	2.031654	-0.255922	0.513384
C33	C	2.062944	-0.150270	0.557807
H34	H	2.111162	-0.319824	0.576051
H35	H	1.928032	-0.261336	0.543541
H36	H	2.034575	-0.258265	0.390430
H37	H	2.060012	-0.147924	0.680760
H38	H	2.166593	-0.144854	0.527662
