data_functionalizedCrystal
_audit_creation_method	'MofGen! by Chris Wilmer'
_symmetry_space_group_name_H-M	'P1'
_symmetry_Int_Tables_number	1
_symmetry_cell_setting	triclinic
loop_
_symmetry_equiv_pos_as_xyz
  x,y,z
_cell_length_a	13.897449
_cell_length_b	16.120484
_cell_length_c	13.897441
_cell_angle_alpha	92.865635
_cell_angle_beta	89.979267
_cell_angle_gamma	92.926780
loop_
_atom_site_label
_atom_site_type_symbol
_atom_site_fract_x
_atom_site_fract_y
_atom_site_fract_z
Zn1	Zn	1.455182	-0.331852	-0.564824
Zn2	Zn	1.955182	0.168148	-0.064824
Zn3	Zn	1.446874	-0.471283	-0.411694
Zn4	Zn	1.946874	0.028717	0.088306
Zn5	Zn	1.293869	-0.331892	-0.403544
Zn6	Zn	1.793869	0.168108	0.096456
Zn7	Zn	1.285654	-0.471229	-0.572943
Zn8	Zn	1.785654	0.028771	-0.072943
O9	O	1.370395	-0.401564	-0.488251
O10	O	1.870395	0.098436	0.011749
O11	O	1.589061	-0.350354	-0.544523
O12	O	2.089061	0.149646	-0.044523
O13	O	1.426539	-0.452832	-0.275633
O14	O	1.926539	0.047168	0.224367
O15	O	1.322182	-0.215221	-0.418130
O16	O	1.822182	0.284779	0.081870
O17	O	1.582958	-0.452794	-0.432019
O18	O	2.082958	0.047206	0.067981
O19	O	1.440698	-0.215191	-0.536621
O20	O	1.940698	0.284809	-0.036621
O21	O	1.314126	-0.350422	-0.269646
O22	O	1.814126	0.149578	0.230354
O23	O	1.157798	-0.350369	-0.426003
O24	O	1.657798	0.149631	0.073997
O25	O	1.308182	-0.452700	-0.706846
O26	O	1.808182	0.047300	-0.206846
O27	O	1.151763	-0.452739	-0.550460
O28	O	1.651763	0.047261	-0.050460
O29	O	1.432733	-0.350301	-0.700880
O30	O	1.932733	0.149699	-0.200880
O31	O	1.418574	-0.587942	-0.439893
O32	O	1.918574	-0.087942	0.060107
O33	O	1.300126	-0.587901	-0.558362
O34	O	1.800126	-0.087901	-0.058362
C35	C	1.119781	-0.401553	-0.488229
C36	C	1.619781	0.098447	0.011771
C37	C	1.012566	-0.401568	-0.488243
C38	C	1.512566	0.098432	0.011757
C39	C	0.816271	-0.401571	-0.488268
C40	C	1.316271	0.098429	0.011732
C41	C	0.925504	-0.401567	-0.488251
C42	C	1.425504	0.098433	0.011749
C43	C	1.357583	-0.618172	-0.500914
C44	C	1.857583	-0.118172	-0.000914
C45	C	1.352190	-0.710837	-0.506363
C46	C	1.852190	-0.210837	-0.006363
C47	C	1.342350	-0.880499	-0.516332
C48	C	1.842350	-0.380499	-0.016332
C49	C	1.398613	-0.921788	-0.460186
C50	C	1.898613	-0.421788	0.039814
C51	C	1.393137	-1.016194	-0.465733
C52	C	1.893137	-0.516194	0.034267
C53	C	1.347824	-0.786085	-0.510787
C54	C	1.847824	-0.286085	-0.010787
C55	C	1.621987	-0.401576	-0.488275
C56	C	2.121987	0.098424	0.011725
C57	C	1.729201	-0.401581	-0.488285
C58	C	2.229201	0.098419	0.011715
C59	C	1.370468	-0.401490	-0.739840
C60	C	1.870468	0.098510	-0.239840
C61	C	1.370499	-0.401459	-0.847052
C62	C	1.870499	0.098541	-0.347052
C63	C	1.383283	-0.184110	-0.475560
C64	C	1.883283	0.315890	0.024440
C65	C	1.388775	-0.091444	-0.470152
C66	C	1.888775	0.408556	0.029848
C67	C	1.370528	-0.401402	-1.043344
C68	C	1.870528	0.098598	-0.543344
C69	C	1.370509	-0.401436	-0.934114
C70	C	1.870509	0.098564	-0.434114
C71	C	1.370382	-0.401577	-0.237638
C72	C	1.870382	0.098423	0.262362
C73	C	1.370551	-0.401374	-0.130412
C74	C	1.870551	0.098626	0.369588
H75	H	1.450891	-0.886236	-0.407952
H76	H	1.950891	-0.386236	0.092048
O77	O	1.279956	-0.922775	-0.578723
O78	O	1.779956	-0.422775	-0.078723
C79	C	1.228693	-0.865797	-0.629823
C80	C	1.728693	-0.365797	-0.129823
H81	H	1.271728	-0.803662	-0.629629
H82	H	1.771728	-0.303662	-0.129629
H83	H	1.216923	-0.890999	-0.707260
H84	H	1.716923	-0.390999	-0.207260
H85	H	1.155975	-0.856657	-0.593900
H86	H	1.655975	-0.356657	-0.093900
