data_functionalizedCrystal
_audit_creation_method	'MofGen! by Chris Wilmer'
_symmetry_space_group_name_H-M	'P1'
_symmetry_Int_Tables_number	1
_symmetry_cell_setting	triclinic
loop_
_symmetry_equiv_pos_as_xyz
  x,y,z
_cell_length_a	14.044191
_cell_length_b	14.044191
_cell_length_c	9.730217
_cell_angle_alpha	90.000957
_cell_angle_beta	89.999770
_cell_angle_gamma	86.808224
loop_
_atom_site_label
_atom_site_type_symbol
_atom_site_fract_x
_atom_site_fract_y
_atom_site_fract_z
O1	O	-0.230199	1.277174	-0.114203
O2	O	-0.221886	1.000501	-0.114221
O3	O	-0.087706	1.134681	-0.114215
O4	O	-0.364379	1.142994	-0.114209
O5	O	-0.087704	1.134677	0.114365
O6	O	-0.221884	1.000497	0.114359
O7	O	-0.230197	1.277170	0.114377
Zn8	Zn	-0.226040	1.138832	0.150660
Zn9	Zn	-0.226043	1.138838	-0.150504
O10	O	-0.364377	1.142990	0.114371
C11	C	-0.218249	0.964877	0.000067
C12	C	-0.207401	0.858734	0.000059
C13	C	-0.264502	0.613277	0.000074
C14	C	-0.187585	0.664400	0.000070
C15	C	-0.198614	0.772537	0.000064
C16	C	-0.253475	0.505130	0.000080
C17	C	-0.400000	1.146628	0.000082
C18	C	-0.506143	1.157476	0.000084
C19	C	-0.751600	1.100375	0.000069
C20	C	-0.700477	1.177292	0.000076
C21	C	-0.592340	1.166263	0.000081
C22	C	-0.859747	1.111402	0.000064
C23	C	-0.052083	1.131043	0.000072
C24	C	0.054060	1.120195	0.000060
C25	C	-0.233834	1.312794	0.000087
C26	C	-0.244682	1.418937	0.000085
N27	N	-0.226039	1.138835	0.356197
N28	N	-0.226037	1.138843	-0.356040
C29	C	-0.107264	1.257707	0.356193
C30	C	-0.047880	1.317150	0.428131
C31	C	-0.047880	1.317160	0.572011
C32	C	-0.107269	1.257718	0.643956
C33	C	-0.166653	1.198276	0.572018
C34	C	-0.166648	1.198274	0.428135
C35	C	-0.285421	1.079400	0.572022
C36	C	-0.285427	1.079394	0.428142
C37	C	-0.344810	1.019958	0.643967
C38	C	-0.404200	0.960519	0.572029
C39	C	-0.404198	0.960513	0.428140
C40	C	-0.344811	1.019951	0.356204
H41	H	-0.338629	0.650720	0.000072
H42	H	0.000475	1.365545	0.369541
H43	H	-0.737922	1.251424	-0.000019
H44	H	-0.344803	1.019964	0.761121
H45	H	-0.452552	0.912103	0.369576
H46	H	-0.714157	1.026248	0.000067
H47	H	-0.107267	1.257714	0.239039
H48	H	0.000479	1.365559	0.630583
N49	N	-0.107269	1.257717	0.799139
H50	H	-0.041218	1.238351	0.833795
H51	H	-0.126727	1.323771	0.833688
H52	H	-0.452546	0.912122	0.630616
H53	H	-0.344808	1.019955	0.239050
N54	N	-0.089389	0.614802	0.000058
H55	H	-0.053532	0.633856	-0.084683
H56	H	-0.053596	0.633875	0.084843
