data_functionalizedCrystal
_audit_creation_method	'MofGen! by Chris Wilmer'
_symmetry_space_group_name_H-M	'P1'
_symmetry_Int_Tables_number	1
_symmetry_cell_setting	triclinic
loop_
_symmetry_equiv_pos_as_xyz
  x,y,z
_cell_length_a	17.038272
_cell_length_b	15.995350
_cell_length_c	15.072220
_cell_angle_alpha	90.008851
_cell_angle_beta	89.999202
_cell_angle_gamma	92.698034
loop_
_atom_site_label
_atom_site_type_symbol
_atom_site_fract_x
_atom_site_fract_y
_atom_site_fract_z
O1	O	0.100774	-1.118174	-0.073708
O2	O	0.113219	-0.875285	-0.073726
O3	O	-0.006819	-0.995286	-0.073710
O4	O	0.220812	-0.998173	-0.073724
O5	O	-0.006813	-0.995255	0.073855
O6	O	0.113226	-0.875254	0.073839
O7	O	0.100781	-1.118143	0.073857
Zn8	Zn	0.107004	-0.996694	0.097277
Zn9	Zn	0.106995	-0.996735	-0.097146
O10	O	0.220819	-0.998142	0.073841
C11	C	0.112708	-0.844038	0.000054
C12	C	0.111165	-0.750978	0.000047
C13	C	-0.035945	-0.992645	0.000072
C14	C	-0.122740	-0.984810	0.000071
C15	C	0.101292	-1.149390	0.000075
C16	C	0.102834	-1.242450	0.000076
C17	C	-0.172836	-1.056739	0.000078
C18	C	-0.254389	-1.049373	0.000069
C19	C	-0.285843	-0.970077	0.000060
C20	C	-0.235740	-0.898143	0.000051
C21	C	-0.154189	-0.905510	0.000053
C22	C	-0.531607	-0.944051	0.000046
C23	C	-0.613164	-0.936689	0.000046
C24	C	-0.631807	-1.087920	0.000062
C25	C	-0.550254	-1.095280	0.000070
C26	C	-0.500158	-1.023346	0.000056
C27	C	-0.369202	-0.962546	0.000053
C28	C	-0.416801	-1.030878	0.000056
C29	C	0.249944	-1.000784	0.000057
C30	C	0.336739	-1.008618	0.000052
N31	N	0.107010	-0.996671	0.229966
C32	C	0.105626	-0.412836	0.000066
C33	C	0.020137	-0.454180	0.000400
C34	C	0.021680	-0.550981	0.000062
C35	C	0.108374	-0.580592	0.000057
C36	C	0.150536	-0.542527	-0.084209
C37	C	0.148388	-0.445738	-0.084273
C38	C	0.150162	-0.445489	0.083536
C39	C	0.150142	-0.542433	0.084644
C40	C	0.109931	-0.675401	0.000049
C41	C	0.104071	-0.318027	0.000068
N42	N	0.106984	-0.996763	-0.229835
C43	C	0.106992	-0.996733	0.589168
C44	C	0.171007	-0.932276	0.551552
C45	C	0.171241	-0.932451	0.448726
C46	C	0.107001	-0.996702	0.410963
C47	C	0.124819	-1.085336	0.448260
C48	C	0.125274	-1.084981	0.551118
C49	C	0.024970	-0.973321	0.551271
C50	C	0.025517	-0.971355	0.448408
C51	C	0.107004	-0.996689	0.310250
C52	C	0.106991	-0.996751	0.689881
H53	H	-0.147233	-1.121310	0.000090
N54	N	0.233647	-0.409353	0.084290
H55	H	0.243036	-0.375525	0.140196
H56	H	0.271178	-0.456344	0.082284
H57	H	0.007836	-0.909778	0.577258
N58	N	0.007627	-0.884924	0.416183
H59	H	0.052110	-0.862278	0.377482
H60	H	-0.042740	-0.888010	0.380756
N61	N	-0.025126	-0.426412	0.080450
H62	H	0.009341	-0.386758	0.117276
H63	H	-0.073196	-0.397052	0.060281
N64	N	-0.040544	-1.028913	0.414378
H65	H	-0.018489	-1.072430	0.374027
H66	H	-0.068222	-1.057520	0.466132
N67	N	0.064715	-1.150720	0.415857
H68	H	0.036714	-1.177687	0.468338
H69	H	0.025309	-1.123393	0.376580
H70	H	-0.011462	-0.577036	0.060467
N71	N	0.157182	-0.845432	0.415317
H72	H	0.150778	-0.806613	0.467407
H73	H	0.203440	-0.824667	0.378191
H74	H	-0.022668	-1.020258	0.575596
N75	N	-0.308422	-1.126952	0.000081
H76	H	-0.276121	-1.178303	0.000095
H77	H	-0.342664	-1.127170	0.054785
H78	H	-0.394821	-0.897983	0.000048
N79	N	-0.024926	-0.425013	-0.079188
H80	H	0.002801	-0.441500	-0.135318
H81	H	-0.079770	-0.451864	-0.078394
N82	N	-0.382877	-1.116400	0.000076
H83	H	-0.426985	-1.160855	0.000084
H84	H	-0.349445	-1.122765	-0.054626
N85	N	0.107644	-0.418592	-0.167696
H86	H	0.144759	-0.380866	-0.203541
H87	H	0.091246	-0.469529	-0.204016
H88	H	-0.261356	-0.833579	0.000038
N89	N	0.231523	-0.408935	-0.089308
H90	H	0.269402	-0.455601	-0.091484
H91	H	0.237802	-0.373491	-0.144528
H92	H	-0.113400	-0.846938	0.000048
H93	H	-0.524651	-1.159850	0.000077
H94	H	-0.490828	-0.885477	0.000035
N95	N	0.233888	-0.568738	0.091385
H96	H	0.240956	-0.600440	0.148558
H97	H	0.245938	-0.605897	0.039428
H98	H	0.121246	-0.568828	-0.146918
H99	H	-0.011692	-0.576474	-0.060445
H100	H	0.214228	-0.561189	-0.087345
N101	N	0.113149	-0.415639	0.168145
H102	H	0.067132	-0.380641	0.153221
H103	H	0.094318	-0.465551	0.204708
N104	N	0.203154	-1.111912	0.414129
H105	H	0.239395	-1.121329	0.465833
H106	H	0.195279	-1.165516	0.379158
N107	N	-0.685838	-1.165502	0.000078
H108	H	-0.742273	-1.148806	0.000076
H109	H	-0.675653	-1.199822	-0.054622
H110	H	0.232108	-0.948006	0.424110
N111	N	0.157186	-0.844989	0.584344
H112	H	0.109296	-0.846377	0.623904
H113	H	0.204548	-0.823113	0.619011
H114	H	0.119364	-0.567544	0.146983
H115	H	0.231532	-0.947652	0.577388
N116	N	0.204507	-1.111126	0.582899
H117	H	0.214137	-1.169202	0.560306
H118	H	0.246829	-1.070483	0.559774
N119	N	0.065855	-1.150795	0.584109
H120	H	0.011894	-1.137845	0.561715
H121	H	0.080233	-1.207545	0.561590
H122	H	-0.638770	-0.872114	0.000053
