data_functionalizedCrystal
_audit_creation_method	'MofGen! by Chris Wilmer'
_symmetry_space_group_name_H-M	'P1'
_symmetry_Int_Tables_number	1
_symmetry_cell_setting	triclinic
loop_
_symmetry_equiv_pos_as_xyz
  x,y,z
_cell_length_a	18.101398
_cell_length_b	19.121111
_cell_length_c	18.101389
_cell_angle_alpha	87.578568
_cell_angle_beta	89.990255
_cell_angle_gamma	87.534504
loop_
_atom_site_label
_atom_site_type_symbol
_atom_site_fract_x
_atom_site_fract_y
_atom_site_fract_z
Zn1	Zn	1.119547	0.279772	-0.431129
Zn2	Zn	1.114165	0.397208	-0.312568
Zn3	Zn	0.995706	0.279765	-0.307322
Zn4	Zn	0.990380	0.397178	-0.436387
O5	O	1.054950	0.338481	-0.371851
O6	O	1.222465	0.295365	-0.415397
O7	O	1.098428	0.381638	-0.208239
O8	O	1.016616	0.181481	-0.319349
O9	O	1.218511	0.381645	-0.328291
O10	O	1.107601	0.181486	-0.410310
O11	O	1.011397	0.295354	-0.204385
O12	O	0.891368	0.295325	-0.324447
O13	O	1.007538	0.381595	-0.539322
O14	O	0.887455	0.381588	-0.419271
O15	O	1.102436	0.295337	-0.535459
O16	O	1.093263	0.495489	-0.333388
O17	O	1.002319	0.495467	-0.424357
C18	C	0.862540	0.338453	-0.371860
C19	C	0.780226	0.338458	-0.371883
C20	C	0.481133	0.338500	-0.371854
C21	C	0.510009	0.393036	-0.431243
C22	C	0.595635	0.392866	-0.431470
C23	C	0.629517	0.338480	-0.371868
C24	C	0.601787	0.264506	-0.389870
C25	C	0.516127	0.264834	-0.390290
C26	C	0.511836	0.357285	-0.294295
C27	C	0.597414	0.358908	-0.294787
C28	C	0.713377	0.338464	-0.371875
C29	C	0.397273	0.338511	-0.371849
C30	C	1.046649	0.520962	-0.380029
C31	C	1.043166	0.599029	-0.383552
C32	C	1.088916	0.635692	-0.337884
C33	C	1.085645	0.709044	-0.341201
C34	C	1.036619	0.745731	-0.390184
C35	C	0.990867	0.709062	-0.435858
C36	C	0.994143	0.635711	-0.432543
C37	C	1.024361	0.967202	-0.402563
C38	C	1.021087	1.040557	-0.405873
C39	C	1.115867	1.040534	-0.311217
C40	C	1.119135	0.967182	-0.307904
C41	C	1.073386	0.930520	-0.353580
C42	C	1.033272	0.820708	-0.393575
C43	C	1.076737	0.855544	-0.350192
C44	C	1.248110	0.338509	-0.371843
C45	C	1.330424	0.338521	-0.371839
C46	C	1.054993	0.338463	-0.565013
C47	C	1.055012	0.338456	-0.647326
C48	C	1.063296	1.155287	-0.363668
C49	C	1.066837	1.077221	-0.360204
C50	C	1.055061	0.338324	-0.946412
C51	C	0.995164	0.392422	-0.917509
C52	C	0.995308	0.392673	-0.831902
C53	C	1.055036	0.338389	-0.798032
C54	C	1.132158	0.358486	-0.830021
C55	C	1.131822	0.358841	-0.915682
C56	C	1.038520	0.264009	-0.911500
C57	C	1.036764	0.264438	-0.825868
C58	C	1.055027	0.338425	-0.714174
C59	C	1.055075	0.338290	-1.030270
C60	C	1.054951	0.338448	-0.179439
C61	C	1.055085	0.338258	-0.097117
H62	H	0.486921	0.448071	-0.420500
H63	H	1.116656	0.825672	-0.310313
N64	N	0.923441	0.376890	-0.804809
N65	N	0.915432	0.324320	-0.762615
H66	H	0.864672	0.313174	-0.743484
H67	H	1.128835	0.605827	-0.297993
H68	H	1.005699	0.447171	-0.941493
H69	H	1.177783	0.321149	-0.934717
H70	H	0.980026	0.249283	-0.804870
H71	H	0.496882	0.248900	-0.446889
N72	N	0.483716	0.377638	-0.503003
N73	N	0.443803	0.326673	-0.510594
H74	H	0.425232	0.315795	-0.561274
N75	N	1.162607	1.077974	-0.264564
N76	N	1.206377	1.045209	-0.220834
H77	H	1.239391	1.071649	-0.187883
H78	H	1.005958	0.447758	-0.813893
H79	H	1.177839	0.320321	-0.807948
N80	N	0.629675	0.212210	-0.337045
N81	N	0.614363	0.217071	-0.270070
H82	H	0.634059	0.180161	-0.232735
N83	N	1.150633	0.425911	-0.806142
N84	N	1.107131	0.459279	-0.765579
H85	H	1.120176	0.506899	-0.748714
N86	N	1.149909	0.426992	-0.943804
N87	N	1.162691	0.473962	-0.900151
H88	H	1.175466	0.522095	-0.920008
N89	N	0.481718	0.423784	-0.272954
N90	N	0.413376	0.433346	-0.265929
H91	H	0.392103	0.480312	-0.250862
H92	H	0.983435	0.245700	-0.932277
N93	N	1.132368	0.746490	-0.294537
N94	N	1.104511	0.787460	-0.249175
H95	H	1.137512	0.813905	-0.216215
N96	N	0.923065	0.376798	-0.942647
N97	N	0.914980	0.325612	-0.982161
H98	H	0.864059	0.314577	-0.999921
N99	N	1.087835	0.211193	-0.796631
N100	N	1.138760	0.226954	-0.754618
H101	H	1.174835	0.189351	-0.733968
H102	H	1.082186	0.223702	-0.929953
N103	N	1.169216	0.929721	-0.257862
N104	N	1.210061	0.962466	-0.217089
H105	H	1.245429	0.936009	-0.181743
H106	H	0.623981	0.248284	-0.445833
H107	H	0.981173	1.070425	-0.445774
H108	H	0.616696	0.380438	-0.489002
H109	H	0.497297	0.222745	-0.348828
N110	N	0.947408	0.598247	-0.479180
N111	N	0.950339	0.532757	-0.476214
H112	H	0.917333	0.506296	-0.509154
H113	H	0.615271	0.413341	-0.281149
N114	N	0.977626	0.929769	-0.449223
N115	N	0.933855	0.962536	-0.492952
H116	H	0.900845	0.936097	-0.525908
H117	H	0.614165	0.447722	-0.420569
H118	H	0.620469	0.322069	-0.248430
H119	H	0.493363	0.317560	-0.250086
H120	H	0.950952	0.738938	-0.475744
N121	N	0.983190	0.858197	-0.443595
N122	N	0.934194	0.899178	-0.419346
H123	H	0.898824	0.925658	-0.454672
