data_functionalizedCrystal
_audit_creation_method	'MofGen! by Chris Wilmer'
_symmetry_space_group_name_H-M	'P1'
_symmetry_Int_Tables_number	1
_symmetry_cell_setting	triclinic
loop_
_symmetry_equiv_pos_as_xyz
  x,y,z
_cell_length_a	15.298708
_cell_length_b	15.299816
_cell_length_c	14.908308
_cell_angle_alpha	103.454544
_cell_angle_beta	102.311050
_cell_angle_gamma	88.425743
loop_
_atom_site_label
_atom_site_type_symbol
_atom_site_fract_x
_atom_site_fract_y
_atom_site_fract_z
Zn1	Zn	1.385675	-0.135968	-0.294227
Zn2	Zn	1.417050	-0.273728	-0.161818
Zn3	Zn	1.244941	-0.153257	-0.170698
Zn4	Zn	1.262108	-0.311129	-0.345877
O5	O	1.327444	-0.218520	-0.243155
O6	O	1.513578	-0.131354	-0.251331
O7	O	1.400165	-0.249330	-0.034269
O8	O	1.243295	-0.027241	-0.169184
O9	O	1.536629	-0.232565	-0.154050
O10	O	1.346691	-0.014538	-0.259941
O11	O	1.273718	-0.160821	-0.040793
O12	O	1.123478	-0.197087	-0.219267
O13	O	1.272554	-0.296310	-0.467753
O14	O	1.136090	-0.313075	-0.347971
O15	O	1.363338	-0.167620	-0.429805
O16	O	1.416811	-0.402412	-0.204133
O17	O	1.302977	-0.429891	-0.339361
C18	C	1.097699	-0.261017	-0.290188
C19	C	0.999416	-0.279220	-0.310334
C20	C	0.695931	-0.088659	-0.099427
C21	C	0.788272	-0.071552	-0.080499
C22	C	0.841063	-0.123467	-0.137956
C23	C	0.801503	-0.192493	-0.214344
C24	C	0.709152	-0.209597	-0.233279
C25	C	0.854284	-0.244406	-0.271807
C26	C	0.814724	-0.313431	-0.348196
C27	C	0.722382	-0.330533	-0.367126
C28	C	0.669592	-0.278618	-0.309669
C29	C	0.946635	-0.227301	-0.252873
C30	C	0.959856	-0.348240	-0.386725
C31	C	0.867515	-0.365347	-0.405652
C32	C	1.365185	-0.448228	-0.276403
C33	C	1.381410	-0.546485	-0.290641
C34	C	1.212045	-0.850158	-0.141587
C35	C	1.196796	-0.757842	-0.128213
C36	C	1.242948	-0.704998	-0.168819
C37	C	1.304352	-0.744480	-0.222801
C38	C	1.319597	-0.836807	-0.236183
C39	C	1.350500	-0.691647	-0.263414
C40	C	1.411904	-0.731128	-0.317397
C41	C	1.427147	-0.823446	-0.330776
C42	C	1.380995	-0.876290	-0.290170
C43	C	1.335255	-0.599320	-0.250033
C44	C	1.442807	-0.585969	-0.344629
C45	C	1.458056	-0.678285	-0.358003
C46	C	1.558085	-0.175859	-0.195939
C47	C	1.656371	-0.157679	-0.175818
C48	C	1.316361	-0.234209	-0.483090
C49	C	1.311638	-0.240894	-0.585336
C50	C	1.289578	0.012088	-0.209792
C51	C	1.273443	0.110359	-0.195574
C52	C	1.397291	-0.119431	-0.737952
C53	C	1.392855	-0.125709	-0.834020
C54	C	1.298328	-0.259724	-0.873542
C55	C	1.302763	-0.253446	-0.777474
C56	C	1.352247	-0.183298	-0.709681
C57	C	1.356687	-0.177024	-0.613611
C58	C	1.262155	-0.311034	-0.653135
C59	C	1.257719	-0.317312	-0.749203
C60	C	1.338524	-0.202820	-0.004134
C61	C	1.343377	-0.195854	0.098183
H62	H	0.594400	-0.292547	-0.325073
H63	H	1.258040	-0.316834	-0.928754
F64	F	1.214222	-0.379017	-0.623042
H65	H	1.002838	-0.390511	-0.433513
H66	H	1.477142	-0.855590	-0.374737
H67	H	1.217429	-0.374423	-0.804412
H68	H	0.978834	-0.171097	-0.190680
H69	H	0.916250	-0.109534	-0.122541
F70	F	1.269907	-0.557311	-0.192582
H71	H	0.820475	-0.015353	-0.018302
F72	F	1.226462	-0.606809	-0.154887
H73	H	0.652940	-0.046392	-0.052658
H74	H	0.690175	-0.386733	-0.429332
F75	F	1.409355	-0.102370	-0.541462
F76	F	1.491928	-0.529733	-0.387849
F77	F	0.825403	-0.438811	-0.486945
F78	F	1.131440	-0.715831	-0.070773
F79	F	1.397374	-0.974508	-0.304220
F80	F	1.162922	-0.906405	-0.098393
H81	H	1.437588	-0.062318	-0.682753
H82	H	1.429532	-0.073701	-0.857032
H83	H	1.508051	-0.710444	-0.401957
