data_functionalizedCrystal
_audit_creation_method	'MofGen! by Chris Wilmer'
_symmetry_space_group_name_H-M	'P1'
_symmetry_Int_Tables_number	1
_symmetry_cell_setting	triclinic
loop_
_symmetry_equiv_pos_as_xyz
  x,y,z
_cell_length_a	19.188930
_cell_length_b	27.732048
_cell_length_c	17.666332
_cell_angle_alpha	89.988553
_cell_angle_beta	89.976766
_cell_angle_gamma	82.893716
loop_
_atom_site_label
_atom_site_type_symbol
_atom_site_fract_x
_atom_site_fract_y
_atom_site_fract_z
O1	O	0.925765	0.060348	-0.063200
O2	O	0.722402	0.068472	-0.063149
O3	O	0.830399	-0.005968	-0.063161
O4	O	0.817767	0.134787	-0.063187
O5	O	0.830380	-0.005971	0.062735
O6	O	0.722383	0.068468	0.062748
O7	O	0.925746	0.060344	0.062697
Cu8	Cu	0.824063	0.064406	0.074218
Cu9	Cu	0.824085	0.064410	-0.074670
O10	O	0.817748	0.134783	0.062710
C11	C	0.696383	0.068207	-0.000194
C12	C	0.618883	0.067417	-0.000174
C13	C	0.573681	0.111096	-0.000194
C14	C	0.500862	0.110354	-0.000202
C15	C	0.473249	0.065931	-0.000205
C16	C	0.518461	0.022246	-0.000181
C17	C	0.591278	0.022990	-0.000165
N18	N	0.365491	0.031976	-0.043078
N19	N	0.296317	0.031273	-0.043094
C20	C	0.253854	0.063689	-0.000251
N21	N	0.283177	0.096841	0.042600
N22	N	0.352357	0.097546	0.042613
C23	C	0.394291	0.065120	-0.000222
C24	C	0.129692	0.106566	-0.000279
C25	C	0.056872	0.105822	-0.000282
C26	C	0.074473	0.017714	-0.000269
C27	C	0.147292	0.018459	-0.000258
C28	C	0.174897	0.062886	-0.000267
C29	C	0.830125	-0.023977	-0.000211
C30	C	0.829326	-0.077635	-0.000204
C31	C	0.888119	-0.416270	-0.000258
C32	C	0.885157	-0.617939	-0.000268
O33	O	0.938918	-0.649030	-0.000314
N34	N	0.821118	-0.637258	-0.000251
C35	C	0.757816	-0.606157	-0.000237
O36	O	0.703280	-0.627217	-0.000231
C37	C	0.760780	-0.404489	-0.000233
C38	C	0.824822	-0.385173	-0.000242
C39	C	0.952156	-0.396953	-0.000268
C40	C	0.952896	-0.346539	-0.000261
C41	C	0.889599	-0.315441	-0.000245
C42	C	0.825562	-0.334759	-0.000235
C43	C	0.697478	-0.373389	-0.000224
C44	C	0.698225	-0.322969	-0.000225
C45	C	0.762267	-0.303653	-0.000234
C46	C	0.763005	-0.253247	-0.000212
N47	N	0.827043	-0.233928	-0.000229
C48	C	0.890340	-0.265025	-0.000245
C49	C	0.756265	-0.712036	-0.000238
C50	C	0.755524	-0.762452	-0.000238
C51	C	0.882865	-0.774231	-0.000270
C52	C	0.883605	-0.723813	-0.000265
C53	C	0.820303	-0.692716	-0.000254
C54	C	0.891889	-0.159151	-0.000231
C55	C	0.892623	-0.108732	-0.000221
C56	C	0.765283	-0.096958	-0.000193
C57	C	0.764549	-0.147373	-0.000198
C58	C	0.827857	-0.178468	-0.000220
O59	O	0.709272	-0.222127	-0.000174
O60	O	0.944868	-0.243956	-0.000268
C61	C	0.887379	-0.466684	-0.000265
C62	C	0.823342	-0.486001	-0.000255
C63	C	0.760045	-0.454904	-0.000238
C64	C	0.822601	-0.536418	-0.000254
C65	C	0.885898	-0.567515	-0.000271
C66	C	0.949936	-0.548195	-0.000288
C67	C	0.950676	-0.497781	-0.000281
C68	C	0.696007	-0.474223	-0.000222
C69	C	0.695272	-0.524638	-0.000227
C70	C	0.758569	-0.555735	-0.000244
C71	C	0.951765	0.060609	-0.000260
C72	C	1.029264	0.061399	-0.000285
C73	C	0.818023	0.152793	-0.000243
C74	C	0.818821	0.206450	-0.000254
N75	N	0.824052	0.064402	0.178937
N76	N	0.824101	0.064410	-0.179389
C77	C	0.871889	0.031456	0.218541
C78	C	0.871893	0.031454	0.297789
C79	C	0.824067	0.064406	0.337429
C80	C	0.776221	0.097354	0.297816
C81	C	0.776214	0.097352	0.218570
N82	N	0.814718	0.107196	0.461842
N83	N	0.814729	0.107196	0.537122
C84	C	0.824085	0.064412	0.576193
N85	N	0.833444	0.021627	0.537140
N86	N	0.833436	0.021628	0.461853
C87	C	0.824069	0.064411	0.423359
C88	C	0.871929	0.031462	0.701727
C89	C	0.871928	0.031459	0.780976
C90	C	0.776260	0.097363	0.781001
C91	C	0.776257	0.097361	0.701754
C92	C	0.824096	0.064411	0.662121
H93	H	0.184097	-0.017109	-0.000246
H94	H	0.737307	0.124191	0.669506
H95	H	0.737259	0.124181	0.186323
H96	H	0.934404	-0.799559	-0.000283
H97	H	0.051991	-0.018456	-0.000319
C98	C	0.962231	-0.087854	-0.000273
C99	C	1.017503	-0.125883	-0.000312
C100	C	1.081632	-0.106671	-0.000372
H101	H	0.965263	-0.068446	0.043619
H102	H	0.965211	-0.068439	-0.044193
H103	H	1.014523	-0.145290	0.043603
H104	H	1.014493	-0.145294	-0.044201
H105	H	1.084613	-0.087256	-0.044291
H106	H	1.084657	-0.087263	0.043521
H107	H	1.119142	-0.132470	-0.000405
C108	C	0.960602	-0.192930	-0.000405
C109	C	0.963927	-0.222201	-0.065189
C110	C	1.027217	-0.253320	-0.065375
H111	H	0.963023	-0.212895	0.043444
H112	H	0.998861	-0.174216	-0.000450
H113	H	0.925678	-0.240914	-0.065137
H114	H	0.961518	-0.202250	-0.109049
H115	H	1.065477	-0.234606	-0.065420
H116	H	1.029633	-0.273281	-0.021523
H117	H	1.029485	-0.273181	-0.109333
C118	C	0.724327	0.133207	0.340752
C119	C	0.735115	0.180689	0.321434
C120	C	0.687312	0.213729	0.360962
H121	H	0.731131	0.128560	0.393632
H122	H	0.677774	0.128064	0.327776
H123	H	0.781657	0.185830	0.334415
H124	H	0.728305	0.185352	0.268560
H125	H	0.640759	0.208585	0.347986
H126	H	0.694120	0.209076	0.413841
H127	H	0.694621	0.245948	0.347856
C128	C	0.627873	-0.394258	-0.000257
C129	C	0.572608	-0.356225	-0.000267
C130	C	0.508473	-0.375430	-0.000309
H131	H	0.624819	-0.413680	0.043632
H132	H	0.624905	-0.413659	-0.044180
H133	H	0.575574	-0.336832	0.043651
H134	H	0.575638	-0.336801	-0.044153
H135	H	0.505505	-0.394831	-0.044232
H136	H	0.505426	-0.394851	0.043580
H137	H	0.470968	-0.349627	-0.000323
C138	C	0.923852	-0.004375	0.175650
C139	C	0.965734	-0.033237	0.227302
C140	C	1.013602	-0.066256	0.187817
H141	H	0.952790	0.012905	0.144708
H142	H	0.898970	-0.024483	0.144776
H143	H	0.990614	-0.013132	0.258163
H144	H	0.936815	-0.050528	0.258245
H145	H	0.988720	-0.086364	0.156943
H146	H	1.042535	-0.048971	0.156876
H147	H	1.042020	-0.085846	0.222856
C148	C	1.022501	-0.325665	-0.000317
C149	C	1.077768	-0.363697	-0.000354
C150	C	1.141901	-0.344491	-0.000418
H151	H	1.025538	-0.306255	0.043573
H152	H	1.025484	-0.306251	-0.044239
H153	H	1.074786	-0.383102	0.043563
H154	H	1.074754	-0.383109	-0.044241
H155	H	1.144884	-0.325077	-0.044339
H156	H	1.144930	-0.325082	0.043473
H157	H	1.179407	-0.370292	-0.000450
H158	H	1.003703	-0.422268	-0.000284
H159	H	0.704714	-0.686720	-0.000229
H160	H	0.495974	-0.013923	-0.000195
H161	H	0.628083	-0.012580	-0.000150
C162	C	0.953209	-0.702937	-0.000322
C163	C	1.008478	-0.740967	-0.000354
C164	C	1.072609	-0.721758	-0.000420
H165	H	0.956243	-0.683525	0.043566
H166	H	0.956191	-0.683526	-0.044246
H167	H	1.005497	-0.760371	0.043565
H168	H	1.005467	-0.760382	-0.044239
H169	H	1.075591	-0.702347	-0.044344
H170	H	1.075637	-0.702347	0.043468
H171	H	1.110117	-0.747559	-0.000449
C172	C	0.923837	-0.004391	0.823880
C173	C	0.913051	-0.051873	0.804609
C174	C	0.960864	-0.084910	0.844109
H175	H	0.917042	0.000259	0.876764
H176	H	0.970387	0.000755	0.810849
H177	H	0.866512	-0.057017	0.817645
H178	H	0.919852	-0.056538	0.751731
H179	H	1.007414	-0.079764	0.831079
H180	H	0.954065	-0.080256	0.896992
H181	H	0.953557	-0.117130	0.831035
C182	C	0.685920	-0.783327	-0.000258
C183	C	0.630651	-0.745297	-0.000265
C184	C	0.566519	-0.764506	-0.000298
H185	H	0.682872	-0.802748	0.043633
H186	H	0.682951	-0.802730	-0.044179
H187	H	0.633618	-0.725903	0.043652
H188	H	0.633675	-0.725873	-0.044152
H189	H	0.563550	-0.783909	-0.044219
H190	H	0.563479	-0.783927	0.043593
H191	H	0.529011	-0.738706	-0.000310
H192	H	0.644461	-0.448908	-0.000210
H193	H	0.737317	0.124191	0.813276
C194	C	0.629516	-0.289184	-0.000367
C195	C	0.626223	-0.259894	-0.065144
C196	C	0.562937	-0.228771	-0.065304
H197	H	0.627080	-0.269232	0.043487
H198	H	0.591253	-0.307895	-0.000403
H199	H	0.664476	-0.241185	-0.065101
H200	H	0.628648	-0.279833	-0.109009
H201	H	0.524674	-0.247482	-0.065340
H202	H	0.560506	-0.208823	-0.021448
H203	H	0.560692	-0.208897	-0.109258
H204	H	0.152169	0.142741	-0.000275
H205	H	0.910880	0.004630	0.669457
H206	H	0.910848	0.004625	0.330041
C207	C	0.694946	-0.168254	-0.000225
C208	C	0.639672	-0.130227	-0.000226
C209	C	0.575544	-0.149440	-0.000272
H210	H	0.691899	-0.187680	0.043659
H211	H	0.691982	-0.187652	-0.044153
H212	H	0.642635	-0.110837	0.043696
H213	H	0.642697	-0.110798	-0.044108
H214	H	0.572580	-0.168838	-0.044199
H215	H	0.572504	-0.168866	0.043614
H216	H	0.538034	-0.123642	-0.000279
H217	H	0.713749	-0.071630	-0.000177
C218	C	0.451806	0.157793	-0.000387
C219	C	0.464234	0.184542	-0.065174
C220	C	0.419053	0.228242	-0.065377
H221	H	0.460052	0.176077	0.043461
H222	H	0.404475	0.151006	-0.000438
H223	H	0.511554	0.191331	-0.065115
H224	H	0.455983	0.166273	-0.109031
H225	H	0.371722	0.221455	-0.065428
H226	H	0.427303	0.246522	-0.021527
H227	H	0.427475	0.246394	-0.109337
C228	C	1.018638	-0.581988	-0.000465
C229	C	1.021940	-0.611255	-0.065251
C230	C	1.085217	-0.642388	-0.065450
H231	H	1.021056	-0.601954	0.043383
H232	H	1.056909	-0.563283	-0.000514
H233	H	0.983679	-0.629958	-0.065195
H234	H	1.019534	-0.591302	-0.109109
H235	H	1.123488	-0.623684	-0.065499
H236	H	1.087629	-0.662351	-0.021599
H237	H	1.087468	-0.662247	-0.109409
C238	C	1.020281	-0.476907	-0.000336
C239	C	1.075548	-0.514940	-0.000372
C240	C	1.139681	-0.495733	-0.000434
H241	H	1.023317	-0.457498	0.043555
H242	H	1.023265	-0.457494	-0.044257
H243	H	1.072566	-0.534345	0.043545
H244	H	1.072535	-0.534352	-0.044259
H245	H	1.142665	-0.476320	-0.044355
H246	H	1.142710	-0.476324	0.043457
H247	H	1.177187	-0.521535	-0.000466
H248	H	0.596152	0.147272	-0.000202
H249	H	0.020068	0.141392	-0.000294
C250	C	0.625662	-0.545513	-0.000256
C251	C	0.570393	-0.507482	-0.000262
C252	C	0.506262	-0.526691	-0.000306
H253	H	0.622612	-0.564936	0.043631
H254	H	0.622697	-0.564912	-0.044181
H255	H	0.573357	-0.488091	0.043659
H256	H	0.573421	-0.488055	-0.044145
H257	H	0.503296	-0.546091	-0.044231
H258	H	0.503218	-0.546115	0.043582
H259	H	0.468754	-0.500891	-0.000317
