data_functionalizedCrystal
_audit_creation_method	'MofGen! by Chris Wilmer'
_symmetry_space_group_name_H-M	'P1'
_symmetry_Int_Tables_number	1
_symmetry_cell_setting	triclinic
loop_
_symmetry_equiv_pos_as_xyz
  x,y,z
_cell_length_a	17.077404
_cell_length_b	29.839131
_cell_length_c	17.077396
_cell_angle_alpha	89.968087
_cell_angle_beta	89.980499
_cell_angle_gamma	90.041645
loop_
_atom_site_label
_atom_site_type_symbol
_atom_site_fract_x
_atom_site_fract_y
_atom_site_fract_z
Zn1	Zn	1.199954	-0.178851	-0.443824
Zn2	Zn	1.199818	-0.253981	-0.312550
Zn3	Zn	1.068685	-0.178866	-0.312572
Zn4	Zn	1.068611	-0.253955	-0.443774
O5	O	1.134267	-0.216413	-0.378180
O6	O	1.309782	-0.188821	-0.426422
O7	O	1.182398	-0.244035	-0.202706
O8	O	1.086186	-0.115997	-0.330013
O9	O	1.309683	-0.244020	-0.329976
O10	O	1.182628	-0.115986	-0.426443
O11	O	1.086055	-0.188848	-0.202722
O12	O	0.958829	-0.188822	-0.329964
O13	O	1.086059	-0.243974	-0.553627
O14	O	0.958774	-0.243989	-0.426358
O15	O	1.182556	-0.188796	-0.553664
O16	O	1.182325	-0.316845	-0.329927
O17	O	1.085928	-0.316825	-0.426336
C18	C	0.930319	-0.216405	-0.378158
C19	C	0.843069	-0.216412	-0.378168
C20	C	0.802071	-0.245181	-0.428279
C21	C	0.720091	-0.245182	-0.428292
C22	C	0.679110	-0.216416	-0.378188
C23	C	0.720114	-0.187644	-0.328074
C24	C	0.802093	-0.187641	-0.328066
C25	C	0.549244	-0.187653	-0.328093
C26	C	0.467259	-0.187657	-0.328100
C27	C	0.467242	-0.245194	-0.428319
C28	C	0.549221	-0.245191	-0.428311
C29	C	0.590219	-0.216420	-0.378196
C30	C	1.134125	-0.333136	-0.378141
C31	C	1.134136	-0.383070	-0.378151
C32	C	1.184552	-0.692711	-0.328053
C33	C	1.184649	-0.880384	-0.328083
O34	O	1.227402	-0.904647	-0.285459
N35	N	1.134430	-0.903855	-0.378239
C36	C	1.084186	-0.880405	-0.428394
O37	O	1.041479	-0.904675	-0.471061
C38	C	1.084094	-0.692733	-0.428367
C39	C	1.134311	-0.669264	-0.378203
C40	C	1.234766	-0.669242	-0.277893
C41	C	1.234738	-0.622327	-0.277883
C42	C	1.184497	-0.598880	-0.328033
C43	C	1.134283	-0.622349	-0.378193
C44	C	1.033855	-0.669284	-0.478526
C45	C	1.033837	-0.622363	-0.478516
C46	C	1.084055	-0.598894	-0.428352
C47	C	1.084014	-0.551987	-0.428332
N48	N	1.134233	-0.528516	-0.378177
C49	C	1.184475	-0.551962	-0.328027
C50	C	1.084237	-0.978936	-0.428404
C51	C	1.084259	-1.025854	-0.428410
C52	C	1.184723	-1.025829	-0.328100
C53	C	1.184697	-0.978911	-0.328090
C54	C	1.134457	-0.955465	-0.378248
C55	C	1.184412	-0.453437	-0.328009
C56	C	1.184378	-0.406517	-0.328001
C57	C	1.083917	-0.406545	-0.428314
C58	C	1.083948	-0.453461	-0.428319
C59	C	1.134202	-0.476905	-0.378164
O60	O	1.041290	-0.527695	-0.470941
O61	O	1.227188	-0.527685	-0.285378
C62	C	1.184580	-0.739627	-0.328063
C63	C	1.134366	-0.763095	-0.378223
C64	C	1.084125	-0.739649	-0.428373
C65	C	1.134388	-0.810013	-0.378229
C66	C	1.184630	-0.833460	-0.328079
C67	C	1.234849	-0.809989	-0.277923
C68	C	1.234822	-0.763073	-0.277913
C69	C	1.033905	-0.763120	-0.478529
C70	C	1.033937	-0.810035	-0.478534
C71	C	1.084178	-0.833482	-0.428384
C72	C	1.339011	-0.216422	-0.378202
C73	C	1.426261	-0.216425	-0.378212
C74	C	1.134314	-0.216380	-0.582924
C75	C	1.134335	-0.216366	-0.670174
C76	C	1.134431	-0.099235	-0.378236
C77	C	1.134500	-0.049300	-0.378260
C78	C	1.184582	-0.187632	-0.711185
C79	C	1.184592	-0.187617	-0.793165
C80	C	1.134357	-0.216339	-0.834134
C81	C	1.084104	-0.245074	-0.793117
C82	C	1.084091	-0.245086	-0.711138
C83	C	1.084135	-0.245047	-0.963987
C84	C	1.084149	-0.245035	-1.045972
C85	C	1.184636	-0.187578	-1.046014
C86	C	1.184624	-0.187590	-0.964035
C87	C	1.134371	-0.216326	-0.923025
C88	C	1.134265	-0.216414	-0.174232
C89	C	1.134397	-0.216301	-0.086983
H90	H	0.686714	-0.268609	-0.469097
H91	H	1.043202	-0.268440	-0.930599
O92	O	1.233434	-0.159766	-0.833095
C93	C	1.284115	-0.185335	-0.880506
H94	H	1.256388	-0.219380	-0.892762
H95	H	1.342281	-0.190276	-0.848930
C96	C	1.332412	-0.118791	-0.943342
C97	C	1.298354	-0.160603	-0.958400
H98	H	1.341199	-0.103534	-0.991389
H99	H	1.298270	-0.101564	-0.911398
H100	H	1.380880	-0.122914	-0.917027
H101	H	1.249883	-0.156479	-0.984705
H102	H	1.332489	-0.177829	-0.990350
O103	O	1.233305	-0.159661	-0.924159
C104	C	1.188630	-0.130644	-0.876772
H105	H	1.129125	-0.146496	-0.864469
H106	H	1.180043	-0.097351	-0.908393
C107	C	1.304897	-0.103039	-0.814024
C108	C	1.231814	-0.122510	-0.798907
H109	H	1.331535	-0.098020	-0.765994
H110	H	1.334996	-0.122587	-0.845951
H111	H	1.297731	-0.075297	-0.840376
H112	H	1.238982	-0.150254	-0.772564
H113	H	1.201717	-0.102967	-0.766974
O114	O	1.035499	-1.048718	-0.477062
C115	C	1.046299	-1.095158	-0.466337
H116	H	1.072042	-1.101578	-0.405782
H117	H	1.088082	-1.108430	-0.512938
C118	C	0.935264	-1.111401	-0.547844
C119	C	0.966875	-1.119286	-0.473467
H120	H	0.886272	-1.126285	-0.552246
H121	H	0.927988	-1.080113	-0.555072
H122	H	0.970090	-1.122461	-0.586670
H123	H	0.932053	-1.108221	-0.434643
H124	H	0.974142	-1.150572	-0.466232
O125	O	0.985069	-0.832850	-0.527156
C126	C	0.934417	-0.860049	-0.482439
H127	H	0.929587	-0.845942	-0.420605
H128	H	0.958708	-0.895594	-0.479771
C129	C	0.858730	-0.878127	-0.596672
C130	C	0.852792	-0.860799	-0.520728
H131	H	0.808381	-0.878592	-0.620292
H132	H	0.892856	-0.859805	-0.626800
H133	H	0.878975	-0.907747	-0.594438
H134	H	0.832556	-0.831178	-0.522964
H135	H	0.818660	-0.879117	-0.490601
O136	O	0.427299	-0.273099	-0.476980
C137	C	0.346155	-0.266941	-0.466235
H138	H	0.334987	-0.232251	-0.440642
H139	H	0.322839	-0.293557	-0.424350
C140	C	0.317817	-0.313724	-0.577086
C141	C	0.304100	-0.271117	-0.545658
H142	H	0.291874	-0.316302	-0.626077
H143	H	0.372485	-0.317875	-0.584324
H144	H	0.298387	-0.335900	-0.542174
H145	H	0.323539	-0.248942	-0.580566
H146	H	0.249434	-0.266963	-0.538429
H147	H	0.433895	-0.164227	-0.287311
H148	H	0.582622	-0.164220	-0.287291
O149	O	0.985051	-0.692004	-0.527334
C150	C	0.940699	-0.661240	-0.571578
H151	H	0.972839	-0.627777	-0.574306
H152	H	0.881093	-0.656294	-0.542783
C153	C	0.889877	-0.720616	-0.651773
C154	C	0.929356	-0.679518	-0.655128
H155	H	0.882876	-0.731891	-0.703310
H156	H	0.919755	-0.741343	-0.621963
H157	H	0.840210	-0.716489	-0.627773
H158	H	0.979025	-0.683646	-0.679119
H159	H	0.899486	-0.658791	-0.684945
H160	H	1.043242	-0.268422	-1.079326
O161	O	1.233462	-0.159795	-0.671355
C162	C	1.284108	-0.185378	-0.623914
H163	H	1.288917	-0.220758	-0.648601
H164	H	1.259824	-0.186934	-0.561779
C165	C	1.359832	-0.119976	-0.592359
C166	C	1.365744	-0.163429	-0.622683
H167	H	1.410188	-0.106436	-0.591596
H168	H	1.325710	-0.102739	-0.624318
H169	H	1.339592	-0.121279	-0.540583
H170	H	1.385974	-0.162125	-0.674462
H171	H	1.399872	-0.180665	-0.590733
O172	O	0.841911	-0.273173	-0.476839
C173	C	0.889293	-0.302149	-0.432055
H174	H	0.864560	-0.304881	-0.370224
H175	H	0.951439	-0.288255	-0.429390
C176	C	0.920891	-0.345522	-0.546201
C177	C	0.890509	-0.348881	-0.470261
H178	H	0.921645	-0.374349	-0.569769
H179	H	0.888971	-0.326000	-0.576374
H180	H	0.972676	-0.333942	-0.543970
H181	H	0.838722	-0.360456	-0.472494
H182	H	0.922420	-0.368407	-0.440089
O183	O	1.233368	-0.159672	-1.085969
C184	C	1.222617	-0.165822	-1.167111
H185	H	1.162022	-0.180534	-1.178287
H186	H	1.269151	-0.189740	-1.190380
C187	C	1.304293	-0.102287	-1.195488
C188	C	1.229865	-0.120353	-1.209216
H189	H	1.308767	-0.074241	-1.221462
H190	H	1.311539	-0.098144	-1.140822
H191	H	1.343063	-0.122223	-1.214880
H192	H	1.191098	-0.100421	-1.189816
H193	H	1.222613	-0.124492	-1.263880
O194	O	0.588910	-0.273149	-0.477052
C195	C	0.535147	-0.298552	-0.521274
H196	H	0.476730	-0.280157	-0.524061
H197	H	0.526378	-0.332651	-0.492419
C198	C	0.638925	-0.327680	-0.601369
C199	C	0.567178	-0.305085	-0.604798
H200	H	0.658684	-0.331712	-0.652889
H201	H	0.675147	-0.310567	-0.571575
H202	H	0.631607	-0.356093	-0.577320
H203	H	0.574498	-0.276670	-0.628837
H204	H	0.530958	-0.322193	-0.634598
O205	O	1.035344	-0.273036	-0.832826
C206	C	1.052445	-0.317816	-0.812787
H207	H	1.082608	-0.318757	-0.753269
H208	H	1.092790	-0.332943	-0.858924
C209	C	0.938834	-0.343870	-0.882075
C210	C	0.975875	-0.345026	-0.808971
H211	H	0.891603	-0.360656	-0.879724
H212	H	0.927314	-0.313702	-0.895578
H213	H	0.972463	-0.356475	-0.920515
H214	H	0.942250	-0.332417	-0.770534
H215	H	0.987388	-0.375194	-0.795461
O216	O	1.233201	-0.383671	-0.279379
C217	C	1.283874	-0.356492	-0.324109
H218	H	1.256151	-0.349454	-0.383569
H219	H	1.342050	-0.374536	-0.332793
C220	C	1.332140	-0.320578	-0.207889
C221	C	1.298086	-0.311931	-0.280916
H222	H	1.340910	-0.293092	-0.181245
H223	H	1.298003	-0.338890	-0.177752
H224	H	1.380616	-0.335616	-0.215136
H225	H	1.249607	-0.296899	-0.273668
H226	H	1.332216	-0.293615	-0.311051
H227	H	1.043166	-0.268480	-0.677748
H228	H	0.686741	-0.164221	-0.287283
H229	H	0.835472	-0.164213	-0.287265
H230	H	1.225336	-0.472520	-0.287169
H231	H	1.275683	-0.688328	-0.237055
O232	O	1.283602	-0.599602	-0.229136
C233	C	1.327935	-0.630366	-0.184870
H234	H	1.330637	-0.663796	-0.217034
H235	H	1.299233	-0.635394	-0.125223
C236	C	1.408166	-0.570960	-0.134133
C237	C	1.411489	-0.612018	-0.173642
H238	H	1.459705	-0.559642	-0.127204
H239	H	1.378296	-0.550233	-0.163954
H240	H	1.384244	-0.575156	-0.084432
H241	H	1.435402	-0.607821	-0.223345
H242	H	1.441365	-0.632744	-0.143830
O243	O	1.035273	-0.476312	-0.477080
C244	C	1.079954	-0.503392	-0.527842
H245	H	1.139463	-0.510394	-0.500214
H246	H	1.088533	-0.485280	-0.586017
C247	C	0.963698	-0.539381	-0.575962
C248	C	1.036786	-0.547984	-0.542026
H249	H	0.937069	-0.566887	-0.584715
H250	H	0.933595	-0.521136	-0.541765
H251	H	0.970857	-0.524287	-0.624437
H252	H	1.029626	-0.563073	-0.493548
H253	H	1.066887	-0.566234	-0.576216
H254	H	1.225588	-0.959805	-0.287243
H255	H	1.043008	-0.387448	-0.469143
H256	H	1.225632	-1.044928	-0.287266
O257	O	1.283681	-0.740349	-0.229161
C258	C	1.328011	-0.771112	-0.184893
H259	H	1.330719	-0.804541	-0.217060
H260	H	1.299302	-0.776143	-0.125250
C261	C	1.408231	-0.711705	-0.134142
C262	C	1.411562	-0.752763	-0.173654
H263	H	1.459768	-0.700386	-0.127206
H264	H	1.378363	-0.690979	-0.163964
H265	H	1.384304	-0.715903	-0.084444
H266	H	1.435480	-0.748563	-0.223354
H267	H	1.441436	-0.773488	-0.143840
O268	O	1.283757	-0.832784	-0.229330
C269	C	1.334424	-0.859876	-0.274098
H270	H	1.339199	-0.845705	-0.335924
H271	H	1.310183	-0.895450	-0.276784
C272	C	1.410201	-0.877959	-0.159922
C273	C	1.416071	-0.860553	-0.235855
H274	H	1.460563	-0.878380	-0.136331
H275	H	1.376064	-0.859709	-0.129760
H276	H	1.389997	-0.907603	-0.162171
H277	H	1.436265	-0.830908	-0.233605
H278	H	1.450213	-0.878799	-0.266016
H279	H	0.992926	-0.603275	-0.519363
H280	H	1.043323	-0.959849	-0.469250
H281	H	0.992994	-0.744033	-0.519368
