data_functionalizedCrystal
_audit_creation_method	'MofGen! by Chris Wilmer'
_symmetry_space_group_name_H-M	'P1'
_symmetry_Int_Tables_number	1
_symmetry_cell_setting	triclinic
loop_
_symmetry_equiv_pos_as_xyz
  x,y,z
_cell_length_a	15.995343
_cell_length_b	15.995350
_cell_length_c	14.048226
_cell_angle_alpha	89.995798
_cell_angle_beta	89.997860
_cell_angle_gamma	83.490779
loop_
_atom_site_label
_atom_site_type_symbol
_atom_site_fract_x
_atom_site_fract_y
_atom_site_fract_z
O1	O	1.110992	0.107897	-0.079060
O2	O	1.610992	0.607897	0.420940
O3	O	0.867216	0.121232	-0.079083
O4	O	1.367216	0.621232	0.420917
O5	O	0.995767	-0.007323	-0.079070
O6	O	1.495767	0.492677	0.420930
O7	O	0.982440	0.236452	-0.079073
O8	O	1.482440	0.736452	0.420927
O9	O	0.995752	-0.007331	0.079251
O10	O	1.495752	0.492669	0.579251
O11	O	0.867200	0.121224	0.079239
O12	O	1.367200	0.621224	0.579239
O13	O	1.110976	0.107890	0.079261
O14	O	1.610976	0.607890	0.579261
Zn15	Zn	0.989086	0.114556	0.104387
Zn16	Zn	1.489086	0.614556	0.604387
Zn17	Zn	0.989106	0.114566	-0.104208
Zn18	Zn	1.489106	0.614566	0.395792
O19	O	0.982424	0.236445	0.079248
O20	O	1.482424	0.736445	0.579248
C21	C	0.836013	0.120678	0.000075
C22	C	1.336013	0.620678	0.500075
C23	C	0.743062	0.119028	0.000067
C24	C	1.243062	0.619028	0.500067
C25	C	0.995209	-0.038522	0.000089
C26	C	1.495209	0.461478	0.500089
C27	C	0.993557	-0.131472	0.000083
C28	C	1.493557	0.368528	0.500083
C29	C	0.987625	-0.469220	0.000086
C30	C	1.487625	0.030780	0.500086
C31	C	0.896072	-0.421783	-0.000277
C32	C	1.396072	0.078217	0.499723
C33	C	0.897725	-0.325093	0.000080
C34	C	1.397725	0.174907	0.500080
C35	C	0.990567	-0.301659	0.000084
C36	C	1.490567	0.198341	0.500084
C37	C	1.035715	-0.342742	0.090496
C38	C	1.535715	0.157258	0.590496
C39	C	1.033415	-0.439378	0.090571
C40	C	1.533415	0.060622	0.590571
C41	C	1.035324	-0.439727	-0.089470
C42	C	1.535324	0.060273	0.410530
C43	C	1.035303	-0.342782	-0.090664
C44	C	1.535303	0.157218	0.409336
C45	C	0.992235	-0.206962	0.000086
C46	C	1.492235	0.293038	0.500086
C47	C	0.985960	-0.563917	0.000090
C48	C	1.485960	-0.063917	0.500090
C49	C	0.572876	0.116035	0.000079
C50	C	1.072876	0.616035	0.500079
C51	C	0.549530	0.023238	0.000080
C52	C	1.049530	0.523238	0.500080
C53	C	0.452852	0.021492	0.000445
C54	C	0.952852	0.521492	0.500445
C55	C	0.405316	0.113086	0.000091
C56	C	0.905316	0.613086	0.500091
C57	C	0.434399	0.159742	0.090320
C58	C	0.934399	0.659742	0.590320
C59	C	0.531191	0.160842	0.090390
C60	C	1.031191	0.660842	0.590390
C61	C	0.531119	0.162210	-0.089657
C62	C	1.031119	0.662210	0.410343
C63	C	0.434624	0.158784	-0.090838
C64	C	0.934624	0.658784	0.409162
C65	C	0.310618	0.111425	0.000100
C66	C	0.810618	0.611425	0.500100
C67	C	0.667574	0.117699	0.000076
C68	C	1.167574	0.617699	0.500076
C69	C	1.142179	0.108444	0.000101
C70	C	1.642179	0.608444	0.500101
C71	C	1.235130	0.110093	0.000104
C72	C	1.735130	0.610093	0.500104
C73	C	0.982983	0.267643	0.000087
C74	C	1.482983	0.767643	0.500087
C75	C	0.984635	0.360594	0.000087
C76	C	1.484635	0.860594	0.500087
N77	N	0.989078	0.114548	0.246747
N78	N	1.489078	0.614548	0.746747
N79	N	0.989121	0.114566	-0.246569
N80	N	1.489121	0.614566	0.253431
C81	C	1.046019	0.057648	0.296571
C82	C	1.546019	0.557648	0.796571
C83	C	1.046024	0.057647	0.396229
C84	C	1.546024	0.557647	0.896229
C85	C	0.989093	0.114552	0.446061
C86	C	1.489093	0.614552	0.946061
C87	C	0.932146	0.171455	0.396230
C88	C	1.432146	0.671455	0.896230
C89	C	0.932137	0.171451	0.296575
C90	C	1.432137	0.671451	0.796575
C91	C	0.932170	0.171461	0.603945
C92	C	1.432170	0.671461	1.103945
C93	C	0.932180	0.171467	0.703607
C94	C	1.432180	0.671467	1.203607
C95	C	1.046057	0.057657	0.703599
C96	C	1.546057	0.557657	1.203599
C97	C	1.046048	0.057653	0.603943
C98	C	1.546048	0.557653	1.103943
C99	C	0.989103	0.114558	0.554119
C100	C	1.489103	0.614558	1.054119
H101	H	0.862235	-0.296667	-0.064731
H102	H	1.362235	0.203333	0.435269
H103	H	0.433839	-0.015030	-0.064221
H104	H	0.933839	0.484970	0.435779
H105	H	1.092389	0.011314	0.436795
H106	H	1.592389	0.511314	0.936795
Cl107	Cl	1.117625	-0.013879	0.541295
Cl108	Cl	1.617625	0.486121	1.041295
Cl109	Cl	1.117598	-0.013891	0.233935
Cl110	Cl	1.617598	0.486109	0.733935
H111	H	1.100631	-0.471628	0.094677
H112	H	1.600631	0.028372	0.594677
Cl113	Cl	1.117646	-0.013877	0.766238
Cl114	Cl	1.617646	0.486123	1.266238
H115	H	0.885796	0.217797	0.563381
H116	H	1.385796	0.717797	1.063381
Cl117	Cl	0.860603	0.243006	0.766246
Cl118	Cl	1.360603	0.743006	1.266246
H119	H	0.885787	0.217786	0.436809
H120	H	1.385787	0.717786	0.936809
H121	H	0.416073	0.124808	-0.157590
H122	H	0.916073	0.624808	0.342410
H123	H	0.885769	0.217784	0.256009
H124	H	1.385769	0.717784	0.756009
Cl125	Cl	0.383752	0.261975	-0.099679
Cl126	Cl	0.883752	0.761975	0.400321
Cl127	Cl	0.553696	0.265904	0.096336
Cl128	Cl	1.053696	0.765904	0.596336
H129	H	0.414300	0.127724	0.157724
H130	H	0.914300	0.627724	0.657724
Cl131	Cl	0.839581	-0.450386	-0.100381
Cl132	Cl	1.339581	0.049614	0.399619
Cl133	Cl	0.842540	-0.282068	0.100302
Cl134	Cl	1.342540	0.217932	0.600302
Cl135	Cl	0.574773	0.117011	-0.195281
Cl136	Cl	1.074773	0.617011	0.304719
H137	H	0.545133	0.230514	-0.090528
H138	H	1.045133	0.730514	0.409472
Cl139	Cl	1.141025	-0.320939	0.095698
Cl140	Cl	1.641025	0.179061	0.595698
H141	H	0.859636	-0.441379	0.064191
H142	H	1.359636	0.058621	0.564191
H143	H	1.000480	-0.457682	0.158152
H144	H	1.500480	0.042318	0.658152
H145	H	1.004345	-0.314363	0.157774
H146	H	1.504345	0.185637	0.657774
Cl147	Cl	0.989112	-0.471419	-0.195270
Cl148	Cl	1.489112	0.028581	0.304730
H149	H	1.103008	-0.327422	-0.096120
H150	H	1.603008	0.172578	0.403880
Cl151	Cl	0.984758	-0.300216	-0.193946
Cl152	Cl	1.484758	0.199784	0.306054
Cl153	Cl	1.139539	-0.488768	-0.090406
Cl154	Cl	1.639539	0.011232	0.409594
Cl155	Cl	0.572540	0.111530	0.194920
Cl156	Cl	1.072540	0.611530	0.694920
H157	H	0.402552	0.227152	0.093421
H158	H	0.902552	0.727152	0.593421
H159	H	0.577544	-0.012728	-0.064614
H160	H	1.077544	0.487272	0.435386
H161	H	0.578508	-0.012148	0.064689
H162	H	1.078508	0.487852	0.564689
H163	H	0.434409	-0.014865	0.065504
H164	H	0.934409	0.485135	0.565504
