data_functionalizedCrystal
_audit_creation_method	'MofGen! by Chris Wilmer'
_symmetry_space_group_name_H-M	'P1'
_symmetry_Int_Tables_number	1
_symmetry_cell_setting	triclinic
loop_
_symmetry_equiv_pos_as_xyz
  x,y,z
_cell_length_a	16.109302
_cell_length_b	17.699092
_cell_length_c	15.186229
_cell_angle_alpha	89.997943
_cell_angle_beta	89.994701
_cell_angle_gamma	83.374074
loop_
_atom_site_label
_atom_site_type_symbol
_atom_site_fract_x
_atom_site_fract_y
_atom_site_fract_z
O1	O	1.102966	0.097287	-0.073265
O2	O	1.436299	0.430620	0.260069
O3	O	1.769632	0.763953	0.593402
O4	O	0.860883	0.109393	-0.073257
O5	O	1.194217	0.442726	0.260076
O6	O	1.527550	0.776060	0.593409
O7	O	0.988761	-0.006839	-0.073259
O8	O	1.322094	0.326494	0.260074
O9	O	1.655427	0.659828	0.593407
O10	O	0.975089	0.213519	-0.073263
O11	O	1.308422	0.546852	0.260070
O12	O	1.641755	0.880186	0.593404
O13	O	0.988752	-0.006841	0.073198
O14	O	1.322085	0.326493	0.406531
O15	O	1.655419	0.659826	0.739865
O16	O	0.860875	0.109391	0.073200
O17	O	1.194208	0.442725	0.406533
O18	O	1.527542	0.776058	0.739867
O19	O	1.102957	0.097285	0.073193
O20	O	1.436291	0.430618	0.406526
O21	O	1.769624	0.763952	0.739859
Zn22	Zn	0.981915	0.103338	0.096449
Zn23	Zn	1.315248	0.436671	0.429783
Zn24	Zn	1.648581	0.770005	0.763116
Zn25	Zn	0.981926	0.103340	-0.096514
Zn26	Zn	1.315259	0.436674	0.236819
Zn27	Zn	1.648593	0.770007	0.570152
O28	O	0.975080	0.213517	0.073194
O29	O	1.308414	0.546851	0.406528
O30	O	1.641747	0.880184	0.739861
C31	C	0.829905	0.108902	-0.000028
C32	C	1.163239	0.442235	0.333305
C33	C	1.496572	0.775568	0.666639
C34	C	0.737612	0.107431	-0.000025
C35	C	1.070946	0.440765	0.333308
C36	C	1.404279	0.774098	0.666641
C37	C	0.525273	0.104030	0.079800
C38	C	0.858606	0.437363	0.413133
C39	C	1.191939	0.770697	0.746467
C40	C	0.438555	0.102640	0.079797
C41	C	0.771888	0.435974	0.413130
C42	C	1.105222	0.769307	0.746464
C43	C	0.438575	0.102646	-0.079879
C44	C	0.771908	0.435979	0.253455
C45	C	1.105241	0.769313	0.586788
C46	C	0.525292	0.104030	-0.079875
C47	C	0.858625	0.437364	0.253458
C48	C	1.191958	0.770697	0.586792
C49	C	0.568638	0.104726	-0.000033
C50	C	0.901971	0.438060	0.333301
C51	C	1.235304	0.771393	0.666634
C52	C	0.395203	0.101952	-0.000040
C53	C	0.728536	0.435285	0.333294
C54	C	1.061870	0.768619	0.666627
C55	C	0.301180	0.100445	-0.000044
C56	C	0.634513	0.433778	0.333290
C57	C	0.967847	0.767112	0.666623
C58	C	0.662667	0.106232	-0.000029
C59	C	0.996000	0.439565	0.333305
C60	C	1.329334	0.772898	0.666638
C61	C	0.988265	-0.035037	-0.000032
C62	C	1.321599	0.298296	0.333301
C63	C	1.654932	0.631629	0.666635
C64	C	0.986792	-0.119057	-0.000036
C65	C	1.320125	0.214276	0.333297
C66	C	1.653459	0.547609	0.666631
C67	C	0.986107	-0.158525	-0.079871
C68	C	1.319440	0.174808	0.253462
C69	C	1.652773	0.508142	0.586796
C70	C	0.984717	-0.237470	-0.079872
C71	C	1.318050	0.095864	0.253461
C72	C	1.651384	0.429197	0.586795
C73	C	0.984019	-0.276946	-0.000037
C74	C	1.317352	0.056387	0.333296
C75	C	1.650686	0.389720	0.666630
C76	C	0.984702	-0.237473	0.079804
C77	C	1.318035	0.095860	0.413137
C78	C	1.651369	0.429194	0.746471
C79	C	0.986086	-0.158529	0.079804
C80	C	1.319419	0.174804	0.413137
C81	C	1.652752	0.508138	0.746471
C82	C	0.979121	-0.555846	0.079805
C83	C	1.312455	-0.222513	0.413139
C84	C	1.645788	0.110821	0.746472
C85	C	0.977740	-0.634796	0.079799
C86	C	1.311074	-0.301463	0.413132
C87	C	1.644407	0.031870	0.746466
C88	C	0.977753	-0.634787	-0.079870
C89	C	1.311086	-0.301454	0.253463
C90	C	1.644419	0.031880	0.586796
C91	C	0.979136	-0.555843	-0.079870
C92	C	1.312470	-0.222509	0.253463
C93	C	1.645803	0.110824	0.586796
C94	C	0.979815	-0.516376	-0.000030
C95	C	1.313148	-0.183042	0.333303
C96	C	1.646482	0.150291	0.666637
C97	C	0.981320	-0.430775	-0.000030
C98	C	1.314653	-0.097441	0.333303
C99	C	1.647987	0.235892	0.666637
C100	C	0.982520	-0.362547	-0.000036
C101	C	1.315853	-0.029214	0.333297
C102	C	1.649187	0.304120	0.666630
C103	C	1.133936	0.097776	-0.000039
C104	C	1.467269	0.431110	0.333294
C105	C	1.800602	0.764443	0.666628
C106	C	1.226228	0.099247	-0.000047
C107	C	1.559562	0.432580	0.333286
C108	C	1.892895	0.765914	0.666619
C109	C	0.975576	0.241716	-0.000035
C110	C	1.308909	0.575049	0.333298
C111	C	1.642242	0.908382	0.666632
C112	C	0.977049	0.325736	-0.000037
C113	C	1.310382	0.659069	0.333297
C114	C	1.643715	0.992402	0.666630
N115	N	0.981913	0.103336	0.228142
N116	N	1.315247	0.436669	0.561475
N117	N	1.648580	0.770003	0.894809
N118	N	0.981934	0.103336	-0.228207
N119	N	1.315268	0.436669	0.105126
N120	N	1.648601	0.770003	0.438460
C121	C	1.038556	0.051886	0.453864
C122	C	1.371890	0.385219	0.787197
C123	C	1.705223	0.718552	1.120531
C124	C	1.038559	0.051884	0.546054
C125	C	1.371892	0.385217	0.879387
C126	C	1.705226	0.718551	1.212720
C127	C	0.925285	0.154789	0.546065
C128	C	1.258618	0.488122	0.879398
C129	C	1.591952	0.821456	1.212731
C130	C	0.925279	0.154786	0.453877
C131	C	1.258612	0.488120	0.787210
C132	C	1.591946	0.821453	1.120543
C133	C	0.981919	0.103336	0.407779
C134	C	1.315253	0.436669	0.741112
C135	C	1.648586	0.770002	1.074445
C136	C	0.981928	0.103336	0.592156
C137	C	1.315261	0.436670	0.925490
C138	C	1.648595	0.770003	1.258823
C139	C	0.981930	0.103335	0.692112
C140	C	1.315264	0.436668	1.025446
C141	C	1.648597	0.770002	1.358779
C142	C	0.981916	0.103336	0.307816
C143	C	1.315250	0.436670	0.641150
C144	C	1.648583	0.770003	0.974483
H145	H	0.403251	0.102074	0.144805
H146	H	0.736584	0.435407	0.478138
H147	H	1.069917	0.768740	0.811472
H148	H	0.560601	0.104595	-0.144888
H149	H	0.893934	0.437929	0.188445
H150	H	1.227267	0.771262	0.521778
H151	H	1.084675	0.009991	0.416333
H152	H	1.418009	0.343324	0.749667
H153	H	1.751342	0.676657	1.083000
H154	H	0.986679	-0.126389	-0.144882
H155	H	1.320013	0.206944	0.188452
H156	H	1.653346	0.540278	0.521785
H157	H	0.403271	0.102080	-0.144883
H158	H	0.736605	0.435414	0.188450
H159	H	1.069938	0.768747	0.521783
H160	H	0.984129	-0.269621	0.144807
H161	H	1.317462	0.063713	0.478140
H162	H	1.650795	0.397046	0.811473
H163	H	0.986632	-0.126394	0.144814
H164	H	1.319965	0.206939	0.478147
H165	H	1.653299	0.540273	0.811480
H166	H	0.984162	-0.269601	-0.144881
H167	H	1.317496	0.063732	0.188452
H168	H	1.650829	0.397066	0.521785
H169	H	0.979709	-0.523705	-0.144880
H170	H	1.313042	-0.190372	0.188453
H171	H	1.646375	0.142961	0.521787
H172	H	0.977196	-0.666930	-0.144880
H173	H	1.310529	-0.333597	0.188453
H174	H	1.643863	-0.000263	0.521786
H175	H	0.979691	-0.523724	0.144816
H176	H	1.313024	-0.190390	0.478150
H177	H	1.646357	0.142943	0.811483
H178	H	0.879171	0.196680	0.583607
H179	H	1.212504	0.530013	0.916940
H180	H	1.545837	0.863347	1.250273
H181	H	0.977170	-0.666936	0.144814
H182	H	1.310503	-0.333602	0.478147
H183	H	1.643836	-0.000269	0.811481
H184	H	0.879154	0.196683	0.416351
H185	H	1.212488	0.530017	0.749685
H186	H	1.545821	0.863350	1.083018
H187	H	0.560562	0.104597	0.144813
H188	H	0.893896	0.437930	0.478146
H189	H	1.227229	0.771263	0.811479
H190	H	1.084677	0.009988	0.583574
H191	H	1.418010	0.343321	0.916907
H192	H	1.751343	0.676655	1.250241
