data_functionalizedCrystal
_audit_creation_method	'MofGen! by Chris Wilmer'
_symmetry_space_group_name_H-M	'P1'
_symmetry_Int_Tables_number	1
_symmetry_cell_setting	triclinic
loop_
_symmetry_equiv_pos_as_xyz
  x,y,z
_cell_length_a	17.699083
_cell_length_b	17.699083
_cell_length_c	8.140239
_cell_angle_alpha	89.995596
_cell_angle_beta	90.003310
_cell_angle_gamma	83.283015
loop_
_atom_site_label
_atom_site_type_symbol
_atom_site_fract_x
_atom_site_fract_y
_atom_site_fract_z
O1	O	1.004074	0.095710	-0.136386
O2	O	1.504074	0.595710	0.363614
O3	O	0.783696	0.108163	-0.136441
O4	O	1.283696	0.608163	0.363559
O5	O	0.900111	-0.008253	-0.136397
O6	O	1.400111	0.491747	0.363603
O7	O	0.887659	0.212125	-0.136430
O8	O	1.387659	0.712125	0.363570
O9	O	0.900105	-0.008254	0.136830
O10	O	1.400105	0.491746	0.636830
O11	O	0.783689	0.108161	0.136786
O12	O	1.283689	0.608161	0.636786
O13	O	1.004068	0.095709	0.136841
O14	O	1.504068	0.595709	0.636841
Zn15	Zn	0.893877	0.101935	0.180194
Zn16	Zn	1.393877	0.601935	0.680194
Zn17	Zn	0.893886	0.101936	-0.179794
Zn18	Zn	1.393886	0.601936	0.320206
O19	O	0.887652	0.212124	0.136798
O20	O	1.387652	0.712124	0.636798
C21	C	0.755495	0.107716	0.000166
C22	C	1.255495	0.607716	0.500166
C23	C	0.671477	0.106377	0.000146
C24	C	1.171477	0.606377	0.500146
C25	C	0.622856	0.174710	0.000136
C26	C	1.122856	0.674710	0.500136
C27	C	0.543913	0.173448	0.000158
C28	C	1.043913	0.673448	0.500158
C29	C	0.513592	0.103852	0.000177
C30	C	1.013592	0.603852	0.500177
C31	C	0.562219	0.035513	0.000191
C32	C	1.062219	0.535513	0.500191
C33	C	0.641161	0.036776	0.000182
C34	C	1.141161	0.536776	0.500182
C35	C	0.243856	0.030418	0.000233
C36	C	0.743856	0.530418	0.500233
C37	C	0.164908	0.029160	0.000237
C38	C	0.664908	0.529160	0.500237
C39	C	0.146608	0.167090	0.000209
C40	C	0.646608	0.667090	0.500209
C41	C	0.225550	0.168353	0.000199
C42	C	0.725550	0.668353	0.500199
C43	C	0.274170	0.100015	0.000222
C44	C	0.774170	0.600015	0.500222
C45	C	0.359769	0.101384	0.000202
C46	C	0.859769	0.601384	0.500202
C47	C	0.427995	0.102481	0.000185
C48	C	0.927995	0.602481	0.500185
C49	C	0.899662	-0.036451	0.000216
C50	C	1.399662	0.463549	0.500216
C51	C	0.898323	-0.120469	0.000216
C52	C	1.398323	0.379531	0.500216
C53	C	0.966656	-0.169090	0.000236
C54	C	1.466656	0.330910	0.500236
C55	C	0.965394	-0.248033	0.000221
C56	C	1.465394	0.251967	0.500221
C57	C	0.895798	-0.278354	0.000199
C58	C	1.395798	0.221646	0.500199
C59	C	0.827459	-0.229727	0.000174
C60	C	1.327459	0.270273	0.500174
C61	C	0.828722	-0.150785	0.000178
C62	C	1.328722	0.349215	0.500178
C63	C	0.822364	-0.548090	0.000160
C64	C	1.322364	-0.048090	0.500160
C65	C	0.821106	-0.627038	0.000162
C66	C	1.321106	-0.127038	0.500162
C67	C	0.959036	-0.645338	0.000203
C68	C	1.459036	-0.145338	0.500203
C69	C	0.960299	-0.566396	0.000206
C70	C	1.460299	-0.066396	0.500206
C71	C	0.891961	-0.517776	0.000173
C72	C	1.391961	-0.017776	0.500173
C73	C	0.893330	-0.432177	0.000186
C74	C	1.393330	0.067823	0.500186
C75	C	0.894427	-0.363951	0.000197
C76	C	1.394427	0.136049	0.500197
C77	C	1.032268	0.096156	0.000230
C78	C	1.532268	0.596156	0.500230
C79	C	1.116286	0.097494	0.000240
C80	C	1.616286	0.597494	0.500240
C81	C	0.888102	0.240322	0.000180
C82	C	1.388102	0.740322	0.500180
C83	C	0.889440	0.324340	0.000169
C84	C	1.389440	0.824340	0.500169
N85	N	0.893877	0.101933	0.425877
N86	N	1.393877	0.601933	0.925877
N87	N	0.893892	0.101932	-0.425477
N88	N	1.393892	0.601932	0.074523
H89	H	0.140225	-0.027517	0.000255
H90	H	0.640225	0.472483	0.500255
Cl91	Cl	0.263663	0.255849	0.000166
Cl92	Cl	0.763663	0.755849	0.500166
Cl93	Cl	1.047795	-0.528283	0.000229
Cl94	Cl	1.547795	-0.028283	0.500229
Cl95	Cl	0.085481	0.253002	0.000188
Cl96	Cl	0.585481	0.753002	0.500188
Cl97	Cl	0.733606	-0.665153	0.000130
Cl98	Cl	1.233606	-0.165153	0.500130
Cl99	Cl	0.702285	-0.049132	0.000201
Cl100	Cl	1.202285	0.450868	0.500201
Cl101	Cl	1.054154	-0.130980	0.000280
Cl102	Cl	1.554154	0.369020	0.500280
Cl103	Cl	1.051303	-0.309154	0.000250
Cl104	Cl	1.551303	0.190846	0.500250
Cl105	Cl	0.524102	-0.051980	0.000226
Cl106	Cl	1.024102	0.448020	0.500226
H107	H	0.773078	-0.111198	0.000162
H108	H	1.273078	0.388802	0.500162
Cl109	Cl	0.736452	-0.486977	0.000115
Cl110	Cl	1.236452	0.013023	0.500115
H111	H	0.283434	-0.025228	0.000253
H112	H	0.783434	0.474772	0.500253
Cl113	Cl	0.739966	-0.267844	0.000126
Cl114	Cl	1.239966	0.232156	0.500126
H115	H	0.647537	0.231384	0.000120
H116	H	1.147537	0.731384	0.500120
H117	H	1.014680	-0.684934	0.000221
H118	H	1.514680	-0.184934	0.500221
H119	H	0.504328	0.229092	0.000148
H120	H	1.004328	0.729092	0.500148
