data_functionalizedCrystal
_audit_creation_method	'MofGen! by Chris Wilmer'
_symmetry_space_group_name_H-M	'P1'
_symmetry_Int_Tables_number	1
_symmetry_cell_setting	triclinic
loop_
_symmetry_equiv_pos_as_xyz
  x,y,z
_cell_length_a	9.065218
_cell_length_b	16.992695
_cell_length_c	8.140239
_cell_angle_alpha	89.996131
_cell_angle_beta	89.997198
_cell_angle_gamma	87.842054
loop_
_atom_site_label
_atom_site_type_symbol
_atom_site_fract_x
_atom_site_fract_y
_atom_site_fract_z
O1	O	1.971073	0.115065	-0.136620
O2	O	2.471073	0.615065	0.363380
O3	O	1.542664	0.124504	-0.136623
O4	O	2.042664	0.624504	0.363377
O5	O	1.755151	0.005630	-0.136608
O6	O	2.255151	0.505630	0.363392
O7	O	1.758586	0.233939	-0.136634
O8	O	2.258586	0.733939	0.363366
O9	O	1.755138	0.005628	0.136619
O10	O	2.255138	0.505628	0.636619
O11	O	1.542651	0.124502	0.136605
O12	O	2.042651	0.624502	0.636605
O13	O	1.971060	0.115064	0.136607
O14	O	2.471060	0.615064	0.636607
Zn15	Zn	1.756854	0.119783	0.179986
Zn16	Zn	2.256854	0.619783	0.679986
Zn17	Zn	1.756871	0.119785	-0.180002
Zn18	Zn	2.256871	0.619785	0.319998
O19	O	1.758573	0.233938	0.136593
O20	O	2.258573	0.733938	0.636593
C21	C	1.487587	0.123596	-0.000009
C22	C	1.987587	0.623596	0.499991
C23	C	1.323492	0.120884	-0.000010
C24	C	1.823492	0.620884	0.499990
C25	C	1.750726	-0.023615	0.000005
C26	C	2.250726	0.476385	0.500005
C27	C	1.737542	-0.110753	0.000005
C28	C	2.237542	0.389247	0.500005
C29	C	1.864748	-0.160090	0.000007
C30	C	2.364748	0.339910	0.500007
C31	C	1.852352	-0.241964	-0.000009
C32	C	2.352352	0.258036	0.499991
C33	C	1.712748	-0.274500	-0.000015
C34	C	2.212748	0.225500	0.499985
C35	C	1.585533	-0.225157	-0.000022
C36	C	2.085533	0.274843	0.499978
C37	C	1.597931	-0.143284	-0.000019
C38	C	2.097931	0.356716	0.499981
C39	C	1.661364	-0.518463	-0.000038
C40	C	2.161364	-0.018463	0.499962
C41	C	1.648976	-0.600343	-0.000037
C42	C	2.148976	-0.100343	0.499963
C43	C	1.915797	-0.617144	-0.000026
C44	C	2.415797	-0.117144	0.499974
C45	C	1.928182	-0.535269	-0.000012
C46	C	2.428182	-0.035269	0.499988
C47	C	1.800967	-0.485933	-0.000029
C48	C	2.300967	0.014067	0.499971
N49	N	1.700074	-0.358189	-0.000026
N50	N	2.200074	0.141811	0.499974
N51	N	1.813642	-0.402245	-0.000029
N52	N	2.313642	0.097755	0.499971
C53	C	2.026138	0.115972	-0.000010
C54	C	2.526138	0.615972	0.499990
C55	C	2.190232	0.118684	-0.000020
C56	C	2.690232	0.618684	0.499980
C57	C	1.762998	0.263183	-0.000024
C58	C	2.262998	0.763183	0.499976
C59	C	1.776182	0.350320	-0.000034
C60	C	2.276182	0.850320	0.499966
N61	N	1.756853	0.119781	0.425669
N62	N	2.256853	0.619781	0.925669
N63	N	1.756882	0.119780	-0.425685
N64	N	2.256882	0.619780	0.074315
H65	H	1.978428	-0.133606	0.000022
H66	H	2.478428	0.366394	0.500022
H67	H	1.535289	-0.626830	-0.000016
H68	H	2.035289	-0.126830	0.499984
H69	H	1.955937	-0.282132	-0.000003
H70	H	2.455937	0.217868	0.499997
C71	C	1.521433	-0.464204	-0.000027
C72	C	2.021433	0.035796	0.499973
H73	H	1.436518	-0.495310	-0.000008
H74	H	1.936518	0.004690	0.499992
H75	H	1.520713	-0.431909	-0.095302
H76	H	2.020713	0.068091	0.404698
H77	H	1.520723	-0.431923	0.095271
H78	H	2.020723	0.068077	0.595271
C79	C	2.055724	-0.671411	-0.000026
C80	C	2.555724	-0.171411	0.499974
H81	H	2.140641	-0.640307	-0.000012
H82	H	2.640641	-0.140307	0.499988
H83	H	2.056440	-0.703696	-0.095307
H84	H	2.556440	-0.203696	0.404693
H85	H	2.056433	-0.703702	0.095265
H86	H	2.556433	-0.203702	0.595265
C87	C	2.081743	-0.499481	0.000006
C88	C	2.581743	0.000519	0.500006
H89	H	2.070906	-0.443654	0.000028
H90	H	2.570906	0.056346	0.500028
H91	H	2.134546	-0.516344	-0.095267
H92	H	2.634546	-0.016344	0.404733
H93	H	2.134505	-0.516358	0.095306
H94	H	2.634505	-0.016358	0.595306
C95	C	1.431972	-0.260944	-0.000025
C96	C	1.931972	0.239056	0.499975
H97	H	1.442804	-0.316771	-0.000008
H98	H	1.942804	0.183229	0.499992
H99	H	1.379189	-0.244072	-0.095303
H100	H	1.879189	0.255928	0.404697
H101	H	1.379191	-0.244076	0.095269
H102	H	1.879191	0.255924	0.595269
C103	C	1.458004	-0.089013	-0.000017
C104	C	1.958004	0.410987	0.499983
H105	H	1.373085	-0.120115	-0.000007
H106	H	1.873085	0.379885	0.499993
H107	H	1.457301	-0.056722	-0.095297
H108	H	1.957301	0.443278	0.404703
H109	H	1.457289	-0.056729	0.095276
H110	H	1.957289	0.443271	0.595276
