data_functionalizedCrystal
_audit_creation_method	'MofGen! by Chris Wilmer'
_symmetry_space_group_name_H-M	'P1'
_symmetry_Int_Tables_number	1
_symmetry_cell_setting	triclinic
loop_
_symmetry_equiv_pos_as_xyz
  x,y,z
_cell_length_a	18.101398
_cell_length_b	29.839131
_cell_length_c	18.101390
_cell_angle_alpha	89.964218
_cell_angle_beta	89.975319
_cell_angle_gamma	90.036686
loop_
_atom_site_label
_atom_site_type_symbol
_atom_site_fract_x
_atom_site_fract_y
_atom_site_fract_z
Zn1	Zn	1.132071	-0.178893	-0.418824
Zn2	Zn	1.632071	0.321107	0.081176
Zn3	Zn	1.131943	-0.254029	-0.294976
Zn4	Zn	1.631943	0.245971	0.205024
Zn5	Zn	1.008229	-0.178907	-0.294985
Zn6	Zn	1.508229	0.321093	0.205015
Zn7	Zn	1.008158	-0.253990	-0.418765
Zn8	Zn	1.508158	0.246010	0.081235
O9	O	1.070100	-0.216455	-0.356888
O10	O	1.570100	0.283545	0.143112
O11	O	1.235687	-0.188870	-0.402416
O12	O	1.735687	0.311130	0.097584
O13	O	1.115509	-0.244086	-0.191344
O14	O	1.615509	0.255914	0.308656
O15	O	1.024739	-0.116038	-0.311441
O16	O	1.524739	0.383962	0.188559
O17	O	1.235593	-0.244072	-0.311426
O18	O	1.735593	0.255928	0.188574
O19	O	1.115725	-0.116028	-0.402425
O20	O	1.615725	0.383972	0.097575
O21	O	1.024616	-0.188894	-0.191351
O22	O	1.524616	0.311106	0.308649
O23	O	0.904586	-0.188857	-0.311384
O24	O	1.404586	0.311143	0.188616
O25	O	1.024619	-0.244007	-0.522406
O26	O	1.524619	0.255993	-0.022406
O27	O	0.904534	-0.244020	-0.402324
O28	O	1.404534	0.255980	0.097676
O29	O	1.115657	-0.188833	-0.522449
O30	O	1.615657	0.311167	-0.022449
O31	O	1.115440	-0.316891	-0.311369
O32	O	1.615440	0.183109	0.188631
O33	O	1.024495	-0.316863	-0.402315
O34	O	1.524495	0.183137	0.097685
C35	C	0.877690	-0.216437	-0.356849
C36	C	1.377690	0.283563	0.143151
C37	C	0.795375	-0.216440	-0.356850
C38	C	1.295375	0.283560	0.143150
C39	C	0.496284	-0.216468	-0.356912
C40	C	0.996284	0.283532	0.143088
C41	C	0.527618	-0.181587	-0.299974
C42	C	1.027618	0.318413	0.200026
C43	C	0.613236	-0.181680	-0.299731
C44	C	1.113236	0.318320	0.200269
C45	C	0.644667	-0.216453	-0.356881
C46	C	1.144667	0.283547	0.143119
C47	C	0.613535	-0.263779	-0.335553
C48	C	1.113535	0.236221	0.164447
C49	C	0.527890	-0.263585	-0.335157
C50	C	1.027890	0.236415	0.164843
C51	C	0.527903	-0.204434	-0.435313
C52	C	1.027903	0.295566	0.064687
C53	C	0.613554	-0.203380	-0.434885
C54	C	1.113554	0.296620	0.065115
C55	C	0.728527	-0.216448	-0.356865
C56	C	1.228527	0.283552	0.143135
C57	C	0.412425	-0.216476	-0.356926
C58	C	0.912425	0.283524	0.143074
C59	C	1.069966	-0.333177	-0.356851
C60	C	1.569966	0.166823	0.143149
C61	C	1.069977	-0.383112	-0.356860
C62	C	1.569977	0.116888	0.143140
C63	C	1.117541	-0.692757	-0.309601
C64	C	1.617541	-0.192757	0.190399
C65	C	1.117632	-0.880430	-0.309629
C66	C	1.617632	-0.380430	0.190371
O67	O	1.157967	-0.904697	-0.269420
O68	O	1.657967	-0.404697	0.230580
N69	N	1.070254	-0.903897	-0.356943
N70	N	1.570254	-0.403897	0.143057
C71	C	1.022852	-0.880442	-0.404257
C72	C	1.522852	-0.380442	0.095743
O73	O	0.982561	-0.904708	-0.444506
O74	O	1.482561	-0.404708	0.055494
C75	C	1.022765	-0.692770	-0.404231
C76	C	1.522765	-0.192770	0.095769
C77	C	1.070142	-0.669306	-0.356909
C78	C	1.570142	-0.169306	0.143091
C79	C	1.164914	-0.669293	-0.262283
C80	C	1.664914	-0.169293	0.237717
C81	C	1.164888	-0.622377	-0.262273
C82	C	1.664888	-0.122377	0.237727
C83	C	1.117489	-0.598926	-0.309582
C84	C	1.617489	-0.098926	0.190418
C85	C	1.070115	-0.622390	-0.356899
C86	C	1.570115	-0.122390	0.143101
C87	C	0.975368	-0.669317	-0.451548
C88	C	1.475368	-0.169317	0.048452
C89	C	0.975351	-0.622395	-0.451539
C90	C	1.475351	-0.122395	0.048461
C91	C	1.022728	-0.598931	-0.404217
C92	C	1.522728	-0.098931	0.095783
C93	C	1.022690	-0.552024	-0.404198
C94	C	1.522690	-0.052024	0.095802
N95	N	1.070068	-0.528557	-0.356884
N96	N	1.570068	-0.028557	0.143116
C97	C	1.117468	-0.552008	-0.309576
C98	C	1.617468	-0.052008	0.190424
C99	C	1.022900	-0.978973	-0.404266
C100	C	1.522900	-0.478973	0.095734
C101	C	1.022921	-1.025891	-0.404272
C102	C	1.522921	-0.525891	0.095728
C103	C	1.117702	-1.025875	-0.309645
C104	C	1.617702	-0.525875	0.190355
C105	C	1.117677	-0.978957	-0.309636
C106	C	1.617677	-0.478957	0.190364
C107	C	1.070279	-0.955506	-0.356952
C108	C	1.570279	-0.455506	0.143048
C109	C	1.117409	-0.453483	-0.309559
C110	C	1.617409	0.046517	0.190441
C111	C	1.117376	-0.406563	-0.309551
C112	C	1.617376	0.093437	0.190449
C113	C	1.022598	-0.406582	-0.404181
C114	C	1.522598	0.093418	0.095819
C115	C	1.022627	-0.453498	-0.404186
C116	C	1.522627	0.046502	0.095814
C117	C	1.070039	-0.476947	-0.356872
C118	C	1.570039	0.023053	0.143128
O119	O	0.982382	-0.527728	-0.444393
O120	O	1.482382	-0.027728	0.055607
O121	O	1.157765	-0.527734	-0.269344
O122	O	1.657765	-0.027734	0.230656
C123	C	1.117567	-0.739673	-0.309610
C124	C	1.617567	-0.239673	0.190390
C125	C	1.070194	-0.763137	-0.356928
C126	C	1.570194	-0.263137	0.143072
C127	C	1.022794	-0.739686	-0.404237
C128	C	1.522794	-0.239686	0.095763
C129	C	1.070215	-0.810055	-0.356934
C130	C	1.570215	-0.310055	0.143066
C131	C	1.117614	-0.833506	-0.309625
C132	C	1.617614	-0.333506	0.190375
C133	C	1.164993	-0.810039	-0.262311
C134	C	1.664993	-0.310039	0.237689
C135	C	1.164967	-0.763124	-0.262302
C136	C	1.664967	-0.263124	0.237698
C137	C	0.975416	-0.763152	-0.451550
C138	C	1.475416	-0.263152	0.048450
C139	C	0.975445	-0.810068	-0.451556
C140	C	1.475445	-0.310068	0.048444
C141	C	1.022845	-0.833519	-0.404247
C142	C	1.522845	-0.333519	0.095753
C143	C	1.263262	-0.216473	-0.356927
C144	C	1.763262	0.283527	0.143073
C145	C	1.345576	-0.216481	-0.356943
C146	C	1.845576	0.283519	0.143057
C147	C	1.070144	-0.216414	-0.550050
C148	C	1.570144	0.283586	-0.050050
C149	C	1.070163	-0.216396	-0.632364
C150	C	1.570163	0.283604	-0.132364
C151	C	1.070255	-0.099276	-0.356941
C152	C	1.570255	0.400724	0.143059
C153	C	1.070320	-0.049342	-0.356963
C154	C	1.570320	0.450658	0.143037
C155	C	1.070203	-0.216368	-0.931455
C156	C	1.570203	0.283632	-0.431455
C157	C	1.127670	-0.181777	-0.900157
C158	C	1.627670	0.318223	-0.400157
C159	C	1.127491	-0.181648	-0.814539
C160	C	1.627491	0.318352	-0.314539
C161	C	1.070184	-0.216382	-0.783072
C162	C	1.570184	0.283618	-0.283072
C163	C	0.992171	-0.203516	-0.814140
C164	C	1.492171	0.296484	-0.314140
C165	C	0.992515	-0.203256	-0.899785
C166	C	1.492515	0.296744	-0.399785
C167	C	1.090061	-0.263915	-0.899865
C168	C	1.590061	0.236085	-0.399865
C169	C	1.091774	-0.263673	-0.814215
C170	C	1.591774	0.236327	-0.314215
C171	C	1.070168	-0.216391	-0.699213
C172	C	1.570168	0.283609	-0.199213
C173	C	1.070213	-0.216359	-1.015314
C174	C	1.570213	0.283641	-0.515314
C175	C	1.070099	-0.216463	-0.164477
C176	C	1.570099	0.283537	0.335523
C177	C	1.070224	-0.216354	-0.082163
C178	C	1.570224	0.283646	0.417837
H179	H	0.507058	-0.146386	-0.313196
H180	H	1.007058	0.353614	0.186804
F181	F	0.641518	-0.277349	-0.261447
F182	F	1.141518	0.222651	0.238553
H183	H	0.936818	-0.744062	-0.490076
H184	H	1.436818	-0.244062	0.009924
H185	H	0.984003	-0.387481	-0.442696
H186	H	1.484003	0.112519	0.057304
H187	H	0.936755	-0.603304	-0.490072
H188	H	1.436755	-0.103304	0.009928
H189	H	1.149184	-0.273375	-0.793909
H190	H	1.649184	0.226625	-0.293909
H191	H	1.203517	-0.688382	-0.223758
H192	H	1.703517	-0.188382	0.276242
H193	H	1.145950	-0.275630	-0.921513
H194	H	1.645950	0.224370	-0.421513
F195	F	1.215394	-0.738157	-0.211937
F196	F	1.715394	-0.238157	0.288063
H197	H	0.507639	-0.229840	-0.477737
H198	H	1.007639	0.270160	0.022263
F199	F	0.925015	-0.835035	-0.501924
F200	F	1.425015	-0.335035	-0.001924
H201	H	1.114347	-0.146424	-0.794068
H202	H	1.614347	0.353576	-0.294068
F203	F	1.168102	-0.953988	-0.259270
F204	F	1.668102	-0.453988	0.240730
F205	F	0.969764	-0.158589	-0.786127
F206	F	1.469764	0.341411	-0.286127
H207	H	0.506341	-0.170525	-0.454703
H208	H	1.006341	0.329475	0.045297
H209	H	0.975678	-0.168500	-0.919777
H210	H	1.475678	0.331500	-0.419777
H211	H	0.507160	-0.290454	-0.374819
H212	H	1.007160	0.209546	0.125181
F213	F	1.110711	-0.135993	-0.928310
F214	F	1.610711	0.364007	-0.428310
F215	F	0.640168	-0.157863	-0.455913
F216	F	1.140168	0.342137	0.044087
F217	F	0.934640	-0.234749	-0.926846
F218	F	1.434640	0.265251	-0.426846
H219	H	0.633892	-0.290464	-0.375726
H220	H	1.133892	0.209536	0.124274
H221	H	0.984335	-1.044991	-0.442799
H222	H	1.484335	-0.544991	0.057201
F223	F	1.203106	-0.192175	-0.787083
F224	F	1.703106	0.307825	-0.287083
F225	F	0.934686	-0.235435	-0.787503
F226	F	1.434686	0.264565	-0.287503
F227	F	1.203532	-0.192176	-0.927094
F228	F	1.703532	0.307824	-0.427094
F229	F	1.215437	-0.835006	-0.211960
F230	F	1.715437	-0.335006	0.288040
F231	F	1.041038	-0.299172	-0.786220
F232	F	1.541038	0.200828	-0.286220
H233	H	0.634287	-0.146587	-0.313101
H234	H	1.134287	0.353413	0.186899
F235	F	0.639970	-0.192076	-0.223797
F236	F	1.139970	0.307924	0.276203
F237	F	0.499436	-0.191860	-0.224485
F238	F	0.999436	0.308140	0.275515
F239	F	0.501726	-0.276922	-0.260242
F240	F	1.001726	0.223078	0.239758
H241	H	0.634953	-0.226934	-0.479582
H242	H	1.134953	0.273066	0.020418
H243	H	1.048209	-0.289690	-0.920109
H244	H	1.548209	0.210310	-0.420109
H245	H	1.203468	-0.603276	-0.223742
H246	H	1.703468	-0.103276	0.276258
F247	F	1.167803	-0.381593	-0.259182
F248	F	1.667803	0.118407	0.240818
H249	H	1.156018	-0.472569	-0.271034
H250	H	1.656018	0.027431	0.228966
F251	F	0.972191	-0.478471	-0.454537
F252	F	1.472191	0.021529	0.045463
H253	H	1.156297	-1.044977	-0.271125
H254	H	1.656297	-0.544977	0.228875
H255	H	0.984301	-0.959883	-0.442797
H256	H	1.484301	-0.459883	0.057203
F257	F	0.924948	-0.694279	-0.501922
F258	F	1.424948	-0.194279	-0.001922
