data_functionalizedCrystal
_audit_creation_method	'MofGen! by Chris Wilmer'
_symmetry_space_group_name_H-M	'P1'
_symmetry_Int_Tables_number	1
_symmetry_cell_setting	triclinic
loop_
_symmetry_equiv_pos_as_xyz
  x,y,z
_cell_length_a	18.101398
_cell_length_b	29.839131
_cell_length_c	18.101389
_cell_angle_alpha	90.028941
_cell_angle_beta	90.009745
_cell_angle_gamma	90.030787
loop_
_atom_site_label
_atom_site_type_symbol
_atom_site_fract_x
_atom_site_fract_y
_atom_site_fract_z
Zn1	Zn	1.132100	-0.178954	0.418496
Zn2	Zn	1.131987	-0.254070	0.294632
Zn3	Zn	1.008259	-0.178949	0.294689
Zn4	Zn	1.008200	-0.254052	0.418452
O5	O	1.070136	-0.216506	0.356567
O6	O	1.235718	-0.188928	0.402060
O7	O	1.115551	-0.244112	0.191007
O8	O	1.024758	-0.116083	0.311155
O9	O	1.235634	-0.244116	0.311058
O10	O	1.115744	-0.116086	0.402115
O11	O	1.024648	-0.188921	0.191049
O12	O	0.904618	-0.188902	0.311112
O13	O	1.024659	-0.244084	0.522091
O14	O	0.904575	-0.244079	0.402040
O15	O	1.115687	-0.188910	0.522123
O16	O	1.115494	-0.316935	0.311015
O17	O	1.024549	-0.316921	0.401985
C18	C	0.877726	-0.216489	0.356578
C19	C	0.795412	-0.216492	0.356600
C20	C	0.496321	-0.216518	0.356569
C21	C	0.527644	-0.251402	0.413496
C22	C	0.613262	-0.251293	0.413730
C23	C	0.644703	-0.216506	0.356584
C24	C	0.613654	-0.169189	0.377926
C25	C	0.528009	-0.169399	0.378331
C26	C	0.527867	-0.228534	0.278162
C27	C	0.613517	-0.229572	0.278581
C28	C	0.728563	-0.216496	0.356592
C29	C	0.412461	-0.216525	0.356563
C30	C	1.070023	-0.333229	0.356505
C31	C	1.070043	-0.383163	0.356503
C32	C	1.117502	-0.692773	0.403998
C33	C	1.117582	-0.880446	0.404043
O34	O	1.157823	-0.904683	0.444378
N35	N	1.070262	-0.903948	0.356650
C36	C	1.022915	-0.880529	0.309245
O37	O	0.982662	-0.904825	0.268941
C38	C	1.022831	-0.692857	0.309205
C39	C	1.070160	-0.669357	0.356596
C40	C	1.164827	-0.669274	0.451386
C41	C	1.164809	-0.622358	0.451371
C42	C	1.117467	-0.598943	0.403969
C43	C	1.070142	-0.622442	0.356582
C44	C	0.975481	-0.669439	0.261805
C45	C	0.975463	-0.622518	0.261801
C46	C	1.022791	-0.599018	0.309192
C47	C	1.022782	-0.552111	0.309165
N48	N	1.070103	-0.528609	0.356558
C49	C	1.117445	-0.552025	0.403960
C50	C	1.022963	-0.979060	0.309269
C51	C	1.022985	-1.025978	0.309278
C52	C	1.117652	-1.025892	0.404076
C53	C	1.117633	-0.978973	0.404063
C54	C	1.070283	-0.955558	0.356662
C55	C	1.117405	-0.453499	0.403926
C56	C	1.117385	-0.406579	0.403905
C57	C	1.022716	-0.406669	0.309110
C58	C	1.022738	-0.453585	0.309128
C59	C	1.070085	-0.476998	0.356542
O60	O	0.982557	-0.527845	0.268857
O61	O	1.157680	-0.527721	0.444270
C62	C	1.117520	-0.739689	0.404013
C63	C	1.070195	-0.763188	0.356625
C64	C	1.022853	-0.739772	0.309223
C65	C	1.070217	-0.810106	0.356634
C66	C	1.117559	-0.833522	0.404036
C67	C	1.164880	-0.810020	0.451429
C68	C	1.164862	-0.763105	0.451415
C69	C	0.975533	-0.763274	0.261830
C70	C	0.975555	-0.810190	0.261848
C71	C	1.022897	-0.833606	0.309250
C72	C	1.263298	-0.216524	0.356558
C73	C	1.345612	-0.216532	0.356553
C74	C	1.070179	-0.216495	0.549729
C75	C	1.070197	-0.216490	0.632044
C76	C	1.070270	-0.099328	0.356646
C77	C	1.070327	-0.049393	0.356680
C78	C	1.070136	-0.216485	0.164157
C79	C	1.070262	-0.216364	0.081843
C80	C	1.070241	-0.216406	0.931135
C81	C	1.012771	-0.251010	0.899789
C82	C	1.012926	-0.251170	0.814171
C83	C	1.070218	-0.216448	0.782752
C84	C	1.148242	-0.229302	0.813834
C85	C	1.147922	-0.229529	0.899479
C86	C	1.050365	-0.168871	0.899578
C87	C	1.048629	-0.169145	0.813928
C88	C	1.070211	-0.216471	0.698893
C89	C	1.070253	-0.216384	1.014994
H90	H	0.634919	-0.206009	0.233887
H91	H	0.507024	-0.286605	0.400268
H92	H	0.936980	-0.744213	0.223230
H93	H	0.506134	-0.243554	0.471254
H94	H	0.507291	-0.142477	0.338770
H95	H	1.087433	-0.141995	0.792542
H96	H	0.507611	-0.203125	0.235746
Br97	Br	1.221531	-0.188615	0.779922
H98	H	0.991210	-0.159451	0.793614
H99	H	0.936902	-0.603455	0.223202
Br100	Br	0.916040	-0.237737	0.934119
Br101	Br	0.957183	-0.149352	0.935583
H102	H	1.026048	-0.286405	0.793674
Br103	Br	0.958763	-1.057864	0.244947
H104	H	1.025762	-0.286029	0.921301
Br105	Br	1.229098	-0.731220	0.515734
H106	H	0.984205	-0.472719	0.270532
Br107	Br	0.494737	-0.152412	0.473866
H108	H	1.203346	-0.603228	0.489963
Br109	Br	0.647443	-0.238044	0.510557
Br110	Br	1.120131	-0.125900	0.933365
Br111	Br	1.181624	-0.374690	0.468223
Br112	Br	0.916493	-0.237759	0.779139
H113	H	1.155954	-0.472557	0.442540
Br114	Br	0.647601	-0.124692	0.310980
H115	H	0.635120	-0.158813	0.434622
H116	H	0.984172	-0.387597	0.270513
Br117	Br	1.176007	-0.287446	0.932766
Br118	Br	1.181867	-0.947086	0.468381
H119	H	0.634253	-0.286381	0.400352
Br120	Br	1.221663	-0.189317	0.934046
Br121	Br	0.491823	-0.285052	0.245832
H122	H	0.633816	-0.264390	0.262485
H123	H	1.165384	-0.263682	0.792377
Br124	Br	1.181902	-1.057679	0.468407
Br125	Br	0.958692	-0.947289	0.244936
Br126	Br	0.911243	-0.701319	0.197487
H127	H	1.203378	-0.688334	0.489991
H128	H	0.937015	-0.829319	0.223249
H129	H	1.203430	-0.829094	0.490023
