data_functionalizedCrystal
_audit_creation_method	'MofGen! by Chris Wilmer'
_symmetry_space_group_name_H-M	'P1'
_symmetry_Int_Tables_number	1
_symmetry_cell_setting	triclinic
loop_
_symmetry_equiv_pos_as_xyz
  x,y,z
_cell_length_a	16.793024
_cell_length_b	16.793047
_cell_length_c	33.586455
_cell_angle_alpha	113.253857
_cell_angle_beta	66.219990
_cell_angle_gamma	112.758327
loop_
_atom_site_label
_atom_site_type_symbol
_atom_site_fract_x
_atom_site_fract_y
_atom_site_fract_z
O1	O	0.005016	-0.570216	-0.583573
O2	O	-0.034529	-0.474528	-0.453458
O3	O	0.114723	-0.474535	-0.528082
O4	O	-0.144235	-0.570209	-0.508949
O5	O	0.108729	-0.346329	-0.530229
O6	O	-0.040523	-0.346322	-0.455605
O7	O	-0.000977	-0.442010	-0.585721
Cu8	Cu	-0.021297	-0.382459	-0.520859
Cu9	Cu	-0.014209	-0.534079	-0.518320
O10	O	-0.150229	-0.442003	-0.511097
C11	C	0.005100	-0.790970	-0.238461
C12	C	0.009223	-0.693065	-0.217557
C13	C	0.003804	-0.645758	-0.241627
C14	C	-0.075059	-0.538459	-0.266316
C15	C	0.049838	-0.422849	-0.250165
C16	C	-0.040584	-0.395375	-0.435637
C17	C	-0.044693	-0.353446	-0.386631
C18	C	-0.039275	-0.401741	-0.363054
C19	C	-0.040566	-0.125547	-0.300731
C20	C	-0.044689	-0.223451	-0.321635
C21	C	-0.039266	-0.270752	-0.297563
C22	C	0.039597	-0.378051	-0.272874
C23	C	-0.085304	-0.493667	-0.289026
C24	C	0.005118	-0.521142	-0.103554
C25	C	0.009231	-0.563064	-0.152559
C26	C	0.003809	-0.514775	-0.176138
C27	C	0.010758	-0.652581	-0.172822
C28	C	0.001010	-0.556371	-0.220792
C29	C	-0.008251	-0.506059	-0.245823
C30	C	-0.046224	-0.263935	-0.366370
C31	C	-0.036476	-0.360146	-0.318399
C32	C	-0.027211	-0.410451	-0.293367
C33	C	0.815184	-0.521162	-0.508596
C34	C	0.415541	-0.125553	-0.528781
C35	C	0.375032	-0.223457	-0.531493
C36	C	0.423813	-0.270761	-0.529101
C37	C	0.149318	-0.395376	-0.530584
C38	C	0.246774	-0.353455	-0.532364
C39	C	0.294574	-0.401748	-0.529976
C40	C	0.548961	-0.790984	-0.510398
C41	C	0.286104	-0.263940	-0.532530
C42	C	0.383336	-0.360149	-0.528302
C43	C	0.432207	-0.407971	-0.525810
C44	C	0.392316	-0.497392	-0.524993
C45	C	0.303554	-0.538991	-0.526667
C46	C	0.254683	-0.491169	-0.529159
C47	C	0.263666	-0.628421	-0.525851
C48	C	0.312537	-0.676243	-0.523359
C49	C	0.401299	-0.634644	-0.521685
C50	C	0.441190	-0.545223	-0.522502
C51	C	0.529952	-0.503624	-0.520828
C52	C	0.578823	-0.551446	-0.518336
C53	C	0.538939	-0.640864	-0.517520
C54	C	0.450177	-0.682463	-0.519194
C55	C	0.587810	-0.688687	-0.515028
C56	C	0.676572	-0.647088	-0.513354
C57	C	0.716463	-0.557666	-0.514172
C58	C	0.667586	-0.509847	-0.516662
C59	C	0.569840	-0.414195	-0.521644
C60	C	0.658602	-0.372596	-0.519970
C61	C	0.707476	-0.420426	-0.517480
C62	C	0.698493	-0.283174	-0.520788
C63	C	0.649622	-0.235352	-0.523280
C64	C	0.560860	-0.276951	-0.524954
C65	C	0.520969	-0.366372	-0.524136
C66	C	0.511989	-0.229129	-0.527446
C67	C	-0.040530	-0.395407	-0.935652
C68	C	0.005063	-0.791004	-0.738448
C69	C	0.009186	-0.693099	-0.717543
C70	C	0.003779	-0.645796	-0.741620
C71	C	0.005077	-0.521171	-0.603544
C72	C	0.009198	-0.563096	-0.652550
C73	C	0.003786	-0.514804	-0.676131
C74	C	-0.040516	-0.125574	-0.800747
C75	C	0.010719	-0.652613	-0.672809
C76	C	0.000994	-0.556406	-0.720789
C77	C	-0.004621	-0.508585	-0.744908
C78	C	-0.007444	-0.419162	-0.724369
C79	C	-0.004651	-0.377560	-0.679711
C80	C	0.000964	-0.425381	-0.655592
C81	C	-0.007471	-0.288129	-0.659174
C82	C	-0.013086	-0.240308	-0.683293
C83	C	-0.015878	-0.281910	-0.727951
C84	C	-0.013056	-0.371333	-0.748490
C85	C	-0.015848	-0.412935	-0.793148
C86	C	-0.021463	-0.365114	-0.817267
C87	C	-0.024282	-0.275694	-0.796731
C88	C	-0.021490	-0.234092	-0.752073
C89	C	-0.029897	-0.227873	-0.820850
C90	C	-0.032690	-0.269476	-0.865508
C91	C	-0.029867	-0.358899	-0.886047
C92	C	-0.024255	-0.406717	-0.861925
C93	C	-0.013028	-0.502367	-0.813685
C94	C	-0.015821	-0.543969	-0.858343
C95	C	-0.021433	-0.496140	-0.882464
C96	C	-0.012998	-0.633392	-0.878882
C97	C	-0.007383	-0.681213	-0.854763
C98	C	-0.004591	-0.639611	-0.810105
C99	C	-0.007414	-0.550188	-0.789566
C100	C	0.001024	-0.687432	-0.785986
O101	O	-0.000965	0.173549	-0.277957
O102	O	-0.040516	-0.085616	-0.325254
O103	O	0.108737	0.059592	-0.327284
O104	O	-0.150219	0.028341	-0.275927
O105	O	0.114753	0.055151	-0.263265
O106	O	-0.034500	-0.090057	-0.261234
O107	O	0.005051	0.169108	-0.213937
Cu108	Cu	-0.014175	0.039120	-0.231740
Cu109	Cu	-0.021290	0.044372	-0.307451
O110	O	-0.144202	0.023900	-0.211907
O111	O	-0.034458	-0.474571	0.046517
O112	O	0.005076	-0.570190	-0.083599
O113	O	-0.144170	-0.570237	-0.008972
O114	O	0.114787	-0.474523	-0.028110
O115	O	-0.150200	-0.442024	-0.011093
O116	O	-0.000954	-0.441976	-0.085720
O117	O	-0.040488	-0.346357	0.044396
Cu118	Cu	-0.021272	-0.382460	-0.020856
Cu119	Cu	-0.014141	-0.534087	-0.018347
O120	O	0.108757	-0.346309	-0.030231
C121	C	-0.850734	0.086244	-0.289716
C122	C	-0.753280	0.087165	-0.312001
C123	C	-0.705462	0.081107	-0.288506
C124	C	-0.599592	0.000085	-0.264184
C125	C	-0.481080	0.121287	-0.283645
C126	C	-0.450996	0.035117	-0.097351
C127	C	-0.410501	0.028587	-0.146852
C128	C	-0.459292	0.034683	-0.169840
C129	C	-0.184802	0.024283	-0.235878
C130	C	-0.282257	0.023363	-0.213592
C131	C	-0.330068	0.029423	-0.237088
C132	C	-0.435938	0.110445	-0.261411
C133	C	-0.554456	-0.010759	-0.241948
C134	C	-0.584541	0.075410	-0.428242
C135	C	-0.625029	0.081943	-0.378743
C136	C	-0.576244	0.075844	-0.355753
C137	C	-0.713963	0.086424	-0.357292
C138	C	-0.616708	0.075351	-0.310510
C139	C	-0.565963	0.065400	-0.286043
C140	C	-0.321573	0.024104	-0.168302
C141	C	-0.418828	0.035176	-0.215083
C142	C	-0.469568	0.045131	-0.239552
O143	O	0.585213	0.169090	-0.504004
O144	O	0.494056	-0.090076	-0.525516
O145	O	0.488081	0.055124	-0.449918
O146	O	0.591189	0.023889	-0.579602
O147	O	0.359978	0.059584	-0.452885
O148	O	0.365953	-0.085616	-0.528483
O149	O	0.457110	0.173550	-0.506971
Cu150	Cu	0.399835	0.044374	-0.517998
Cu151	Cu	0.551332	0.039099	-0.514489
O152	O	0.463086	0.028349	-0.582569
C153	C	0.815354	-0.521094	-0.008709
C154	C	0.717898	-0.563028	-0.006927
C155	C	0.670072	-0.514739	-0.009298
C156	C	0.564182	-0.463204	-0.048354
C157	C	0.445681	-0.498945	0.013847
C158	C	0.415547	-0.125494	-0.028771
C159	C	0.375059	-0.223405	-0.031498
C160	C	0.423859	-0.270708	-0.029121
C161	C	0.149365	-0.395355	-0.030599
C162	C	0.246820	-0.353421	-0.032381
C163	C	0.294640	-0.401713	-0.030008
C164	C	0.400530	-0.453248	0.009048
C165	C	0.519038	-0.417504	-0.053155
C166	C	0.549171	-0.790955	-0.010537
C167	C	0.589653	-0.693047	-0.007809
C168	C	0.540859	-0.645741	-0.010187
C169	C	0.678588	-0.652551	-0.006775
C170	C	0.581317	-0.556344	-0.010973
C171	C	0.530562	-0.506029	-0.015250
C172	C	0.286131	-0.263897	-0.032533
C173	C	0.383402	-0.360104	-0.028335
C174	C	0.434150	-0.410423	-0.024057
O175	O	-0.620614	0.089309	0.052274
O176	O	-0.529507	0.043784	-0.078544
O177	O	-0.523494	0.194833	-0.006033
O178	O	-0.626628	-0.061740	-0.020236
O179	O	-0.395386	0.185419	-0.005549
O180	O	-0.401400	0.034370	-0.078059
O181	O	-0.492507	0.079895	0.052758
Cu182	Cu	-0.435256	0.056273	-0.012607
Cu183	Cu	-0.586758	0.067406	-0.013179
O184	O	-0.498521	-0.071154	-0.019752
C185	C	-0.437537	0.048335	0.402491
C186	C	-0.397043	0.041789	0.352989
C187	C	-0.445822	0.047883	0.329994
C188	C	-0.496646	0.126653	0.277022
C189	C	-0.465894	-0.000633	0.218811
C190	C	-0.837226	0.099430	0.210091
C191	C	-0.739773	0.100339	0.187806
C192	C	-0.691967	0.094287	0.211308
C193	C	-0.571027	0.088563	0.071568
C194	C	-0.611521	0.095108	0.121070
C195	C	-0.562739	0.089011	0.144061
C196	C	-0.511915	0.010241	0.197033
C197	C	-0.542670	0.137531	0.255247
C198	C	-0.171338	0.037467	0.263967
C199	C	-0.268788	0.036555	0.286249
C200	C	-0.316597	0.042611	0.262750
C201	C	-0.308112	0.037305	0.331542
C202	C	-0.405351	0.048369	0.284750
C203	C	-0.456092	0.058317	0.260279
C204	C	-0.700452	0.099593	0.142516
C205	C	-0.603213	0.088528	0.189308
C206	C	-0.552469	0.078578	0.213776
O207	O	-0.040608	-1.085661	-0.825229
O208	O	-0.001018	-0.826491	-0.777938
O209	O	-0.150287	-0.971682	-0.775894
O210	O	0.108661	-0.940470	-0.827272
O211	O	-0.144253	-0.976123	-0.711878
O212	O	0.005016	-0.830932	-0.713922
O213	O	-0.034575	-1.090102	-0.761213
Cu214	Cu	-0.014228	-0.960923	-0.731722
Cu215	Cu	-0.021364	-0.955670	-0.807428
O216	O	0.114695	-0.944911	-0.763256
O217	O	-0.036862	-0.230384	-0.253947
C218	C	-0.115987	-0.202041	-0.227222
H219	H	-0.171766	-0.243574	-0.244184
H220	H	-0.138525	-0.211820	-0.192195
H221	H	-0.101653	-0.127812	-0.223676
O222	O	-0.683063	-0.055652	-0.265766
C223	C	-0.681477	-0.101483	-0.311330
H224	H	-0.609264	-0.103111	-0.333024
H225	H	-0.726591	-0.173289	-0.313831
H226	H	-0.707291	-0.065111	-0.323978
H227	H	-0.023718	-0.530163	-0.918978
H228	H	-0.281187	0.020914	-0.148901
H229	H	-0.123560	-0.607102	-0.263443
H230	H	0.771070	-0.249160	-0.519423
H231	H	-0.724884	0.094041	0.248327
H232	H	-0.489994	0.175891	0.311254
O233	O	0.726764	-0.700062	-0.005452
C234	C	0.754148	-0.657983	0.034250
H235	H	0.707127	-0.615226	0.060806
H236	H	0.751140	-0.711497	0.048045
H237	H	0.826318	-0.613201	0.026003
H238	H	0.107243	-0.392097	-0.234140
O239	O	-0.748488	0.103507	0.119332
C240	C	-0.704803	0.180874	0.103790
H241	H	-0.630161	0.202952	0.101490
H242	H	-0.711697	0.164814	0.068838
H243	H	-0.737224	0.237417	0.128472
O244	O	-0.592403	-0.077782	-0.221459
C245	C	-0.609027	-0.161658	-0.254120
H246	H	-0.562436	-0.155179	-0.289125
H247	H	-0.595654	-0.213876	-0.245682
H248	H	-0.682432	-0.183742	-0.253962
H249	H	0.001660	-0.441639	-0.159184
O250	O	-0.004759	-0.768471	-0.874822
C251	C	-0.083868	-0.820169	-0.887883
H252	H	-0.113880	-0.774406	-0.891909
H253	H	-0.066568	-0.873445	-0.921523
H254	H	-0.135124	-0.854460	-0.860779
O255	O	-0.443192	0.188274	-0.304156
C256	C	-0.499199	0.246657	-0.285095
H257	H	-0.543464	0.241020	-0.249651
H258	H	-0.455509	0.318898	-0.282872
H259	H	-0.543911	0.227264	-0.307349
H260	H	0.544602	-0.156012	-0.528109
H261	H	-0.531920	0.039247	-0.151930
H262	H	0.550886	-0.383867	-0.081621
O263	O	0.097565	-0.296230	-0.276345
C264	C	0.186422	-0.304784	-0.298672
H265	H	0.184117	-0.377380	-0.320143
H266	H	0.224597	-0.258160	-0.321473
H267	H	0.222402	-0.285729	-0.272457
O268	O	0.013741	-0.700201	-0.149016
C269	C	-0.062937	-0.702866	-0.110564
H270	H	-0.119195	-0.691379	-0.116654
H271	H	-0.086936	-0.771435	-0.104206
H272	H	-0.044687	-0.647943	-0.079738
H273	H	0.003321	-0.760550	-0.802778
O274	O	-0.489647	0.070282	-0.377182
C275	C	-0.487950	-0.007119	-0.414769
H276	H	-0.550481	-0.027719	-0.425990
H277	H	-0.424661	0.008174	-0.443858
H278	H	-0.487334	-0.064398	-0.404853
O279	O	-0.049204	-0.216238	-0.390138
C280	C	0.027481	-0.141415	-0.392510
H281	H	0.083735	-0.155127	-0.387530
H282	H	0.051478	-0.129349	-0.427119
H283	H	0.009238	-0.079266	-0.364801
O284	O	-0.290821	0.029578	-0.281271
C285	C	-0.265315	-0.050930	-0.307266
H286	H	-0.307875	-0.105068	-0.288962
H287	H	-0.276655	-0.074108	-0.341830
H288	H	-0.190794	-0.038714	-0.312025
O289	O	-0.352430	0.166210	-0.259940
C290	C	-0.327689	0.229055	-0.283790
H291	H	-0.391125	0.236349	-0.285235
H292	H	-0.288499	0.297037	-0.265680
H293	H	-0.283436	0.204598	-0.319738
O294	O	0.168160	-0.531758	-0.530877
C295	C	0.161737	-0.531305	-0.571365
H296	H	0.231234	-0.524803	-0.597637
H297	H	0.112730	-0.596798	-0.584875
H298	H	0.136054	-0.471949	-0.564322
H299	H	-0.754334	0.089615	-0.376700
H300	H	0.710767	-0.684484	-0.506030
O301	O	0.255370	-0.488928	-0.029240
C302	C	0.253889	-0.497653	0.011136
H303	H	0.257910	-0.429575	0.037968
H304	H	0.188482	-0.548412	0.023825
H305	H	0.314075	-0.522029	0.004264
O306	O	0.407803	-0.538958	0.047846
C307	C	0.463817	-0.502364	0.076275
H308	H	0.508075	-0.432667	0.072865
H309	H	0.420133	-0.496749	0.112987
H310	H	0.508535	-0.548082	0.065964
O311	O	0.709377	-0.427441	-0.009911
C312	C	0.734837	-0.376156	0.030011
H313	H	0.743205	-0.422269	0.044612
H314	H	0.801567	-0.323025	0.021780
H315	H	0.680328	-0.341704	0.055921
O316	O	-0.744585	0.080808	-0.244340
C317	C	-0.682474	0.074121	-0.228217
H318	H	-0.610698	0.099205	-0.249806
H319	H	-0.690856	0.116894	-0.191429
H320	H	-0.695644	0.000860	-0.230378
O321	O	-0.532399	0.053523	0.351399
C322	C	-0.534069	0.130920	0.388987
H323	H	-0.464774	0.181784	0.383635
H324	H	-0.586984	0.162106	0.392665
H325	H	-0.551799	0.111456	0.421057
O326	O	0.647662	-0.468500	-0.077383
C327	C	0.642068	-0.510775	-0.122090
H328	H	0.579605	-0.503295	-0.124461
H329	H	0.705077	-0.477924	-0.146442
H330	H	0.636998	-0.585287	-0.131519
H331	H	0.001650	-0.679613	-0.278166
O332	O	0.013727	-0.700348	-0.649069
C333	C	-0.063082	-0.775036	-0.646594
H334	H	-0.090933	-0.792567	-0.675750
H335	H	-0.043473	-0.835082	-0.649107
H336	H	-0.116947	-0.757853	-0.612923
H337	H	-0.574318	0.196197	0.271049
H338	H	0.330510	-0.448858	0.033327
H339	H	-0.037138	-0.474881	-0.380005
H340	H	0.468233	-0.679598	-0.011487
O341	O	0.510451	-0.230250	-0.027496
C342	C	0.512170	-0.155105	0.011173
H343	H	0.442897	-0.163917	0.037561
H344	H	0.565119	-0.149185	0.026027
H345	H	0.529884	-0.091451	0.001199
H346	H	-0.490116	0.084434	0.126151
O347	O	-0.153851	-0.530463	-0.308106
C348	C	-0.204445	-0.614575	-0.299752
H349	H	-0.194742	-0.616959	-0.268586
H350	H	-0.279096	-0.624244	-0.293530
H351	H	-0.180410	-0.670536	-0.330385
O352	O	0.237846	-0.216325	-0.533700
C353	C	0.160910	-0.213669	-0.495340
H354	H	0.173258	-0.225153	-0.467292
H355	H	0.147270	-0.145104	-0.482880
H356	H	0.099992	-0.268598	-0.504829
H357	H	0.191099	-0.662437	-0.527221
O358	O	0.237853	-0.216284	-0.033688
C359	C	0.160920	-0.213656	0.004674
H360	H	0.173282	-0.225156	0.032713
H361	H	0.147264	-0.145096	0.017146
H362	H	0.100006	-0.268589	-0.004818
H363	H	0.279916	-0.749353	-0.522691
O364	O	-0.519796	-0.048603	0.156209
C365	C	-0.474826	-0.114284	0.143785
H366	H	-0.469517	-0.119214	0.175476
H367	H	-0.514462	-0.182248	0.125908
H368	H	-0.404135	-0.094503	0.119924
H369	H	0.003251	-0.391359	-0.619081
H370	H	-0.434254	-0.059305	0.203012
O371	O	0.688414	-0.148074	-0.523992
C372	C	0.638026	-0.092980	-0.486398
H373	H	0.598123	-0.128430	-0.458620
H374	H	0.685904	-0.026387	-0.472943
H375	H	0.589306	-0.079574	-0.497231
O376	O	-0.259894	0.033383	0.354633
C377	C	-0.232717	-0.046877	0.333300
H378	H	-0.231794	-0.072039	0.296278
H379	H	-0.162137	-0.033416	0.335112
H380	H	-0.282241	-0.100074	0.351260
O381	O	0.411125	-0.769649	-0.518343
C382	C	0.334022	-0.774527	-0.480192
H383	H	0.308145	-0.713152	-0.468874
H384	H	0.279065	-0.838325	-0.489451
H385	H	0.352506	-0.776051	-0.451403
H386	H	-0.283673	0.042875	0.225734
H387	H	-0.005182	-0.254109	-0.622664
O388	O	0.794006	-0.379781	-0.515772
C389	C	0.795515	-0.304602	-0.477111
H390	H	0.726185	-0.313501	-0.450773
H391	H	0.848413	-0.298514	-0.462178
H392	H	0.813169	-0.241003	-0.487119
H393	H	-0.015393	-0.167196	-0.666497
O394	O	-0.024127	-0.146825	-0.732105
C395	C	0.050353	-0.091704	-0.756906
H396	H	0.075435	-0.133820	-0.793206
H397	H	0.028902	-0.035359	-0.757214
H398	H	0.106946	-0.061358	-0.740352
H399	H	-0.047834	-0.232081	-0.882358
H400	H	-0.015274	-0.667410	-0.915397
