data_functionalizedCrystal
_audit_creation_method	'MofGen! by Chris Wilmer'
_symmetry_space_group_name_H-M	'P1'
_symmetry_Int_Tables_number	1
_symmetry_cell_setting	triclinic
loop_
_symmetry_equiv_pos_as_xyz
  x,y,z
_cell_length_a	13.032831
_cell_length_b	21.295417
_cell_length_c	13.033288
_cell_angle_alpha	97.193221
_cell_angle_beta	105.167499
_cell_angle_gamma	82.834379
loop_
_atom_site_label
_atom_site_type_symbol
_atom_site_fract_x
_atom_site_fract_y
_atom_site_fract_z
Zn1	Zn	1.699838	-0.319299	0.806346
Zn2	Zn	1.677156	-0.436393	0.628699
Zn3	Zn	1.499699	-0.319260	0.606236
Zn4	Zn	1.522152	-0.412645	0.783751
O5	O	1.599711	-0.371899	0.706258
O6	O	1.845458	-0.344786	0.801638
O7	O	1.634726	-0.430778	0.477082
O8	O	1.526344	-0.231179	0.632837
O9	O	1.828793	-0.430815	0.671121
O10	O	1.673385	-0.231207	0.779857
O11	O	1.504350	-0.344721	0.460579
O12	O	1.354049	-0.321693	0.610927
O13	O	1.564611	-0.390340	0.935385
O14	O	1.370545	-0.390302	0.741346
O15	O	1.695157	-0.321759	0.951986
O16	O	1.656498	-0.521329	0.649211
O17	O	1.542617	-0.503882	0.763127
C18	C	1.323759	-0.353417	0.671248
C19	C	1.205709	-0.345524	0.656296
C20	C	1.161255	-0.376019	0.714062
C21	C	1.039244	-0.367862	0.698609
C22	C	1.599564	-0.535446	0.706182
C23	C	1.599603	-0.605415	0.706197
C24	C	1.658970	-0.647346	0.646958
C25	C	1.659023	-0.713090	0.646988
C26	C	1.599689	-0.736901	0.706244
C27	C	1.540319	-0.694962	0.765495
C28	C	1.540276	-0.629219	0.765472
N29	N	1.507803	-0.833408	0.702553
N30	N	1.507846	-0.895862	0.702569
C31	C	1.599815	-0.934979	0.706320
N32	N	1.691740	-0.909286	0.710032
N33	N	1.691695	-0.846827	0.710010
C34	C	1.599729	-0.808187	0.706276
C35	C	1.659245	-1.048198	0.647111
C36	C	1.659300	-1.113943	0.647149
C37	C	1.540586	-1.095813	0.765649
C38	C	1.540540	-1.030069	0.765618
C39	C	1.599868	-1.006266	0.706343
C40	C	1.876741	-0.390454	0.741406
C41	C	1.994794	-0.398361	0.756383
C42	C	1.634919	-0.353404	0.983303
C43	C	1.649922	-0.345523	1.101363
C44	C	1.599890	-0.207715	0.706362
C45	C	1.599967	-0.137749	0.706406
C46	C	1.607524	-0.367800	1.267805
C47	C	1.592014	-0.375946	1.145784
C48	C	1.564631	-0.390336	1.430290
C49	C	1.549623	-0.398218	1.312229
H50	H	1.213526	-0.408164	0.774961
H51	H	1.153439	-0.313374	0.595405
C52	C	1.475255	-0.983944	0.830810
N53	N	1.426093	-0.949202	0.879931
C54	C	1.467141	-0.441548	1.241576
N55	N	1.405012	-0.474183	1.188360
C56	C	0.968638	-0.324428	0.616336
N57	N	0.915456	-0.291715	0.554369
C58	C	1.509527	-0.419277	1.075133
N59	N	1.447398	-0.451913	1.021918
C60	C	1.065399	-0.441794	0.838658
N61	N	1.118578	-0.474509	0.900625
H62	H	1.707651	-1.148083	0.598912
H63	H	1.707557	-1.028816	0.598849
H64	H	1.707281	-0.627967	0.598696
C65	C	1.474980	-0.583093	0.830657
N66	N	1.425802	-0.548351	0.879761
H67	H	1.707370	-0.747236	0.598749
C68	C	1.475319	-1.122001	0.830833
N69	N	1.426160	-1.141729	0.879934
C70	C	1.475046	-0.721155	0.830672
N71	N	1.425882	-0.740883	0.879767
C72	C	1.689998	-0.324465	1.338458
N73	N	1.752117	-0.291822	1.391672
H74	H	1.710982	-0.313450	1.153661
