data_functionalizedCrystal
_audit_creation_method	'MofGen! by Chris Wilmer'
_symmetry_space_group_name_H-M	'P1'
_symmetry_Int_Tables_number	1
_symmetry_cell_setting	triclinic
loop_
_symmetry_equiv_pos_as_xyz
  x,y,z
_cell_length_a	19.902436
_cell_length_b	14.628931
_cell_length_c	14.628931
_cell_angle_alpha	89.999882
_cell_angle_beta	60.002575
_cell_angle_gamma	59.994751
loop_
_atom_site_label
_atom_site_type_symbol
_atom_site_fract_x
_atom_site_fract_y
_atom_site_fract_z
Zr1	Zr	0.735486	-0.120060	0.880639
O2	O	0.875666	-0.266039	0.734682
O3	O	0.595305	-0.075296	0.925379
O4	O	0.735486	-0.266021	0.925383
O5	O	0.735485	0.075118	0.734678
O6	O	0.735486	-0.266021	1.075815
O7	O	0.735485	-0.075314	0.734678
O8	O	0.484729	0.075150	1.075808
O9	O	0.986242	-0.266053	0.734685
O10	O	0.652963	-0.056221	1.056730
O11	O	0.652963	0.056045	0.944464
O12	O	0.818008	-0.168508	0.944469
O13	O	0.818007	-0.056242	0.832203
Zr14	Zr	0.735485	0.119862	1.120560
Zr15	Zr	0.735486	-0.120060	1.120560
Zr16	Zr	0.735485	0.119862	0.880639
Zr17	Zr	0.911842	-0.120083	0.880644
Zr18	Zr	0.559128	0.119885	1.120555
O19	O	0.875665	0.075098	1.075820
O20	O	0.875666	-0.266040	1.075819
O21	O	0.875665	0.075099	0.734682
O22	O	0.595305	0.265841	1.266517
O23	O	0.595305	-0.075297	1.266517
O24	O	0.595305	0.265842	0.925380
O25	O	0.735485	-0.075316	1.266521
O26	O	0.735485	0.265823	1.075816
O27	O	0.735485	0.265823	0.925384
O28	O	0.735485	0.075117	1.266521
O29	O	0.986242	-0.266054	0.925390
O30	O	0.484728	0.265856	1.075809
O31	O	0.484728	0.265855	1.266514
O32	O	0.484729	0.075150	1.266514
O33	O	0.986242	-0.075348	0.734685
O34	O	0.986242	-0.075348	0.925391
O35	O	0.652963	0.168310	1.056730
O36	O	0.652963	0.056044	1.168996
O37	O	0.818007	-0.056243	1.056735
O38	O	0.818007	0.056023	0.944469
C39	C	0.514890	-0.000070	1.000593
C40	C	0.440022	-0.000060	1.000591
C41	C	0.735485	-0.000098	0.700494
C42	C	0.735485	-0.000098	0.598641
C43	C	0.735485	0.300007	1.000600
C44	C	0.735484	0.401860	1.000600
C45	C	0.168012	-0.000112	1.000602
C46	C	0.196250	0.071050	0.930126
C47	C	0.274369	0.070757	0.929744
C48	C	0.302959	-0.000086	1.000597
C49	C	0.338523	-0.122085	0.948948
C50	C	0.260685	-0.121710	0.948418
C51	C	0.133497	0.049746	1.122763
C52	C	0.210549	0.052230	1.122584
C53	C	0.379227	-0.000077	1.000594
C54	C	0.091748	-0.000129	1.000601
C55	C	0.956081	-0.000128	1.000606
C56	C	1.030949	-0.000138	1.000608
C57	C	0.735486	-0.300205	1.000599
C58	C	0.735486	-0.402058	1.000599
C59	C	0.817357	0.391567	0.944911
C60	C	0.817359	0.496836	0.944910
C61	C	0.735485	-0.078858	0.553232
C62	C	0.735485	-0.078859	0.447962
C63	C	0.735485	-0.000100	1.300705
C64	C	0.735485	-0.000100	1.402558
C65	C	0.514890	-0.000071	1.300698
C66	C	0.440022	-0.000061	1.402549
C67	C	0.514889	0.300036	1.000594
C68	C	0.440021	0.401899	1.000592
C69	C	0.514889	0.300035	1.300699
C70	C	0.440021	0.401898	1.402550
C71	C	0.956081	-0.300233	0.700500
C72	C	1.030950	-0.402096	0.598649
C73	C	0.956081	-0.000127	0.700501
C74	C	1.030949	-0.000137	0.598650
C75	C	0.956081	-0.300234	1.000605
C76	C	1.030950	-0.402097	1.000607
C77	C	0.404863	-0.058668	1.391778
C78	C	0.334526	-0.058681	1.487468
C79	C	0.299345	-0.000080	1.593929
C80	C	0.334511	0.058528	1.604698
C81	C	0.404851	0.058535	1.509009
C82	C	0.404862	0.508346	1.059192
C83	C	0.334525	0.604066	1.059186
C84	C	0.299344	0.593337	1.000585
C85	C	0.334510	0.486878	0.941977
C86	C	0.404850	0.391160	0.941978
C87	C	0.404862	0.391132	1.508992
C88	C	0.334525	0.486834	1.604701
C89	C	0.299344	0.593300	1.593965
C90	C	0.334509	0.604064	1.487512
C91	C	0.404850	0.508363	1.391806
C92	C	1.066117	-0.391330	0.492207
C93	C	1.136476	-0.487032	0.396498
C94	C	1.171661	-0.593498	0.407234
C95	C	1.136491	-0.604262	0.513687
C96	C	1.066138	-0.508561	0.609393
C97	C	1.066115	0.058460	0.609421
C98	C	1.136471	0.058447	0.513731
C99	C	1.171655	-0.000157	0.407270
C100	C	1.136486	-0.058762	0.396501
C101	C	1.066136	-0.058754	0.492190
C102	C	1.066109	-0.391331	1.059220
C103	C	1.136446	-0.487033	1.059243
C104	C	1.171628	-0.593499	1.000648
C105	C	1.136462	-0.604263	0.942034
C106	C	1.066121	-0.508562	0.942017
H107	H	0.247723	0.160593	0.964388
H108	H	0.665388	0.606588	1.048282
O109	O	0.442813	-0.121894	1.276959
H110	H	0.383766	-0.088044	1.267218
O111	O	1.174441	-0.719096	0.525261
H112	H	1.160936	-0.765485	0.484455
O113	O	0.296547	0.718898	1.475939
H114	H	0.241719	0.783626	1.560379
O115	O	1.028213	-0.520179	0.878780
H116	H	1.064508	-0.610292	0.838031
O117	O	0.735482	-0.168179	0.604958
H118	H	0.799897	-0.251769	0.542821
H119	H	1.228904	-0.671416	1.000670
H120	H	0.305855	0.478158	0.894266
O121	O	0.442757	0.519991	1.277004
H122	H	0.497584	0.435566	1.212246
O123	O	0.442758	0.276353	0.878775
H124	H	0.497586	0.211586	0.888606
H125	H	0.244737	-0.177612	0.996435
H126	H	0.305900	0.478050	1.691371
H127	H	0.887454	0.488199	0.897237
O128	O	1.028168	-0.276507	1.122429
H129	H	0.950567	-0.230094	1.187186
H130	H	0.665391	0.488606	1.048271
O131	O	0.735494	-0.168190	0.396241
H132	H	0.735490	-0.154172	0.321676
O133	O	1.028180	-0.276504	0.480615
H134	H	1.064472	-0.285114	0.390513
O135	O	0.223465	0.696512	1.697202
H136	H	0.204903	0.772360	1.671865
H137	H	0.735490	0.067330	0.441598
O138	O	0.296607	-0.121897	1.475837
H139	H	0.219005	-0.062734	1.516643
O140	O	1.174385	-0.475411	0.281689
H141	H	1.138078	-0.385298	0.290313
H142	H	1.228946	-0.671415	0.329294
H143	H	1.037505	-0.517340	0.696060
H144	H	0.433468	0.106266	1.517795
O145	O	0.442812	0.276306	1.520584
H146	H	0.406548	0.284916	1.610686
H147	H	0.735480	0.067333	0.559588
H148	H	0.305855	0.106239	1.691391
O149	O	1.028187	0.121654	0.724241
H150	H	1.064481	0.162376	0.715637
O151	O	0.223470	-0.000081	1.697135
H152	H	0.204931	-0.050672	1.671748
O153	O	1.174384	0.121674	0.525357
H154	H	1.138080	0.162443	0.615464
O155	O	1.247506	-0.000125	0.304064
H156	H	1.266028	0.050491	0.329451
H157	H	0.887451	0.304821	0.897230
O158	O	0.442804	0.519932	1.122396
H159	H	0.406538	0.610040	1.163127
H160	H	0.338828	0.036188	0.839635
H161	H	1.037506	-0.106468	0.483404
H162	H	0.242068	0.671286	1.000594
H163	H	1.165144	-0.106476	0.309807
O164	O	1.174370	-0.475413	1.122461
H165	H	1.138096	-0.385300	1.163184
H166	H	0.305901	0.690740	1.106916
H167	H	1.165118	-0.690961	0.894326
H168	H	0.222210	0.036773	0.840548
O169	O	0.110802	0.190346	0.975759
H170	H	0.081077	0.228590	1.063907
O171	O	0.299805	-0.174577	0.829349
H172	H	0.320196	-0.125764	0.777499
O173	O	0.366222	-0.195378	1.013652
H174	H	0.354909	-0.145509	1.083474
H175	H	0.065449	0.138203	1.165915
O176	O	0.426969	-0.175105	0.830788
H177	H	0.445790	-0.114820	0.808663
H178	H	0.226155	0.005788	1.179519
O179	O	0.172432	0.171307	1.173685
H180	H	0.219108	0.193146	1.112471
H181	H	0.114640	-0.001839	1.175519
