data_functionalizedCrystal
_audit_creation_method	'MofGen! by Chris Wilmer'
_symmetry_space_group_name_H-M	'P1'
_symmetry_Int_Tables_number	1
_symmetry_cell_setting	triclinic
loop_
_symmetry_equiv_pos_as_xyz
  x,y,z
_cell_length_a	15.537862
_cell_length_b	23.532357
_cell_length_c	14.185569
_cell_angle_alpha	76.926768
_cell_angle_beta	97.877082
_cell_angle_gamma	65.046363
loop_
_atom_site_label
_atom_site_type_symbol
_atom_site_fract_x
_atom_site_fract_y
_atom_site_fract_z
O1	O	1.230251	-0.168054	-0.083335
O2	O	1.730251	0.331946	0.416665
O3	O	0.955335	-0.102144	-0.083360
O4	O	1.455335	0.397856	0.416640
O5	O	1.101113	-0.219728	-0.083326
O6	O	1.601113	0.280272	0.416674
O7	O	1.084473	-0.050470	-0.083369
O8	O	1.584473	0.449530	0.416631
O9	O	1.144177	-0.254460	0.083519
O10	O	1.644177	0.245540	0.583519
O11	O	0.998399	-0.136877	0.083485
O12	O	1.498399	0.363123	0.583485
O13	O	1.273315	-0.202786	0.083510
O14	O	1.773315	0.297214	0.583510
Cu15	Cu	1.139789	-0.173003	0.098732
Cu16	Cu	1.639789	0.326997	0.598732
Cu17	Cu	1.088861	-0.131928	-0.098582
Cu18	Cu	1.588861	0.368072	0.401418
O19	O	1.127537	-0.085203	0.083476
O20	O	1.627537	0.414797	0.583476
C21	C	0.941702	-0.112614	0.000059
C22	C	1.441702	0.387386	0.500059
C23	C	0.836923	-0.092072	0.000050
C24	C	1.336923	0.407928	0.500050
C25	C	1.122230	-0.258227	0.000099
C26	C	1.622230	0.241773	0.500099
C27	C	1.120982	-0.321193	0.000109
C28	C	1.620982	0.178807	0.500109
C29	C	0.677484	-0.008810	0.000025
C30	C	1.177484	0.491190	0.500025
C31	C	0.775941	-0.028119	0.000033
C32	C	1.275941	0.471881	0.500033
C33	C	0.799464	-0.136745	0.000065
C34	C	1.299464	0.363255	0.500065
C35	C	0.701008	-0.117446	0.000062
C36	C	1.201008	0.382554	0.500062
C37	C	0.640025	-0.053478	0.000041
C38	C	1.140025	0.446522	0.500041
C39	C	0.663549	-0.162114	0.000078
C40	C	1.163549	0.337886	0.500078
C41	C	0.565099	-0.142816	0.000070
C42	C	1.065099	0.357184	0.500070
C43	C	0.504109	-0.078850	0.000046
C44	C	1.004109	0.421150	0.500046
C45	C	0.541575	-0.034180	0.000033
C46	C	1.041575	0.465820	0.500033
C47	C	0.724532	-0.226081	0.000092
C48	C	1.224532	0.273919	0.500092
C49	C	0.687073	-0.270749	0.000108
C50	C	1.187073	0.229251	0.500108
C51	C	0.588624	-0.251452	0.000107
C52	C	1.088624	0.248548	0.500107
C53	C	0.527634	-0.187486	0.000083
C54	C	1.027634	0.312514	0.500083
C55	C	0.551158	-0.296123	0.000120
C56	C	1.051158	0.203877	0.500120
C57	C	0.452708	-0.276825	0.000112
C58	C	0.952708	0.223175	0.500112
C59	C	0.429184	-0.168188	0.000075
C60	C	0.929184	0.331812	0.500075
C61	C	1.089643	-0.692664	-0.090893
C62	C	1.589643	-0.192664	0.409107
C63	C	1.088452	-0.751820	-0.090899
C64	C	1.588452	-0.251820	0.409101
O65	O	1.067842	-0.766304	-0.168246
O66	O	1.567842	-0.266304	0.331754
N67	N	1.111337	-0.800344	0.000047
N68	N	1.611337	-0.300344	0.500047
C69	C	1.135403	-0.789707	0.091004
C70	C	1.635403	-0.289707	0.591004
O71	O	1.154758	-0.836412	0.168360
O72	O	1.654758	-0.336412	0.668360
C73	C	1.136587	-0.730549	0.091009
C74	C	1.636587	-0.230549	0.591009
C75	C	1.113710	-0.682030	0.000057
C76	C	1.613710	-0.182030	0.500057
C77	C	1.066767	-0.644146	-0.181837
C78	C	1.566767	-0.144146	0.318163
C79	C	1.067959	-0.584994	-0.181831
C80	C	1.567959	-0.084994	0.318169
C81	C	1.092027	-0.574360	-0.090881
C82	C	1.592027	-0.074360	0.409119
C83	C	1.114902	-0.622878	0.000064
C84	C	1.614902	-0.122878	0.500064
C85	C	1.160646	-0.719911	0.181965
C86	C	1.660646	-0.219911	0.681965
C87	C	1.161827	-0.660747	0.181962
C88	C	1.661827	-0.160747	0.681962
C89	C	1.138950	-0.612228	0.091011
C90	C	1.638950	-0.112228	0.591011
C91	C	1.140162	-0.553092	0.091020
C92	C	1.640162	-0.053092	0.591020
N93	N	1.117278	-0.504569	0.000075
N94	N	1.617278	-0.004569	0.500075
C95	C	1.093210	-0.515203	-0.090876
C96	C	1.593210	-0.015203	0.409124
C97	C	1.132915	-0.913940	0.090987
C98	C	1.632915	-0.413940	0.590987
C99	C	1.131739	-0.973098	0.090984
C100	C	1.631739	-0.473098	0.590984
C101	C	1.084786	-0.935207	-0.090920
C102	C	1.584786	-0.435207	0.409080
C103	C	1.085969	-0.876050	-0.090915
C104	C	1.585969	-0.376050	0.409085
C105	C	1.110031	-0.865416	0.000042
C106	C	1.610031	-0.365416	0.500042
C107	C	1.095716	-0.390981	-0.090856
C108	C	1.595716	0.109019	0.409144
C109	C	1.096914	-0.331827	-0.090842
C110	C	1.596914	0.168173	0.409158
C111	C	1.143862	-0.369722	0.091061
C112	C	1.643862	0.130278	0.591061
C113	C	1.142669	-0.428872	0.091048
C114	C	1.642669	0.071128	0.591048
C115	C	1.118591	-0.439498	0.000081
C116	C	1.618591	0.060502	0.500081
O117	O	1.160759	-0.538562	0.168328
O118	O	1.660759	-0.038562	0.668328
O119	O	1.073846	-0.468490	-0.168219
O120	O	1.573846	0.031510	0.331781
C121	C	1.286947	-0.192316	0.000088
C122	C	1.786947	0.307684	0.500088
C123	C	1.391725	-0.212856	0.000091
C124	C	1.891725	0.287144	0.500091
C125	C	1.106420	-0.046703	0.000048
C126	C	1.606420	0.453297	0.500048
C127	C	1.107666	0.016264	0.000032
C128	C	1.607666	0.516264	0.500032
N129	N	1.175616	-0.201895	0.237511
N130	N	1.675616	0.298105	0.737511
N131	N	1.053042	-0.103042	-0.237361
N132	N	1.553042	0.396958	0.262639
C133	C	0.947782	-0.018183	0.605108
C134	C	1.447782	0.481817	1.105108
C135	C	0.974927	-0.040065	0.710135
C136	C	1.474927	0.459935	1.210135
C137	C	1.104039	-0.144162	0.710127
C138	C	1.604039	0.355838	1.210127
C139	C	1.076901	-0.122289	0.605097
C140	C	1.576901	0.377711	1.105097
C141	C	0.998773	-0.059299	0.552595
C142	C	1.498773	0.440701	1.052595
C143	C	1.127893	-0.163406	0.552584
C144	C	1.627893	0.336594	1.052584
C145	C	1.100761	-0.141533	0.447564
C146	C	1.600761	0.358467	0.947564
C147	C	1.022637	-0.078544	0.395055
C148	C	1.522637	0.421456	0.895055
C149	C	0.971641	-0.037426	0.447574
C150	C	1.471641	0.462574	0.947574
C151	C	1.206025	-0.226394	0.605088
C152	C	1.706025	0.273606	1.105088
C153	C	1.257017	-0.267511	0.552575
C154	C	1.757017	0.232489	1.052575
C155	C	1.229880	-0.245640	0.447553
C156	C	1.729880	0.254360	0.947553
C157	C	1.151757	-0.182651	0.395044
C158	C	1.651757	0.317349	0.895044
C159	C	1.280877	-0.286758	0.395033
C160	C	1.780877	0.213242	0.895033
C161	C	1.253745	-0.264885	0.290012
C162	C	1.753745	0.235115	0.790012
C163	C	1.124625	-0.160779	0.290023
C164	C	1.624625	0.339221	0.790023
H165	H	0.379531	-0.116102	0.000071
H166	H	0.879531	0.383898	0.500071
F167	F	0.864376	-0.204822	0.000087
F168	F	1.364376	0.295178	0.500087
H169	H	1.167654	-0.195449	0.752885
H170	H	1.667654	0.304551	1.252885
H171	H	1.078287	-0.292323	-0.164909
H172	H	1.578287	0.207677	0.335091
H173	H	1.320632	-0.318797	0.595334
H174	H	1.820632	0.181203	1.095334
F175	F	1.156104	-1.024736	0.187787
F176	F	1.656104	-0.524736	0.687787
F177	F	1.043604	-0.533361	-0.278635
F178	F	1.543604	-0.033361	0.221365
H179	H	1.047164	-0.652794	-0.255904
H180	H	1.547164	-0.152794	0.244096
F181	F	0.612580	0.059269	0.000021
F182	F	1.112580	0.559269	0.500021
H183	H	1.181407	-0.652091	0.256032
H184	H	1.681407	-0.152091	0.756032
F185	F	1.061620	-0.824416	-0.187717
F186	F	1.561620	-0.324416	0.312283
F187	F	0.864619	0.048857	0.549229
F188	F	1.364619	0.548857	1.049229
F189	F	1.364033	-0.353792	0.450920
F190	F	1.864033	0.146208	0.950920
F191	F	0.920648	0.003704	0.766016
F192	F	1.420648	0.503704	1.266016
F193	F	0.476671	0.033899	0.000028
F194	F	0.976671	0.533899	0.500028
F195	F	1.184991	-0.771536	0.278770
F196	F	1.684991	-0.271536	0.778770
F197	F	0.815803	0.019429	0.000015
F198	F	1.315803	0.519429	0.500015
H199	H	1.163461	-0.361054	0.165111
H200	H	1.663461	0.138946	0.665111
H201	H	1.000550	-0.060735	0.309540
H202	H	1.500550	0.439265	0.809540
F203	F	1.059165	-0.946533	-0.187719
F204	F	1.559165	-0.446533	0.312281
F205	F	1.234902	-0.249668	0.716862
F206	F	1.734902	0.250332	1.216862
H207	H	1.152513	-0.905289	0.165060
H208	H	1.652513	-0.405289	0.665060
H209	H	1.161305	-0.468382	0.165108
H210	H	1.661305	0.031618	0.665108
F211	F	1.041462	-0.093739	0.234145
F212	F	1.541462	0.406261	0.734145
F213	F	0.399329	-0.058311	0.000033
F214	F	0.899329	0.441689	0.500033
F215	F	0.829310	-0.246617	0.000095
F216	F	1.329310	0.253383	0.500095
H217	H	0.600822	-0.348203	0.000127
H218	H	1.100822	0.151797	0.500127
H219	H	0.736737	-0.322831	0.000122
H220	H	1.236737	0.177169	0.500122
F221	F	0.888478	0.029613	0.391696
F222	F	1.388478	0.529613	0.891696
H223	H	0.422209	-0.313197	0.000123
H224	H	0.922209	0.186803	0.500123
F225	F	1.070089	-0.402281	-0.187673
F226	F	1.570089	0.097719	0.312327
F227	F	1.308019	-0.308646	0.234124
F228	F	1.808019	0.191354	0.734124
