data_functionalizedCrystal
_audit_creation_method	'MofGen! by Chris Wilmer'
_symmetry_space_group_name_H-M	'P1'
_symmetry_Int_Tables_number	1
_symmetry_cell_setting	triclinic
loop_
_symmetry_equiv_pos_as_xyz
  x,y,z
_cell_length_a	13.032831
_cell_length_b	13.032721
_cell_length_c	13.032268
_cell_angle_alpha	103.289627
_cell_angle_beta	90.886977
_cell_angle_gamma	90.902885
loop_
_atom_site_label
_atom_site_type_symbol
_atom_site_fract_x
_atom_site_fract_y
_atom_site_fract_z
Zn1	Zn	1.399428	-0.702884	-0.857492
Zn2	Zn	1.399318	-0.857952	-0.702424
Zn3	Zn	1.255414	-0.659406	-0.658991
Zn4	Zn	1.206359	-0.852325	-0.851935
O5	O	1.315130	-0.768142	-0.767710
O6	O	1.540438	-0.744005	-0.857424
O7	O	1.400712	-0.815774	-0.551018
O8	O	1.295093	-0.519539	-0.669471
O9	O	1.540357	-0.857933	-0.743496
O10	O	1.400900	-0.551483	-0.815309
O11	O	1.294986	-0.669903	-0.519108
O12	O	1.107882	-0.664446	-0.664083
O13	O	1.211487	-0.848342	-0.998317
O14	O	1.071842	-0.806183	-0.805839
O15	O	1.353334	-0.738549	-1.002399
O16	O	1.353146	-1.002840	-0.738108
O17	O	1.211380	-0.998706	-0.847953
C18	C	1.053296	-0.729987	-0.729646
C19	C	0.941275	-0.713692	-0.713389
C20	C	0.873527	-0.776647	-0.776195
C21	C	0.757747	-0.759806	-0.759394
C22	C	1.276952	-1.038540	-0.797167
C23	C	1.260707	-1.154235	-0.809817
C24	C	1.323655	-1.207840	-0.761163
C25	C	1.306867	-1.327417	-0.774236
C26	C	1.577986	-0.806447	-0.805925
C27	C	1.690000	-0.822770	-0.822209
C28	C	1.276951	-0.797668	-1.039178
C29	C	1.260681	-0.810250	-1.154861
C30	C	1.353481	-0.496694	-0.738165
C31	C	1.369823	-0.381019	-0.725575
C32	C	1.323611	-0.761535	-1.208456
C33	C	1.306797	-0.774538	-1.328021
C34	C	1.353229	-0.738664	-0.497299
C35	C	1.369735	-0.725817	-0.381613
H36	H	0.730039	-0.693432	-0.693185
C37	C	1.514248	-0.613954	-1.396499
C38	C	1.459278	-0.656511	-1.324079
H39	H	1.569522	-0.571163	-1.360977
H40	H	1.540469	-0.669493	-1.449435
H41	H	1.470032	-0.572328	-1.428187
H42	H	1.503493	-0.698143	-1.292397
H43	H	1.433057	-0.600963	-1.271125
H44	H	0.717707	-0.889135	-0.888428
H45	H	1.194352	-0.861574	-1.197492
H46	H	0.901241	-0.843009	-0.842407
C47	C	0.796417	-0.624776	-0.624643
C48	C	0.903874	-0.624110	-0.623992
H49	H	0.773332	-0.569478	-0.569444
H50	H	0.771526	-0.614761	-0.690459
H51	H	0.771519	-0.690538	-0.614451
H52	H	0.928772	-0.558351	-0.634192
H53	H	0.928775	-0.634117	-0.558161
H54	H	1.389980	-1.165210	-0.709834
H55	H	1.240544	-1.370047	-0.825578
H56	H	1.436153	-1.338392	-0.674242
H57	H	1.240463	-0.825867	-1.370647
C58	C	1.171870	-1.319097	-0.878653
C59	C	1.171172	-1.211778	-0.879118
H60	H	1.116589	-1.354616	-0.921433
H61	H	1.234946	-1.348312	-0.905707
H62	H	1.164532	-1.327145	-0.808504
H63	H	1.178517	-1.203730	-0.949267
H64	H	1.108081	-1.182554	-0.852069
H65	H	1.389932	-0.710199	-1.165823
