data_functionalizedCrystal
_audit_creation_method	'MofGen! by Chris Wilmer'
_symmetry_space_group_name_H-M	'P1'
_symmetry_Int_Tables_number	1
_symmetry_cell_setting	triclinic
loop_
_symmetry_equiv_pos_as_xyz
  x,y,z
_cell_length_a	7.088929
_cell_length_b	8.559649
_cell_length_c	8.559649
_cell_angle_alpha	110.221336
_cell_angle_beta	84.655815
_cell_angle_gamma	84.674985
loop_
_atom_site_label
_atom_site_type_symbol
_atom_site_fract_x
_atom_site_fract_y
_atom_site_fract_z
O1	O	-0.158958	-2.108185	-0.036318
O2	O	-0.158965	-1.632699	0.047464
O3	O	-0.158959	-1.912333	-0.232170
O4	O	-0.158964	-1.828551	0.243315
O5	O	0.159017	-1.949712	-0.269616
O6	O	0.159011	-1.670079	0.010018
O7	O	0.159018	-2.145564	-0.073764
Cu8	Cu	0.188048	-1.911235	-0.035292
Cu9	Cu	-0.187995	-1.867029	0.008992
O10	O	0.159012	-1.865931	0.205870
C11	C	0.000022	-1.591080	0.035090
C12	C	0.000019	-1.411380	0.053990
N13	N	0.452537	-1.942338	-0.066441
C14	C	0.000026	-1.937372	-0.311201
C15	C	0.000015	-1.956269	-0.490899
N16	N	-0.452484	-1.835940	0.040127
C17	C	0.000027	-2.187183	-0.061390
C18	C	0.000017	-2.366881	-0.080288
C19	C	0.000023	-1.840892	0.284902
C20	C	0.000021	-1.821992	0.464601
H21	H	0.465867	-1.725671	0.150562
O22	O	0.549732	-2.073837	-0.198387
C23	C	0.501004	-2.061220	-0.349971
H24	H	0.355630	-1.981671	-0.325052
H25	H	0.613638	-1.999690	-0.403305
C26	C	0.670551	-2.335718	-0.507774
C27	C	0.491993	-2.238025	-0.477170
H28	H	0.665001	-2.444778	-0.586241
H29	H	0.703388	-2.344216	-0.405651
H30	H	0.764394	-2.284423	-0.552211
H31	H	0.398159	-2.289309	-0.432715
H32	H	0.459141	-2.229539	-0.579290
H33	H	0.000009	-1.466259	-0.209706
H34	H	0.000007	-1.311991	0.183419
H35	H	0.000025	-1.692573	-0.436021
H36	H	0.000033	-2.085699	-0.590290
