data_functionalizedCrystal
_audit_creation_method	'MofGen! by Chris Wilmer'
_symmetry_space_group_name_H-M	'P1'
_symmetry_Int_Tables_number	1
_symmetry_cell_setting	triclinic
loop_
_symmetry_equiv_pos_as_xyz
  x,y,z
_cell_length_a	9.065218
_cell_length_b	12.996460
_cell_length_c	9.065215
_cell_angle_alpha	89.999293
_cell_angle_beta	85.015291
_cell_angle_gamma	90.006338
loop_
_atom_site_label
_atom_site_type_symbol
_atom_site_fract_x
_atom_site_fract_y
_atom_site_fract_z
O1	O	1.960404	0.085567	0.216347
O2	O	2.460404	0.585567	0.716347
O3	O	1.531119	0.085568	0.234094
O4	O	2.031119	0.585568	0.734094
O5	O	1.754637	0.085563	0.010578
O6	O	2.254637	0.585563	0.510578
O7	O	1.736886	0.085572	0.439863
O8	O	2.236886	0.585572	0.939863
O9	O	1.754608	-0.085570	0.010590
O10	O	2.254608	0.414430	0.510590
O11	O	1.531090	-0.085565	0.234106
O12	O	2.031090	0.414435	0.734106
O13	O	1.960375	-0.085567	0.216360
O14	O	2.460375	0.414433	0.716360
Cu15	Cu	1.745730	-0.101192	0.225234
Cu16	Cu	2.245730	0.398808	0.725234
Cu17	Cu	1.745764	0.101194	0.225219
Cu18	Cu	2.245764	0.601194	0.725219
O19	O	1.736857	-0.085562	0.439876
O20	O	2.236857	0.414438	0.939876
C21	C	1.476118	0.000002	0.232394
C22	C	1.976118	0.500002	0.732394
C23	C	1.312275	0.000002	0.227295
C24	C	1.812275	0.500002	0.727295
N25	N	1.745716	-0.243539	0.225244
N26	N	2.245716	0.256461	0.725244
C27	C	1.745723	-0.336645	0.225248
C28	C	2.245723	0.163355	0.725248
C29	C	1.745737	-0.453450	0.225238
C30	C	2.245737	0.046550	0.725238
C31	C	1.745755	-0.546548	0.225222
C32	C	2.245755	-0.046548	0.725222
C33	C	1.745771	-0.663361	0.225214
C34	C	2.245771	-0.163361	0.725214
C35	C	2.015376	0.000002	0.218059
C36	C	2.515376	0.500002	0.718059
C37	C	2.179219	0.000009	0.223159
C38	C	2.679219	0.500009	0.723159
C39	C	1.752917	-0.000002	-0.044403
C40	C	2.252917	0.499998	0.455597
C41	C	1.747819	0.000001	-0.208246
C42	C	2.247819	0.500001	0.291754
N43	N	1.745789	0.243541	0.225198
N44	N	2.245789	0.743541	0.725198
C45	C	1.738576	0.000007	0.494856
C46	C	2.238576	0.500007	0.994856
C47	C	1.743674	0.000010	0.658699
C48	C	2.243674	0.500010	1.158699
