data_functionalizedCrystal
_audit_creation_method	'MofGen! by Chris Wilmer'
_symmetry_space_group_name_H-M	'P1'
_symmetry_Int_Tables_number	1
_symmetry_cell_setting	triclinic
loop_
_symmetry_equiv_pos_as_xyz
  x,y,z
_cell_length_a	10.540539
_cell_length_b	10.540510
_cell_length_c	9.798715
_cell_angle_alpha	90.000907
_cell_angle_beta	90.001400
_cell_angle_gamma	84.519401
loop_
_atom_site_label
_atom_site_type_symbol
_atom_site_fract_x
_atom_site_fract_y
_atom_site_fract_z
O1	O	1.685866	0.178900	0.113419
O2	O	1.316452	0.195757	0.113435
O3	O	1.509607	0.002620	0.113426
O4	O	1.492711	0.372037	0.113427
O5	O	1.509593	0.002618	-0.113557
O6	O	1.316438	0.195755	-0.113548
O7	O	1.685853	0.178899	-0.113564
Zn8	Zn	1.501143	0.187327	-0.149594
Zn9	Zn	1.501161	0.187329	0.149465
O10	O	1.492698	0.372036	-0.113555
C11	C	1.269142	0.194492	-0.000054
C12	C	1.128194	0.190710	-0.000048
C13	C	0.944783	0.045791	-0.000579
C14	C	1.091401	0.049624	-0.000053
C15	C	1.066522	0.258607	0.129565
C16	C	0.919978	0.253792	0.129660
C17	C	0.919474	0.256660	-0.128461
C18	C	1.066456	0.257960	-0.130161
C19	C	1.508341	-0.044685	-0.000063
C20	C	1.504574	-0.185635	-0.000054
C21	C	1.638758	-0.403090	-0.000580
C22	C	1.642776	-0.256495	-0.000061
C23	C	1.433836	-0.230392	0.129564
C24	C	1.430797	-0.377153	0.129666
C25	C	1.427903	-0.376964	-0.128455
C26	C	1.434458	-0.230623	-0.130162
C27	C	1.733163	0.180164	-0.000072
C28	C	1.874110	0.183946	-0.000069
C29	C	1.493964	0.419340	-0.000063
C30	C	1.497731	0.560290	-0.000063
N31	N	1.501141	0.187325	-0.353694
C32	C	1.582442	0.106056	-0.578629
C33	C	1.582425	0.106058	-0.421466
N34	N	1.501174	0.187321	0.353565
H35	H	0.916198	-0.009947	-0.093532
O36	O	0.856400	0.388183	0.137469
H37	H	0.886248	0.434068	0.232661
O38	O	1.299069	-0.167619	0.135981
H39	H	1.281038	-0.103696	0.046642
O40	O	1.408991	0.279503	-0.430928
H41	H	1.426066	0.378634	-0.403565
H42	H	1.692295	-0.446595	0.091846
H43	H	1.698125	-0.227151	-0.092975
H44	H	1.482972	-0.199535	0.226021
H45	H	0.914587	-0.009709	0.091856
H46	H	1.431589	0.256901	-0.588136
H47	H	1.133157	-0.004175	0.093020
O48	O	0.882611	0.187298	0.257977
H49	H	0.969173	0.158874	0.319376
O50	O	1.096118	0.395847	0.135980
H51	H	1.155244	0.417168	0.046644
O52	O	1.485762	-0.433165	-0.258599
H53	H	1.476873	-0.537232	-0.260467
O54	O	1.147863	-0.021124	-0.123131
H55	H	1.070451	-0.058399	-0.183560
O56	O	1.122924	0.196131	0.257349
H57	H	1.194863	0.116736	0.228873
O58	O	1.710098	-0.458653	-0.123703
H59	H	1.743471	-0.380399	-0.185982
O60	O	0.877719	0.196171	-0.258609
H61	H	0.824160	0.113597	-0.233229
H62	H	1.479150	-0.417368	0.226553
H63	H	1.107418	0.208359	-0.226048
H64	H	1.090671	0.360820	-0.137986
H65	H	0.872236	0.358565	-0.129337
O66	O	1.674590	0.013885	-0.344246
H67	H	1.657513	-0.085247	-0.371602
H68	H	1.327430	-0.400148	0.135543
O69	O	1.716511	-0.218846	0.123231
H70	H	1.749424	-0.305395	0.182723
O71	O	1.290462	-0.406318	-0.129615
H72	H	1.227269	-0.315890	-0.126271
H73	H	1.333559	-0.181556	-0.137984
O74	O	1.502616	-0.192716	-0.257192
H75	H	1.586080	-0.142038	-0.227802
H76	H	1.652037	0.036485	-0.636927
