data_functionalizedCrystal
_audit_creation_method	'MofGen! by Chris Wilmer'
_symmetry_space_group_name_H-M	'P1'
_symmetry_Int_Tables_number	1
_symmetry_cell_setting	triclinic
loop_
_symmetry_equiv_pos_as_xyz
  x,y,z
_cell_length_a	11.026607
_cell_length_b	15.944551
_cell_length_c	10.065875
_cell_angle_alpha	98.788968
_cell_angle_beta	79.302338
_cell_angle_gamma	96.042377
loop_
_atom_site_label
_atom_site_type_symbol
_atom_site_fract_x
_atom_site_fract_y
_atom_site_fract_z
O1	O	1.627949	0.342077	-0.113512
O2	O	1.274640	0.302024	-0.113511
O3	O	1.460941	0.201235	-0.113499
O4	O	1.441648	0.442866	-0.113524
O5	O	1.425416	0.220553	0.113487
O6	O	1.239115	0.321342	0.113475
O7	O	1.592424	0.361394	0.113475
Zn8	Zn	1.410129	0.344435	0.149514
Zn9	Zn	1.456935	0.318983	-0.149550
O10	O	1.406123	0.462183	0.113463
C11	C	1.211666	0.304294	-0.000018
C12	C	1.076950	0.282267	-0.000017
C13	C	1.442377	0.179479	-0.000006
C14	C	1.439975	0.085870	-0.000005
C15	C	1.003150	0.343086	-0.000024
C16	C	0.863914	0.320322	-0.000024
C17	C	1.318759	-0.147313	-0.000024
C18	C	1.357533	-0.190296	0.111894
C19	C	1.435632	-0.085514	-0.000015
C20	C	1.392586	-0.209321	-0.111896
C21	C	1.431429	-0.251063	-0.000031
C22	C	1.474424	-0.127256	0.111995
C23	C	1.509476	-0.146286	-0.111896
C24	C	1.548331	-0.189236	0.000049
C25	C	1.438050	0.009855	-0.000005
C26	C	1.429019	-0.346429	-0.000032
C27	C	1.655399	0.359124	-0.000022
C28	C	1.790116	0.381150	-0.000031
C29	C	1.424687	0.483939	-0.000034
C30	C	1.427090	0.577548	-0.000043
N31	N	1.378194	0.361806	0.353617
N32	N	1.488879	0.301607	-0.353654
C33	C	1.445816	0.325021	0.421401
C34	C	1.421248	0.338398	0.578566
H35	H	1.043047	0.412009	-0.000024
C36	C	1.270745	-0.216683	0.239715
N37	N	1.205370	-0.236557	0.335985
C38	C	1.521118	-0.079275	0.239964
N39	N	1.556281	-0.043134	0.336352
H40	H	0.830005	0.450078	-0.000029
C41	C	1.591677	0.245681	0.567570
N42	N	1.669106	0.203562	0.508234
C43	C	1.023056	0.189153	-0.000008
N44	N	0.982465	0.119018	-0.000003
C45	C	1.275404	0.417730	0.432402
N46	N	1.197979	0.459852	0.491741
C47	C	0.810026	0.227204	-0.000015
N48	N	0.769435	0.157068	-0.000010
C49	C	1.187681	-0.122106	0.000129
N50	N	1.088956	-0.103117	0.000253
H51	H	1.645418	-0.207712	0.000112
H52	H	1.573676	-0.126742	-0.206519
H53	H	1.345156	0.379794	0.636882
C54	C	1.345783	-0.257434	-0.239718
N55	N	1.310522	-0.293668	-0.335988
H56	H	1.521895	0.283620	0.363081
