data_functionalizedCrystal
_audit_creation_method	'MofGen! by Chris Wilmer'
_symmetry_space_group_name_H-M	'P1'
_symmetry_Int_Tables_number	1
_symmetry_cell_setting	triclinic
loop_
_symmetry_equiv_pos_as_xyz
  x,y,z
_cell_length_a	12.996460
_cell_length_b	16.109301
_cell_length_c	16.109301
_cell_angle_alpha	83.461481
_cell_angle_beta	90.007591
_cell_angle_gamma	89.998305
loop_
_atom_site_label
_atom_site_type_symbol
_atom_site_fract_x
_atom_site_fract_y
_atom_site_fract_z
O1	O	-0.085505	-1.103127	-0.106869
O2	O	-0.085522	-0.861065	-0.120169
O3	O	-0.085503	-0.988746	0.007512
O4	O	-0.085524	-0.975447	-0.234550
O5	O	0.085631	-0.988744	0.007520
O6	O	0.085612	-0.861063	-0.120160
O7	O	0.085629	-1.103125	-0.106861
Cu8	Cu	0.101246	-0.982094	-0.113510
Cu9	Cu	-0.101139	-0.982097	-0.113520
O10	O	0.085609	-0.975445	-0.234542
C11	C	0.000043	-0.830090	-0.119626
C12	C	0.000037	-0.737794	-0.118011
N13	N	-0.243486	-0.982099	-0.113521
C14	C	0.000065	-0.988206	0.038491
C15	C	0.000066	-0.986591	0.130786
C16	C	-0.663301	-0.982095	-0.113513
C17	C	-0.546496	-0.982093	-0.113517
C18	C	-0.453397	-0.982096	-0.113516
C19	C	-0.336585	-0.982096	-0.113522
N20	N	0.243593	-0.982098	-0.113502
C21	C	0.000062	-1.134101	-0.107404
C22	C	0.000061	-1.226397	-0.109019
C23	C	0.000042	-0.515522	-0.190018
C24	C	0.000049	-0.428801	-0.188494
C25	C	0.000059	-0.448676	-0.037006
C26	C	0.000059	-0.535394	-0.038530
C27	C	0.000046	-0.568815	-0.115039
C28	C	0.000052	-0.395376	-0.111990
C29	C	0.000059	-0.301350	-0.110337
C30	C	0.000041	-0.662847	-0.116693
C31	C	0.000040	-0.975984	-0.265521
C32	C	0.000032	-0.977600	-0.357816
C33	C	0.000055	-1.058599	0.353059
C34	C	0.000046	-1.057075	0.439779
C35	C	0.000040	-0.905586	0.419905
C36	C	0.000041	-0.907111	0.333186
C37	C	0.000054	-0.983620	0.299766
C38	C	0.000044	-0.980571	0.473205
C39	C	0.000035	-0.978918	0.567231
C40	C	0.000061	-0.985273	0.205734
H41	H	0.000048	-0.385413	-0.249550
F42	F	0.000032	-0.551087	-0.271446
F43	F	0.000068	-0.413100	0.044416
H44	H	0.000063	-1.120897	0.325851
F45	F	0.000045	-1.136878	0.496495
H46	H	0.000065	-0.578788	0.022530
F47	F	0.000026	-0.824164	0.455481
H48	H	0.000037	-0.846050	0.289792
