data_functionalizedCrystal
_audit_creation_method	'MofGen! by Chris Wilmer'
_symmetry_space_group_name_H-M	'P1'
_symmetry_Int_Tables_number	1
_symmetry_cell_setting	triclinic
loop_
_symmetry_equiv_pos_as_xyz
  x,y,z
_cell_length_a	10.654583
_cell_length_b	11.892095
_cell_length_c	10.654551
_cell_angle_alpha	86.070228
_cell_angle_beta	95.508054
_cell_angle_gamma	86.057039
loop_
_atom_site_label
_atom_site_type_symbol
_atom_site_fract_x
_atom_site_fract_y
_atom_site_fract_z
O1	O	-1.675790	0.094146	0.168628
O2	O	-1.310314	0.094115	0.185393
O3	O	-1.501454	0.094132	-0.005728
O4	O	-1.484650	0.094129	0.359748
O5	O	-1.485517	-0.093877	0.010182
O6	O	-1.294377	-0.093894	0.201303
O7	O	-1.659853	-0.093863	0.184538
Zn8	Zn	-1.474584	-0.123729	0.195447
Zn9	Zn	-1.495582	0.123981	0.174484
O10	O	-1.468713	-0.093880	0.375659
C11	C	-1.255548	0.000107	0.192109
C12	C	-1.116106	0.000095	0.188401
N13	N	-1.460263	-0.292784	0.209753
C14	C	-1.041889	-0.102383	0.195344
C15	C	-0.910869	-0.102370	0.191868
C16	C	-0.928294	0.102608	0.174512
C17	C	-1.059313	0.102594	0.177979
C18	C	-1.031826	-0.220725	0.205369
C19	C	-0.900807	-0.220712	0.201894
C20	C	-1.609567	-0.529419	0.060549
C21	C	-1.599566	-0.647762	0.070558
C22	C	-1.430254	-0.647815	0.239772
C23	C	-1.440255	-0.529472	0.229764
C24	C	-1.529916	-0.470278	0.140150
C25	C	-1.539923	-0.351933	0.130148
C26	C	-1.370606	-0.351988	0.299356
C27	C	-1.360604	-0.470331	0.309365
C28	C	-0.714620	0.000137	0.177804
C29	C	-0.854067	0.000122	0.181459
C30	C	-1.492252	0.000130	-0.044571
C31	C	-1.488560	0.000137	-0.184015
N32	N	-1.509913	0.293036	0.160168
C33	C	-1.495515	0.102619	-0.258200
C34	C	-1.492034	0.102613	-0.389221
C35	C	-1.474648	-0.102364	-0.371860
C36	C	-1.478120	-0.102358	-0.240841
C37	C	-1.505558	0.220961	-0.268225
C38	C	-1.502077	0.220956	-0.399246
C39	C	-1.477915	0.000125	0.414502
C40	C	-1.481608	0.000125	0.553945
H41	H	-1.119739	0.186041	0.172306
H42	H	-1.305752	-0.303823	0.364176
Cl43	Cl	-1.365470	0.277646	-0.449721
Cl44	Cl	-0.850271	-0.277650	0.065423
Cl45	Cl	-1.642021	0.291107	-0.476646
Cl46	Cl	-1.461522	-0.231208	-0.443306
Cl47	Cl	-0.856890	0.231456	0.161396
H48	H	-1.600269	0.257687	-0.241756
H49	H	-1.074233	-0.266168	0.122424
H50	H	-1.422621	0.266397	-0.225800
Cl51	Cl	-1.072693	-0.277416	0.351583
Cl52	Cl	-1.317532	-0.722241	0.352409
Cl53	Cl	-1.652640	-0.277520	0.017496
Cl54	Cl	-0.823390	-0.290856	0.341826
Cl55	Cl	-1.469335	-0.231197	-0.147578
H56	H	-1.682581	-0.481222	-0.012409
Cl57	Cl	-1.699700	-0.722107	-0.029519
H58	H	-1.287601	-0.518540	0.382323
