data_functionalizedCrystal
_audit_creation_method	'MofGen! by Chris Wilmer'
_symmetry_space_group_name_H-M	'P1'
_symmetry_Int_Tables_number	1
_symmetry_cell_setting	triclinic
loop_
_symmetry_equiv_pos_as_xyz
  x,y,z
_cell_length_a	11.792241
_cell_length_b	10.268362
_cell_length_c	14.519709
_cell_angle_alpha	89.993769
_cell_angle_beta	96.063220
_cell_angle_gamma	90.000374
loop_
_atom_site_label
_atom_site_type_symbol
_atom_site_fract_x
_atom_site_fract_y
_atom_site_fract_z
O1	O	-1.506208	-0.108177	0.126405
O2	O	-1.175795	-0.108207	0.139432
O3	O	-1.349762	-0.108180	-0.001288
O4	O	-1.332241	-0.108205	0.267125
O5	O	-1.349747	0.108421	-0.001294
O6	O	-1.175780	0.108393	0.139426
O7	O	-1.506193	0.108424	0.126399
Cu8	Cu	-1.340985	0.128186	0.132912
Cu9	Cu	-1.341003	-0.127969	0.132919
O10	O	-1.332226	0.108396	0.267119
C11	C	-1.133501	0.000089	0.138611
C12	C	-1.007501	0.000078	0.136161
C13	C	-1.348938	0.000121	-0.035654
C14	C	-1.346491	0.000121	-0.138044
C15	C	-1.548487	0.000124	0.127220
C16	C	-1.674487	0.000127	0.129669
N17	N	-1.340981	0.308352	0.132906
C18	C	-0.776813	0.000116	0.131657
C19	C	-0.905185	0.000095	0.134160
N20	N	-1.341016	-0.308135	0.132917
C21	C	-1.340997	0.574022	0.132917
C22	C	-1.340984	0.426184	0.132914
C23	C	-1.337483	0.000087	-0.512973
C24	C	-1.339984	0.000097	-0.408656
C25	C	-1.341987	0.000105	-0.325512
C26	C	-1.344489	0.000113	-0.221188
C27	C	-1.333050	0.000093	0.301484
C28	C	-1.335497	0.000084	0.403875
