data_functionalizedCrystal
_audit_creation_method	'MofGen! by Chris Wilmer'
_symmetry_space_group_name_H-M	'P1'
_symmetry_Int_Tables_number	1
_symmetry_cell_setting	triclinic
loop_
_symmetry_equiv_pos_as_xyz
  x,y,z
_cell_length_a	14.971486
_cell_length_b	10.654550
_cell_length_c	14.048226
_cell_angle_alpha	89.994756
_cell_angle_beta	89.998499
_cell_angle_gamma	84.049516
loop_
_atom_site_label
_atom_site_type_symbol
_atom_site_fract_x
_atom_site_fract_y
_atom_site_fract_z
O1	O	1.187838	0.163659	-0.079049
O2	O	1.687838	0.663659	0.420951
O3	O	0.927544	0.183257	-0.079074
O4	O	1.427544	0.683257	0.420926
O5	O	1.063675	-0.009345	-0.079057
O6	O	1.563675	0.490655	0.420943
O7	O	1.051706	0.356262	-0.079066
O8	O	1.551706	0.856262	0.420934
O9	O	1.063659	-0.009357	0.079264
O10	O	1.563659	0.490643	0.579264
O11	O	0.927527	0.183246	0.079247
O12	O	1.427527	0.683246	0.579247
O13	O	1.187821	0.163648	0.079273
O14	O	1.687821	0.663648	0.579273
Zn15	Zn	1.057672	0.173445	0.104397
Zn16	Zn	1.557672	0.673445	0.604397
Zn17	Zn	1.057693	0.173460	-0.104198
Zn18	Zn	1.557693	0.673460	0.395802
O19	O	1.051690	0.356250	0.079256
O20	O	1.551690	0.856250	0.579256
C21	C	0.894206	0.182375	0.000083
C22	C	1.394206	0.682375	0.500083
C23	C	0.794895	0.179749	0.000073
C24	C	1.294895	0.679749	0.500073
C25	C	0.738285	0.292898	0.000072
C26	C	1.238285	0.792898	0.500072
C27	C	0.644972	0.290422	0.000086
C28	C	1.144972	0.790422	0.500086
C29	C	0.608271	0.174797	0.000095
C30	C	1.108271	0.674797	0.500095
C31	C	0.664888	0.061639	0.000099
C32	C	1.164888	0.561639	0.500099
C33	C	0.758199	0.064116	0.000092
C34	C	1.258199	0.564116	0.500092
C35	C	0.470397	0.056485	0.000112
C36	C	0.970397	0.556485	0.500112
C37	C	0.377080	0.054007	0.000118
C38	C	0.877080	0.554007	0.500118
C39	C	0.357171	0.282791	0.000107
C40	C	0.857171	0.782791	0.500107
C41	C	0.450482	0.285268	0.000100
C42	C	0.950482	0.785268	0.500100
C43	C	0.507092	0.172110	0.000102
C44	C	1.007092	0.672110	0.500102
C45	C	1.062788	-0.056139	0.000102
C46	C	1.562788	0.443861	0.500102
C47	C	1.060159	-0.195555	0.000099
C48	C	1.560159	0.304445	0.500099
C49	C	1.140311	-0.275900	0.000109
C50	C	1.640311	0.224100	0.500109
C51	C	1.137835	-0.406894	0.000102
C52	C	1.637835	0.093106	0.500102
C53	C	0.975048	-0.377185	0.000078
C54	C	1.475048	0.122815	0.500078
C55	C	0.977525	-0.246193	0.000078
C56	C	1.477525	0.253807	0.500078
C57	C	1.222945	-0.225262	0.000130
C58	C	1.722945	0.274738	0.500130
C59	C	1.303104	-0.305609	0.000142
C60	C	1.803104	0.194391	0.500142
C61	C	1.300628	-0.436603	0.000135
C62	C	1.800628	0.063397	0.500135
C63	C	1.217993	-0.487250	0.000116
C64	C	1.717993	0.012750	0.500116
C65	C	1.221159	0.164530	0.000113
C66	C	1.721159	0.664530	0.500113
C67	C	1.320470	0.167156	0.000117
C68	C	1.820470	0.667156	0.500117
C69	C	1.052577	0.403044	0.000094
C70	C	1.552577	0.903044	0.500094
C71	C	1.055206	0.542460	0.000092
C72	C	1.555206	1.042460	0.500092
N73	N	1.057663	0.173434	0.246758
N74	N	1.557663	0.673434	0.746758
N75	N	1.057709	0.173461	-0.246559
N76	N	1.557709	0.673461	0.253441
C77	C	1.117962	0.088185	0.296583
C78	C	1.617962	0.588185	0.796583
C79	C	1.117968	0.088184	0.396241
C80	C	1.617968	0.588184	0.896241
C81	C	1.057679	0.173440	0.446071
C82	C	1.557679	0.673440	0.946071
C83	C	0.997374	0.258693	0.396238
C84	C	1.497374	0.758693	0.896238
C85	C	0.997365	0.258687	0.296583
C86	C	1.497365	0.758687	0.796583
C87	C	0.997400	0.258702	0.603953
C88	C	1.497400	0.758702	1.103953
C89	C	0.997411	0.258710	0.703615
C90	C	1.497411	0.758710	1.203615
C91	C	1.118003	0.088200	0.703611
C92	C	1.618003	0.588200	1.203611
C93	C	1.117993	0.088193	0.603955
C94	C	1.617993	0.588193	1.103955
C95	C	1.057690	0.173448	0.554129
C96	C	1.557690	0.673448	1.054129
H97	H	0.768160	0.387053	0.000064
H98	H	1.268160	0.887053	0.500064
F99	F	1.391044	-0.251704	0.000151
F100	F	1.891044	0.248296	0.500151
H101	H	0.948281	0.328105	0.436816
H102	H	1.448281	0.828105	0.936816
F103	F	0.933241	0.349450	0.756642
F104	F	1.433241	0.849450	1.256642
F105	F	0.625825	-0.061419	0.000114
F106	F	1.125825	0.438581	0.500114
F107	F	1.182142	-0.002549	0.449269
F108	F	1.682142	0.497451	0.949269
F109	F	1.385938	-0.522110	0.000137
F110	F	1.885938	-0.022110	0.500137
H111	H	1.215983	-0.593916	0.000100
H112	H	1.715983	-0.093916	0.500100
F113	F	1.225587	-0.085848	0.000140
F114	F	1.725587	0.414152	0.500140
F115	F	0.530645	-0.063952	0.000118
F116	F	1.030645	0.436048	0.500118
H117	H	0.804290	-0.028022	0.000092
H118	H	1.304290	0.471978	0.500092
H119	H	1.167059	0.018765	0.256018
H120	H	1.667059	0.518765	0.756018
F121	F	0.887109	-0.431092	0.000059
F122	F	1.387109	0.068908	0.500059
F123	F	0.892218	-0.160679	0.000066
F124	F	1.392218	0.339321	0.500066
F125	F	1.182163	-0.002537	0.550921
F126	F	1.682163	0.497463	1.050921
F127	F	1.182183	-0.002533	0.756643
F128	F	1.682183	0.497467	1.256643
F129	F	0.933184	0.349417	0.243556
F130	F	1.433184	0.849417	0.743556
F131	F	0.584728	0.410851	0.000081
F132	F	1.084728	0.910851	0.500081
F133	F	0.489540	0.408329	0.000081
F134	F	0.989540	0.908329	0.500081
F135	F	0.933214	0.349438	0.550929
F136	F	1.433214	0.849438	1.050929
F137	F	0.338021	-0.069054	0.000152
F138	F	0.838021	0.430946	0.500152
F139	F	0.296921	0.403223	0.000106
F140	F	0.796921	0.903223	0.500106
