data_functionalizedCrystal
_audit_creation_method	'MofGen! by Chris Wilmer'
_symmetry_space_group_name_H-M	'P1'
_symmetry_Int_Tables_number	1
_symmetry_cell_setting	triclinic
loop_
_symmetry_equiv_pos_as_xyz
  x,y,z
_cell_length_a	17.038272
_cell_length_b	17.019294
_cell_length_c	12.503572
_cell_angle_alpha	89.649141
_cell_angle_beta	86.232200
_cell_angle_gamma	87.244363
loop_
_atom_site_label
_atom_site_type_symbol
_atom_site_fract_x
_atom_site_fract_y
_atom_site_fract_z
O1	O	1.042504	0.166299	-0.104564
O2	O	0.814865	0.163590	-0.104345
O3	O	0.934502	0.051040	-0.093914
O4	O	0.922867	0.278848	-0.114996
O5	O	0.925504	0.059520	0.083942
O6	O	0.805867	0.172069	0.073511
O7	O	1.033507	0.174778	0.073292
Cu8	Cu	0.918865	0.174198	0.089641
Cu9	Cu	0.929506	0.164170	-0.120695
O10	O	0.913870	0.287327	0.062860
C11	C	0.781228	0.165366	-0.015194
C12	C	0.694408	0.158018	-0.014526
C13	C	0.644551	0.225480	-0.020768
C14	C	0.562974	0.218572	-0.020114
C15	C	0.531255	0.144200	-0.013225
C16	C	0.581118	0.076733	-0.006979
C17	C	0.662693	0.083642	-0.007626
C18	C	0.285402	0.119792	-0.010938
C19	C	0.203820	0.112887	-0.010295
C20	C	0.185682	0.254727	-0.023428
C21	C	0.267260	0.261630	-0.024080
C22	C	0.317116	0.194162	-0.017829
C23	C	0.447870	0.137137	-0.012560
C24	C	0.400499	0.201227	-0.018486
C25	C	0.929384	0.025988	-0.002278
C26	C	0.927532	-0.061295	0.005792
C27	C	0.931568	-0.106918	-0.087365
C28	C	0.929822	-0.188928	-0.079779
C29	C	0.924046	-0.225315	0.020965
C30	C	0.920007	-0.179686	0.114129
C31	C	0.921748	-0.097676	0.106542
C32	C	0.918541	-0.472699	0.048722
C33	C	0.916804	-0.554715	0.056302
C34	C	0.926617	-0.563952	-0.137608
C35	C	0.928362	-0.481941	-0.145185
C36	C	0.924319	-0.436318	-0.052021
C37	C	0.922264	-0.309143	0.028721
C38	C	0.926095	-0.352491	-0.059778
C39	C	1.067143	0.173002	-0.015863
C40	C	1.153964	0.180350	-0.016537
C41	C	0.918987	0.312380	-0.028779
C42	C	0.920840	0.399662	-0.036855
N43	N	0.911387	0.181251	0.237579
N44	N	0.936990	0.157111	-0.268633
C45	C	0.900386	0.191633	0.455732
C46	C	0.947988	0.146732	0.513221
C47	C	0.941867	0.152508	0.634609
C48	C	0.906506	0.185857	0.334333
H49	H	0.426328	0.261780	-0.024089
Cl50	Cl	0.830375	0.257680	0.520490
H51	H	0.915265	-0.435564	0.124584
H52	H	0.670370	0.286042	-0.026379
H53	H	0.177998	0.052322	-0.004686
Cl54	Cl	0.914999	-0.354893	0.155367
H55	H	0.993339	0.103953	0.471273
Cl56	Cl	0.541242	-0.016763	0.001688
Cl57	Cl	0.407987	0.043644	-0.003905
Cl58	Cl	0.500300	0.303386	-0.027969
Cl59	Cl	0.307129	0.355129	-0.032748
Cl60	Cl	0.909547	-0.600457	0.182962
H61	H	0.145081	0.309655	-0.028516
Cl62	Cl	0.348067	0.034974	-0.003079
H63	H	0.703287	0.028707	-0.002543
H64	H	0.933112	-0.226072	-0.155638
Cl65	Cl	0.938835	-0.061183	-0.214022
H66	H	0.933066	-0.452321	-0.227222
Cl67	Cl	0.931697	-0.621310	-0.254721
Cl68	Cl	0.912736	-0.225428	0.240780
H69	H	0.918450	-0.060530	0.182401
H70	H	0.930793	-0.322862	-0.141804
