data_functionalizedCrystal
_audit_creation_method	'MofGen! by Chris Wilmer'
_symmetry_space_group_name_H-M	'P1'
_symmetry_Int_Tables_number	1
_symmetry_cell_setting	triclinic
loop_
_symmetry_equiv_pos_as_xyz
  x,y,z
_cell_length_a	15.538191
_cell_length_b	10.723024
_cell_length_c	9.198806
_cell_angle_alpha	90.002012
_cell_angle_beta	89.996796
_cell_angle_gamma	114.130018
loop_
_atom_site_label
_atom_site_type_symbol
_atom_site_fract_x
_atom_site_fract_y
_atom_site_fract_z
O1	O	1.247300	0.404097	-0.120850
O2	O	0.973970	0.260436	-0.120861
O3	O	1.116940	0.516770	-0.120850
O4	O	1.104330	0.147763	-0.120861
O5	O	1.116928	0.516765	0.120935
O6	O	0.973958	0.260431	0.120924
O7	O	1.247289	0.404092	0.120935
Cu8	Cu	1.110622	0.332261	0.143006
Cu9	Cu	1.110636	0.332267	-0.142933
O10	O	1.104319	0.147758	0.120924
C11	C	0.938965	0.245403	0.000030
C12	C	0.834681	0.200632	0.000026
C13	C	1.116016	0.562841	0.000041
C14	C	1.113271	0.700121	0.000036
C15	C	1.282293	0.419125	0.000041
C16	C	1.386577	0.463896	0.000035
C17	C	1.677242	0.019104	0.000018
C18	C	1.775236	0.061205	0.000023
C19	C	1.796148	0.298013	0.000031
C20	C	1.698154	0.255932	0.000032
C21	C	1.638709	0.116476	0.000024
C22	C	1.659621	0.353303	0.000039
C23	C	1.561636	0.311225	0.000033
C24	C	1.502184	0.171775	0.000020
C25	C	1.540723	0.074397	0.000018
C26	C	1.719069	0.492759	0.000037
C27	C	1.680535	0.590131	0.000043
C28	C	1.582548	0.548053	0.000047
C29	C	1.523096	0.408603	0.000035
C30	C	1.544008	0.645431	0.000049
C31	C	1.446023	0.603352	0.000043
C32	C	1.425111	0.366525	0.000029
C33	C	1.105242	0.101687	0.000030
C34	C	1.107987	-0.035593	0.000026
N35	N	1.110620	0.332261	0.344120
C36	C	1.193269	0.812246	0.000037
C37	C	1.190434	0.954133	0.000031
N38	N	1.110646	0.332280	-0.344046
C39	C	1.170649	0.440240	0.416322
C40	C	1.170663	0.440251	0.583734
H41	H	1.376706	0.252966	0.000042
H42	H	1.222060	0.532693	0.645824
F43	F	1.607286	0.793845	0.000043
F44	F	1.405010	0.706986	0.000062
F45	F	1.043471	0.211435	0.574810
F46	F	1.285538	0.800429	0.000032
F47	F	1.397897	0.126991	0.000008
H48	H	1.258919	1.050363	0.000039
F49	F	1.018465	0.838636	0.000035
F50	F	1.021002	0.711938	0.000019
H51	H	1.222028	0.532681	0.354200
F52	F	1.816241	-0.042443	0.000015
F53	F	1.043452	0.211439	0.425315
H54	H	1.492318	-0.039162	0.000031
H55	H	1.628837	-0.094455	0.000031
H56	H	1.844562	0.411558	0.000032
F57	F	1.823354	0.537540	0.000034
H58	H	1.728949	0.703676	0.000045
