data_functionalizedCrystal
_audit_creation_method	'MofGen! by Chris Wilmer'
_symmetry_space_group_name_H-M	'P1'
_symmetry_Int_Tables_number	1
_symmetry_cell_setting	triclinic
loop_
_symmetry_equiv_pos_as_xyz
  x,y,z
_cell_length_a	10.540510
_cell_length_b	10.540510
_cell_length_c	10.868271
_cell_angle_alpha	89.997346
_cell_angle_beta	89.995447
_cell_angle_gamma	84.513311
loop_
_atom_site_label
_atom_site_type_symbol
_atom_site_fract_x
_atom_site_fract_y
_atom_site_fract_z
O1	O	1.685890	0.178724	-0.102323
O2	O	1.316470	0.195619	-0.102323
O3	O	1.509628	0.002461	-0.102322
O4	O	1.492732	0.371881	-0.102323
O5	O	1.509612	0.002454	0.102322
O6	O	1.316454	0.195611	0.102322
O7	O	1.685874	0.178716	0.102322
Zn8	Zn	1.501161	0.187162	0.134814
Zn9	Zn	1.501182	0.187173	-0.134814
O10	O	1.492716	0.371873	0.102322
C11	C	1.269159	0.194356	-0.000000
C12	C	1.128209	0.190589	-0.000001
C13	C	0.910739	0.324775	-0.000471
C14	C	1.057334	0.328793	-0.000003
C15	C	1.083448	0.119838	0.116859
C16	C	0.936687	0.116799	0.116949
C17	C	0.936899	0.113929	-0.115770
C18	C	1.083240	0.120485	-0.117307
C19	C	1.508361	-0.044846	-0.000002
C20	C	1.504594	-0.185795	-0.000010
C21	C	1.638780	-0.403265	0.000459
C22	C	1.642798	-0.256670	-0.000009
C23	C	1.433856	-0.230542	-0.116869
C24	C	1.430817	-0.377303	-0.116961
C25	C	1.427920	-0.377120	0.115758
C26	C	1.434475	-0.230779	0.117296
C27	C	1.733185	0.179979	-0.000003
C28	C	1.874135	0.183746	-0.000011
C29	C	1.493983	0.419181	-0.000001
C30	C	1.497750	0.560130	-0.000002
N31	N	1.501156	0.187155	0.318828
N32	N	1.501198	0.187170	-0.318828
C33	C	1.501176	0.187170	0.569834
C34	C	1.501161	0.187165	0.430156
H35	H	0.896459	0.165144	0.204303
C36	C	1.287746	-0.407048	0.116835
N37	N	1.182172	-0.429604	0.117641
H38	H	1.471833	-0.419309	0.204338
H39	H	1.333575	-0.181702	0.124353
C40	C	0.906982	-0.026249	-0.116840
N41	N	0.884439	-0.131826	-0.117638
C42	C	1.503980	-0.192094	0.234093
N43	N	1.556325	-0.162935	0.322063
C44	C	1.711518	-0.459965	0.113674
N45	N	1.766305	-0.502680	0.198950
C46	C	1.096992	0.403503	-0.113216
N47	N	1.126858	0.459754	-0.198507
H48	H	1.482994	-0.199687	-0.203836
C49	C	1.711111	-0.462037	-0.112121
N50	N	1.765587	-0.506305	-0.196918
C51	C	0.905632	-0.022844	0.124127
N52	N	0.882247	-0.128021	0.129540
C53	C	1.095698	0.403995	0.113369
N54	N	1.124592	0.460635	0.198769
C55	C	1.291175	-0.408357	-0.124150
N56	N	1.185999	-0.431742	-0.129576
H57	H	1.698481	-0.228267	-0.083923
H58	H	0.868787	0.378621	-0.084278
H59	H	0.867220	0.378305	0.082860
H60	H	1.132319	0.019586	-0.124364
C61	C	1.147525	-0.017596	0.122764
N62	N	1.195806	-0.121104	0.127220
H63	H	1.114290	0.168967	0.203826
H64	H	0.894353	0.157516	-0.204344
H65	H	1.111859	0.171963	-0.203759
H66	H	1.698146	-0.227335	0.083759
H67	H	1.479172	-0.417520	-0.204315
C68	C	1.296408	-0.166498	-0.122751
N69	N	1.192884	-0.118256	-0.127180
