data_functionalizedCrystal
_audit_creation_method	'MofGen! by Chris Wilmer'
_symmetry_space_group_name_H-M	'P1'
_symmetry_Int_Tables_number	1
_symmetry_cell_setting	triclinic
loop_
_symmetry_equiv_pos_as_xyz
  x,y,z
_cell_length_a	14.044191
_cell_length_b	10.654550
_cell_length_c	9.130313
_cell_angle_alpha	89.995631
_cell_angle_beta	89.998938
_cell_angle_gamma	88.838354
loop_
_atom_site_label
_atom_site_type_symbol
_atom_site_fract_x
_atom_site_fract_y
_atom_site_fract_z
O1	O	1.259699	0.303028	-0.121727
O2	O	1.759699	0.803028	0.378273
O3	O	0.983658	0.292085	-0.121746
O4	O	1.483658	0.792085	0.378254
O5	O	1.128025	0.115455	-0.121727
O6	O	1.628025	0.615455	0.378273
O7	O	1.115332	0.479658	-0.121746
O8	O	1.615332	0.979658	0.378254
O9	O	1.128015	0.115449	0.121872
O10	O	1.628015	0.615449	0.621872
O11	O	0.983648	0.292079	0.121853
O12	O	1.483648	0.792079	0.621853
O13	O	1.259689	0.303021	0.121871
O14	O	1.759689	0.803021	0.621871
Cu15	Cu	1.121668	0.297549	0.144105
Cu16	Cu	1.621668	0.797549	0.644105
Cu17	Cu	1.121679	0.297557	-0.143979
Cu18	Cu	1.621679	0.797557	0.356021
O19	O	1.115322	0.479651	0.121853
O20	O	1.615322	0.979651	0.621853
C21	C	0.948307	0.287295	0.000051
C22	C	1.448307	0.787295	0.500051
C23	C	0.842987	0.273016	0.000044
C24	C	1.342987	0.773016	0.500044
C25	C	0.593195	0.348181	0.000055
C26	C	1.093195	0.848181	0.500055
C27	C	0.650158	0.246931	0.000058
C28	C	1.150158	0.746931	0.500058
C29	C	0.757458	0.261448	0.000050
C30	C	1.257458	0.761448	0.500050
C31	C	0.485885	0.333666	0.000062
C32	C	0.985885	0.833666	0.500062
C33	C	1.295040	0.307812	0.000071
C34	C	1.795040	0.807812	0.500071
C35	C	1.400360	0.322091	0.000068
C36	C	1.900360	0.822091	0.500068
C37	C	1.127088	0.068560	0.000072
C38	C	1.627088	0.568560	0.500072
C39	C	1.124300	-0.071163	0.000069
C40	C	1.624300	0.428837	0.500069
C41	C	1.209301	-0.142104	0.000074
C42	C	1.709301	0.357896	0.500074
C43	C	1.206675	-0.273389	0.000056
C44	C	1.706675	0.226611	0.500056
C45	C	1.034039	-0.262780	0.000034
C46	C	1.534039	0.237220	0.500034
C47	C	1.036666	-0.131497	0.000041
C48	C	1.536666	0.368503	0.500041
C49	C	1.116259	0.526546	0.000051
C50	C	1.616259	1.026546	0.500051
C51	C	1.119047	0.666270	0.000043
C52	C	1.619047	1.166270	0.500043
N53	N	1.121666	0.297544	0.346727
N54	N	1.621666	0.797544	0.846727
N55	N	1.121688	0.297554	-0.346602
N56	N	1.621688	0.797554	0.153398
C57	C	1.185614	0.219370	0.423387
C58	C	1.685614	0.719370	0.923387
C59	C	1.185623	0.219371	0.576724
C60	C	1.685623	0.719371	1.076724
C61	C	1.057734	0.375731	0.576727
C62	C	1.557734	0.875731	1.076727
C63	C	1.057721	0.375722	0.423393
C64	C	1.557721	0.875722	0.923393
H65	H	0.625010	0.445759	0.000045
H66	H	1.125010	0.945759	0.500045
F67	F	0.940779	-0.327003	0.000004
F68	F	1.440779	0.172997	0.500004
H69	H	1.280658	-0.092984	0.000094
H70	H	1.780658	0.407016	0.500094
F71	F	1.297146	-0.348884	0.000059
F72	F	1.797146	0.151116	0.500059
F73	F	0.946191	-0.055992	0.000025
F74	F	1.446191	0.444008	0.500025
F75	F	0.608574	0.119378	0.000065
F76	F	1.108574	0.619378	0.500065
H77	H	1.237681	0.155711	0.360970
H78	H	1.737681	0.655711	0.860970
F79	F	1.253683	0.136166	0.658307
F80	F	1.753683	0.636166	1.158307
F81	F	0.989684	0.458933	0.658330
F82	F	1.489684	0.958933	1.158330
H83	H	1.005642	0.439380	0.360972
H84	H	1.505642	0.939380	0.860972
