data_functionalizedCrystal
_audit_creation_method	'MofGen! by Chris Wilmer'
_symmetry_space_group_name_H-M	'P1'
_symmetry_Int_Tables_number	1
_symmetry_cell_setting	triclinic
loop_
_symmetry_equiv_pos_as_xyz
  x,y,z
_cell_length_a	19.188930
_cell_length_b	14.853558
_cell_length_c	13.930277
_cell_angle_alpha	90.005349
_cell_angle_beta	90.000488
_cell_angle_gamma	83.388008
loop_
_atom_site_label
_atom_site_type_symbol
_atom_site_fract_x
_atom_site_fract_y
_atom_site_fract_z
O1	O	0.091116	1.195867	0.079814
O2	O	0.101981	0.933346	0.079823
O3	O	-0.005082	1.072183	0.079800
O4	O	0.198179	1.057031	0.079838
O5	O	-0.005066	1.072162	-0.079862
O6	O	0.101997	0.933326	-0.079838
O7	O	0.091132	1.195847	-0.079848
Zn8	Zn	0.096567	1.064583	-0.105193
Zn9	Zn	0.096546	1.064610	0.105168
O10	O	0.198195	1.057011	-0.079824
C11	C	0.101498	0.899750	-0.000007
C12	C	0.100026	0.799674	-0.000004
C13	C	-0.031087	1.071682	-0.000034
C14	C	-0.108596	1.070209	-0.000042
N15	N	0.096582	1.064571	-0.248759
C16	C	-0.153250	1.151673	-0.000050
C17	C	-0.226079	1.150290	-0.000034
C18	C	-0.254250	1.067437	-0.000031
C19	C	-0.209585	0.985961	-0.000018
C20	C	-0.136759	0.987347	-0.000023
N21	N	-0.362459	1.004099	-0.054364
N22	N	-0.431642	1.002787	-0.054361
C23	C	-0.473672	1.063256	-0.000011
N24	N	-0.443907	1.125098	0.054323
N25	N	-0.374718	1.126412	0.054315
C26	C	-0.333217	1.065925	-0.000024
C27	C	-0.597296	1.143225	-0.000000
C28	C	-0.670125	1.141838	0.000021
C29	C	-0.653630	0.977508	0.000028
C30	C	-0.580802	0.978897	0.000016
C31	C	-0.552640	1.061758	-0.000003
C32	C	0.224200	1.057512	0.000012
C33	C	0.301709	1.058984	0.000026
C34	C	0.091615	1.229443	-0.000016
C35	C	0.093087	1.329519	-0.000012
C36	C	0.093768	1.376542	0.087024
C37	C	0.093794	1.376530	-0.087046
C38	C	0.095181	1.470556	-0.087045
C39	C	0.095862	1.517579	-0.000009
C40	C	0.095157	1.470577	0.087027
C41	C	0.095893	1.517565	-0.174080
C42	C	0.097281	1.611597	-0.174083
C43	C	0.097957	1.658622	-0.087046
C44	C	0.097251	1.611614	-0.000007
C45	C	0.097932	1.658637	0.087030
C46	C	0.097221	1.611631	0.174070
C47	C	0.095833	1.517602	0.174064
C48	C	0.099345	1.752651	-0.087040
C49	C	0.099321	1.752671	0.087032
C50	C	0.138955	1.119130	-0.701012
C51	C	0.054108	1.010118	-0.701014
C52	C	0.054119	1.010104	-0.600518
C53	C	0.096548	1.064605	-0.550265
C54	C	0.138966	1.119120	-0.600507
C55	C	0.011696	0.955597	-0.550269
C56	C	0.011705	0.955582	-0.449767
C57	C	0.054139	1.010079	-0.399511
C58	C	0.096559	1.064595	-0.449760
C59	C	0.138989	1.119096	-0.399506
C60	C	0.181413	1.173609	-0.449753
C61	C	0.181400	1.173617	-0.550251
C62	C	0.054152	1.010070	-0.299013
C63	C	0.139000	1.119086	-0.299001
N64	N	0.096526	1.064629	0.248735
H65	H	-0.130326	1.219146	-0.000062
C66	C	0.184953	1.178320	-0.244319
C67	C	0.142714	1.239523	-0.186587
C68	C	0.185022	1.294094	-0.136191
H69	H	0.210229	1.210868	-0.288528
H70	H	0.217024	1.141269	-0.205070
H71	H	0.110655	1.276571	-0.225833
H72	H	0.117438	1.207000	-0.142361
H73	H	0.217093	1.257042	-0.096942
H74	H	0.210296	1.326636	-0.180407
H75	H	0.156370	1.335620	-0.097008
C76	C	-0.274456	1.238839	-0.000095
C77	C	-0.234205	1.311700	-0.000134
C78	C	-0.278743	1.393284	-0.000203
H79	H	-0.303224	1.241853	0.055568
H80	H	-0.303198	1.241747	-0.055795
H81	H	-0.205474	1.308793	0.055560
H82	H	-0.205438	1.308716	-0.055792
H83	H	-0.307485	1.396192	-0.055903
H84	H	-0.307509	1.396289	0.055461
H85	H	-0.251439	1.442730	-0.000238
H86	H	0.093245	1.338238	-0.157906
C87	C	0.092969	1.325681	0.181622
C88	C	0.093849	1.386994	0.257841
C89	C	0.093106	1.340175	0.344999
H90	H	0.133098	1.281960	0.185386
H91	H	0.051728	1.296063	0.185286
H92	H	0.135086	1.416597	0.254179
H93	H	0.053723	1.430717	0.254109
H94	H	0.051865	1.310557	0.348662
H95	H	0.133236	1.296455	0.348752
H96	H	0.093696	1.381769	0.396723
H97	H	0.095343	1.479271	-0.244940
C98	C	-0.566578	1.233093	-0.000057
C99	C	-0.493241	1.216872	-0.000093
C100	C	-0.464922	1.299635	-0.000158
H101	H	-0.581819	1.266700	0.055607
H102	H	-0.581866	1.266627	-0.055756
H103	H	-0.477958	1.183352	0.055600
H104	H	-0.477980	1.183279	-0.055753
H105	H	-0.480211	1.333169	-0.055857
H106	H	-0.480168	1.333236	0.055507
H107	H	-0.415161	1.288640	-0.000192
C108	C	-0.684341	0.887642	-0.000011
C109	C	-0.757679	0.903863	-0.000026
C110	C	-0.785997	0.821099	-0.000069
H111	H	-0.669091	0.854052	0.055653
H112	H	-0.669061	0.854093	-0.055710
H113	H	-0.772952	0.937398	0.055667
H114	H	-0.772948	0.937440	-0.055686
H115	H	-0.770716	0.787549	-0.055768
H116	H	-0.770741	0.787514	0.055596
H117	H	-0.835758	0.832092	-0.000088
H118	H	0.097780	1.649929	0.244935
H119	H	-0.544444	0.912560	0.000017
H120	H	-0.232527	0.918502	-0.000013
C121	C	0.100095	1.803553	0.181633
C122	C	0.099193	1.742256	0.257850
C123	C	0.099917	1.789093	0.345009
H124	H	0.059967	1.847278	0.185378
H125	H	0.141338	1.833168	0.185316
H126	H	0.057955	1.712656	0.254169
H127	H	0.139318	1.698529	0.254137
H128	H	0.141159	1.818708	0.348692
H129	H	0.059788	1.832817	0.348744
H130	H	0.099311	1.747510	0.396733
C131	C	0.227403	1.232955	-0.604684
C132	C	0.208282	1.323868	-0.580196
C133	C	0.250648	1.378557	-0.630315
H134	H	0.221354	1.225277	-0.671749
H135	H	0.275166	1.216069	-0.588213
H136	H	0.160532	1.340749	-0.596673
H137	H	0.214335	1.331575	-0.513140
H138	H	0.298410	1.361671	-0.613843
H139	H	0.244595	1.370871	-0.697377
H140	H	0.237685	1.440246	-0.613700
C141	C	0.098009	1.662472	-0.268680
C142	C	0.097098	1.601167	-0.344901
C143	C	0.097756	1.648004	-0.432057
H144	H	0.139220	1.692124	-0.272426
H145	H	0.057849	1.706171	-0.272360
H146	H	0.137254	1.557484	-0.341224
H147	H	0.055889	1.571513	-0.341188
H148	H	0.057596	1.691703	-0.435737
H149	H	0.138968	1.677654	-0.435793
H150	H	0.097132	1.606417	-0.483783
C151	C	0.008002	0.951052	-0.244410
C152	C	-0.039207	1.005902	-0.186710
C153	C	-0.081740	0.951564	-0.136408
H154	H	0.036476	0.909429	-0.205141
H155	H	-0.017314	0.918619	-0.288704
H156	H	-0.013894	1.038320	-0.142422
H157	H	-0.067696	1.047525	-0.225955
H158	H	-0.107055	0.919130	-0.180702
H159	H	-0.053260	0.909943	-0.097145
H160	H	-0.113780	0.988772	-0.097260
C161	C	0.185135	1.178195	-0.755507
C162	C	0.255460	1.153027	-0.731090
C163	C	0.298021	1.207410	-0.781280
H164	H	0.172340	1.239951	-0.739063
H165	H	0.179104	1.170386	-0.822568
H166	H	0.261488	1.160843	-0.664043
H167	H	0.268276	1.091279	-0.747536
H168	H	0.291990	1.199601	-0.848342
H169	H	0.285221	1.269163	-0.764833
H170	H	0.345742	1.190336	-0.764727
C171	C	0.227572	1.232623	-0.395135
C172	C	0.274789	1.177761	-0.337469
C173	C	0.317326	1.232090	-0.287148
H174	H	0.199101	1.274234	-0.355842
H175	H	0.252880	1.265070	-0.439417
H176	H	0.249483	1.145329	-0.293192
H177	H	0.303276	1.136151	-0.376738
H178	H	0.342634	1.264537	-0.331430
H179	H	0.288849	1.273699	-0.247860
H180	H	0.349372	1.194874	-0.248023
C181	C	-0.088355	0.898826	0.000128
C182	C	-0.101100	0.848921	0.082263
C183	C	-0.056529	0.767364	0.082427
H184	H	-0.040924	0.911389	0.000169
H185	H	-0.096916	0.864782	-0.055517
H186	H	-0.092534	0.882957	0.137894
H187	H	-0.148522	0.836333	0.082239
H188	H	-0.065090	0.733320	0.026782
H189	H	-0.009101	0.779937	0.082466
H190	H	-0.065175	0.733490	0.138150
H191	H	0.019559	0.965751	-0.741937
H192	H	0.099931	1.790918	-0.157907
C193	C	-0.034371	0.896296	-0.395392
C194	C	-0.071517	0.848554	-0.460914
C195	C	-0.113960	0.793919	-0.410857
H196	H	-0.066505	0.933263	-0.356165
H197	H	-0.005823	0.854639	-0.356226
H198	H	-0.100063	0.890205	-0.500063
H199	H	-0.039400	0.811570	-0.500142
H200	H	-0.085412	0.752263	-0.371691
H201	H	-0.146090	0.830893	-0.371633
H202	H	-0.139164	0.761513	-0.455306
H203	H	-0.706483	1.208179	0.000020
H204	H	-0.022853	0.911233	-0.591193
H205	H	0.095253	1.479322	0.244928
