data_functionalizedCrystal
_audit_creation_method	'MofGen! by Chris Wilmer'
_symmetry_space_group_name_H-M	'P1'
_symmetry_Int_Tables_number	1
_symmetry_cell_setting	triclinic
loop_
_symmetry_equiv_pos_as_xyz
  x,y,z
_cell_length_a	10.540539
_cell_length_b	10.540539
_cell_length_c	15.021413
_cell_angle_alpha	89.994841
_cell_angle_beta	90.005960
_cell_angle_gamma	84.525492
loop_
_atom_site_label
_atom_site_type_symbol
_atom_site_fract_x
_atom_site_fract_y
_atom_site_fract_z
O1	O	-1.685895	-0.178885	-0.073986
O2	O	-1.316482	-0.195741	-0.073996
O3	O	-1.509617	-0.002607	-0.073989
O4	O	-1.492761	-0.372020	-0.073992
O5	O	-1.509584	-0.002631	0.074075
O6	O	-1.316449	-0.195765	0.074068
O7	O	-1.685862	-0.178909	0.074079
Zn8	Zn	-1.501151	-0.187341	0.097582
Zn9	Zn	-1.501194	-0.187310	-0.097499
O10	O	-1.492728	-0.372044	0.074072
C11	C	-1.269163	-0.194489	0.000035
C12	C	-1.128215	-0.190707	0.000030
C13	C	-1.508336	0.044684	0.000041
C14	C	-1.504554	0.185632	0.000036
N15	N	-1.501131	-0.187362	0.230719
C16	C	-1.733182	-0.180161	0.000046
C17	C	-1.874130	-0.183943	0.000044
C18	C	-0.944788	-0.045790	0.000377
C19	C	-1.091406	-0.049624	0.000034
C20	C	-1.066561	-0.258589	-0.084519
C21	C	-0.920016	-0.253774	-0.084580
C22	C	-0.919491	-0.256671	0.083796
C23	C	-1.066472	-0.257971	0.084905
C24	C	-1.494008	-0.419335	0.000040
C25	C	-1.497790	-0.560283	0.000039
C26	C	-1.359637	0.369059	-0.000300
C27	C	-1.363471	0.222441	0.000033
C28	C	-1.572431	0.247276	0.084590
C29	C	-1.567616	0.393821	0.084661
C30	C	-1.570523	0.394366	-0.083716
C31	C	-1.571823	0.247384	-0.084833
C32	C	-1.412572	-0.277384	0.529731
C33	C	-1.385855	-0.162791	0.470372
C34	C	-1.501178	-0.187317	0.587756
C35	C	-1.527811	-0.301929	0.470374
C36	C	-1.501151	-0.187345	0.412332
C37	C	-1.474404	-0.072666	0.529704
C38	C	-1.616411	-0.211879	0.529710
C39	C	-1.589742	-0.097203	0.470378
C40	C	-1.501190	-0.187303	0.688814
C41	C	-1.501140	-0.187347	0.311277
N42	N	-1.501203	-0.187298	0.769363
H43	H	-1.134007	0.003789	0.060643
Cl44	Cl	-1.500034	0.443077	-0.182661
Cl45	Cl	-1.730634	0.209986	-0.092719
H46	H	-1.133165	0.004185	-0.060678
H47	H	-0.916189	0.009936	0.061012
H48	H	-0.872048	-0.355238	-0.088419
Cl49	Cl	-0.898166	0.039923	-0.092710
Cl50	Cl	-1.235387	-0.130721	0.430125
Cl51	Cl	-1.562611	-0.451553	0.430135
Cl52	Cl	-0.876478	-0.176281	-0.182156
H53	H	-1.451752	0.024269	0.555656
Cl54	Cl	-1.705420	0.020496	0.430393
Cl55	Cl	-1.766838	-0.244006	0.569988
H56	H	-1.109163	-0.211414	-0.147441
Cl57	Cl	-1.490117	0.437348	0.182238
Cl58	Cl	-1.101109	-0.418539	-0.089400
H59	H	-1.310061	0.179847	-0.060579
H60	H	-0.887930	-0.211023	0.147884
H61	H	-1.107421	-0.208381	0.147454
Cl62	Cl	-1.103861	-0.416786	0.092784
H63	H	-1.669081	0.441789	0.088500
Cl64	Cl	-1.273605	0.413227	-0.093917
Cl65	Cl	-0.846577	-0.414001	0.084679
Cl66	Cl	-1.732394	0.212766	0.089454
Cl67	Cl	-1.280386	0.157948	0.093763
Cl68	Cl	-1.273678	0.416225	0.092511
Cl69	Cl	-1.499594	0.181498	0.181736
H70	H	-1.672427	0.441592	-0.084281
Cl71	Cl	-1.495786	0.183569	-0.181423
H72	H	-1.337600	-0.353451	0.555792
