data_functionalizedCrystal
_audit_creation_method	'MofGen! by Chris Wilmer'
_symmetry_space_group_name_H-M	'P1'
_symmetry_Int_Tables_number	1
_symmetry_cell_setting	triclinic
loop_
_symmetry_equiv_pos_as_xyz
  x,y,z
_cell_length_a	15.995292
_cell_length_b	12.837942
_cell_length_c	11.295675
_cell_angle_alpha	85.464514
_cell_angle_beta	85.907039
_cell_angle_gamma	90.851222
loop_
_atom_site_label
_atom_site_type_symbol
_atom_site_fract_x
_atom_site_fract_y
_atom_site_fract_z
O1	O	1.116571	-0.140308	0.099054
O2	O	0.874111	-0.156871	0.099050
O3	O	0.989965	0.002312	0.099045
O4	O	1.000717	-0.299491	0.099060
O5	O	1.000116	0.016272	-0.099000
O6	O	0.884262	-0.142911	-0.098995
O7	O	1.126722	-0.126348	-0.098991
Cu8	Cu	1.006419	-0.133355	-0.117076
Cu9	Cu	0.994414	-0.149864	0.117135
O10	O	1.010868	-0.285532	-0.098986
C11	C	0.847937	-0.149217	0.000027
C12	C	0.754823	-0.147196	0.000025
C13	C	0.416491	-0.139767	0.000038
C14	C	0.448948	-0.254692	0.000485
C15	C	0.545821	-0.256844	0.000034
C16	C	0.584341	-0.143453	0.000032
C17	C	0.556453	-0.078040	-0.113060
C18	C	0.459557	-0.076650	-0.113150
C19	C	0.447971	-0.090179	0.112064
C20	C	0.544727	-0.094542	0.113554
C21	C	0.679204	-0.145530	0.000025
C22	C	0.321629	-0.137686	0.000037
C23	C	0.991408	0.047912	0.000023
C24	C	0.980575	0.162986	0.000024
C25	C	1.152896	-0.134003	0.000035
C26	C	1.246009	-0.136024	0.000045
C27	C	1.009425	-0.331131	0.000039
C28	C	1.020258	-0.446206	0.000045
N29	N	1.014868	-0.121743	-0.281808
C30	C	1.110812	0.403976	0.000052
C31	C	1.100637	0.512099	0.000054
C32	C	0.950049	0.487357	0.000038
C33	C	0.960224	0.379234	0.000037
C34	C	1.040608	0.337548	0.000042
C35	C	1.050783	0.229423	0.000031
C36	C	0.900196	0.204682	0.000024
C37	C	0.890021	0.312805	0.000026
C38	C	0.925055	-0.245112	-0.531147
C39	C	0.931459	-0.236326	-0.655807
C40	C	1.034084	-0.095393	-0.655790
C41	C	1.027680	-0.104178	-0.531130
C42	C	0.973163	-0.179039	-0.468813
C43	C	0.966755	-0.187818	-0.344150
C44	C	1.069384	-0.046890	-0.344136
C45	C	1.075788	-0.038105	-0.468796
N46	N	0.985971	-0.161468	0.281867
H47	H	0.420328	-0.304694	0.081590
H48	H	0.427576	-0.293047	-0.080158
Br49	Br	0.589458	-0.322730	-0.135315
Br50	Br	1.134668	0.042793	-0.259529
H51	H	1.157804	0.566182	0.000066
Br52	Br	0.866171	-0.326005	-0.740401
H53	H	0.440247	-0.110473	-0.197687
H54	H	0.880659	-0.306059	-0.480407
H55	H	0.438548	0.007952	-0.118289
H56	H	1.176264	0.370036	0.000044
H57	H	0.824574	0.346761	0.000027
Br58	Br	0.576593	-0.341343	0.135156
Br59	Br	0.598817	0.061535	-0.120070
H60	H	1.116236	0.195485	0.000031
H61	H	1.120178	0.022843	-0.519550
H62	H	0.584009	-0.111997	-0.197222
Br63	Br	0.398220	-0.160113	0.254934
H64	H	0.562345	-0.142263	0.197219
Br65	Br	0.588081	0.042608	0.124936
H66	H	0.427191	-0.005663	0.112827
Br67	Br	0.840963	0.543947	0.000075
Br68	Br	0.804915	0.114525	-0.000011
Br69	Br	0.892764	-0.289409	-0.259578
H70	H	1.078477	-0.034450	-0.706546
