data_functionalizedCrystal
_audit_creation_method	'MofGen! by Chris Wilmer'
_symmetry_space_group_name_H-M	'P1'
_symmetry_Int_Tables_number	1
_symmetry_cell_setting	triclinic
loop_
_symmetry_equiv_pos_as_xyz
  x,y,z
_cell_length_a	14.044191
_cell_length_b	10.654541
_cell_length_c	9.730217
_cell_angle_alpha	90.003041
_cell_angle_beta	90.002814
_cell_angle_gamma	91.162147
loop_
_atom_site_label
_atom_site_type_symbol
_atom_site_fract_x
_atom_site_fract_y
_atom_site_fract_z
O1	O	1.259694	-0.303026	-0.114163
O2	O	0.983653	-0.292083	-0.114193
O3	O	1.128022	-0.115453	-0.114169
O4	O	1.115326	-0.479656	-0.114187
O5	O	1.128017	-0.115451	0.114411
O6	O	0.983649	-0.292081	0.114387
O7	O	1.259690	-0.303024	0.114417
Zn8	Zn	1.121669	-0.297552	0.150694
Zn9	Zn	1.121674	-0.297555	-0.150470
O10	O	1.115321	-0.479654	0.114393
C11	C	1.127088	-0.068561	0.000120
C12	C	1.124300	0.071163	0.000117
C13	C	0.948305	-0.287295	0.000093
C14	C	0.842985	-0.273016	0.000081
C15	C	1.295038	-0.307812	0.000128
C16	C	1.400358	-0.322091	0.000130
C17	C	1.650151	-0.246926	0.000106
C18	C	1.593187	-0.348176	0.000106
C19	C	1.485887	-0.333659	0.000119
C20	C	1.757460	-0.261441	0.000092
C21	C	1.116255	-0.526547	0.000101
C22	C	1.119043	-0.666270	0.000094
N23	N	1.121671	-0.297550	0.356230
C24	C	1.296932	0.081780	0.000154
C25	C	1.381934	0.152730	0.000175
C26	C	1.379309	0.284012	0.000170
C27	C	1.291673	0.344347	0.000140
C28	C	1.206670	0.273397	0.000120
C29	C	1.209305	0.142113	0.000128
C30	C	1.034040	0.262780	0.000073
C31	C	1.036663	0.131498	0.000088
C32	C	0.946404	0.323115	0.000044
C33	C	0.861399	0.252165	0.000033
C34	C	0.864028	0.120875	0.000039
C35	C	0.951661	0.060548	0.000067
N36	N	1.121679	-0.297548	-0.356007
C37	C	1.249563	-0.141199	0.356242
C38	C	1.313514	-0.063028	0.428188
C39	C	1.313524	-0.063028	0.572068
C40	C	1.249573	-0.141205	0.644005
C41	C	1.185621	-0.219377	0.572059
C42	C	1.185620	-0.219371	0.428176
C43	C	1.057727	-0.375719	0.572047
C44	C	1.057720	-0.375727	0.428167
C45	C	0.993776	-0.453896	0.643984
C46	C	0.929827	-0.532076	0.572038
C47	C	0.929821	-0.532073	0.428150
C48	C	0.993768	-0.453899	0.356222
H49	H	1.625003	-0.445762	0.000095
H50	H	0.877759	-0.595716	0.630619
O51	O	1.612249	-0.130484	0.000347
C52	C	1.642794	-0.064789	0.118704
H53	H	1.663917	-0.134663	0.201455
H54	H	1.582427	-0.004739	0.158437
H55	H	1.706736	-0.001842	0.091929
O56	O	1.299653	-0.045735	0.000111
C57	C	1.395226	-0.083774	0.000184
H58	H	1.442596	-0.005121	-0.043086
H59	H	1.402236	-0.171292	-0.066163
H60	H	1.418127	-0.105669	0.109857
H61	H	1.453287	0.103591	0.000211
H62	H	1.448526	0.341779	0.000176
O63	O	1.289245	0.471880	-0.000060
C64	C	1.335700	0.518630	-0.118458
H65	H	1.387617	0.446066	-0.157906
H66	H	1.376376	0.609072	-0.091838
H67	H	1.280675	0.538557	-0.201368
H68	H	0.993772	-0.453894	0.239067
H69	H	0.944272	0.430012	0.000032
O70	O	0.776359	0.310972	0.000062
C71	C	0.792270	0.442057	0.000012
H72	H	0.866091	0.464551	0.043301
H73	H	0.736143	0.488578	0.066354
H74	H	0.787443	0.479043	-0.109656
O75	O	0.867662	-0.608128	0.358479
C76	C	0.811208	-0.677096	0.452831
H77	H	0.850111	-0.682906	0.555393
H78	H	0.797380	-0.775829	0.411260
H79	H	0.740484	-0.628324	0.468136
O80	O	0.781365	0.052148	0.000076
C81	C	0.703461	0.133558	0.000008
H82	H	0.726890	0.228700	0.043286
H83	H	0.643840	0.091925	0.066352
H84	H	0.676657	0.145880	-0.109664
O85	O	0.954338	-0.066970	0.000256
C86	C	1.002530	-0.107910	0.118673
H87	H	1.051407	-0.029150	0.158157
H88	H	1.046730	-0.193128	0.092063
H89	H	0.948424	-0.134559	0.201552
H90	H	1.365581	0.000626	0.369605
O91	O	1.375731	0.012950	0.641750
C92	C	1.432152	0.081983	0.547414
H93	H	1.433563	0.030341	0.444845
H94	H	1.507776	0.092610	0.588995
H95	H	1.400742	0.178819	0.532120
H96	H	1.249569	-0.141202	0.239088
H97	H	1.249577	-0.141190	0.761160
H98	H	0.993783	-0.453888	0.761139
