data_functionalizedCrystal
_audit_creation_method	'MofGen! by Chris Wilmer'
_symmetry_space_group_name_H-M	'P1'
_symmetry_Int_Tables_number	1
_symmetry_cell_setting	triclinic
loop_
_symmetry_equiv_pos_as_xyz
  x,y,z
_cell_length_a	17.666332
_cell_length_b	14.044220
_cell_length_c	14.044220
_cell_angle_alpha	86.811122
_cell_angle_beta	90.006987
_cell_angle_gamma	89.995739
loop_
_atom_site_label
_atom_site_type_symbol
_atom_site_fract_x
_atom_site_fract_y
_atom_site_fract_z
O1	O	0.062871	-1.277175	0.230170
O2	O	0.562871	-0.777175	0.730170
O3	O	0.062890	-1.000503	0.221864
O4	O	0.562890	-0.500503	0.721864
O5	O	0.062873	-1.134686	0.087681
O6	O	0.562873	-0.634686	0.587681
O7	O	0.062888	-1.142992	0.364353
O8	O	0.562888	-0.642992	0.864353
O9	O	-0.063024	-1.134660	0.087671
O10	O	0.436976	-0.634660	0.587671
O11	O	-0.063007	-1.000477	0.221854
O12	O	0.436993	-0.500477	0.721854
O13	O	-0.063026	-1.277148	0.230160
O14	O	0.436974	-0.777148	0.730160
Cu15	Cu	-0.074512	-1.138810	0.226006
Cu16	Cu	0.425488	-0.638810	0.726006
Cu17	Cu	0.074376	-1.138841	0.226018
Cu18	Cu	0.574376	-0.638841	0.726018
O19	O	-0.063009	-1.142965	0.364343
O20	O	0.436991	-0.642965	0.864343
C21	C	-0.000056	-0.964868	0.218223
C22	C	0.499944	-0.464868	0.718223
C23	C	-0.000049	-0.858725	0.207379
C24	C	0.499951	-0.358725	0.707379
N25	N	-0.179231	-1.138795	0.225998
N26	N	0.320769	-0.638795	0.725998
C27	C	-0.000075	-1.131037	0.052054
C28	C	0.499925	-0.631037	0.552054
C29	C	-0.000075	-1.120193	-0.054088
C30	C	0.499925	-0.620193	0.445912
C31	C	-0.218848	-1.198235	0.166615
C32	C	0.281152	-0.698235	0.666615
C33	C	-0.298096	-1.198240	0.166611
C34	C	0.201904	-0.698240	0.666611
C35	C	-0.337723	-1.138816	0.226007
C36	C	0.162277	-0.638816	0.726007
C37	C	-0.298097	-1.079364	0.285393
C38	C	0.201903	-0.579364	0.785393
C39	C	-0.218851	-1.079354	0.285389
C40	C	0.281149	-0.579354	0.785389
N41	N	-0.462137	-1.133806	0.309456
N42	N	0.037863	-0.633806	0.809456
N43	N	-0.537418	-1.133821	0.309457
N44	N	-0.037418	-0.633821	0.809457
C45	C	-0.576487	-1.138842	0.226022
C46	C	-0.076487	-0.638842	0.726022
N47	N	-0.537433	-1.143866	0.142584
N48	N	-0.037433	-0.643866	0.642584
N49	N	-0.462145	-1.143855	0.142583
N50	N	0.037855	-0.643855	0.642583
C51	C	-0.423652	-1.138820	0.226018
C52	C	0.076348	-0.638820	0.726018
C53	C	-0.702034	-1.198291	0.166630
C54	C	-0.202034	-0.698291	0.666630
C55	C	-0.781283	-1.198289	0.166624
C56	C	-0.281283	-0.698289	0.666624
C57	C	-0.781282	-1.079419	0.285415
C58	C	-0.281282	-0.579419	0.785415
C59	C	-0.702035	-1.079415	0.285412
C60	C	-0.202035	-0.579415	0.785412
C61	C	-0.662415	-1.138856	0.226021
C62	C	-0.162415	-0.638856	0.726021
N63	N	0.179095	-1.138863	0.226019
N64	N	0.679095	-0.638863	0.726019
C65	C	-0.000078	-1.312783	0.233800
C66	C	0.499922	-0.812783	0.733800
C67	C	-0.000080	-1.418926	0.244645
C68	C	0.499920	-0.918926	0.744645
C69	C	-0.000065	-0.664388	0.187553
C70	C	0.499935	-0.164388	0.687553
C71	C	-0.000064	-0.613258	0.264467
C72	C	0.499936	-0.113258	0.764467
C73	C	-0.000073	-0.505122	0.253435
C74	C	0.499927	-0.005122	0.753435
C75	C	-0.000056	-0.772534	0.198583
C76	C	0.499944	-0.272534	0.698583
C77	C	-0.000063	-1.100366	-0.248426
C78	C	0.499937	-0.600366	0.251574
C79	C	-0.000066	-1.177281	-0.299556
C80	C	0.499934	-0.677281	0.200444
C81	C	-0.000059	-1.166249	-0.407692
C82	C	0.499941	-0.666249	0.092308
C83	C	-0.000070	-1.111397	-0.140280
C84	C	0.499930	-0.611397	0.359720
C85	C	-0.000059	-1.146614	0.399969
C86	C	0.499941	-0.646614	0.899969
C87	C	-0.000054	-1.157459	0.506112
C88	C	0.499946	-0.657459	1.006112
H89	H	-0.330358	-1.246645	0.118252
H90	H	0.169642	-0.746645	0.618252
O91	O	-0.000025	-1.011860	-0.292930
O92	O	0.499975	-0.511860	0.207070
C93	C	-0.000070	-0.842264	-0.274700
C94	C	0.499930	-0.342264	0.225300
C95	C	-0.000093	-0.942439	-0.224163
C96	C	0.499907	-0.442439	0.275837
H97	H	-0.000142	-0.786110	-0.219125
H98	H	0.499858	-0.286110	0.280875
H99	H	0.052632	-0.833213	-0.321160
H100	H	0.552632	-0.333213	0.178840
H101	H	-0.052744	-0.833313	-0.321242
H102	H	0.447256	-0.333313	0.178758
H103	H	0.052544	-0.951458	-0.177573
H104	H	0.552544	-0.451458	0.322427
H105	H	-0.052830	-0.951444	-0.177762
H106	H	0.447170	-0.451444	0.322238
H107	H	-0.000057	-0.650697	0.338600
H108	H	0.499943	-0.150697	0.838600
H109	H	-0.186593	-1.246633	0.118253
H110	H	0.313407	-0.746633	0.618253
O111	O	-0.000035	-0.619581	0.099186
O112	O	0.499965	-0.119581	0.599186
C113	C	-0.000086	-0.469371	0.007489
C114	C	0.499914	0.030629	0.507489
C115	C	-0.000106	-0.520007	0.107617
C116	C	0.499894	-0.020007	0.607617
H117	H	-0.000160	-0.388858	0.014272
H118	H	0.499840	0.111142	0.514272
H119	H	0.052617	-0.490826	-0.032971
H120	H	0.552617	0.009174	0.467029
H121	H	-0.052758	-0.490952	-0.032966
H122	H	0.447242	0.009048	0.467034
H123	H	0.052531	-0.498452	0.148152
H124	H	0.552531	0.001548	0.648152
H125	H	-0.052843	-0.498550	0.148006
H126	H	0.447157	0.001450	0.648006
H127	H	-0.000020	-1.251414	-0.262117
H128	H	0.499980	-0.751414	0.237883
H129	H	-0.813540	-1.246689	0.118262
H130	H	-0.313540	-0.746689	0.618262
H131	H	-0.330365	-1.030978	0.333752
H132	H	0.169635	-0.530978	0.833752
O133	O	-0.180480	-1.021587	0.343169
O134	O	0.319520	-0.521587	0.843169
C135	C	-0.188842	-0.903643	0.460948
C136	C	0.311158	-0.403643	0.960948
C137	C	-0.232392	-0.969030	0.395573
C138	C	0.267608	-0.469030	0.895573
H139	H	-0.230794	-0.861119	0.503319
H140	H	0.269206	-0.361119	1.003319
H141	H	-0.151752	-0.948846	0.512213
H142	H	0.348248	-0.448846	1.012213
H143	H	-0.151729	-0.852508	0.415652
H144	H	0.348271	-0.352508	0.915652
H145	H	-0.269546	-1.020177	0.440792
H146	H	0.230454	-0.520177	0.940792
H147	H	-0.269434	-0.923768	0.344304
H148	H	0.230566	-0.423768	0.844304
H149	H	-0.669774	-1.246689	0.118267
H150	H	-0.169774	-0.746689	0.618267
H151	H	-0.669776	-1.031017	0.333771
H152	H	-0.169776	-0.531017	0.833771
O153	O	-0.819732	-1.021552	0.343007
O154	O	-0.319732	-0.521552	0.843007
C155	C	-0.843956	-0.860281	0.384857
C156	C	-0.343956	-0.360281	0.884857
C157	C	-0.800374	-0.925708	0.319558
C158	C	-0.300374	-0.425708	0.819558
H159	H	-0.828309	-0.782779	0.365935
H160	H	-0.328309	-0.282779	0.865935
H161	H	-0.907410	-0.870411	0.374654
H162	H	-0.407410	-0.370411	0.874654
H163	H	-0.828371	-0.879230	0.462379
H164	H	-0.328371	-0.379230	0.962379
H165	H	-0.815895	-0.906800	0.242012
H166	H	-0.315895	-0.406800	0.742012
H167	H	-0.736930	-0.915568	0.329843
H168	H	-0.236930	-0.415568	0.829843
