data_functionalizedCrystal
_audit_creation_method	'MofGen! by Chris Wilmer'
_symmetry_space_group_name_H-M	'P1'
_symmetry_Int_Tables_number	1
_symmetry_cell_setting	triclinic
loop_
_symmetry_equiv_pos_as_xyz
  x,y,z
_cell_length_a	18.101395
_cell_length_b	17.638574
_cell_length_c	17.640968
_cell_angle_alpha	114.313062
_cell_angle_beta	78.770922
_cell_angle_gamma	101.205518
loop_
_atom_site_label
_atom_site_type_symbol
_atom_site_fract_x
_atom_site_fract_y
_atom_site_fract_z
Zn1	Zn	-0.415348	-1.354080	-0.720340
Zn2	Zn	-0.559995	-1.326090	-0.582507
Zn3	Zn	-0.415305	-1.188398	-0.554719
Zn4	Zn	-0.518268	-1.216206	-0.692463
O5	O	-0.477229	-1.271193	-0.637507
O6	O	-0.452017	-1.465692	-0.725352
O7	O	-0.558247	-1.284473	-0.463490
O8	O	-0.311685	-1.210452	-0.576726
O9	O	-0.558289	-1.445128	-0.624087
O10	O	-0.311717	-1.332178	-0.698407
O11	O	-0.451943	-1.183311	-0.443075
O12	O	-0.411482	-1.076761	-0.549695
O13	O	-0.487170	-1.257847	-0.811492
O14	O	-0.487128	-1.097191	-0.650895
O15	O	-0.411556	-1.359142	-0.831973
O16	O	-0.658086	-1.311438	-0.597056
O17	O	-0.627429	-1.230706	-0.677840
C18	C	-0.444773	-1.057074	-0.594255
C19	C	-0.430903	-0.965476	-0.575771
C20	C	-0.371884	-0.825730	-0.497111
C21	C	-0.384921	-0.911801	-0.514486
C22	C	-0.463869	-0.933094	-0.619704
C23	C	-0.450841	-0.847023	-0.602335
C24	C	-0.404848	-0.793347	-0.541038
C25	C	-0.483805	-0.814640	-0.646262
C26	C	-0.470775	-0.728576	-0.628897
C27	C	-0.424781	-0.674896	-0.567605
C28	C	-0.391818	-0.707284	-0.523673
C29	C	-0.529794	-0.868318	-0.707563
C30	C	-0.562758	-0.835935	-0.751490
C31	C	-0.549732	-0.749869	-0.734121
C32	C	-0.503739	-0.696189	-0.672829
C33	C	-0.582696	-0.717481	-0.778053
C34	C	-0.569666	-0.631418	-0.760689
C35	C	-0.490709	-0.610125	-0.655465
C36	C	-0.669627	-1.271078	-0.637461
C37	C	-0.751942	-1.271110	-0.637484
C38	C	-1.051054	-1.271300	-0.637565
C39	C	-1.000470	-1.220685	-0.688580
C40	C	-0.914836	-1.220343	-0.688319
C41	C	-0.902661	-1.271206	-0.637525
C42	C	-0.943369	-1.230125	-0.545923
C43	C	-1.028894	-1.229793	-0.546222
C44	C	-1.029247	-1.362979	-0.677415
C45	C	-0.943231	-1.362851	-0.679217
C46	C	-0.818797	-1.271153	-0.637498
C47	C	-1.134919	-1.271349	-0.637586
C48	C	-0.284081	-1.271335	-0.637577
C49	C	-0.201773	-1.271395	-0.637606
C50	C	-0.444713	-1.314719	-0.852472
C51	C	-0.430857	-1.333266	-0.944077
C52	C	-0.509806	-0.486147	-0.680919
C53	C	-0.523672	-0.577742	-0.699392
C54	C	-0.582139	-1.130604	-1.192045
C55	C	-0.569112	-1.148049	-1.278125
C56	C	-0.490381	-1.253520	-1.299440
C57	C	-0.503399	-1.236080	-1.213359
C58	C	-0.549279	-1.174621	-1.159668
C59	C	-0.470538	-1.280097	-1.180982
C60	C	-0.483558	-1.262662	-1.094909
C61	C	-0.529438	-1.201208	-1.041213
C62	C	-0.562298	-1.157186	-1.073595
C63	C	-0.424663	-1.341560	-1.234675
C64	C	-0.391803	-1.385577	-1.202298
C65	C	-0.404818	-1.368138	-1.116223
C66	C	-0.450698	-1.306684	-1.062527
C67	C	-0.371957	-1.412160	-1.083841
C68	C	-0.384977	-1.394725	-0.997769
C69	C	-0.463717	-1.289249	-0.976454
C70	C	-0.509572	-1.227885	-0.423388
C71	C	-0.523244	-1.209497	-0.331816
H72	H	-0.540396	-0.938397	-0.721704
Br73	Br	-0.624555	-1.073767	-1.000718
H74	H	-0.540041	-1.187016	-0.971128
H75	H	-0.595874	-1.112200	-1.304482
H76	H	-0.619478	-1.080538	-1.148322
Br77	Br	-0.428122	-1.336928	-1.372314
Br78	Br	-0.329543	-1.468986	-1.275172
Br79	Br	-0.930976	-1.431388	-0.624143
Br80	Br	-1.022128	-1.266737	-0.801174
H81	H	-0.358067	-0.938163	-0.478717
H82	H	-0.414066	-1.355755	-1.304761
Br83	Br	-0.933043	-1.288344	-0.479555
H84	H	-0.501057	-1.239183	-0.932731
Br85	Br	-0.868178	-1.107671	-0.642016
H86	H	-0.600204	-0.879649	-0.801400
Br87	Br	-0.897680	-1.413957	-0.791724
Br88	Br	-0.309706	-1.495576	-1.156719
Br89	Br	-0.407090	-0.558094	-0.544042
Br90	Br	-0.329413	-0.634427	-0.440468
H91	H	-1.042128	-1.162253	-0.514508
H92	H	-1.063693	-1.400904	-0.640473
Br93	Br	-0.896638	-1.118564	-0.492725
Br94	Br	-1.023907	-1.108738	-0.642736
H95	H	-1.063749	-1.264107	-0.505970
H96	H	-0.453256	-0.566419	-0.605551
Br97	Br	-0.309480	-0.752873	-0.413906
H98	H	-0.501315	-0.976809	-0.669613
Br99	Br	-0.645109	-0.790337	-0.861242
H100	H	-0.596506	-0.605053	-0.796461
H101	H	-0.358217	-1.430567	-0.971407
Br102	Br	-0.867224	-1.266571	-0.800611
Br103	Br	-1.054902	-1.419697	-0.788393
