data_functionalizedCrystal
_audit_creation_method	'MofGen! by Chris Wilmer'
_symmetry_space_group_name_H-M	'P1'
_symmetry_Int_Tables_number	1
_symmetry_cell_setting	triclinic
loop_
_symmetry_equiv_pos_as_xyz
  x,y,z
_cell_length_a	15.944551
_cell_length_b	15.944545
_cell_length_c	18.366186
_cell_angle_alpha	89.991659
_cell_angle_beta	89.995445
_cell_angle_gamma	83.497456
loop_
_atom_site_label
_atom_site_type_symbol
_atom_site_fract_x
_atom_site_fract_y
_atom_site_fract_z
O1	O	1.114527	0.108334	-0.060477
O2	O	1.614527	0.608334	0.439523
O3	O	0.869977	0.121690	-0.060496
O4	O	1.369977	0.621690	0.439504
O5	O	0.998933	-0.007263	-0.060477
O6	O	1.498933	0.492737	0.439523
O7	O	0.985571	0.237287	-0.060496
O8	O	1.485571	0.737287	0.439504
O9	O	0.998911	-0.007270	0.060622
O10	O	1.498911	0.492730	0.560622
O11	O	0.869955	0.121683	0.060604
O12	O	1.369955	0.621683	0.560604
O13	O	1.114505	0.108327	0.060622
O14	O	1.614505	0.608327	0.560622
Zn15	Zn	0.992227	0.115004	0.079840
Zn16	Zn	1.492227	0.615004	0.579840
Zn17	Zn	0.992256	0.115013	-0.079714
Zn18	Zn	1.492256	0.615013	0.420286
O19	O	0.985549	0.237280	0.060604
O20	O	1.485549	0.737280	0.560604
C21	C	0.838672	0.121132	0.000052
C22	C	1.338672	0.621132	0.500052
C23	C	0.745426	0.119470	0.000045
C24	C	1.245426	0.619470	0.500045
C25	C	0.530571	0.035565	0.000065
C26	C	1.030571	0.535565	0.500065
C27	C	0.469561	0.074531	-0.059646
C28	C	0.969561	0.574531	0.440354
C29	C	0.574700	0.116463	0.000054
C30	C	1.074700	0.616463	0.500054
C31	C	0.469562	0.074544	0.059749
C32	C	0.969562	0.574544	0.559749
C33	C	0.409788	0.113552	0.000066
C34	C	0.909788	0.613552	0.500066
C35	C	0.514918	0.155450	-0.059707
C36	C	1.014918	0.655450	0.440293
C37	C	0.514925	0.155452	0.059741
C38	C	1.014925	0.655452	0.559741
C39	C	0.453933	0.194476	0.000015
C40	C	0.953933	0.694476	0.500015
C41	C	0.669703	0.118137	0.000046
C42	C	1.169703	0.618137	0.500046
C43	C	0.314787	0.111884	0.000068
C44	C	0.814787	0.611884	0.500068
C45	C	0.998368	-0.038561	0.000073
C46	C	1.498368	0.461439	0.500073
C47	C	0.996708	-0.131807	0.000075
C48	C	1.496708	0.368193	0.500075
C49	C	0.911814	-0.402440	0.000054
C50	C	1.411814	0.097560	0.500054
C51	C	0.952754	-0.351851	-0.059652
C52	C	1.452754	0.148149	0.440348
C53	C	0.990787	-0.467451	0.000054
C54	C	1.490787	0.032549	0.500054
C55	C	0.952754	-0.351885	0.059743
C56	C	1.452754	0.148115	0.559743
C57	C	0.993692	-0.302537	0.000065
C58	C	1.493692	0.197463	0.500065
C59	C	1.031706	-0.418090	-0.059701
C60	C	1.531706	0.081910	0.440299
C61	C	1.031694	-0.418127	0.059747
C62	C	1.531694	0.081873	0.559747
C63	C	1.072692	-0.367571	0.000027
C64	C	1.572692	0.132429	0.500027
C65	C	0.989112	-0.562453	0.000047
C66	C	1.489112	-0.062453	0.500047
C67	C	0.995374	-0.207538	0.000068
C68	C	1.495374	0.292462	0.500068
C69	C	1.145810	0.108885	0.000073
C70	C	1.645810	0.608885	0.500073
C71	C	1.239056	0.110547	0.000075
C72	C	1.739056	0.610547	0.500075
C73	C	0.986114	0.268578	0.000052
C74	C	1.486114	0.768578	0.500052
C75	C	0.987774	0.361824	0.000045
C76	C	1.487774	0.861824	0.500045
N77	N	0.992213	0.114998	0.188731
N78	N	1.492213	0.614998	0.688731
N79	N	0.992276	0.115012	-0.188605
N80	N	1.492276	0.615012	0.311395
C81	C	1.049334	0.057926	0.226840
C82	C	1.549334	0.557926	0.726840
C83	C	1.049339	0.057922	0.303068
C84	C	1.549339	0.557922	0.803068
C85	C	0.992232	0.115005	0.341184
C86	C	1.492232	0.615005	0.841184
C87	C	0.935101	0.172082	0.303066
C88	C	1.435101	0.672082	0.803066
C89	C	0.935091	0.172078	0.226840
C90	C	1.435091	0.672078	0.726840
C91	C	0.981229	0.191504	0.461938
C92	C	1.481229	0.691504	0.961938
C93	C	0.981245	0.191508	0.538163
C94	C	1.481245	0.691508	1.038163
C95	C	0.992256	0.115016	0.576291
C96	C	1.492256	0.615016	1.076291
C97	C	1.003269	0.038515	0.538186
C98	C	1.503269	0.538515	1.038186
C99	C	1.003260	0.038512	0.461959
C100	C	1.503260	0.538512	0.961959
C101	C	0.992235	0.115015	0.423839
C102	C	1.492235	0.615015	0.923839
C103	C	1.049385	0.057934	0.697055
C104	C	1.549385	0.557934	1.197055
C105	C	1.049384	0.057930	0.773284
C106	C	1.549384	0.557930	1.273284
C107	C	0.935150	0.172097	0.773281
C108	C	1.435150	0.672097	1.273281
C109	C	0.935147	0.172094	0.697054
C110	C	1.435147	0.672094	1.197054
C111	C	0.992269	0.115014	0.658945
C112	C	1.492269	0.615014	1.158945
H113	H	0.449461	0.040317	-0.110123
H114	H	0.949461	0.540317	0.389877
Cl115	Cl	0.901227	-0.307246	0.137672
Cl116	Cl	1.401227	0.192754	0.637672
H117	H	1.095843	0.011446	0.195814
H118	H	1.595843	0.511446	0.695814
Cl119	Cl	1.177776	-0.343647	-0.000016
Cl120	Cl	1.677776	0.156353	0.499984
H121	H	1.095896	0.011450	0.804313
H122	H	1.595896	0.511450	1.304313
H123	H	0.972248	0.253797	0.430900
H124	H	1.472248	0.753797	0.930900
Cl125	Cl	0.545996	0.208232	0.137678
Cl126	Cl	1.045996	0.708232	0.637678
Cl127	Cl	0.863278	0.243833	0.178929
Cl128	Cl	1.363278	0.743833	0.678929
H129	H	0.972282	0.253800	0.569183
H130	H	1.472282	0.753800	1.069183
Cl131	Cl	1.083175	-0.462555	-0.137720
Cl132	Cl	1.583175	0.037445	0.362280
H133	H	1.065008	-0.447080	0.110231
H134	H	1.565008	0.052920	0.610231
H135	H	0.563906	-0.031573	-0.000003
H136	H	1.063906	0.468427	0.499997
H137	H	0.534915	0.189644	-0.110243
H138	H	1.034915	0.689644	0.389757
H139	H	0.843802	-0.418092	-0.000010
H140	H	1.343802	0.081908	0.499990
H141	H	0.420773	0.261684	-0.000023
H142	H	0.920773	0.761684	0.499977
H143	H	0.888649	0.218572	0.804315
H144	H	1.388649	0.718572	1.304315
H145	H	0.919411	-0.322914	-0.110134
H146	H	1.419411	0.177086	0.389866
H147	H	0.888602	0.218558	0.334104
H148	H	1.388602	0.718558	0.834104
Cl149	Cl	1.121155	-0.013832	0.350984
Cl150	Cl	1.621155	0.486168	0.850984
Cl151	Cl	0.438539	0.021693	0.137687
Cl152	Cl	0.938539	0.521693	0.637687
H153	H	1.012225	-0.023778	0.430937
H154	H	1.512225	0.476222	0.930937
Cl155	Cl	1.017119	-0.057654	0.586110
Cl156	Cl	1.517119	0.442346	1.086110
Cl157	Cl	1.121190	-0.013828	0.649146
Cl158	Cl	1.621190	0.486172	1.149146
Cl159	Cl	0.863339	0.243850	0.649141
Cl160	Cl	1.363339	0.743850	1.149141
