data_functionalizedCrystal
_audit_creation_method	'MofGen! by Chris Wilmer'
_symmetry_space_group_name_H-M	'P1'
_symmetry_Int_Tables_number	1
_symmetry_cell_setting	triclinic
loop_
_symmetry_equiv_pos_as_xyz
  x,y,z
_cell_length_a	19.077105
_cell_length_b	12.759399
_cell_length_c	19.076919
_cell_angle_alpha	92.274423
_cell_angle_beta	90.076224
_cell_angle_gamma	87.711582
loop_
_atom_site_label
_atom_site_type_symbol
_atom_site_fract_x
_atom_site_fract_y
_atom_site_fract_z
Zn1	Zn	1.058325	-0.508276	-0.440434
Zn2	Zn	1.062983	-0.677203	-0.322932
Zn3	Zn	0.945542	-0.494201	-0.318226
Zn4	Zn	0.940805	-0.676569	-0.435685
O5	O	1.001914	-0.589062	-0.379319
O6	O	1.157276	-0.536839	-0.428803
O7	O	1.051336	-0.647302	-0.223976
O8	O	0.960535	-0.349050	-0.334456
O9	O	1.160698	-0.660949	-0.342476
O10	O	1.043397	-0.359391	-0.424241
O11	O	0.965052	-0.512852	-0.220519
O12	O	0.846581	-0.512237	-0.329851
O13	O	0.952463	-0.659869	-0.534646
O14	O	0.843101	-0.646222	-0.416147
O15	O	1.038804	-0.536225	-0.538135
O16	O	1.046743	-0.824136	-0.337871
O17	O	0.956979	-0.823671	-0.420709
C18	C	0.819344	-0.577635	-0.371973
C19	C	0.741240	-0.572772	-0.368847
C20	C	1.001871	-0.862026	-0.379301
C21	C	1.001917	-0.978806	-0.379320
C22	C	0.702755	-0.640344	-0.412238
C23	C	0.629367	-0.635761	-0.409304
C24	C	0.594465	-0.563611	-0.362976
C25	C	0.632955	-0.496033	-0.319583
C26	C	0.706341	-0.500611	-0.322521
C27	C	0.375176	-0.542424	-0.349382
C28	C	0.301784	-0.537853	-0.346446
C29	C	0.298202	-0.677580	-0.436168
C30	C	0.371590	-0.682156	-0.439099
C31	C	0.410073	-0.614574	-0.395709
N32	N	0.519451	-0.558928	-0.359974
N33	N	0.485085	-0.619253	-0.398715
C34	C	1.048706	-1.033882	-0.336239
C35	C	1.048750	-1.143610	-0.336264
C36	C	0.955209	-1.143177	-0.422453
C37	C	0.955169	-1.033451	-0.422431
C38	C	1.132698	-1.297227	-0.314590
C39	C	1.179482	-1.352305	-0.271497
C40	C	1.193053	-1.313482	-0.203371
C41	C	1.159831	-1.219581	-0.178322
C42	C	1.113042	-1.164508	-0.221411
C43	C	1.099484	-1.203331	-0.289547
C44	C	0.871220	-0.879832	-0.444098
C45	C	0.824428	-0.824756	-0.487184
C46	C	0.810849	-0.863577	-0.555311
C47	C	0.844059	-0.957481	-0.580357
C48	C	0.890852	-1.012557	-0.537271
C49	C	0.904431	-0.973728	-0.469145
C50	C	1.185196	-0.600535	-0.386694
C51	C	1.263300	-0.605424	-0.389837
C52	C	0.994585	-0.599547	-0.562600
C53	C	0.991463	-0.604014	-0.640703
C54	C	1.001975	-0.315035	-0.379353
C55	C	1.002001	-0.198260	-0.379367
C56	C	1.034947	-0.541741	-0.679214
C57	C	1.032004	-0.545935	-0.752599
C58	C	0.985580	-0.612408	-0.787473
C59	C	0.942091	-0.674683	-0.748957
C60	C	0.945031	-0.670483	-0.675573
C61	C	0.971964	-0.631866	-1.006755
C62	C	0.969029	-0.636063	-1.080145
C63	C	1.058941	-0.507313	-1.083782
C64	C	1.061880	-0.503124	-1.010396
C65	C	1.018388	-0.565395	-0.971886
N66	N	0.982572	-0.616698	-0.862486
N67	N	1.021393	-0.561098	-0.896875
C68	C	1.009254	-0.578545	-0.196753
C69	C	1.012513	-0.573790	-0.118656
H70	H	0.731167	-0.699099	-0.449961
H71	H	0.598037	-0.690786	-0.444636
H72	H	1.099685	-0.448997	-0.982007
H73	H	0.400002	-0.740910	-0.476823
H74	H	0.266861	-0.732600	-0.471495
H75	H	0.737674	-0.445582	-0.287192
H76	H	0.273369	-0.479088	-0.308725
H77	H	0.882278	-0.848209	-0.388625
C78	C	0.918570	-0.708061	-1.118094
C79	C	0.871875	-0.648156	-1.158430
C80	C	0.825390	-0.714441	-1.193403
H81	H	0.893018	-0.744564	-1.084724
H82	H	0.944266	-0.757149	-1.147838
H83	H	0.846181	-0.599086	-1.128688
H84	H	0.897407	-0.611655	-1.191813
H85	H	0.851086	-0.763530	-1.223148
H86	H	0.799843	-0.750941	-1.160029
H87	H	0.793706	-0.673807	-1.220781
H88	H	0.936561	-0.682587	-0.975410
H89	H	0.406500	-0.487401	-0.314046
H90	H	1.072752	-0.487615	-0.650825
H91	H	0.604532	-0.437283	-0.281865
H92	H	0.904289	-0.728803	-0.777358
H93	H	0.909615	-0.721182	-0.644218
C94	C	1.079301	-0.478286	-0.794288
C95	C	1.120603	-0.419200	-0.748040
C96	C	1.164189	-0.356878	-0.786418
H97	H	1.051366	-0.432372	-0.821843
H98	H	1.108798	-0.522011	-0.824131
H99	H	1.091109	-0.375478	-0.718209
H100	H	1.148552	-0.465087	-0.720484
H101	H	1.193687	-0.400603	-0.816261
H102	H	1.136249	-0.310970	-0.813971
H103	H	1.192222	-0.316788	-0.755045
H104	H	1.094348	-0.456614	-1.115144
C105	C	0.904565	-1.202653	-0.469297
C106	C	0.942536	-1.270653	-0.515966
C107	C	0.895903	-1.325467	-0.559122
H108	H	0.876674	-1.154259	-0.495020
H109	H	0.875071	-1.242123	-0.441188
H110	H	0.972017	-1.231186	-0.544072
H111	H	0.970424	-1.319067	-0.490263
H112	H	0.866409	-1.364936	-0.531013
H113	H	0.868015	-1.277065	-0.584839
H114	H	0.921659	-1.371617	-0.590788
C115	C	1.118118	-1.339416	-0.388584
C116	C	1.180764	-1.346845	-0.426936
C117	C	1.167361	-1.385724	-0.495099
H118	H	1.085535	-1.293236	-0.410755
H119	H	1.099124	-1.406945	-0.386634
H120	H	1.199748	-1.279326	-0.428889
H121	H	1.213356	-1.393029	-0.404787
H122	H	1.148367	-1.453253	-0.493149
H123	H	1.134777	-1.339540	-0.517263
H124	H	1.209865	-1.390779	-0.521127
H125	H	1.086771	-0.989393	-0.301136
H126	H	0.917895	-1.089016	-0.557671
H127	H	1.170879	-1.187984	-0.122844
C128	C	1.077071	-1.062554	-0.194109
C129	C	1.098978	-1.040328	-0.125225
C130	C	1.065867	-0.946405	-0.100055
H131	H	1.027674	-1.069395	-0.194863
H132	H	1.089160	-1.007069	-0.223005
H133	H	1.086884	-1.095799	-0.096337
H134	H	1.148370	-1.033466	-0.124452
H135	H	1.077956	-0.890920	-0.128951
H136	H	1.016471	-0.953255	-0.100813
H137	H	1.080731	-0.931308	-0.053318
C138	C	1.243897	-1.373403	-0.156704
C139	C	1.270096	-1.463931	-0.193225
C140	C	1.316944	-1.519151	-0.150266
H141	H	1.220197	-1.392664	-0.115683
H142	H	1.281615	-1.330192	-0.143820
H143	H	1.232384	-1.507134	-0.206099
H144	H	1.293808	-1.444701	-0.234243
H145	H	1.354662	-1.475940	-0.137383
H146	H	1.293238	-1.538405	-0.109247
H147	H	1.334730	-1.580575	-0.175042
H148	H	0.833003	-0.989090	-0.635832
H149	H	1.206531	-1.428760	-0.291899
H150	H	0.772745	-0.818725	-0.590389
H151	H	0.797391	-0.748290	-0.466787
