data_functionalizedCrystal
_audit_creation_method	'MofGen! by Chris Wilmer'
_symmetry_space_group_name_H-M	'P1'
_symmetry_Int_Tables_number	1
_symmetry_cell_setting	triclinic
loop_
_symmetry_equiv_pos_as_xyz
  x,y,z
_cell_length_a	10.540539
_cell_length_b	14.971486
_cell_length_c	13.448316
_cell_angle_alpha	89.999610
_cell_angle_beta	90.005162
_cell_angle_gamma	84.069810
loop_
_atom_site_label
_atom_site_type_symbol
_atom_site_fract_x
_atom_site_fract_y
_atom_site_fract_z
O1	O	0.165426	1.187872	0.082646
O2	O	0.185235	0.927584	0.082656
O3	O	-0.009443	1.063666	0.082649
O4	O	0.360104	1.051790	0.082652
O5	O	-0.009460	1.063663	-0.082734
O6	O	0.185219	0.927581	-0.082728
O7	O	0.165409	1.187869	-0.082738
Cu8	Cu	0.175312	1.057725	-0.097834
Cu9	Cu	0.175332	1.057728	0.097752
O10	O	0.360088	1.051787	-0.082731
C11	C	-0.056745	1.062774	-0.000041
C12	C	-0.197662	1.060109	-0.000035
C13	C	0.184341	0.894253	-0.000034
C14	C	0.181686	0.794940	-0.000030
C15	C	0.166303	1.221200	-0.000045
C16	C	0.168958	1.320512	-0.000043
C17	C	-0.379930	0.958001	0.000340
C18	C	-0.233343	0.960702	-0.000032
C19	C	-0.259873	1.107947	-0.094479
C20	C	-0.406379	1.104554	-0.094559
C21	C	-0.406901	1.106580	0.093513
C22	C	-0.259929	1.107495	0.094762
C23	C	0.407389	1.052679	-0.000039
C24	C	0.548307	1.055344	-0.000038
N25	N	0.175337	1.057731	0.235316
C26	C	0.054590	1.377093	-0.000041
C27	C	0.057092	1.470407	-0.000044
C28	C	0.173964	1.507138	-0.000043
C29	C	0.288341	1.450550	-0.000048
C30	C	0.285837	1.357238	-0.000052
C31	C	0.293551	1.645041	-0.000038
C32	C	0.296055	1.738360	-0.000033
C33	C	0.064805	1.758211	-0.000030
C34	C	0.062301	1.664899	-0.000034
C35	C	0.176679	1.608317	-0.000038
N36	N	0.175298	1.057729	-0.235398
C37	C	0.089303	1.118103	0.287353
C38	C	0.089299	1.118107	0.391457
C39	C	0.175324	1.057734	0.443521
C40	C	0.261367	0.997359	0.391476
C41	C	0.261376	0.997361	0.287375
C42	C	0.261341	0.997360	0.608456
C43	C	0.261331	0.997357	0.712565
C44	C	0.089265	1.118106	0.712538
C45	C	0.089273	1.118107	0.608437
C46	C	0.175315	1.057731	0.556399
H47	H	-0.190306	0.923061	0.067669
H48	H	0.019245	1.167267	0.433825
H49	H	-0.218666	1.072493	0.164629
C50	C	-0.005381	1.184504	0.551168
N51	N	-0.076681	1.234513	0.508034
H52	H	-0.236530	1.179971	0.100462
H53	H	0.331410	0.948198	0.566091
C54	C	-0.005336	1.184517	0.230093
N55	N	-0.076619	1.234544	0.186967
C56	C	-0.417970	0.904945	0.091830
N57	N	-0.446633	0.864981	0.160741
C58	C	0.424620	1.778761	-0.000036
N59	N	0.521457	1.809191	-0.000039
C60	C	-0.471809	1.203578	0.094372
N61	N	-0.520706	1.276633	0.095013
H62	H	0.331383	0.948196	0.754950
H63	H	0.378968	1.311170	-0.000058
H64	H	-0.438081	1.074408	0.165096
C65	C	0.419373	1.582803	-0.000036
N66	N	0.514141	1.535925	-0.000028
H67	H	-0.409701	0.918891	-0.067005
C68	C	-0.073981	1.336699	-0.000044
N69	N	-0.170824	1.306277	-0.000052
H70	H	-0.036039	1.516472	-0.000046
H71	H	-0.434184	1.069198	-0.165155
C72	C	-0.066263	1.624497	-0.000042
N73	N	-0.163101	1.594067	-0.000055
C74	C	-0.472282	1.201135	-0.100366
N75	N	-0.521914	1.273878	-0.104747
H76	H	-0.238347	1.180949	-0.097994
H77	H	0.019207	1.167266	0.754913
C78	C	-0.176356	0.909494	-0.091645
N79	N	-0.133434	0.870923	-0.160653
C80	C	0.355996	0.930948	0.448750
N81	N	0.427268	0.880923	0.491888
C82	C	-0.201834	1.063046	-0.189426
N83	N	-0.158122	1.029221	-0.260938
H84	H	0.331435	0.948201	0.245007
H85	H	-0.028326	1.804284	-0.000025
H86	H	0.383500	1.480463	-0.000053
