data_functionalizedCrystal
_audit_creation_method	'MofGen! by Chris Wilmer'
_symmetry_space_group_name_H-M	'P1'
_symmetry_Int_Tables_number	1
_symmetry_cell_setting	triclinic
loop_
_symmetry_equiv_pos_as_xyz
  x,y,z
_cell_length_a	12.827893
_cell_length_b	12.759400
_cell_length_c	12.827885
_cell_angle_alpha	89.969316
_cell_angle_beta	89.980728
_cell_angle_gamma	90.014655
loop_
_atom_site_label
_atom_site_type_symbol
_atom_site_fract_x
_atom_site_fract_y
_atom_site_fract_z
Zn1	Zn	1.597675	-0.418214	-0.590844
Zn2	Zn	2.097675	0.081786	-0.090844
Zn3	Zn	1.597571	-0.593930	-0.416102
Zn4	Zn	2.097571	-0.093930	0.083898
Zn5	Zn	1.422916	-0.418266	-0.416117
Zn6	Zn	1.922916	0.081734	0.083883
Zn7	Zn	1.422904	-0.593852	-0.590802
Zn8	Zn	1.922904	-0.093852	-0.090802
O9	O	1.510266	-0.506066	-0.503466
O10	O	2.010266	-0.006066	-0.003466
O11	O	1.743897	-0.441535	-0.567675
O12	O	2.243897	0.058465	-0.067675
O13	O	1.574365	-0.570683	-0.269868
O14	O	2.074365	-0.070683	0.230132
O15	O	1.446147	-0.271238	-0.439319
O16	O	1.946147	0.228762	0.060681
O17	O	1.743821	-0.570633	-0.439293
O18	O	2.243821	-0.070633	0.060707
O19	O	1.574541	-0.271200	-0.567690
O20	O	2.074541	0.228800	-0.067690
O21	O	1.446046	-0.441623	-0.269879
O22	O	1.946046	0.058377	0.230121
O23	O	1.276678	-0.441546	-0.439278
O24	O	1.776678	0.058454	0.060722
O25	O	1.446125	-0.570498	-0.737043
O26	O	1.946125	-0.070498	-0.237043
O27	O	1.276669	-0.570549	-0.567618
O28	O	1.776669	-0.070549	-0.067618
O29	O	1.574529	-0.441458	-0.737074
O30	O	2.074529	0.058542	-0.237074
O31	O	1.574352	-0.740941	-0.439252
O32	O	2.074352	-0.240941	0.060748
O33	O	1.446025	-0.740883	-0.567603
O34	O	1.946025	-0.240883	-0.067603
C35	C	1.238756	-0.506045	-0.503446
C36	C	1.738756	-0.006045	-0.003446
C37	C	1.122603	-0.506062	-0.503462
C38	C	1.622603	-0.006062	-0.003462
C39	C	1.070842	-0.569996	-0.566871
C40	C	1.570842	-0.069996	-0.066871
C41	C	0.950791	-0.570015	-0.566889
C42	C	1.450791	-0.070015	-0.066889
C43	C	1.510204	-0.779033	-0.503444
C44	C	2.010204	-0.279033	-0.003444
C45	C	1.510273	-0.895810	-0.503470
C46	C	2.010273	-0.395810	-0.003470
C47	C	1.577168	-0.950667	-0.436711
C48	C	2.077168	-0.450667	0.063289
C49	C	1.577232	-1.060391	-0.436743
C50	C	2.077232	-0.560391	0.063257
C51	C	1.443499	-1.060391	-0.570296
C52	C	1.943499	-0.560391	-0.070296
C53	C	1.443440	-0.950669	-0.570268
C54	C	1.943440	-0.450669	-0.070268
C55	C	1.644001	-0.895808	-0.369913
C56	C	2.144001	-0.395808	0.130087
C57	C	1.710899	-0.950665	-0.303148
C58	C	2.210899	-0.450665	0.196852
C59	C	1.710964	-1.060389	-0.303180
C60	C	2.210964	-0.560389	0.196820
C61	C	1.644129	-1.115256	-0.369977
C62	C	2.144129	-0.615256	0.130023
C63	C	1.782836	-0.506087	-0.503487
C64	C	2.282836	-0.006087	-0.003487
C65	C	1.898990	-0.506096	-0.503495
C66	C	2.398990	-0.006096	-0.003495
C67	C	1.510337	-0.505964	-0.776036
C68	C	2.010337	-0.005964	-0.276036
C69	C	1.510368	-0.505920	-0.892190
C70	C	2.010368	-0.005920	-0.392190
C71	C	1.510357	-0.232032	-0.503511
C72	C	2.010357	0.267968	-0.003511
C73	C	1.510396	-0.115256	-0.503530
C74	C	2.010396	0.384744	-0.003530
C75	C	1.573871	-0.569757	-0.943969
C76	C	2.073871	-0.069757	-0.443969
C77	C	1.573903	-0.569714	-1.064019
C78	C	2.073903	-0.069714	-0.564019
C79	C	1.510256	-0.506091	-0.231956
C80	C	2.010256	-0.006091	0.268044
C81	C	1.510428	-0.505839	-0.115803
C82	C	2.010428	-0.005839	0.384197
H83	H	1.078042	-0.451335	-0.449194
H84	H	1.578042	0.048665	0.050806
F85	F	1.644963	-0.641158	-1.122218
F86	F	2.144963	-0.141158	-0.622218
H87	H	1.765320	-0.905987	-0.248770
H88	H	2.265320	-0.405987	0.251230
F89	F	1.644167	-0.779031	-0.370102
F90	F	2.144167	-0.279031	0.129898
H91	H	1.388970	-0.906003	-0.624630
H92	H	1.888970	-0.406003	-0.124630
F93	F	1.782170	-1.118769	-0.232133
F94	F	2.282170	-0.618769	0.267867
F95	F	1.129081	-0.641528	-0.637810
F96	F	1.629081	-0.141528	-0.137810
H97	H	1.644195	-1.204601	-0.370006
H98	H	2.144195	-0.704601	0.129994
F99	F	1.372372	-1.118787	-0.641379
F100	F	1.872372	-0.618787	-0.141379
F101	F	1.439355	-0.434403	-1.057612
F102	F	1.939355	0.065597	-0.557612
H103	H	1.628217	-0.624439	-0.899422
H104	H	2.128217	-0.124439	-0.399422
H105	H	1.456030	-0.451231	-0.936736
H106	H	1.956030	0.048769	-0.436736
H107	H	0.906277	-0.624754	-0.621173
H108	H	1.406277	-0.124754	-0.121173
H109	H	0.943497	-0.451360	-0.449202
H110	H	1.443497	0.048640	0.050798
