data_functionalizedCrystal
_audit_creation_method	'MofGen! by Chris Wilmer'
_symmetry_space_group_name_H-M	'P1'
_symmetry_Int_Tables_number	1
_symmetry_cell_setting	triclinic
loop_
_symmetry_equiv_pos_as_xyz
  x,y,z
_cell_length_a	10.723024
_cell_length_b	10.540539
_cell_length_c	9.198806
_cell_angle_alpha	89.998955
_cell_angle_beta	89.996352
_cell_angle_gamma	84.496680
loop_
_atom_site_label
_atom_site_type_symbol
_atom_site_fract_x
_atom_site_fract_y
_atom_site_fract_z
O1	O	1.657276	0.178046	-0.120876
O2	O	2.157276	0.678046	0.379124
O3	O	1.294132	0.195088	-0.120880
O4	O	1.794132	0.695088	0.379120
O5	O	1.483989	0.001856	-0.120876
O6	O	1.983989	0.501856	0.379124
O7	O	1.467419	0.371278	-0.120880
O8	O	1.967419	0.871278	0.379120
O9	O	1.483974	0.001856	0.120909
O10	O	1.983974	0.501856	0.620909
O11	O	1.294117	0.195088	0.120905
O12	O	1.794117	0.695088	0.620905
O13	O	1.657261	0.178045	0.120909
O14	O	2.157261	0.678045	0.620909
Cu15	Cu	1.475688	0.186567	0.142984
Cu16	Cu	1.975688	0.686567	0.642984
Cu17	Cu	1.475706	0.186567	-0.142955
Cu18	Cu	1.975706	0.686567	0.357045
O19	O	1.467404	0.371277	0.120905
O20	O	1.967404	0.871277	0.620905
C21	C	1.247624	0.193848	0.000012
C22	C	1.747624	0.693848	0.500012
C23	C	1.109068	0.190137	0.000010
C24	C	1.609068	0.690137	0.500010
C25	C	1.482739	-0.045446	0.000014
C26	C	1.982739	0.454554	0.500014
C27	C	1.479021	-0.186392	0.000006
C28	C	1.979021	0.313608	0.500006
C29	C	1.034139	0.298260	0.000008
C30	C	1.534139	0.798260	0.500008
C31	C	0.890934	0.294427	0.000006
C32	C	1.390934	0.794427	0.500006
C33	C	1.336563	-0.369746	-0.000538
C34	C	1.836563	0.130254	0.499462
C35	C	1.340332	-0.223130	0.000006
C36	C	1.840332	0.276870	0.500006
C37	C	1.545756	-0.248085	0.138078
C38	C	2.045756	0.251915	0.638078
C39	C	1.541023	-0.394627	0.138194
C40	C	2.041023	0.105373	0.638194
C41	C	1.543861	-0.395146	-0.136760
C42	C	2.043861	0.104854	0.363240
C43	C	1.545138	-0.248164	-0.138586
C44	C	2.045138	0.251836	0.361414
C45	C	1.703769	0.179286	0.000014
C46	C	2.203769	0.679286	0.500014
C47	C	1.842325	0.182997	0.000007
C48	C	2.342325	0.682997	0.500007
C49	C	1.468654	0.418580	0.000012
C50	C	1.968654	0.918580	0.500012
C51	C	1.472372	0.559526	0.000011
C52	C	1.972372	1.059526	0.500011
N53	N	1.475684	0.186565	0.344098
N54	N	1.975684	0.686565	0.844098
N55	N	1.475719	0.186558	-0.344069
N56	N	1.975719	0.686558	0.155931
C57	C	1.555399	0.105075	0.416297
C58	C	2.055399	0.605075	0.916297
C59	C	1.555419	0.105071	0.583709
C60	C	2.055419	0.605071	1.083709
H61	H	1.076009	0.393665	0.000015
H62	H	1.576009	0.893665	0.500015
O63	O	0.927595	0.060375	0.000024
O64	O	1.427595	0.560375	0.500024
H65	H	0.987584	0.056512	-0.098514
H66	H	1.487584	0.556512	0.401486
O67	O	1.270753	-0.166641	-0.131075
O68	O	1.770753	0.333359	0.368925
H69	H	1.234100	-0.244039	-0.195425
H70	H	1.734100	0.255961	0.304575
H71	H	1.067199	0.094732	-0.000026
H72	H	1.567199	0.594732	0.499974
H73	H	1.281784	-0.398318	-0.099552
H74	H	1.781784	0.101682	0.400448
O75	O	1.676558	-0.457754	-0.138000
O76	O	2.176558	0.042246	0.362000
H77	H	1.692400	-0.515026	-0.238717
H78	H	2.192400	-0.015026	0.261283
H79	H	1.281995	-0.399926	0.097920
H80	H	1.781995	0.100074	0.597920
H81	H	1.407446	0.256325	0.406225
H82	H	1.907446	0.756325	0.906225
H83	H	1.491690	-0.422801	0.241405
H84	H	1.991690	0.077199	0.741405
O85	O	0.805662	0.417047	0.000017
O86	O	1.305662	0.917047	0.500017
H87	H	0.706565	0.394795	0.000030
H88	H	1.206565	0.894795	0.500030
H89	H	1.623671	0.035308	0.645797
H90	H	2.123671	0.535308	1.145797
O91	O	1.270301	-0.167768	0.131342
O92	O	1.770301	0.332232	0.631342
H93	H	1.233616	-0.245735	0.194722
H94	H	1.733616	0.254265	0.694722
H95	H	1.640766	-0.442646	0.144459
H96	H	2.140766	0.057354	0.644459
O97	O	1.680664	-0.218538	0.144910
O98	O	2.180664	0.281462	0.644910
H99	H	1.701628	-0.159424	0.049743
H100	H	2.201628	0.340576	0.549743
H101	H	1.499386	-0.205461	0.240826
H102	H	1.999386	0.294539	0.740826
H103	H	1.498980	-0.426675	-0.241410
H104	H	1.998980	0.073325	0.258590
O105	O	1.385296	0.278962	0.573699
O106	O	1.885296	0.778962	1.073699
H107	H	1.438595	0.340922	0.504323
H108	H	1.938595	0.840922	1.004323
O109	O	1.480561	-0.193909	-0.273900
O110	O	1.980561	0.306091	0.226100
H111	H	1.401708	-0.123236	-0.242594
H112	H	1.901708	0.376764	0.257406
H113	H	1.623629	0.035306	0.354172
H114	H	2.123629	0.535306	0.854172
O115	O	1.679081	-0.216161	-0.149641
O116	O	2.179081	0.283839	0.350359
H117	H	1.731844	-0.252611	-0.052050
H118	H	2.231844	0.247389	0.447950
