data_functionalizedCrystal
_audit_creation_method	'MofGen! by Chris Wilmer'
_symmetry_space_group_name_H-M	'P1'
_symmetry_Int_Tables_number	1
_symmetry_cell_setting	triclinic
loop_
_symmetry_equiv_pos_as_xyz
  x,y,z
_cell_length_a	10.654549
_cell_length_b	14.971494
_cell_length_c	9.730223
_cell_angle_alpha	89.997316
_cell_angle_beta	89.997731
_cell_angle_gamma	84.051167
loop_
_atom_site_label
_atom_site_type_symbol
_atom_site_fract_x
_atom_site_fract_y
_atom_site_fract_z
O1	O	1.666497	0.125629	-0.114253
O2	O	1.300890	0.137598	-0.114262
O3	O	1.493487	0.001467	-0.114254
O4	O	1.473900	0.261760	-0.114260
O5	O	1.493475	0.001464	0.114326
O6	O	1.300878	0.137595	0.114318
O7	O	1.666485	0.125625	0.114327
Zn8	Zn	1.483679	0.131609	0.150615
Zn9	Zn	1.483696	0.131614	-0.150549
O10	O	1.473888	0.261756	0.114320
C11	C	1.254096	0.136718	0.000027
C12	C	1.114681	0.134089	0.000023
C13	C	0.903336	0.211763	0.000027
C14	C	1.034330	0.214240	0.000019
C15	C	1.064031	0.051454	0.000023
C16	C	0.933039	0.048978	0.000021
C17	C	1.492603	-0.031864	0.000034
C18	C	1.489973	-0.131175	0.000028
C19	C	1.488746	-0.177824	-0.124573
C20	C	1.486266	-0.271137	-0.124575
C21	C	1.485022	-0.317799	0.000026
C22	C	1.486244	-0.271143	0.124636
C23	C	1.488715	-0.177831	0.124636
C24	C	1.481097	-0.465634	0.124626
C25	C	1.478629	-0.558952	0.124627
C26	C	1.478648	-0.558940	-0.124584
C27	C	1.481119	-0.465628	-0.124584
C28	C	1.482344	-0.418978	0.000027
C29	C	1.713279	0.126506	0.000036
C30	C	1.852694	0.129135	0.000030
C31	C	1.474772	0.295087	0.000029
C32	C	1.477402	0.394398	0.000026
N33	N	1.483677	0.131605	0.356151
N34	N	1.483708	0.131611	-0.356085
C35	C	1.568988	0.071352	0.428081
C36	C	1.569001	0.071353	0.571964
C37	C	1.398388	0.191867	0.571975
C38	C	1.398370	0.191862	0.428095
H39	H	1.075555	0.281524	0.000015
F40	F	1.659797	0.007221	0.648512
F41	F	1.477337	-0.608587	-0.257205
F42	F	1.149550	-0.033850	0.000023
F43	F	0.817831	0.297074	0.000033
F44	F	1.484906	-0.320805	0.257245
H45	H	1.489696	-0.139849	0.226099
F46	F	0.879141	-0.038971	0.000010
F47	F	1.490080	-0.128172	-0.257192
H48	H	1.485273	-0.309115	-0.226037
F49	F	1.482455	-0.415969	-0.257197
H50	H	1.477605	-0.596941	0.226087
H51	H	1.638449	0.022287	0.369508
F52	F	1.307605	0.255996	0.648552
H53	H	1.482067	-0.427652	0.226098
F54	F	1.307561	0.255991	0.351536
