data_functionalizedCrystal
_audit_creation_method	'MofGen! by Chris Wilmer'
_symmetry_space_group_name_H-M	'P1'
_symmetry_Int_Tables_number	1
_symmetry_cell_setting	triclinic
loop_
_symmetry_equiv_pos_as_xyz
  x,y,z
_cell_length_a	23.532407
_cell_length_b	23.532407
_cell_length_c	22.010155
_cell_angle_alpha	89.984989
_cell_angle_beta	89.989642
_cell_angle_gamma	82.848717
loop_
_atom_site_label
_atom_site_type_symbol
_atom_site_fract_x
_atom_site_fract_y
_atom_site_fract_z
O1	O	-0.755269	-0.069133	0.050463
O2	O	-0.255269	0.430867	0.550463
O3	O	-0.589406	-0.079137	0.050483
O4	O	-0.089406	0.420863	0.550483
O5	O	-0.677339	0.008797	0.050452
O6	O	-0.177339	0.508797	0.550452
O7	O	-0.667336	-0.157067	0.050493
O8	O	-0.167336	0.342933	0.550493
O9	O	-0.677312	0.008797	-0.050598
O10	O	-0.177312	0.508797	0.449402
O11	O	-0.589379	-0.079137	-0.050568
O12	O	-0.089379	0.420863	0.449432
O13	O	-0.755243	-0.069133	-0.050587
O14	O	-0.255243	0.430867	0.449413
Cu15	Cu	-0.672309	-0.074135	-0.059804
Cu16	Cu	-0.172309	0.425865	0.440196
Cu17	Cu	-0.672340	-0.074135	0.059700
Cu18	Cu	-0.172340	0.425865	0.559700
O19	O	-0.667309	-0.157067	-0.050557
O20	O	-0.167309	0.342933	0.449443
C21	C	-0.568176	-0.078882	-0.000040
C22	C	-0.068176	0.421118	0.499960
C23	C	-0.504959	-0.078116	-0.000034
C24	C	-0.004959	0.421884	0.499966
C25	C	-0.677071	0.030013	-0.000077
C26	C	-0.177071	0.530013	0.499923
C27	C	-0.676305	0.093230	-0.000088
C28	C	-0.176305	0.593230	0.499912
C29	C	-0.776472	-0.069388	-0.000063
C30	C	-0.276472	0.430612	0.499937
C31	C	-0.839689	-0.070154	-0.000066
C32	C	-0.339689	0.429846	0.499934
C33	C	-0.105856	-0.125350	-0.000049
C34	C	0.394144	0.374650	0.499951
C35	C	-0.046456	-0.124638	-0.000053
C36	C	0.453544	0.375362	0.499947
O37	O	-0.009711	-0.168424	-0.000064
O38	O	0.490289	0.331576	0.499936
N39	N	-0.023830	-0.072362	-0.000065
N40	N	0.476170	0.427638	0.499935
C41	C	-0.060607	-0.020794	-0.000080
C42	C	0.439393	0.479206	0.499920
O43	O	-0.035908	0.023737	-0.000091
O44	O	0.464092	0.523737	0.499909
C45	C	-0.120006	-0.021506	-0.000080
C46	C	0.379994	0.478494	0.499920
C47	C	-0.142629	-0.073785	-0.000062
C48	C	0.357371	0.426215	0.499938
C49	C	-0.128480	-0.177625	-0.000032
C50	C	0.371520	0.322375	0.499968
C51	C	-0.187876	-0.178336	-0.000027
C52	C	0.312124	0.321664	0.499973
C53	C	-0.224649	-0.126772	-0.000039
C54	C	0.275351	0.373228	0.499961
C55	C	-0.202025	-0.074496	-0.000057
C56	C	0.297975	0.425504	0.499943
C57	C	-0.156783	0.030062	-0.000099
C58	C	0.343217	0.530062	0.499901
C59	C	-0.216185	0.029345	-0.000100
C60	C	0.283815	0.529345	0.499900
C61	C	-0.238808	-0.022934	-0.000081
C62	C	0.261192	0.477066	0.499919
C63	C	-0.298194	-0.023643	-0.000064
C64	C	0.201806	0.476357	0.499936
N65	N	-0.320821	-0.075920	-0.000052
N66	N	0.179179	0.424080	0.499948
C67	C	-0.284048	-0.127484	-0.000040
C68	C	0.215952	0.372516	0.499960
C69	C	0.064135	-0.019302	-0.000080
C70	C	0.564135	0.480698	0.499920
C71	C	0.123533	-0.018589	-0.000075
C72	C	0.623533	0.481411	0.499925
C73	C	0.137680	-0.122434	-0.000050
C74	C	0.637680	0.377566	0.499950
C75	C	0.078281	-0.123146	-0.000050
C76	C	0.578281	0.376854	0.499950
C77	C	0.041509	-0.071578	-0.000068
C78	C	0.541509	0.428422	0.499932
C79	C	-0.408784	-0.128974	-0.000029
C80	C	0.091216	0.371026	0.499971
C81	C	-0.468186	-0.129680	-0.000021
C82	C	0.031814	0.370320	0.499979
C83	C	-0.482329	-0.025836	-0.000050
C84	C	0.017671	0.474164	0.499950
C85	C	-0.422932	-0.025129	-0.000054
C86	C	0.077068	0.474871	0.499946
C87	C	-0.386160	-0.076702	-0.000046
C88	C	0.113840	0.423298	0.499954
O89	O	-0.334974	0.020119	-0.000056
O90	O	0.165026	0.520119	0.499944
O91	O	-0.308756	-0.172007	-0.000037
O92	O	0.191244	0.327993	0.499963
C93	C	-0.621110	0.359397	-0.000054
C94	C	-0.121110	0.859397	0.499946
C95	C	-0.621821	0.299997	-0.000056
C96	C	-0.121821	0.799997	0.499944
O97	O	-0.578035	0.263252	-0.000031
O98	O	-0.078035	0.763252	0.499969
N99	N	-0.674097	0.277371	-0.000069
N100	N	-0.174097	0.777371	0.499931
C101	C	-0.725666	0.314148	-0.000072
C102	C	-0.225666	0.814148	0.499928
O103	O	-0.770196	0.289449	-0.000082
O104	O	-0.270196	0.789449	0.499918
C105	C	-0.724953	0.373547	-0.000065
C106	C	-0.224953	0.873547	0.499935
C107	C	-0.672674	0.396170	-0.000059
C108	C	-0.172674	0.896170	0.499941
C109	C	-0.568834	0.382020	-0.000047
C110	C	-0.068834	0.882020	0.499953
C111	C	-0.568123	0.441417	-0.000046
C112	C	-0.068123	0.941417	0.499954
C113	C	-0.619687	0.478189	-0.000051
C114	C	-0.119687	0.978189	0.499949
C115	C	-0.671963	0.455566	-0.000058
C116	C	-0.171963	0.955566	0.499942
C117	C	-0.776521	0.410324	-0.000064
C118	C	-0.276521	0.910324	0.499936
C119	C	-0.775805	0.469726	-0.000057
C120	C	-0.275805	0.969726	0.499943
C121	C	-0.723525	0.492349	-0.000051
C122	C	-0.223525	0.992349	0.499949
C123	C	-0.722816	0.551735	-0.000062
C124	C	-0.222816	1.051735	0.499938
N125	N	-0.670539	0.574361	-0.000049
N126	N	-0.170539	1.074361	0.499951
C127	C	-0.618975	0.537589	-0.000044
C128	C	-0.118975	1.037589	0.499956
C129	C	-0.727157	0.189406	-0.000086
C130	C	-0.227157	0.689406	0.499914
C131	C	-0.727870	0.130008	-0.000097
C132	C	-0.227870	0.630008	0.499903
C133	C	-0.624025	0.115860	-0.000080
C134	C	-0.124025	0.615860	0.499920
C135	C	-0.623313	0.175260	-0.000073
C136	C	-0.123313	0.675260	0.499927
C137	C	-0.674881	0.212032	-0.000073
C138	C	-0.174881	0.712032	0.499927
C139	C	-0.617485	0.662325	-0.000042
C140	C	-0.117485	1.162325	0.499958
C141	C	-0.616779	0.721727	-0.000043
C142	C	-0.116779	1.221727	0.499957
C143	C	-0.720623	0.735869	-0.000056
C144	C	-0.220623	1.235869	0.499944
C145	C	-0.721330	0.676473	-0.000058
C146	C	-0.221330	1.176473	0.499942
C147	C	-0.669757	0.639701	-0.000049
C148	C	-0.169757	1.139701	0.499951
O149	O	-0.766579	0.588514	-0.000085
O150	O	-0.266579	1.088514	0.499915
O151	O	-0.574452	0.562296	-0.000026
O152	O	-0.074452	1.062296	0.499974
C153	C	-0.667577	0.821717	-0.000036
C154	C	-0.167577	1.321717	0.499964
C155	C	-0.668343	0.758500	-0.000048
C156	C	-0.168343	1.258500	0.499952
N157	N	-0.672291	-0.074135	-0.143857
N158	N	-0.172291	0.425865	0.356143
C159	C	-0.706685	-0.108496	-0.563631
C160	C	-0.206685	0.391504	-0.063631
C161	C	-0.706692	-0.108494	-0.627239
C162	C	-0.206692	0.391506	-0.127239
O163	O	-0.735915	-0.137705	-0.660127
O164	O	-0.235915	0.362295	-0.160127
N165	N	-0.672351	-0.074128	-0.659064
N166	N	-0.172351	0.425872	-0.159064
C167	C	-0.638005	-0.039758	-0.627278
C168	C	-0.138005	0.460242	-0.127278
O169	O	-0.608796	-0.010527	-0.660188
O170	O	-0.108796	0.489473	-0.160188
C171	C	-0.638002	-0.039757	-0.563671
C172	C	-0.138002	0.460243	-0.063671
C173	C	-0.672341	-0.074129	-0.531850
C174	C	-0.172341	0.425871	-0.031850
C175	C	-0.741022	-0.142864	-0.531810
C176	C	-0.241022	0.357136	-0.031810
C177	C	-0.741014	-0.142867	-0.468207
C178	C	-0.241014	0.357133	0.031793
C179	C	-0.706670	-0.108500	-0.436425
C180	C	-0.206670	0.391500	0.063575
C181	C	-0.672333	-0.074131	-0.468247
C182	C	-0.172333	0.425869	0.031753
C183	C	-0.603660	-0.005383	-0.531886
C184	C	-0.103660	0.494617	-0.031886
C185	C	-0.603660	-0.005384	-0.468276
C186	C	-0.103660	0.494616	0.031724
C187	C	-0.637999	-0.039757	-0.436454
C188	C	-0.137999	0.460243	0.063546
C189	C	-0.637981	-0.039766	-0.372862
C190	C	-0.137981	0.460234	0.127138
N191	N	-0.672322	-0.074132	-0.341037
N192	N	-0.172322	0.425868	0.158963
C193	C	-0.706667	-0.108498	-0.372819
C194	C	-0.206667	0.391502	0.127181
C195	C	-0.638015	-0.039762	-0.760855
C196	C	-0.138015	0.460238	-0.260855
C197	C	-0.638015	-0.039766	-0.824461
C198	C	-0.138015	0.460234	-0.324461
C199	C	-0.706703	-0.108502	-0.824418
C200	C	-0.206703	0.391498	-0.324418
C201	C	-0.706700	-0.108501	-0.760811
C202	C	-0.206700	0.391499	-0.260811
C203	C	-0.672356	-0.074128	-0.729031
C204	C	-0.172356	0.425872	-0.229031
C205	C	-0.706648	-0.108501	-0.239247
C206	C	-0.206648	0.391499	0.260753
C207	C	-0.706635	-0.108501	-0.175638
C208	C	-0.206635	0.391499	0.324362
C209	C	-0.637950	-0.039764	-0.175687
C210	C	-0.137950	0.460236	0.324313
C211	C	-0.637960	-0.039765	-0.239290
C212	C	-0.137960	0.460235	0.260710
C213	C	-0.672313	-0.074135	-0.271069
C214	C	-0.172313	0.425865	0.228931
O215	O	-0.608775	-0.010568	-0.339934
O216	O	-0.108775	0.489432	0.160066
O217	O	-0.735876	-0.137719	-0.339901
O218	O	-0.235876	0.362281	0.160099
N219	N	-0.672362	-0.074131	0.143752
N220	N	-0.172362	0.425869	0.643752
H221	H	-0.486602	-0.172255	-0.000006
H222	H	0.013398	0.327745	0.499994
H223	H	0.167632	-0.164421	-0.000042
H224	H	0.667632	0.335579	0.499958
H225	H	-0.138374	0.072634	-0.000114
H226	H	0.361626	0.572634	0.499886
N227	N	0.055185	-0.176553	-0.000044
N228	N	0.555185	0.323447	0.499956
N229	N	0.066572	-0.211237	-0.042631
N230	N	0.566572	0.288763	0.457369
H231	H	0.050264	-0.248958	-0.042629
H232	H	0.550264	0.251042	0.457371
H233	H	-0.768979	-0.170853	-0.442303
H234	H	-0.268979	0.329147	0.057697
H235	H	-0.762605	0.765820	-0.000064
H236	H	-0.262605	1.265820	0.499936
N237	N	-0.568591	0.029729	-0.564390
N238	N	-0.068591	0.529729	-0.064390
N239	N	-0.568593	0.029734	-0.621181
N240	N	-0.068593	0.529734	-0.121181
H241	H	-0.543824	0.054534	-0.644137
H242	H	-0.043824	0.554534	-0.144137
N243	N	-0.399828	0.028276	-0.000074
N244	N	0.100172	0.528276	0.499926
N245	N	-0.411201	0.062960	-0.042679
N246	N	0.088799	0.562960	0.457321
H247	H	-0.394887	0.100679	-0.042699
H248	H	0.105113	0.600679	0.457301
N249	N	-0.514715	0.464511	-0.000035
N250	N	-0.014715	0.964511	0.499965
N251	N	-0.468684	0.431662	-0.000027
N252	N	0.031316	0.931662	0.499973
H253	H	-0.430961	0.447968	-0.000017
H254	H	0.069039	0.947968	0.499983
H255	H	-0.610046	-0.011784	-0.850364
H256	H	-0.110046	0.488216	-0.350364
N257	N	-0.776113	-0.177973	-0.564258
N258	N	-0.276113	0.322027	-0.064258
N259	N	-0.806767	-0.208652	-0.535826
N260	N	-0.306767	0.291348	-0.035826
H261	H	-0.831550	-0.233453	-0.558738
H262	H	-0.331550	0.266547	-0.058738
H263	H	-0.512280	0.016146	-0.000057
H264	H	-0.012280	0.516146	0.499943
H265	H	-0.763901	0.658053	-0.000072
H266	H	-0.263901	1.158053	0.499928
N267	N	-0.371237	-0.181659	-0.000023
N268	N	0.128763	0.318341	0.499977
N269	N	-0.391454	-0.228326	-0.000008
N270	N	0.108546	0.271674	0.499992
H271	H	-0.364938	-0.265536	-0.000002
H272	H	0.135062	0.234464	0.499998
N273	N	-0.571346	0.078299	-0.000062
N274	N	-0.071346	0.578299	0.499938
N275	N	-0.524671	0.098500	-0.000049
N276	N	-0.024671	0.598500	0.499951
H277	H	-0.487468	0.071973	-0.000036
H278	H	0.012532	0.571973	0.499964
N279	N	-0.829920	0.387217	-0.000074
N280	N	-0.329920	0.887217	0.499926
N281	N	-0.841902	0.355665	-0.042671
N282	N	-0.341902	0.855665	0.457329
H283	H	-0.879619	0.339347	-0.042677
H284	H	-0.379619	0.839347	0.457323
N285	N	0.146628	0.034818	-0.000080
N286	N	0.646628	0.534818	0.499920
N287	N	0.113782	0.080851	-0.000088
N288	N	0.613782	0.580851	0.499912
H289	H	0.130090	0.118572	-0.000093
H290	H	0.630090	0.618572	0.499907
H291	H	-0.098544	-0.219617	-0.000024
H292	H	0.401456	0.280383	0.499976
H293	H	-0.610043	-0.011774	-0.734984
H294	H	-0.110043	0.488226	-0.234984
N295	N	-0.253738	0.082028	-0.000124
N296	N	0.246262	0.582028	0.499876
N297	N	-0.233527	0.128698	-0.000143
N298	N	0.266473	0.628698	0.499857
H299	H	-0.260047	0.165905	-0.000160
H300	H	0.239953	0.665905	0.499840
N301	N	-0.210977	-0.231740	-0.000031
N302	N	0.289023	0.268260	0.499969
N303	N	-0.242530	-0.243724	-0.042628
N304	N	0.257470	0.256276	0.457372
H305	H	-0.258842	-0.281444	-0.042635
H306	H	0.241158	0.218556	0.457365
H307	H	-0.574205	0.740143	-0.000040
H308	H	-0.074205	1.240143	0.499960
N309	N	-0.564800	0.624778	-0.000027
N310	N	-0.064800	1.124778	0.499973
N311	N	-0.518133	0.644995	-0.000019
N312	N	-0.018133	1.144995	0.499981
H313	H	-0.480923	0.618479	-0.000010
H314	H	0.019077	1.118479	0.499990
H315	H	-0.526842	0.352085	-0.000041
H316	H	-0.026842	0.852085	0.499959
H317	H	-0.580742	0.193674	-0.000071
H318	H	-0.080742	0.693674	0.499929
H319	H	-0.770441	0.111594	-0.000111
H320	H	-0.270441	0.611594	0.499889
N321	N	-0.741774	-0.143607	-0.728302
N322	N	-0.241774	0.356393	-0.228302
N323	N	-0.719325	-0.181376	-0.692802
N324	N	-0.219325	0.318624	-0.192802
H325	H	-0.744099	-0.206171	-0.669845
H326	H	-0.244099	0.293829	-0.169845
N327	N	0.026583	0.033382	-0.000095
N328	N	0.526583	0.533382	0.499905
N329	N	0.046798	0.080050	-0.000107
N330	N	0.546798	0.580050	0.499893
H331	H	0.020280	0.117259	-0.000119
H332	H	0.520280	0.617259	0.499881
N333	N	-0.602871	-0.004646	-0.143234
N334	N	-0.102871	0.495354	0.356766
N335	N	-0.549760	-0.011712	-0.150347
N336	N	-0.049760	0.488288	0.349653
H337	H	-0.524991	0.013098	-0.127429
H338	H	-0.024991	0.513098	0.372571
H339	H	-0.769152	0.219343	-0.000090
H340	H	-0.269152	0.719343	0.499910
H341	H	-0.817798	0.499664	-0.000054
H342	H	-0.317798	0.999664	0.499946
H343	H	-0.734667	-0.136486	-0.850306
H344	H	-0.234667	0.363514	-0.350306
N345	N	-0.741715	-0.143619	-0.143144
N346	N	-0.241715	0.356381	0.356856
N347	N	-0.772378	-0.174299	-0.171533
N348	N	-0.272378	0.325701	0.328467
H349	H	-0.797153	-0.199099	-0.148586
H350	H	-0.297153	0.300901	0.351414
H351	H	-0.734622	-0.136488	-0.265114
H352	H	-0.234622	0.363512	0.234886
N353	N	-0.568593	0.029740	-0.435809
N354	N	-0.068593	0.529740	0.064191
N355	N	-0.575729	0.082850	-0.442927
N356	N	-0.075729	0.582850	0.057073
H357	H	-0.550966	0.107658	-0.419996
H358	H	-0.050966	0.607658	0.080004
N359	N	-0.602871	-0.004662	-0.271789
N360	N	-0.102871	0.495338	0.228211
N361	N	-0.572205	0.026015	-0.243402
N362	N	-0.072205	0.526015	0.256598
H363	H	-0.547424	0.050810	-0.266350
H364	H	-0.047424	0.550810	0.233650
