data_functionalizedCrystal
_audit_creation_method	'MofGen! by Chris Wilmer'
_symmetry_space_group_name_H-M	'P1'
_symmetry_Int_Tables_number	1
_symmetry_cell_setting	triclinic
loop_
_symmetry_equiv_pos_as_xyz
  x,y,z
_cell_length_a	15.698487
_cell_length_b	20.016444
_cell_length_c	20.016444
_cell_angle_alpha	89.997102
_cell_angle_beta	119.999238
_cell_angle_gamma	60.002311
loop_
_atom_site_label
_atom_site_type_symbol
_atom_site_fract_x
_atom_site_fract_y
_atom_site_fract_z
Zr1	Zr	-0.932462	-0.643564	-0.087665
O2	O	-1.110170	-0.536886	-0.194337
O3	O	-0.754752	-0.676267	-0.054967
O4	O	-0.932472	-0.676258	-0.194343
O5	O	-0.932444	-0.536900	0.054984
O6	O	-0.932481	-0.786197	-0.194344
O7	O	-0.932450	-0.536894	-0.054961
O8	O	-0.614574	-0.786212	0.054974
O9	O	-1.250351	-0.536885	-0.194334
O10	O	-0.827855	-0.772259	-0.041019
O11	O	-0.827843	-0.690218	0.041033
O12	O	-1.037084	-0.690208	-0.123065
O13	O	-1.037072	-0.608166	-0.041013
Zr14	Zr	-0.932467	-0.818912	0.087683
Zr15	Zr	-0.932478	-0.818903	-0.087667
Zr16	Zr	-0.932451	-0.643573	0.087685
Zr17	Zr	-1.156035	-0.643563	-0.087660
Zr18	Zr	-0.708894	-0.818913	0.087678
O19	O	-1.110177	-0.786209	0.054984
O20	O	-1.110192	-0.786196	-0.194341
O21	O	-1.110155	-0.536899	0.054988
O22	O	-0.754759	-0.925590	0.194355
O23	O	-0.754775	-0.925577	-0.054970
O24	O	-0.754737	-0.676280	0.194358
O25	O	-0.932485	-0.925576	-0.054966
O26	O	-0.932458	-0.786218	0.194360
O27	O	-0.932448	-0.676279	0.194362
O28	O	-0.932479	-0.925582	0.054979
O29	O	-1.250364	-0.676257	-0.194336
O30	O	-0.614565	-0.786219	0.194354
O31	O	-0.614578	-0.925591	0.194352
O32	O	-0.614586	-0.925583	0.054972
O33	O	-1.250343	-0.536893	-0.054955
O34	O	-1.250355	-0.676264	-0.054957
O35	O	-0.827845	-0.772268	0.123082
O36	O	-0.827857	-0.854310	0.041030
O37	O	-1.037087	-0.772258	-0.041015
O38	O	-1.037074	-0.690217	0.041037
C39	C	-0.932445	-0.511915	0.000012
C40	C	-0.932438	-0.437479	0.000013
C41	C	-0.652809	-0.731239	0.000003
C42	C	-0.557896	-0.731240	0.000001
C43	C	-0.823232	-0.309044	0.042844
C44	C	-0.823235	-0.239099	0.042847
C45	C	-1.041677	-0.153445	-0.042815
C46	C	-1.041673	-0.223389	-0.042813
C47	C	-0.932446	-0.301188	0.000015
C48	C	-0.932454	-0.161300	0.000015
C49	C	-0.932458	-0.085463	0.000018
C50	C	-0.932442	-0.377030	0.000013
C51	C	-0.384113	-0.731238	0.000015
C52	C	-0.480818	-0.731237	0.000010
C53	C	-0.212120	-0.731238	0.000014
C54	C	-0.307032	-0.731240	0.000014
C55	C	-0.932477	0.049436	0.000009
C56	C	-0.932462	-0.025008	0.000017
C57	C	-0.932478	-0.731226	-0.219327
C58	C	-0.932483	-0.731222	-0.293768
C59	C	-1.041684	-0.688407	-0.507851
C60	C	-1.041679	-0.688413	-0.577792
C61	C	-0.823237	-0.774075	-0.492123
C62	C	-0.823243	-0.774072	-0.422184
C63	C	-0.932470	-0.731234	-0.430051
C64	C	-0.932459	-0.731242	-0.569931
C65	C	-0.932453	-0.731250	-0.645764
C66	C	-0.932477	-0.731227	-0.354213
C67	C	-0.932451	-0.731250	0.219345
C68	C	-0.932447	-0.731254	0.293785
C69	C	-0.652828	-0.950562	0.000000
C70	C	-0.557922	-1.024999	-0.000003
C71	C	-0.652795	-0.731251	0.219339
C72	C	-0.557878	-0.731255	0.293778
C73	C	-0.652815	-0.950574	0.219336
C74	C	-0.557904	-1.025014	0.293774
C75	C	-1.212114	-0.511902	-0.219318
C76	C	-1.307025	-0.437462	-0.293756
C77	C	-1.212101	-0.511914	0.000018
C78	C	-1.307007	-0.437477	0.000020
C79	C	-1.212134	-0.731225	-0.219321
C80	C	-1.307051	-0.731221	-0.293760
C81	C	-0.513352	-1.017126	-0.042841
C82	C	-0.424190	-1.087060	-0.042860
C83	C	-0.379594	-1.164867	-0.000036
C84	C	-0.424173	-1.172739	0.042803
C85	C	-0.513339	-1.102805	0.042817
C86	C	-0.513305	-0.774087	0.371571
C87	C	-0.424133	-0.774088	0.441521
C88	C	-0.379529	-0.731262	0.433675
C89	C	-0.424111	-0.688425	0.355874
C90	C	-0.513287	-0.688420	0.285926
C91	C	-0.513340	-1.102805	0.285900
C92	C	-0.424174	-1.172756	0.355835
C93	C	-0.379568	-1.164916	0.433644
C94	C	-0.424141	-1.087117	0.441516
C95	C	-0.513312	-1.017167	0.371581
C96	C	-1.351600	-0.359671	-0.285882
C97	C	-1.440794	-0.289720	-0.355818
C98	C	-1.485405	-0.297560	-0.433626
C99	C	-1.440826	-0.375359	-0.441498
C100	C	-1.351640	-0.445309	-0.371563
C101	C	-1.351586	-0.445350	0.042851
C102	C	-1.440773	-0.375416	0.042851
C103	C	-1.485372	-0.297609	0.000024
C104	C	-1.440789	-0.289737	-0.042811
C105	C	-1.351610	-0.359671	-0.042816
C106	C	-1.351627	-0.774055	-0.285888
C107	C	-1.440800	-0.774067	-0.355824
C108	C	-1.485402	-0.731239	-0.433632
C109	C	-1.440817	-0.688403	-0.441502
C110	C	-1.351640	-0.688397	-0.371567
H111	H	-0.734301	-0.245503	0.077723
H112	H	-1.315316	-0.353249	-0.077691
H113	H	-0.549585	-0.953830	0.378003
H114	H	-1.315283	-0.353272	-0.222533
C115	C	-0.607312	-0.858741	-0.344520
C116	C	-0.703185	-0.821148	-0.336657
H117	H	-0.533199	-0.887800	-0.291720
H118	H	-0.611849	-0.895707	-0.373576
H119	H	-0.611858	-0.818207	-0.373586
H120	H	-0.698644	-0.861683	-0.307596
H121	H	-0.698645	-0.784179	-0.307589
H122	H	-1.130624	-0.653525	-0.514261
C123	C	-0.613627	-0.789949	0.423034
C124	C	-0.562343	-0.821152	0.380204
H125	H	-0.643909	-0.818999	0.428361
H126	H	-0.554133	-0.796085	0.475817
H127	H	-0.677633	-0.733601	0.393961
H128	H	-0.498331	-0.877499	0.409280
H129	H	-0.621842	-0.815022	0.327411
H130	H	-1.477075	-0.226380	-0.349392
H131	H	-1.558025	-0.240596	-0.490564
H132	H	-1.315356	-0.653512	-0.377988
C133	C	-1.324164	-0.766645	-0.157531
C134	C	-1.302609	-0.821140	-0.200367
H135	H	-1.293909	-0.795718	-0.104738
H136	H	-1.284845	-0.741142	-0.152198
H137	H	-1.408362	-0.726123	-0.186601
H138	H	-1.218411	-0.861658	-0.171300
H139	H	-1.341926	-0.846655	-0.205696
H140	H	-1.130605	-0.090095	-0.077684
H141	H	-1.477146	-0.653534	-0.504862
H142	H	-1.477159	-0.381733	-0.504858
H143	H	-1.315347	-0.508647	-0.377984
C144	C	-0.504406	-0.939481	-0.127525
C145	C	-0.562364	-0.931605	-0.089921
H146	H	-0.534670	-0.886685	-0.156598
H147	H	-0.420222	-0.968541	-0.087002
H148	H	-0.519040	-0.968546	-0.164489
H149	H	-0.547724	-0.902545	-0.052953
H150	H	-0.646568	-0.902533	-0.130449
C151	C	-0.251080	-1.116002	-0.035441
C152	C	-0.375188	-1.078396	-0.089942
H153	H	-0.220831	-1.110655	-0.064509
H154	H	-0.236464	-1.090512	0.005091
H155	H	-0.211777	-1.172350	-0.009954
H156	H	-0.414493	-1.022046	-0.115424
H157	H	-0.389815	-1.103884	-0.130488
C158	C	-1.577490	-0.812123	-0.424971
C159	C	-1.489804	-0.821149	-0.347161
H160	H	-1.607735	-0.841193	-0.419619
H161	H	-1.641506	-0.755785	-0.454034
H162	H	-1.542689	-0.833284	-0.454024
H163	H	-1.524607	-0.799982	-0.318111
H164	H	-1.425777	-0.877498	-0.318086
C165	C	-1.431854	-0.212053	-0.127474
C166	C	-1.489809	-0.204208	-0.089876
H167	H	-1.462119	-0.159248	-0.156529
H168	H	-1.347669	-0.241116	-0.086950
H169	H	-1.446486	-0.241104	-0.164454
H170	H	-1.475169	-0.175162	-0.052891
H171	H	-1.574013	-0.175132	-0.130405
C172	C	-0.287451	-0.812142	0.586782
C173	C	-0.375136	-0.821180	0.527035
H174	H	-0.257211	-0.841211	0.639572
H175	H	-0.223431	-0.833288	0.580654
H176	H	-0.322252	-0.755794	0.580646
H177	H	-0.340332	-0.877527	0.533166
H178	H	-0.439166	-0.800038	0.533165
C179	C	-1.360559	-0.522995	0.127514
C180	C	-1.302577	-0.530871	0.089930
H181	H	-1.330312	-0.575791	0.156575
H182	H	-1.345938	-0.493937	0.164479
H183	H	-1.444752	-0.493928	0.086975
H184	H	-1.218384	-0.559933	0.130470
H185	H	-1.317188	-0.559941	0.052962
H186	H	-0.306988	-1.221805	-0.000053
C187	C	-0.396570	-0.581647	0.384878
C188	C	-0.375045	-0.641371	0.347267
H189	H	-0.366260	-0.552610	0.379571
H190	H	-0.480756	-0.544663	0.359358
H191	H	-0.357274	-0.607168	0.441217
H192	H	-0.414348	-0.615850	0.290926
H193	H	-0.290843	-0.678361	0.372784
H194	H	-1.477057	-0.381841	0.077736
C195	C	-0.650044	-1.033619	0.140644
C196	C	-0.562363	-1.111437	0.200378
H197	H	-0.680301	-1.038955	0.087849
H198	H	-0.714052	-1.004561	0.146783
H199	H	-0.615232	-1.004571	0.146784
H200	H	-0.597177	-1.140483	0.194242
H201	H	-0.498343	-1.140507	0.194237
H202	H	-1.557987	-0.240671	0.000034
H203	H	-0.734292	-0.372388	0.077725
C204	C	-0.287451	-1.317980	0.080822
C205	C	-0.375134	-1.258269	0.089882
H206	H	-0.257167	-1.370783	0.109894
H207	H	-0.322260	-1.311836	0.024479
H208	H	-0.223450	-1.311822	0.101963
H209	H	-0.439140	-1.264422	0.068735
H210	H	-0.340325	-1.264415	0.146236
H211	H	-1.130614	-0.216986	-0.077687
H212	H	-1.558016	-0.731251	-0.490571
H213	H	-0.549617	-1.109227	0.077706
H214	H	-0.549567	-0.653544	0.222585
C215	C	-1.257597	-0.603732	-0.655440
C216	C	-1.161731	-0.641332	-0.663311
H217	H	-1.331714	-0.574662	-0.708238
H218	H	-1.253061	-0.644257	-0.626380
H219	H	-1.253040	-0.566767	-0.626375
H220	H	-1.166282	-0.678302	-0.692371
H221	H	-1.166269	-0.600803	-0.692383
H222	H	-0.306916	-0.731273	0.490638
C223	C	-0.433153	-1.250366	0.264104
C224	C	-0.375180	-1.258266	0.347169
H225	H	-0.402900	-1.303155	0.258755
H226	H	-0.517337	-1.221304	0.238607
H227	H	-0.418521	-1.221294	0.238621
H228	H	-0.389819	-1.287333	0.372652
H229	H	-0.290977	-1.287341	0.372677
H230	H	-0.306959	-1.221880	0.490582
C231	C	-0.287405	-1.156338	0.586759
C232	C	-0.375090	-1.078508	0.527047
H233	H	-0.257113	-1.151022	0.639563
H234	H	-0.322214	-1.185381	0.580619
H235	H	-0.223409	-1.185390	0.580598
H236	H	-0.439091	-1.049458	0.533205
H237	H	-0.340282	-1.049453	0.533190
H238	H	-0.734308	-0.808951	-0.485728
