data_functionalizedCrystal
_audit_creation_method	'MofGen! by Chris Wilmer'
_symmetry_space_group_name_H-M	'P1'
_symmetry_Int_Tables_number	1
_symmetry_cell_setting	triclinic
loop_
_symmetry_equiv_pos_as_xyz
  x,y,z
_cell_length_a	8.634740
_cell_length_b	8.597304
_cell_length_c	9.130313
_cell_angle_alpha	82.295602
_cell_angle_beta	89.997160
_cell_angle_gamma	92.879790
loop_
_atom_site_label
_atom_site_type_symbol
_atom_site_fract_x
_atom_site_fract_y
_atom_site_fract_z
O1	O	2.053792	0.512867	-0.186503
O2	O	1.604192	0.469861	-0.181080
O3	O	1.837840	0.264234	-0.155127
O4	O	1.820144	0.718493	-0.212457
O5	O	1.837823	0.264225	0.088473
O6	O	1.604175	0.469851	0.062520
O7	O	2.053776	0.512857	0.057097
Cu8	Cu	1.828974	0.491354	0.082051
Cu9	Cu	1.828993	0.491365	-0.206034
O10	O	1.820128	0.718484	0.031143
C11	C	1.546587	0.460114	-0.058052
C12	C	1.374965	0.431065	-0.054388
C13	C	1.835931	0.205471	-0.025914
C14	C	1.830249	0.030384	-0.003827
C15	C	2.111381	0.522605	-0.065935
C16	C	2.283002	0.551653	-0.069608
C17	C	1.822037	0.777248	-0.098073
C18	C	1.827719	0.952334	-0.120170
N19	N	1.828972	0.491346	0.284674
N20	N	1.829008	0.491361	-0.408657
C21	C	1.932467	0.400345	0.372812
C22	C	1.932482	0.400348	0.526149
C23	C	1.725502	0.582366	0.503194
C24	C	1.725481	0.582354	0.349862
H25	H	1.335572	0.677124	-0.085434
H26	H	2.016755	0.326244	0.597908
H27	H	1.828049	-0.036748	0.112694
H28	H	1.829896	0.019458	-0.236683
Cl29	Cl	2.062564	0.285929	0.290869
Cl30	Cl	1.293819	0.237353	-0.029931
Cl31	Cl	1.595410	0.696777	0.585151
Cl32	Cl	1.595355	0.696756	0.239050
