data_functionalizedCrystal
_audit_creation_method	'MofGen! by Chris Wilmer'
_symmetry_space_group_name_H-M	'P1'
_symmetry_Int_Tables_number	1
_symmetry_cell_setting	triclinic
loop_
_symmetry_equiv_pos_as_xyz
  x,y,z
_cell_length_a	14.971486
_cell_length_b	14.519709
_cell_length_c	13.448316
_cell_angle_alpha	89.992453
_cell_angle_beta	89.998199
_cell_angle_gamma	83.647137
loop_
_atom_site_label
_atom_site_type_symbol
_atom_site_fract_x
_atom_site_fract_y
_atom_site_fract_z
O1	O	1.187015	0.120184	-0.082580
O2	O	0.926623	0.134576	-0.082607
O3	O	1.063723	-0.006863	-0.082584
O4	O	1.049915	0.261623	-0.082603
O5	O	1.063706	-0.006871	0.082800
O6	O	0.926606	0.134567	0.082777
O7	O	1.186998	0.120175	0.082804
Cu8	Cu	1.056800	0.127371	0.097891
Cu9	Cu	1.056820	0.127381	-0.097694
O10	O	1.049898	0.261614	0.082781
C11	C	0.893289	0.133928	0.000082
C12	C	0.793991	0.131999	0.000071
C13	C	0.736812	0.215091	0.000067
C14	C	0.643512	0.213273	0.000082
C15	C	0.607392	0.128363	0.000094
C16	C	0.664578	0.045265	0.000102
C17	C	0.757876	0.047084	0.000094
C18	C	0.470113	0.041480	0.000116
C19	C	0.376808	0.039661	0.000122
C20	C	0.355749	0.207669	0.000104
C21	C	0.449047	0.209488	0.000096
C22	C	0.506227	0.126390	0.000101
C23	C	1.063071	-0.041226	0.000108
C24	C	1.061142	-0.143606	0.000109
C25	C	1.054043	-0.518498	0.000082
C26	C	1.056015	-0.414191	0.000090
C27	C	1.057593	-0.331055	0.000096
C28	C	1.059564	-0.226742	0.000102
C29	C	1.220331	0.120823	0.000113
C30	C	1.319630	0.122752	0.000117
C31	C	1.050550	0.295978	0.000087
C32	C	1.052478	0.398358	0.000080
N33	N	1.056792	0.127363	0.235456
N34	N	1.056835	0.127381	-0.235258
C35	C	1.117519	0.064759	0.287506
C36	C	1.117525	0.064759	0.391610
C37	C	1.056807	0.127366	0.443660
C38	C	0.996074	0.189973	0.391602
C39	C	0.996065	0.189968	0.287501
C40	C	0.996099	0.189979	0.608582
C41	C	0.996109	0.189985	0.712691
C42	C	1.117559	0.064769	0.712691
C43	C	1.117549	0.064765	0.608590
C44	C	1.056817	0.127373	0.556539
H45	H	0.347403	-0.029481	0.000133
H46	H	0.766213	0.284234	0.000056
O47	O	1.176412	0.003796	0.237016
C48	C	1.228582	-0.156496	0.205310
C49	C	1.161822	-0.087541	0.262516
H50	H	1.216822	-0.230356	0.225922
H51	H	1.218168	-0.145855	0.121946
H52	H	1.300232	-0.144315	0.225765
H53	H	1.090147	-0.099679	0.242144
H54	H	1.172315	-0.098198	0.345866
O55	O	0.936967	0.250695	0.442119
C56	C	0.781532	0.304498	0.473944
C57	C	0.848371	0.235663	0.416692
H58	H	0.709888	0.292382	0.453391
H59	H	0.791894	0.293749	0.557301
H60	H	0.793341	0.378378	0.453472
H61	H	0.836603	0.161756	0.437080
H62	H	0.837993	0.246493	0.333349
O63	O	0.937166	0.250911	0.236980
C64	C	0.884961	0.411178	0.205146
C65	C	0.951733	0.342265	0.262403
H66	H	0.896703	0.485053	0.225695
H67	H	0.895381	0.400500	0.121790
H68	H	0.813316	0.398990	0.225617
H69	H	1.023405	0.354412	0.242015
H70	H	0.941235	0.352960	0.345745
O71	O	1.176519	0.003823	0.763135
C72	C	1.228668	-0.156445	0.795044
C73	C	1.161857	-0.087534	0.737835
H74	H	1.216826	-0.230322	0.774626
H75	H	1.300338	-0.144372	0.774541
H76	H	1.218262	-0.145648	0.878385
H77	H	1.172182	-0.098290	0.654481
H78	H	1.090212	-0.099624	0.758421
H79	H	0.946641	0.240958	0.566206
H80	H	0.478453	0.278629	0.000076
H81	H	0.596960	0.280934	0.000077
O82	O	0.300248	0.288419	-0.000072
C83	C	0.253738	0.431485	-0.085739
C84	C	0.316631	0.340065	-0.085669
H85	H	0.266974	0.473275	-0.154926
H86	H	0.180832	0.415661	-0.085790
H87	H	0.266892	0.473227	-0.016503
H88	H	0.303558	0.298278	-0.154893
H89	H	0.389516	0.355954	-0.085566
O90	O	0.525623	-0.039265	-0.000060
C91	C	0.572134	-0.182317	-0.085715
C92	C	0.509232	-0.090904	-0.085643
H93	H	0.558891	-0.224101	-0.154891
H94	H	0.645038	-0.166484	-0.085787
H95	H	0.558997	-0.224069	-0.016469
H96	H	0.522289	-0.049106	-0.154877
H97	H	0.436349	-0.106801	-0.085519
O98	O	0.813295	-0.033717	0.000049
C99	C	0.824343	-0.200550	0.000122
C100	C	0.761480	-0.109110	0.000146
H101	H	0.782476	-0.261529	0.000222
H102	H	0.868530	-0.203959	-0.069110
H103	H	0.868570	-0.203850	0.069316
H104	H	0.717197	-0.105748	-0.069001
H105	H	0.717354	-0.105739	0.069423
O106	O	1.176398	0.003856	0.442210
C107	C	1.195276	-0.122031	0.559798
C108	C	1.128499	-0.053122	0.502541
H109	H	1.156577	-0.168103	0.608605
H110	H	1.238660	-0.166838	0.504753
H111	H	1.240037	-0.082115	0.608477
H112	H	1.083680	-0.092963	0.453861
H113	H	1.085179	-0.008316	0.557640
O114	O	1.176436	0.003981	0.557867
C115	C	1.298194	-0.015789	0.439895
C116	C	1.231692	0.053216	0.497369
H117	H	1.342873	0.023991	0.390953
H118	H	1.341682	-0.060667	0.494798
H119	H	1.259209	-0.061786	0.391332
H120	H	1.270605	0.099274	0.545934
H121	H	1.188205	0.098030	0.442412
O122	O	0.937030	0.250822	0.763101
C123	C	0.816573	0.375025	0.752121
C124	C	0.883423	0.306168	0.694909
H125	H	0.773227	0.419803	0.697013
H126	H	0.771787	0.335160	0.800841
H127	H	0.855267	0.421132	0.800877
H128	H	0.844802	0.260044	0.646099
H129	H	0.928209	0.346090	0.646251
H130	H	0.635162	-0.023871	0.000126
