data_functionalizedCrystal
_audit_creation_method	'MofGen! by Chris Wilmer'
_symmetry_space_group_name_H-M	'P1'
_symmetry_Int_Tables_number	1
_symmetry_cell_setting	triclinic
loop_
_symmetry_equiv_pos_as_xyz
  x,y,z
_cell_length_a	10.654550
_cell_length_b	14.853567
_cell_length_c	9.730223
_cell_angle_alpha	90.002458
_cell_angle_beta	89.996251
_cell_angle_gamma	84.059917
loop_
_atom_site_label
_atom_site_type_symbol
_atom_site_fract_x
_atom_site_fract_y
_atom_site_fract_z
O1	O	1.666519	0.126622	-0.114390
O2	O	1.300915	0.138686	-0.114367
O3	O	1.493482	0.001477	-0.114383
O4	O	1.473951	0.263832	-0.114374
O5	O	1.493480	0.001480	0.114197
O6	O	1.300912	0.138690	0.114213
O7	O	1.666516	0.126625	0.114190
Zn8	Zn	1.483714	0.132658	0.150493
Zn9	Zn	1.483717	0.132654	-0.150671
O10	O	1.473949	0.263835	0.114206
C11	C	1.254125	0.137802	-0.000074
C12	C	1.114709	0.135152	-0.000066
C13	C	1.492596	-0.032115	-0.000097
C14	C	1.489944	-0.132213	-0.000109
C15	C	1.034384	0.215939	-0.000083
C16	C	0.903389	0.213443	-0.000107
C17	C	0.933057	0.049367	-0.000102
C18	C	1.064050	0.051863	-0.000068
C19	C	1.017254	0.310667	-0.000091
C20	C	0.886260	0.308171	-0.000115
C21	C	1.364344	-0.545419	-0.000075
C22	C	1.593119	-0.565475	-0.000090
C23	C	1.595613	-0.471428	-0.000098
C24	C	1.482470	-0.414372	-0.000093
C25	C	1.366834	-0.451363	-0.000079
C26	C	1.711247	-0.434430	-0.000097
C27	C	1.713745	-0.340378	-0.000104
C28	C	1.600601	-0.283320	-0.000109
C29	C	1.484961	-0.320316	-0.000097
C30	C	1.371818	-0.263260	-0.000091
C31	C	1.256176	-0.300254	-0.000089
C32	C	1.253691	-0.394305	-0.000084
C33	C	1.603087	-0.189269	-0.000114
C34	C	1.374308	-0.169204	-0.000096
C35	C	1.713306	0.127510	-0.000106
C36	C	1.852722	0.130160	-0.000123
C37	C	1.474835	0.297427	-0.000083
C38	C	1.477487	0.397525	-0.000080
N39	N	1.483721	0.132661	0.356030
N40	N	1.483720	0.132644	-0.356207
C41	C	1.569012	0.071925	0.427949
C42	C	1.569009	0.071914	0.571832
C43	C	1.398420	0.193382	0.571864
C44	C	1.398418	0.193388	0.427984
C45	C	1.667504	0.001799	0.427931
C46	C	1.667501	0.001788	0.571814
H47	H	0.891794	-0.018444	-0.000125
N48	N	1.715151	-0.627003	-0.000101
H49	H	1.765594	-0.615014	0.084627
H50	H	1.695930	-0.692173	-0.000146
H51	H	1.637668	-0.063695	0.616429
N52	N	1.306424	0.258885	0.649469
H53	H	1.217283	0.247903	0.624429
H54	H	1.319471	0.249633	0.751505
H55	H	1.803361	-0.480892	-0.000089
N56	N	1.306427	0.258889	0.350401
H57	H	1.250777	0.224061	0.290706
H58	H	1.252475	0.297346	0.417898
N59	N	1.640059	-0.089985	0.376181
H60	H	1.627804	-0.130948	0.456867
H61	H	1.560851	-0.083174	0.318483
N62	N	1.150697	-0.035266	-0.000044
H63	H	1.205680	-0.037877	0.084706
H64	H	1.098643	-0.088358	-0.000106
H65	H	1.282173	-0.122754	-0.000097
N66	N	1.239617	-0.585307	-0.000071
H67	H	1.233481	-0.623883	-0.084806
H68	H	1.233554	-0.623833	0.084720
H69	H	1.758459	0.023756	0.383300
N70	N	1.128971	-0.434203	-0.000059
H71	H	1.079391	-0.413461	-0.084791
H72	H	1.144668	-0.502434	0.000004
N73	N	0.830470	0.355428	-0.126838
H74	H	0.768245	0.408131	-0.098656
H75	H	0.900131	0.378259	-0.183324
N76	N	1.055611	0.359749	0.126615
H77	H	0.978244	0.379847	0.183141
H78	H	1.115900	0.317790	0.183069
N79	N	1.064068	0.350628	-0.130806
H80	H	1.107414	0.406110	-0.108083
H81	H	1.125764	0.304390	-0.177872
H82	H	1.807907	-0.310265	-0.000108
N83	N	1.134146	-0.238712	-0.000048
H84	H	1.153280	-0.173520	-0.000037
H85	H	1.083745	-0.250759	-0.084777
N86	N	1.795122	0.022248	0.623543
H87	H	1.813540	0.083639	0.588991
H88	H	1.795085	0.022196	0.727339
N89	N	1.727797	-0.149365	-0.000102
H90	H	1.799094	-0.199782	-0.000096
H91	H	1.733823	-0.110786	-0.084842
H92	H	0.840290	0.336801	0.098570
