data_functionalizedCrystal
_audit_creation_method	'MofGen! by Chris Wilmer'
_symmetry_space_group_name_H-M	'P1'
_symmetry_Int_Tables_number	1
_symmetry_cell_setting	triclinic
loop_
_symmetry_equiv_pos_as_xyz
  x,y,z
_cell_length_a	19.288864
_cell_length_b	19.188930
_cell_length_c	18.366186
_cell_angle_alpha	89.988632
_cell_angle_beta	89.977106
_cell_angle_gamma	83.140512
loop_
_atom_site_label
_atom_site_type_symbol
_atom_site_fract_x
_atom_site_fract_y
_atom_site_fract_z
O1	O	0.921359	0.087099	-0.060791
O2	O	0.719099	0.098849	-0.060743
O3	O	0.826066	-0.008682	-0.060754
O4	O	0.814393	0.194630	-0.060780
O5	O	0.826048	-0.008687	0.060345
O6	O	0.719081	0.098843	0.060357
O7	O	0.921341	0.087094	0.060308
Zn8	Zn	0.820208	0.092968	0.079560
Zn9	Zn	0.820232	0.092975	-0.079994
O10	O	0.814374	0.194625	0.060320
C11	C	0.693214	0.098468	-0.000186
C12	C	0.616110	0.097333	-0.000167
C13	C	0.571419	0.160427	-0.000187
C14	C	0.498972	0.159361	-0.000195
C15	C	0.471219	0.095197	-0.000198
C16	C	0.515921	0.032095	-0.000174
C17	C	0.588366	0.033163	-0.000159
C18	C	0.362960	0.044759	-0.042642
C19	C	0.290515	0.043694	-0.042662
C20	C	0.247773	0.091900	-0.000241
C21	C	0.277483	0.141184	0.042190
C22	C	0.349929	0.142253	0.042205
C23	C	0.392665	0.094032	-0.000214
C24	C	0.124526	0.153843	-0.000268
C25	C	0.052078	0.152774	-0.000272
C26	C	0.069028	0.025506	-0.000259
C27	C	0.141475	0.026576	-0.000248
C28	C	0.169219	0.090747	-0.000256
C29	C	0.825679	-0.034696	-0.000202
C30	C	0.824544	-0.112200	-0.000196
C31	C	0.887309	-0.157129	-0.000207
C32	C	0.886243	-0.229953	-0.000219
C33	C	0.822408	-0.257844	-0.000204
C34	C	0.759636	-0.212906	-0.000196
C35	C	0.760704	-0.140084	-0.000192
N36	N	0.773609	-0.365847	0.041020
N37	N	0.772598	-0.435026	0.041018
C38	C	0.819187	-0.477253	-0.000218
N39	N	0.866835	-0.447689	-0.041442
N40	N	0.867847	-0.378504	-0.041436
C41	C	0.821243	-0.336807	-0.000209
C42	C	0.880800	-0.601146	-0.000243
C43	C	0.879731	-0.673971	-0.000259
C44	C	0.753122	-0.656922	-0.000229
C45	C	0.754193	-0.584099	-0.000220
C46	C	0.818034	-0.556216	-0.000224
C47	C	0.947227	0.087475	-0.000250
C48	C	1.024330	0.088609	-0.000274
C49	C	0.814762	0.220638	-0.000234
C50	C	0.815896	0.298143	-0.000245
N51	N	0.820197	0.092963	0.188451
N52	N	0.820249	0.092974	-0.188885
C53	C	0.867577	0.045371	0.226546
C54	C	0.867582	0.045368	0.302774
C55	C	0.820213	0.092968	0.340903
C56	C	0.772823	0.140563	0.302799
C57	C	0.772816	0.140560	0.226573
C58	C	0.810919	0.156585	0.461657
C59	C	0.810932	0.156589	0.537882
C60	C	0.820232	0.092977	0.576011
C61	C	0.829535	0.029359	0.537906
C62	C	0.829527	0.029356	0.461679
C63	C	0.820215	0.092977	0.423558
C64	C	0.867620	0.045378	0.696761
C65	C	0.867620	0.045374	0.772990
C66	C	0.772864	0.140576	0.773014
C67	C	0.772862	0.140574	0.696786
C68	C	0.820243	0.092976	0.658664
H69	H	0.242684	0.180439	0.076733
Cl70	Cl	0.159408	0.234513	-0.000271
Cl71	Cl	0.713248	0.200395	0.178678
Cl72	Cl	0.958643	-0.730454	-0.000278
Cl73	Cl	0.034147	-0.055159	-0.000254
Cl74	Cl	0.672873	-0.691979	-0.000215
H75	H	0.177864	-0.024802	-0.000236
Cl76	Cl	0.606293	0.241099	-0.000194
Cl77	Cl	0.253172	-0.018256	-0.096011
Cl78	Cl	0.713309	0.200411	0.820943
H79	H	0.374116	0.182379	0.076756
Cl80	Cl	0.416686	-0.015850	-0.095976
H81	H	0.462577	0.210742	-0.000208
Cl82	Cl	0.679387	-0.247969	-0.000184
Cl83	Cl	0.927138	-0.014468	0.178622
H84	H	0.734283	0.179330	0.665767
H85	H	0.837108	-0.022440	0.568948
H86	H	0.493320	-0.020148	-0.000187
H87	H	0.703083	-0.547517	-0.000207
Cl88	Cl	0.644553	-0.046163	-0.000135
Cl89	Cl	0.967566	-0.122079	-0.000232
Cl90	Cl	0.965153	-0.286445	-0.000234
H91	H	0.709591	-0.103502	-0.000183
H92	H	0.906166	0.006612	0.333797
H93	H	0.932783	-0.578442	-0.000249
Cl94	Cl	0.841214	-0.050618	0.413778
Cl95	Cl	0.927181	-0.014462	0.648835
H96	H	0.906200	0.006616	0.804008
H97	H	0.803361	0.208391	0.568902
Cl98	Cl	0.799291	0.236564	0.413732
H99	H	0.734253	0.179319	0.333848
H100	H	0.015690	0.204155	-0.000283
