data_functionalizedCrystal
_audit_creation_method	'MofGen! by Chris Wilmer'
_symmetry_space_group_name_H-M	'P1'
_symmetry_Int_Tables_number	1
_symmetry_cell_setting	triclinic
loop_
_symmetry_equiv_pos_as_xyz
  x,y,z
_cell_length_a	14.044220
_cell_length_b	27.731996
_cell_length_c	13.101039
_cell_angle_alpha	93.327690
_cell_angle_beta	86.340132
_cell_angle_gamma	87.905133
loop_
_atom_site_label
_atom_site_type_symbol
_atom_site_fract_x
_atom_site_fract_y
_atom_site_fract_z
O1	O	1.261204	0.114021	-0.085131
O2	O	0.985299	0.109818	-0.085156
O3	O	1.131845	0.041925	-0.085120
O4	O	1.114658	0.181914	-0.085166
O5	O	1.121330	0.046805	0.085307
O6	O	0.974785	0.114698	0.085272
O7	O	1.250689	0.118901	0.085297
Zn8	Zn	1.111068	0.117574	0.112343
Zn9	Zn	1.124921	0.111145	-0.112202
O10	O	1.104144	0.186794	0.085261
C11	C	0.944756	0.110418	0.000055
C12	C	0.839613	0.104931	0.000047
C13	C	1.126234	0.026341	0.000097
C14	C	1.125170	-0.027365	0.000107
C15	C	0.647100	0.094900	0.000070
C16	C	0.588883	0.133817	0.000062
C17	C	0.481763	0.128236	0.000075
C18	C	0.754231	0.100481	0.000057
C19	C	1.124213	-0.363057	-0.092843
C20	C	1.120176	-0.564905	-0.092862
O21	O	1.124487	-0.593264	-0.171870
N22	N	1.113942	-0.587485	0.000037
C23	C	1.108712	-0.559600	0.092948
O24	O	1.103308	-0.583438	0.171963
C25	C	1.112743	-0.357753	0.092965
C26	C	1.118986	-0.335175	0.000060
C27	C	1.130455	-0.340479	-0.185741
C28	C	1.131469	-0.290020	-0.185735
C29	C	1.126242	-0.262139	-0.092832
C30	C	1.120001	-0.284716	0.000065
C31	C	1.107506	-0.329869	0.185874
C32	C	1.108512	-0.279404	0.185870
C33	C	1.114755	-0.256826	0.092965
C34	C	1.115788	-0.206376	0.092974
N35	N	1.122021	-0.183796	0.000075
C36	C	1.127248	-0.211677	-0.092828
C37	C	1.106598	-0.665574	0.092932
C38	C	1.105592	-0.716035	0.092928
C39	C	1.117054	-0.721336	-0.092882
C40	C	1.118067	-0.670874	-0.092877
C41	C	1.112831	-0.642993	0.000033
C42	C	1.129379	-0.105709	-0.092810
C43	C	1.130397	-0.055246	-0.092796
C44	C	1.118931	-0.049949	0.093013
C45	C	1.117918	-0.100408	0.093000
C46	C	1.123139	-0.128287	0.000080
O47	O	1.111469	-0.177987	0.171941
O48	O	1.132631	-0.187830	-0.171832
C49	C	1.123199	-0.413515	-0.092849
C50	C	1.116957	-0.436093	0.000049
C51	C	1.111730	-0.408212	0.092952
C52	C	1.115951	-0.486555	0.000045
C53	C	1.121178	-0.514436	-0.092858
C54	C	1.127411	-0.491856	-0.185757
C55	C	1.128426	-0.441397	-0.185752
C56	C	1.105497	-0.430793	0.185851
C57	C	1.104484	-0.481252	0.185838
C58	C	1.109711	-0.509133	0.092935
C59	C	1.291233	0.118301	0.000084
C60	C	1.396377	0.123788	0.000085
C61	C	1.109755	0.202378	0.000042
C62	C	1.110819	0.256084	0.000025
N63	N	1.101620	0.121963	0.265589
N64	N	1.134376	0.106753	-0.265448
C65	C	1.088766	0.127937	0.474629
C66	C	1.147227	0.100780	0.525519
C67	C	1.140075	0.104104	0.641835
C68	C	1.095917	0.124613	0.358302
H69	H	0.619492	0.171327	0.000045
H70	H	0.616493	0.057393	0.000088
F71	F	1.135070	-0.417374	-0.284635
F72	F	1.137045	-0.031220	-0.191682
H73	H	1.133627	-0.128403	-0.168474
H74	H	1.101242	-0.408097	0.261505
F75	F	1.138108	-0.265997	-0.284619
H76	H	1.202650	0.075034	0.481730
H77	H	1.100523	-0.734414	0.168580
F78	F	1.016331	0.161589	0.531858
F79	F	1.124709	-0.646849	-0.191758
F80	F	1.136018	-0.370145	-0.284630
F81	F	1.122614	-0.751018	-0.191757
F82	F	1.113370	-0.020267	0.191882
F83	F	1.100857	-0.353886	0.284758
F84	F	1.101021	-0.635907	0.191826
F85	F	1.111290	-0.124438	0.191879
F86	F	1.102939	-0.249734	0.284760
F87	F	1.097845	-0.505275	0.284727
F88	F	1.132979	-0.521538	-0.284632
