data_functionalizedCrystal
_audit_creation_method	'MofGen! by Chris Wilmer'
_symmetry_space_group_name_H-M	'P1'
_symmetry_Int_Tables_number	1
_symmetry_cell_setting	triclinic
loop_
_symmetry_equiv_pos_as_xyz
  x,y,z
_cell_length_a	21.395362
_cell_length_b	29.839131
_cell_length_c	21.395355
_cell_angle_alpha	89.979828
_cell_angle_beta	89.956060
_cell_angle_gamma	90.057297
loop_
_atom_site_label
_atom_site_type_symbol
_atom_site_fract_x
_atom_site_fract_y
_atom_site_fract_z
Zn1	Zn	0.957813	-0.178715	-0.354578
Zn2	Zn	1.457813	0.321285	0.145422
Zn3	Zn	0.957696	-0.253830	-0.249798
Zn4	Zn	1.457696	0.246170	0.250202
Zn5	Zn	0.853028	-0.178736	-0.249780
Zn6	Zn	1.353028	0.321264	0.250220
Zn7	Zn	0.852977	-0.253840	-0.354503
Zn8	Zn	1.352977	0.246160	0.145497
O9	O	0.905378	-0.216280	-0.302165
O10	O	1.405378	0.283720	0.197835
O11	O	1.045475	-0.188667	-0.340718
O12	O	1.545475	0.311333	0.159282
O13	O	0.943783	-0.243874	-0.162117
O14	O	1.443783	0.256126	0.337883
O15	O	0.866998	-0.115866	-0.263706
O16	O	1.366998	0.384134	0.236294
O17	O	1.045389	-0.243853	-0.263737
O18	O	1.545389	0.256147	0.236263
O19	O	0.943983	-0.115851	-0.340701
O20	O	1.443983	0.384149	0.159299
O21	O	0.866884	-0.188702	-0.162104
O22	O	1.366884	0.311298	0.337896
O23	O	0.765343	-0.188711	-0.263632
O24	O	1.265343	0.311289	0.236368
O25	O	0.866912	-0.243869	-0.442191
O26	O	1.366912	0.256131	0.057809
O27	O	0.765306	-0.243889	-0.340571
O28	O	1.265306	0.256111	0.159429
O29	O	0.943934	-0.188676	-0.442246
O30	O	1.443934	0.311324	0.057754
O31	O	0.943735	-0.316699	-0.263663
O32	O	1.443735	0.183301	0.236337
O33	O	0.866798	-0.316705	-0.340589
O34	O	1.366798	0.183295	0.159411
C35	C	0.742591	-0.216304	-0.302092
C36	C	1.242591	0.283696	0.197908
C37	C	0.672950	-0.216325	-0.302076
C38	C	1.172950	0.283675	0.197924
C39	C	0.905265	-0.333003	-0.302133
C40	C	1.405265	0.166997	0.197867
C41	C	0.905274	-0.382937	-0.302141
C42	C	1.405274	0.117063	0.197859
C43	C	0.640233	-0.245094	-0.342078
C44	C	1.140233	0.254906	0.157922
C45	C	0.574798	-0.245083	-0.342106
C46	C	1.074798	0.254917	0.157894
C47	C	0.542081	-0.216308	-0.302120
C48	C	1.042081	0.283692	0.197880
C49	C	0.574805	-0.187533	-0.262115
C50	C	1.074805	0.312467	0.237885
C51	C	0.640239	-0.187541	-0.262093
C52	C	1.140239	0.312459	0.237907
C53	C	0.438357	-0.212688	-0.245715
C54	C	0.938357	0.287312	0.254285
C55	C	0.372925	-0.212683	-0.245736
C56	C	0.872925	0.287317	0.254264
C57	C	0.340261	-0.216278	-0.302189
C58	C	0.840261	0.283722	0.197811
C59	C	0.373038	-0.219889	-0.358623
C60	C	0.873038	0.280111	0.141377
C61	C	0.438472	-0.219897	-0.358601
C62	C	0.938472	0.280103	0.141399
C63	C	0.471129	-0.216295	-0.302140
C64	C	0.971129	0.283705	0.197860
C65	C	0.236592	-0.245037	-0.342226
C66	C	0.736592	0.254963	0.157774
C67	C	0.171155	-0.245023	-0.342254
C68	C	0.671155	0.254977	0.157746
C69	C	0.171164	-0.187475	-0.262258
C70	C	0.671164	0.312525	0.237742
C71	C	0.236599	-0.187487	-0.262235
C72	C	0.736599	0.312513	0.237765
C73	C	0.269309	-0.216270	-0.302218
C74	C	0.769309	0.283730	0.197782
C75	C	0.945512	-0.692564	-0.262168
C76	C	1.445512	-0.192564	0.237832
C77	C	0.945589	-0.880237	-0.262192
C78	C	1.445589	-0.380237	0.237808
O79	O	0.979711	-0.904488	-0.228181
O80	O	1.479711	-0.404488	0.271819
N81	N	0.905508	-0.903722	-0.302212
N82	N	1.405508	-0.403722	0.197788
C83	C	0.865408	-0.880286	-0.342231
C84	C	1.365408	-0.380286	0.157769
O85	O	0.831323	-0.904567	-0.376276
O86	O	1.331323	-0.404567	0.123724
C87	C	0.865334	-0.692614	-0.342210
C88	C	1.365334	-0.192614	0.157790
C89	C	0.905414	-0.669131	-0.302183
C90	C	1.405414	-0.169131	0.197817
C91	C	0.985588	-0.669082	-0.222145
C92	C	1.485588	-0.169082	0.277855
C93	C	0.985566	-0.622166	-0.222136
C94	C	1.485566	-0.122166	0.277864
C95	C	0.945468	-0.598733	-0.262152
C96	C	1.445468	-0.098733	0.237848
C97	C	0.905391	-0.622216	-0.302175
C98	C	1.405391	-0.122216	0.197825
C99	C	0.825238	-0.669178	-0.382232
C100	C	1.325238	-0.169178	0.117768
C101	C	0.825224	-0.622257	-0.382224
C102	C	1.325224	-0.122257	0.117776
C103	C	0.865303	-0.598775	-0.342197
C104	C	1.365303	-0.098775	0.157803
C105	C	0.865271	-0.551867	-0.342182
C106	C	1.365271	-0.051867	0.157818
N107	N	0.905352	-0.528383	-0.302162
N108	N	1.405352	-0.028383	0.197838
C109	C	0.945450	-0.551816	-0.262147
C110	C	1.445450	-0.051816	0.237853
C111	C	0.865449	-0.978816	-0.342239
C112	C	1.365449	-0.478816	0.157761
C113	C	0.865466	-1.025734	-0.342244
C114	C	1.365466	-0.525734	0.157756
C115	C	0.945649	-1.025683	-0.262205
C116	C	1.445649	-0.525683	0.237795
C117	C	0.945627	-0.978764	-0.262198
C118	C	1.445627	-0.478764	0.237802
C119	C	0.905530	-0.955332	-0.302219
C120	C	1.405530	-0.455332	0.197781
C121	C	0.945400	-0.453290	-0.262132
C122	C	1.445400	0.046710	0.237868
C123	C	0.945373	-0.406370	-0.262126
C124	C	1.445373	0.093630	0.237874
C125	C	0.865193	-0.406426	-0.342167
C126	C	1.365193	0.093574	0.157833
C127	C	0.865218	-0.453342	-0.342171
C128	C	1.365218	0.046658	0.157829
C129	C	0.905327	-0.476772	-0.302152
C130	C	1.405327	0.023228	0.197848
O131	O	0.831172	-0.527587	-0.376180
O132	O	1.331172	-0.027587	0.123820
O133	O	0.979540	-0.527526	-0.228117
O134	O	1.479540	-0.027526	0.271883
C135	C	0.945534	-0.739480	-0.262176
C136	C	1.445534	-0.239480	0.237824
C137	C	0.905458	-0.762962	-0.302199
C138	C	1.405458	-0.262962	0.197801
C139	C	0.865359	-0.739529	-0.342214
C140	C	1.365359	-0.239529	0.157786
C141	C	0.905475	-0.809880	-0.302204
C142	C	1.405475	-0.309880	0.197796
C143	C	0.945574	-0.833313	-0.262189
C144	C	1.445574	-0.333313	0.237811
C145	C	0.985655	-0.809828	-0.222169
C146	C	1.485655	-0.309828	0.277831
C147	C	0.985633	-0.762913	-0.222161
C148	C	1.485633	-0.262913	0.277839
C149	C	0.825278	-0.763014	-0.382234
C150	C	1.325278	-0.263014	0.117766
C151	C	0.825303	-0.809929	-0.382238
C152	C	1.325303	-0.309929	0.117762
C153	C	0.865402	-0.833362	-0.342223
C154	C	1.365402	-0.333362	0.157777
C155	C	1.068802	-0.216257	-0.302238
C156	C	1.568802	0.283743	0.197762
C157	C	1.138443	-0.216247	-0.302269
C158	C	1.638443	0.283753	0.197731
C159	C	0.905431	-0.216271	-0.465588
C160	C	1.405431	0.283729	0.034412
C161	C	0.905453	-0.216267	-0.535229
C162	C	1.405453	0.283733	-0.035229
C163	C	0.905509	-0.099102	-0.302210
C164	C	1.405509	0.400898	0.197790
C165	C	0.905565	-0.049167	-0.302229
C166	C	1.405565	0.450833	0.197771
C167	C	0.945556	-0.187527	-0.567972
C168	C	1.445556	0.312473	-0.067972
C169	C	0.945556	-0.187507	-0.633408
C170	C	1.445556	0.312493	-0.133408
C171	C	0.905458	-0.216237	-0.666098
C172	C	1.405458	0.283763	-0.166098
C173	C	0.865346	-0.244979	-0.633347
C174	C	1.365346	0.255021	-0.133347
C175	C	0.865344	-0.244994	-0.567912
C176	C	1.365344	0.255006	-0.067912
C177	C	0.900471	-0.256689	-0.769760
C178	C	1.400471	0.243311	-0.269760
C179	C	0.900478	-0.256674	-0.835193
C180	C	1.400478	0.243326	-0.335193
C181	C	0.905461	-0.216189	-0.867918
C182	C	1.405461	0.283811	-0.367918
C183	C	0.910451	-0.175717	-0.835203
C184	C	1.410451	0.324283	-0.335203
C185	C	0.910449	-0.175733	-0.769769
C186	C	1.410449	0.324267	-0.269769
C187	C	0.905455	-0.216223	-0.737050
C188	C	1.405455	0.283777	-0.237050
C189	C	0.945566	-0.187425	-0.971614
C190	C	1.445566	0.312575	-0.471614
C191	C	0.945561	-0.187405	-1.037051
C192	C	1.445561	0.312595	-0.537051
C193	C	0.865355	-0.244881	-1.036988
C194	C	1.365355	0.255119	-0.536988
C195	C	0.865357	-0.244897	-0.971553
C196	C	1.365357	0.255103	-0.471553
C197	C	0.905466	-0.216170	-0.938870
C198	C	1.405466	0.283830	-0.438870
C199	C	0.905363	-0.216257	-0.139377
C200	C	1.405363	0.283743	0.360623
C201	C	0.905462	-0.216134	-0.069736
C202	C	1.405462	0.283866	0.430264
H203	H	0.548156	-0.268511	-0.374683
H204	H	1.048156	0.231489	0.125317
H205	H	0.792598	-0.688290	-0.414823
H206	H	1.292598	-0.188290	0.085177
H207	H	0.978217	-0.163998	-1.063709
H208	H	1.478217	0.336002	-0.563709
H209	H	0.666876	-0.164112	-0.229518
H210	H	1.166876	0.335888	0.270482
N211	N	0.988649	-0.478560	-0.218963
N212	N	1.488649	0.021440	0.281037
H213	H	1.017686	-0.497992	-0.244457
H214	H	1.517686	0.002008	0.255543
H215	H	1.013988	-0.456533	-0.193616
H216	H	1.513988	0.043467	0.306384
N217	N	0.988814	-0.156507	-0.668730
N218	N	1.488814	0.343493	-0.168730
H219	H	1.033571	-0.163484	-0.657375
H220	H	1.533571	0.336516	-0.157375
H221	H	0.982677	-0.160871	-0.715131
H222	H	1.482677	0.339129	-0.215131
H223	H	0.792573	-0.603181	-0.414816
H224	H	1.292573	-0.103181	0.085184
N225	N	0.821985	-0.478672	-0.385334
N226	N	1.321985	0.021328	0.114666
H227	H	0.796578	-0.456706	-0.410680
H228	H	1.296578	0.043294	0.089320
H229	H	0.847485	-0.498102	-0.414367
H230	H	1.347485	0.001898	0.085633
N231	N	0.895101	-0.300358	-0.734467
N232	N	1.395101	0.199642	-0.234467
H233	H	0.933266	-0.304567	-0.707347
H234	H	1.433266	0.195433	-0.207347
H235	H	0.856471	-0.299740	-0.707324
H236	H	1.356471	0.200260	-0.207324
H237	H	0.896419	-0.289629	-0.861825
H238	H	1.396419	0.210371	-0.361825
H239	H	1.018204	-0.603050	-0.189545
H240	H	1.518204	-0.103050	0.310455
N241	N	0.822087	-0.275959	-0.668600
N242	N	1.322087	0.224041	-0.168600
H243	H	0.828172	-0.271588	-0.715022
H244	H	1.328172	0.228412	-0.215022
H245	H	0.831793	-0.308047	-0.657172
H246	H	1.331793	0.191953	-0.157172
N247	N	0.337800	-0.223792	-0.419504
N248	N	0.837800	0.276208	0.080496
H249	H	0.349164	-0.252899	-0.440721
H250	H	0.849164	0.247101	0.059279
H251	H	0.291389	-0.223224	-0.410886
H252	H	0.791389	0.276776	0.089114
N253	N	0.271878	-0.276079	-0.385349
N254	N	0.771878	0.223921	0.114651
H255	H	0.241221	-0.294301	-0.410699
H256	H	0.741221	0.205699	0.089301
H257	H	0.299093	-0.257827	-0.414380
H258	H	0.799093	0.242173	0.085620
N259	N	0.822100	-0.275865	-1.072237
N260	N	1.322100	0.224135	-0.572237
H261	H	0.828185	-0.271493	-1.118658
H262	H	1.328185	0.228507	-0.618658
H263	H	0.831814	-0.307952	-1.060807
H264	H	1.331814	0.192048	-0.560807
N265	N	0.988604	-0.381043	-0.218954
N266	N	1.488604	0.118957	0.281046
H267	H	1.014011	-0.403010	-0.193610
H268	H	1.514011	0.096990	0.306390
H269	H	1.017577	-0.361541	-0.244494
H270	H	1.517577	0.138459	0.255506
N271	N	0.915820	-0.132045	-0.870485
N272	N	1.415820	0.367955	-0.370485
H273	H	0.956386	-0.116754	-0.859129
H274	H	1.456386	0.383246	-0.359129
H275	H	0.915032	-0.138206	-0.916890
H276	H	1.415032	0.361794	-0.416890
H277	H	0.978222	-0.164031	-0.945002
H278	H	1.478222	0.335969	-0.445002
N279	N	1.028842	-0.694352	-0.178983
N280	N	1.528842	-0.194352	0.321017
H281	H	1.054223	-0.672350	-0.153632
H282	H	1.554223	-0.172350	0.346368
H283	H	1.003360	-0.713848	-0.149954
H284	H	1.503360	-0.213848	0.350046
N285	N	0.473585	-0.208808	-0.184823
N286	N	0.973585	0.291192	0.315177
H287	H	0.442894	-0.206524	-0.149078
H288	H	0.942894	0.293476	0.350922
H289	H	0.500682	-0.236179	-0.178927
H290	H	1.000682	0.263821	0.321073
H291	H	0.832824	-1.044850	-0.374832
H292	H	1.332824	-0.544850	0.125168
N293	N	0.822092	-0.275889	-0.936232
N294	N	1.322092	0.224111	-0.436232
H295	H	0.796685	-0.294084	-0.966868
H296	H	1.296685	0.205916	-0.466868
H297	H	0.847559	-0.296685	-0.909094
H298	H	1.347559	0.203315	-0.409094
H299	H	0.548163	-0.164102	-0.229560
H300	H	1.048163	0.335898	0.270440
H301	H	0.832544	-0.387340	-0.374745
H302	H	1.332544	0.112660	0.125255
H303	H	0.832683	-0.268398	-0.541253
H304	H	1.332683	0.231602	-0.041253
H305	H	0.978298	-1.044770	-0.229623
H306	H	1.478298	-0.544770	0.270377
H307	H	0.666862	-0.268532	-0.374636
H308	H	1.166862	0.231468	0.125364
N309	N	1.028899	-0.835107	-0.179003
N310	N	1.528899	-0.335107	0.320997
H311	H	1.022825	-0.868392	-0.185086
H312	H	1.522825	-0.368392	0.314914
H313	H	1.073640	-0.826864	-0.188808
H314	H	1.573640	-0.326864	0.311192
N315	N	1.028865	-0.737589	-0.178993
N316	N	1.528865	-0.237589	0.321007
H317	H	1.054268	-0.759559	-0.153650
H318	H	1.554268	-0.259559	0.346350
H319	H	1.057841	-0.718089	-0.204532
H320	H	1.557841	-0.218089	0.295468
N321	N	0.473821	-0.223789	-0.419465
N322	N	0.973821	0.276211	0.080535
H323	H	0.462509	-0.197839	-0.447574
H324	H	0.962509	0.302161	0.052426
H325	H	0.520217	-0.223263	-0.410830
H326	H	1.020217	0.276737	0.089170
N327	N	0.135865	-0.276056	-0.385400
N328	N	0.635865	0.223944	0.114600
H329	H	0.166519	-0.294292	-0.410720
H330	H	0.666519	0.205708	0.089280
H331	H	0.108654	-0.296812	-0.359844
H332	H	0.608654	0.203188	0.140156
H333	H	0.978263	-0.959647	-0.229605
H334	H	1.478263	-0.459647	0.270395
H335	H	0.346242	-0.209746	-0.199785
H336	H	0.846242	0.290254	0.300215
H337	H	0.144526	-0.164043	-0.229704
H338	H	0.644526	0.335957	0.270296
N339	N	0.271891	-0.156454	-0.219093
N340	N	0.771891	0.343546	0.280907
H341	H	0.241238	-0.138221	-0.193767
H342	H	0.741238	0.361779	0.306233
H343	H	0.298981	-0.174709	-0.190040
H344	H	0.798981	0.325291	0.309960
N345	N	0.822195	-0.953546	-0.385405
N346	N	1.322195	-0.453546	0.114595
H347	H	0.796808	-0.975547	-0.410752
H348	H	1.296808	-0.475547	0.089248
H349	H	0.793204	-0.934115	-0.359861
H350	H	1.293204	-0.434115	0.140139
H351	H	0.792626	-0.743938	-0.414820
H352	H	1.292626	-0.243938	0.085180
N353	N	0.782066	-0.835254	-0.425407
N354	N	1.282066	-0.335254	0.074593
H355	H	0.756664	-0.813286	-0.450753
H356	H	1.256664	-0.313286	0.049247
H357	H	0.807564	-0.854686	-0.454440
H358	H	1.307564	-0.354686	0.045560
H359	H	0.978216	-0.164134	-0.541366
H360	H	1.478216	0.335866	-0.041366
N361	N	0.915832	-0.132086	-0.734482
N362	N	1.415832	0.367914	-0.234482
H363	H	0.918992	-0.106434	-0.765137
H364	H	1.418992	0.393566	-0.265137
H365	H	0.877661	-0.127926	-0.707304
H366	H	1.377661	0.372074	-0.207304
