data_functionalizedCrystal
_audit_creation_method	'MofGen! by Chris Wilmer'
_symmetry_space_group_name_H-M	'P1'
_symmetry_Int_Tables_number	1
_symmetry_cell_setting	triclinic
loop_
_symmetry_equiv_pos_as_xyz
  x,y,z
_cell_length_a	19.188905
_cell_length_b	10.654550
_cell_length_c	9.130313
_cell_angle_alpha	89.994910
_cell_angle_beta	90.007626
_cell_angle_gamma	96.190257
loop_
_atom_site_label
_atom_site_type_symbol
_atom_site_fract_x
_atom_site_fract_y
_atom_site_fract_z
O1	O	0.927176	-0.156632	0.122041
O2	O	0.724001	-0.177770	0.121991
O3	O	0.830260	0.015638	0.122007
O4	O	0.820917	-0.350040	0.122024
O5	O	0.830259	0.015647	-0.121591
O6	O	0.724000	-0.177760	-0.121608
O7	O	0.927175	-0.156622	-0.121558
Cu8	Cu	0.825587	-0.167191	-0.143826
Cu9	Cu	0.825589	-0.167202	0.144258
O10	O	0.820916	-0.350030	-0.121575
C11	C	0.697984	-0.177086	0.000185
C12	C	0.620466	-0.175047	0.000165
N13	N	0.825590	-0.167200	0.346881
C14	C	0.829573	0.062426	0.000209
C15	C	0.827521	0.201826	0.000210
C16	C	0.584068	-0.174072	0.132955
C17	C	0.511232	-0.172142	0.132973
C18	C	0.474798	-0.171162	0.000194
C19	C	0.511204	-0.172143	-0.132613
C20	C	0.584038	-0.174086	-0.132627
N21	N	0.365290	-0.096644	-0.098624
N22	N	0.296101	-0.094796	-0.098601
C23	C	0.255353	-0.165311	0.000229
N24	N	0.286409	-0.237729	0.099058
N25	N	0.355605	-0.239571	0.099040
C26	C	0.395821	-0.169056	0.000195
C27	C	0.139978	-0.162246	0.133047
C28	C	0.067139	-0.160324	0.133060
C29	C	0.067114	-0.160312	-0.132530
C30	C	0.139949	-0.162247	-0.132539
C31	C	0.176377	-0.163208	0.000254
C32	C	0.953191	-0.157306	0.000251
C33	C	1.030710	-0.159345	0.000280
C34	C	0.821603	-0.396818	0.000227
C35	C	0.823655	-0.536218	0.000235
C36	C	0.890085	0.282645	0.000226
C37	C	0.888152	0.413625	0.000244
C38	C	0.761086	0.382952	0.000223
C39	C	0.763020	0.251975	0.000216
N40	N	0.825592	-0.167182	-0.346448
C41	C	0.872731	-0.081725	0.423540
C42	C	0.872733	-0.081719	0.576877
C43	C	0.778449	-0.252666	0.576881
C44	C	0.778450	-0.252678	0.423547
H45	H	0.613723	-0.174855	0.241085
H46	H	0.169638	-0.163042	0.241175
H47	H	0.911120	-0.012119	0.639289
H48	H	0.939098	0.479424	0.000260
F49	F	0.958732	0.229277	0.000222
H50	H	0.712070	0.186168	0.000208
F51	F	0.472427	-0.171106	-0.273926
H52	H	0.911116	-0.012126	0.361122
H53	H	0.708572	0.423801	0.000225
H54	H	0.740067	-0.322258	0.639319
H55	H	0.740062	-0.322288	0.361127
F56	F	0.622776	-0.175123	-0.273967
H57	H	0.037505	-0.159538	0.241198
F58	F	0.472487	-0.171105	0.274311
F59	F	0.028342	-0.159279	-0.273845
H60	H	0.169585	-0.163032	-0.240670
