data_functionalizedCrystal
_audit_creation_method	'MofGen! by Chris Wilmer'
_symmetry_space_group_name_H-M	'P1'
_symmetry_Int_Tables_number	1
_symmetry_cell_setting	triclinic
loop_
_symmetry_equiv_pos_as_xyz
  x,y,z
_cell_length_a	19.077105
_cell_length_b	12.759399
_cell_length_c	19.076919
_cell_angle_alpha	92.274423
_cell_angle_beta	90.076224
_cell_angle_gamma	87.711582
loop_
_atom_site_label
_atom_site_type_symbol
_atom_site_fract_x
_atom_site_fract_y
_atom_site_fract_z
Zn1	Zn	1.058325	-0.508276	-0.440434
Zn2	Zn	1.062983	-0.677203	-0.322932
Zn3	Zn	0.945542	-0.494201	-0.318226
Zn4	Zn	0.940805	-0.676569	-0.435685
O5	O	1.001914	-0.589062	-0.379319
O6	O	1.157276	-0.536839	-0.428803
O7	O	1.051336	-0.647302	-0.223976
O8	O	0.960535	-0.349050	-0.334456
O9	O	1.160698	-0.660949	-0.342476
O10	O	1.043397	-0.359391	-0.424241
O11	O	0.965052	-0.512852	-0.220519
O12	O	0.846581	-0.512237	-0.329851
O13	O	0.952463	-0.659869	-0.534646
O14	O	0.843101	-0.646222	-0.416147
O15	O	1.038804	-0.536225	-0.538135
O16	O	1.046743	-0.824136	-0.337871
O17	O	0.956979	-0.823671	-0.420709
C18	C	0.819344	-0.577635	-0.371973
C19	C	0.741240	-0.572772	-0.368847
C20	C	0.702755	-0.640344	-0.412238
C21	C	0.629367	-0.635761	-0.409304
C22	C	0.594465	-0.563611	-0.362976
C23	C	0.632955	-0.496033	-0.319583
C24	C	0.706341	-0.500611	-0.322521
C25	C	0.375176	-0.542424	-0.349382
C26	C	0.301784	-0.537853	-0.346446
C27	C	0.298202	-0.677580	-0.436168
C28	C	0.371590	-0.682156	-0.439099
C29	C	0.410073	-0.614574	-0.395709
N30	N	0.519451	-0.558928	-0.359974
N31	N	0.485085	-0.619253	-0.398715
C32	C	1.001871	-0.862026	-0.379301
C33	C	1.001917	-0.978806	-0.379320
C34	C	1.048706	-1.033882	-0.336239
C35	C	1.048750	-1.143610	-0.336264
C36	C	0.955209	-1.143177	-0.422453
C37	C	0.955169	-1.033451	-0.422431
C38	C	1.132698	-1.297227	-0.314590
C39	C	1.179482	-1.352305	-0.271497
C40	C	1.193053	-1.313482	-0.203371
C41	C	1.159831	-1.219581	-0.178322
C42	C	1.113042	-1.164508	-0.221411
C43	C	1.099484	-1.203331	-0.289547
C44	C	0.871220	-0.879832	-0.444098
C45	C	0.824428	-0.824756	-0.487184
C46	C	0.810849	-0.863577	-0.555311
C47	C	0.844059	-0.957481	-0.580357
C48	C	0.890852	-1.012557	-0.537271
C49	C	0.904431	-0.973728	-0.469145
C50	C	1.185196	-0.600535	-0.386694
C51	C	1.263300	-0.605424	-0.389837
C52	C	0.994585	-0.599547	-0.562600
C53	C	0.991463	-0.604014	-0.640703
C54	C	1.001975	-0.315035	-0.379353
C55	C	1.002001	-0.198260	-0.379367
C56	C	1.034947	-0.541741	-0.679214
C57	C	1.032004	-0.545935	-0.752599
C58	C	0.985580	-0.612408	-0.787473
C59	C	0.942091	-0.674683	-0.748957
C60	C	0.945031	-0.670483	-0.675573
C61	C	0.971964	-0.631866	-1.006755
C62	C	0.969029	-0.636063	-1.080145
C63	C	1.058941	-0.507313	-1.083782
C64	C	1.061880	-0.503124	-1.010396
C65	C	1.018388	-0.565395	-0.971886
N66	N	0.982572	-0.616698	-0.862486
N67	N	1.021393	-0.561098	-0.896875
C68	C	1.009254	-0.578545	-0.196753
C69	C	1.012513	-0.573790	-0.118656
H70	H	1.086771	-0.989393	-0.301136
H71	H	0.909615	-0.721182	-0.644218
O72	O	0.923199	-1.103669	-0.561674
C73	C	0.963360	-1.084242	-0.621432
H74	H	0.976639	-0.997880	-0.620612
H75	H	0.932009	-1.104139	-0.670769
C76	C	1.015331	-1.258873	-0.622174
C77	C	1.031646	-1.152804	-0.621164
H78	H	1.057452	-1.301169	-0.622012
H79	H	0.988273	-1.271964	-0.581916
H80	H	0.989204	-1.275440	-0.663289
H81	H	1.057764	-1.136237	-0.580045
H82	H	1.058711	-1.139712	-0.661416
O83	O	0.592092	-0.701519	-0.451472
C84	C	0.638634	-0.766173	-0.492997
H85	H	0.692092	-0.771346	-0.466306
H86	H	0.644316	-0.731386	-0.546728
C87	C	0.543927	-0.870451	-0.534613
C88	C	0.609583	-0.876811	-0.501828
H89	H	0.526007	-0.938697	-0.540064
H90	H	0.512570	-0.826891	-0.506639
H91	H	0.548671	-0.841457	-0.579386
H92	H	0.604837	-0.905792	-0.457053
H93	H	0.640939	-0.920380	-0.529795
O94	O	1.106896	-0.438377	-0.976564
C95	C	1.090840	-0.333747	-0.993923
H96	H	1.033893	-0.326104	-1.011825
H97	H	1.126803	-0.311091	-1.038054
C98	C	1.171590	-0.269768	-0.907100
C99	C	1.101645	-0.260380	-0.929082
H100	H	1.178258	-0.224510	-0.867105
H101	H	1.182410	-0.340259	-0.895406
H102	H	1.201551	-0.250890	-0.943881
H103	H	1.071686	-0.279271	-0.892304
H104	H	1.090821	-0.189890	-0.940768
H105	H	1.206531	-1.428760	-0.291899
H106	H	0.772745	-0.818725	-0.590389
H107	H	1.067415	-0.495228	-0.783952
H108	H	1.072752	-0.487615	-0.650825
O109	O	0.830802	-0.995335	-0.646489
C110	C	0.802588	-1.095513	-0.643424
H111	H	0.777810	-1.104212	-0.589727
H112	H	0.846185	-1.158387	-0.652185
C113	C	0.776777	-1.097576	-0.766726
C114	C	0.746339	-1.108256	-0.700777
H115	H	0.742083	-1.105440	-0.802106
H116	H	0.795788	-1.030086	-0.768792
H117	H	0.813108	-1.149972	-0.774017
H118	H	0.710016	-1.055853	-0.693484
H119	H	0.727321	-1.175738	-0.698711
H120	H	0.797391	-0.748290	-0.466787
H121	H	0.882278	-0.848209	-0.388625
O122	O	0.923867	-0.700660	-1.113912
C123	C	0.886122	-0.754741	-1.064187
H124	H	0.885790	-0.708564	-1.011784
H125	H	0.912146	-0.835698	-1.057407
C126	C	0.810596	-0.823552	-1.154183
C127	C	0.810182	-0.766831	-1.089821
H128	H	0.763753	-0.831015	-1.169995
H129	H	0.836026	-0.787120	-1.187684
H130	H	0.832286	-0.891010	-1.148523
H131	H	0.788500	-0.699371	-1.095483
H132	H	0.784746	-0.803253	-1.056321
H133	H	1.121659	-1.328840	-0.370066
H134	H	0.266861	-0.732600	-0.471495
H135	H	1.094348	-0.456614	-1.115144
O136	O	0.929818	-0.692415	-0.969287
C137	C	0.971498	-0.760375	-0.928452
H138	H	1.025198	-0.726031	-0.919594
H139	H	0.978072	-0.840328	-0.957040
C140	C	0.869651	-0.815181	-0.868072
C141	C	0.935605	-0.772995	-0.857187
H142	H	0.847510	-0.822970	-0.824114
H143	H	0.841570	-0.769398	-0.895585
H144	H	0.875139	-0.881805	-0.891898
H145	H	0.930115	-0.706367	-0.833370
H146	H	0.963684	-0.818767	-0.829669
H147	H	0.731167	-0.699099	-0.449961
O148	O	0.405453	-0.752133	-0.484206
C149	C	0.384721	-0.732242	-0.553547
H150	H	0.364417	-0.647268	-0.556385
H151	H	0.341386	-0.786998	-0.570142
C152	C	0.472982	-0.855698	-0.599556
C153	C	0.448049	-0.751329	-0.603042
H154	H	0.512044	-0.867476	-0.630088
H155	H	0.486948	-0.869103	-0.552840
H156	H	0.436863	-0.901317	-0.613384
H157	H	0.484165	-0.705713	-0.589206
H158	H	0.434091	-0.737917	-0.649758
O159	O	0.412446	-0.476732	-0.307165
C160	C	0.365901	-0.412055	-0.265659
H161	H	0.313685	-0.451686	-0.261079
H162	H	0.357072	-0.333319	-0.291177
C163	C	0.461650	-0.345555	-0.197664
C164	C	0.397519	-0.394235	-0.192033
H165	H	0.481154	-0.334558	-0.152249
H166	H	0.493009	-0.389126	-0.225629
H167	H	0.454284	-0.279947	-0.218931
H168	H	0.404887	-0.459847	-0.170774
H169	H	0.366162	-0.350674	-0.164063
O170	O	0.599163	-0.425853	-0.274562
C171	C	0.648870	-0.367211	-0.236882
H172	H	0.700037	-0.368548	-0.267763
H173	H	0.658797	-0.402993	-0.183782
C174	C	0.557797	-0.251372	-0.187805
C175	C	0.620639	-0.253006	-0.225738
H176	H	0.540382	-0.180926	-0.180928
H177	H	0.524307	-0.290881	-0.213189
H178	H	0.566078	-0.281195	-0.143560
H179	H	0.612356	-0.223196	-0.269985
H180	H	0.654127	-0.213489	-0.200361
O181	O	0.743808	-0.435125	-0.280339
C182	C	0.788045	-0.494882	-0.236573
H183	H	0.798044	-0.576658	-0.261703
H184	H	0.761835	-0.501558	-0.183352
C185	C	0.845987	-0.340236	-0.195845
C186	C	0.858272	-0.440672	-0.226714
H187	H	0.889305	-0.306795	-0.189760
H188	H	0.816181	-0.299975	-0.225329
H189	H	0.824143	-0.345813	-0.151498
H190	H	0.880107	-0.435092	-0.271064
H191	H	0.888083	-0.480930	-0.197237
O192	O	1.080855	-1.073290	-0.196988
C193	C	1.102846	-1.050847	-0.127607
H194	H	1.155758	-1.092624	-0.118174
H195	H	1.062523	-1.079223	-0.089367
C196	C	1.044876	-0.880256	-0.127801
C197	C	1.109866	-0.931560	-0.116218
H198	H	1.049204	-0.806674	-0.120773
H199	H	1.030058	-0.895377	-0.174544
H200	H	1.011281	-0.903914	-0.095933
H201	H	1.143459	-0.907911	-0.148091
H202	H	1.124691	-0.916432	-0.069480
O203	O	1.173112	-1.181998	-0.112132
C204	C	1.221518	-1.250756	-0.079466
H205	H	1.253034	-1.298365	-0.121251
H206	H	1.192057	-1.306170	-0.045696
C207	C	1.232910	-1.128220	0.018363
C208	C	1.271623	-1.186688	-0.032958
H209	H	1.263816	-1.088702	0.047055
H210	H	1.200296	-1.081898	-0.003643
H211	H	1.208361	-1.174409	0.046497
H212	H	1.296164	-1.140498	-0.061096
H213	H	1.304242	-1.233001	-0.010955
H214	H	0.273369	-0.479088	-0.308725
H215	H	1.231146	-1.358334	-0.168285
H216	H	0.904289	-0.728803	-0.777358
H217	H	0.917148	-1.187682	-0.457552
