data_functionalizedCrystal
_audit_creation_method	'MofGen! by Chris Wilmer'
_symmetry_space_group_name_H-M	'P1'
_symmetry_Int_Tables_number	1
_symmetry_cell_setting	triclinic
loop_
_symmetry_equiv_pos_as_xyz
  x,y,z
_cell_length_a	17.699083
_cell_length_b	15.944493
_cell_length_c	16.776229
_cell_angle_alpha	89.999222
_cell_angle_beta	89.998886
_cell_angle_gamma	83.379029
loop_
_atom_site_label
_atom_site_type_symbol
_atom_site_fract_x
_atom_site_fract_y
_atom_site_fract_z
O1	O	1.004240	0.106225	-0.066166
O2	O	0.783883	0.120045	-0.066191
O3	O	0.900102	-0.009156	-0.066184
O4	O	0.888021	0.235426	-0.066173
O5	O	0.900086	-0.009164	0.066392
O6	O	0.783867	0.120037	0.066386
O7	O	1.004225	0.106217	0.066410
Zn8	Zn	0.894043	0.113126	0.087447
Zn9	Zn	0.894064	0.113136	-0.087228
O10	O	0.888006	0.235418	0.066404
C11	C	0.755677	0.119546	0.000094
C12	C	0.671657	0.118060	0.000084
C13	C	0.899600	-0.040454	0.000100
C14	C	0.898120	-0.133699	0.000090
C15	C	0.623151	0.193898	0.000088
C16	C	0.544206	0.192497	0.000098
C17	C	0.513767	0.115257	0.000099
C18	C	0.562279	0.039413	0.000097
C19	C	0.641223	0.040815	0.000093
C20	C	0.243908	0.033759	0.000117
C21	C	0.164958	0.032363	0.000119
C22	C	0.146890	0.185441	0.000122
C23	C	0.225834	0.186843	0.000118
C24	C	0.274339	0.110999	0.000120
C25	C	0.359940	0.112519	0.000111
C26	C	0.428167	0.113737	0.000103
C27	C	0.966529	-0.369603	0.000113
C28	C	0.929646	-0.420090	-0.065258
C29	C	0.895377	-0.304415	0.000100
C30	C	0.929614	-0.420073	0.065452
C31	C	0.892733	-0.469319	0.000112
C32	C	0.858513	-0.353673	-0.065325
C33	C	0.858492	-0.353653	0.065443
C34	C	0.821557	-0.404107	0.000057
C35	C	0.896902	-0.209418	0.000092
C36	C	0.891202	-0.564312	0.000114
C37	C	1.032430	0.106716	0.000124
C38	C	1.116450	0.108202	0.000129
C39	C	0.888507	0.266715	0.000117
C40	C	0.889987	0.359961	0.000122
N41	N	0.894035	0.113118	0.206659
N42	N	0.894078	0.113137	-0.206439
C43	C	0.945513	0.055931	0.248379
C44	C	0.945517	0.055931	0.331831
C45	C	0.894046	0.113121	0.373562
C46	C	0.842564	0.170311	0.331836
C47	C	0.842556	0.170307	0.248385
C48	C	0.842591	0.170327	0.668383
C49	C	0.842604	0.170328	0.751839
C50	C	0.945551	0.055951	0.751829
C51	C	0.945544	0.055947	0.668378
C52	C	0.894059	0.113133	0.626659
C53	C	0.894054	0.113132	0.536171
C54	C	0.894054	0.113127	0.464048
H55	H	0.504715	0.254253	0.000100
H56	H	0.680716	-0.020940	0.000089
H57	H	0.250612	0.249739	0.000114
H58	H	0.959701	-0.449095	-0.120518
H59	H	0.987429	0.009364	0.214407
O60	O	0.740306	-0.424407	0.000022
H61	H	0.710959	-0.397554	-0.054288
O62	O	0.969423	-0.458467	0.138662
H63	H	0.940440	-0.430819	0.192858
H64	H	0.828463	-0.324633	0.120705
H65	H	0.987433	0.009364	0.365799
O66	O	1.047705	-0.349051	0.000037
H67	H	1.077075	-0.375785	-0.054307
O68	O	1.001053	-0.005741	0.623366
H69	H	1.036845	-0.045514	0.666397
H70	H	0.140178	-0.030539	0.000120
O71	O	1.001079	-0.005740	0.796823
H72	H	0.992434	0.003860	0.861863
H73	H	0.828488	-0.324787	-0.120650
O74	O	0.529456	-0.043899	0.000101
H75	H	0.466412	-0.032135	0.000097
O76	O	0.787099	0.232028	0.796854
H77	H	0.751296	0.271793	0.753826
O78	O	0.787070	0.232011	0.623390
H79	H	0.751290	0.271785	0.666431
H80	H	0.800637	0.216873	0.214417
O81	O	0.655980	0.277208	0.000095
H82	H	0.608985	0.329707	0.000110
O83	O	0.094575	0.267249	0.000137
H84	H	0.034566	0.253303	0.000152
H85	H	0.800652	0.216874	0.365818
H86	H	0.283391	-0.027998	0.000120
