data_functionalizedCrystal
_audit_creation_method	'MofGen! by Chris Wilmer'
_symmetry_space_group_name_H-M	'P1'
_symmetry_Int_Tables_number	1
_symmetry_cell_setting	triclinic
loop_
_symmetry_equiv_pos_as_xyz
  x,y,z
_cell_length_a	16.120490
_cell_length_b	16.120444
_cell_length_c	13.032268
_cell_angle_alpha	80.356652
_cell_angle_beta	85.355586
_cell_angle_gamma	90.165174
loop_
_atom_site_label
_atom_site_type_symbol
_atom_site_fract_x
_atom_site_fract_y
_atom_site_fract_z
Zn1	Zn	1.180620	-0.462313	0.695122
Zn2	Zn	1.191124	-0.585435	0.528865
Zn3	Zn	1.061094	-0.437646	0.511247
Zn4	Zn	1.034571	-0.594168	0.694172
O5	O	1.116852	-0.519890	0.607351
O6	O	1.297553	-0.485314	0.680838
O7	O	1.189371	-0.551853	0.380393
O8	O	1.083654	-0.323886	0.528662
O9	O	1.305270	-0.575772	0.558689
O10	O	1.171469	-0.342009	0.663754
O11	O	1.093839	-0.443273	0.367450
O12	O	0.942036	-0.451740	0.527742
O13	O	1.038449	-0.590655	0.840432
O14	O	0.922549	-0.566736	0.662136
O15	O	1.145750	-0.493782	0.841130
O16	O	1.163652	-0.703625	0.557769
O17	O	1.048633	-0.710041	0.679219
C18	C	0.902334	-0.507509	0.592925
C19	C	0.810558	-0.502235	0.586779
C20	C	0.592015	-0.547242	0.639232
C21	C	0.642527	-0.492614	0.575557
C22	C	0.736028	-0.497969	0.581803
C23	C	0.498506	-0.541888	0.632988
C24	C	1.104424	-0.737182	0.620327
C25	C	1.099179	-0.830148	0.625918
C26	C	1.144238	-1.038586	0.578585
C27	C	1.089618	-1.000354	0.636138
C28	C	1.094939	-0.905642	0.630450
C29	C	1.138918	-1.133306	0.584272
C30	C	1.332208	-0.532320	0.621835
C31	C	1.423979	-0.537617	0.628007
C32	C	1.087969	-0.545944	0.879731
C33	C	1.075661	-0.557046	0.995804
C34	C	1.129349	-0.301754	0.594349
C35	C	1.134674	-0.208797	0.588808
C36	C	1.145673	-0.493881	0.336030
C37	C	1.158155	-0.482552	0.219955
C38	C	1.123265	-0.514065	1.047897
C39	C	1.110545	-0.525539	1.167864
H40	H	0.618991	-0.598029	0.698430
O41	O	0.610487	-0.431949	0.504889
C42	C	0.639423	-0.313569	0.366794
C43	C	0.675822	-0.382210	0.446792
H44	H	0.692229	-0.273348	0.319785
H45	H	0.596472	-0.272161	0.409514
H46	H	0.602614	-0.344425	0.311806
H47	H	0.712670	-0.351425	0.501801
H48	H	0.718728	-0.423611	0.404003
H49	H	1.038858	-1.038752	0.689683
O50	O	1.204713	-0.992653	0.514724
C51	C	1.265259	-0.855005	0.450837
C52	C	1.196723	-0.906933	0.523188
H53	H	1.258834	-0.785693	0.457672
H54	H	1.258798	-0.863208	0.366630
H55	H	1.328927	-0.877689	0.474704
H56	H	1.133024	-0.884283	0.499415
H57	H	1.203258	-0.898728	0.607378
O58	O	1.050794	-0.579680	1.220657
C59	C	1.020241	-0.703632	1.349957
C60	C	1.087990	-0.642393	1.290227
H61	H	1.050287	-0.754339	1.406234
H62	H	0.986386	-0.734276	1.292126
H63	H	0.973879	-0.667573	1.395782
H64	H	1.134406	-0.678389	1.244399
H65	H	1.121782	-0.611748	1.348110
H66	H	1.025484	-0.602332	1.040018
H67	H	1.173434	-0.468770	1.003682
H68	H	1.208326	-0.437252	1.175745
