data_functionalizedCrystal
_audit_creation_method	'MofGen! by Chris Wilmer'
_symmetry_space_group_name_H-M	'P1'
_symmetry_Int_Tables_number	1
_symmetry_cell_setting	triclinic
loop_
_symmetry_equiv_pos_as_xyz
  x,y,z
_cell_length_a	23.532407
_cell_length_b	23.532407
_cell_length_c	15.186229
_cell_angle_alpha	89.991614
_cell_angle_beta	90.001988
_cell_angle_gamma	82.848678
loop_
_atom_site_label
_atom_site_type_symbol
_atom_site_fract_x
_atom_site_fract_y
_atom_site_fract_z
O1	O	0.755259	0.069134	-0.073128
O2	O	0.589395	0.079137	-0.073155
O3	O	0.677329	-0.008796	-0.073124
O4	O	0.667325	0.157067	-0.073158
O5	O	0.677323	-0.008797	0.073333
O6	O	0.589389	0.079136	0.073303
O7	O	0.755253	0.069133	0.073330
Zn8	Zn	0.672320	0.074134	0.096569
Zn9	Zn	0.672328	0.074136	-0.096394
O10	O	0.667320	0.157066	0.073299
C11	C	0.568176	0.078882	0.000071
C12	C	0.504959	0.078116	0.000061
C13	C	0.105856	0.125350	0.000091
C14	C	0.046456	0.124638	0.000097
O15	O	0.009711	0.168424	0.000120
N16	N	0.023830	0.072362	0.000106
C17	C	0.060607	0.020794	0.000119
O18	O	0.035908	-0.023737	0.000128
C19	C	0.120006	0.021506	0.000120
C20	C	0.142629	0.073785	0.000101
C21	C	0.128479	0.177625	0.000074
C22	C	0.187876	0.178336	0.000067
C23	C	0.224649	0.126772	0.000077
C24	C	0.202025	0.074496	0.000094
C25	C	0.156783	-0.030062	0.000138
C26	C	0.216185	-0.029345	0.000140
C27	C	0.238808	0.022934	0.000122
C28	C	0.298194	0.023643	0.000097
N29	N	0.320820	0.075920	0.000088
C30	C	0.284048	0.127484	0.000078
C31	C	-0.064135	0.019302	0.000119
C32	C	-0.123533	0.018589	0.000112
C33	C	-0.137680	0.122434	0.000091
C34	C	-0.078281	0.123146	0.000092
C35	C	-0.041509	0.071578	0.000109
C36	C	0.408784	0.128974	0.000062
C37	C	0.468186	0.129680	0.000051
C38	C	0.482329	0.025836	0.000076
C39	C	0.422932	0.025129	0.000082
C40	C	0.386160	0.076702	0.000078
O41	O	0.334974	-0.020119	0.000078
O42	O	0.308755	0.172007	0.000080
C43	C	0.677071	-0.030013	0.000107
C44	C	0.676305	-0.093230	0.000113
C45	C	0.723539	-0.492333	0.000073
C46	C	0.722827	-0.551733	0.000066
O47	O	0.766613	-0.588478	0.000041
N48	N	0.670551	-0.574359	0.000058
C49	C	0.618983	-0.537582	0.000048
O50	O	0.574452	-0.562281	0.000040
C51	C	0.619695	-0.478182	0.000049
C52	C	0.671974	-0.455560	0.000065
C53	C	0.775814	-0.469710	0.000089
C54	C	0.776525	-0.410313	0.000097
C55	C	0.724961	-0.373540	0.000090
C56	C	0.672685	-0.396164	0.000074
C57	C	0.568127	-0.441406	0.000032
C58	C	0.568844	-0.382004	0.000032
C59	C	0.621123	-0.359381	0.000049
C60	C	0.621832	-0.299995	0.000075
N61	N	0.674109	-0.277368	0.000083
C62	C	0.725673	-0.314141	0.000090
C63	C	0.617491	-0.662324	0.000045
C64	C	0.616778	-0.721722	0.000051
C65	C	0.720623	-0.735869	0.000068
C66	C	0.721335	-0.676470	0.000068
C67	C	0.669767	-0.639698	0.000053
C68	C	0.727163	-0.189405	0.000109
C69	C	0.727869	-0.130003	0.000121
C70	C	0.624025	-0.115860	0.000100
C71	C	0.623318	-0.175257	0.000092
C72	C	0.674891	-0.212029	0.000094
O73	O	0.578070	-0.263215	0.000097
O74	O	0.770196	-0.289433	0.000087
C75	C	0.776472	0.069388	0.000102
C76	C	0.839689	0.070154	0.000106
C77	C	0.667577	0.178283	0.000066
C78	C	0.668343	0.241500	0.000054
N79	N	0.672319	0.074133	0.228262
N80	N	0.672334	0.074133	-0.228087
C81	C	0.711269	0.035209	0.453998
C82	C	0.711271	0.035208	0.546188
C83	C	0.633379	0.113059	0.546170
C84	C	0.633375	0.113057	0.453982
C85	C	0.672323	0.074133	0.407899
C86	C	0.672329	0.074133	0.592276
C87	C	0.672331	0.074132	0.692232
C88	C	0.672321	0.074133	0.307936
H89	H	0.206289	0.220908	0.000052
H90	H	0.770443	-0.111587	0.000137
H91	H	0.512280	-0.016146	0.000081
H92	H	0.404512	-0.017441	0.000084
H93	H	0.769159	-0.219337	0.000106
F94	F	0.752721	-0.006221	0.595248
H95	H	-0.167632	0.164421	0.000087
H96	H	0.526850	-0.352066	0.000019
F97	F	0.832169	-0.386245	0.000096
H98	H	0.742982	0.003514	0.416479
H99	H	0.601670	0.144751	0.583701
F100	F	0.591920	0.154484	0.404916
H101	H	0.378851	0.170970	0.000061
F102	F	0.492259	0.185326	0.000029
H103	H	0.098544	0.219617	0.000069
F104	F	0.132720	-0.085706	0.000145
H105	H	0.580748	-0.193677	0.000103
H106	H	0.574207	-0.740136	0.000053
F107	F	-0.054210	0.178789	0.000075
F108	F	0.830701	-0.508838	0.000096
H109	H	0.525555	-0.459814	0.000013
H110	H	0.763906	-0.658056	0.000081
F111	F	0.255318	-0.084233	0.000161
F112	F	-0.025003	-0.035587	0.000129
F113	F	-0.147603	-0.037054	0.000111
F114	F	0.562602	-0.623192	0.000038
F115	F	0.775503	-0.775016	0.000071
H116	H	0.582043	-0.085909	0.000097
