data_functionalizedCrystal
_audit_creation_method	'MofGen! by Chris Wilmer'
_symmetry_space_group_name_H-M	'P1'
_symmetry_Int_Tables_number	1
_symmetry_cell_setting	triclinic
loop_
_symmetry_equiv_pos_as_xyz
  x,y,z
_cell_length_a	23.532407
_cell_length_b	22.610064
_cell_length_c	16.109301
_cell_angle_alpha	89.997353
_cell_angle_beta	83.155114
_cell_angle_gamma	90.005499
loop_
_atom_site_label
_atom_site_type_symbol
_atom_site_fract_x
_atom_site_fract_y
_atom_site_fract_z
O1	O	0.755636	0.049149	0.100915
O2	O	0.589826	0.049159	0.115518
O3	O	0.677286	0.049148	-0.012850
O4	O	0.668176	0.049160	0.229283
O5	O	0.677270	-0.049222	-0.012832
O6	O	0.589811	-0.049210	0.115537
O7	O	0.755620	-0.049220	0.100934
Zn8	Zn	0.672713	-0.064833	0.108238
Zn9	Zn	0.672733	0.064772	0.108213
O10	O	0.668161	-0.049209	0.229302
C11	C	0.568601	-0.000025	0.115155
C12	C	0.505380	-0.000021	0.114037
C13	C	0.238915	-0.000041	0.033461
C14	C	0.298319	-0.000041	0.034500
O15	O	0.334828	-0.000065	-0.029421
N16	N	0.321227	-0.000033	0.110814
C17	C	0.284727	-0.000032	0.186096
O18	O	0.309667	-0.000025	0.251103
C19	C	0.225324	-0.000036	0.185056
C20	C	0.202420	-0.000038	0.108736
C21	C	0.216010	-0.000044	-0.042853
C22	C	0.156610	-0.000043	-0.043891
C23	C	0.120115	-0.000040	0.031384
C24	C	0.143020	-0.000037	0.107698
C25	C	0.188826	-0.000038	0.260337
C26	C	0.129419	-0.000043	0.259291
C27	C	0.106515	-0.000045	0.182971
C28	C	0.047125	-0.000033	0.181935
N29	N	0.024217	-0.000041	0.105620
C30	C	0.060712	-0.000044	0.030345
C31	C	0.409478	-0.000023	0.188273
C32	C	0.468880	-0.000015	0.189313
C33	C	0.482468	-0.000025	0.037717
C34	C	0.423065	-0.000030	0.036677
C35	C	0.386570	-0.000031	0.111958
C36	C	-0.064032	-0.000042	0.028170
C37	C	-0.123438	-0.000038	0.027139
C38	C	-0.137021	-0.000031	0.178735
C39	C	-0.077620	-0.000031	0.179767
C40	C	-0.041127	-0.000038	0.104478
O41	O	0.010582	-0.000011	0.245822
O42	O	0.035765	-0.000058	-0.034651
N43	N	0.672703	-0.153286	0.108254
C44	C	0.711462	-0.561932	0.051381
C45	C	0.711465	-0.623852	0.051375
O46	O	0.744395	-0.655875	0.003031
N47	N	0.672733	-0.654823	0.108196
C48	C	0.633991	-0.623871	0.165022
O49	O	0.601047	-0.655900	0.213352
C50	C	0.633986	-0.561952	0.165023
C51	C	0.672725	-0.530984	0.108204
C52	C	0.750197	-0.530964	-0.005435
C53	C	0.750195	-0.469049	-0.005428
C54	C	0.711458	-0.438101	0.051395
C55	C	0.672723	-0.469069	0.108211
C56	C	0.595242	-0.531001	0.221844
C57	C	0.595240	-0.469078	0.221841
C58	C	0.633979	-0.438110	0.165021
C59	C	0.633983	-0.376205	0.165041
N60	N	0.672715	-0.345234	0.108220
C61	C	0.711453	-0.376182	0.051397
C62	C	0.634005	-0.753904	0.165014
C63	C	0.634012	-0.815822	0.165017
C64	C	0.711485	-0.815799	0.051368
C65	C	0.711480	-0.753880	0.051370
C66	C	0.672737	-0.722934	0.108192
C67	C	0.711445	-0.246155	0.051417
C68	C	0.711441	-0.184234	0.051431
C69	C	0.633966	-0.184262	0.165077
C70	C	0.633972	-0.246178	0.165065
C71	C	0.672713	-0.277123	0.108228
O72	O	0.601068	-0.344143	0.213358
O73	O	0.744387	-0.344146	0.003067
C74	C	0.776845	-0.000035	0.101296
C75	C	0.840067	-0.000035	0.102414
C76	C	0.676909	-0.000037	-0.043813
C77	C	0.675803	-0.000038	-0.136100
N78	N	0.672748	0.153225	0.108190
C79	C	0.725127	-0.000031	-0.358760
C80	C	0.724083	-0.000027	-0.445472
C81	C	0.620315	-0.000023	-0.424782
C82	C	0.621360	-0.000024	-0.338071
C83	C	0.673768	-0.000031	-0.305063
C84	C	0.671679	-0.000025	-0.478486
C85	C	0.670547	-0.000020	-0.572503
C86	C	0.674900	-0.000035	-0.211040
C87	C	0.668537	-0.000023	0.260265
C88	C	0.669644	-0.000018	0.352551
H89	H	0.487523	-0.000005	0.251460
H90	H	0.579534	-0.000021	-0.294349
O91	O	0.753251	-0.720476	-0.009924
H92	H	0.797645	-0.732350	0.000328
H93	H	0.765906	-0.000026	-0.489189
O94	O	0.781653	-0.000029	-0.323162
H95	H	0.784613	-0.040125	-0.284155
O96	O	0.213516	-0.000039	0.342657
H97	H	0.260955	-0.000033	0.330750
O98	O	0.553453	-0.435693	0.283124
H99	H	0.560694	-0.447574	0.347886
H100	H	0.781742	-0.556157	-0.051711
H101	H	0.602457	-0.728711	0.211292
O102	O	-0.148143	-0.000048	-0.055180
H103	H	-0.112783	-0.000059	-0.107347
H104	H	0.099708	-0.000047	0.320595
O105	O	0.753264	-0.849183	-0.009931
H106	H	0.746751	-0.897441	-0.000388
O107	O	0.592249	-0.849221	0.226327
H108	H	0.565317	-0.817293	0.265841
H109	H	0.742991	-0.271343	0.005134
H110	H	0.742988	-0.159022	0.005162
H111	H	0.577647	-0.000018	-0.451668
O112	O	0.791970	-0.435651	-0.066723
H113	H	0.818898	-0.467581	-0.106239
O114	O	0.131917	-0.000056	-0.126213
H115	H	0.105185	0.040037	-0.130341
O116	O	-0.024675	-0.000049	-0.053031
H117	H	-0.032814	0.040046	-0.089576
O118	O	0.255369	-0.000047	-0.124049
H119	H	0.229452	-0.000046	-0.177281
H120	H	0.404421	-0.000032	-0.025469
H121	H	-0.058971	-0.000029	0.241913
H122	H	0.512193	-0.000028	-0.023577
O123	O	0.592196	-0.279586	0.226352
H124	H	0.547805	-0.267707	0.216082
O125	O	0.553480	-0.564394	0.283159
H126	H	0.526550	-0.532461	0.322670
H127	H	0.602428	-0.159055	0.211344
O128	O	0.370116	-0.000015	0.269473
H129	H	0.396030	-0.000003	0.322708
O130	O	-0.176388	-0.000036	0.259924
H131	H	-0.221541	-0.000046	0.246372
