data_functionalizedCrystal
_audit_creation_method	'MofGen! by Chris Wilmer'
_symmetry_space_group_name_H-M	'P1'
_symmetry_Int_Tables_number	1
_symmetry_cell_setting	triclinic
loop_
_symmetry_equiv_pos_as_xyz
  x,y,z
_cell_length_a	15.995343
_cell_length_b	27.732046
_cell_length_c	14.472310
_cell_angle_alpha	90.007427
_cell_angle_beta	89.991294
_cell_angle_gamma	96.934419
loop_
_atom_site_label
_atom_site_type_symbol
_atom_site_fract_x
_atom_site_fract_y
_atom_site_fract_z
O1	O	1.110194	-0.062283	-0.076761
O2	O	0.866318	-0.069981	-0.076785
O3	O	0.995831	0.004232	-0.076752
O4	O	0.980681	-0.136496	-0.076795
O5	O	0.995798	0.004228	0.076930
O6	O	0.866285	-0.069985	0.076897
O7	O	1.110161	-0.062288	0.076921
Cu8	Cu	0.988220	-0.066137	0.090941
Cu9	Cu	0.988259	-0.066132	-0.090806
O10	O	0.980648	-0.136501	0.076887
C11	C	0.835111	-0.069666	0.000053
C12	C	0.742172	-0.068714	0.000045
C13	C	0.572008	-0.066985	0.000058
C14	C	0.549357	-0.013415	0.000074
C15	C	0.452692	-0.012407	0.000428
C16	C	0.404471	-0.065283	0.000070
C17	C	0.433194	-0.092222	0.087647
C18	C	0.529979	-0.092857	0.087715
C19	C	0.529917	-0.093637	-0.087057
C20	C	0.433448	-0.091659	-0.088202
C21	C	0.309785	-0.064324	0.000079
C22	C	0.666694	-0.067946	0.000054
C23	C	0.995497	0.022238	0.000093
C24	C	0.994540	0.075897	0.000103
C25	C	1.065048	0.414410	0.000077
C26	C	1.061498	0.616085	0.000073
O27	O	1.125970	0.647063	0.000040
N28	N	0.984703	0.635538	0.000067
C29	C	0.908790	0.604570	0.000057
O30	O	0.843389	0.625744	0.000042
C31	C	0.912341	0.402896	0.000054
C32	C	0.989141	0.383445	0.000069
C33	C	1.141842	0.394958	0.000091
C34	C	1.142729	0.344543	0.000097
C35	C	1.066822	0.313578	0.000089
C36	C	0.990028	0.333029	0.000075
C37	C	0.836429	0.371928	0.000037
C38	C	0.837324	0.321507	0.000034
C39	C	0.914124	0.302056	0.000049
C40	C	0.915008	0.251649	0.000073
N41	N	0.991803	0.232195	0.000079
C42	C	1.067710	0.263160	0.000087
C43	C	0.906931	0.710452	0.000060
C44	C	0.906043	0.760870	0.000062
C45	C	1.058751	0.772382	0.000077
C46	C	1.059638	0.721962	0.000081
C47	C	0.983726	0.690998	0.000066
C48	C	1.069567	0.157283	0.000101
C49	C	1.070447	0.106862	0.000110
C50	C	0.917739	0.095355	0.000091
C51	C	0.916858	0.145771	0.000086
C52	C	0.992779	0.176734	0.000088
O53	O	0.850570	0.220642	0.000096
O54	O	1.133101	0.241976	0.000081
C55	C	1.064162	0.464825	0.000071
C56	C	0.987368	0.484277	0.000057
C57	C	0.911461	0.453312	0.000049
C58	C	0.986480	0.534695	0.000059
C59	C	1.062387	0.565660	0.000067
C60	C	1.139182	0.546206	0.000073
C61	C	1.140069	0.495790	0.000079
C62	C	0.834666	0.472766	0.000044
C63	C	0.833785	0.523182	0.000039
C64	C	0.909692	0.554147	0.000046
C65	C	1.141368	-0.062603	0.000080
C66	C	1.234307	-0.063555	0.000082
N67	N	0.988198	-0.066140	0.218772
C68	C	0.980985	0.845493	0.000052
C69	C	0.981950	0.791835	0.000070
N70	N	0.988287	-0.066125	-0.218637
C71	C	0.988258	-0.066130	0.592863
C72	C	0.918729	-0.105707	0.553680
C73	C	0.918887	-0.105851	0.446591
C74	C	0.988228	-0.066135	0.407272
C75	C	1.075450	-0.077149	0.446114
C76	C	1.075059	-0.077431	0.553235
C77	C	0.971345	-0.015422	0.553406
C78	C	0.969337	-0.015760	0.446278
C79	C	0.988216	-0.066137	0.302384
C80	C	0.988275	-0.066129	0.697751
H81	H	0.578592	0.007009	0.062795
F82	F	0.547536	-0.145181	-0.088157
F83	F	0.565286	-0.068762	0.173623
H84	H	1.090062	-0.114412	0.578201
H85	H	0.772851	0.447559	0.000035
H86	H	0.558420	-0.076733	-0.153460
F87	F	1.139537	0.805345	0.000083
H88	H	0.845110	0.685245	0.000047
F89	F	0.548364	-0.144204	0.092585
H90	H	0.905179	-0.007401	0.420893
H91	H	1.128378	-0.049741	0.579154
H92	H	0.433959	0.008680	-0.062337
F93	F	1.224471	0.323848	0.000093
F94	F	1.222640	0.427907	0.000099
F95	F	0.390912	-0.143087	0.091570
F96	F	0.407230	-0.068068	0.173176
H97	H	1.022057	0.014030	0.578746
F98	F	0.409566	-0.066009	-0.172890
F99	F	1.144659	-0.040474	0.412827
H100	H	1.090829	-0.113709	0.419267
F101	F	0.586332	0.013730	-0.082001
H102	H	0.929309	-0.143125	0.580579
F103	F	0.824302	0.781565	0.000063
H104	H	1.131389	0.182487	0.000098
H105	H	1.202607	0.479958	0.000091
F106	F	0.890049	-0.001585	0.588756
F107	F	1.031301	0.024539	0.411310
H108	H	1.132989	0.091028	0.000125
F109	F	0.756525	0.288555	0.000015
F110	F	0.428925	0.015014	0.082991
H111	H	0.399992	-0.130240	-0.093774
H112	H	1.122176	0.706129	0.000093
F113	F	0.754687	0.392618	0.000017
H114	H	0.855937	0.070135	0.000088
F115	F	0.835120	0.166473	0.000087
H116	H	1.200988	0.571426	0.000083
F117	F	0.834104	-0.097298	0.412265
F118	F	0.752038	0.543877	0.000028
F119	F	0.833677	-0.097265	0.587363
F120	F	0.932887	-0.155040	0.413068
