data_functionalizedCrystal
_audit_creation_method	'MofGen! by Chris Wilmer'
_symmetry_space_group_name_H-M	'P1'
_symmetry_Int_Tables_number	1
_symmetry_cell_setting	triclinic
loop_
_symmetry_equiv_pos_as_xyz
  x,y,z
_cell_length_a	14.519731
_cell_length_b	12.996460
_cell_length_c	14.519709
_cell_angle_alpha	90.007122
_cell_angle_beta	96.315501
_cell_angle_gamma	89.998888
loop_
_atom_site_label
_atom_site_type_symbol
_atom_site_fract_x
_atom_site_fract_y
_atom_site_fract_z
O1	O	1.223850	-0.085571	-0.120987
O2	O	1.473850	0.164429	0.129013
O3	O	1.723850	0.414429	0.379013
O4	O	1.973850	0.664429	0.629013
O5	O	0.955376	-0.085573	-0.135203
O6	O	1.205376	0.164427	0.114797
O7	O	1.455376	0.414427	0.364797
O8	O	1.705376	0.664427	0.614797
O9	O	1.096732	-0.085563	0.006143
O10	O	1.346732	0.164437	0.256143
O11	O	1.596732	0.414437	0.506143
O12	O	1.846732	0.664437	0.756143
O13	O	1.082495	-0.085582	-0.262333
O14	O	1.332495	0.164418	-0.012333
O15	O	1.582495	0.414418	0.237667
O16	O	1.832495	0.664418	0.487667
O17	O	1.096729	0.085571	0.006152
O18	O	1.346729	0.335571	0.256152
O19	O	1.596729	0.585571	0.506152
O20	O	1.846729	0.835571	0.756152
O21	O	0.955374	0.085561	-0.135194
O22	O	1.205374	0.335561	0.114806
O23	O	1.455374	0.585561	0.364806
O24	O	1.705374	0.835561	0.614806
O25	O	1.223848	0.085563	-0.120978
O26	O	1.473848	0.335563	0.129022
O27	O	1.723848	0.585563	0.379022
O28	O	1.973848	0.835563	0.629022
Cu29	Cu	1.089611	0.101187	-0.128085
Cu30	Cu	1.339611	0.351187	0.121915
Cu31	Cu	1.589611	0.601187	0.371915
Cu32	Cu	1.839611	0.851187	0.621915
Cu33	Cu	1.089614	-0.101198	-0.128096
Cu34	Cu	1.339614	0.148802	0.121904
Cu35	Cu	1.589614	0.398802	0.371904
Cu36	Cu	1.839614	0.648802	0.621904
O37	O	1.082493	0.085552	-0.262324
O38	O	1.332493	0.335552	-0.012324
O39	O	1.582493	0.585552	0.237676
O40	O	1.832493	0.835552	0.487676
C41	C	0.921016	-0.000006	-0.134532
C42	C	1.171016	0.249994	0.115468
C43	C	1.421016	0.499994	0.365468
C44	C	1.671016	0.749994	0.615468
C45	C	0.818635	-0.000007	-0.132536
C46	C	1.068635	0.249993	0.117464
C47	C	1.318635	0.499993	0.367464
C48	C	1.568635	0.749993	0.617464
C49	C	0.735491	-0.000011	-0.130915
C50	C	0.985491	0.249989	0.119085
C51	C	1.235491	0.499989	0.369085
C52	C	1.485491	0.749989	0.619085
C53	C	0.631182	-0.000011	-0.128888
C54	C	0.881182	0.249989	0.121112
C55	C	1.131182	0.499989	0.371112
C56	C	1.381182	0.749989	0.621112
C57	C	0.548043	-0.000011	-0.127280
C58	C	0.798043	0.249989	0.122720
C59	C	1.048043	0.499989	0.372720
C60	C	1.298043	0.749989	0.622720
C61	C	0.443728	-0.000013	-0.125253
C62	C	0.693728	0.249987	0.124747
C63	C	0.943728	0.499987	0.374747
C64	C	1.193728	0.749987	0.624747
N65	N	1.089616	-0.243545	-0.128097
N66	N	1.339616	0.006455	0.121903
N67	N	1.589616	0.256455	0.371903
N68	N	1.839616	0.506455	0.621903
C69	C	1.089612	-0.663360	-0.128088
C70	C	1.339612	-0.413360	0.121912
C71	C	1.589612	-0.163360	0.371912
C72	C	1.839612	0.086640	0.621912
C73	C	1.089610	-0.546554	-0.128093
C74	C	1.339610	-0.296554	0.121907
C75	C	1.589610	-0.046554	0.371907
C76	C	1.839610	0.203446	0.621907
C77	C	1.089613	-0.453456	-0.128092
C78	C	1.339613	-0.203456	0.121908
C79	C	1.589613	0.046544	0.371908
C80	C	1.839613	0.296544	0.621908
C81	C	1.089613	-0.336644	-0.128098
C82	C	1.339613	-0.086644	0.121902
C83	C	1.589613	0.163356	0.371902
C84	C	1.839613	0.413356	0.621902
C85	C	1.258209	-0.000007	-0.121649
C86	C	1.508209	0.249993	0.128351
C87	C	1.758209	0.499993	0.378351
C88	C	2.008209	0.749993	0.628351
C89	C	1.360589	-0.000013	-0.123645
C90	C	1.610589	0.249987	0.126355
C91	C	1.860589	0.499987	0.376355
C92	C	2.110589	0.749987	0.626355
C93	C	1.096067	0.000004	0.040507
C94	C	1.346067	0.250004	0.290507
C95	C	1.596067	0.500004	0.540507
C96	C	1.846067	0.750004	0.790507
C97	C	1.094079	0.000005	0.142889
C98	C	1.344079	0.250005	0.392889
C99	C	1.594079	0.500005	0.642889
C100	C	1.844079	0.750005	0.892889
N101	N	1.089615	0.243535	-0.128077
N102	N	1.339615	0.493535	0.121923
N103	N	1.589615	0.743535	0.371923
N104	N	1.839615	0.993535	0.621923
C105	C	1.083157	-0.000017	-0.296688
C106	C	1.333157	0.249983	-0.046688
C107	C	1.583157	0.499983	0.203312
C108	C	1.833157	0.749983	0.453312
C109	C	1.085146	-0.000024	-0.399070
C110	C	1.335146	0.249976	-0.149070
C111	C	1.585146	0.499976	0.100930
C112	C	1.835146	0.749976	0.350930
C113	C	1.086759	-0.000022	0.517785
C114	C	1.336759	0.249978	0.767785
C115	C	1.586759	0.499978	1.017785
C116	C	1.836759	0.749978	1.267785
C117	C	1.088792	-0.000014	0.413477
C118	C	1.338792	0.249986	0.663477
C119	C	1.588792	0.499986	0.913477
C120	C	1.838792	0.749986	1.163477
C121	C	1.090419	-0.000008	0.330340
C122	C	1.340419	0.249992	0.580340
C123	C	1.590419	0.499992	0.830340
C124	C	1.840419	0.749992	1.080340
C125	C	1.092452	-0.000002	0.226025
C126	C	1.342452	0.249998	0.476025
C127	C	1.592452	0.499998	0.726025
C128	C	1.842452	0.749998	0.976025
