data_functionalizedCrystal
_audit_creation_method	'MofGen! by Chris Wilmer'
_symmetry_space_group_name_H-M	'P1'
_symmetry_Int_Tables_number	1
_symmetry_cell_setting	triclinic
loop_
_symmetry_equiv_pos_as_xyz
  x,y,z
_cell_length_a	10.723024
_cell_length_b	22.010155
_cell_length_c	23.532407
_cell_angle_alpha	90.000423
_cell_angle_beta	83.658273
_cell_angle_gamma	90.008235
loop_
_atom_site_label
_atom_site_type_symbol
_atom_site_fract_x
_atom_site_fract_y
_atom_site_fract_z
O1	O	1.654709	0.050528	0.079864
O2	O	1.291319	0.050531	0.087509
O3	O	1.483972	0.050518	0.000826
O4	O	1.462056	0.050541	0.166547
O5	O	1.483937	-0.050532	0.000839
O6	O	1.291284	-0.050519	0.087522
O7	O	1.654674	-0.050522	0.079877
Cu8	Cu	1.472976	-0.059748	0.083701
Cu9	Cu	1.473017	0.059756	0.083686
O10	O	1.462021	-0.050510	0.166560
C11	C	1.244819	0.000006	0.086960
C12	C	1.106317	0.000006	0.085295
N13	N	1.472956	-0.143800	0.083711
C14	C	1.029823	0.000013	0.133798
C15	C	0.886673	0.000014	0.132079
C16	C	1.558329	-0.563585	0.045308
C17	C	1.558335	-0.627193	0.045304
O18	O	1.630872	-0.660089	0.012659
N19	N	1.473017	-0.659007	0.083674
C20	C	1.387679	-0.627211	0.122046
O21	O	1.315109	-0.660112	0.154682
C22	C	1.387668	-0.563604	0.122047
C23	C	1.473000	-0.531793	0.083678
C24	C	1.643653	-0.531774	0.006942
C25	C	1.643649	-0.468170	0.006947
C26	C	1.558320	-0.436379	0.045317
C27	C	1.472996	-0.468190	0.083683
C28	C	1.302325	-0.531809	0.160416
C29	C	1.302321	-0.468198	0.160413
C30	C	1.387653	-0.436387	0.122044
C31	C	1.387662	-0.372795	0.122058
N32	N	1.472980	-0.340980	0.083688
C33	C	1.558309	-0.372772	0.045318
C34	C	1.387706	-0.760789	0.122041
C35	C	1.387722	-0.824394	0.122043
C36	C	1.558377	-0.824371	0.045301
C37	C	1.558366	-0.760765	0.045301
C38	C	1.473025	-0.728974	0.083671
C39	C	1.558294	-0.239201	0.045331
C40	C	1.558285	-0.175592	0.045341
C41	C	1.387626	-0.175620	0.122082
C42	C	1.387639	-0.239223	0.122074
C43	C	1.472977	-0.271012	0.083694
O44	O	1.315159	-0.339858	0.154685
O45	O	1.630856	-0.339863	0.012683
C46	C	1.701174	0.000004	0.080427
C47	C	1.839677	0.000008	0.082092
C48	C	1.483397	-0.000008	-0.020387
C49	C	1.481719	-0.000013	-0.083615
N50	N	1.473047	0.143809	0.083671
C51	C	1.585203	0.000019	-0.482047
C52	C	1.583644	0.000024	-0.541457
O53	O	1.679575	0.000046	-0.577579
N54	N	1.469112	0.000024	-0.564826
C55	C	1.356131	0.000026	-0.528782
O56	O	1.258569	0.000028	-0.554114
C57	C	1.357691	0.000026	-0.469373
C58	C	1.472230	0.000020	-0.446007
C59	C	1.699733	0.000014	-0.458680
C60	C	1.701291	0.000008	-0.399274
C61	C	1.588319	0.000008	-0.363234
C62	C	1.473789	0.000014	-0.386600
C63	C	1.244711	0.000032	-0.433329
C64	C	1.246281	0.000033	-0.373917
C65	C	1.360821	0.000026	-0.350551
C66	C	1.362374	0.000008	-0.291154
N67	N	1.476907	0.000008	-0.267785
C68	C	1.589879	0.000008	-0.303825
C69	C	1.352863	0.000028	-0.653545
C70	C	1.351302	0.000024	-0.712953
C71	C	1.578816	0.000023	-0.725625
C72	C	1.580376	0.000022	-0.666215
C73	C	1.467395	0.000028	-0.630176
C74	C	1.593143	-0.000005	-0.179067
C75	C	1.594691	-0.000013	-0.119655
C76	C	1.367178	-0.000009	-0.106989
C77	C	1.365629	-0.000004	-0.166396
C78	C	1.478622	0.000000	-0.202434
O79	O	1.266494	-0.000011	-0.254997
O80	O	1.687425	0.000014	-0.278484
C81	C	1.462597	0.000018	0.187774
C82	C	1.464275	0.000027	0.251001
H83	H	1.070312	0.000016	0.176597
O84	O	1.219255	-0.562672	0.197629
C85	C	1.095870	-0.547119	0.187856
H86	H	1.095849	-0.529639	0.142256
H87	H	1.033156	-0.588948	0.194146
H88	H	1.058832	-0.510194	0.219262
O89	O	1.812523	-0.000098	-0.376552
C90	C	1.820224	-0.052424	-0.342555
H91	H	1.755193	-0.089006	-0.356857
H92	H	1.920850	-0.069986	-0.347492
H93	H	1.790860	-0.040592	-0.295826
O94	O	1.133522	0.000126	-0.456083
C95	C	1.125818	0.052474	-0.490051
H96	H	1.224358	0.069912	-0.504463
H97	H	1.076544	0.040714	-0.529139
H98	H	1.070324	0.089124	-0.464019
H99	H	0.820947	0.000022	0.173602
O100	O	1.706070	0.000010	-0.097052
C101	C	1.805444	-0.000002	-0.141606
H102	H	1.770983	0.019133	-0.182095
H103	H	1.885465	0.029334	-0.128874
H104	H	1.840240	-0.048480	-0.149877
H105	H	1.065828	0.000016	0.042497
O106	O	1.641212	-0.855193	0.007945
C107	C	1.621608	-0.839665	-0.048514
H108	H	1.573518	-0.793485	-0.048645
H109	H	1.715742	-0.837486	-0.076171
H110	H	1.559716	-0.875467	-0.066381
O111	O	1.726603	-0.562717	-0.030255
C112	C	1.803230	-0.599487	0.000564
H113	H	1.752976	-0.609031	0.044916
H114	H	1.823296	-0.644208	-0.023129
H115	H	1.895378	-0.574955	0.004825
O116	O	1.219591	-0.437251	0.197713
C117	C	1.285960	-0.400467	0.233140
H118	H	1.383877	-0.390925	0.210869
H119	H	1.233761	-0.355745	0.241936
H120	H	1.293911	-0.424985	0.275262
H121	H	1.791734	0.000016	-0.488018
H122	H	1.258032	0.000019	-0.731972
O123	O	1.641226	-0.144785	0.008012
C124	C	1.716555	-0.186491	-0.025846
H125	H	1.665407	-0.231835	-0.026703
H126	H	1.736158	-0.168111	-0.071246
H127	H	1.809010	-0.193250	-0.006968
H128	H	1.275199	-0.000011	-0.077635
H129	H	0.905395	0.000005	0.040567
H130	H	1.318214	-0.734908	0.153291
O131	O	1.304863	-0.144757	0.159431
C132	C	1.324402	-0.160305	0.215892
H133	H	1.424289	-0.177785	0.216595
H134	H	1.309690	-0.118472	0.244409
H135	H	1.255029	-0.197227	0.232330
O136	O	1.688644	0.000109	-0.760581
C137	C	1.758227	0.052452	-0.749929
H138	H	1.727028	0.069896	-0.704990
H139	H	1.862344	0.040684	-0.753700
H140	H	1.741579	0.089102	-0.782483
H141	H	1.685152	0.000001	-0.208403
H142	H	1.627783	-0.265076	0.014078
H143	H	1.272361	-0.000015	-0.185421
H144	H	1.713130	-0.442273	-0.024297
O145	O	1.641047	-0.729817	0.007973
C146	C	1.574605	-0.693072	-0.027449
H147	H	1.476721	-0.683531	-0.005149
H148	H	1.626792	-0.648347	-0.036293
H149	H	1.566578	-0.717622	-0.069548
O150	O	1.304718	-0.855197	0.159339
C151	C	1.229433	-0.813490	0.193214
H152	H	1.228322	-0.768149	0.169859
H153	H	1.129681	-0.831871	0.201487
H154	H	1.269417	-0.806722	0.235688
H155	H	1.318166	-0.265125	0.153323
H156	H	1.260855	0.000027	-0.624205
O157	O	1.691559	0.000102	-0.643453
C158	C	1.699307	0.052447	-0.609482
H159	H	1.600783	0.069896	-0.595076
H160	H	1.748555	0.040678	-0.570390
H161	H	1.754849	0.089092	-0.635510
O162	O	1.136447	0.000118	-0.338966
C163	C	1.066904	0.052464	-0.349618
H164	H	1.098132	0.069914	-0.394554
H165	H	0.962780	0.040698	-0.345857
H166	H	1.083564	0.089108	-0.317058
