data_functionalizedCrystal
_audit_creation_method	'MofGen! by Chris Wilmer'
_symmetry_space_group_name_H-M	'P1'
_symmetry_Int_Tables_number	1
_symmetry_cell_setting	triclinic
loop_
_symmetry_equiv_pos_as_xyz
  x,y,z
_cell_length_a	19.288864
_cell_length_b	14.044220
_cell_length_c	18.366186
_cell_angle_alpha	89.993222
_cell_angle_beta	89.977106
_cell_angle_gamma	88.162561
loop_
_atom_site_label
_atom_site_type_symbol
_atom_site_fract_x
_atom_site_fract_y
_atom_site_fract_z
O1	O	0.928948	0.118214	-0.060787
O2	O	0.727712	0.134161	-0.060738
O3	O	0.825310	-0.011784	-0.060755
O4	O	0.831351	0.264160	-0.060770
O5	O	0.825291	-0.011791	0.060345
O6	O	0.727694	0.134154	0.060362
O7	O	0.928930	0.118207	0.060312
Zn8	Zn	0.828309	0.126180	0.079564
Zn9	Zn	0.828333	0.126189	-0.079990
O10	O	0.831332	0.264152	0.060329
C11	C	0.701794	0.133645	-0.000182
C12	C	0.624591	0.132104	-0.000163
C13	C	0.585397	0.217738	-0.000179
C14	C	0.512857	0.216291	-0.000187
C15	C	0.479514	0.129205	-0.000193
C16	C	0.518717	0.043560	-0.000173
C17	C	0.591256	0.045010	-0.000157
C18	C	0.366860	0.060749	-0.042640
C19	C	0.294322	0.059303	-0.042660
C20	C	0.255781	0.124731	-0.000237
C21	C	0.289785	0.191621	0.042196
C22	C	0.362323	0.193071	0.042212
C23	C	0.400858	0.127624	-0.000209
C24	C	0.137930	0.208802	-0.000261
C25	C	0.065389	0.207351	-0.000264
C26	C	0.071251	0.034617	-0.000257
C27	C	0.143790	0.036071	-0.000247
C28	C	0.177126	0.123165	-0.000252
C29	C	0.822656	-0.047091	-0.000204
C30	C	0.814768	-0.152283	-0.000201
C31	C	0.800348	-0.344882	-0.000208
C32	C	0.856291	-0.402755	-0.000224
C33	C	0.848267	-0.509924	-0.000228
C34	C	0.808370	-0.237703	-0.000204
C35	C	0.954848	0.118724	-0.000245
C36	C	1.032051	0.120264	-0.000269
C37	C	0.833986	0.299459	-0.000223
C38	C	0.841874	0.404651	-0.000231
N39	N	0.828297	0.126173	0.188455
N40	N	0.828350	0.126188	-0.188881
C41	C	0.871531	0.061580	0.226548
C42	C	0.871535	0.061575	0.302776
C43	C	0.828313	0.126180	0.340908
C44	C	0.785071	0.190778	0.302806
C45	C	0.785063	0.190774	0.226579
C46	C	0.824562	0.212524	0.461665
C47	C	0.824575	0.212529	0.537890
C48	C	0.828333	0.126192	0.576015
C49	C	0.832093	0.039847	0.537907
C50	C	0.832085	0.039843	0.461681
C51	C	0.828316	0.126191	0.423563
C52	C	0.871574	0.061589	0.696763
C53	C	0.871573	0.061584	0.772993
C54	C	0.785113	0.190795	0.773021
C55	C	0.785110	0.190792	0.696793
C56	C	0.828344	0.126190	0.658669
H57	H	0.266642	0.004840	-0.077215
O58	O	0.629363	-0.038154	-0.000019
C59	C	0.671479	-0.042477	0.062696
H60	H	0.647934	0.006090	0.106529
H61	H	0.674885	-0.118846	0.083751
H62	H	0.725674	-0.018172	0.048522
O63	O	0.913542	-0.001271	0.189629
C64	C	0.951715	-0.058268	0.239603
H65	H	0.923185	-0.059234	0.293956
H66	H	0.957620	-0.133987	0.217588
H67	H	1.005205	-0.027675	0.247676
O68	O	0.920569	-0.365693	-0.000200
C69	C	0.914378	-0.265388	-0.000211
H70	H	0.861595	-0.242067	0.022724
H71	H	0.957103	-0.235126	0.034944
H72	H	0.919430	-0.237861	-0.058307
H73	H	0.746431	-0.375822	-0.000197
H74	H	0.175703	-0.033662	-0.000237
O75	O	0.617692	0.302404	-0.000277
C76	C	0.598225	0.354572	-0.063014
H77	H	0.546407	0.328946	-0.083932
H78	H	0.593043	0.433529	-0.048917
H79	H	0.639484	0.343426	-0.106922
H80	H	0.906742	0.008974	0.333797
O81	O	0.835703	-0.044112	0.424775
C82	C	0.839041	-0.120320	0.474763
H83	H	0.816146	-0.095841	0.529112
H84	H	0.808229	-0.181976	0.452760
H85	H	0.895445	-0.144765	0.482839
O86	O	0.404189	-0.002848	-0.083925
C87	C	0.358625	-0.062201	-0.121374
H88	H	0.305606	-0.024561	-0.126503
H89	H	0.380180	-0.078472	-0.177981
H90	H	0.353244	-0.131562	-0.089920
H91	H	0.835153	-0.030457	0.568947
O92	O	0.913608	-0.001036	0.810080
C93	C	0.959600	0.049575	0.854132
H94	H	0.936530	0.123822	0.865554
H95	H	0.968141	0.009985	0.907735
H96	H	1.011318	0.055841	0.824730
H97	H	0.906776	0.008984	0.665721
O98	O	0.743190	0.253515	0.810166
C99	C	0.752450	0.239650	0.885615
H100	H	0.805466	0.204043	0.896003
H101	H	0.749168	0.311442	0.914579
H102	H	0.710206	0.192254	0.907271
O103	O	0.743098	0.253638	0.659898
C104	C	0.704936	0.310645	0.709897
H105	H	0.733476	0.311619	0.764219
H106	H	0.699026	0.386360	0.687867
H107	H	0.651447	0.280054	0.718035
O108	O	0.820891	0.296484	0.574792
C109	C	0.817579	0.372687	0.524798
H110	H	0.796872	0.346538	0.470477
H111	H	0.781517	0.431794	0.546836
H112	H	0.871669	0.401347	0.516656
H113	H	0.821490	0.282834	0.430629
O114	O	0.743020	0.253571	0.339731
C115	C	0.704869	0.310600	0.289759
H116	H	0.701675	0.271746	0.235428
H117	H	0.650311	0.325245	0.311811
H118	H	0.731771	0.380921	0.281628
O119	O	0.743166	0.253569	0.189493
C120	C	0.783974	0.311918	0.145391
H121	H	0.835973	0.273985	0.133950
H122	H	0.755917	0.327012	0.091800
H123	H	0.793031	0.381938	0.174758
O124	O	0.027209	0.290453	-0.000251
C125	C	-0.043965	0.270502	-0.000280
H126	H	-0.051367	0.196085	0.022658
H127	H	-0.073424	0.325113	0.034864
H128	H	-0.064656	0.274175	-0.058382
H129	H	0.480939	0.286027	-0.000198
H130	H	0.491565	-0.027346	-0.000188
H131	H	0.258406	0.244899	0.076742
O132	O	0.395327	0.257946	0.083545
C133	C	0.377969	0.245104	0.157399
H134	H	0.360583	0.169133	0.166149
H135	H	0.425237	0.258354	0.192783
H136	H	0.334054	0.297441	0.172986
O137	O	0.170241	0.293459	-0.000354
C138	C	0.150781	0.345644	-0.063084
H139	H	0.098956	0.320041	-0.084002
H140	H	0.145614	0.424600	-0.048979
H141	H	0.192036	0.334491	-0.106995
O142	O	0.038760	-0.049896	-0.000297
C143	C	-0.033670	-0.032815	-0.000294
H144	H	-0.046083	0.041212	-0.023224
H145	H	-0.059347	-0.088519	-0.035456
H146	H	-0.054148	-0.037327	0.057800
