data_functionalizedCrystal
_audit_creation_method	'MofGen! by Chris Wilmer'
_symmetry_space_group_name_H-M	'P1'
_symmetry_Int_Tables_number	1
_symmetry_cell_setting	triclinic
loop_
_symmetry_equiv_pos_as_xyz
  x,y,z
_cell_length_a	18.050590
_cell_length_b	21.295417
_cell_length_c	18.050583
_cell_angle_alpha	89.959541
_cell_angle_beta	89.999666
_cell_angle_gamma	90.019674
loop_
_atom_site_label
_atom_site_type_symbol
_atom_site_fract_x
_atom_site_fract_y
_atom_site_fract_z
Zn1	Zn	1.135289	-0.250746	-0.419580
Zn2	Zn	1.635289	0.249254	0.080420
Zn3	Zn	1.135192	-0.356033	-0.295381
Zn4	Zn	1.635192	0.143967	0.204619
Zn5	Zn	1.011106	-0.250761	-0.295438
Zn6	Zn	1.511106	0.249239	0.204562
Zn7	Zn	1.011051	-0.355962	-0.419563
Zn8	Zn	1.511051	0.144038	0.080437
O9	O	1.073159	-0.303375	-0.357491
O10	O	1.573159	0.196625	0.142509
O11	O	1.239200	-0.264736	-0.403088
O12	O	1.739200	0.235264	0.096912
O13	O	1.118714	-0.342104	-0.191464
O14	O	1.618714	0.157896	0.308536
O15	O	1.027642	-0.162670	-0.311937
O16	O	1.527642	0.337330	0.188063
O17	O	1.239129	-0.342090	-0.311839
O18	O	1.739129	0.157910	0.188161
O19	O	1.118879	-0.162659	-0.403143
O20	O	1.618879	0.337341	0.096857
O21	O	1.027548	-0.264762	-0.191506
O22	O	1.527548	0.235238	0.308494
O23	O	0.907174	-0.264693	-0.311921
O24	O	1.407174	0.235307	0.188079
O25	O	1.027549	-0.341968	-0.523490
O26	O	1.527549	0.158032	-0.023490
O27	O	0.907134	-0.341983	-0.403115
O28	O	1.407134	0.158017	0.096885
O29	O	1.118826	-0.264667	-0.523502
O30	O	1.618826	0.235333	-0.023502
O31	O	1.118661	-0.444113	-0.311823
O32	O	1.618661	0.055887	0.188177
O33	O	1.027455	-0.444060	-0.403060
O34	O	1.527455	0.055940	0.096940
C35	C	0.880207	-0.303332	-0.357523
C36	C	1.380207	0.196668	0.142477
C37	C	0.797661	-0.303329	-0.357554
C38	C	1.297661	0.196671	0.142446
C39	C	0.598210	-0.345480	-0.407028
C40	C	1.098210	0.154520	0.092972
C41	C	0.548820	-0.288079	-0.425308
C42	C	1.048820	0.211921	0.074692
C43	C	0.646531	-0.303364	-0.357518
C44	C	1.146531	0.196636	0.142482
C45	C	0.548839	-0.360798	-0.339237
C46	C	1.048839	0.139202	0.160763
C47	C	0.500546	-0.303403	-0.357484
C48	C	1.000546	0.196597	0.142516
C49	C	0.598228	-0.245933	-0.375833
C50	C	1.098228	0.254067	0.124167
C51	C	0.598252	-0.318691	-0.289731
C52	C	1.098252	0.181309	0.210269
C53	C	0.548884	-0.261250	-0.307985
C54	C	1.048884	0.238750	0.192015
C55	C	0.730629	-0.303343	-0.357539
C56	C	1.230629	0.196657	0.142461
C57	C	0.416449	-0.303419	-0.357463
C58	C	0.916449	0.196581	0.142537
C59	C	1.073062	-0.466927	-0.357450
C60	C	1.573062	0.033073	0.142550
C61	C	1.073088	-0.536895	-0.357457
C62	C	1.573088	-0.036895	0.142543
C63	C	1.120621	-0.569768	-0.309999
C64	C	1.620621	-0.069768	0.190001
C65	C	1.120656	-0.635511	-0.310015
C66	C	1.620656	-0.135511	0.189985
C67	C	1.073145	-0.668378	-0.357482
C68	C	1.573145	-0.168378	0.142518
C69	C	1.025608	-0.635497	-0.404950
C70	C	1.525608	-0.135497	0.095050
C71	C	1.025580	-0.569756	-0.404937
C72	C	1.525580	-0.069756	0.095063
N73	N	1.008178	-0.771632	-0.363155
N74	N	1.508178	-0.271632	0.136845
N75	N	1.008207	-0.834084	-0.363163
N76	N	1.508207	-0.334084	0.136837
C77	C	1.073228	-0.866452	-0.357525
C78	C	1.573228	-0.366452	0.142475
N79	N	1.138220	-0.834010	-0.351865
N80	N	1.638220	-0.334010	0.148135
N81	N	1.138191	-0.771553	-0.351853
N82	N	1.638191	-0.271553	0.148147
C83	C	1.073170	-0.739663	-0.357502
C84	C	1.573170	-0.239663	0.142498
C85	C	1.120803	-0.970611	-0.310082
C86	C	1.620803	-0.470611	0.189918
C87	C	1.120839	-1.036354	-0.310104
C88	C	1.620839	-0.536354	0.189896
C89	C	1.025784	-1.036339	-0.405035
C90	C	1.525784	-0.536339	0.094965
C91	C	1.025755	-0.970597	-0.405017
C92	C	1.525755	-0.470597	0.094983
C93	C	1.073263	-0.937737	-0.357537
C94	C	1.573263	-0.437737	0.142463
C95	C	1.266865	-0.303419	-0.357459
C96	C	1.766865	0.196581	0.142541
C97	C	1.349411	-0.303438	-0.357445
C98	C	1.849411	0.196562	0.142555
C99	C	1.073192	-0.303308	-0.551196
C100	C	1.573192	0.196692	-0.051196
C101	C	1.073206	-0.303280	-0.633742
C102	C	1.573206	0.196720	-0.133742
C103	C	1.073277	-0.139185	-0.357548
C104	C	1.573277	0.360815	0.142452
C105	C	1.073328	-0.069217	-0.357573
C106	C	1.573328	0.430783	0.142427
C107	C	1.122892	-0.261223	-0.833200
C108	C	1.622892	0.238777	-0.333200
C109	C	1.055159	-0.245805	-0.882614
C110	C	1.555159	0.254195	-0.382614
C111	C	1.073236	-0.303269	-0.784873
C112	C	1.573236	0.196731	-0.284873
C113	C	1.140996	-0.318646	-0.882540
C114	C	1.640996	0.181354	-0.382540
C115	C	1.073271	-0.303257	-0.930858
C116	C	1.573271	0.196743	-0.430858
C117	C	1.005467	-0.287822	-0.833200
C118	C	1.505467	0.212178	-0.333200
C119	C	1.091349	-0.360689	-0.833121
C120	C	1.591349	0.139311	-0.333121
C121	C	1.023570	-0.345294	-0.882514
C122	C	1.523570	0.154706	-0.382514
C123	C	1.073217	-0.303274	-0.700774
C124	C	1.573217	0.196726	-0.200774
C125	C	1.073282	-0.303252	-1.014954
C126	C	1.573282	0.196748	-0.514954
C127	C	1.073169	-0.303397	-0.164539
C128	C	1.573169	0.196603	0.335461
C129	C	1.073299	-0.303248	-0.081993
C130	C	1.573299	0.196752	0.418007
H131	H	0.619980	-0.331658	-0.232436
H132	H	1.119980	0.168342	0.267564
H133	H	0.986925	-0.662261	-0.443599
H134	H	1.486925	-0.162261	0.056401
H135	H	0.986872	-0.542990	-0.443584
H136	H	1.486872	-0.042990	0.056416
H137	H	1.164816	-0.225644	-0.811544
H138	H	1.664816	0.274356	-0.311544
H139	H	0.527362	-0.225610	-0.266102
H140	H	1.027362	0.274390	0.233898
H141	H	0.981544	-0.380846	-0.904030
H142	H	1.481544	0.119154	-0.404030
O143	O	1.171870	-0.534324	-0.258801
O144	O	1.671870	-0.034324	0.241199
H145	H	1.204935	-0.568232	-0.225809
H146	H	1.704935	-0.068232	0.274191
H147	H	0.619871	-0.381033	-0.448944
H148	H	1.119871	0.118967	0.051056
O149	O	0.519937	-0.270986	-0.501196
O150	O	1.019937	0.229014	-0.001196
H151	H	0.539644	-0.306020	-0.542202
H152	H	1.039644	0.193980	-0.042202
O153	O	1.111656	-0.424995	-0.804285
O154	O	1.611656	0.075005	-0.304285
H155	H	1.167941	-0.437659	-0.824005
H156	H	1.667941	0.062341	-0.324005
O157	O	1.216879	-0.335891	-0.911249
O158	O	1.716879	0.164109	-0.411249
H159	H	1.257977	-0.300925	-0.891489
H160	H	1.757977	0.199075	-0.391489
O161	O	1.034870	-0.181481	-0.911416
O162	O	1.534870	0.318519	-0.411416
H163	H	1.080787	-0.163096	-0.946117
H164	H	1.580787	0.336904	-0.446117
O165	O	0.520099	-0.425109	-0.318759
O166	O	1.020099	0.074891	0.181241
H167	H	0.540747	-0.438102	-0.262896
H168	H	1.040747	0.061898	0.237104
O169	O	0.929562	-0.270501	-0.804613
O170	O	1.429562	0.229499	-0.304613
H171	H	0.914502	-0.222984	-0.824928
H172	H	1.414502	0.277016	-0.324928
H173	H	1.159551	-1.063118	-0.271460
H174	H	1.659551	-0.563118	0.228540
H175	H	0.619832	-0.197364	-0.391346
H176	H	1.119832	0.302636	0.108654
H177	H	1.159366	-0.662281	-0.271369
H178	H	1.659366	-0.162281	0.228631
H179	H	0.987102	-1.063099	-0.443687
H180	H	1.487102	-0.563099	0.056313
O181	O	1.172050	-0.935161	-0.258885
O182	O	1.672050	-0.435161	0.241115
H183	H	1.205120	-0.969067	-0.225896
H184	H	1.705120	-0.469067	0.274104
O185	O	0.974468	-0.935134	-0.456185
O186	O	1.474468	-0.435134	0.043815
H187	H	0.941426	-0.969031	-0.489187
H188	H	1.441426	-0.469031	0.010813
