data_functionalizedCrystal
_audit_creation_method	'MofGen! by Chris Wilmer'
_symmetry_space_group_name_H-M	'P1'
_symmetry_Int_Tables_number	1
_symmetry_cell_setting	triclinic
loop_
_symmetry_equiv_pos_as_xyz
  x,y,z
_cell_length_a	30.570278
_cell_length_b	30.570279
_cell_length_c	30.570330
_cell_angle_alpha	120.001559
_cell_angle_beta	90.000196
_cell_angle_gamma	59.999926
loop_
_atom_site_label
_atom_site_type_symbol
_atom_site_fract_x
_atom_site_fract_y
_atom_site_fract_z
O1	O	0.372817	0.313114	0.013010
O2	O	0.309211	0.223534	-0.012955
O3	O	0.309205	0.313110	0.076621
O4	O	0.372824	0.223537	-0.076566
O5	O	0.236449	0.385864	0.076620
O6	O	0.236455	0.296287	-0.012955
O7	O	0.300061	0.385867	0.013009
Zn8	Zn	0.256706	0.352628	0.000027
Zn9	Zn	0.352566	0.256773	0.000028
O10	O	0.300068	0.296290	-0.076566
C11	C	0.449590	0.560398	0.031531
C12	C	0.423145	0.534197	0.031898
C13	C	0.528805	0.481187	0.031531
C14	C	0.502240	0.455107	0.031899
C15	C	0.449595	0.481181	0.031527
C16	C	0.502235	0.534203	0.031902
C17	C	0.449791	0.639587	0.025106
C18	C	0.424855	0.689628	0.021050
C19	C	0.372691	0.714722	0.019013
C20	C	0.345652	0.768978	0.014612
C21	C	0.345455	0.689784	0.021037
C22	C	0.370390	0.639748	0.025095
C23	C	0.422558	0.614649	0.027128
C24	C	0.370208	0.474953	0.025095
C25	C	0.345104	0.445957	0.021036
C26	C	0.372174	0.391757	0.018999
C27	C	0.344959	0.360314	0.014595
C28	C	0.424347	0.366548	0.021027
C29	C	0.449448	0.395543	0.025089
C30	C	0.422378	0.449743	0.027121
C31	C	0.614415	0.474971	0.025107
C32	C	0.668515	0.445977	0.021044
C33	C	0.695649	0.391777	0.019007
C34	C	0.754306	0.360341	0.014607
C35	C	0.668693	0.366562	0.021029
C36	C	0.614596	0.395551	0.025089
C37	C	0.587459	0.449756	0.027128
C38	C	0.188632	0.161535	-0.027150
C39	C	0.215629	0.192238	-0.023438
C40	C	0.215076	0.108520	-0.027520
C41	C	0.109415	0.161543	-0.027147
C42	C	0.051713	0.192256	-0.023431
C43	C	0.135979	0.108529	-0.027517
C44	C	0.188624	0.082327	-0.027148
C45	C	0.215614	0.028341	-0.023432
C46	C	0.135986	0.187616	-0.027519
C47	C	0.237418	-0.015274	-0.020429
C48	C	0.237440	0.217044	-0.020437
C49	C	0.005095	0.217070	-0.020427
C50	C	0.264774	-0.069991	-0.016663
C51	C	0.264803	0.248164	-0.016673
C52	C	-0.053389	0.248199	-0.016660
C53	C	0.449616	0.128241	-0.400624
C54	C	0.502263	0.075226	-0.427072
C55	C	0.449617	0.128240	-0.321412
C56	C	0.502264	0.075225	-0.347980
C57	C	0.528832	0.049028	-0.400626
C58	C	0.423168	0.154317	-0.347979
C59	C	0.370222	0.214059	-0.400416
C60	C	0.345115	0.243223	-0.425350
C61	C	0.372183	0.218192	-0.477514
C62	C	0.344964	0.249811	-0.504550
C63	C	0.424358	0.163993	-0.504754
C64	C	0.449463	0.134829	-0.479822
C65	C	0.422395	0.159865	-0.427653
C66	C	0.614446	-0.030155	-0.480018
C67	C	0.668545	-0.080195	-0.505125
C68	C	0.695678	-0.105291	-0.478058
C69	C	0.754336	-0.159545	-0.505276
C70	C	0.668717	-0.080357	-0.425884
C71	C	0.614621	-0.030322	-0.400780
C72	C	0.587487	-0.005221	-0.427847
C73	C	0.370224	0.214058	-0.235797
C74	C	0.345120	0.243225	-0.181696
C75	C	0.372188	0.218194	-0.154565
C76	C	0.344969	0.249813	-0.095908
C77	C	0.424360	0.163999	-0.181525
C78	C	0.449467	0.134832	-0.235623
C79	C	0.422396	0.159864	-0.262757
O80	O	0.926834	0.296325	-0.012945
O81	O	0.773647	0.385899	0.013026
O82	O	0.863214	0.296320	-0.076552
O83	O	0.837266	0.385903	0.076633
O84	O	0.863215	0.223569	-0.076544
O85	O	0.773648	0.313148	0.013034
O86	O	0.926835	0.223573	-0.012936
Zn87	Zn	0.850242	0.256810	0.000050
Zn88	Zn	0.850240	0.352663	0.000039
O89	O	0.837268	0.313152	0.076642
O90	O	0.236425	0.913950	-0.012945
O91	O	0.300037	0.786735	0.013026
O92	O	0.300045	0.786719	-0.076552
O93	O	0.236416	0.913965	0.076633
O94	O	0.372797	0.786725	-0.076548
O95	O	0.372788	0.786741	0.013030
O96	O	0.309177	0.913956	-0.012941
Zn97	Zn	0.352534	0.850349	0.000045
Zn98	Zn	0.256680	0.850341	0.000040
O99	O	0.309168	0.913971	0.076637
O100	O	0.926869	-0.304529	-0.541038
O101	O	0.773682	-0.177305	-0.477421
O102	O	0.863249	-0.177299	-0.477419
O103	O	0.837301	-0.304536	-0.541040
O104	O	0.863248	-0.177298	-0.550173
O105	O	0.773680	-0.177304	-0.550175
O106	O	0.926867	-0.304528	-0.613792
Zn107	Zn	0.850273	-0.240916	-0.593535
Zn108	Zn	0.850276	-0.240918	-0.497678
O109	O	0.837299	-0.304534	-0.613794
O110	O	0.309205	0.313111	-0.613778
O111	O	0.372821	0.223540	-0.550166
O112	O	0.372816	0.313115	-0.550162
O113	O	0.309210	0.223535	-0.613782
O114	O	0.300059	0.385870	-0.477406
O115	O	0.300064	0.296294	-0.477410
O116	O	0.236448	0.385865	-0.541022
Zn117	Zn	0.256704	0.352631	-0.497665
Zn118	Zn	0.352564	0.256774	-0.593523
O119	O	0.236453	0.296290	-0.541027
C120	C	0.109420	0.527089	0.338414
C121	C	0.051717	0.581075	0.365408
C122	C	0.135988	0.500892	0.364862
C123	C	0.188635	0.447877	0.259201
C124	C	0.215629	0.417169	0.201499
C125	C	0.215083	0.421801	0.285768
C126	C	0.188635	0.447878	0.338413
C127	C	0.215629	0.417170	0.365406
C128	C	0.135988	0.500892	0.285769
C129	C	0.237437	0.392360	0.387213
C130	C	0.005099	0.624689	0.387216
C131	C	0.237438	0.392360	0.154881
C132	C	0.264797	0.361236	0.414572
C133	C	-0.053386	0.679406	0.414575
C134	C	0.264798	0.361235	0.096397
C135	C	0.823083	0.447937	0.338432
C136	C	0.826801	0.417233	0.365429
C137	C	0.822714	0.500953	0.364875
C138	C	0.823077	0.447931	0.259216
C139	C	0.826788	0.417219	0.201514
C140	C	0.822708	0.500946	0.285779
C141	C	0.823082	0.527147	0.338424
C142	C	0.826797	0.581134	0.365412
C143	C	0.822710	0.421856	0.285787
C144	C	0.829800	0.624749	0.387216
C145	C	0.829806	0.392426	0.387239
C146	C	0.829787	0.392406	0.154897
C147	C	0.833567	0.679467	0.414570
C148	C	0.833575	0.361304	0.414602
C149	C	0.833549	0.361277	0.096414
C150	C	0.188567	1.161609	0.338419
C151	C	0.215556	1.192323	0.365413
C152	C	0.135919	1.187689	0.364863
C153	C	0.188579	1.082380	0.259207
C154	C	0.215580	1.028382	0.201508
C155	C	0.135931	1.108581	0.285771
C156	C	0.109356	1.161606	0.338414
C157	C	0.051652	1.192316	0.365402
C158	C	0.215022	1.108584	0.285777
C159	C	0.005033	1.217128	0.387205
C160	C	0.237360	1.217138	0.387221
C161	C	0.237394	0.984758	0.154892
C162	C	-0.053453	1.248256	0.414559
C163	C	0.264715	1.248269	0.414581
C164	C	0.264761	0.930029	0.096411
C165	C	0.881701	0.049039	-0.400599
C166	C	0.882068	0.075233	-0.427050
C167	C	0.881705	0.128255	-0.321391
C168	C	0.882072	0.154329	-0.347962
C169	C	0.881699	0.128249	-0.400606
C170	C	0.882074	0.075239	-0.347955
C171	C	0.875275	-0.030144	-0.400386
C172	C	0.871217	-0.080184	-0.425316
C173	C	0.869178	-0.105284	-0.477480
C174	C	0.864775	-0.159539	-0.504512
C175	C	0.871201	-0.080352	-0.504722
C176	C	0.875261	-0.030316	-0.479793
C177	C	0.877296	-0.005212	-0.427625
C178	C	0.875264	0.134465	-0.480000
C179	C	0.871204	0.163454	-0.505109
C180	C	0.869169	0.217654	-0.478045
C181	C	0.864765	0.249090	-0.505266
C182	C	0.871199	0.242869	-0.425872
C183	C	0.875262	0.213880	-0.400766
C184	C	0.877292	0.159680	-0.427830
C185	C	0.875284	0.134483	-0.235774
C186	C	0.871223	0.163483	-0.181675
C187	C	0.869189	0.217683	-0.154546
C188	C	0.864791	0.249125	-0.095889
C189	C	0.871210	0.242892	-0.181508
C190	C	0.875268	0.213897	-0.235606
C191	C	0.877305	0.159693	-0.262737
O192	O	0.863279	0.296364	0.522621
O193	O	0.837298	0.385936	0.459006
O194	O	0.926879	0.296365	0.458995
O195	O	0.773698	0.385935	0.522632
O196	O	0.926873	0.223607	0.386245
O197	O	0.837292	0.313179	0.386256
O198	O	0.863273	0.223606	0.449871
Zn199	Zn	0.850282	0.256841	0.406513
Zn200	Zn	0.850289	0.352702	0.502364
O201	O	0.773692	0.313178	0.449882
C202	C	0.528846	0.481115	-0.400593
C203	C	0.502284	0.455028	-0.427041
C204	C	0.449624	0.560338	-0.321386
C205	C	0.423183	0.534131	-0.347954
C206	C	0.449638	0.481106	-0.400596
C207	C	0.502271	0.534140	-0.347950
C208	C	0.614454	0.474903	-0.400382
C209	C	0.668553	0.445912	-0.425313
C210	C	0.695693	0.391703	-0.477474
C211	C	0.754351	0.360265	-0.504507
C212	C	0.668738	0.366481	-0.504713
C213	C	0.614641	0.395472	-0.479785
C214	C	0.587502	0.449681	-0.427619
C215	C	0.449857	0.395269	-0.479984
C216	C	0.424928	0.366097	-0.505090
C217	C	0.372762	0.391130	-0.478025
C218	C	0.345731	0.359501	-0.505242
C219	C	0.345517	0.445339	-0.425855
C220	C	0.370443	0.474510	-0.400751
C221	C	0.422613	0.449473	-0.427816
C222	C	0.449816	0.639544	-0.235774
C223	C	0.424876	0.689591	-0.181675
C224	C	0.372710	0.714688	-0.154546
C225	C	0.345665	0.768954	-0.095891
C226	C	0.345480	0.689744	-0.181506
C227	C	0.370418	0.639697	-0.235601
C228	C	0.422586	0.614600	-0.262733
H229	H	0.379893	0.556116	0.032482
H230	H	0.876945	0.090346	-0.257863
H231	H	0.114661	0.230276	-0.028115
H232	H	0.446394	0.143614	-0.547233
Cl233	Cl	0.103036	0.074698	-0.028411
Cl234	Cl	0.103002	1.074727	0.252838
H235	H	0.869553	0.142916	-0.547588
Cl236	Cl	0.821788	0.534792	0.252843
H237	H	0.869583	0.142949	-0.159728
Cl238	Cl	0.821790	0.355993	0.252860
Cl239	Cl	0.103060	0.534748	0.431647
H240	H	0.258333	0.086590	-0.028121
Cl241	Cl	0.821796	0.534811	0.431658
Cl242	Cl	0.702399	0.477678	0.018500
Cl243	Cl	0.535195	0.041369	-0.315053
Cl244	Cl	0.535201	0.041385	-0.493850
Cl245	Cl	0.356387	0.220183	-0.315043
H246	H	0.492334	0.374884	-0.502028
H247	H	0.114650	0.522809	0.264436
Cl248	Cl	0.868638	-0.111912	-0.570304
Cl249	Cl	0.458393	0.132529	-0.147414
Cl250	Cl	0.279532	0.311353	-0.147808
Cl251	Cl	0.580708	0.363850	0.027629
H252	H	0.258279	1.086660	0.264451
H253	H	0.523603	0.556062	-0.326618
Cl254	Cl	0.883029	0.220168	-0.315049
H255	H	0.876901	-0.010012	-0.501972
H256	H	0.348178	0.234442	-0.257888
Cl257	Cl	0.580302	0.543114	0.027669
H258	H	0.114588	1.230354	0.408118
Cl259	Cl	0.882986	0.041378	-0.493833
H260	H	0.882630	0.053342	-0.326610
Cl261	Cl	0.336191	0.245532	-0.334834
Cl262	Cl	0.279529	0.311352	-0.391107
Cl263	Cl	0.877836	0.001411	-0.334804
Cl264	Cl	0.515041	0.066683	-0.514071
H265	H	0.592695	0.374938	-0.501966
H266	H	0.869544	0.287005	-0.403840
Cl267	Cl	0.877824	0.245569	-0.335185
H268	H	0.869570	-0.100479	-0.403133
H269	H	0.592356	-0.009723	-0.502062
H270	H	0.876919	0.090331	-0.502041
Cl271	Cl	0.877803	0.245593	-0.269500
H272	H	0.869550	0.287030	-0.159415
H273	H	0.690490	-0.100492	-0.547605
Cl274	Cl	0.356394	0.567991	-0.315033
Cl275	Cl	0.535221	0.389158	-0.493822
H276	H	0.447117	0.321962	-0.547567
Cl277	Cl	0.459092	0.720977	0.018509
Cl278	Cl	0.702832	-0.111914	-0.391858
Cl279	Cl	0.459110	0.720947	-0.147787
Cl280	Cl	0.702861	0.298327	-0.570292
Cl281	Cl	0.515398	0.607994	-0.269880
H282	H	0.592359	0.519045	-0.357907
Cl283	Cl	0.702434	0.477620	-0.391070
H284	H	0.303036	0.465720	-0.403822
Cl285	Cl	0.336194	0.542656	-0.335171
Cl286	Cl	0.336186	0.608338	-0.269493
H287	H	0.303002	0.710180	-0.159411
H288	H	0.491949	0.090705	-0.257572
Cl289	Cl	0.535174	0.389240	0.032813
H290	H	0.492268	0.619157	0.026764
Cl291	Cl	0.535163	0.568058	0.032826
Cl292	Cl	0.279873	0.721336	0.018476
Cl293	Cl	0.336148	0.608409	0.027656
H294	H	0.348161	0.519087	0.026753
Cl295	Cl	0.580726	0.001023	-0.335195
H296	H	0.446385	0.322411	0.019368
Cl297	Cl	0.515032	0.363856	0.027640
Cl298	Cl	0.702808	0.298416	0.018464
Cl299	Cl	0.279519	0.477652	0.018489
H300	H	0.258337	0.379136	0.264433
