data_functionalizedCrystal
_audit_creation_method	'MofGen! by Chris Wilmer'
_symmetry_space_group_name_H-M	'P1'
_symmetry_Int_Tables_number	1
_symmetry_cell_setting	triclinic
loop_
_symmetry_equiv_pos_as_xyz
  x,y,z
_cell_length_a	14.519709
_cell_length_b	10.489716
_cell_length_c	12.996460
_cell_angle_alpha	89.997908
_cell_angle_beta	90.000034
_cell_angle_gamma	84.104640
loop_
_atom_site_label
_atom_site_type_symbol
_atom_site_fract_x
_atom_site_fract_y
_atom_site_fract_z
O1	O	1.224769	0.167206	-0.085423
O2	O	1.724769	0.667206	0.414577
O3	O	0.956398	0.186896	-0.085454
O4	O	1.456398	0.686896	0.414546
O5	O	1.096702	-0.008613	-0.085441
O6	O	1.596702	0.491387	0.414559
O7	O	1.084465	0.362714	-0.085435
O8	O	1.584465	0.862714	0.414565
O9	O	1.096687	-0.008624	0.085692
O10	O	1.596687	0.491376	0.585692
O11	O	0.956384	0.186885	0.085680
O12	O	1.456384	0.686885	0.585680
O13	O	1.224754	0.167195	0.085710
O14	O	1.724754	0.667195	0.585710
Cu15	Cu	1.090568	0.177039	0.101321
Cu16	Cu	1.590568	0.677039	0.601321
Cu17	Cu	1.090585	0.177052	-0.101064
Cu18	Cu	1.590585	0.677052	0.398936
O19	O	1.084450	0.362704	0.085698
O20	O	1.584450	0.862704	0.585698
C21	C	0.922026	0.185973	0.000109
C22	C	1.422026	0.685973	0.500109
C23	C	0.819630	0.183223	0.000097
C24	C	1.319630	0.683223	0.500097
C25	C	1.095775	-0.056141	0.000122
C26	C	1.595775	0.443859	0.500122
C27	C	1.093025	-0.197743	0.000113
C28	C	1.593025	0.302257	0.500113
C29	C	0.444680	0.173100	0.000144
C30	C	0.944680	0.673100	0.500144
C31	C	0.549003	0.175911	0.000131
C32	C	1.049003	0.675911	0.500131
C33	C	0.632152	0.178161	0.000120
C34	C	1.132152	0.678161	0.500120
C35	C	0.736481	0.180973	0.000108
C36	C	1.236481	0.680973	0.500108
C37	C	1.179063	-0.296314	0.000132
C38	C	1.679063	0.203686	0.500132
C39	C	1.133606	-0.373195	-0.084249
C40	C	1.633606	0.126805	0.415751
C41	C	1.133571	-0.373170	0.084476
C42	C	1.633571	0.126830	0.584476
C43	C	1.047603	-0.272759	-0.084338
C44	C	1.547603	0.227241	0.415662
C45	C	1.047581	-0.272729	0.084463
C46	C	1.547581	0.227271	0.584463
C47	C	1.002060	-0.349560	0.000062
C48	C	1.502060	0.150440	0.500062
C49	C	1.259126	0.168118	0.000145
C50	C	1.759126	0.668118	0.500145
C51	C	1.361523	0.170868	0.000151
C52	C	1.861523	0.670868	0.500151
C53	C	1.085377	0.410232	0.000132
C54	C	1.585377	0.910232	0.500132
C55	C	1.088128	0.551834	0.000135
C56	C	1.588128	1.051834	0.500135
N57	N	1.090562	0.177029	0.243668
N58	N	1.590562	0.677029	0.743668
N59	N	1.090598	0.177051	-0.243411
N60	N	1.590598	0.677051	0.256589
C61	C	1.090584	0.177053	0.663483
C62	C	1.590584	0.677053	1.163483
C63	C	1.090575	0.177051	0.546677
C64	C	1.590575	0.677051	1.046677
C65	C	1.090573	0.177042	0.453579
C66	C	1.590573	0.677042	0.953579
C67	C	1.090564	0.177038	0.336767
C68	C	1.590564	0.677038	0.836767
H69	H	1.253902	-0.272417	0.000054
H70	H	1.753902	0.227583	0.500054
C71	C	1.182645	-0.432401	0.180850
C72	C	1.682645	0.067599	0.680850
H73	H	1.245481	-0.414553	0.180744
H74	H	1.745481	0.085447	0.680744
H75	H	1.180033	-0.522516	0.180499
H76	H	1.680033	-0.022516	0.680499
H77	H	1.152704	-0.396650	0.240765
H78	H	1.652704	0.103350	0.740765
C79	C	1.182670	-0.432464	-0.180611
C80	C	1.682670	0.067536	0.319389
H81	H	1.140008	-0.474658	-0.220341
H82	H	1.640008	0.025342	0.279659
H83	H	1.232795	-0.492565	-0.160327
H84	H	1.732795	0.007435	0.339673
H85	H	1.205467	-0.366716	-0.220623
H86	H	1.705467	0.133284	0.279377
C87	C	0.998555	-0.213422	0.180825
C88	C	1.498555	0.286578	0.680825
H89	H	1.029226	-0.247970	0.240728
H90	H	1.529226	0.252030	0.740728
H91	H	0.936018	-0.232570	0.181427
H92	H	1.436018	0.267430	0.681427
H93	H	1.000198	-0.123128	0.179783
H94	H	1.500198	0.376872	0.679783
H95	H	1.011309	-0.229073	-0.155753
H96	H	1.511309	0.270927	0.344247
H97	H	0.927165	-0.373210	0.000008
H98	H	1.427165	0.126790	0.500008
