data_functionalizedCrystal
_audit_creation_method	'MofGen! by Chris Wilmer'
_symmetry_space_group_name_H-M	'P1'
_symmetry_Int_Tables_number	1
_symmetry_cell_setting	triclinic
loop_
_symmetry_equiv_pos_as_xyz
  x,y,z
_cell_length_a	12.784905
_cell_length_b	11.026607
_cell_length_c	9.482900
_cell_angle_alpha	78.599815
_cell_angle_beta	81.701790
_cell_angle_gamma	89.153332
loop_
_atom_site_label
_atom_site_type_symbol
_atom_site_fract_x
_atom_site_fract_y
_atom_site_fract_z
O1	O	1.424417	0.012887	-0.120904
O2	O	1.124709	-0.038054	-0.120904
O3	O	1.249722	0.161448	-0.120899
O4	O	1.299403	-0.186615	-0.120909
O5	O	1.224358	0.120776	0.120893
O6	O	1.099344	-0.078726	0.120888
O7	O	1.399052	-0.027785	0.120888
Cu8	Cu	1.246882	-0.056969	0.142965
Cu9	Cu	1.276879	-0.008870	-0.142981
O10	O	1.274038	-0.227287	0.120882
C11	C	1.073061	-0.061703	-0.000008
C12	C	0.956953	-0.071561	-0.000008
C13	C	0.722143	0.129281	-0.000028
C14	C	0.613050	0.120024	-0.000028
C15	C	0.629670	-0.099327	-0.000018
C16	C	0.738764	-0.090071	-0.000018
C17	C	0.784996	0.024237	-0.000021
C18	C	0.894091	0.033490	-0.000010
C19	C	0.910711	-0.185858	-0.000012
C20	C	0.801617	-0.195115	-0.000012
C21	C	1.227875	0.185356	-0.000005
C22	C	1.200555	0.317188	-0.000010
C23	C	1.450700	-0.004135	-0.000011
C24	C	1.566809	0.005724	-0.000021
C25	C	1.295885	-0.251194	-0.000015
C26	C	1.323207	-0.383025	-0.000019
N27	N	1.225791	-0.090798	0.344084
C28	C	1.275993	0.398954	-0.000012
C29	C	1.247758	0.535210	-0.000017
N30	N	1.297976	0.024970	-0.344101
C31	C	1.270649	-0.018842	0.416285
C32	C	1.253111	-0.046997	0.583702
H33	H	0.561878	0.205562	-0.000036
C34	C	0.578802	-0.225050	-0.000016
H35	H	0.504828	-0.215514	-0.000011
H36	H	0.608941	-0.254424	-0.084328
H37	H	0.591242	-0.282775	0.084319
C38	C	1.085066	0.358879	-0.000011
H39	H	1.081239	0.444988	-0.000005
H40	H	1.060198	0.342867	-0.084326
H41	H	1.042511	0.314510	0.084321
C42	C	0.773006	0.255004	-0.000018
H43	H	0.846979	0.245470	-0.000006
H44	H	0.760559	0.312739	-0.084330
H45	H	0.742866	0.284358	0.084316
H46	H	1.162265	0.566076	-0.000027
H47	H	0.961898	-0.271394	0.000002
C48	C	0.750755	-0.320843	0.000000
H49	H	0.676779	-0.311315	0.000009
H50	H	0.780894	-0.350220	-0.084309
H51	H	0.763200	-0.378561	0.084337
H52	H	1.201714	-0.129447	0.645824
H53	H	1.174398	-0.173243	0.406212
H54	H	1.349363	0.107427	0.593777
C55	C	0.944952	0.159219	-0.000016
H56	H	1.018925	0.149689	-0.000002
H57	H	0.932504	0.216943	-0.084337
H58	H	0.914810	0.188583	0.084309
H59	H	1.361480	0.368082	-0.000003
C60	C	1.438701	0.575291	-0.000006
H61	H	1.442528	0.489179	0.000010
H62	H	1.481264	0.619660	-0.084319
H63	H	1.463555	0.591300	0.084328
H64	H	1.322034	0.063610	0.354160
