data_functionalizedCrystal
_audit_creation_method	'MofGen! by Chris Wilmer'
_symmetry_space_group_name_H-M	'P1'
_symmetry_Int_Tables_number	1
_symmetry_cell_setting	triclinic
loop_
_symmetry_equiv_pos_as_xyz
  x,y,z
_cell_length_a	17.699077
_cell_length_b	10.967829
_cell_length_c	16.176319
_cell_angle_alpha	102.131306
_cell_angle_beta	90.005422
_cell_angle_gamma	84.011537
loop_
_atom_site_label
_atom_site_type_symbol
_atom_site_fract_x
_atom_site_fract_y
_atom_site_fract_z
O1	O	1.005078	0.157757	0.091208
O2	O	1.505078	0.657757	0.591208
O3	O	0.784828	0.178295	0.094137
O4	O	1.284828	0.678295	0.594137
O5	O	0.900031	-0.013639	0.066789
O6	O	1.400031	0.486361	0.566789
O7	O	0.889875	0.349691	0.118556
O8	O	1.389875	0.849691	0.618556
O9	O	0.900017	-0.013639	-0.070704
O10	O	1.400017	0.486361	0.429296
O11	O	0.784815	0.178295	-0.043356
O12	O	1.284815	0.678295	0.456644
O13	O	1.005064	0.157757	-0.046285
O14	O	1.505064	0.657757	0.453715
Cu15	Cu	0.894938	0.168026	-0.057375
Cu16	Cu	1.394938	0.668026	0.442625
Cu17	Cu	0.894954	0.168026	0.105227
Cu18	Cu	1.394954	0.668026	0.605227
O19	O	0.889861	0.349691	-0.018937
O20	O	1.389861	0.849691	0.481063
C21	C	0.756620	0.177560	0.025287
C22	C	1.256620	0.677560	0.525287
C23	C	0.672588	0.175356	0.024974
C24	C	1.172588	0.675356	0.524974
C25	C	0.633106	0.174318	-0.050122
C26	C	1.133106	0.674318	0.449878
C27	C	0.554150	0.172227	-0.050421
C28	C	1.054150	0.672227	0.449579
C29	C	0.514677	0.171184	0.024379
C30	C	1.014677	0.671184	0.524379
C31	C	0.554164	0.172219	0.099480
C32	C	1.054164	0.672219	0.599480
C33	C	0.633119	0.174301	0.099777
C34	C	1.133119	0.674301	0.599777
C35	C	0.235748	0.163822	0.098286
C36	C	0.735748	0.663822	0.598286
C37	C	0.156787	0.161743	0.097984
C38	C	0.656787	0.661743	0.597984
C39	C	0.156779	0.161748	-0.051913
C40	C	0.656779	0.661748	0.448087
C41	C	0.235734	0.163830	-0.051616
C42	C	0.735734	0.663830	0.448384
C43	C	0.275215	0.164858	0.023484
C44	C	0.775215	0.664858	0.523484
C45	C	0.360828	0.167123	0.023807
C46	C	0.860828	0.667123	0.523807
C47	C	0.429065	0.168928	0.024058
C48	C	0.929065	0.668928	0.524058
C49	C	0.899284	-0.060126	-0.008579
C50	C	1.399284	0.439874	0.491421
C51	C	0.897070	-0.198644	-0.028309
C52	C	1.397070	0.301356	0.471691
C53	C	0.896090	-0.260393	0.034121
C54	C	1.396090	0.239607	0.534121
C55	C	0.893802	-0.403558	0.013730
C56	C	1.393802	0.096442	0.513730
C57	C	1.033272	0.158492	0.022567
C58	C	1.533272	0.658492	0.522567
C59	C	1.117305	0.160696	0.022885
C60	C	1.617305	0.660696	0.522885
C61	C	0.890608	0.396178	0.056433
C62	C	1.390608	0.896178	0.556433
C63	C	0.892822	0.534696	0.076169
C64	C	1.392822	1.034696	0.576169
N65	N	0.894932	0.168025	-0.171740
N66	N	1.394932	0.668025	0.328260
C67	C	0.941225	0.243612	-0.204232
C68	C	1.441225	0.743612	0.295768
C69	C	0.941233	0.243607	-0.290780
C70	C	1.441233	0.743607	0.209220
C71	C	0.894944	0.168021	-0.344833
C72	C	1.394944	0.668021	0.155167
C73	C	0.848649	0.092425	-0.312337
C74	C	1.348649	0.592425	0.187663
C75	C	0.848646	0.092424	-0.225791
C76	C	1.348646	0.592424	0.274209
C77	C	0.848663	0.092426	-0.661365
C78	C	1.348663	0.592426	-0.161365
C79	C	0.848669	0.092436	-0.747915
C80	C	1.348669	0.592436	-0.247915
C81	C	0.941251	0.243610	-0.726353
C82	C	1.441251	0.743610	-0.226353
C83	C	0.941247	0.243609	-0.639808
C84	C	1.441247	0.743609	-0.139808
C85	C	0.894956	0.168008	-0.607319
C86	C	1.394956	0.668008	-0.107319
C87	C	0.894949	0.168012	-0.513475
C88	C	1.394949	0.668012	-0.013475
C89	C	0.894946	0.168022	-0.438676
C90	C	1.394946	0.668022	0.061324
N91	N	0.894966	0.168018	0.219591
N92	N	1.394966	0.668018	0.719591
H93	H	0.665239	0.175177	-0.111032
H94	H	1.165239	0.675177	0.388968
H95	H	0.665264	0.175149	0.160929
H96	H	1.165264	0.675149	0.660929
H97	H	0.892942	-0.456676	-0.054819
H98	H	1.392942	0.043324	0.445181
O99	O	0.114315	0.160774	-0.132980
O100	O	0.614315	0.660774	0.367020
H101	H	0.123277	0.246255	-0.156612
H102	H	0.623277	0.746255	0.343388
H103	H	0.522010	0.171360	-0.111575
H104	H	1.022010	0.671360	0.388425
H105	H	0.896942	-0.207269	0.102665
H106	H	1.396942	0.292731	0.602665
H107	H	0.896210	-0.251766	-0.096854
H108	H	1.396210	0.248234	0.403146
H109	H	0.893668	-0.412185	0.144718
H110	H	1.393668	0.087815	0.644718
O111	O	0.991151	0.325138	-0.145932
O112	O	1.491151	0.825138	0.354068
H113	H	1.023347	0.377689	-0.183071
H114	H	1.523347	0.877689	0.316929
H115	H	0.978931	0.305156	-0.317230
H116	H	1.478931	0.805156	0.182770
O117	O	0.278309	0.164983	-0.132288
O118	O	0.778309	0.664983	0.367712
H119	H	0.237590	0.163908	-0.184559
H120	H	0.737590	0.663908	0.315441
H121	H	0.124650	0.160893	0.158898
H122	H	0.624650	0.660893	0.658898
O123	O	0.511596	0.171077	0.180159
O124	O	1.011596	0.671077	0.680159
H125	H	0.520453	0.256482	0.228275
H126	H	1.020453	0.756482	0.728275
O127	O	0.991172	0.325141	-0.581511
O128	O	1.491172	0.825141	-0.081511
H129	H	0.983387	0.312450	-0.515870
H130	H	1.483387	0.812450	-0.015870
H131	H	0.978945	0.305164	-0.752816
H132	H	1.478945	0.805164	-0.252816
H133	H	0.810973	0.030880	-0.791925
H134	H	1.310973	0.530880	-0.291925
O135	O	0.798729	0.010905	-0.626325
O136	O	1.298729	0.510905	-0.126325
H137	H	0.766535	-0.041638	-0.678452
H138	H	1.266535	0.458362	-0.178452
H139	H	0.810949	0.030873	-0.199339
H140	H	1.310949	0.530873	0.300661
O141	O	0.798722	0.010888	-0.370628
O142	O	1.298722	0.510888	0.129372
H143	H	0.758349	0.070792	-0.401521
H144	H	1.258349	0.570792	0.098479
O145	O	0.278326	0.164944	0.179284
O146	O	0.778326	0.664944	0.679284
H147	H	0.237609	0.163885	0.231246
H148	H	0.737609	0.663885	0.731246
