data_functionalizedCrystal
_audit_creation_method	'MofGen! by Chris Wilmer'
_symmetry_space_group_name_H-M	'P1'
_symmetry_Int_Tables_number	1
_symmetry_cell_setting	triclinic
loop_
_symmetry_equiv_pos_as_xyz
  x,y,z
_cell_length_a	14.628931
_cell_length_b	14.560438
_cell_length_c	14.560438
_cell_angle_alpha	59.999258
_cell_angle_beta	89.999457
_cell_angle_gamma	59.997216
loop_
_atom_site_label
_atom_site_type_symbol
_atom_site_fract_x
_atom_site_fract_y
_atom_site_fract_z
Zr1	Zr	0.880557	1.005327	-0.120547
O2	O	0.734584	1.196940	-0.267198
O3	O	0.925313	0.813716	-0.075587
O4	O	0.925301	1.005330	-0.267195
O5	O	0.734596	1.005324	0.075550
O6	O	1.075733	1.005330	-0.267196
O7	O	0.734596	1.005326	-0.075591
O8	O	1.075754	0.662568	0.075556
O9	O	0.734575	1.348086	-0.267201
O10	O	1.056657	0.892528	-0.056416
O11	O	0.944392	0.892526	0.056379
O12	O	0.944378	1.118126	-0.169215
O13	O	0.832112	1.118124	-0.056420
Zr14	Zr	1.120478	1.005323	0.120505
Zr15	Zr	1.120478	1.005327	-0.120547
Zr16	Zr	0.880557	1.005323	0.120506
Zr17	Zr	0.880542	1.246387	-0.120551
Zr18	Zr	1.120493	0.764263	0.120510
O19	O	1.075722	1.196934	0.075546
O20	O	1.075721	1.196940	-0.267199
O21	O	0.734584	1.196934	0.075547
O22	O	1.266451	0.813710	0.267157
O23	O	1.266451	0.813716	-0.075588
O24	O	0.925314	0.813710	0.267158
O25	O	1.266439	1.005326	-0.075592
O26	O	1.075734	1.005320	0.267154
O27	O	0.925302	1.005320	0.267154
O28	O	1.266439	1.005324	0.075549
O29	O	0.925280	1.348086	-0.267202
O30	O	1.075755	0.662565	0.267160
O31	O	1.266460	0.662565	0.267160
O32	O	1.266460	0.662568	0.075556
O33	O	0.734575	1.348082	-0.075597
O34	O	0.925281	1.348082	-0.075597
O35	O	1.056657	0.892524	0.169173
O36	O	1.168923	0.892526	0.056378
O37	O	1.056643	1.118124	-0.056420
O38	O	0.944378	1.118122	0.056375
C39	C	1.000536	0.703796	-0.000015
C40	C	1.000542	0.601460	-0.000013
C41	C	1.083386	0.373967	0.083244
C42	C	1.083413	0.470102	0.083249
C43	C	0.917645	0.636683	-0.083294
C44	C	0.917623	0.540549	-0.083303
C45	C	0.700412	1.005325	-0.000020
C46	C	0.598559	1.005325	-0.000020
C47	C	0.553150	1.005327	-0.079150
C48	C	0.447880	1.005327	-0.079152
C49	C	1.300623	1.005325	-0.000021
C50	C	1.402476	1.005325	-0.000021
C51	C	1.000517	1.005330	-0.301540
C52	C	1.000517	1.005332	-0.403873
C53	C	1.000499	1.306854	-0.000026
C54	C	1.000493	1.409190	-0.000028
C55	C	1.083391	1.005333	-0.451949
C56	C	1.083394	1.005322	-0.548095
C57	C	0.917640	1.005313	-0.548083
C58	C	0.917642	1.005315	-0.451934
C59	C	1.000518	1.005320	0.301499
C60	C	1.000518	1.005318	0.403832
C61	C	1.300641	0.703796	-0.000016
C62	C	1.402500	0.601460	-0.000014
C63	C	1.000536	0.703791	0.301505
C64	C	1.000543	0.601453	0.403839
C65	C	1.300641	0.703791	0.301504
C66	C	1.402501	0.601453	0.403839
C67	C	0.700394	1.306859	-0.301545
C68	C	0.598534	1.409197	-0.403880
C69	C	0.700394	1.306854	-0.000026
C70	C	0.598535	1.409190	-0.000027
C71	C	1.000499	1.306859	-0.301546
C72	C	1.000492	1.409197	-0.403881
C73	C	1.391755	0.553381	-0.058888
C74	C	1.487467	0.457233	-0.058891
C75	C	1.604665	0.457248	0.058865
C76	C	1.508954	0.553401	0.058860
C77	C	1.059146	0.553371	0.510794
C78	C	1.059139	0.457223	0.606945
C79	C	0.941924	0.457242	0.489172
C80	C	0.941925	0.553396	0.393024
C81	C	1.508956	0.553373	0.393041
C82	C	1.604660	0.457224	0.489199
C83	C	1.487440	0.457239	0.606949
C84	C	1.391738	0.553393	0.510792
H85	H	1.150914	0.441410	0.151057
C86	C	0.605903	1.005332	-0.170674
H87	H	0.669732	1.005341	-0.158671
H88	H	0.627757	0.930000	-0.167246
H89	H	0.552763	1.080681	-0.242578
H90	H	0.850173	0.743644	-0.151092
C91	C	1.274631	0.606282	0.522669
H92	H	1.281926	0.563877	0.600137
H93	H	1.234858	0.697064	0.487601
H94	H	1.234868	0.590513	0.487608
C95	C	1.520773	0.606289	0.123627
H96	H	1.597880	0.563883	0.158705
H97	H	1.485866	0.697070	0.072803
H98	H	1.485876	0.590518	0.179348
H99	H	1.150874	1.005344	-0.412819
H100	H	1.478690	0.418096	0.694041
C101	C	1.123612	0.606245	0.522685
H102	H	1.115230	0.670389	0.450105
H103	H	1.094670	0.643755	0.562635
H104	H	1.200718	0.537203	0.562639
H105	H	1.691349	0.418105	0.106799
H106	H	1.106858	0.418081	0.694029
C107	C	1.174552	1.005330	-0.600979
H108	H	1.223901	1.005350	-0.558587
H109	H	1.215497	0.929993	-0.600817
H110	H	1.140492	1.080675	-0.676161
C111	C	0.826436	0.579289	-0.174902
H112	H	0.838301	0.503220	-0.162985
H113	H	0.754894	0.629270	-0.171449
H114	H	0.829880	0.629258	-0.246785
H115	H	0.894201	0.418101	0.480380
C116	C	0.877452	0.606295	0.275367
H117	H	0.842552	0.563893	0.282695
H118	H	0.821998	0.697076	0.235417
H119	H	0.928040	0.590530	0.235410
H120	H	0.408826	1.005335	-0.146903
H121	H	0.441516	1.005331	0.067726
H122	H	0.559506	1.005317	0.067729
H123	H	1.691338	0.418082	0.480399
H124	H	0.850163	1.005302	-0.587226
C125	C	0.826474	1.005319	-0.399049
H126	H	0.777107	1.005328	-0.441451
H127	H	0.860526	0.929985	-0.323871
H128	H	0.785533	1.080666	-0.399218
C129	C	1.274662	0.606255	-0.123658
H130	H	1.281975	0.563855	-0.158730
H131	H	1.234889	0.590494	-0.072842
H132	H	1.234889	0.697041	-0.179383
H133	H	1.517725	0.592503	0.305958
C134	C	1.475649	0.404341	-0.123646
H135	H	1.547895	0.340201	-0.115223
H136	H	1.435894	0.366821	-0.094565
H137	H	1.435879	0.473376	-0.201114
C138	C	1.174545	0.229479	0.174836
H139	H	1.223921	0.222275	0.224424
H140	H	1.140496	0.188517	0.215963
H141	H	1.215475	0.188512	0.140620
