data_functionalizedCrystal
_audit_creation_method	'MofGen! by Chris Wilmer'
_symmetry_space_group_name_H-M	'P1'
_symmetry_Int_Tables_number	1
_symmetry_cell_setting	triclinic
loop_
_symmetry_equiv_pos_as_xyz
  x,y,z
_cell_length_a	17.077404
_cell_length_b	19.076808
_cell_length_c	17.077404
_cell_angle_alpha	92.314943
_cell_angle_beta	90.005736
_cell_angle_gamma	92.323651
loop_
_atom_site_label
_atom_site_type_symbol
_atom_site_fract_x
_atom_site_fract_y
_atom_site_fract_z
Zn1	Zn	1.187377	-0.280314	0.431267
Zn2	Zn	1.182038	-0.397992	0.294721
Zn3	Zn	1.056141	-0.280308	0.300015
Zn4	Zn	1.050800	-0.397981	0.425945
O5	O	1.119089	-0.339149	0.362987
O6	O	1.296515	-0.295931	0.413165
O7	O	1.165339	-0.382383	0.185576
O8	O	1.078019	-0.181813	0.321868
O9	O	1.292593	-0.382389	0.312846
O10	O	1.174438	-0.181818	0.418298
O11	O	1.072842	-0.295921	0.189466
O12	O	0.945586	-0.295910	0.316708
O13	O	1.068916	-0.382370	0.536498
O14	O	0.941662	-0.382364	0.409229
O15	O	1.169259	-0.295921	0.540408
O16	O	1.160160	-0.496486	0.307686
O17	O	1.063740	-0.496478	0.404096
C18	C	0.915142	-0.339136	0.362966
C19	C	0.827891	-0.339148	0.362975
C20	C	0.784876	-0.384232	0.411067
C21	C	0.702895	-0.384234	0.411079
C22	C	0.663932	-0.339154	0.362995
C23	C	0.706953	-0.294064	0.314901
C24	C	0.788933	-0.294060	0.314893
C25	C	0.536083	-0.294078	0.314919
C26	C	0.454098	-0.294083	0.314926
C27	C	0.450045	-0.384252	0.411105
C28	C	0.532024	-0.384248	0.411097
C29	C	0.575040	-0.339159	0.363002
C30	C	1.110812	-0.522021	0.354756
C31	C	1.107343	-0.600255	0.351261
C32	C	1.155876	-0.636951	0.399866
C33	C	1.152613	-0.710459	0.396583
C34	C	1.100821	-0.747271	0.344692
C35	C	1.052283	-0.710569	0.296085
C36	C	1.055542	-0.637062	0.299372
C37	C	1.085691	-0.967120	0.329476
C38	C	1.082437	-1.040633	0.326191
C39	C	1.182766	-1.040518	0.426691
C40	C	1.186024	-0.967009	0.429970
C41	C	1.137483	-0.930314	0.381366
N42	N	1.097487	-0.822408	0.341333
N43	N	1.140814	-0.855178	0.384729
C44	C	1.323833	-0.339162	0.363009
C45	C	1.411082	-0.339168	0.363018
C46	C	1.119087	-0.339145	0.567731
C47	C	1.119087	-0.339143	0.654981
C48	C	1.127420	-0.155562	0.371267
C49	C	1.130969	-0.077329	0.374796
C50	C	1.167246	-0.384180	1.028772
C51	C	1.167242	-0.384179	0.946792
C52	C	1.119087	-0.339159	0.907829
C53	C	1.070925	-0.294142	0.950852
C54	C	1.070925	-0.294147	1.032830
C55	C	1.070930	-0.294134	0.779982
C56	C	1.070931	-0.294128	0.697998
C57	C	1.167247	-0.384166	0.693943
C58	C	1.167247	-0.384171	0.775922
C59	C	1.119087	-0.339153	0.818939
C60	C	1.119085	-0.339167	1.159038
C61	C	1.119090	-0.339165	1.071789
H62	H	0.563746	-0.420960	0.450247
H63	H	1.206464	-0.420827	0.807643
H64	H	0.675223	-0.257356	0.275754
F65	F	0.826336	-0.432217	0.462241
H66	H	1.228197	-0.937039	0.472224
H67	H	1.016021	-0.607185	0.259794
H68	H	1.031713	-0.257476	0.815004
H69	H	1.198054	-0.606984	0.442118
F70	F	1.218498	-0.432089	0.901014
H71	H	0.667875	-0.420947	0.450240
F72	F	1.019682	-0.246222	0.909383
H73	H	1.222285	-1.070403	0.466262
H74	H	1.031721	-0.257467	0.666277
F75	F	1.218501	-0.432080	0.648161
F76	F	1.218506	-0.432093	1.070232
F77	F	0.412632	-0.246107	0.263746
F78	F	1.019675	-0.246233	1.078612
H79	H	0.415018	-0.420963	0.450268
F80	F	0.834713	-0.246073	0.263709
F81	F	0.581862	-0.246088	0.263732
H82	H	1.192140	-0.740334	0.436156
F83	F	1.027312	-1.079809	0.270956
H84	H	1.046168	-0.937249	0.289900
H85	H	1.010110	-0.740547	0.253837
