data_functionalizedCrystal
_audit_creation_method	'MofGen! by Chris Wilmer'
_symmetry_space_group_name_H-M	'P1'
_symmetry_Int_Tables_number	1
_symmetry_cell_setting	triclinic
loop_
_symmetry_equiv_pos_as_xyz
  x,y,z
_cell_length_a	19.077105
_cell_length_b	12.759394
_cell_length_c	19.076919
_cell_angle_alpha	92.274121
_cell_angle_beta	90.076224
_cell_angle_gamma	87.711291
loop_
_atom_site_label
_atom_site_type_symbol
_atom_site_fract_x
_atom_site_fract_y
_atom_site_fract_z
Zn1	Zn	1.058327	-0.508276	-0.440432
Zn2	Zn	1.558327	-0.008276	0.059568
Zn3	Zn	1.062986	-0.677203	-0.322930
Zn4	Zn	1.562986	-0.177203	0.177070
Zn5	Zn	0.945543	-0.494202	-0.318225
Zn6	Zn	1.445543	0.005798	0.181775
Zn7	Zn	0.940807	-0.676569	-0.435682
Zn8	Zn	1.440807	-0.176569	0.064318
O9	O	1.001916	-0.589062	-0.379317
O10	O	1.501916	-0.089062	0.120683
O11	O	1.157277	-0.536840	-0.428802
O12	O	1.657277	-0.036840	0.071198
O13	O	1.051338	-0.647302	-0.223974
O14	O	1.551338	-0.147302	0.276026
O15	O	0.960536	-0.349050	-0.334454
O16	O	1.460536	0.150950	0.165546
O17	O	1.160700	-0.660950	-0.342473
O18	O	1.660700	-0.160950	0.157527
O19	O	1.043398	-0.359391	-0.424239
O20	O	1.543398	0.140609	0.075761
O21	O	0.965054	-0.512852	-0.220517
O22	O	1.465054	-0.012852	0.279483
O23	O	0.846582	-0.512238	-0.329849
O24	O	1.346582	-0.012238	0.170151
O25	O	0.952465	-0.659870	-0.534644
O26	O	1.452465	-0.159870	-0.034644
O27	O	0.843103	-0.646222	-0.416144
O28	O	1.343103	-0.146222	0.083856
O29	O	1.038806	-0.536225	-0.538133
O30	O	1.538806	-0.036225	-0.038133
O31	O	1.046746	-0.824137	-0.337868
O32	O	1.546746	-0.324137	0.162132
O33	O	0.956982	-0.823671	-0.420707
O34	O	1.456982	-0.323671	0.079293
C35	C	0.819346	-0.577635	-0.371971
C36	C	1.319346	-0.077635	0.128029
C37	C	0.741242	-0.572772	-0.368845
C38	C	1.241242	-0.072772	0.131155
C39	C	0.702757	-0.640344	-0.412235
C40	C	1.202757	-0.140344	0.087765
C41	C	0.629370	-0.635761	-0.409302
C42	C	1.129370	-0.135761	0.090698
C43	C	0.594467	-0.563612	-0.362974
C44	C	1.094467	-0.063612	0.137026
C45	C	0.632957	-0.496033	-0.319582
C46	C	1.132957	0.003967	0.180418
C47	C	0.706343	-0.500611	-0.322520
C48	C	1.206343	-0.000611	0.177480
C49	C	0.375178	-0.542424	-0.349381
C50	C	0.875178	-0.042424	0.150619
C51	C	0.301786	-0.537853	-0.346444
C52	C	0.801786	-0.037853	0.153556
C53	C	0.298204	-0.677581	-0.436166
C54	C	0.798204	-0.177581	0.063834
C55	C	0.371592	-0.682157	-0.439096
C56	C	0.871592	-0.182157	0.060904
C57	C	0.410075	-0.614574	-0.395707
C58	C	0.910075	-0.114574	0.104293
N59	N	0.519453	-0.558928	-0.359972
N60	N	1.019453	-0.058928	0.140028
N61	N	0.485088	-0.619253	-0.398713
N62	N	0.985088	-0.119253	0.101287
C63	C	1.001874	-0.862026	-0.379298
C64	C	1.501874	-0.362026	0.120702
C65	C	1.001920	-0.978807	-0.379316
C66	C	1.501920	-0.478807	0.120684
C67	C	1.095456	-0.979246	-0.293126
C68	C	1.595456	-0.479246	0.206874
C69	C	1.142242	-1.034328	-0.250040
C70	C	1.642242	-0.534328	0.249960
C71	C	1.142282	-1.144054	-0.250061
C72	C	1.642282	-0.644054	0.249939
C73	C	1.095533	-1.198699	-0.293174
C74	C	1.595533	-0.698699	0.206826
C75	C	1.048747	-1.143617	-0.336260
C76	C	1.548747	-0.643617	0.163740
C77	C	1.048710	-1.033889	-0.336233
C78	C	1.548710	-0.533889	0.163767
C79	C	0.955216	-1.143178	-0.422453
C80	C	1.455216	-0.643178	0.077547
C81	C	0.955171	-1.033453	-0.422429
C82	C	1.455171	-0.533453	0.077571
C83	C	0.908467	-1.197824	-0.465566
C84	C	1.408467	-0.697824	0.034434
C85	C	0.861676	-1.142741	-0.508649
C86	C	1.361676	-0.642741	-0.008649
C87	C	0.861637	-1.033009	-0.508626
C88	C	1.361637	-0.533009	-0.008626
C89	C	0.908385	-0.978370	-0.465515
C90	C	1.408385	-0.478370	0.034485
C91	C	1.185198	-0.600535	-0.386692
C92	C	1.685198	-0.100535	0.113308
C93	C	1.263302	-0.605424	-0.389835
C94	C	1.763302	-0.105424	0.110165
C95	C	0.994587	-0.599547	-0.562597
C96	C	1.494587	-0.099547	-0.062597
C97	C	0.991465	-0.604015	-0.640701
C98	C	1.491465	-0.104015	-0.140701
C99	C	1.001976	-0.315035	-0.379352
C100	C	1.501976	0.184965	0.120648
C101	C	1.002002	-0.198260	-0.379367
C102	C	1.502002	0.301740	0.120633
C103	C	1.034948	-0.541742	-0.679212
C104	C	1.534948	-0.041742	-0.179212
C105	C	1.032006	-0.545935	-0.752598
C106	C	1.532006	-0.045935	-0.252598
C107	C	0.985582	-0.612408	-0.787471
C108	C	1.485582	-0.112408	-0.287471
C109	C	0.942093	-0.674683	-0.748955
C110	C	1.442093	-0.174683	-0.248955
C111	C	0.945033	-0.670484	-0.675570
C112	C	1.445033	-0.170484	-0.175570
C113	C	0.971966	-0.631866	-1.006753
C114	C	1.471966	-0.131866	-0.506753
C115	C	0.969031	-0.636063	-1.080143
C116	C	1.469031	-0.136063	-0.580143
C117	C	1.058943	-0.507313	-1.083780
C118	C	1.558943	-0.007313	-0.583780
C119	C	1.061881	-0.503124	-1.010394
C120	C	1.561881	-0.003124	-0.510394
C121	C	1.018390	-0.565395	-0.971884
C122	C	1.518390	-0.065395	-0.471884
N123	N	0.982574	-0.616698	-0.862484
N124	N	1.482574	-0.116698	-0.362484
N125	N	1.021395	-0.561098	-0.896873
N126	N	1.521395	-0.061098	-0.396873
C127	C	1.009256	-0.578545	-0.196751
C128	C	1.509256	-0.078545	0.303249
C129	C	1.012515	-0.573790	-0.118654
C130	C	1.512515	-0.073790	0.381346
H131	H	1.095419	-0.889901	-0.293096
H132	H	1.595419	-0.389901	0.206904
H133	H	1.072754	-0.487616	-0.650823
H134	H	1.572754	0.012384	-0.150823
O135	O	0.898124	-0.737634	-0.634028
O136	O	1.398124	-0.237634	-0.134028
H137	H	0.865349	-0.784564	-0.670605
H138	H	1.365349	-0.284564	-0.170605
H139	H	0.598039	-0.690786	-0.444634
H140	H	1.098039	-0.190786	0.055366
H141	H	0.731170	-0.699099	-0.449959
H142	H	1.231170	-0.199099	0.050041
O143	O	0.256674	-0.750485	-0.482927
O144	O	0.756674	-0.250485	0.017073
H145	H	0.271232	-0.833085	-0.471311
H146	H	0.771232	-0.333085	0.028689
H147	H	0.273371	-0.479088	-0.308723
H148	H	0.773371	0.020912	0.191277
O149	O	0.811176	-0.973598	-0.555099
O150	O	1.311176	-0.473598	-0.055099
H151	H	0.776691	-0.919636	-0.522175
H152	H	1.276691	-0.419636	-0.022175
H153	H	0.908506	-1.287168	-0.465583
H154	H	1.408506	-0.787168	0.034417
H155	H	0.400005	-0.740911	-0.476820
H156	H	0.900005	-0.240911	0.023180
H157	H	0.908353	-0.889026	-0.465488
H158	H	1.408353	-0.389026	0.034512
H159	H	1.067416	-0.495228	-0.783950
H160	H	1.567416	0.004772	-0.283950
H161	H	0.406502	-0.487401	-0.314044
H162	H	0.906502	0.012599	0.185956
H163	H	0.737676	-0.445582	-0.287190
H164	H	1.237676	0.054418	0.212810
O165	O	1.111955	-0.431433	-0.972780
O166	O	1.611955	0.068567	-0.472780
H167	H	1.141697	-0.388831	-1.011888
H168	H	1.641697	0.111169	-0.511888
H169	H	1.180306	-0.989826	-0.214939
H170	H	1.680306	-0.489826	0.285061
H171	H	1.094350	-0.456614	-1.115143
H172	H	1.594350	0.043386	-0.615143
O173	O	1.192740	-1.203474	-0.203590
O174	O	1.692740	-0.703474	0.296410
H175	H	1.225238	-1.147047	-0.173604
H176	H	1.725238	-0.647047	0.326396
O177	O	0.918953	-0.707754	-1.117761
O178	O	1.418953	-0.207754	-0.617761
H179	H	0.889199	-0.750342	-1.078655
H180	H	1.389199	-0.250342	-0.578655
O181	O	0.595318	-0.418237	-0.269594
O182	O	1.095318	0.081763	0.230406
H183	H	0.537823	-0.426421	-0.274828
H184	H	1.037823	0.073579	0.225172
O185	O	1.095582	-1.317046	-0.293196
O186	O	1.595582	-0.817046	0.206804
H187	H	1.107641	-1.349841	-0.346781
H188	H	1.607641	-0.849841	0.153219
H189	H	0.823620	-1.187243	-0.543752
H190	H	1.323620	-0.687243	-0.043752
O191	O	0.925025	-0.698970	-0.965219
O192	O	1.425025	-0.198970	-0.465219
H193	H	0.892243	-0.745883	-1.001800
H194	H	1.392243	-0.245883	-0.501800
H195	H	0.904292	-0.728803	-0.777355
H196	H	1.404292	-0.228803	-0.277355
