data_functionalizedCrystal
_audit_creation_method	'MofGen! by Chris Wilmer'
_symmetry_space_group_name_H-M	'P1'
_symmetry_Int_Tables_number	1
_symmetry_cell_setting	triclinic
loop_
_symmetry_equiv_pos_as_xyz
  x,y,z
_cell_length_a	17.000383
_cell_length_b	17.038272
_cell_length_c	12.503583
_cell_angle_alpha	86.217978
_cell_angle_beta	86.762133
_cell_angle_gamma	96.644071
loop_
_atom_site_label
_atom_site_type_symbol
_atom_site_fract_x
_atom_site_fract_y
_atom_site_fract_z
O1	O	1.053719	-0.032868	0.089395
O2	O	1.387052	0.300465	0.422728
O3	O	1.720385	0.633799	0.756062
O4	O	0.823900	-0.061110	0.089382
O5	O	1.157233	0.272223	0.422715
O6	O	1.490566	0.605557	0.756048
O7	O	0.937444	0.066733	0.089380
O8	O	1.270777	0.400067	0.422713
O9	O	1.604110	0.733400	0.756046
O10	O	0.940175	-0.160711	0.089397
O11	O	1.273508	0.172622	0.422730
O12	O	1.606841	0.505955	0.756064
O13	O	0.945988	0.076360	-0.089262
O14	O	1.279321	0.409693	0.244071
O15	O	1.612654	0.743026	0.577404
O16	O	0.832443	-0.051484	-0.089261
O17	O	1.165777	0.281850	0.244073
O18	O	1.499110	0.615183	0.577406
O19	O	1.062263	-0.023242	-0.089247
O20	O	1.395596	0.310092	0.244086
O21	O	1.728929	0.643425	0.577420
Cu22	Cu	0.948133	-0.036484	-0.105565
Cu23	Cu	1.281466	0.296850	0.227768
Cu24	Cu	1.614800	0.630183	0.561101
Cu25	Cu	0.938029	-0.047868	0.105700
Cu26	Cu	1.271362	0.285465	0.439033
Cu27	Cu	1.604696	0.618799	0.772366
O28	O	0.948719	-0.151085	-0.089245
O29	O	1.282052	0.182248	0.244088
O30	O	1.615385	0.515582	0.577421
C31	C	0.798621	-0.057814	0.000059
C32	C	1.131954	0.275520	0.333392
C33	C	1.465287	0.608853	0.666725
C34	C	0.710568	-0.062324	0.000053
C35	C	1.043901	0.271010	0.333387
C36	C	1.377235	0.604343	0.666720
C37	C	0.212321	-0.091450	0.000096
C38	C	0.545654	0.241883	0.333429
C39	C	0.878988	0.575217	0.666762
C40	C	0.295057	-0.087206	0.000094
C41	C	0.628390	0.246127	0.333428
C42	C	0.961723	0.579461	0.666761
C43	C	0.341064	-0.013539	0.000081
C44	C	0.674397	0.319794	0.333414
C45	C	1.007731	0.653128	0.666747
C46	C	0.304331	0.055888	0.000079
C47	C	0.637664	0.389221	0.333412
C48	C	0.970998	0.722554	0.666746
C49	C	0.221597	0.051642	0.000088
C50	C	0.554930	0.384976	0.333421
C51	C	0.888263	0.718309	0.666755
C52	C	0.591101	0.002858	0.000061
C53	C	0.924434	0.336191	0.333394
C54	C	1.257767	0.669524	0.666727
C55	C	0.673841	0.007098	0.000048
C56	C	1.007174	0.340431	0.333382
C57	C	1.340507	0.673765	0.666715
C58	C	0.664560	-0.135996	0.000066
C59	C	0.997894	0.197337	0.333399
C60	C	1.331227	0.530670	0.666732
C61	C	0.581825	-0.140235	0.000068
C62	C	0.915158	0.193099	0.333401
C63	C	1.248492	0.526432	0.666735
C64	C	0.545099	-0.070808	0.000072
C65	C	0.878432	0.262525	0.333406
C66	C	1.211766	0.595858	0.666739
C67	C	0.425633	-0.009199	0.000076
C68	C	0.758967	0.324134	0.333409
C69	C	1.092300	0.657468	0.666743
C70	C	0.460531	-0.075150	0.000084
C71	C	0.793864	0.258184	0.333418
C72	C	1.127198	0.591517	0.666751
C73	C	0.939231	0.100505	0.000059
C74	C	1.272564	0.433838	0.333392
C75	C	1.605898	0.767171	0.666725
C76	C	0.931818	0.186790	0.000059
C77	C	1.265152	0.520123	0.333392
C78	C	1.598485	0.853457	0.666725
C79	C	1.087541	-0.026538	0.000078
C80	C	1.420875	0.306795	0.333412
C81	C	1.754208	0.640128	0.666745
C82	C	1.175594	-0.022029	0.000091
C83	C	1.508927	0.311305	0.333424
C84	C	1.842260	0.644638	0.666757
C85	C	0.946931	-0.184856	0.000078
C86	C	1.280264	0.148477	0.333412
C87	C	1.613598	0.481810	0.666745
C88	C	0.954344	-0.271142	0.000085
C89	C	1.287677	0.062191	0.333419
C90	C	1.621010	0.395525	0.666752
C91	C	0.999876	0.241565	0.000061
C92	C	1.333210	0.574898	0.333395
C93	C	1.666543	0.908231	0.666728
C94	C	0.992906	0.322637	0.000071
C95	C	1.326239	0.655971	0.333405
C96	C	1.659573	0.989304	0.666738
C97	C	0.917877	0.348934	0.000070
C98	C	1.251211	0.682267	0.333404
C99	C	1.584544	1.015601	0.666737
C100	C	0.849814	0.294152	0.000071
C101	C	1.183147	0.627486	0.333404
C102	C	1.516480	0.960819	0.666737
C103	C	0.856784	0.213081	0.000069
C104	C	1.190118	0.546414	0.333402
C105	C	1.523451	0.879748	0.666735
C106	C	0.893251	0.593005	0.000084
C107	C	1.226584	0.926338	0.333417
C108	C	1.559917	1.259672	0.666750
C109	C	0.886285	0.674083	0.000083
C110	C	1.219619	1.007417	0.333416
C111	C	1.552952	1.340750	0.666749
C112	C	1.029378	0.702563	0.000085
C113	C	1.362712	1.035896	0.333418
C114	C	1.696045	1.369229	0.666752
C115	C	1.036343	0.621489	0.000076
C116	C	1.369676	0.954822	0.333410
C117	C	1.703009	1.288155	0.666743
C118	C	0.968279	0.566714	0.000082
C119	C	1.301612	0.900047	0.333416
C120	C	1.634946	1.233380	0.666749
C121	C	0.910751	0.431803	0.000077
C122	C	1.244084	0.765137	0.333410
C123	C	1.577418	1.098470	0.666744
C124	C	0.975406	0.483846	0.000084
C125	C	1.308739	0.817179	0.333417
C126	C	1.642072	1.150512	0.666750
N127	N	0.930923	-0.055869	0.254292
N128	N	1.264256	0.277464	0.587625
N129	N	1.597589	0.610797	0.920959
C130	C	0.920462	-0.067640	0.473408
C131	C	1.253795	0.265693	0.806741
C132	C	1.587129	0.599026	1.140074
C133	C	0.965696	-0.016711	0.526734
C134	C	1.299029	0.316623	0.860067
C135	C	1.632362	0.649956	1.193401
C136	C	0.959875	-0.023260	0.648657
C137	C	1.293209	0.310073	0.981991
C138	C	1.626542	0.643406	1.315324
C139	C	0.926281	-0.061092	0.351473
C140	C	1.259615	0.272241	0.684807
C141	C	1.592948	0.605575	1.018140
N142	N	0.955238	-0.028479	0.745842
N143	N	1.288571	0.304854	1.079176
N144	N	1.621904	0.638188	1.412509
H145	H	0.174868	-0.151437	0.000099
H146	H	0.508201	0.181896	0.333432
H147	H	0.841534	0.515229	0.666765
H148	H	0.788723	0.315569	0.000077
H149	H	1.122057	0.648902	0.333410
H150	H	1.455390	0.982236	0.666744
Br151	Br	0.488079	0.090775	0.000049
Br152	Br	0.821412	0.424109	0.333382
Br153	Br	1.154745	0.757442	0.666715
Br154	Br	0.764416	0.138741	0.000073
Br155	Br	1.097749	0.472075	0.333407
Br156	Br	1.431082	0.805408	0.666740
H157	H	1.036493	0.462430	0.000108
H158	H	1.369826	0.795763	0.333441
H159	H	1.703159	1.129097	0.666775
H160	H	0.837828	0.548416	0.000088
H161	H	1.171161	0.881749	0.333422
H162	H	1.504495	1.215083	0.666755
Br163	Br	1.037527	0.064163	0.450212
Br164	Br	1.370860	0.397496	0.783545
Br165	Br	1.704193	0.730829	1.116878
H166	H	0.711298	0.067089	0.000043
H167	H	1.044631	0.400423	0.333376
H168	H	1.377965	0.733756	0.666709
H169	H	1.084792	0.747168	0.000082
H170	H	1.418125	1.080501	0.333415
H171	H	1.751458	1.413835	0.666749
Br172	Br	0.848632	-0.148508	0.549926
Br173	Br	1.181965	0.184825	0.883259
Br174	Br	1.515299	0.518159	1.216593
H175	H	0.849662	0.453223	0.000074
H176	H	1.182995	0.786557	0.333407
H177	H	1.516329	1.119890	0.666741
H178	H	1.048327	0.367233	0.000071
H179	H	1.381660	0.700566	0.333405
H180	H	1.714993	1.033900	0.666738
Br181	Br	0.344897	-0.181426	0.000111
Br182	Br	0.678231	0.151907	0.333445
Br183	Br	1.011564	0.485241	0.666778
H184	H	0.341797	0.115868	0.000074
H185	H	0.675130	0.449202	0.333408
H186	H	1.008463	0.782535	0.666741
Br187	Br	0.519392	-0.240215	0.000092
Br188	Br	0.852725	0.093118	0.333425
Br189	Br	1.186058	0.426452	0.666759
H190	H	0.694472	-0.192519	0.000064
H191	H	1.027805	0.140814	0.333397
H192	H	1.361138	0.474147	0.666731
H193	H	0.561209	0.059390	0.000061
H194	H	0.894542	0.392723	0.333394
H195	H	1.227875	0.726056	0.666727
Br196	Br	1.101707	0.205886	0.000047
Br197	Br	1.435040	0.539219	0.333380
Br198	Br	1.768374	0.872553	0.666714
H199	H	1.097439	0.600085	0.000077
H200	H	1.430772	0.933418	0.333410
H201	H	1.764106	1.266752	0.666744
H202	H	0.191695	0.108173	0.000086
H203	H	0.525028	0.441506	0.333419
H204	H	0.858361	0.774839	0.666753
H205	H	0.825186	0.695490	0.000065
H206	H	1.158519	1.028824	0.333398
H207	H	1.491852	1.362157	0.666731
H208	H	0.423068	-0.135129	0.000101
H209	H	0.756401	0.198204	0.333434
H210	H	1.089735	0.531538	0.666767
