data_functionalizedCrystal
_audit_creation_method	'MofGen! by Chris Wilmer'
_symmetry_space_group_name_H-M	'P1'
_symmetry_Int_Tables_number	1
_symmetry_cell_setting	triclinic
loop_
_symmetry_equiv_pos_as_xyz
  x,y,z
_cell_length_a	12.594517
_cell_length_b	12.594516
_cell_length_c	12.594509
_cell_angle_alpha	89.973801
_cell_angle_beta	89.978673
_cell_angle_gamma	90.015853
loop_
_atom_site_label
_atom_site_type_symbol
_atom_site_fract_x
_atom_site_fract_y
_atom_site_fract_z
Zn1	Zn	1.627267	-0.423716	-0.601875
Zn2	Zn	1.627158	-0.601726	-0.423903
Zn3	Zn	1.449271	-0.423761	-0.423904
Zn4	Zn	1.449253	-0.601652	-0.601833
O5	O	1.538237	-0.512714	-0.512879
O6	O	1.776198	-0.447341	-0.578284
O7	O	1.603522	-0.578169	-0.274957
O8	O	1.472936	-0.274809	-0.447530
O9	O	1.776118	-0.578124	-0.447528
O10	O	1.603709	-0.274776	-0.578285
O11	O	1.472830	-0.447419	-0.274958
O12	O	1.300323	-0.447347	-0.447489
O13	O	1.472905	-0.577998	-0.750784
O14	O	1.300310	-0.578042	-0.578213
O15	O	1.603691	-0.447269	-0.750815
O16	O	1.603505	-0.750662	-0.447488
O17	O	1.472799	-0.750608	-0.578212
C18	C	1.538167	-0.789255	-0.512868
C19	C	1.538235	-0.907560	-0.512899
C20	C	1.261696	-0.512692	-0.512847
C21	C	1.143391	-0.512709	-0.512859
C22	C	1.467137	-0.976822	-0.583950
C23	C	1.441204	-1.047688	-0.486827
C24	C	1.564265	-1.047494	-0.610039
C25	C	1.512250	-0.976867	-0.415725
C26	C	1.635357	-0.976667	-0.539002
C27	C	1.609460	-1.047500	-0.441812
C28	C	1.074114	-0.441526	-0.441894
C29	C	1.003303	-0.538615	-0.415718
C30	C	1.003403	-0.415668	-0.539054
C31	C	1.074138	-0.609849	-0.486632
C32	C	1.074244	-0.486836	-0.610013
C33	C	1.003465	-0.583991	-0.583874
C34	C	1.815858	-0.512736	-0.512911
C35	C	1.934163	-0.512745	-0.512924
C36	C	1.538308	-0.512620	-0.790500
C37	C	1.538339	-0.512581	-0.908805
C38	C	1.538336	-0.235093	-0.512912
C39	C	1.538378	-0.116787	-0.512927
C40	C	1.467227	-0.583644	-0.978042
C41	C	1.564347	-0.609650	-1.048833
C42	C	1.441294	-0.486510	-1.048813
C43	C	1.635510	-0.538638	-0.978038
C44	C	1.512391	-0.415453	-0.978012
C45	C	1.609579	-0.441422	-1.048772
C46	C	1.538227	-0.512730	-0.236338
C47	C	1.538403	-0.512470	-0.118033
H48	H	1.406905	-0.945788	-0.643949
N49	N	1.115103	-0.718610	-0.457187
H50	H	1.159842	-0.747475	-0.517153
H51	H	1.159656	-0.713262	-0.390745
N52	N	1.593355	-1.088600	-0.718834
H53	H	1.539543	-1.062891	-0.772430
H54	H	1.666157	-1.061649	-0.739001
H55	H	1.407136	-0.643833	-0.946986
H56	H	1.717406	-0.945451	-0.561104
N57	N	1.689361	-0.361763	-1.089669
H58	H	1.651733	-0.306396	-1.133820
H59	H	1.725823	-0.326307	-1.027693
N60	N	1.332546	-0.457358	-1.089981
H61	H	1.312371	-0.384559	-1.063109
H62	H	1.333610	-0.456916	-1.170164
H63	H	1.669647	-1.078338	-0.381669
H64	H	1.105135	-0.381389	-0.381807
N65	N	0.962611	-0.663830	-0.663402
H66	H	0.989560	-0.644932	-0.736550
H67	H	0.988489	-0.737050	-0.643412
H68	H	1.717631	-0.560736	-0.947080
H69	H	1.359136	-1.078906	-0.464772
N70	N	1.483237	-0.306752	-0.936754
H71	H	1.536197	-0.252814	-0.963600
H72	H	1.409833	-0.287263	-0.962460
H73	H	1.105429	-0.464899	-0.692122
H74	H	0.972276	-0.333597	-0.561146
N75	N	1.483042	-0.935956	-0.306888
H76	H	1.483137	-0.855765	-0.307557
H77	H	1.409990	-0.962495	-0.287085
N78	N	1.593474	-0.718384	-1.090041
H79	H	1.539693	-0.772058	-1.064319
H80	H	1.593978	-0.717265	-1.170223
H81	H	0.972144	-0.560522	-0.333584
