data_functionalizedCrystal
_audit_creation_method	'MofGen! by Chris Wilmer'
_symmetry_space_group_name_H-M	'P1'
_symmetry_Int_Tables_number	1
_symmetry_cell_setting	triclinic
loop_
_symmetry_equiv_pos_as_xyz
  x,y,z
_cell_length_a	27.354012
_cell_length_b	27.353283
_cell_length_c	27.349551
_cell_angle_alpha	60.005606
_cell_angle_beta	60.011434
_cell_angle_gamma	59.993282
loop_
_atom_site_label
_atom_site_type_symbol
_atom_site_fract_x
_atom_site_fract_y
_atom_site_fract_z
O1	O	0.067635	-0.714267	0.597330
O2	O	0.567635	-0.214267	1.097330
O3	O	0.025429	-0.556105	0.481282
O4	O	0.525429	-0.056105	0.981282
O5	O	0.125575	-0.656186	0.481214
O6	O	0.625575	-0.156186	0.981214
O7	O	-0.032512	-0.614186	0.597397
O8	O	0.467488	-0.114186	1.097397
O9	O	0.158797	-0.622968	0.514367
O10	O	0.658797	-0.122968	1.014367
O11	O	0.058650	-0.522887	0.514434
O12	O	0.558650	-0.022887	1.014434
O13	O	0.100856	-0.681048	0.630482
O14	O	0.600856	-0.181048	1.130482
Zn15	Zn	0.085028	-0.596693	0.577722
Zn16	Zn	0.585028	-0.096693	1.077722
Zn17	Zn	0.041257	-0.640460	0.534042
Zn18	Zn	0.541257	-0.140460	1.034042
O19	O	0.000709	-0.580967	0.630549
O20	O	0.500709	-0.080967	1.130549
N21	N	0.114901	-0.566828	0.607534
N22	N	0.614901	-0.066828	1.107534
N23	N	0.011389	-0.670331	0.504229
N24	N	0.511389	-0.170331	1.004229
C25	C	0.179404	-0.338196	0.672015
C26	C	0.679404	0.161804	1.172015
C27	C	0.179501	-0.502386	0.836160
C28	C	0.679501	-0.002386	1.336160
C29	C	0.179415	-0.502363	0.671996
C30	C	0.679415	-0.002363	1.171996
C31	C	0.343611	-0.502373	0.671960
C32	C	0.843611	-0.002373	1.171960
C33	C	0.197478	-0.392371	0.690061
C34	C	0.697478	0.107629	1.190061
C35	C	0.197534	-0.484321	0.781984
C36	C	0.697534	0.015679	1.281984
C37	C	0.289434	-0.484312	0.690032
C38	C	0.789434	0.015688	1.190032
C39	C	0.197486	-0.484308	0.690051
C40	C	0.697486	0.015692	1.190051
C41	C	0.156398	-0.269238	0.649045
C42	C	0.656398	0.230762	1.149045
C43	C	0.156418	-0.525342	0.649015
C44	C	0.656418	-0.025342	1.149015
C45	C	0.220484	-0.461329	0.713032
C46	C	0.720484	0.038671	1.213032
C47	C	0.443889	-0.485097	0.619172
C48	C	0.943889	0.014903	1.119172
C49	C	0.506571	-0.505993	0.598266
C50	C	1.006571	-0.005993	1.098266
C51	C	0.506589	-0.607412	0.636940
C52	C	1.006589	-0.107412	1.136940
C53	C	0.443909	-0.586515	0.657848
C54	C	0.943909	-0.086515	1.157848
C55	C	0.171510	-0.237888	0.587422
C56	C	0.671510	0.262112	1.087422
C57	C	0.150593	-0.175201	0.566543
C58	C	0.650593	0.324799	1.066543
C59	C	0.099458	-0.175218	0.668913
C60	C	0.599458	0.324782	1.168913
C61	C	0.120375	-0.237905	0.689792
C62	C	0.620375	0.262095	1.189792
C63	C	0.094789	-0.510201	0.664176
C64	C	0.594789	-0.010201	1.164176
C65	C	0.073888	-0.531091	0.643278
C66	C	0.573888	-0.031091	1.143278
C67	C	0.176239	-0.582263	0.592072
C68	C	0.676239	-0.082263	1.092072
C69	C	0.197142	-0.561373	0.612963
C70	C	0.697142	-0.061373	1.112963
C71	C	0.094933	-0.510244	0.936476
C72	C	0.594933	-0.010244	1.436476
C73	C	0.074073	-0.531151	0.999161
C74	C	0.574073	-0.031151	1.499161
C75	C	0.176453	-0.582335	0.999126
C76	C	0.676453	-0.082335	1.499126
C77	C	0.197312	-0.561429	0.936439
C78	C	0.697312	-0.061429	1.436439
C79	C	0.156551	-0.525382	0.905116
C80	C	0.656551	-0.025382	1.405116
C81	C	0.412561	-0.525357	0.648961
C82	C	0.912561	-0.025357	1.148961
C83	C	-0.098513	-0.688235	0.485867
C84	C	0.401487	-0.188235	0.985867
C85	C	-0.006461	-0.688368	0.394066
C86	C	0.493539	-0.188368	0.894066
C87	C	-0.006645	-0.780264	0.486040
C88	C	0.493355	-0.280264	0.986040
C89	C	-0.006630	-0.688361	0.486097
C90	C	0.493370	-0.188361	0.986097
C91	C	-0.029562	-0.711308	0.463018
C92	C	0.470438	-0.211308	0.963018
N93	N	0.537030	-0.566846	0.607436
N94	N	1.037030	-0.066846	1.107436
O95	O	0.741877	-0.576849	0.459995
O96	O	1.241877	-0.076849	0.959995
O97	O	0.742050	-0.693241	0.618010
O98	O	1.242050	-0.193241	1.118010
O99	O	0.741986	-0.692977	0.517791
O100	O	1.241986	-0.192977	1.017791
O101	O	0.741941	-0.577114	0.560214
O102	O	1.241941	-0.077114	1.060214
O103	O	0.642405	-0.659839	0.551046
O104	O	1.142405	-0.159839	1.051046
O105	O	0.642469	-0.660104	0.651265
O106	O	1.142469	-0.160104	1.151265
O107	O	0.642296	-0.543712	0.493251
O108	O	1.142296	-0.043712	0.993251
Zn109	Zn	0.626572	-0.596646	0.577538
Zn110	Zn	1.126572	-0.096646	1.077538
Zn111	Zn	0.757774	-0.640307	0.533723
Zn112	Zn	1.257774	-0.140307	1.033723
O113	O	0.642360	-0.543976	0.593469
O114	O	1.142360	-0.043976	1.093469
N115	N	0.847316	-0.670107	0.503818
N116	N	1.347316	-0.170107	1.003818
N117	N	0.114877	-0.144758	0.607577
N118	N	0.614877	0.355242	1.107577
O119	O	-0.032498	0.060193	0.597441
O120	O	0.467502	0.560193	1.097441
O121	O	0.125523	0.060193	0.481067
O122	O	0.625523	0.560193	0.981067
O123	O	0.025289	0.060179	0.481345
O124	O	0.525289	0.560179	0.981345
O125	O	0.067736	0.060207	0.597163
O126	O	0.567736	0.560207	1.097163
O127	O	0.058511	-0.039410	0.514543
O128	O	0.558511	0.460590	1.014543
O129	O	0.158745	-0.039397	0.514265
O130	O	0.658745	0.460603	1.014265
O131	O	0.000724	-0.039396	0.630638
O132	O	0.500724	0.460604	1.130638
Zn133	Zn	0.085009	-0.055208	0.577722
Zn134	Zn	0.585009	0.444792	1.077722
Zn135	Zn	0.041238	0.076005	0.533983
Zn136	Zn	0.541238	0.576005	1.033983
O137	O	0.100958	-0.039382	0.630360
O138	O	0.600958	0.460618	1.130360
N139	N	0.011362	0.165555	0.504130
N140	N	0.511362	0.665555	1.004130
N141	N	0.115121	-0.566884	1.029592
N142	N	0.615121	-0.066884	1.529592
O143	O	0.104990	-0.714248	1.234528
O144	O	0.604990	-0.214248	1.734528
O145	O	-0.011371	-0.556177	1.234539
O146	O	0.488629	-0.056177	1.734539
O147	O	-0.011103	-0.656395	1.234497
O148	O	0.488897	-0.156395	1.734497
O149	O	0.104722	-0.614030	1.234569
O150	O	0.604722	-0.114030	1.734569
O151	O	0.022090	-0.623190	1.134913
O152	O	0.522090	-0.123190	1.634913
O153	O	0.021822	-0.522972	1.134954
O154	O	0.521822	-0.022972	1.634954
O155	O	0.138182	-0.681044	1.134943
O156	O	0.638182	-0.181044	1.634943
Zn157	Zn	0.085272	-0.596736	1.119137
Zn158	Zn	0.585272	-0.096736	1.619137
Zn159	Zn	0.041539	-0.640484	1.250344
Zn160	Zn	0.541539	-0.140484	1.750344
O161	O	0.137914	-0.580826	1.134984
O162	O	0.637914	-0.080826	1.634984
N163	N	0.011689	-0.670343	1.339890
N164	N	0.511689	-0.170343	1.839890
C165	C	0.038085	-0.519567	0.481870
C166	C	0.538085	-0.019567	0.981870
C167	C	0.162104	-0.643505	0.481786
C168	C	0.662104	-0.143505	0.981786
C169	C	0.088200	-0.717587	0.629893
C170	C	0.588200	-0.217587	1.129893
C171	C	-0.035819	-0.593649	0.629977
C172	C	0.464181	-0.093649	1.129977
C173	C	0.692280	-0.692701	0.654545
C174	C	1.192280	-0.192701	1.154545
C175	C	0.692203	-0.692374	0.530435
C176	C	1.192203	-0.192374	1.030435
C177	C	0.692063	-0.544251	0.456717
C178	C	1.192063	-0.044251	0.956717
C179	C	0.692144	-0.544580	0.580825
C180	C	1.192144	-0.044580	1.080825
C181	C	0.162000	0.010521	0.481600
C182	C	0.662000	0.510521	0.981600
C183	C	0.037914	0.010381	0.481984
C184	C	0.537914	0.510381	0.981984
C185	C	-0.035795	0.010399	0.630065
C186	C	0.464205	0.510399	1.130065
C187	C	0.088333	0.010415	0.629722
C188	C	0.588333	0.510415	1.129722
C189	C	-0.010799	-0.519660	1.184747
C190	C	0.489201	-0.019660	1.684747
C191	C	-0.010461	-0.643761	1.184677
C192	C	0.489539	-0.143761	1.684677
C193	C	0.137610	-0.717561	1.184734
C194	C	0.637610	-0.217561	1.684734
C195	C	0.137280	-0.593452	1.184783
C196	C	0.637280	-0.093452	1.684783
H197	H	0.061737	-0.480889	0.910978
H198	H	0.561737	0.019111	1.410978
H199	H	-0.081177	0.010398	0.666600
H200	H	0.418823	0.510398	1.166600
O201	O	0.181250	-0.771673	1.184625
O202	O	0.681250	-0.271673	1.684625
C203	C	0.231707	-0.763786	1.133069
C204	C	0.731707	-0.263786	1.633069
H205	H	0.217278	-0.719936	1.097022
H206	H	0.717278	-0.219936	1.597022
H207	H	0.265499	-0.762416	1.144750
H208	H	0.765499	-0.262416	1.644750
C209	C	0.278390	-0.870111	1.153939
C210	C	0.778390	-0.370111	1.653939
C211	C	0.260667	-0.816256	1.109664
C212	C	0.760667	-0.316256	1.609664
H213	H	0.296256	-0.902478	1.139503
H214	H	0.796256	-0.402478	1.639503
H215	H	0.244398	-0.875426	1.188675
H216	H	0.744398	-0.375426	1.688675
H217	H	0.306547	-0.868961	1.163669
H218	H	0.806547	-0.368961	1.663669
H219	H	0.232505	-0.817404	1.099939
H220	H	0.732505	-0.317404	1.599939
H221	H	0.294656	-0.810943	1.074925
H222	H	0.794656	-0.310943	1.574925
H223	H	0.029071	-0.474132	0.445424
H224	H	0.529071	0.025868	0.945424
H225	H	0.207509	-0.652460	0.445301
H226	H	0.707509	-0.152460	0.945301
H227	H	0.173667	-0.584388	1.184797
H228	H	0.673667	-0.084388	1.684797
H229	H	0.692005	-0.507708	0.411338
H230	H	1.192005	-0.007708	0.911338
H231	H	-0.081227	-0.584696	0.666460
H232	H	0.418773	-0.084696	1.166460
H233	H	-0.046832	-0.652809	1.184615
H234	H	0.453168	-0.152809	1.684615
O235	O	0.692194	-0.735723	0.519519
O236	O	1.192194	-0.235723	1.019519
C237	C	0.692159	-0.713915	0.460662
C238	C	1.192159	-0.213915	0.960662
H239	H	0.673266	-0.662911	0.444924
H240	H	1.173266	-0.162911	0.944924
H241	H	0.739923	-0.729035	0.429662
H242	H	1.239923	-0.229035	0.929662
C243	C	0.676323	-0.801212	0.478836
C244	C	1.176323	-0.301212	0.978836
C245	C	0.653114	-0.738568	0.459508
C246	C	1.153114	-0.238568	0.959508
H247	H	0.652241	-0.816420	0.478122
H248	H	1.152241	-0.316420	0.978122
H249	H	0.676349	-0.815906	0.518488
H250	H	1.176349	-0.315906	1.018488
H251	H	0.716126	-0.813804	0.452999
H252	H	1.216126	-0.313804	0.952999
H253	H	0.613315	-0.725977	0.485348
H254	H	1.113315	-0.225977	0.985348
H255	H	0.653080	-0.723872	0.419860
H256	H	1.153080	-0.223872	0.919860
H257	H	0.023897	-0.518815	1.024687
H258	H	0.523897	-0.018815	1.524687
H259	H	0.207290	0.010797	0.444973
H260	H	0.707290	0.510797	0.944973
O261	O	0.216130	-0.617363	1.029460
O262	O	0.716130	-0.117363	1.529460
C263	C	0.274990	-0.626229	0.988340
C264	C	0.774990	-0.126229	1.488340
H265	H	0.274853	-0.619211	0.943657
H266	H	0.774853	-0.119211	1.443657
H267	H	0.292947	-0.592871	0.981678
H268	H	0.792947	-0.092871	1.481678
C269	C	0.315379	-0.699074	1.067658
C270	C	0.815379	-0.199074	1.567658
C271	C	0.315212	-0.690460	1.012780
C272	C	0.815212	-0.190460	1.512780
H273	H	0.340192	-0.738694	1.082735
H274	H	0.840192	-0.238694	1.582735
H275	H	0.275725	-0.693100	1.095363
H276	H	0.775725	-0.193100	1.595363
H277	H	0.330343	-0.671272	1.062100
H278	H	0.830343	-0.171272	1.562100
H279	H	0.300242	-0.718257	1.018340
H280	H	0.800242	-0.218257	1.518340
H281	H	0.354865	-0.696440	0.985077
H282	H	0.854865	-0.196440	1.485077
H283	H	-0.047330	-0.474261	1.184750
H284	H	0.452670	0.025739	1.684750
O285	O	0.257166	-0.576206	0.905951
O286	O	0.757166	-0.076206	1.405951
C287	C	0.272299	-0.607744	0.869675
C288	C	0.772299	-0.107744	1.369675
H289	H	0.236967	-0.628956	0.888570
H290	H	0.736967	-0.128956	1.388570
H291	H	0.274357	-0.575506	0.822173
H292	H	0.774357	-0.075506	1.322173
C293	C	0.377172	-0.631039	0.845485
C294	C	0.877172	-0.131039	1.345485
C295	C	0.333780	-0.657095	0.868695
C296	C	0.833780	-0.157095	1.368695
H297	H	0.415098	-0.661479	0.844878
H298	H	0.915098	-0.161479	1.344878
H299	H	0.366977	-0.609789	0.869923
H300	H	0.866977	-0.109789	1.369923
H301	H	0.378880	-0.604174	0.805902
H302	H	0.878880	-0.104174	1.305902
H303	H	0.332067	-0.683953	0.908279
H304	H	0.832067	-0.183953	1.408279
H305	H	0.343976	-0.678351	0.844263
H306	H	0.843976	-0.178351	1.344263
H307	H	0.097215	-0.763020	0.666340
H308	H	0.597215	-0.263020	1.166340
H309	H	0.692323	-0.729239	0.699929
H310	H	1.192323	-0.229239	1.199929
H311	H	0.028825	0.010378	0.445599
H312	H	0.528825	0.510378	0.945599
H313	H	0.692134	-0.508185	0.589902
H314	H	1.192134	-0.008185	1.089902
H315	H	0.023705	-0.518748	0.655609
H316	H	0.523705	-0.018748	1.155609
O317	O	0.055148	-0.475181	0.699163
O318	O	0.555148	0.024819	1.199163
C319	C	-0.003728	-0.466306	0.708068
C320	C	0.496272	0.033694	1.208068
H321	H	-0.003634	-0.473303	0.670277
H322	H	0.496366	0.026697	1.170277
H323	H	-0.021668	-0.499673	0.752721
H324	H	0.478332	0.000327	1.252721
C325	C	-0.044052	-0.393491	0.754943
C326	C	0.455948	0.106509	1.254943
C327	C	-0.043937	-0.402081	0.708524
C328	C	0.456063	0.097919	1.208524
H329	H	-0.068855	-0.353875	0.755227
H330	H	0.431145	0.146125	1.255227
H331	H	-0.004386	-0.399472	0.748946
H332	H	0.495614	0.100528	1.248946
H333	H	-0.059000	-0.421301	0.792149
H334	H	0.441000	0.078699	1.292149
H335	H	-0.028982	-0.374276	0.671319
H336	H	0.471018	0.125724	1.171319
H337	H	-0.083601	-0.396094	0.714515
H338	H	0.416399	0.103906	1.214515
O339	O	0.099232	0.010309	0.673152
O340	O	0.599232	0.510309	1.173152
C341	C	0.147739	-0.041262	0.686889
C342	C	0.647739	0.458738	1.186889
H343	H	0.152451	-0.077310	0.673734
H344	H	0.652451	0.422690	1.173734
H345	H	0.190665	-0.029600	0.661054
H346	H	0.690665	0.470400	1.161054
C347	C	0.130585	-0.020378	0.770720
C348	C	0.630585	0.479622	1.270720
C349	C	0.136369	-0.064655	0.754568
C350	C	0.636369	0.435345	1.254568
H351	H	0.123574	-0.034807	0.812467
H352	H	0.623574	0.465193	1.312467
H353	H	0.097907	0.014368	0.761465
H354	H	0.597907	0.514368	1.261465
H355	H	0.166359	-0.010663	0.749186
H356	H	0.666359	0.489337	1.249186
H357	H	0.100593	-0.074363	0.776096
H358	H	0.600593	0.425637	1.276096
H359	H	0.169042	-0.099403	0.763828
H360	H	0.669042	0.400597	1.263828
O361	O	0.215830	-0.617177	0.556967
O362	O	0.715830	-0.117177	1.056967
C363	C	0.252056	-0.585522	0.504403
C364	C	0.752056	-0.085522	1.004403
H365	H	0.227838	-0.535371	0.495701
H366	H	0.727838	-0.035371	0.995701
H367	H	0.296101	-0.598870	0.510090
H368	H	0.796101	-0.098870	1.010090
C369	C	0.294587	-0.662256	0.461746
C370	C	0.794587	-0.162256	0.961746
C371	C	0.264840	-0.600659	0.451055
C372	C	0.764840	-0.100659	0.951055
H373	H	0.302476	-0.671595	0.428838
H374	H	0.802476	-0.171595	0.928838
H375	H	0.270183	-0.683584	0.497160
H376	H	0.770183	-0.183584	0.997160
H377	H	0.331289	-0.673372	0.466486
H378	H	0.831289	-0.173372	0.966486
H379	H	0.228136	-0.589546	0.446322
H380	H	0.728136	-0.089546	0.946322
H381	H	0.289239	-0.579329	0.415638
H382	H	0.789239	-0.079329	0.915638
O383	O	0.256989	-0.576003	0.598274
O384	O	0.756989	-0.076003	1.098274
C385	C	0.266707	-0.549852	0.624459
C386	C	0.766707	-0.049852	1.124459
H387	H	0.225572	-0.509613	0.633926
H388	H	0.725572	-0.009613	1.133926
H389	H	0.275087	-0.584152	0.668178
H390	H	0.775087	-0.084152	1.168178
C391	C	0.372093	-0.578730	0.569591
C392	C	0.872093	-0.078730	1.069591
C393	C	0.321572	-0.529305	0.581214
C394	C	0.821572	-0.029305	1.081214
H395	H	0.405938	-0.566058	0.542917
H396	H	0.905938	-0.066058	1.042917
H397	H	0.365547	-0.596351	0.551951
H398	H	0.865547	-0.096351	1.051951
H399	H	0.379069	-0.607309	0.606027
H400	H	0.879069	-0.107309	1.106027
H401	H	0.314593	-0.500731	0.544780
H402	H	0.814593	-0.000731	1.044780
H403	H	0.328119	-0.511679	0.598847
H404	H	0.828119	-0.011679	1.098847
O405	O	0.413510	-0.625639	0.686686
O406	O	0.913510	-0.125639	1.186686
C407	C	0.428831	-0.654999	0.648320
C408	C	0.928831	-0.154999	1.148320
H409	H	0.446035	-0.626452	0.599795
H410	H	0.946035	-0.126452	1.099795
H411	H	0.465232	-0.700236	0.658413
H412	H	0.965232	-0.200236	1.158413
C413	C	0.352022	-0.699588	0.717924
C414	C	0.852022	-0.199588	1.217924
C415	C	0.373148	-0.664523	0.658325
C416	C	0.873148	-0.164523	1.158325
H417	H	0.317675	-0.705466	0.724097
H418	H	0.817675	-0.205466	1.224097
H419	H	0.341701	-0.679809	0.743773
H420	H	0.841701	-0.179809	1.243773
H421	H	0.382362	-0.737281	0.726328
H422	H	0.882362	-0.237281	1.226328
H423	H	0.342811	-0.626828	0.649924
H424	H	0.842811	-0.126828	1.149924
H425	H	0.383462	-0.684296	0.632475
H426	H	0.883462	-0.184296	1.132475
O427	O	0.537107	-0.666816	0.645602
O428	O	1.037107	-0.166816	1.145602
C429	C	0.573377	-0.688544	0.679696
C430	C	1.073377	-0.188544	1.179696
H431	H	0.582764	-0.649848	0.674786
H432	H	1.082764	-0.149848	1.174786
H433	H	0.549241	-0.710139	0.728819
H434	H	1.049241	-0.210139	1.228819
C435	C	0.621388	-0.782905	0.663245
C436	C	1.121388	-0.282905	1.163245
C437	C	0.632922	-0.735379	0.657210
C438	C	1.132922	-0.235379	1.157210
H439	H	0.658117	-0.811797	0.649377
H440	H	1.158117	-0.311797	1.149377
H441	H	0.596951	-0.768268	0.640277
H442	H	1.096951	-0.268268	1.140277
H443	H	0.601273	-0.800894	0.704182
H444	H	1.101273	-0.300894	1.204182
H445	H	0.653029	-0.717386	0.616273
H446	H	1.153029	-0.217386	1.116273
H447	H	0.657363	-0.750014	0.680171
H448	H	1.157363	-0.250014	1.180171
O449	O	0.536916	-0.466801	0.569314
O450	O	1.036916	0.033199	1.069314
C451	C	0.495808	-0.408341	0.565966
C452	C	0.995808	0.091659	1.065966
H453	H	0.451118	-0.405895	0.570086
H454	H	0.951118	0.094105	1.070086
H455	H	0.489163	-0.396639	0.603941
H456	H	0.989163	0.103361	1.103941
C457	C	0.575135	-0.366599	0.500386
C458	C	1.075135	0.133401	1.000386
C459	C	0.520248	-0.363593	0.505440
C460	C	1.020248	0.136407	1.005440
H461	H	0.590212	-0.338995	0.463052
H462	H	1.090212	0.161005	0.963052
H463	H	0.602831	-0.405984	0.502643
H464	H	1.102831	0.094016	1.002643
H465	H	0.569591	-0.356848	0.532036
H466	H	1.069591	0.143152	1.032036
H467	H	0.525795	-0.373351	0.473796
H468	H	1.025795	0.126649	0.973796
H469	H	0.492554	-0.324208	0.503177
H470	H	0.992554	0.175792	1.003177
H471	H	0.200842	-0.263395	0.554238
H472	H	0.700842	0.236605	1.054238
O473	O	0.413409	-0.425679	0.610465
O474	O	0.913409	0.074321	1.110465
C475	C	0.377120	-0.403957	0.576394
C476	C	0.877120	0.096043	1.076394
H477	H	0.396000	-0.434416	0.549601
H478	H	0.896000	0.065584	1.049601
H479	H	0.329621	-0.403233	0.607610
H480	H	0.829621	0.096767	1.107610
C481	C	0.352950	-0.302650	0.566107
C482	C	0.852950	0.197350	1.066107
C483	C	0.376141	-0.340058	0.533196
C484	C	0.876141	0.159942	1.033196
H485	H	0.352343	-0.263233	0.539462
H486	H	0.852343	0.236767	1.039462
H487	H	0.377397	-0.317284	0.589064
H488	H	0.877397	0.182716	1.089064
H489	H	0.313370	-0.302054	0.592119
H490	H	0.813370	0.197946	1.092119
H491	H	0.415723	-0.340659	0.507190
H492	H	0.915723	0.159341	1.007190
H493	H	0.351701	-0.325422	0.510234
H494	H	0.851701	0.174578	1.010234
H495	H	0.070133	-0.149706	0.702094
H496	H	0.570133	0.350294	1.202094
O497	O	0.165346	-0.144836	0.506660
O498	O	0.665346	0.355164	1.006660
C499	C	0.201614	-0.185934	0.475174
C500	C	0.701614	0.314066	0.975174
H501	H	0.224427	-0.230621	0.505058
H502	H	0.724427	0.269379	1.005058
H503	H	0.172686	-0.192602	0.461670
H504	H	0.672686	0.307398	0.961670
C505	C	0.221472	-0.106572	0.381952
C506	C	0.721472	0.393428	0.881952
C507	C	0.249496	-0.161455	0.418654
C508	C	0.749496	0.338545	0.918654
H509	H	0.251006	-0.091471	0.347086
H510	H	0.751006	0.408529	0.847086
H511	H	0.197035	-0.078882	0.403164
H512	H	0.697035	0.421118	0.903164
H513	H	0.197366	-0.112136	0.370705
H514	H	0.697366	0.387864	0.870705
H515	H	0.273594	-0.155889	0.429907
H516	H	0.773594	0.344111	0.929907
H517	H	0.273937	-0.189143	0.397443
H518	H	0.773937	0.310857	0.897443
H519	H	0.108067	-0.263426	0.739970
H520	H	0.608067	0.236574	1.239970
