data_functionalizedCrystal
_audit_creation_method	'MofGen! by Chris Wilmer'
_symmetry_space_group_name_H-M	'P1'
_symmetry_Int_Tables_number	1
_symmetry_cell_setting	triclinic
loop_
_symmetry_equiv_pos_as_xyz
  x,y,z
_cell_length_a	15.995343
_cell_length_b	10.489741
_cell_length_c	14.472310
_cell_angle_alpha	89.999301
_cell_angle_beta	89.991294
_cell_angle_gamma	84.014179
loop_
_atom_site_label
_atom_site_type_symbol
_atom_site_fract_x
_atom_site_fract_y
_atom_site_fract_z
O1	O	1.111992	0.164352	-0.076748
O2	O	0.868338	0.184665	-0.076770
O3	O	0.995709	-0.011167	-0.076753
O4	O	0.984620	0.360184	-0.076765
O5	O	0.995676	-0.011156	0.076929
O6	O	0.868305	0.184676	0.076912
O7	O	1.111959	0.164363	0.076934
Cu8	Cu	0.990129	0.174521	0.090956
Cu9	Cu	0.990168	0.174507	-0.090791
O10	O	0.984587	0.360195	0.076917
C11	C	0.837121	0.183832	0.000068
C12	C	0.744156	0.181320	0.000060
C13	C	0.994855	-0.058682	0.000088
C14	C	0.992349	-0.200276	0.000086
C15	C	0.573942	0.176760	0.000073
C16	C	0.549744	0.035399	0.000077
C17	C	0.453050	0.032739	0.000431
C18	C	0.406355	0.172268	0.000084
C19	C	0.435856	0.243353	0.087667
C20	C	0.532659	0.245030	0.087735
C21	C	0.532619	0.247087	-0.087036
C22	C	0.436093	0.241868	-0.088182
C23	C	0.311641	0.169737	0.000093
C24	C	0.668655	0.179295	0.000069
C25	C	0.911307	-0.267279	0.000072
C26	C	0.949574	-0.359933	0.075848
C27	C	0.949626	-0.359919	-0.075670
C28	C	1.030650	-0.291065	0.075925
C29	C	1.030691	-0.291042	-0.075661
C30	C	1.069017	-0.383669	0.000134
C31	C	1.143175	0.165196	0.000094
C32	C	1.236141	0.167708	0.000096
C33	C	0.985441	0.407710	0.000075
C34	C	0.987947	0.549304	0.000071
N35	N	0.990107	0.174529	0.218787
N36	N	0.990196	0.174488	-0.218622
C37	C	0.990167	0.174502	0.592878
C38	C	0.921780	0.278936	0.553703
C39	C	0.921942	0.279317	0.446615
C40	C	0.990136	0.174516	0.407287
C41	C	1.077677	0.203580	0.446131
C42	C	1.077293	0.204322	0.553252
C43	C	0.971791	0.040694	0.553409
C44	C	0.969792	0.041586	0.446282
C45	C	0.990125	0.174521	0.302399
C46	C	0.990184	0.174500	0.697766
H47	H	0.433708	-0.022905	-0.062339
Cl48	Cl	1.158177	0.089266	0.406803
Cl49	Cl	0.896613	-0.407064	0.174749
Cl50	Cl	0.424040	-0.052726	0.097949
Cl51	Cl	0.821503	0.252667	0.406065
H52	H	1.094111	0.300053	0.419292
Cl53	Cl	0.808433	-0.189176	0.000174
Cl54	Cl	0.821027	0.252626	0.593486
Cl55	Cl	0.940155	0.432639	0.407028
Cl56	Cl	1.083528	-0.244207	0.174945
H57	H	0.559137	0.196385	0.153457
Cl58	Cl	0.939790	0.431388	0.595224
H59	H	1.135709	-0.434029	0.000182
Cl60	Cl	0.875291	-0.002432	0.595160
H61	H	0.403751	0.343676	-0.093745
Cl62	Cl	0.870364	0.007526	0.407087
Cl63	Cl	1.083610	-0.243855	-0.174567
H64	H	0.404628	0.346042	0.090675
Cl65	Cl	0.556127	0.405074	0.093503
Cl66	Cl	0.404365	0.168067	0.188689
Cl67	Cl	0.575869	0.178218	-0.189564
Cl68	Cl	1.102103	0.354986	0.591815
Cl69	Cl	0.592496	-0.049212	-0.096877
H70	H	0.915339	-0.390406	-0.139740
Cl71	Cl	0.555186	0.407748	-0.088321
H72	H	1.129814	0.131256	0.579165
Cl73	Cl	1.041613	-0.084025	0.404970
H74	H	1.021652	-0.037023	0.578743
H75	H	0.417237	0.190101	-0.152977
Cl76	Cl	0.593966	-0.047817	0.096907
