data_functionalizedCrystal
_audit_creation_method	'MofGen! by Chris Wilmer'
_symmetry_space_group_name_H-M	'P1'
_symmetry_Int_Tables_number	1
_symmetry_cell_setting	triclinic
loop_
_symmetry_equiv_pos_as_xyz
  x,y,z
_cell_length_a	12.594517
_cell_length_b	21.295417
_cell_length_c	12.594510
_cell_angle_alpha	89.958049
_cell_angle_beta	89.977213
_cell_angle_gamma	90.030306
loop_
_atom_site_label
_atom_site_type_symbol
_atom_site_fract_x
_atom_site_fract_y
_atom_site_fract_z
Zn1	Zn	1.627175	-0.250558	-0.601801
Zn2	Zn	1.627017	-0.355847	-0.423797
Zn3	Zn	1.449175	-0.250596	-0.423830
Zn4	Zn	1.449117	-0.355793	-0.601727
O5	O	1.538121	-0.303199	-0.512789
O6	O	1.776100	-0.264532	-0.578205
O7	O	1.603384	-0.341924	-0.274856
O8	O	1.472878	-0.162501	-0.447482
O9	O	1.775984	-0.341888	-0.447427
O10	O	1.603654	-0.162474	-0.578237
O11	O	1.472724	-0.264596	-0.274879
O12	O	1.300221	-0.264543	-0.447411
O13	O	1.472779	-0.341795	-0.750683
O14	O	1.300179	-0.341831	-0.578112
O15	O	1.603598	-0.264479	-0.750737
O16	O	1.603327	-0.443930	-0.447356
O17	O	1.472625	-0.443890	-0.578080
C18	C	1.261580	-0.303186	-0.512757
C19	C	1.143274	-0.303196	-0.512769
C20	C	1.074014	-0.261101	-0.441817
C21	C	1.003178	-0.318523	-0.415623
C22	C	1.003312	-0.245802	-0.538981
C23	C	1.073997	-0.360647	-0.486525
C24	C	1.074137	-0.287888	-0.609928
C25	C	1.003333	-0.345349	-0.583771
C26	C	1.537981	-0.466750	-0.512730
C27	C	1.538019	-0.536718	-0.512740
C28	C	1.606136	-0.569585	-0.444742
C29	C	1.606186	-0.635327	-0.444766
C30	C	1.538100	-0.668201	-0.512777
C31	C	1.469978	-0.635326	-0.580789
C32	C	1.469937	-0.569585	-0.580770
N33	N	1.444990	-0.771465	-0.520881
N34	N	1.445031	-0.833917	-0.520892
C35	C	1.538219	-0.866275	-0.512838
N36	N	1.631366	-0.833823	-0.504752
N37	N	1.631324	-0.771366	-0.504735
C38	C	1.538137	-0.739486	-0.512805
C39	C	1.606396	-0.970427	-0.444862
C40	C	1.606448	-1.036171	-0.444893
C41	C	1.470230	-1.036169	-0.580911
C42	C	1.470188	-0.970427	-0.580885
C43	C	1.538269	-0.937560	-0.512855
C44	C	1.815742	-0.303212	-0.512821
C45	C	1.934047	-0.303217	-0.512835
C46	C	1.538199	-0.303127	-0.790410
C47	C	1.538233	-0.303097	-0.908715
C48	C	1.538290	-0.139008	-0.512871
C49	C	1.538362	-0.069040	-0.512906
C50	C	1.609410	-0.261032	-1.048762
C51	C	1.635374	-0.318471	-0.977927
C52	C	1.512317	-0.245664	-0.977978
C53	C	1.564291	-0.360547	-1.048667
C54	C	1.441189	-0.287701	-1.048724
C55	C	1.467115	-0.345180	-0.977921
C56	C	1.538104	-0.303224	-0.236248
C57	C	1.538277	-0.303077	-0.117943
H58	H	1.661575	-0.542826	-0.389350
O59	O	1.403957	-0.938427	-0.646782
C60	C	1.335204	-0.900480	-0.586104
H61	H	1.372781	-0.890656	-0.505475
H62	H	1.256348	-0.925864	-0.574344
C63	C	1.269709	-0.850076	-0.743659
C64	C	1.315867	-0.838006	-0.644631
H65	H	1.257777	-0.811541	-0.779762
H66	H	1.316026	-0.875643	-0.784539
H67	H	1.204001	-0.871231	-0.733844
H68	H	1.381580	-0.816859	-0.654447
H69	H	1.269560	-0.812434	-0.603753
O70	O	1.110748	-0.418584	-0.459841
C71	C	1.073736	-0.434727	-0.357734
H72	H	0.998997	-0.406648	-0.339057
H73	H	1.137603	-0.423543	-0.296468
C74	C	1.139790	-0.539884	-0.377130
C75	C	1.047988	-0.505401	-0.354193
H76	H	1.123912	-0.583480	-0.374942
H77	H	1.164729	-0.529009	-0.445919
H78	H	1.193004	-0.530557	-0.326071
H79	H	0.994781	-0.514723	-0.405259
H80	H	1.023039	-0.516281	-0.285412
O81	O	1.681099	-0.218583	-1.085921
C82	C	1.628282	-0.172982	-1.147548
H83	H	1.541098	-0.171042	-1.123420
H84	H	1.634559	-0.185908	-1.235150
C85	C	1.786964	-0.110712	-1.158759
C86	C	1.679884	-0.108326	-1.129117
H87	H	1.818796	-0.070829	-1.147395
H88	H	1.822549	-0.141435	-1.117243
H89	H	1.792180	-0.121486	-1.231759
H90	H	1.674670	-0.097560	-1.056116
H91	H	1.644299	-0.077599	-1.170621
O92	O	1.111538	-0.272443	-0.707833
C93	C	1.223471	-0.273199	-0.706632
H94	H	1.252258	-0.304624	-0.639230
H95	H	1.254524	-0.223453	-0.694168
C96	C	1.229553	-0.260178	-0.895989
C97	C	1.264909	-0.298779	-0.813210
H98	H	1.255115	-0.275954	-0.961732
H99	H	1.154141	-0.259666	-0.896799
H100	H	1.255433	-0.218725	-0.885588
H101	H	1.239018	-0.340228	-0.823605
H102	H	1.340318	-0.299298	-0.812405
H103	H	1.414467	-0.542825	-0.636144
H104	H	1.359127	-0.274666	-1.079847
H105	H	1.490380	-0.197102	-0.946923
H106	H	1.105048	-0.225538	-0.381741
H107	H	0.972011	-0.331484	-0.333486
O108	O	1.672631	-0.938593	-0.378752
C109	C	1.732754	-0.981703	-0.318724
H110	H	1.736453	-1.028539	-0.362342
H111	H	1.693821	-0.988764	-0.237855
C112	C	1.841480	-0.898466	-0.249900
C113	C	1.846031	-0.955989	-0.303477
H114	H	1.911354	-0.882603	-0.240490
H115	H	1.800973	-0.869421	-0.290338
H116	H	1.809032	-0.904357	-0.182515
H117	H	1.878467	-0.950095	-0.370866
H118	H	1.886547	-0.985032	-0.263050
H119	H	1.414797	-1.062934	-0.636291
H120	H	0.972493	-0.380997	-0.643801
H121	H	1.717460	-0.331488	-0.946826
O122	O	0.966394	-0.187841	-0.565281
C123	C	1.002385	-0.143606	-0.490212
H124	H	1.076874	-0.162223	-0.449587
H125	H	0.937869	-0.135340	-0.428269
C126	C	0.936739	-0.058440	-0.596660
C127	C	1.028233	-0.081303	-0.546770
H128	H	0.952680	-0.020007	-0.631545
H129	H	0.912488	-0.088241	-0.647234
H130	H	0.882985	-0.051556	-0.545031
H131	H	1.081981	-0.088193	-0.598399
H132	H	1.052495	-0.051501	-0.496205
H133	H	1.586348	-0.409119	-1.079588
H134	H	1.406941	-0.380785	-0.947015
H135	H	1.661659	-0.662092	-0.389393
O136	O	1.403951	-0.667229	-0.647006
C137	C	1.427133	-0.651086	-0.753105
H138	H	1.512150	-0.632967	-0.758551
H139	H	1.370031	-0.612941	-0.780867
C140	C	1.310326	-0.731710	-0.817453
C141	C	1.414749	-0.709461	-0.824144
H142	H	1.302683	-0.767717	-0.861276
H143	H	1.294705	-0.742585	-0.745973
H144	H	1.262753	-0.699917	-0.840587
H145	H	1.462318	-0.741250	-0.800998
H146	H	1.430378	-0.698593	-0.895622
H147	H	1.661924	-1.062930	-0.389523
