data_functionalizedCrystal
_audit_creation_method	'MofGen! by Chris Wilmer'
_symmetry_space_group_name_H-M	'P1'
_symmetry_Int_Tables_number	1
_symmetry_cell_setting	triclinic
loop_
_symmetry_equiv_pos_as_xyz
  x,y,z
_cell_length_a	16.959455
_cell_length_b	29.839131
_cell_length_c	16.959447
_cell_angle_alpha	89.966085
_cell_angle_beta	89.985678
_cell_angle_gamma	90.038367
loop_
_atom_site_label
_atom_site_type_symbol
_atom_site_fract_x
_atom_site_fract_y
_atom_site_fract_z
Zn1	Zn	1.208267	-0.178881	-0.446889
Zn2	Zn	1.541600	0.154452	-0.113556
Zn3	Zn	1.874933	0.487786	0.219778
Zn4	Zn	1.208140	-0.254014	-0.314702
Zn5	Zn	1.541473	0.079319	0.018631
Zn6	Zn	1.874806	0.412652	0.351965
Zn7	Zn	1.076095	-0.178895	-0.314726
Zn8	Zn	1.409428	0.154438	0.018607
Zn9	Zn	1.742762	0.487772	0.351940
Zn10	Zn	1.076010	-0.253981	-0.446841
Zn11	Zn	1.409344	0.079353	-0.113507
Zn12	Zn	1.742677	0.412686	0.219826
O13	O	1.142128	-0.216443	-0.380790
O14	O	1.475461	0.116890	-0.047456
O15	O	1.808795	0.450224	0.285877
O16	O	1.318861	-0.188856	-0.429364
O17	O	1.652194	0.144478	-0.096031
O18	O	1.985527	0.477811	0.237303
O19	O	1.190606	-0.244070	-0.204094
O20	O	1.523939	0.089264	0.129239
O21	O	1.857273	0.422597	0.462572
O22	O	1.093716	-0.116026	-0.332288
O23	O	1.427050	0.217307	0.001045
O24	O	1.760383	0.550641	0.334378
O25	O	1.318767	-0.244056	-0.332247
O26	O	1.652101	0.089277	0.001086
O27	O	1.985434	0.422611	0.334420
O28	O	1.190822	-0.116016	-0.429388
O29	O	1.524155	0.217318	-0.096054
O30	O	1.857489	0.550651	0.237279
O31	O	1.093593	-0.188880	-0.204112
O32	O	1.426927	0.144453	0.129221
O33	O	1.760260	0.477787	0.462554
O34	O	0.965473	-0.188847	-0.332242
O35	O	1.298806	0.144486	0.001092
O36	O	1.632140	0.477819	0.334425
O37	O	1.093572	-0.243999	-0.557458
O38	O	1.426905	0.089335	-0.224125
O39	O	1.760239	0.422668	0.109209
O40	O	0.965411	-0.244012	-0.429305
O41	O	1.298744	0.089321	-0.095972
O42	O	1.632077	0.422654	0.237361
O43	O	1.190740	-0.188823	-0.557493
O44	O	1.524073	0.144510	-0.224160
O45	O	1.857407	0.477843	0.109173
O46	O	1.190524	-0.316877	-0.332200
O47	O	1.523857	0.016456	0.001133
O48	O	1.857191	0.349790	0.334467
O49	O	1.093449	-0.316852	-0.429282
O50	O	1.426783	0.016481	-0.095948
O51	O	1.760116	0.349814	0.237385
C52	C	0.936762	-0.216428	-0.380771
C53	C	1.270095	0.116905	-0.047438
C54	C	1.603428	0.450239	0.285895
C55	C	0.848905	-0.216433	-0.380782
C56	C	1.182238	0.116901	-0.047449
C57	C	1.515572	0.450234	0.285884
C58	C	1.141985	-0.333165	-0.380750
C59	C	1.475319	0.000168	-0.047417
C60	C	1.808652	0.333501	0.285916
C61	C	1.141996	-0.383100	-0.380760
C62	C	1.475330	-0.049767	-0.047427
C63	C	1.808663	0.283567	0.285907
C64	C	0.477437	-0.187695	-0.330354
C65	C	0.810771	0.145638	0.002979
C66	C	1.144104	0.478972	0.336313
C67	C	0.477421	-0.245228	-0.431270
C68	C	0.810755	0.088106	-0.097937
C69	C	1.144088	0.421439	0.235396
C70	C	0.559967	-0.245221	-0.431265
C71	C	0.893301	0.088112	-0.097932
C72	C	1.226634	0.421445	0.235401
C73	C	0.601252	-0.216452	-0.380803
C74	C	0.934585	0.116882	-0.047470
C75	C	1.267919	0.450215	0.285863
C76	C	0.559991	-0.187688	-0.330346
C77	C	0.893324	0.145645	0.002987
C78	C	1.226658	0.478978	0.336321
C79	C	0.601235	-0.273987	-0.481716
C80	C	0.934568	0.059346	-0.148383
C81	C	1.267901	0.392679	0.184950
C82	C	0.683786	-0.273982	-0.481713
C83	C	1.017119	0.059351	-0.148379
C84	C	1.350452	0.392684	0.184954
C85	C	0.725072	-0.245210	-0.431254
C86	C	1.058405	0.088123	-0.097921
C87	C	1.391739	0.421457	0.235413
C88	C	0.683806	-0.216445	-0.380795
C89	C	1.017139	0.116888	-0.047462
C90	C	1.350472	0.450221	0.285871
C91	C	0.725090	-0.187676	-0.330333
C92	C	1.058424	0.145658	0.003000
C93	C	1.391757	0.478991	0.336334
C94	C	0.683826	-0.158908	-0.279878
C95	C	1.017159	0.174425	0.053456
C96	C	1.350492	0.507758	0.386789
C97	C	0.601277	-0.158916	-0.279887
C98	C	0.934610	0.174417	0.053446
C99	C	1.267944	0.507750	0.386780
C100	C	0.807620	-0.245202	-0.431245
C101	C	1.140954	0.088131	-0.097911
C102	C	1.474287	0.421464	0.235422
C103	C	0.807644	-0.187669	-0.330325
C104	C	1.140977	0.145664	0.003008
C105	C	1.474311	0.478997	0.336342
C106	C	1.192767	-0.692743	-0.330313
C107	C	1.526100	-0.359410	0.003020
C108	C	1.859433	-0.026077	0.336354
C109	C	1.192864	-0.880416	-0.330344
C110	C	1.526198	-0.547083	0.002990
C111	C	1.859531	-0.213750	0.336323
O112	O	1.235918	-0.904681	-0.287422
O113	O	1.569251	-0.571348	0.045912
O114	O	1.902584	-0.238015	0.379245
N115	N	1.142292	-0.903885	-0.380849
N116	N	1.475625	-0.570552	-0.047516
N117	N	1.808958	-0.237218	0.285818
C118	C	1.091695	-0.880432	-0.431354
C119	C	1.425028	-0.547099	-0.098021
C120	C	1.758362	-0.213766	0.235312
O121	O	1.048688	-0.904700	-0.474319
O122	O	1.382021	-0.571366	-0.140985
O123	O	1.715355	-0.238033	0.192348
C124	C	1.091602	-0.692760	-0.431327
C125	C	1.424935	-0.359427	-0.097994
C126	C	1.758269	-0.026093	0.235340
C127	C	1.142172	-0.669294	-0.380812
C128	C	1.475505	-0.335961	-0.047479
C129	C	1.808839	-0.002627	0.285854
C130	C	1.243333	-0.669277	-0.279803
C131	C	1.576667	-0.335944	0.053530
C132	C	1.910000	-0.002611	0.386863
C133	C	1.243305	-0.622362	-0.279793
C134	C	1.576639	-0.289029	0.053540
C135	C	1.909972	0.044305	0.386874
C136	C	1.192711	-0.598913	-0.330293
C137	C	1.526044	-0.265579	0.003041
C138	C	1.859377	0.067754	0.336374
C139	C	1.142144	-0.622379	-0.380802
C140	C	1.475478	-0.289045	-0.047469
C141	C	1.808811	0.044288	0.285864
C142	C	1.041010	-0.669308	-0.481835
C143	C	1.374343	-0.335975	-0.148502
C144	C	1.707676	-0.002641	0.184831
C145	C	1.040992	-0.622387	-0.481826
C146	C	1.374326	-0.289054	-0.148492
C147	C	1.707659	0.044280	0.184841
C148	C	1.091563	-0.598921	-0.431311
C149	C	1.424896	-0.265588	-0.097978
C150	C	1.758229	0.067746	0.235356
C151	C	1.091522	-0.552014	-0.431292
C152	C	1.424855	-0.218680	-0.097958
C153	C	1.758188	0.114653	0.235375
N154	N	1.142094	-0.528545	-0.380786
N155	N	1.475427	-0.195212	-0.047453
N156	N	1.808761	0.138121	0.285881
C157	C	1.192689	-0.551995	-0.330287
C158	C	1.526022	-0.218661	0.003047
C159	C	1.859355	0.114672	0.336380
C160	C	1.091746	-0.978963	-0.431364
C161	C	1.425080	-0.645629	-0.098031
C162	C	1.758413	-0.312296	0.235303
C163	C	1.091768	-1.025881	-0.431370
C164	C	1.425102	-0.692547	-0.098036
C165	C	1.758435	-0.359214	0.235297
C166	C	1.192939	-1.025862	-0.330360
C167	C	1.526272	-0.692528	0.002973
C168	C	1.859606	-0.359195	0.336307
C169	C	1.192912	-0.978943	-0.330351
C170	C	1.526246	-0.645610	0.002983
C171	C	1.859579	-0.312276	0.336316
C172	C	1.142319	-0.955494	-0.380858
C173	C	1.475652	-0.622161	-0.047525
C174	C	1.808985	-0.288828	0.285808
C175	C	1.192626	-0.453469	-0.330268
C176	C	1.525959	-0.120136	0.003065
C177	C	1.859292	0.213198	0.336398
C178	C	1.192591	-0.406549	-0.330260
C179	C	1.525924	-0.073216	0.003073
C180	C	1.859258	0.260117	0.336406
C181	C	1.091424	-0.406572	-0.431273
C182	C	1.424757	-0.073239	-0.097939
C183	C	1.758090	0.260094	0.235394
C184	C	1.091455	-0.453488	-0.431278
C185	C	1.424789	-0.120154	-0.097945
C186	C	1.758122	0.213179	0.235388
C187	C	1.142063	-0.476935	-0.380773
C188	C	1.475396	-0.143602	-0.047440
C189	C	1.808729	0.189732	0.285893
O190	O	1.048497	-0.527720	-0.474197
O191	O	1.381830	-0.194386	-0.140864
O192	O	1.715164	0.138947	0.192469
O193	O	1.235702	-0.527719	-0.287341
O194	O	1.569035	-0.194386	0.045992
O195	O	1.902368	0.138948	0.379326
C196	C	1.192795	-0.739659	-0.330323
C197	C	1.526128	-0.406326	0.003010
C198	C	1.859461	-0.072992	0.336344
C199	C	1.142228	-0.763125	-0.380833
C200	C	1.475561	-0.429792	-0.047500
C201	C	1.808895	-0.096458	0.285834
C202	C	1.091633	-0.739675	-0.431332
C203	C	1.424967	-0.406342	-0.097999
C204	C	1.758300	-0.073009	0.235334
C205	C	1.142250	-0.810043	-0.380839
C206	C	1.475583	-0.476709	-0.047506
C207	C	1.808917	-0.143376	0.285828
C208	C	1.192845	-0.833492	-0.330339
C209	C	1.526178	-0.500159	0.002994
C210	C	1.859511	-0.166825	0.336327
C211	C	1.243417	-0.810024	-0.279834
C212	C	1.576750	-0.476690	0.053499
C213	C	1.910084	-0.143357	0.386833
C214	C	1.243389	-0.763108	-0.279824
C215	C	1.576723	-0.429775	0.053510
C216	C	1.910056	-0.096442	0.386843
C217	C	1.041061	-0.763144	-0.481838
C218	C	1.374394	-0.429811	-0.148505
C219	C	1.707728	-0.096477	0.184829
C220	C	1.041092	-0.810059	-0.481843
C221	C	1.374426	-0.476726	-0.148510
C222	C	1.707759	-0.143393	0.184823
C223	C	1.091687	-0.833509	-0.431344
C224	C	1.425020	-0.500175	-0.098010
C225	C	1.758354	-0.166842	0.235323
C226	C	1.348296	-0.216458	-0.380808
C227	C	1.681629	0.116875	-0.047475
C228	C	2.014963	0.450209	0.285859
C229	C	1.436153	-0.216465	-0.380816
C230	C	1.769486	0.116869	-0.047483
C231	C	2.102819	0.450202	0.285851
C232	C	1.142161	-0.216406	-0.586958
C233	C	1.475494	0.116928	-0.253624
C234	C	1.808827	0.450261	0.079709
C235	C	1.142175	-0.216390	-0.674814
C236	C	1.475508	0.116944	-0.341481
C237	C	1.808842	0.450277	-0.008148
C238	C	1.142293	-0.099264	-0.380846
C239	C	1.475626	0.234069	-0.047513
C240	C	1.808959	0.567402	0.285821
C241	C	1.142363	-0.049330	-0.380870
C242	C	1.475696	0.284003	-0.047537
C243	C	1.809030	0.617337	0.285796
C244	C	1.091678	-0.245070	-1.046274
C245	C	1.425012	0.088264	-0.712941
C246	C	1.758345	0.421597	-0.379608
C247	C	1.192860	-0.187615	-1.046306
C248	C	1.526194	0.145718	-0.712973
C249	C	1.859527	0.479052	-0.379640
C250	C	1.192839	-0.187625	-0.963760
C251	C	1.526173	0.145709	-0.630427
C252	C	1.859506	0.479042	-0.297094
C253	C	1.142238	-0.216358	-0.922468
C254	C	1.475571	0.116976	-0.589134
C255	C	1.808904	0.450309	-0.255801
C256	C	1.091657	-0.245081	-0.963721
C257	C	1.424991	0.088252	-0.630387
C258	C	1.758324	0.421586	-0.297054
C259	C	1.243424	-0.158905	-0.922501
C260	C	1.576758	0.174428	-0.589168
C261	C	1.910091	0.507762	-0.255834
C262	C	1.243406	-0.158914	-0.839950
C263	C	1.576739	0.174420	-0.506617
C264	C	1.910073	0.507753	-0.173283
C265	C	1.192800	-0.187645	-0.798656
C266	C	1.526133	0.145689	-0.465322
C267	C	1.859467	0.479022	-0.131989
C268	C	1.142217	-0.216369	-0.839914
C269	C	1.475550	0.116964	-0.506581
C270	C	1.808884	0.450298	-0.173247
C271	C	1.091615	-0.245102	-0.798621
C272	C	1.424949	0.088231	-0.465288
C273	C	1.758282	0.421565	-0.131955
C274	C	1.041028	-0.273824	-0.839878
C275	C	1.374361	0.059509	-0.506545
C276	C	1.707694	0.392842	-0.173211
C277	C	1.041051	-0.273812	-0.922426
C278	C	1.374385	0.059521	-0.589093
C279	C	1.707718	0.392855	-0.255760
C280	C	1.192776	-0.187657	-0.716107
C281	C	1.526110	0.145676	-0.382774
C282	C	1.859443	0.479010	-0.049441
C283	C	1.091594	-0.245113	-0.716068
C284	C	1.424928	0.088220	-0.382734
C285	C	1.758261	0.421553	-0.049401
C286	C	1.142141	-0.216447	-0.175423
C287	C	1.475474	0.116886	0.157910
C288	C	1.808807	0.450219	0.491243
C289	C	1.142280	-0.216337	-0.087567
C290	C	1.475613	0.116997	0.245766
C291	C	1.808946	0.450330	0.579100
H292	H	0.841252	-0.164238	-0.289237
H293	H	1.174585	0.169095	0.044097
H294	H	1.507919	0.502428	0.377430
F295	F	0.987180	-0.304405	-0.795922
F296	F	1.320513	0.028928	-0.462588
F297	F	1.653846	0.362261	-0.129255
H298	H	1.050381	-0.268507	-0.682453
H299	H	1.383714	0.064826	-0.349119
H300	H	1.717048	0.398159	-0.015786
F301	F	1.246488	-0.478416	-0.276515
F302	F	1.579821	-0.145083	0.056818
F303	F	1.913154	0.188250	0.390151
H304	H	1.284568	-0.744006	-0.238690
H305	H	1.617902	-0.410672	0.094643
H306	H	1.951235	-0.077339	0.427976
H307	H	1.233966	-0.164273	-0.682520
H308	H	1.567299	0.169061	-0.349186
H309	H	1.900633	0.502394	-0.015853
F310	F	0.987144	-0.597434	-0.535586
F311	F	1.320477	-0.264101	-0.202253
F312	F	1.653811	0.069233	0.131081
H313	H	0.717450	-0.135486	-0.238788
H314	H	1.050784	0.197847	0.094545
H315	H	1.384117	0.531181	0.427879
F316	F	0.987192	-0.694272	-0.535608
F317	F	1.320525	-0.360939	-0.202274
F318	F	1.653859	-0.027606	0.131059
F319	F	1.246716	-0.157040	-1.090255
F320	F	1.580049	0.176293	-0.756922
F321	F	1.913383	0.509626	-0.423588
F322	F	0.433521	-0.157078	-0.276662
F323	F	0.766855	0.176255	0.056671
F324	F	1.100188	0.509589	0.390005
F325	F	0.433481	-0.275853	-0.484958
F326	F	0.766815	0.057481	-0.151625
F327	F	1.100148	0.390814	0.181708
H328	H	1.284486	-0.603259	-0.238662
H329	H	1.617819	-0.269925	0.094671
H330	H	1.951153	0.063408	0.428004
F331	F	0.557293	-0.304615	-0.535397
F332	F	0.890626	0.028718	-0.202064
F333	F	1.223960	0.362051	0.131270
F334	F	1.246784	-1.050826	-0.276613
F335	F	1.580117	-0.717493	0.056721
F336	F	1.913451	-0.384159	0.390054
H337	H	1.050582	-1.044983	-0.472496
H338	H	1.383915	-0.711649	-0.139163
H339	H	1.717248	-0.378316	0.194170
F340	F	0.851534	-0.275819	-0.484934
F341	F	1.184867	0.057515	-0.151601
F342	F	1.518200	0.390848	0.181732
H343	H	1.284538	-0.688365	-0.238680
H344	H	1.617871	-0.355032	0.094653
H345	H	1.951204	-0.021698	0.427986
H346	H	0.999868	-0.297198	-0.956025
H347	H	1.333202	0.036136	-0.622692
H348	H	1.666535	0.369469	-0.289358
F349	F	1.297243	-0.128344	-0.796049
F350	F	1.630576	0.204989	-0.462716
F351	F	1.963910	0.538322	-0.129382
F352	F	1.037840	-0.275635	-1.090182
F353	F	1.371173	0.057698	-0.756849
F354	F	1.704506	0.391031	-0.423515
F355	F	1.037893	-0.954013	-0.485124
F356	F	1.371227	-0.620679	-0.151790
F357	F	1.704560	-0.287346	0.181543
H358	H	0.567672	-0.135496	-0.238808
H359	H	0.901005	0.197837	0.094525
H360	H	1.234339	0.531171	0.427859
H361	H	0.717376	-0.297406	-0.522797
H362	H	1.050710	0.035927	-0.189464
H363	H	1.384043	0.369260	0.143870
H364	H	1.233771	-0.387445	-0.289123
H365	H	1.567104	-0.054111	0.044211
H366	H	1.900438	0.279222	0.377544
F367	F	1.246736	-0.953973	-0.276587
F368	F	1.580069	-0.620640	0.056746
F369	F	1.913402	-0.287306	0.390079
F370	F	1.297279	-0.128331	-0.966451
F371	F	1.630613	0.205003	-0.633118
F372	F	1.963946	0.538336	-0.299785
H373	H	1.050279	-0.472595	-0.472414
H374	H	1.383613	-0.139261	-0.139080
H375	H	1.716946	0.194072	0.194253
H376	H	1.284611	-0.829124	-0.238713
H377	H	1.617944	-0.495791	0.094620
H378	H	1.951278	-0.162458	0.427954
F379	F	1.037582	-0.381608	-0.485017
F380	F	1.370916	-0.048274	-0.151684
F381	F	1.704249	0.285059	0.181649
H382	H	0.999862	-0.744055	-0.522962
H383	H	1.333195	-0.410722	-0.189628
H384	H	1.666528	-0.077388	0.143705
H385	H	0.999905	-0.829161	-0.522978
H386	H	1.333239	-0.495828	-0.189644
H387	H	1.666572	-0.162495	0.143689
