data_functionalizedCrystal
_audit_creation_method	'MofGen! by Chris Wilmer'
_symmetry_space_group_name_H-M	'P1'
_symmetry_Int_Tables_number	1
_symmetry_cell_setting	triclinic
loop_
_symmetry_equiv_pos_as_xyz
  x,y,z
_cell_length_a	13.897449
_cell_length_b	25.639239
_cell_length_c	13.897441
_cell_angle_alpha	90.034859
_cell_angle_beta	90.023394
_cell_angle_gamma	90.040111
loop_
_atom_site_label
_atom_site_type_symbol
_atom_site_fract_x
_atom_site_fract_y
_atom_site_fract_z
Zn1	Zn	1.474558	-0.208123	0.545421
Zn2	Zn	1.724558	0.041877	0.795421
Zn3	Zn	1.974558	0.291877	1.045421
Zn4	Zn	2.224558	0.541877	1.295421
Zn5	Zn	1.474391	-0.295565	0.384110
Zn6	Zn	1.724391	-0.045565	0.634110
Zn7	Zn	1.974391	0.204435	0.884110
Zn8	Zn	2.224391	0.454435	1.134110
Zn9	Zn	1.313247	-0.208147	0.384132
Zn10	Zn	1.563247	0.041853	0.634132
Zn11	Zn	1.813247	0.291853	0.884132
Zn12	Zn	2.063247	0.541853	1.134132
Zn13	Zn	1.313168	-0.295530	0.545356
Zn14	Zn	1.563168	-0.045530	0.795356
Zn15	Zn	1.813168	0.204470	1.045356
Zn16	Zn	2.063168	0.454470	1.295356
O17	O	1.393841	-0.251841	0.464755
O18	O	1.643841	-0.001841	0.714755
O19	O	1.893841	0.248159	0.964755
O20	O	2.143841	0.498159	1.214755
O21	O	1.609517	-0.219727	0.524041
O22	O	1.859517	0.030273	0.774041
O23	O	2.109517	0.280273	1.024041
O24	O	2.359517	0.530273	1.274041
O25	O	1.452978	-0.283994	0.249132
O26	O	1.702978	-0.033994	0.499132
O27	O	1.952978	0.216006	0.749132
O28	O	2.202978	0.466006	0.999132
O29	O	1.334748	-0.134978	0.405564
O30	O	1.584748	0.115022	0.655564
O31	O	1.834748	0.365022	0.905564
O32	O	2.084748	0.615022	1.155564
O33	O	1.609395	-0.283970	0.405527
O34	O	1.859395	-0.033970	0.655527
O35	O	2.109395	0.216030	0.905527
O36	O	2.359395	0.466030	1.155527
O37	O	1.453263	-0.134961	0.524062
O38	O	1.703263	0.115039	0.774062
O39	O	1.953263	0.365039	1.024062
O40	O	2.203263	0.615039	1.274062
O41	O	1.334586	-0.219768	0.249147
O42	O	1.584586	0.030232	0.499147
O43	O	1.834586	0.280232	0.749147
O44	O	2.084586	0.530232	0.999147
O45	O	1.178255	-0.219734	0.405500
O46	O	1.428255	0.030266	0.655500
O47	O	1.678255	0.280266	0.905500
O48	O	1.928255	0.530266	1.155500
O49	O	1.334613	-0.283910	0.680346
O50	O	1.584613	-0.033910	0.930346
O51	O	1.834613	0.216090	1.180346
O52	O	2.084613	0.466090	1.430346
O53	O	1.178197	-0.283934	0.523950
O54	O	1.428197	-0.033934	0.773950
O55	O	1.678197	0.216066	1.023950
O56	O	1.928197	0.466066	1.273950
O57	O	1.453186	-0.219693	0.680394
O58	O	1.703186	0.030307	0.930394
O59	O	1.953186	0.280307	1.180394
O60	O	2.203186	0.530307	1.430394
O61	O	1.452902	-0.368726	0.405464
O62	O	1.702902	-0.118726	0.655464
O63	O	1.952902	0.131274	0.905464
O64	O	2.202902	0.381274	1.155464
O65	O	1.334452	-0.368700	0.523930
O66	O	1.584452	-0.118700	0.773930
O67	O	1.834452	0.131300	1.023930
O68	O	2.084452	0.381300	1.273930
C69	C	1.143227	-0.251833	0.464721
C70	C	1.393227	-0.001833	0.714721
C71	C	1.643227	0.248167	0.964721
C72	C	1.893227	0.498167	1.214721
C73	C	1.036013	-0.251842	0.464730
C74	C	1.286013	-0.001842	0.714730
C75	C	1.536013	0.248158	0.964730
C76	C	1.786013	0.498158	1.214730
C77	C	0.948943	-0.251844	0.464746
C78	C	1.198943	-0.001844	0.714746
C79	C	1.448943	0.248156	0.964746
C80	C	1.698943	0.498156	1.214746
C81	C	0.839711	-0.251848	0.464775
C82	C	1.089711	-0.001848	0.714775
C83	C	1.339711	0.248152	0.964775
C84	C	1.589711	0.498152	1.214775
C85	C	1.393676	-0.387684	0.464708
C86	C	1.643676	-0.137684	0.714708
C87	C	1.893676	0.112316	0.964708
C88	C	2.143676	0.362316	1.214708
C89	C	1.393694	-0.445798	0.464720
C90	C	1.643694	-0.195798	0.714720
C91	C	1.893694	0.054202	0.964720
C92	C	2.143694	0.304202	1.214720
C93	C	1.332152	-0.696990	0.526420
C94	C	1.582152	-0.446990	0.776420
C95	C	1.832152	-0.196990	1.026420
C96	C	2.082152	0.053010	1.276420
C97	C	1.332117	-0.642386	0.526409
C98	C	1.582117	-0.392386	0.776409
C99	C	1.832117	-0.142386	1.026409
C100	C	2.082117	0.107614	1.276409
O101	O	1.279634	-0.614148	0.578837
O102	O	1.529634	-0.364148	0.828837
O103	O	1.779634	-0.114148	1.078837
O104	O	2.029634	0.135852	1.328837
N105	N	1.393815	-0.615072	0.464771
N106	N	1.643815	-0.365072	0.714771
N107	N	1.893815	-0.115072	0.964771
N108	N	2.143815	0.134928	1.214771
C109	C	1.455560	-0.642364	0.403147
C110	C	1.705560	-0.392364	0.653147
C111	C	1.955560	-0.142364	0.903147
C112	C	2.205560	0.107636	1.153147
O113	O	1.508037	-0.614118	0.350718
O114	O	1.758037	-0.364118	0.600718
O115	O	2.008037	-0.114118	0.850718
O116	O	2.258037	0.135882	1.100718
C117	C	1.455600	-0.696968	0.403163
C118	C	1.705600	-0.446968	0.653163
C119	C	1.955600	-0.196968	0.903163
C120	C	2.205600	0.053032	1.153163
C121	C	1.393891	-0.724279	0.464799
C122	C	1.643891	-0.474279	0.714799
C123	C	1.893891	-0.224279	0.964799
C124	C	2.143891	0.025721	1.214799
C125	C	1.270449	-0.724302	0.588052
C126	C	1.520449	-0.474302	0.838052
C127	C	1.770449	-0.224302	1.088052
C128	C	2.020449	0.025698	1.338052
C129	C	1.270483	-0.778902	0.588061
C130	C	1.520483	-0.528902	0.838061
C131	C	1.770483	-0.278902	1.088061
C132	C	2.020483	-0.028902	1.338061
C133	C	1.332222	-0.806191	0.526440
C134	C	1.582222	-0.556191	0.776440
C135	C	1.832222	-0.306191	1.026440
C136	C	2.082222	-0.056191	1.276440
C137	C	1.393926	-0.778880	0.464809
C138	C	1.643926	-0.528880	0.714809
C139	C	1.893926	-0.278880	0.964809
C140	C	2.143926	-0.028880	1.214809
C141	C	1.517350	-0.724260	0.341545
C142	C	1.767350	-0.474260	0.591545
C143	C	2.017350	-0.224260	0.841545
C144	C	2.267350	0.025740	1.091545
C145	C	1.517385	-0.778867	0.341567
C146	C	1.767385	-0.528867	0.591567
C147	C	2.017385	-0.278867	0.841567
C148	C	2.267385	-0.028867	1.091567
C149	C	1.455675	-0.806178	0.403203
C150	C	1.705675	-0.556178	0.653203
C151	C	1.955675	-0.306178	0.903203
C152	C	2.205675	-0.056178	1.153203
C153	C	1.455699	-0.860769	0.403197
C154	C	1.705699	-0.610769	0.653197
C155	C	1.955699	-0.360769	0.903197
C156	C	2.205699	-0.110769	1.153197
N157	N	1.394000	-0.888084	0.464835
N158	N	1.644000	-0.638084	0.714835
N159	N	1.894000	-0.388084	0.964835
N160	N	2.144000	-0.138084	1.214835
C161	C	1.332262	-0.860795	0.526457
C162	C	1.582262	-0.610795	0.776457
C163	C	1.832262	-0.360795	1.026457
C164	C	2.082262	-0.110795	1.276457
C165	C	1.455473	-0.527694	0.403117
C166	C	1.705473	-0.277694	0.653117
C167	C	1.955473	-0.027694	0.903117
C168	C	2.205473	0.222306	1.153117
C169	C	1.455429	-0.473092	0.403095
C170	C	1.705429	-0.223092	0.653095
C171	C	1.955429	0.026908	0.903095
C172	C	2.205429	0.276908	1.153095
C173	C	1.331986	-0.473117	0.526359
C174	C	1.581986	-0.223117	0.776359
C175	C	1.831986	0.026883	1.026359
C176	C	2.081986	0.276883	1.276359
C177	C	1.332026	-0.527720	0.526376
C178	C	1.582026	-0.277720	0.776376
C179	C	1.832026	-0.027720	1.026376
C180	C	2.082026	0.222280	1.276376
C181	C	1.393775	-0.555008	0.464756
C182	C	1.643775	-0.305008	0.714756
C183	C	1.893775	-0.055008	0.964756
C184	C	2.143775	0.194992	1.214756
C185	C	1.332339	-0.975460	0.526472
C186	C	1.582339	-0.725460	0.776472
C187	C	1.832339	-0.475460	1.026472
C188	C	2.082339	-0.225460	1.276472
C189	C	1.332376	-1.030065	0.526473
C190	C	1.582376	-0.780065	0.776473
C191	C	1.832376	-0.530065	1.026473
C192	C	2.082376	-0.280065	1.276473
C193	C	1.455822	-1.030035	0.403213
C194	C	1.705822	-0.780035	0.653213
C195	C	1.955822	-0.530035	0.903213
C196	C	2.205822	-0.280035	1.153213
C197	C	1.455781	-0.975434	0.403208
C198	C	1.705781	-0.725434	0.653208
C199	C	1.955781	-0.475434	0.903208
C200	C	2.205781	-0.225434	1.153208
C201	C	1.394037	-0.948148	0.464845
C202	C	1.644037	-0.698148	0.714845
C203	C	1.894037	-0.448148	0.964845
C204	C	2.144037	-0.198148	1.214845
O205	O	1.508158	-0.889041	0.350799
O206	O	1.758158	-0.639041	0.600799
O207	O	2.008158	-0.389041	0.850799
O208	O	2.258158	-0.139041	1.100799
O209	O	1.279803	-0.889048	0.578885
O210	O	1.529803	-0.639048	0.828885
O211	O	1.779803	-0.389048	1.078885
O212	O	2.029803	-0.139048	1.328885
C213	C	1.645434	-0.251850	0.464789
C214	C	1.895434	-0.001850	0.714789
C215	C	2.145434	0.248150	0.964789
C216	C	2.395434	0.498150	1.214789
C217	C	1.752648	-0.251853	0.464804
C218	C	2.002648	-0.001853	0.714804
C219	C	2.252648	0.248147	0.964804
C220	C	2.502648	0.498147	1.214804
C221	C	1.393909	-0.251795	0.716348
C222	C	1.643909	-0.001795	0.966348
C223	C	1.893909	0.248205	1.216348
C224	C	2.143909	0.498205	1.466348
C225	C	1.393939	-0.251775	0.823562
C226	C	1.643939	-0.001775	1.073562
C227	C	1.893939	0.248225	1.323562
C228	C	2.143939	0.498225	1.573562
C229	C	1.394033	-0.115468	0.464823
C230	C	1.644033	0.134532	0.714823
C231	C	1.894033	0.384532	0.964823
C232	C	2.144033	0.634532	1.214823
C233	C	1.394115	-0.057354	0.464852
C234	C	1.644115	0.192646	0.714852
C235	C	1.894115	0.442646	0.964852
C236	C	2.144115	0.692646	1.214852
C237	C	1.393828	-0.251849	0.214140
C238	C	1.643828	-0.001849	0.464140
C239	C	1.893828	0.248151	0.714140
C240	C	2.143828	0.498151	0.964140
C241	C	1.393986	-0.251722	0.106927
C242	C	1.643986	-0.001722	0.356927
C243	C	1.893986	0.248278	0.606927
C244	C	2.143986	0.498278	0.856927
C245	C	1.393965	-0.251740	1.019857
C246	C	1.643965	-0.001740	1.269857
C247	C	1.893965	0.248260	1.519857
C248	C	2.143965	0.498260	1.769857
C249	C	1.393947	-0.251761	0.910625
C250	C	1.643947	-0.001761	1.160625
C251	C	1.893947	0.248239	1.410625
C252	C	2.143947	0.498239	1.660625
H253	H	1.282123	-1.052300	0.576666
H254	H	1.532123	-0.802300	0.826666
H255	H	1.782123	-0.552300	1.076666
H256	H	2.032123	-0.302300	1.326666
H257	H	1.281717	-0.450888	0.576536
H258	H	1.531717	-0.200888	0.826536
H259	H	1.781717	0.049112	1.076536
H260	H	2.031717	0.299112	1.326536
F261	F	1.583110	-0.807905	0.275983
F262	F	1.833110	-0.557905	0.525983
F263	F	2.083110	-0.307905	0.775983
F264	F	2.333110	-0.057905	1.025983
H265	H	1.282062	-0.953249	0.576663
H266	H	1.532062	-0.703249	0.826663
H267	H	1.782062	-0.453249	1.076663
H268	H	2.032062	-0.203249	1.326663
H269	H	1.220232	-0.801134	0.638250
H270	H	1.470232	-0.551134	0.888250
H271	H	1.720232	-0.301134	1.138250
H272	H	1.970232	-0.051134	1.388250
H273	H	1.505668	-0.450858	0.352895
H274	H	1.755668	-0.200858	0.602895
H275	H	2.005668	0.049142	0.852895
H276	H	2.255668	0.299142	1.102895
F277	F	1.204734	-0.695267	0.653645
F278	F	1.454734	-0.445267	0.903645
F279	F	1.704734	-0.195267	1.153645
F280	F	1.954734	0.054733	1.403645
F281	F	1.266348	-0.556782	0.591976
F282	F	1.516348	-0.306782	0.841976
F283	F	1.766348	-0.056782	1.091976
F284	F	2.016348	0.193218	1.341976
F285	F	1.521528	-1.059088	0.337637
F286	F	1.771528	-0.809088	0.587637
F287	F	2.021528	-0.559088	0.837637
F288	F	2.271528	-0.309088	1.087637
H289	H	1.505754	-0.549908	0.352931
H290	H	1.755754	-0.299908	0.602931
H291	H	2.005754	-0.049908	0.852931
H292	H	2.255754	0.200092	1.102931
F293	F	1.521441	-0.946367	0.337591
F294	F	1.771441	-0.696367	0.587591
F295	F	2.021441	-0.446367	0.837591
F296	F	2.271441	-0.196367	1.087591
H297	H	1.567600	-0.702030	0.291356
H298	H	1.817600	-0.452030	0.541356
H299	H	2.067600	-0.202030	0.791356
H300	H	2.317600	0.047970	1.041356
