data_functionalizedCrystal
_audit_creation_method	'MofGen! by Chris Wilmer'
_symmetry_space_group_name_H-M	'P1'
_symmetry_Int_Tables_number	1
_symmetry_cell_setting	triclinic
loop_
_symmetry_equiv_pos_as_xyz
  x,y,z
_cell_length_a	17.000383
_cell_length_b	17.038272
_cell_length_c	15.455313
_cell_angle_alpha	92.858370
_cell_angle_beta	87.527906
_cell_angle_gamma	83.355929
loop_
_atom_site_label
_atom_site_type_symbol
_atom_site_fract_x
_atom_site_fract_y
_atom_site_fract_z
O1	O	1.061244	0.024407	-0.072191
O2	O	1.394578	0.357740	0.261143
O3	O	1.727911	0.691073	0.594476
O4	O	0.831424	0.052650	-0.072180
O5	O	1.164757	0.385983	0.261153
O6	O	1.498091	0.719316	0.594487
O7	O	0.944968	-0.075193	-0.072178
O8	O	1.278301	0.258140	0.261155
O9	O	1.611635	0.591473	0.594488
O10	O	0.947700	0.152250	-0.072192
O11	O	1.281034	0.485583	0.261141
O12	O	1.614367	0.818916	0.594474
O13	O	0.938473	-0.067911	0.072084
O14	O	1.271806	0.265423	0.405417
O15	O	1.605140	0.598756	0.738750
O16	O	0.824929	0.059932	0.072082
O17	O	1.158263	0.393266	0.405415
O18	O	1.491596	0.726599	0.738749
O19	O	1.054749	0.031689	0.072071
O20	O	1.388083	0.365022	0.405405
O21	O	1.721416	0.698356	0.738738
Cu22	Cu	0.939246	0.046476	0.085249
Cu23	Cu	1.272580	0.379809	0.418582
Cu24	Cu	1.605913	0.713142	0.751916
Cu25	Cu	0.946927	0.037863	-0.085358
Cu26	Cu	1.280261	0.371197	0.247976
Cu27	Cu	1.613594	0.704530	0.581309
O28	O	0.941206	0.159532	0.072070
O29	O	1.274539	0.492865	0.405403
O30	O	1.607872	0.826199	0.738736
C31	C	0.798626	0.057808	-0.000047
C32	C	1.131959	0.391141	0.333286
C33	C	1.465292	0.724475	0.666619
C34	C	0.710572	0.062319	-0.000043
C35	C	1.043906	0.395652	0.333290
C36	C	1.377239	0.728985	0.666624
C37	C	0.212329	0.091441	-0.000077
C38	C	0.545662	0.424774	0.333256
C39	C	0.878996	0.758108	0.666590
C40	C	0.295065	0.087197	-0.000076
C41	C	0.628398	0.420530	0.333257
C42	C	0.961731	0.753864	0.666590
C43	C	0.341071	0.013531	-0.000065
C44	C	0.674404	0.346865	0.333268
C45	C	1.007737	0.680198	0.666602
C46	C	0.304338	-0.055895	-0.000064
C47	C	0.637671	0.277438	0.333269
C48	C	0.971004	0.610772	0.666603
C49	C	0.221604	-0.051651	-0.000071
C50	C	0.554937	0.281683	0.333262
C51	C	0.888271	0.615016	0.666596
C52	C	0.591106	-0.002864	-0.000049
C53	C	0.924439	0.330470	0.333284
C54	C	1.257772	0.663803	0.666618
C55	C	0.673845	-0.007103	-0.000039
C56	C	1.007178	0.326231	0.333294
C57	C	1.340511	0.659564	0.666628
C58	C	0.664566	0.135990	-0.000053
C59	C	0.997899	0.469323	0.333280
C60	C	1.331233	0.802657	0.666614
C61	C	0.581831	0.140228	-0.000055
C62	C	0.915164	0.473561	0.333278
C63	C	1.248498	0.806895	0.666612
C64	C	0.545105	0.070802	-0.000058
C65	C	0.878439	0.404135	0.333275
C66	C	1.211772	0.737468	0.666608
C67	C	0.425640	0.009192	-0.000061
C68	C	0.758973	0.342525	0.333272
C69	C	1.092306	0.675858	0.666605
C70	C	0.460538	0.075142	-0.000068
C71	C	0.793871	0.408475	0.333265
C72	C	1.127205	0.741808	0.666598
C73	C	0.939236	-0.100510	-0.000047
C74	C	1.272569	0.232823	0.333286
C75	C	1.605903	0.566157	0.666619
C76	C	0.931823	-0.186795	-0.000047
C77	C	1.265156	0.146538	0.333286
C78	C	1.598490	0.479871	0.666619
C79	C	0.999882	-0.241570	-0.000050
C80	C	1.333215	0.091763	0.333284
C81	C	1.666548	0.425096	0.666617
C82	C	0.992912	-0.322644	-0.000057
C83	C	1.326245	0.010689	0.333276
C84	C	1.659579	0.344023	0.666609
C85	C	0.917883	-0.348941	-0.000057
C86	C	1.251216	-0.015607	0.333276
C87	C	1.584550	0.317726	0.666610
C88	C	0.849820	-0.294159	-0.000057
C89	C	1.183153	0.039174	0.333276
C90	C	1.516486	0.372508	0.666610
C91	C	0.856790	-0.213087	-0.000055
C92	C	1.190124	0.120246	0.333278
C93	C	1.523457	0.453579	0.666611
C94	C	0.893258	-0.593013	-0.000068
C95	C	1.226591	-0.259679	0.333266
C96	C	1.559925	0.073654	0.666599
C97	C	0.886292	-0.674091	-0.000067
C98	C	1.219626	-0.340758	0.333267
C99	C	1.552959	-0.007424	0.666600
C100	C	1.029385	-0.702571	-0.000069
C101	C	1.362719	-0.369237	0.333265
C102	C	1.696052	-0.035904	0.666598
C103	C	1.036349	-0.621496	-0.000062
C104	C	1.369683	-0.288162	0.333272
C105	C	1.703016	0.045171	0.666605
C106	C	0.968286	-0.566722	-0.000067
C107	C	1.301619	-0.233388	0.333267
C108	C	1.634953	0.099945	0.666600
C109	C	0.910757	-0.431811	-0.000062
C110	C	1.244091	-0.098477	0.333271
C111	C	1.577424	0.234856	0.666604
C112	C	0.975413	-0.483854	-0.000067
C113	C	1.308746	-0.150520	0.333266
C114	C	1.642079	0.182813	0.666599
C115	C	1.087548	0.026531	-0.000063
C116	C	1.420881	0.359864	0.333270
C117	C	1.754215	0.693197	0.666604
C118	C	1.175601	0.022020	-0.000073
C119	C	1.508935	0.355353	0.333260
C120	C	1.842268	0.688687	0.666593
C121	C	0.946938	0.184849	-0.000063
C122	C	1.280271	0.518182	0.333270
C123	C	1.613604	0.851516	0.666603
C124	C	0.954351	0.271134	-0.000069
C125	C	1.287684	0.604467	0.333264
C126	C	1.621017	0.937801	0.666598
N127	N	0.933850	0.052532	0.205244
N128	N	1.267183	0.385866	0.538578
N129	N	1.600516	0.719199	0.871911
N130	N	0.952330	0.031800	-0.205353
N131	N	1.285663	0.365133	0.127980
N132	N	1.618996	0.698467	0.461314
C133	C	0.982106	-0.001763	0.250639
C134	C	1.315440	0.331571	0.583972
C135	C	1.648773	0.664904	0.917306
C136	C	0.978033	0.002824	0.341447
C137	C	1.311366	0.336158	0.674780
C138	C	1.644700	0.669491	1.008114
C139	C	0.925706	0.061710	0.386858
C140	C	1.259040	0.395044	0.720192
C141	C	1.592373	0.728377	1.053525
C142	C	0.877444	0.116008	0.341457
C143	C	1.210778	0.449341	0.674791
C144	C	1.544111	0.782674	1.008124
C145	C	0.881514	0.111417	0.250651
C146	C	1.214848	0.444750	0.583984
C147	C	1.548181	0.778083	0.917318
C148	C	0.908138	0.081506	0.658440
C149	C	1.241471	0.414840	0.991773
C150	C	1.574804	0.748173	1.325106
C151	C	0.904073	0.086095	0.749252
C152	C	1.237406	0.419428	1.082586
C153	C	1.570740	0.752761	1.415919
C154	C	1.004661	-0.027090	0.749236
C155	C	1.337994	0.306243	1.082569
C156	C	1.671328	0.639577	1.415902
C157	C	1.008730	-0.031673	0.658428
C158	C	1.342063	0.301660	0.991761
C159	C	1.675396	0.634994	1.325094
C160	C	0.960465	0.022622	0.613034
C161	C	1.293798	0.355955	0.946368
C162	C	1.627131	0.689289	1.279701
N163	N	0.921543	0.066402	0.479679
N164	N	1.254877	0.399735	0.813012
N165	N	1.588210	0.733069	1.146345
N166	N	0.964624	0.017926	0.520216
N167	N	1.297958	0.351260	0.853549
N168	N	1.631291	0.684593	1.186883
H169	H	0.694477	0.192513	-0.000052
H170	H	1.027811	0.525846	0.333282
H171	H	1.361144	0.859180	0.666615
H172	H	0.801370	-0.168489	-0.000054
H173	H	1.134703	0.164844	0.333280
H174	H	1.468036	0.498177	0.666613
H175	H	1.097446	-0.600092	-0.000062
H176	H	1.430779	-0.266759	0.333271
H177	H	1.764112	0.066575	0.666605
H178	H	1.048333	-0.367240	-0.000058
H179	H	1.381666	-0.033906	0.333276
H180	H	1.714999	0.299427	0.666609
H181	H	0.191702	-0.108181	-0.000069
H182	H	0.525035	0.225153	0.333264
H183	H	0.858369	0.558486	0.666597
H184	H	1.024720	-0.049711	0.213671
H185	H	1.358053	0.283623	0.547004
H186	H	1.691386	0.616956	0.880338
H187	H	0.423077	0.135120	-0.000081
H188	H	0.756410	0.468453	0.333252
H189	H	1.089743	0.801786	0.666586
H190	H	0.463107	-0.050787	-0.000049
H191	H	0.796440	0.282547	0.333284
H192	H	1.129774	0.615880	0.666617
H193	H	1.060978	-0.220167	-0.000045
H194	H	1.394311	0.113166	0.333289
H195	H	1.727645	0.446500	0.666622
H196	H	1.084798	-0.747176	-0.000066
H197	H	1.418132	-0.413843	0.333267
H198	H	1.751465	-0.080509	0.666600
H199	H	0.825191	-0.695497	-0.000052
H200	H	1.158524	-0.362163	0.333281
H201	H	1.491858	-0.028830	0.666615
H202	H	1.017327	-0.041387	0.378407
H203	H	1.350660	0.291946	0.711740
H204	H	1.683993	0.625280	1.045074
H205	H	0.837835	-0.548424	-0.000071
H206	H	1.171169	-0.215091	0.333262
H207	H	1.504502	0.118242	0.666595
H208	H	1.036502	-0.462440	-0.000087
H209	H	1.369835	-0.129107	0.333246
H210	H	1.703169	0.204226	0.666580
H211	H	0.868840	0.125717	0.621488
H212	H	1.202173	0.459050	0.954821
H213	H	1.535506	0.792383	1.288154
H214	H	1.051338	-0.079623	0.621455
H215	H	1.384672	0.253711	0.954789
H216	H	1.718005	0.587044	1.288122
H217	H	0.849668	-0.453230	-0.000060
H218	H	1.183002	-0.119897	0.333274
H219	H	1.516335	0.213436	0.666607
H220	H	0.788730	-0.315576	-0.000062
H221	H	1.122063	0.017757	0.333271
H222	H	1.455396	0.351090	0.666605
H223	H	1.043955	-0.071295	0.786203
H224	H	1.377289	0.262038	1.119536
H225	H	1.710622	0.595372	1.452870
H226	H	0.861460	0.134050	0.786222
H227	H	1.194794	0.467384	1.119555
H228	H	1.528127	0.800717	1.452889
H229	H	0.842218	0.155628	0.213692
H230	H	1.175551	0.488962	0.547025
H231	H	1.508884	0.822295	0.880358
H232	H	0.174876	0.151428	-0.000080
H233	H	0.508209	0.484761	0.333254
H234	H	0.841543	0.818095	0.666587
H235	H	0.324965	0.143727	-0.000087
H236	H	0.658298	0.477060	0.333246
H237	H	0.991631	0.810393	0.666579
H238	H	0.711302	-0.067093	-0.000034
H239	H	1.044635	0.266240	0.333299
H240	H	1.377968	0.599573	0.666632
H241	H	0.544378	0.200214	-0.000067
H242	H	0.877711	0.533548	0.333267
H243	H	1.211045	0.866881	0.666600
H244	H	0.834835	0.163952	0.378437
H245	H	1.168168	0.497285	0.711770
H246	H	1.501501	0.830618	1.045103
H247	H	0.341803	-0.115875	-0.000060
H248	H	0.675136	0.217458	0.333273
H249	H	1.008469	0.550791	0.666607
H250	H	0.561214	-0.059395	-0.000049
H251	H	0.894547	0.273938	0.333284
H252	H	1.227880	0.607271	0.666618
