data_functionalizedCrystal
_audit_creation_method	'MofGen! by Chris Wilmer'
_symmetry_space_group_name_H-M	'P1'
_symmetry_Int_Tables_number	1
_symmetry_cell_setting	triclinic
loop_
_symmetry_equiv_pos_as_xyz
  x,y,z
_cell_length_a	19.319731
_cell_length_b	19.318970
_cell_length_c	19.315557
_cell_angle_alpha	60.007379
_cell_angle_beta	60.014690
_cell_angle_gamma	59.991495
loop_
_atom_site_label
_atom_site_type_symbol
_atom_site_fract_x
_atom_site_fract_y
_atom_site_fract_z
O1	O	0.095954	-1.011347	0.845684
O2	O	0.036156	-0.787405	0.681392
O3	O	0.177960	-0.929104	0.681276
O4	O	-0.045850	-0.869648	0.845799
O5	O	0.225008	-0.882072	0.728208
O6	O	0.083204	-0.740373	0.728324
O7	O	0.143002	-0.964315	0.892616
Cu8	Cu	0.117399	-0.848050	0.814755
Cu9	Cu	0.061759	-0.903670	0.759252
O10	O	0.001198	-0.822616	0.892732
N11	N	0.156535	-0.808935	0.853797
N12	N	0.022631	-0.942793	0.720211
C13	C	0.182113	-0.653200	0.879374
C14	C	0.182221	-0.783395	1.009518
C15	C	0.312319	-0.783375	0.879314
C16	C	0.182127	-0.783371	0.879357
C17	C	0.214696	-0.750836	0.911890
C18	C	-0.132988	-0.968144	0.694232
C19	C	-0.002674	-0.968326	0.564242
C20	C	-0.002907	-1.098444	0.694459
C21	C	-0.002887	-0.968321	0.694542
C22	C	-0.035363	-1.000810	0.661869
N23	N	0.389025	-0.808944	0.853717
O24	O	0.660019	-0.816766	0.651282
O25	O	0.660312	-0.981573	0.874999
O26	O	0.660193	-0.981192	0.733108
O27	O	0.660138	-0.817147	0.793174
O28	O	0.519202	-0.934278	0.780210
O29	O	0.519321	-0.934658	0.922102
O30	O	0.519028	-0.769852	0.698384
Cu31	Cu	0.506300	-0.847971	0.814544
Cu32	Cu	0.673039	-0.903453	0.758840
O33	O	0.519147	-0.770232	0.840276
N34	N	0.790314	-0.942480	0.719658
N35	N	0.156514	-0.576494	0.853827
O36	O	-0.045823	-0.305328	0.845846
O37	O	0.177892	-0.305317	0.681053
O38	O	0.035967	-0.305340	0.681465
O39	O	0.096102	-0.305306	0.845434
O40	O	0.083020	-0.446347	0.728459
O41	O	0.224945	-0.446325	0.728047
O42	O	0.001230	-0.446335	0.892839
Cu43	Cu	0.117383	-0.459205	0.814734
Cu44	Cu	0.061738	-0.292448	0.759159
O45	O	0.143154	-0.446313	0.892428
N46	N	0.022597	-0.175159	0.720067
N47	N	0.156703	-0.808977	1.086224
O48	O	0.148753	-1.011298	1.357359
O49	O	-0.016009	-0.787491	1.357400
O50	O	-0.015627	-0.929387	1.357339
O51	O	0.148372	-0.869401	1.357420
O52	O	0.031342	-0.882367	1.216340
O53	O	0.030961	-0.740471	1.216400
O54	O	0.195723	-0.964278	1.216360
Cu55	Cu	0.117631	-0.848081	1.203506
Cu56	Cu	0.062083	-0.903688	1.370254
O57	O	0.195341	-0.822381	1.216420
N58	N	0.023010	-0.942801	1.487536
C59	C	0.054075	-0.735670	0.682223
C60	C	0.229681	-0.911148	0.682079
C61	C	0.125082	-1.016051	0.891784
C62	C	-0.050524	-0.840572	0.891928
C63	C	0.589851	-0.980810	0.926735
C64	C	0.589706	-0.980340	0.751019
C65	C	0.589484	-0.770613	0.646650
C66	C	0.589634	-0.771085	0.822364
C67	C	0.229543	-0.375646	0.681799
C68	C	0.053845	-0.375847	0.682366
C69	C	-0.050480	-0.375832	0.892036
C70	C	0.125277	-0.375807	0.891527
C71	C	-0.015214	-0.735785	1.286905
C72	C	-0.014732	-0.911497	1.286802
C73	C	0.194928	-1.015984	1.286855
C74	C	0.194457	-0.840261	1.286926
H75	H	0.293962	-0.923825	0.630414
H76	H	0.589622	-0.719555	0.835218
C77	C	-0.083372	-0.928731	1.286821
C78	C	-0.102655	-0.996929	1.359310
C79	C	-0.165874	-1.012837	1.359351
H80	H	-0.132774	-0.879787	1.286851
H81	H	-0.063764	-0.942220	1.237648
H82	H	-0.122266	-0.983436	1.408470
H83	H	-0.053273	-1.045887	1.359295
H84	H	-0.146266	-1.026326	1.310178
H85	H	-0.215270	-0.963889	1.359379
H86	H	-0.178960	-1.059115	1.408529
H87	H	0.589389	-0.718870	0.582402
C88	C	-0.136075	-0.376003	0.961107
C89	C	-0.124863	-0.448551	1.031999
C90	C	-0.203697	-0.448741	1.095637
H91	H	-0.161507	-0.326883	0.976612
H92	H	-0.171722	-0.376056	0.940684
H93	H	-0.089229	-0.448490	1.052420
H94	H	-0.099444	-0.497683	1.016522
H95	H	-0.239344	-0.448794	1.075213
H96	H	-0.229123	-0.399617	1.111134
H97	H	-0.196101	-0.497967	1.143741
H98	H	0.293660	-0.375252	0.629934
H99	H	0.138154	-0.375795	0.943037
H100	H	0.245979	-0.827427	1.286940
C101	C	-0.136194	-0.823861	0.960915
C102	C	-0.136185	-0.896315	1.033406
C103	C	-0.215093	-0.880955	1.096969
H104	H	-0.146586	-0.777683	0.974287
H105	H	-0.179339	-0.810485	0.941489
H106	H	-0.093053	-0.909679	1.052829
H107	H	-0.125808	-0.942502	1.020061
H108	H	-0.258237	-0.867580	1.077543
H109	H	-0.225477	-0.834775	1.110334
H110	H	-0.215099	-0.930114	1.146159
H111	H	-0.066941	-0.671507	1.286916
H112	H	0.040966	-0.375849	0.630853
C113	C	0.263785	-1.101757	1.286878
C114	C	0.233402	-1.154081	1.286864
C115	C	0.296805	-1.233104	1.286895
H116	H	0.311989	-1.094451	1.237728
H117	H	0.279190	-1.127182	1.336074
H118	H	0.218009	-1.128662	1.237673
H119	H	0.185206	-1.161411	1.336010
H120	H	0.312210	-1.258529	1.336090
H121	H	0.345006	-1.225789	1.237744
H122	H	0.276197	-1.268618	1.286893
H123	H	0.041301	-0.671339	0.630625
H124	H	0.137858	-1.080380	0.943384
H125	H	0.589730	-1.031874	0.738162
C126	C	0.590001	-1.049709	1.012447
C127	C	0.590043	-1.019329	1.064773
C128	C	0.590192	-1.082778	1.143733
H129	H	0.540874	-1.065190	1.037939
H130	H	0.639215	-1.097875	1.005022
H131	H	0.540834	-0.971178	1.072202
H132	H	0.639166	-1.003853	1.039309
H133	H	0.639406	-1.130944	1.136307
H134	H	0.541065	-1.098255	1.169217
H135	H	0.590228	-1.062176	1.179243
