data_functionalizedCrystal
_audit_creation_method	'MofGen! by Chris Wilmer'
_symmetry_space_group_name_H-M	'P1'
_symmetry_Int_Tables_number	1
_symmetry_cell_setting	triclinic
loop_
_symmetry_equiv_pos_as_xyz
  x,y,z
_cell_length_a	12.759401
_cell_length_b	13.897448
_cell_length_c	12.759393
_cell_angle_alpha	89.966603
_cell_angle_beta	89.981504
_cell_angle_gamma	90.017969
loop_
_atom_site_label
_atom_site_type_symbol
_atom_site_fract_x
_atom_site_fract_y
_atom_site_fract_z
Zn1	Zn	1.606233	-0.383950	-0.593970
Zn2	Zn	1.606118	-0.545280	-0.418284
Zn3	Zn	1.430535	-0.384001	-0.418309
Zn4	Zn	1.430515	-0.545206	-0.593926
O5	O	1.518350	-0.464609	-0.506122
O6	O	1.753239	-0.405361	-0.570673
O7	O	1.582788	-0.523938	-0.271266
O8	O	1.453899	-0.249013	-0.441639
O9	O	1.753155	-0.523889	-0.441597
O10	O	1.582983	-0.248976	-0.570696
O11	O	1.453787	-0.405448	-0.271284
O12	O	1.283511	-0.405376	-0.441597
O13	O	1.453863	-0.523763	-0.740952
O14	O	1.283496	-0.523812	-0.570621
O15	O	1.582963	-0.405289	-0.740985
O16	O	1.582768	-0.680252	-0.441555
O17	O	1.453752	-0.680197	-0.570598
C18	C	1.245383	-0.464592	-0.506108
C19	C	1.128606	-0.464608	-0.506126
C20	C	1.518274	-0.715224	-0.506092
C21	C	1.518337	-0.822438	-0.506114
C22	C	0.964033	-0.526386	-0.573211
C23	C	1.073757	-0.526375	-0.573200
C24	C	1.073726	-0.402854	-0.439051
C25	C	0.964004	-0.402871	-0.439058
C26	C	1.223703	-0.640153	-0.610511
C27	C	1.278579	-0.701895	-0.677595
C28	C	1.243005	-0.716821	-0.780083
C29	C	1.152556	-0.669990	-0.815508
C30	C	1.097685	-0.608240	-0.748430
C31	C	1.133258	-0.593333	-0.645927
C32	C	0.814056	-0.289092	-0.401758
C33	C	0.759184	-0.227337	-0.334684
C34	C	0.794756	-0.212401	-0.232194
C35	C	0.885208	-0.259215	-0.196773
C36	C	0.940081	-0.320971	-0.263847
C37	C	0.904501	-0.335908	-0.366335
C38	C	1.518447	-1.018733	-0.506180
C39	C	1.518383	-0.909500	-0.506146
C40	C	1.792384	-0.464627	-0.506137
C41	C	1.909160	-0.464635	-0.506144
C42	C	1.518424	-0.464512	-0.780155
C43	C	1.518455	-0.464470	-0.896932
C44	C	1.518456	-0.213016	-0.506176
C45	C	1.518501	-0.105802	-0.506198
C46	C	1.451309	-0.402761	-0.951803
C47	C	1.451333	-0.402731	-1.061527
C48	C	1.585659	-0.526123	-1.061500
C49	C	1.585629	-0.526157	-0.951778
C50	C	1.327485	-0.368211	-1.211481
C51	C	1.260348	-0.306486	-1.266356
C52	C	1.244249	-0.212376	-1.230770
C53	C	1.295302	-0.179972	-1.140311
C54	C	1.362447	-0.241691	-1.085442
C55	C	1.378526	-0.335814	-1.121026
C56	C	1.709479	-0.560667	-0.801822
C57	C	1.776630	-0.622383	-0.746951
C58	C	1.792739	-0.716494	-0.782535
C59	C	1.741704	-0.748895	-0.872997
C60	C	1.674553	-0.687180	-0.927868
C61	C	1.658442	-0.593070	-0.892277
C62	C	1.518338	-0.464637	-0.233155
C63	C	1.518510	-0.464407	-0.116379
H64	H	0.919382	-0.576679	-0.627836
H65	H	1.818196	-0.595989	-0.673299
H66	H	1.123606	-0.682138	-0.898969
F67	F	0.662920	-0.177506	-0.372389
H68	H	1.352223	-0.740025	-0.648742
F69	F	1.758854	-0.849058	-0.910877
F70	F	1.692320	-0.460507	-0.763931
F71	F	1.001430	-0.558400	-0.786126
H72	H	1.287693	-0.767093	-0.834703
F73	F	1.261564	-0.624282	-0.501427
H74	H	1.189584	-0.162120	-1.275457
H75	H	1.118393	-0.352566	-0.384434
F76	F	0.776195	-0.304979	-0.510844
F77	F	1.036347	-0.370798	-0.226144
H78	H	0.914175	-0.247050	-0.113319
H79	H	1.847429	-0.766738	-0.737854
F80	F	1.416781	-0.207209	-0.989175
H81	H	0.750074	-0.162105	-0.177588
H82	H	1.396611	-0.352532	-0.907151
F83	F	1.278177	-0.079800	-1.102452
H84	H	1.218780	-0.332879	-1.340008
H85	H	1.340574	-0.444846	-1.240456
H86	H	1.640350	-0.576345	-1.106169
H87	H	1.633000	-0.713568	-1.001530
