data_functionalizedCrystal
_audit_creation_method	'MofGen! by Chris Wilmer'
_symmetry_space_group_name_H-M	'P1'
_symmetry_Int_Tables_number	1
_symmetry_cell_setting	triclinic
loop_
_symmetry_equiv_pos_as_xyz
  x,y,z
_cell_length_a	19.121102
_cell_length_b	12.759399
_cell_length_c	12.759393
_cell_angle_alpha	89.969094
_cell_angle_beta	92.461703
_cell_angle_gamma	92.430450
loop_
_atom_site_label
_atom_site_type_symbol
_atom_site_fract_x
_atom_site_fract_y
_atom_site_fract_z
Zn1	Zn	1.073807	0.486843	0.662511
Zn2	Zn	1.573807	0.986843	1.162511
Zn3	Zn	1.073733	0.662554	0.486825
Zn4	Zn	1.573733	1.162554	0.986825
Zn5	Zn	0.956348	0.479387	0.479354
Zn6	Zn	1.456348	0.979387	0.979354
Zn7	Zn	0.956342	0.654973	0.654974
Zn8	Zn	1.456342	1.154973	1.154974
O9	O	1.015058	0.570939	0.570916
O10	O	1.515058	1.070939	1.070916
O11	O	1.172082	0.516444	0.645486
O12	O	1.672082	1.016444	1.145486
O13	O	1.058134	0.638309	0.338811
O14	O	1.558134	1.138309	0.838811
O15	O	0.971963	0.333357	0.503677
O16	O	1.471963	0.833357	1.003677
O17	O	1.172028	0.645538	0.516411
O18	O	1.672028	1.145538	1.016411
O19	O	1.058259	0.338835	0.638242
O20	O	1.558259	0.838835	1.138242
O21	O	0.971892	0.503737	0.333322
O22	O	1.471892	1.003737	0.833322
O23	O	0.858062	0.496386	0.496369
O24	O	1.358062	0.996386	0.996369
O25	O	0.971952	0.632618	0.802997
O26	O	1.471952	1.132618	1.302997
O27	O	0.858058	0.625389	0.625397
O28	O	1.358058	1.125389	1.125397
O29	O	1.058253	0.509093	0.808534
O30	O	1.558253	1.009093	1.308534
O31	O	1.058128	0.808567	0.509103
O32	O	1.558128	1.308567	1.009103
O33	O	0.971881	0.802998	0.632641
O34	O	1.471881	1.302998	1.132641
C35	C	0.832576	0.559257	0.559255
C36	C	1.332576	1.059257	1.059255
C37	C	0.754509	0.554284	0.554292
C38	C	1.254509	1.054284	1.054292
C39	C	1.015015	0.843904	0.570889
C40	C	1.515015	1.343904	1.070889
C41	C	1.015060	0.960683	0.570917
C42	C	1.515060	1.460683	1.070917
C43	C	1.015110	0.570842	0.844953
C44	C	1.515110	1.070842	1.344953
C45	C	1.015133	0.570800	0.961731
C46	C	1.515133	1.070800	1.461731
C47	C	0.717849	0.619214	0.619032
C48	C	1.217849	1.119214	1.119032
C49	C	0.644497	0.614528	0.614373
C50	C	1.144497	1.114528	1.114373
C51	C	0.607807	0.544916	0.544968
C52	C	1.107807	1.044916	1.044968
C53	C	0.644472	0.479980	0.480225
C54	C	1.144472	0.979980	0.980225
C55	C	0.717822	0.484661	0.484890
C56	C	1.217822	0.984661	0.984890
C57	C	0.386334	0.527411	0.527533
C58	C	0.886334	1.027411	1.027533
C59	C	0.312979	0.522737	0.522871
C60	C	0.812979	1.022737	1.022871
C61	C	0.313009	0.657284	0.657021
C62	C	0.813009	1.157284	1.157021
C63	C	0.386361	0.661964	0.661675
C64	C	0.886361	1.161964	1.161675
C65	C	0.423020	0.597023	0.596936
C66	C	0.923020	1.097023	1.096936
C67	C	0.532829	0.540127	0.540202
C68	C	1.032829	1.040127	1.040202
C69	C	0.497996	0.601808	0.601708
C70	C	0.997996	1.101808	1.101708
C71	C	1.198252	0.582668	0.582623
C72	C	1.698252	1.082668	1.082623
C73	C	1.276319	0.587666	0.587611
C74	C	1.776319	1.087666	1.087611
C75	C	1.015120	0.296910	0.570967
C76	C	1.515120	0.796910	1.070967
C77	C	1.015147	0.180135	0.570989
C78	C	1.515147	0.680135	1.070989
C79	C	1.060020	1.018414	0.506670
C80	C	1.560020	1.518414	1.006670
C81	C	1.060065	1.128141	0.506708
C82	C	1.560065	1.628141	1.006708
C83	C	0.970185	1.122397	0.635243
C84	C	1.470185	1.622397	1.135243
C85	C	0.970144	1.012672	0.635209
C86	C	1.470144	1.512672	1.135209
C87	C	1.015046	0.570963	0.297948
C88	C	1.515046	1.070963	0.797948
C89	C	1.015159	0.570717	0.181179
C90	C	1.515159	1.070717	0.681179
C91	C	1.060073	0.506470	1.019478
C92	C	1.560073	1.006470	1.519478
C93	C	1.060085	0.506426	1.129203
C94	C	1.560085	1.006426	1.629203
C95	C	0.970214	0.635050	1.123424
C96	C	1.470214	1.135050	1.623424
C97	C	0.970199	0.635088	1.013701
C98	C	1.470199	1.135088	1.513701
H99	H	0.747717	0.675902	0.675546
H100	H	1.247717	1.175902	1.175546
H101	H	0.933599	0.687472	0.966681
H102	H	1.433599	1.187472	1.466681
H103	H	1.096658	0.454120	0.977167
H104	H	1.596658	0.954120	1.477167
H105	H	0.416230	0.718651	0.718190
H106	H	0.916230	1.218651	1.218190
Cl107	Cl	0.598413	0.696158	0.695765
Cl108	Cl	1.098413	1.196158	1.195765
Cl109	Cl	1.116489	0.953060	0.425849
Cl110	Cl	1.616489	1.453060	0.925849
H111	H	1.096677	1.175140	0.454394
H112	H	1.596677	1.675140	0.954394
Cl113	Cl	0.266920	0.738920	0.738400
Cl114	Cl	0.766920	1.238920	1.238400
H115	H	1.096678	0.454040	1.176216
H116	H	1.596678	0.954040	1.676216
Cl117	Cl	0.763909	0.403029	0.403501
Cl118	Cl	1.263909	0.903029	0.903501
H119	H	0.933614	1.164740	0.687586
H120	H	1.433614	1.664740	1.187586
H121	H	0.933633	0.687393	1.165751
H122	H	1.433633	1.187393	1.665751
Cl123	Cl	0.266854	0.435226	0.435604
Cl124	Cl	0.766854	0.935226	0.935604
Cl125	Cl	0.432410	0.445768	0.446149
Cl126	Cl	0.932410	0.945768	0.946149
H127	H	0.502947	0.483452	0.483690
H128	H	1.002947	0.983452	0.983690
Cl129	Cl	0.913622	0.940092	0.715990
Cl130	Cl	1.413622	1.440092	1.215990
H131	H	0.614592	0.423296	0.423719
H132	H	1.114592	0.923296	0.923719
H133	H	0.527873	0.658480	0.658222
H134	H	1.027873	1.158480	1.158222
