data_functionalizedCrystal
_audit_creation_method	'MofGen! by Chris Wilmer'
_symmetry_space_group_name_H-M	'P1'
_symmetry_Int_Tables_number	1
_symmetry_cell_setting	triclinic
loop_
_symmetry_equiv_pos_as_xyz
  x,y,z
_cell_length_a	12.594516
_cell_length_b	10.685972
_cell_length_c	10.685880
_cell_angle_alpha	99.082357
_cell_angle_beta	94.341733
_cell_angle_gamma	85.618924
loop_
_atom_site_label
_atom_site_type_symbol
_atom_site_fract_x
_atom_site_fract_y
_atom_site_fract_z
Zn1	Zn	-0.350763	-1.995735	-0.866739
Zn2	Zn	-0.516122	-1.979322	-0.654490
Zn3	Zn	-0.350812	-1.767175	-0.638206
Zn4	Zn	-0.541360	-1.783433	-0.850390
O5	O	-0.439764	-1.881416	-0.752456
O6	O	-0.362115	-2.171191	-0.852240
O7	O	-0.483652	-1.937507	-0.474704
O8	O	-0.201857	-1.797559	-0.668547
O9	O	-0.483604	-2.159132	-0.696303
O10	O	-0.201821	-1.965481	-0.836450
O11	O	-0.362200	-1.781643	-0.462739
O12	O	-0.386671	-1.591698	-0.652695
O13	O	-0.526618	-1.825269	-1.030186
O14	O	-0.526666	-1.603643	-0.808587
O15	O	-0.386587	-1.981246	-1.042197
O16	O	-0.668418	-1.953272	-0.680451
O17	O	-0.686960	-1.809353	-0.824377
C18	C	-0.459413	-1.551613	-0.727101
C19	C	-0.467847	-1.410523	-0.716284
C20	C	-0.716309	-1.881332	-0.752437
C21	C	-0.834612	-1.881416	-0.752481
C22	C	-0.913986	-1.803125	-0.830702
C23	C	-0.979788	-1.763311	-0.712505
C24	C	-0.979603	-1.921347	-0.870707
C25	C	-0.898856	-1.841535	-0.634218
C26	C	-0.898667	-1.999631	-0.792501
C27	C	-0.964429	-1.959854	-0.674228
C28	C	-0.162139	-1.881537	-0.752506
C29	C	-0.043831	-1.881589	-0.752527
C30	C	-0.459412	-1.906902	-1.083536
C31	C	-0.467785	-1.917762	-1.224622
C32	C	-0.420031	-1.212507	-0.777906
C33	C	-0.411603	-1.353597	-0.788735
C34	C	-0.420111	-1.856103	-0.422671
C35	C	-0.411424	-1.845488	-0.281604
H36	H	-0.891503	-1.736782	-0.896738
H37	H	-0.356769	-1.775292	-1.222453
H38	H	-1.015276	-1.663420	-0.678690
H39	H	-0.522454	-1.351316	-0.645968
H40	H	-0.522448	-1.987958	-1.283780
O41	O	-0.856875	-1.800980	-0.514980
C42	C	-0.754187	-1.645300	-0.380121
C43	C	-0.801694	-1.691078	-0.515204
H44	H	-0.709544	-1.556454	-0.380262
H45	H	-0.821170	-1.622432	-0.312431
H46	H	-0.696612	-1.723192	-0.347678
H47	H	-0.859257	-1.613240	-0.547763
H48	H	-0.734656	-1.713984	-0.582811
O49	O	-0.346614	-1.424282	-0.872756
C50	C	-0.333827	-1.587396	-1.055471
C51	C	-0.407551	-1.507400	-0.960420
H52	H	-0.383061	-1.654634	-1.126355
H53	H	-0.292859	-1.521914	-1.108378
H54	H	-0.270957	-1.644923	-1.001980
H55	H	-0.470480	-1.449863	-1.013813
H56	H	-0.448439	-1.572949	-0.907514
O57	O	-0.990967	-2.038765	-0.595060
C58	C	-0.979558	-2.085928	-0.381070
C59	C	-0.949450	-1.996454	-0.470584
H60	H	-0.945986	-2.051769	-0.280417
H61	H	-1.070136	-2.086049	-0.382187
H62	H	-0.944779	-2.186273	-0.414368
H63	H	-0.984158	-1.896068	-0.437350
H64	H	-0.858865	-1.996443	-0.469457
H65	H	-1.014907	-1.955050	-0.970671
O66	O	-0.856393	-2.118755	-0.833121
C67	C	-0.849757	-2.295476	-1.003657
C68	C	-0.897695	-2.160558	-0.957808
H69	H	-0.883147	-2.329325	-1.104461
H70	H	-0.759236	-2.294439	-1.002436
H71	H	-0.871455	-2.362586	-0.937965
H72	H	-0.876078	-2.093371	-1.023459
H73	H	-0.988206	-2.161697	-0.958997
