data_functionalizedCrystal
_audit_creation_method	'MofGen! by Chris Wilmer'
_symmetry_space_group_name_H-M	'P1'
_symmetry_Int_Tables_number	1
_symmetry_cell_setting	triclinic
loop_
_symmetry_equiv_pos_as_xyz
  x,y,z
_cell_length_a	6.817900
_cell_length_b	11.102288
_cell_length_c	14.858340
_cell_angle_alpha	93.470150
_cell_angle_beta	104.519754
_cell_angle_gamma	108.605689
loop_
_atom_site_label
_atom_site_type_symbol
_atom_site_fract_x
_atom_site_fract_y
_atom_site_fract_z
V1	V	-4.064505	-0.176650	-0.289960
O2	O	-4.024433	0.007655	-0.284441
O3	O	-4.041604	-0.349464	-0.287977
O4	O	-4.020777	-0.174298	-0.416422
O5	O	-4.045404	-0.168724	-0.155107
V6	V	-4.544224	-0.154561	-0.273831
O7	O	-4.334109	-0.225102	-0.325342
O8	O	-4.724817	-0.106109	-0.238449
O9	O	-4.343918	0.018253	-0.275814
O10	O	-4.701693	-0.338866	-0.279351
O11	O	-4.680722	-0.162487	-0.408685
O12	O	-4.364745	-0.156913	-0.147369
C13	C	-3.892657	-0.391581	-0.283403
C14	C	-3.955250	-0.532862	-0.282625
C15	C	-4.167912	-0.605722	-0.286899
C16	C	-4.226717	-0.738472	-0.286175
C17	C	-3.860175	-0.725488	-0.276899
C18	C	-3.801377	-0.592742	-0.277629
C19	C	-3.866089	-0.168138	-0.447246
C20	C	-3.911788	-0.167359	-0.550629
C21	C	-3.948899	-0.166725	-0.634588
C22	C	-3.995470	-0.165924	-0.739917
C23	C	-4.032604	-0.165286	-0.823869
C24	C	-4.079180	-0.164488	-0.929205
C25	C	-4.156209	0.060364	-0.280386
C26	C	-4.072854	0.201643	-0.281170
C27	C	-4.182776	-0.163077	-0.116540
C28	C	-4.116314	-0.163850	-0.013156
H29	H	-3.734905	-0.774258	-0.272829
H30	H	-4.293208	-0.556972	-0.290965
C31	C	-3.567439	-0.512584	-0.272926
H32	H	-3.554469	-0.424953	-0.274087
H33	H	-3.472105	-0.519905	-0.216418
H34	H	-3.531441	-0.543434	-0.325392
C35	C	-4.460639	-0.818611	-0.290870
H36	H	-4.543845	-0.763931	-0.293943
H37	H	-4.520867	-0.882427	-0.345262
H38	H	-4.461523	-0.858901	-0.236287
