data_functionalizedCrystal
_audit_creation_method	'MofGen! by Chris Wilmer'
_symmetry_space_group_name_H-M	'P1'
_symmetry_Int_Tables_number	1
_symmetry_cell_setting	triclinic
loop_
_symmetry_equiv_pos_as_xyz
  x,y,z
_cell_length_a	16.625546
_cell_length_b	13.897449
_cell_length_c	13.897441
_cell_angle_alpha	90.026069
_cell_angle_beta	89.966553
_cell_angle_gamma	89.977604
loop_
_atom_site_label
_atom_site_type_symbol
_atom_site_fract_x
_atom_site_fract_y
_atom_site_fract_z
Zn1	Zn	-0.320977	-1.474671	-0.545499
Zn2	Zn	0.012356	-1.141337	-0.212166
Zn3	Zn	0.345689	-0.808004	0.121167
Zn4	Zn	-0.455828	-1.474551	-0.384193
Zn5	Zn	-0.122494	-1.141218	-0.050859
Zn6	Zn	0.210839	-0.807885	0.282474
Zn7	Zn	-0.321013	-1.313360	-0.384203
Zn8	Zn	0.012321	-0.980026	-0.050869
Zn9	Zn	0.345654	-0.646693	0.282464
Zn10	Zn	-0.455772	-1.313328	-0.545430
Zn11	Zn	-0.122438	-0.979995	-0.212097
Zn12	Zn	0.210895	-0.646661	0.121236
O13	O	-0.388397	-1.393977	-0.464831
O14	O	-0.055064	-1.060644	-0.131498
O15	O	0.278269	-0.727311	0.201835
O16	O	-0.338874	-1.609636	-0.524126
O17	O	-0.005541	-1.276303	-0.190793
O18	O	0.327792	-0.942970	0.142540
O19	O	-0.437982	-1.453132	-0.249212
O20	O	-0.104649	-1.119799	0.084121
O21	O	0.228684	-0.786465	0.417454
O22	O	-0.208176	-1.334821	-0.405632
O23	O	0.125158	-1.001488	-0.072299
O24	O	0.458491	-0.668155	0.261034
O25	O	-0.437948	-1.609549	-0.405615
O26	O	-0.104615	-1.276215	-0.072282
O27	O	0.228718	-0.942882	0.261052
O28	O	-0.208150	-1.453336	-0.524136
O29	O	0.125184	-1.120002	-0.190803
O30	O	0.458517	-0.786669	0.142531
O31	O	-0.338934	-1.334705	-0.249220
O32	O	-0.005601	-1.001372	0.084114
O33	O	0.327732	-0.668039	0.417447
O34	O	-0.338880	-1.178374	-0.405565
O35	O	-0.005547	-0.845041	-0.072232
O36	O	0.327787	-0.511707	0.261101
O37	O	-0.437853	-1.334767	-0.680421
O38	O	-0.104519	-1.001434	-0.347088
O39	O	0.228814	-0.668101	-0.013755
O40	O	-0.437887	-1.178351	-0.524018
O41	O	-0.104553	-0.845017	-0.190685
O42	O	0.228780	-0.511684	0.142648
O43	O	-0.338820	-1.453305	-0.680472
O44	O	-0.005487	-1.119972	-0.347139
O45	O	0.327847	-0.786638	-0.013805
O46	O	-0.568653	-1.453101	-0.405548
O47	O	-0.235319	-1.119768	-0.072215
O48	O	0.098014	-0.786435	0.261118
O49	O	-0.568611	-1.334651	-0.524009
O50	O	-0.235278	-1.001318	-0.190675
O51	O	0.098055	-0.667985	0.142658
C52	C	-0.388382	-1.143363	-0.464786
C53	C	-0.055048	-0.810030	-0.131453
C54	C	0.278285	-0.476696	0.201881
C55	C	-0.388394	-1.036149	-0.464789
C56	C	-0.055061	-0.702816	-0.131456
C57	C	0.278272	-0.369482	0.201877
C58	C	-0.388396	-0.949079	-0.464801
C59	C	-0.055063	-0.615746	-0.131468
C60	C	0.278271	-0.282413	0.201865
C61	C	-0.388400	-0.839847	-0.464826
C62	C	-0.055067	-0.506514	-0.131492
C63	C	0.278267	-0.173180	0.201841
C64	C	-0.597888	-1.393886	-0.464791
C65	C	-0.264555	-1.060553	-0.131458
C66	C	0.068778	-0.727219	0.201876
C67	C	-0.687509	-1.393935	-0.464806
C68	C	-0.354176	-1.060602	-0.131473
C69	C	-0.020843	-0.727269	0.201861
C70	C	-1.015685	-1.394104	-0.464906
C71	C	-0.682352	-1.060770	-0.131573
C72	C	-0.349018	-0.727437	0.201760
C73	C	-0.924376	-1.394054	-0.464881
C74	C	-0.591043	-1.060720	-0.131548
C75	C	-0.257710	-0.727387	0.201786
C76	C	-0.851600	-1.394019	-0.464856
C77	C	-0.518267	-1.060685	-0.131522
C78	C	-0.184933	-0.727352	0.201811
C79	C	-0.760286	-1.393970	-0.464831
C80	C	-0.426952	-1.060637	-0.131498
C81	C	-0.093619	-0.727304	0.201835
C82	C	-0.178088	-1.394095	-0.464893
C83	C	0.155245	-1.060762	-0.131560
C84	C	0.488578	-0.727429	0.201774
C85	C	-0.088467	-1.394146	-0.464919
C86	C	0.244866	-1.060812	-0.131586
C87	C	0.578199	-0.727479	0.201747
C88	C	-0.388326	-1.394046	-0.716424
C89	C	-0.054993	-1.060713	-0.383091
C90	C	0.278341	-0.727379	-0.049758
C91	C	-0.388296	-1.394075	-0.823638
C92	C	-0.054962	-1.060742	-0.490305
C93	C	0.278371	-0.727408	-0.156972
C94	C	-0.388410	-0.645570	-0.464866
C95	C	-0.055077	-0.312237	-0.131532
C96	C	0.278256	0.021096	0.201801
C97	C	-0.388408	-0.752784	-0.464850
C98	C	-0.055074	-0.419451	-0.131517
C99	C	0.278259	-0.086118	0.201816
C100	C	-0.388241	-1.394101	-1.019934
C101	C	-0.054908	-1.060768	-0.686600
C102	C	0.278426	-0.727435	-0.353267
C103	C	-0.388274	-1.394084	-0.910701
C104	C	-0.054940	-1.060750	-0.577368
C105	C	0.278393	-0.727417	-0.244034
C106	C	-0.388410	-1.393965	-0.214217
C107	C	-0.055077	-1.060631	0.119116
C108	C	0.278257	-0.727298	0.452450
C109	C	-0.388213	-1.394122	-0.107004
C110	C	-0.054880	-1.060789	0.226330
C111	C	0.278453	-0.727456	0.559663
