data_functionalizedCrystal
_audit_creation_method	'MofGen! by Chris Wilmer'
_symmetry_space_group_name_H-M	'P1'
_symmetry_Int_Tables_number	1
_symmetry_cell_setting	triclinic
loop_
_symmetry_equiv_pos_as_xyz
  x,y,z
_cell_length_a	21.295417
_cell_length_b	12.827893
_cell_length_c	12.827885
_cell_angle_alpha	89.980538
_cell_angle_beta	89.961900
_cell_angle_gamma	90.030667
loop_
_atom_site_label
_atom_site_type_symbol
_atom_site_fract_x
_atom_site_fract_y
_atom_site_fract_z
Zn1	Zn	-0.250576	1.597562	-0.590788
Zn2	Zn	-0.355858	1.597409	-0.416023
Zn3	Zn	-0.250607	1.422803	-0.416062
Zn4	Zn	-0.355812	1.422742	-0.590723
O5	O	-0.303213	1.510129	-0.503399
O6	O	-0.264548	1.743778	-0.567616
O7	O	-0.341929	1.574209	-0.269792
O8	O	-0.162514	1.446074	-0.439283
O9	O	-0.341899	1.743665	-0.439217
O10	O	-0.162491	1.574469	-0.567654
O11	O	-0.264601	1.445926	-0.269821
O12	O	-0.264556	1.276559	-0.439220
O13	O	-0.341819	1.445971	-0.736968
O14	O	-0.341850	1.276514	-0.567543
O15	O	-0.264503	1.574410	-0.737016
O16	O	-0.443941	1.574150	-0.439154
O17	O	-0.443907	1.445823	-0.567505
C18	C	-0.303202	1.238619	-0.503379
C19	C	-0.303212	1.122466	-0.503396
C20	C	-0.265004	1.070737	-0.567030
C21	C	-0.265014	0.950686	-0.567049
C22	C	-0.466765	1.509992	-0.503341
C23	C	-0.536733	1.510029	-0.503351
C24	C	-0.569596	1.576908	-0.436587
C25	C	-0.635339	1.576957	-0.436611
C26	C	-0.668215	1.510108	-0.503387
C27	C	-0.635344	1.443224	-0.570165
C28	C	-0.569603	1.443185	-0.570147
N29	N	-0.771481	1.418692	-0.511347
N30	N	-0.833932	1.418732	-0.511358
C31	C	-0.866290	1.510225	-0.503447
N32	N	-0.833837	1.601678	-0.495505
N33	N	-0.771380	1.601636	-0.495488
C34	C	-0.739501	1.510144	-0.503415
C35	C	-0.970439	1.577163	-0.436705
C36	C	-1.036183	1.577214	-0.436736
C37	C	-1.036187	1.443472	-0.570284
C38	C	-0.970444	1.443431	-0.570259
C39	C	-0.937574	1.510275	-0.503464
C40	C	-0.139023	1.510295	-0.503480
C41	C	-0.069055	1.510366	-0.503515
C42	C	-0.303225	1.782699	-0.503420
C43	C	-0.303230	1.898852	-0.503428
C44	C	-0.303153	1.510201	-0.775969
C45	C	-0.303127	1.510232	-0.892123
C46	C	-0.264855	1.446774	-0.943922
C47	C	-0.264828	1.446804	-1.063972
C48	C	-0.303228	1.510117	-0.231889
C49	C	-0.303076	1.510289	-0.115737
H50	H	-0.542836	1.631339	-0.382202
N51	N	-1.069743	1.645538	-0.368522
N52	N	-1.062452	1.638648	-0.272087
H53	H	-1.086153	1.686904	-0.223908
H54	H	-0.232113	1.392418	-0.899392
N55	N	-0.936862	1.645472	-0.368508
N56	N	-0.900126	1.712020	-0.405334
H57	H	-0.876414	1.760269	-0.357173
H58	H	-0.662102	1.631422	-0.382244
H59	H	-0.232059	1.392480	-1.108518
H60	H	-0.232284	1.115326	-0.621493
N61	N	-0.344278	0.954627	-0.435076
N62	N	-0.402376	0.942479	-0.441817
H63	H	-0.431367	0.981874	-0.393542
H64	H	-0.335841	1.564625	-1.071198
N65	N	-0.936873	1.375120	-0.638467
N66	N	-0.944166	1.382009	-0.734902
H67	H	-0.920457	1.333765	-0.783083
N68	N	-0.223985	0.894872	-0.635400
N69	N	-0.224053	0.797430	-0.635322
H70	H	-0.195076	0.758007	-0.683598
N71	N	-1.069770	1.375199	-0.638496
N72	N	-1.128467	1.375245	-0.638507
H73	H	-1.152190	1.327028	-0.686686
H74	H	-0.542845	1.388723	-0.624515
N75	N	-0.344215	1.578423	-0.947955
N76	N	-0.402310	1.571448	-0.935814
H77	H	-0.431331	1.619612	-0.975241
N78	N	-0.344249	1.066541	-0.435046
N79	N	-0.322022	1.005603	-0.368585
H80	H	-0.351005	0.966108	-0.320308
H81	H	-0.662116	1.388797	-0.624536
