data_functionalizedCrystal
_audit_creation_method	'MofGen! by Chris Wilmer'
_symmetry_space_group_name_H-M	'P1'
_symmetry_Int_Tables_number	1
_symmetry_cell_setting	triclinic
loop_
_symmetry_equiv_pos_as_xyz
  x,y,z
_cell_length_a	21.395362
_cell_length_b	10.686285
_cell_length_c	10.685986
_cell_angle_alpha	81.587410
_cell_angle_beta	94.329797
_cell_angle_gamma	85.645931
loop_
_atom_site_label
_atom_site_type_symbol
_atom_site_fract_x
_atom_site_fract_y
_atom_site_fract_z
Zn1	Zn	0.949207	-0.449570	-0.679738
Zn2	Zn	0.966558	-0.678143	-0.451251
Zn3	Zn	0.853130	-0.465986	-0.467427
Zn4	Zn	0.853142	-0.661827	-0.663365
O5	O	0.905509	-0.563882	-0.565445
O6	O	1.039181	-0.479849	-0.649511
O7	O	0.958768	-0.663698	-0.275773
O8	O	0.858608	-0.286190	-0.509212
O9	O	1.051929	-0.647780	-0.481642
O10	O	0.929195	-0.274130	-0.665196
O11	O	0.875433	-0.507828	-0.287658
O12	O	0.765458	-0.492007	-0.493336
O13	O	0.858629	-0.619972	-0.843160
O14	O	0.765467	-0.635890	-0.637291
O15	O	0.929207	-0.464028	-0.855189
O16	O	0.958779	-0.853597	-0.465766
O17	O	0.875453	-0.841609	-0.621605
C18	C	0.742730	-0.563960	-0.565293
C19	C	0.673093	-0.564022	-0.565255
C20	C	0.640410	-0.639059	-0.640083
C21	C	0.574971	-0.639023	-0.640142
C22	C	0.542219	-0.563966	-0.565349
C23	C	0.574909	-0.488914	-0.490517
C24	C	0.640346	-0.488942	-0.490470
C25	C	0.442758	-0.562545	-0.451862
C26	C	0.377323	-0.562526	-0.451907
C27	C	0.340389	-0.563872	-0.565496
C28	C	0.368899	-0.565264	-0.679042
C29	C	0.434336	-0.565292	-0.678995
C30	C	0.471263	-0.563927	-0.565393
C31	C	0.236750	-0.638875	-0.640394
C32	C	0.171309	-0.638830	-0.640456
C33	C	0.171249	-0.488728	-0.490819
C34	C	0.236688	-0.488765	-0.490770
C35	C	0.269434	-0.563845	-0.565554
C36	C	0.919016	-0.893655	-0.540181
C37	C	0.924850	-1.034731	-0.529416
C38	C	1.068924	-0.563804	-0.565599
C39	C	1.138561	-0.563770	-0.565664
C40	C	0.891984	-0.538349	-0.896518
C41	C	0.886220	-0.527469	-1.037602
C42	C	0.891965	-0.232818	-0.590835
C43	C	0.886193	-0.091738	-0.601655
C44	C	0.919014	-0.589223	-0.235667
C45	C	0.924884	-0.599746	-0.094611
H46	H	0.144699	-0.699931	-0.701397
H47	H	0.848635	-1.032619	-0.671740
O48	O	0.969584	-0.683469	-1.023892
C49	C	1.016318	-0.770913	-0.814076
C50	C	0.965658	-0.676065	-0.894020
H51	H	1.013170	-0.764940	-0.709061
H52	H	1.008457	-0.871321	-0.832103
H53	H	1.064866	-0.746629	-0.841901
H54	H	0.917089	-0.700231	-0.866244
H55	H	0.973574	-0.575683	-0.875986
H56	H	0.962407	-1.093859	-0.459319
H57	H	0.848709	-0.457261	-1.096734
H58	H	0.263413	-0.700002	-0.701295
H59	H	0.667068	-0.700193	-0.700980
H60	H	0.548355	-0.700126	-0.701080
H61	H	0.457546	-0.566422	-0.771449
H62	H	0.338828	-0.566359	-0.771538
H63	H	0.263299	-0.427669	-0.429830
O64	O	0.139350	-0.415965	-0.418164
C65	C	0.038515	-0.349412	-0.351904
C66	C	0.074566	-0.431883	-0.434243
H67	H	-0.013870	-0.362232	-0.364896
H68	H	0.056392	-0.379491	-0.247797
H69	H	0.046337	-0.245378	-0.382133
H70	H	0.066761	-0.535938	-0.404126
H71	H	0.056684	-0.401697	-0.538332
H72	H	0.354116	-0.561400	-0.359450
H73	H	0.548238	-0.427799	-0.429624
O74	O	0.478544	-0.561306	-0.341390
C75	C	0.479992	-0.558556	-0.116113
C76	C	0.439393	-0.559981	-0.241121
H77	H	0.448354	-0.557457	-0.035017
H78	H	0.514712	-0.646914	-0.095786
H79	H	0.506968	-0.470141	-0.125013
H80	H	0.412378	-0.648337	-0.232314
H81	H	0.404712	-0.471563	-0.261405
H82	H	0.666956	-0.427834	-0.429537
