data_functionalizedCrystal
_audit_creation_method	'MofGen! by Chris Wilmer'
_symmetry_space_group_name_H-M	'P1'
_symmetry_Int_Tables_number	1
_symmetry_cell_setting	triclinic
loop_
_symmetry_equiv_pos_as_xyz
  x,y,z
_cell_length_a	6.817900
_cell_length_b	11.102188
_cell_length_c	12.200737
_cell_angle_alpha	92.495345
_cell_angle_beta	107.141108
_cell_angle_gamma	108.603875
loop_
_atom_site_label
_atom_site_type_symbol
_atom_site_fract_x
_atom_site_fract_y
_atom_site_fract_z
V1	V	-4.094436	-0.176135	-0.357661
O2	O	-4.053803	0.008159	-0.350853
O3	O	-4.071320	-0.348953	-0.355215
O4	O	-4.063765	-0.173560	-0.513650
O5	O	-4.061410	-0.168449	-0.191322
V6	V	-4.572490	-0.154076	-0.337766
O7	O	-4.367690	-0.224525	-0.401304
O8	O	-4.749433	-0.105687	-0.294123
O9	O	-4.372399	0.018742	-0.340212
O10	O	-4.730519	-0.338370	-0.344574
O11	O	-4.722912	-0.161763	-0.504106
O12	O	-4.379954	-0.156651	-0.181777
C13	C	-3.921898	-0.391079	-0.349573
C14	C	-3.984404	-0.532360	-0.348613
C15	C	-3.958618	-0.580498	-0.243113
C16	C	-4.017372	-0.713249	-0.242216
C17	C	-4.127689	-0.749713	-0.452327
C18	C	-4.068949	-0.616965	-0.453223
C19	C	-4.149479	-0.876924	-0.118458
C20	C	-4.123657	-0.925064	-0.012951
C21	C	-3.937783	-0.861723	0.083189
C22	C	-3.777679	-0.750241	0.073828
C23	C	-3.803486	-0.702107	-0.031680
C24	C	-3.989405	-0.765447	-0.127817
C25	C	-3.936821	-0.453286	-0.576974
C26	C	-3.962613	-0.405150	-0.682482
C27	C	-4.148480	-0.468490	-0.778631
C28	C	-4.308561	-0.579977	-0.769281
C29	C	-4.282769	-0.628114	-0.663772
C30	C	-4.096902	-0.564765	-0.567623
C31	C	-3.912260	-0.167345	-0.551671
C32	C	-3.968634	-0.166383	-0.679192
C33	C	-4.014414	-0.165600	-0.782753
C34	C	-4.071861	-0.164613	-0.912675
C35	C	-4.185163	0.060860	-0.345851
C36	C	-4.101897	0.202141	-0.346819
C37	C	-4.194801	-0.162870	-0.143751
C38	C	-4.117664	-0.163826	-0.016228
H39	H	-3.785465	-0.401701	-0.498684
C40	C	-3.627393	-0.579479	-0.041978
N41	N	-3.494761	-0.487108	-0.049729
H42	H	-3.626316	-0.698683	0.152114
C43	C	-3.909398	-0.914676	0.199249
N44	N	-3.888038	-0.954561	0.286664
H45	H	-4.169455	-0.429291	-0.864544
H46	H	-3.832241	-0.314378	-0.690093
C47	C	-3.865640	-0.487438	-0.128040
N48	N	-3.795617	-0.417348	-0.041362
C49	C	-4.299785	-1.047686	-0.002656
N50	N	-4.432436	-1.140045	0.005101
C51	C	-4.353894	-0.946658	-0.224233
N52	N	-4.507834	-0.999208	-0.303914
C53	C	-4.220648	-0.842788	-0.567391
N54	N	-4.290650	-0.912891	-0.654059
H55	H	-4.413126	-0.718896	-0.656165
H56	H	-4.459903	-0.631556	-0.847575
