data_functionalizedCrystal
_audit_creation_method	'MofGen! by Chris Wilmer'
_symmetry_space_group_name_H-M	'P1'
_symmetry_Int_Tables_number	1
_symmetry_cell_setting	triclinic
loop_
_symmetry_equiv_pos_as_xyz
  x,y,z
_cell_length_a	8.597213
_cell_length_b	10.967971
_cell_length_c	7.681481
_cell_angle_alpha	96.258119
_cell_angle_beta	88.167023
_cell_angle_gamma	86.632760
loop_
_atom_site_label
_atom_site_type_symbol
_atom_site_fract_x
_atom_site_fract_y
_atom_site_fract_z
O1	O	2.045206	0.217315	-0.390757
O2	O	1.595537	0.225975	-0.319914
O3	O	1.825433	0.044462	-0.409861
O4	O	1.815309	0.398828	-0.300810
O5	O	1.853727	0.022069	-0.128090
O6	O	1.623831	0.203582	-0.038143
O7	O	2.073500	0.194922	-0.108986
Zn8	Zn	1.853158	0.195696	-0.028827
Zn9	Zn	1.815879	0.225201	-0.400073
O10	O	1.843604	0.376435	-0.019038
C11	C	1.552008	0.212601	-0.170939
C12	C	1.380150	0.206099	-0.146842
C13	C	1.836706	-0.012180	-0.282332
C14	C	1.828122	-0.147595	-0.322126
C15	C	1.838952	-0.219573	-0.193904
C16	C	1.830081	-0.359531	-0.235030
C17	C	2.117029	0.208296	-0.257964
C18	C	2.288885	0.214799	-0.282073
C19	C	1.832331	0.433078	-0.146572
C20	C	1.840913	0.568493	-0.106789
N21	N	1.878611	0.175560	0.224536
N22	N	1.790438	0.245328	-0.653441
H23	H	1.814248	-0.401518	-0.375263
H24	H	1.342224	0.227233	-0.416277
H25	H	1.700430	0.316539	0.306622
H26	H	1.856761	-0.389524	0.033443
H27	H	1.968636	0.104353	0.264481
O28	O	1.808947	-0.197720	-0.489335
C29	C	1.670042	-0.260021	-0.496548
H30	H	1.588023	-0.221098	-0.381773
H31	H	1.698245	-0.362103	-0.488723
C32	C	1.691742	-0.290562	-0.811008
C33	C	1.591000	-0.242749	-0.670047
H34	H	1.642987	-0.279914	-0.918033
H35	H	1.785328	-0.248593	-0.806150
H36	H	1.715236	-0.375627	-0.804464
H37	H	1.567523	-0.157683	-0.676581
H38	H	1.497407	-0.284703	-0.674910
O39	O	1.316726	0.191107	0.013313
C40	C	1.378648	0.080046	0.067376
H41	H	1.495975	0.052903	-0.003883
H42	H	1.294893	0.004712	0.034962
C43	C	1.256837	0.130495	0.354000
C44	C	1.400946	0.097163	0.266489
H45	H	1.270585	0.141050	0.476823
H46	H	1.215113	0.205317	0.317576
H47	H	1.187055	0.067711	0.326969
H48	H	1.470718	0.159953	0.293503
H49	H	1.442682	0.022352	0.302922
O50	O	1.857567	-0.169400	-0.026597
C51	C	1.729806	-0.085878	0.027503
H52	H	1.625426	-0.109970	-0.054495
H53	H	1.761903	0.011405	0.009070
C54	C	1.816092	-0.063923	0.322974
C55	C	1.687886	-0.093520	0.222273
H56	H	1.790236	-0.068631	0.443119
H57	H	1.902170	-0.120190	0.286527
H58	H	1.842826	0.017144	0.307594
H59	H	1.661166	-0.174590	0.237637
H60	H	1.601802	-0.037266	0.258728
