data_functionalizedCrystal
_audit_creation_method	'MofGen! by Chris Wilmer'
_symmetry_space_group_name_H-M	'P1'
_symmetry_Int_Tables_number	1
_symmetry_cell_setting	triclinic
loop_
_symmetry_equiv_pos_as_xyz
  x,y,z
_cell_length_a	21.395362
_cell_length_b	21.395364
_cell_length_c	21.395355
_cell_angle_alpha	89.974702
_cell_angle_beta	90.019906
_cell_angle_gamma	89.955800
loop_
_atom_site_label
_atom_site_type_symbol
_atom_site_fract_x
_atom_site_fract_y
_atom_site_fract_z
Zn1	Zn	-0.249232	-0.957873	0.354268
Zn2	Zn	0.250768	-0.457873	0.854268
Zn3	Zn	-0.353992	-0.957782	0.249488
Zn4	Zn	0.146008	-0.457782	0.749488
Zn5	Zn	-0.249263	-0.853088	0.249503
Zn6	Zn	0.250737	-0.353088	0.749503
Zn7	Zn	-0.354006	-0.853063	0.354227
Zn8	Zn	0.145994	-0.353063	0.854227
O9	O	-0.301623	-0.905452	0.301871
O10	O	0.198377	-0.405452	0.801871
O11	O	-0.263110	-1.045539	0.340379
O12	O	0.236890	-0.545539	0.840379
O13	O	-0.340106	-0.943866	0.161812
O14	O	0.159894	-0.443866	0.661812
O15	O	-0.161581	-0.867037	0.263424
O16	O	0.338419	-0.367037	0.763424
O17	O	-0.340076	-1.045472	0.263398
O18	O	0.159924	-0.545472	0.763398
O19	O	-0.161558	-0.944022	0.340394
O20	O	0.338442	-0.444022	0.840394
O21	O	-0.263162	-0.866948	0.161823
O22	O	0.236838	-0.366948	0.661823
O23	O	-0.263176	-0.765407	0.263384
O24	O	0.236824	-0.265407	0.763384
O25	O	-0.340101	-0.866994	0.441910
O26	O	0.159899	-0.366994	0.941910
O27	O	-0.340131	-0.765389	0.340324
O28	O	0.159869	-0.265389	0.840324
O29	O	-0.263124	-0.943998	0.441940
O30	O	0.236876	-0.443998	0.941940
O31	O	-0.441672	-0.943842	0.263358
O32	O	0.058328	-0.443842	0.763358
O33	O	-0.441682	-0.866906	0.340309
O34	O	0.058318	-0.366906	0.840309
C35	C	-0.301659	-0.742664	0.301852
C36	C	0.198341	-0.242664	0.801852
C37	C	-0.301689	-0.673023	0.301858
C38	C	0.198311	-0.173023	0.801858
C39	C	-0.261679	-0.640367	0.342004
C40	C	0.238321	-0.140367	0.842004
C41	C	-0.261664	-0.574932	0.342005
C42	C	0.238336	-0.074932	0.842005
C43	C	-0.301671	-0.542154	0.301868
C44	C	0.198329	-0.042154	0.801868
C45	C	-0.341683	-0.574818	0.261714
C46	C	0.158317	-0.074818	0.761714
C47	C	-0.341692	-0.640252	0.261709
C48	C	0.158308	-0.140252	0.761709
C49	C	-0.358098	-0.438433	0.296828
C50	C	0.141902	0.061567	0.796828
C51	C	-0.358090	-0.373000	0.296837
C52	C	0.141910	0.127000	0.796837
C53	C	-0.301642	-0.340334	0.301879
C54	C	0.198358	0.159666	0.801879
C55	C	-0.245200	-0.373108	0.306925
C56	C	0.254800	0.126892	0.806925
C57	C	-0.245210	-0.438542	0.306921
C58	C	0.254790	0.061458	0.806921
C59	C	-0.301665	-0.471202	0.301868
C60	C	0.198335	0.028798	0.801868
C61	C	-0.261613	-0.236725	0.342029
C62	C	0.238387	0.263275	0.842029
C63	C	-0.261597	-0.171289	0.342026
C64	C	0.238403	0.328711	0.842026
C65	C	-0.341622	-0.171176	0.261738
C66	C	0.158378	0.328824	0.761738
C67	C	-0.341632	-0.236612	0.261738
C68	C	0.158368	0.263388	0.761738
C69	C	-0.301629	-0.269382	0.301886
C70	C	0.198371	0.230618	0.801886
C71	C	-0.464411	-0.905378	0.301841
C72	C	0.035589	-0.405378	0.801841
C73	C	-0.534052	-0.905404	0.301849
C74	C	-0.034052	-0.405404	0.801849
C75	C	-1.035822	-0.945663	0.261905
C76	C	-0.535822	-0.445663	0.761905
C77	C	-0.970386	-0.945639	0.261890
C78	C	-0.470386	-0.445639	0.761890
C79	C	-0.937690	-0.905540	0.301916
C80	C	-0.437690	-0.405540	0.801916
C81	C	-0.970435	-0.865451	0.341949
C82	C	-0.470435	-0.365451	0.841949
C83	C	-1.035869	-0.865471	0.341958
C84	C	-0.535869	-0.365471	0.841958
C85	C	-0.834001	-0.900532	0.358347
C86	C	-0.334001	-0.400532	0.858347
C87	C	-0.768568	-0.900516	0.358339
C88	C	-0.268568	-0.400516	0.858339
C89	C	-0.735869	-0.905474	0.301888
C90	C	-0.235869	-0.405474	0.801888
C91	C	-0.768612	-0.910460	0.245444
C92	C	-0.268612	-0.410460	0.745444
C93	C	-0.834046	-0.910481	0.245453
C94	C	-0.334046	-0.410481	0.745453
C95	C	-0.866738	-0.905513	0.301911
C96	C	-0.366738	-0.405513	0.801911
C97	C	-0.632180	-0.945532	0.261839
C98	C	-0.132180	-0.445532	0.761839
C99	C	-0.566744	-0.945504	0.261823
C100	C	-0.066744	-0.445504	0.761823
C101	C	-0.566793	-0.865319	0.341888
C102	C	-0.066793	-0.365319	0.841888
C103	C	-0.632229	-0.865343	0.341898
C104	C	-0.132229	-0.365343	0.841898
C105	C	-0.664918	-0.905453	0.301874
C106	C	-0.164918	-0.405453	0.801874
C107	C	-0.138200	-0.905542	0.301916
C108	C	0.361800	-0.405542	0.801916
C109	C	-0.068558	-0.905581	0.301934
C110	C	0.431442	-0.405581	0.801934
C111	C	-0.301610	-0.905504	0.465295
C112	C	0.198390	-0.405504	0.965295
C113	C	-0.301605	-0.905526	0.534936
C114	C	0.198395	-0.405526	1.034936
C115	C	-0.301596	-0.068875	0.301888
C116	C	0.198404	0.431125	0.801888
C117	C	-0.301603	-0.138516	0.301887
C118	C	0.198397	0.361484	0.801887
C119	C	-0.301590	-0.905436	0.139084
C120	C	0.198410	-0.405436	0.639084
C121	C	-0.301419	-0.905535	0.069443
C122	C	0.198581	-0.405535	0.569443
C123	C	-0.261521	-0.945620	0.567666
C124	C	0.238479	-0.445620	1.067666
C125	C	-0.261494	-0.945619	0.633101
C126	C	0.238506	-0.445619	1.133101
C127	C	-0.301562	-0.905531	0.665804
C128	C	0.198438	-0.405531	1.165804
C129	C	-0.341649	-0.865429	0.633067
C130	C	0.158351	-0.365429	1.133067
C131	C	-0.341670	-0.865426	0.567632
C132	C	0.158330	-0.365426	1.067632
C133	C	-0.357979	-0.900558	0.769469
C134	C	0.142021	-0.400558	1.269469
C135	C	-0.357959	-0.900565	0.834902
C136	C	0.142041	-0.400565	1.334902
C137	C	-0.301496	-0.905534	0.867625
C138	C	0.198504	-0.405534	1.367625
C139	C	-0.245052	-0.910511	0.834908
C140	C	0.254948	-0.410511	1.334908
C141	C	-0.245073	-0.910508	0.769474
C142	C	0.254927	-0.410508	1.269474
C143	C	-0.301543	-0.905528	0.736757
C144	C	0.198457	-0.405528	1.236757
C145	C	-0.261380	-0.945630	0.971308
C146	C	0.238620	-0.445630	1.471308
C147	C	-0.261352	-0.945624	1.036744
C148	C	0.238648	-0.445624	1.536744
C149	C	-0.341512	-0.865438	1.036708
C150	C	0.158488	-0.365438	1.536708
C151	C	-0.341534	-0.865440	0.971273
C152	C	0.158466	-0.365440	1.471273
C153	C	-0.301469	-0.905539	0.938577
C154	C	0.198531	-0.405539	1.438577
H155	H	-0.374196	-0.144490	0.229057
H156	H	0.125804	0.355510	0.729057
F157	F	-0.219008	-0.136534	0.384754
F158	F	0.280992	0.363466	0.884754
F159	F	-0.219102	-0.675240	0.384733
F160	F	0.280898	-0.175240	0.884733
H161	H	-0.374215	-0.263200	0.229049
H162	H	0.125785	0.236800	0.729049
F163	F	-0.218878	-0.988295	0.532872
F164	F	0.281122	-0.488295	1.032872
F165	F	-0.935637	-0.822773	0.384546
F166	F	-0.435637	-0.322773	0.884546
H167	H	-0.229080	-0.548338	0.374696
H168	H	0.270920	-0.048338	0.874696
F169	F	-0.384259	-0.539933	0.218995
F170	F	0.115741	-0.039933	0.718995
H171	H	-0.860702	-0.914539	0.199494
H172	H	-0.360702	-0.414539	0.699494
H173	H	-0.741989	-0.914498	0.199477
H174	H	-0.241989	-0.414498	0.699477
F175	F	-0.418161	-0.338125	0.291475
F176	F	0.081839	0.161875	0.791475
H177	H	-0.658883	-0.832706	0.374496
H178	H	-0.158883	-0.332706	0.874496
H179	H	-0.199235	-0.346512	0.311032
H180	H	0.300765	0.153488	0.811032
F181	F	-1.070608	-0.988350	0.219306
F182	F	-0.570608	-0.488350	0.719306
H183	H	-0.658797	-0.978191	0.229249
H184	H	-0.158797	-0.478191	0.729249
H185	H	-0.374270	-0.832787	0.659698
H186	H	0.125730	-0.332787	1.159698
F187	F	-0.384200	-0.822768	0.936438
F188	F	0.115800	-0.322768	1.436438
F189	F	-0.418182	-0.473193	0.291453
F190	F	0.081818	0.026807	0.791453
F191	F	-0.532000	-0.822636	0.384480
F192	F	-0.032000	-0.322636	0.884480
F193	F	-0.384277	-0.675008	0.218977
F194	F	0.115723	-0.175008	0.718977
H195	H	-0.199253	-0.465224	0.311027
H196	H	0.300747	0.034776	0.811027
H197	H	-0.943727	-0.978280	0.229292
H198	H	-0.443727	-0.478280	0.729292
H199	H	-0.741912	-0.896460	0.404298
H200	H	-0.241912	-0.396460	0.904298
F201	F	-0.418031	-0.895274	0.869716
F202	F	0.081969	-0.395274	1.369716
F203	F	-0.531903	-0.988166	0.219215
F204	F	-0.031903	-0.488166	0.719215
F205	F	-0.868795	-0.895187	0.418427
F206	F	-0.368795	-0.395187	0.918427
H207	H	-0.403946	-0.896343	0.742830
H208	H	0.096054	-0.396343	1.242830
F209	F	-0.184955	-0.915803	0.869730
F210	F	0.315045	-0.415803	1.369730
F211	F	-0.384335	-0.822751	0.532798
F212	F	0.115665	-0.322751	1.032798
H213	H	-0.229036	-0.263409	0.374716
H214	H	0.270964	0.236591	0.874716
F215	F	-0.218820	-0.988284	0.667942
F216	F	0.281180	-0.488284	1.167942
H217	H	-0.199115	-0.914558	0.742838
H218	H	0.300885	-0.414558	1.242838
F219	F	-1.070711	-0.822810	0.384566
F220	F	-0.570711	-0.322810	0.884566
H221	H	-0.228753	-0.978277	0.944685
H222	H	0.271247	-0.478277	1.444685
F223	F	-0.218694	-0.988308	1.071578
F224	F	0.281306	-0.488308	1.571578
H225	H	-0.374130	-0.832791	1.063335
H226	H	0.125870	-0.332791	1.563335
