data_functionalizedCrystal
_audit_creation_method	'MofGen! by Chris Wilmer'
_symmetry_space_group_name_H-M	'P1'
_symmetry_Int_Tables_number	1
_symmetry_cell_setting	triclinic
loop_
_symmetry_equiv_pos_as_xyz
  x,y,z
_cell_length_a	15.500228
_cell_length_b	10.654550
_cell_length_c	10.654551
_cell_angle_alpha	95.514868
_cell_angle_beta	87.138565
_cell_angle_gamma	87.134460
loop_
_atom_site_label
_atom_site_type_symbol
_atom_site_fract_x
_atom_site_fract_y
_atom_site_fract_z
O1	O	-0.072009	-1.662034	0.182183
O2	O	-0.071995	-1.296557	0.198988
O3	O	-0.072003	-1.487698	0.007846
O4	O	-0.072001	-1.470893	0.373324
O5	O	0.071885	-1.499286	-0.003718
O6	O	0.071893	-1.308145	0.187424
O7	O	0.071879	-1.673622	0.170619
Cu8	Cu	0.085024	-1.491942	0.177965
Cu9	Cu	-0.085140	-1.478238	0.191641
O10	O	0.071887	-1.482481	0.361760
C11	C	-0.000049	-1.255553	0.191972
C12	C	-0.000044	-1.116110	0.188279
N13	N	-0.204825	-1.468599	0.201251
C14	C	-0.000061	-1.492258	-0.044734
C15	C	-0.000066	-1.488565	-0.184176
C16	C	-0.250105	-1.549749	0.120417
C17	C	-0.340677	-1.542458	0.127682
C18	C	-0.385968	-1.454009	0.215776
C19	C	-0.340682	-1.372856	0.296619
C20	C	-0.250111	-1.380154	0.289359
C21	C	-0.659434	-1.427735	0.241928
C22	C	-0.750011	-1.420440	0.249180
C23	C	-0.750001	-1.590044	0.080243
C24	C	-0.659428	-1.597330	0.072986
C25	C	-0.614149	-1.516181	0.153833
C26	C	-0.478548	-1.446551	0.223202
C27	C	-0.521571	-1.523646	0.146413
N28	N	0.204709	-1.501590	0.168346
C29	C	-0.000069	-1.714626	0.177635
C30	C	-0.000080	-1.854068	0.181328
C31	C	-0.000056	-1.036624	0.300822
C32	C	-0.000071	-0.905602	0.297346
C33	C	-0.000065	-0.933565	0.068777
C34	C	-0.000044	-1.064585	0.072253
C35	C	-0.000056	-1.088149	0.416848
C36	C	-0.000069	-1.008662	0.529400
C37	C	-0.000084	-0.877640	0.525925
C38	C	-0.000086	-0.826105	0.409898
C39	C	-0.078498	-1.480516	-0.243385
C40	C	-0.078494	-1.477036	-0.374406
C41	C	0.078381	-1.489660	-0.386999
C42	C	0.078376	-1.493130	-0.255979
C43	C	-0.156940	-1.475950	-0.171582
C44	C	-0.235379	-1.467902	-0.230790
C45	C	-0.235374	-1.464423	-0.361811
C46	C	-0.156932	-1.468990	-0.433623
C47	C	-0.000057	-1.477922	0.414340
C48	C	-0.000057	-1.481614	0.553783
H49	H	-0.377544	-1.608537	0.061861
O50	O	-0.472732	-1.619049	0.051399
H51	H	-0.431462	-1.569100	-0.013554
O52	O	-0.610631	-1.340208	0.329157
H53	H	-0.569344	-1.282129	0.272331
H54	H	-0.786883	-1.348409	0.320921
H55	H	-0.299243	-1.464171	-0.172310
H56	H	-0.515431	-1.374532	0.294928
H57	H	-0.000081	-0.891594	-0.025686
H58	H	-0.377563	-1.300843	0.368354
H59	H	-0.000036	-1.129305	-0.019389
H60	H	-0.156935	-1.466138	-0.540306
H61	H	-0.156952	-1.478787	-0.064898
O62	O	-0.201266	-1.292644	0.376558
H63	H	-0.247974	-1.229912	0.439035
O64	O	-0.000031	-1.229466	0.420592
H65	H	-0.000025	-1.251945	0.520175
O66	O	-0.319976	-1.455718	-0.425656
H67	H	-0.323738	-1.539269	-0.495511
H68	H	0.142245	-1.493379	-0.445479
O69	O	-0.000064	-1.064234	0.654540
H70	H	-0.000059	-1.168694	0.638054
O71	O	-0.000088	-0.791911	0.647315
H72	H	-0.000091	-0.692148	0.625411
O73	O	-0.201256	-1.645157	0.025409
H74	H	-0.247962	-1.700372	-0.029567
O75	O	-0.610578	-1.692753	-0.022005
H76	H	-0.657281	-1.747973	-0.076981
O77	O	-0.000100	-0.684788	0.406141
H78	H	-0.000111	-0.638170	0.503893
O79	O	0.162969	-1.501829	-0.192110
H80	H	0.200590	-1.418749	-0.209831
O81	O	-0.798834	-1.677547	-0.006975
H82	H	-0.869422	-1.657614	0.012866
