data_functionalizedCrystal
_audit_creation_method	'MofGen! by Chris Wilmer'
_symmetry_space_group_name_H-M	'P1'
_symmetry_Int_Tables_number	1
_symmetry_cell_setting	triclinic
loop_
_symmetry_equiv_pos_as_xyz
  x,y,z
_cell_length_a	14.044220
_cell_length_b	14.044190
_cell_length_c	10.268362
_cell_angle_alpha	89.989939
_cell_angle_beta	90.000433
_cell_angle_gamma	93.190328
loop_
_atom_site_label
_atom_site_type_symbol
_atom_site_fract_x
_atom_site_fract_y
_atom_site_fract_z
O1	O	1.277174	0.230169	-0.108188
O2	O	1.000502	0.221863	-0.108220
O3	O	1.134682	0.087680	-0.108179
O4	O	1.142994	0.364352	-0.108229
O5	O	1.134668	0.087673	0.108422
O6	O	1.000489	0.221856	0.108380
O7	O	1.277161	0.230162	0.108412
Cu8	Cu	1.138824	0.226008	0.128174
Cu9	Cu	1.138839	0.226017	-0.127982
O10	O	1.142981	0.364345	0.108371
C11	C	0.964874	0.218224	0.000076
C12	C	0.858731	0.207380	0.000065
C13	C	0.664392	0.187553	0.000095
C14	C	0.613264	0.264468	0.000086
C15	C	0.505128	0.253436	0.000103
C16	C	0.772539	0.198583	0.000078
C17	C	1.131039	0.052054	0.000125
C18	C	1.120191	-0.054089	0.000135
C19	C	1.177292	-0.299547	0.000090
C20	C	1.100375	-0.248422	0.000091
C21	C	1.111404	-0.140285	0.000115
C22	C	1.166265	-0.407694	0.000066
C23	C	1.312789	0.233801	0.000113
C24	C	1.418932	0.244646	0.000116
C25	C	1.146624	0.399971	0.000065
C26	C	1.157472	0.506114	0.000046
N27	N	1.138820	0.226003	0.308340
N28	N	1.138850	0.226016	-0.308147
C29	C	1.138834	0.226015	0.574010
C30	C	1.138823	0.226010	0.426172
H31	H	0.650706	0.338602	0.000066
H32	H	0.626954	0.113425	0.000115
H33	H	1.251418	-0.262106	0.000112
O34	O	1.002174	-0.298007	0.000088
H35	H	1.008806	-0.376393	0.000088
