data_functionalizedCrystal
_audit_creation_method	'MofGen! by Chris Wilmer'
_symmetry_space_group_name_H-M	'P1'
_symmetry_Int_Tables_number	1
_symmetry_cell_setting	triclinic
loop_
_symmetry_equiv_pos_as_xyz
  x,y,z
_cell_length_a	14.044220
_cell_length_b	12.503572
_cell_length_c	14.044220
_cell_angle_alpha	93.843168
_cell_angle_beta	86.811122
_cell_angle_gamma	93.835250
loop_
_atom_site_label
_atom_site_type_symbol
_atom_site_fract_x
_atom_site_fract_y
_atom_site_fract_z
O1	O	1.282200	0.089210	-0.225116
O2	O	1.782200	0.589210	0.274884
O3	O	1.005530	0.089237	-0.216809
O4	O	1.505530	0.589237	0.283191
O5	O	1.139712	0.089213	-0.082627
O6	O	1.639712	0.589213	0.417373
O7	O	1.148019	0.089234	-0.359298
O8	O	1.648019	0.589234	0.140702
O9	O	1.129622	-0.089427	-0.092737
O10	O	1.629622	0.410573	0.407263
O11	O	0.995440	-0.089403	-0.226918
O12	O	1.495440	0.410597	0.273082
O13	O	1.272110	-0.089430	-0.235226
O14	O	1.772110	0.410570	0.264774
Cu15	Cu	1.132854	-0.105728	-0.231995
Cu16	Cu	1.632854	0.394272	0.268005
Cu17	Cu	1.144786	0.105535	-0.220040
Cu18	Cu	1.644786	0.605535	0.279960
O19	O	1.137929	-0.089406	-0.369407
O20	O	1.637929	0.410594	0.130593
C21	C	0.964864	-0.000080	-0.218228
C22	C	1.464864	0.499920	0.281772
C23	C	0.858721	-0.000070	-0.207383
C24	C	1.358721	0.499930	0.292617
C25	C	0.664382	-0.000092	-0.187558
C26	C	1.164382	0.499908	0.312442
C27	C	0.613253	-0.000091	-0.264472
C28	C	1.113253	0.499909	0.235528
C29	C	0.505116	-0.000104	-0.253441
C30	C	1.005116	0.499896	0.246559
C31	C	0.772529	-0.000080	-0.198587
C32	C	1.272529	0.499920	0.301413
N33	N	1.124469	-0.254319	-0.240404
N34	N	1.624469	0.245681	0.259596
C35	C	1.112134	-0.473432	-0.252782
C36	C	1.612134	0.026568	0.247218
C37	C	1.165511	-0.526768	-0.199249
C38	C	1.665511	-0.026768	0.300751
C39	C	1.158648	-0.648690	-0.206136
C40	C	1.658648	-0.148690	0.293864
C41	C	1.118996	-0.351499	-0.245896
C42	C	1.618996	0.148501	0.254104
C43	C	1.312777	-0.000111	-0.233807
C44	C	1.812777	0.499889	0.266193
C45	C	1.418920	-0.000114	-0.244651
C46	C	1.918920	0.499886	0.255349
C47	C	1.131031	-0.000107	-0.052060
C48	C	1.631031	0.499893	0.447940
C49	C	1.120187	-0.000107	0.054082
C50	C	1.620187	0.499893	0.554082
N51	N	1.153179	0.254126	-0.211624
N52	N	1.653179	0.754126	0.288376
C53	C	1.146609	-0.000084	-0.399974
C54	C	1.646609	0.499916	0.100026
C55	C	1.157454	-0.000077	-0.506117
C56	C	1.657454	0.499923	-0.006117
C57	C	1.100361	-0.000090	0.248421
C58	C	1.600361	0.499910	0.748421
C59	C	1.177275	-0.000094	0.299551
C60	C	1.677275	0.499906	0.799551
C61	C	1.166244	-0.000084	0.407687
C62	C	1.666244	0.499916	0.907687
C63	C	1.111391	-0.000099	0.140274
C64	C	1.611391	0.499901	0.640274
H65	H	0.626945	-0.000104	-0.113431
H66	H	1.126945	0.499896	0.386569
H67	H	1.061285	-0.519330	-0.303783
H68	H	1.561285	-0.019330	0.196217
H69	H	1.026234	-0.000080	0.285859
H70	H	1.526234	0.499920	0.785859
Br71	Br	0.675649	-0.000078	-0.388034
Br72	Br	1.175649	0.499922	0.111966
Br73	Br	1.250706	-0.450266	-0.114675
Br74	Br	1.750706	0.049734	0.385325
Br75	Br	1.300837	-0.000115	0.237154
Br76	Br	1.800837	0.499885	0.737154
