data_functionalizedCrystal
_audit_creation_method	'MofGen! by Chris Wilmer'
_symmetry_space_group_name_H-M	'P1'
_symmetry_Int_Tables_number	1
_symmetry_cell_setting	triclinic
loop_
_symmetry_equiv_pos_as_xyz
  x,y,z
_cell_length_a	16.793024
_cell_length_b	16.793047
_cell_length_c	33.586455
_cell_angle_alpha	113.253857
_cell_angle_beta	66.219990
_cell_angle_gamma	112.758327
loop_
_atom_site_label
_atom_site_type_symbol
_atom_site_fract_x
_atom_site_fract_y
_atom_site_fract_z
O1	O	0.005016	-0.570216	-0.583573
O2	O	-0.034529	-0.474528	-0.453458
O3	O	0.114723	-0.474535	-0.528082
O4	O	-0.144235	-0.570209	-0.508949
O5	O	0.108729	-0.346329	-0.530229
O6	O	-0.040523	-0.346322	-0.455605
O7	O	-0.000977	-0.442010	-0.585721
Zn8	Zn	-0.021701	-0.373810	-0.521004
Zn9	Zn	-0.013805	-0.542728	-0.518175
O10	O	-0.150229	-0.442003	-0.511097
C11	C	0.005100	-0.790970	-0.238461
C12	C	-0.040584	-0.395375	-0.435637
C13	C	-0.044693	-0.353446	-0.386631
C14	C	-0.039275	-0.401741	-0.363054
C15	C	-0.040566	-0.125547	-0.300731
C16	C	-0.044689	-0.223451	-0.321635
C17	C	-0.039266	-0.270752	-0.297563
C18	C	0.005118	-0.521142	-0.103554
C19	C	-0.046224	-0.263935	-0.366370
C20	C	-0.036476	-0.360146	-0.318399
C21	C	-0.030850	-0.408530	-0.294565
C22	C	-0.028014	-0.367522	-0.249895
C23	C	-0.030804	-0.278128	-0.229058
C24	C	-0.036430	-0.229743	-0.252892
C25	C	-0.027971	-0.237122	-0.184383
C26	C	-0.022345	-0.285507	-0.160550
C27	C	-0.019555	-0.374900	-0.181386
C28	C	-0.022391	-0.415909	-0.226057
C29	C	-0.019601	-0.505302	-0.246894
C30	C	-0.013975	-0.553687	-0.223060
C31	C	-0.011142	-0.512684	-0.178391
C32	C	-0.013932	-0.423291	-0.157554
C33	C	-0.005516	-0.561069	-0.154557
C34	C	-0.002726	-0.650463	-0.175394
C35	C	-0.005562	-0.691471	-0.220064
C36	C	-0.011185	-0.643081	-0.243897
C37	C	-0.022434	-0.546309	-0.291568
C38	C	-0.019644	-0.635702	-0.312405
C39	C	-0.014021	-0.684089	-0.288567
C40	C	-0.022480	-0.676711	-0.357076
C41	C	-0.028106	-0.628326	-0.380910
C42	C	-0.030896	-0.538933	-0.360073
C43	C	-0.028060	-0.497924	-0.315402
C44	C	-0.036522	-0.490548	-0.383907
C45	C	0.815184	-0.521162	-0.508596
C46	C	0.415541	-0.125553	-0.528781
C47	C	0.375032	-0.223457	-0.531493
C48	C	0.423813	-0.270761	-0.529101
C49	C	0.149318	-0.395376	-0.530584
C50	C	0.246774	-0.353455	-0.532364
C51	C	0.294574	-0.401748	-0.529976
C52	C	0.548961	-0.790984	-0.510398
C53	C	0.286104	-0.263940	-0.532530
C54	C	0.383336	-0.360149	-0.528302
C55	C	0.432207	-0.407971	-0.525810
C56	C	0.392316	-0.497392	-0.524993
C57	C	0.303554	-0.538991	-0.526667
C58	C	0.254683	-0.491169	-0.529159
C59	C	0.263666	-0.628421	-0.525851
C60	C	0.312537	-0.676243	-0.523359
C61	C	0.401299	-0.634644	-0.521685
C62	C	0.441190	-0.545223	-0.522502
C63	C	0.529952	-0.503624	-0.520828
C64	C	0.578823	-0.551446	-0.518336
C65	C	0.538939	-0.640864	-0.517520
C66	C	0.450177	-0.682463	-0.519194
C67	C	0.587810	-0.688687	-0.515028
C68	C	0.676572	-0.647088	-0.513354
C69	C	0.716463	-0.557666	-0.514172
C70	C	0.667586	-0.509847	-0.516662
C71	C	0.569840	-0.414195	-0.521644
C72	C	0.658602	-0.372596	-0.519970
C73	C	0.707476	-0.420426	-0.517480
C74	C	0.698493	-0.283174	-0.520788
C75	C	0.649622	-0.235352	-0.523280
C76	C	0.560860	-0.276951	-0.524954
C77	C	0.520969	-0.366372	-0.524136
C78	C	0.511989	-0.229129	-0.527446
C79	C	-0.040530	-0.395407	-0.935652
C80	C	0.005063	-0.791004	-0.738448
C81	C	0.009186	-0.693099	-0.717543
C82	C	0.003779	-0.645796	-0.741620
C83	C	0.005077	-0.521171	-0.603544
C84	C	0.009198	-0.563096	-0.652550
C85	C	0.003786	-0.514804	-0.676131
C86	C	-0.040516	-0.125574	-0.800747
C87	C	0.010719	-0.652613	-0.672809
C88	C	0.000994	-0.556406	-0.720789
C89	C	-0.004621	-0.508585	-0.744908
C90	C	-0.007444	-0.419162	-0.724369
C91	C	-0.004651	-0.377560	-0.679711
C92	C	0.000964	-0.425381	-0.655592
C93	C	-0.007471	-0.288129	-0.659174
C94	C	-0.013086	-0.240308	-0.683293
C95	C	-0.015878	-0.281910	-0.727951
C96	C	-0.013056	-0.371333	-0.748490
C97	C	-0.015848	-0.412935	-0.793148
C98	C	-0.021463	-0.365114	-0.817267
C99	C	-0.024282	-0.275694	-0.796731
C100	C	-0.021490	-0.234092	-0.752073
C101	C	-0.029897	-0.227873	-0.820850
C102	C	-0.032690	-0.269476	-0.865508
C103	C	-0.029867	-0.358899	-0.886047
C104	C	-0.024255	-0.406717	-0.861925
C105	C	-0.013028	-0.502367	-0.813685
C106	C	-0.015821	-0.543969	-0.858343
C107	C	-0.021433	-0.496140	-0.882464
C108	C	-0.012998	-0.633392	-0.878882
C109	C	-0.007383	-0.681213	-0.854763
C110	C	-0.004591	-0.639611	-0.810105
C111	C	-0.007414	-0.550188	-0.789566
C112	C	0.001024	-0.687432	-0.785986
O113	O	-0.000965	0.173549	-0.277957
O114	O	-0.040516	-0.085616	-0.325254
O115	O	0.108737	0.059592	-0.327284
O116	O	-0.150219	0.028341	-0.275927
O117	O	0.114753	0.055151	-0.263265
O118	O	-0.034500	-0.090057	-0.261234
O119	O	0.005051	0.169108	-0.213937
Zn120	Zn	-0.013769	0.038820	-0.227421
Zn121	Zn	-0.021696	0.044672	-0.311770
O122	O	-0.144202	0.023900	-0.211907
O123	O	-0.034458	-0.474571	0.046517
O124	O	0.005076	-0.570190	-0.083599
O125	O	-0.144170	-0.570237	-0.008972
O126	O	0.114787	-0.474523	-0.028110
O127	O	-0.150200	-0.442024	-0.011093
O128	O	-0.000954	-0.441976	-0.085720
O129	O	-0.040488	-0.346357	0.044396
Zn130	Zn	-0.021679	-0.373810	-0.020999
Zn131	Zn	-0.013734	-0.542737	-0.018204
O132	O	0.108757	-0.346309	-0.030231
C133	C	-0.850734	0.086244	-0.289716
C134	C	-0.450996	0.035117	-0.097351
C135	C	-0.410501	0.028587	-0.146852
C136	C	-0.459292	0.034683	-0.169840
C137	C	-0.184802	0.024283	-0.235878
C138	C	-0.282257	0.023363	-0.213592
C139	C	-0.330068	0.029423	-0.237088
C140	C	-0.584541	0.075410	-0.428242
C141	C	-0.321573	0.024104	-0.168302
C142	C	-0.418828	0.035176	-0.215083
C143	C	-0.467711	0.041476	-0.238329
C144	C	-0.427833	0.042022	-0.283580
C145	C	-0.339073	0.036269	-0.305586
C146	C	-0.290190	0.029970	-0.282340
C147	C	-0.299198	0.036812	-0.350842
C148	C	-0.348081	0.043111	-0.374088
C149	C	-0.436841	0.048864	-0.352082
C150	C	-0.476719	0.048318	-0.306830
C151	C	-0.565480	0.054071	-0.284825
C152	C	-0.614362	0.060370	-0.308071
C153	C	-0.574491	0.060913	-0.353321
C154	C	-0.485730	0.055160	-0.375326
C155	C	-0.623374	0.067212	-0.376567
C156	C	-0.712134	0.072965	-0.354561
C157	C	-0.752012	0.072419	-0.309309
C158	C	-0.703123	0.066123	-0.286065
C159	C	-0.605355	0.053528	-0.239569
C160	C	-0.694115	0.059281	-0.217564
C161	C	-0.743001	0.065577	-0.240813
C162	C	-0.733993	0.058735	-0.172312
C163	C	-0.685110	0.052436	-0.149066
C164	C	-0.596350	0.046683	-0.171072
C165	C	-0.556472	0.047229	-0.216323
C166	C	-0.547467	0.040383	-0.147826
O167	O	0.585213	0.169090	-0.504004
O168	O	0.494056	-0.090076	-0.525516
O169	O	0.488081	0.055124	-0.449918
O170	O	0.591189	0.023889	-0.579602
O171	O	0.359978	0.059584	-0.452885
O172	O	0.365953	-0.085616	-0.528483
O173	O	0.457110	0.173550	-0.506971
Zn174	Zn	0.391193	0.044675	-0.518198
Zn175	Zn	0.559974	0.038798	-0.514289
O176	O	0.463086	0.028349	-0.582569
C177	C	0.815354	-0.521094	-0.008709
C178	C	0.415547	-0.125494	-0.028771
C179	C	0.375059	-0.223405	-0.031498
C180	C	0.423859	-0.270708	-0.029121
C181	C	0.149365	-0.395355	-0.030599
C182	C	0.246820	-0.353421	-0.032381
C183	C	0.294640	-0.401713	-0.030008
C184	C	0.549171	-0.790955	-0.010537
C185	C	0.286131	-0.263897	-0.032533
C186	C	0.383402	-0.360104	-0.028335
C187	C	0.432293	-0.407926	-0.025859
C188	C	0.392422	-0.497356	-0.025055
C189	C	0.303660	-0.538965	-0.026727
C190	C	0.254769	-0.491143	-0.029204
C191	C	0.263791	-0.628403	-0.025925
C192	C	0.312683	-0.676224	-0.023448
C193	C	0.401445	-0.634615	-0.021775
C194	C	0.441316	-0.545185	-0.022579
C195	C	0.530078	-0.503576	-0.020906
C196	C	0.578969	-0.551398	-0.018429
C197	C	0.539104	-0.640825	-0.017627
C198	C	0.450342	-0.682434	-0.019300
C199	C	0.587995	-0.688646	-0.015150
C200	C	0.676757	-0.647037	-0.013477
C201	C	0.716628	-0.557607	-0.014281
C202	C	0.667731	-0.509789	-0.016757
C203	C	0.569946	-0.414138	-0.021709
C204	C	0.658708	-0.372530	-0.020036
C205	C	0.707602	-0.420359	-0.017561
C206	C	0.698579	-0.283100	-0.020840
C207	C	0.649688	-0.235278	-0.023317
C208	C	0.560926	-0.276887	-0.024990
C209	C	0.521055	-0.366317	-0.024186
C210	C	0.512035	-0.229066	-0.027467
O211	O	-0.620614	0.089309	0.052274
O212	O	-0.529507	0.043784	-0.078544
O213	O	-0.523494	0.194833	-0.006033
O214	O	-0.626628	-0.061740	-0.020236
O215	O	-0.395386	0.185419	-0.005549
O216	O	-0.401400	0.034370	-0.078059
O217	O	-0.492507	0.079895	0.052758
Zn218	Zn	-0.426614	0.055638	-0.012574
Zn219	Zn	-0.595401	0.068041	-0.013212
O220	O	-0.498521	-0.071154	-0.019752
C221	C	-0.437537	0.048335	0.402491
C222	C	-0.837226	0.099430	0.210091
C223	C	-0.739773	0.100339	0.187806
C224	C	-0.691967	0.094287	0.211308
C225	C	-0.571027	0.088563	0.071568
C226	C	-0.611521	0.095108	0.121070
C227	C	-0.562739	0.089011	0.144061
C228	C	-0.171338	0.037467	0.263967
C229	C	-0.700452	0.099593	0.142516
C230	C	-0.603213	0.088528	0.189308
C231	C	-0.554892	0.082255	0.212848
C232	C	-0.466098	0.076466	0.191141
C233	C	-0.425624	0.076949	0.145894
C234	C	-0.473945	0.083222	0.122354
C235	C	-0.336822	0.071163	0.124188
C236	C	-0.288502	0.064890	0.147728
C237	C	-0.328975	0.064407	0.192975
C238	C	-0.417770	0.070196	0.214682
C239	C	-0.458244	0.069713	0.259929
C240	C	-0.409923	0.063441	0.283469
C241	C	-0.321132	0.057655	0.261765
C242	C	-0.280658	0.058138	0.216518
C243	C	-0.272811	0.051382	0.285305
C244	C	-0.313285	0.050899	0.330552
C245	C	-0.402079	0.056688	0.352259
C246	C	-0.450397	0.062957	0.328716
C247	C	-0.547046	0.075500	0.281635
C248	C	-0.587520	0.075016	0.326882
C249	C	-0.539191	0.068747	0.350423
C250	C	-0.676314	0.080806	0.348589
C251	C	-0.724634	0.087078	0.325049
C252	C	-0.684160	0.087561	0.279802
C253	C	-0.595366	0.081772	0.258095
C254	C	-0.732481	0.093834	0.256262
O255	O	-0.040608	-1.085661	-0.825229
O256	O	-0.001018	-0.826491	-0.777938
O257	O	-0.150287	-0.971682	-0.775894
O258	O	0.108661	-0.940470	-0.827272
O259	O	-0.144253	-0.976123	-0.711878
O260	O	0.005016	-0.830932	-0.713922
O261	O	-0.034575	-1.090102	-0.761213
Zn262	Zn	-0.013821	-0.961222	-0.727403
Zn263	Zn	-0.021771	-0.955371	-0.811747
O264	O	0.114695	-0.944911	-0.763256
C265	C	0.026348	-0.135723	-0.395666
C266	C	-0.049775	-0.210057	-0.393259
H267	H	0.024160	-0.102464	-0.412269
H268	H	0.027009	-0.098361	-0.365887
H269	H	0.079502	-0.155933	-0.410481
H270	H	-0.102929	-0.189846	-0.378441
H271	H	-0.050444	-0.247425	-0.423043
H272	H	0.245737	-0.223998	-0.033572
H273	H	-0.030255	-0.164038	-0.167345
C274	C	0.831185	-0.298286	-0.016638
C275	C	0.796551	-0.237176	-0.018993
H276	H	0.891667	-0.269933	-0.015497
H277	H	0.795304	-0.317433	0.009862
H278	H	0.830084	-0.348932	-0.042685
H279	H	0.797645	-0.186533	0.007056
H280	H	0.832442	-0.218017	-0.045495
C281	C	0.132029	-0.626029	-0.029818
C282	C	0.156800	-0.537069	-0.031051
H283	H	0.071544	-0.654377	-0.030953
H284	H	0.171248	-0.657767	-0.055103
H285	H	0.136482	-0.626270	-0.002555
H286	H	0.152354	-0.536827	-0.058315
H287	H	0.117570	-0.505323	-0.005764
H288	H	-0.047834	-0.232081	-0.882358
H289	H	0.710767	-0.684484	-0.506030
H290	H	0.013347	-0.692513	-0.652885
H291	H	-0.038719	-0.156659	-0.235851
H292	H	0.780052	-0.386407	-0.516111
C293	C	0.164118	-0.749025	-0.566090
C294	C	0.165703	-0.674353	-0.527703
H295	H	0.103638	-0.777392	-0.567233
H296	H	0.199996	-0.729878	-0.592589
H297	H	0.187631	-0.790452	-0.564476
H298	H	0.142197	-0.632922	-0.529318
H299	H	0.129812	-0.693498	-0.501197
H300	H	-0.030422	-0.661858	-0.417434
H301	H	-0.038841	-0.524079	-0.420431
H302	H	-0.020209	-0.749804	-0.374113
H303	H	0.191224	-0.662427	-0.027294
C304	C	-0.340771	0.077312	0.058274
C305	C	-0.429275	0.083747	0.072413
H306	H	-0.313198	0.077626	0.027440
H307	H	-0.307150	0.127045	0.076527
H308	H	-0.341946	0.022892	0.061258
H309	H	-0.428100	0.138171	0.069432
H310	H	-0.462904	0.034011	0.054154
C311	C	-0.534291	0.141529	0.427272
C312	C	-0.583869	0.068219	0.400366
H313	H	-0.561876	0.141205	0.458103
H314	H	-0.474258	0.137156	0.417675
H315	H	-0.533130	0.195944	0.424288
H316	H	-0.585024	0.013802	0.403347
H317	H	-0.643918	0.072583	0.409966
H318	H	0.279916	-0.749353	-0.522691
H319	H	-0.208057	0.053400	0.198770
C320	C	-0.261092	0.096852	-0.105072
C321	C	-0.267062	0.019804	-0.142105
H322	H	-0.227442	0.094194	-0.088899
H323	H	-0.231669	0.148867	-0.115628
H324	H	-0.320117	0.099738	-0.085571
H325	H	-0.208036	0.016921	-0.161608
H326	H	-0.296482	-0.032226	-0.131549
H327	H	0.771070	-0.249160	-0.519423
C328	C	0.673906	-0.713443	0.038790
C329	C	0.722963	-0.697457	-0.003576
H330	H	0.702434	-0.744554	0.044911
H331	H	0.671884	-0.657689	0.061609
H332	H	0.614134	-0.748941	0.038580
H333	H	0.782734	-0.661953	-0.003364
H334	H	0.724995	-0.753220	-0.026401
C335	C	0.318602	-0.829771	-0.059890
C336	C	0.268681	-0.774933	-0.022563
H337	H	0.291440	-0.890709	-0.059340
H338	H	0.319514	-0.824053	-0.087110
H339	H	0.378707	-0.811750	-0.058529
H340	H	0.208577	-0.792950	-0.023925
H341	H	0.267760	-0.780656	0.004664
C342	C	0.782263	-0.110012	-0.022165
C343	C	0.693675	-0.136551	-0.024177
H344	H	0.809414	-0.049061	-0.022691
H345	H	0.781324	-0.115771	0.005051
H346	H	0.816135	-0.147200	-0.047497
H347	H	0.659801	-0.099368	0.001156
H348	H	0.694609	-0.130784	-0.051396
H349	H	0.780178	-0.386331	-0.016193
C350	C	-0.671408	0.153583	0.425438
C351	C	-0.720985	0.080277	0.398531
H352	H	-0.698992	0.153254	0.456270
H353	H	-0.611374	0.149212	0.415841
H354	H	-0.670249	0.208001	0.422458
H355	H	-0.722139	0.025858	0.401509
H356	H	-0.781035	0.084641	0.408132
C357	C	-0.165066	0.060266	0.078901
C358	C	-0.190494	0.058508	0.123770
H359	H	-0.104558	0.056330	0.064113
H360	H	-0.204080	0.010759	0.063440
H361	H	-0.169302	0.114912	0.078723
H362	H	-0.186264	0.003859	0.123949
H363	H	-0.151468	0.108020	0.139236
C364	C	0.782214	-0.110105	-0.522139
C365	C	0.693630	-0.136635	-0.524155
H366	H	0.809379	-0.049159	-0.522674
H367	H	0.781264	-0.115849	-0.494917
H368	H	0.816080	-0.147307	-0.547463
H369	H	0.659762	-0.099437	-0.498828
H370	H	0.694575	-0.130883	-0.551380
H371	H	-0.023718	-0.530163	-0.918978
H372	H	-0.005085	-0.754331	-0.871556
H373	H	-0.303725	0.071562	0.087197
C374	C	0.000368	-0.290509	-0.593315
C375	C	0.004045	-0.379463	-0.606302
H376	H	0.002263	-0.262165	-0.562884
H377	H	0.050506	-0.258759	-0.612711
H378	H	-0.054168	-0.290279	-0.595537
H379	H	0.058585	-0.379692	-0.604084
H380	H	-0.046097	-0.411221	-0.586901
H381	H	0.544632	-0.155941	-0.028119
H382	H	-0.005182	-0.254109	-0.622664
C383	C	-0.245170	0.102800	0.390098
C384	C	-0.262742	0.029720	0.352898
H385	H	-0.213973	0.089721	0.403894
H386	H	-0.209005	0.154887	0.380134
H387	H	-0.300622	0.113344	0.411498
H388	H	-0.207290	0.019180	0.331496
H389	H	-0.298908	-0.022382	0.362861
C390	C	-0.832343	0.177180	0.317525
C391	C	-0.830469	0.100293	0.280211
H392	H	-0.892829	0.181190	0.332306
H393	H	-0.809310	0.173334	0.338113
H394	H	-0.796170	0.229161	0.307461
H395	H	-0.866637	0.048311	0.290275
H396	H	-0.853514	0.104132	0.259620
H397	H	-0.797237	0.091807	0.342798
H398	H	0.544602	-0.156012	-0.528109
C399	C	-0.711661	0.180675	0.100837
C400	C	-0.754954	0.103890	0.116314
H401	H	-0.745308	0.183322	0.084658
H402	H	-0.707719	0.232875	0.125996
H403	H	-0.652600	0.177893	0.081353
H404	H	-0.814013	0.106675	0.135801
H405	H	-0.758906	0.051677	0.091152
H406	H	-0.011748	-0.757184	-0.305606
C407	C	-0.084789	-0.425204	-0.079821
C408	C	-0.010862	-0.378015	-0.108238
H409	H	-0.082906	-0.397255	-0.049375
H410	H	-0.139303	-0.424754	-0.081962
H411	H	-0.082285	-0.485605	-0.088851
H412	H	-0.013371	-0.317615	-0.099211
H413	H	0.043666	-0.378455	-0.106095
H414	H	-0.020027	-0.251971	-0.124027
H415	H	0.245727	-0.224039	-0.533582
C416	C	-0.048515	-0.696546	-0.108448
C417	C	0.017712	-0.696519	-0.150432
H418	H	-0.035900	-0.724985	-0.093040
H419	H	-0.048426	-0.636290	-0.090727
H420	H	-0.106135	-0.728397	-0.113106
H421	H	0.075331	-0.664662	-0.145774
H422	H	0.017631	-0.756786	-0.168157
H423	H	-0.015393	-0.167196	-0.666497
C424	C	-0.012386	-0.768258	-0.941164
C425	C	-0.016068	-0.679306	-0.928176
H426	H	-0.014288	-0.796603	-0.971594
H427	H	0.042144	-0.768488	-0.938944
H428	H	-0.062529	-0.800013	-0.921766
H429	H	0.034079	-0.647548	-0.947572
H430	H	-0.070605	-0.679071	-0.930399
H431	H	0.182115	-0.525189	-0.530531
C432	C	0.049304	-0.080530	-0.753991
C433	C	-0.024604	-0.135388	-0.729401
H434	H	0.047376	-0.019597	-0.739997
H435	H	0.103829	-0.086237	-0.754490
H436	H	0.046818	-0.098544	-0.784162
H437	H	-0.022114	-0.117378	-0.699231
H438	H	-0.079143	-0.129676	-0.728898
H439	H	0.003321	-0.760550	-0.802778
H440	H	-0.217624	0.025258	-0.300336
H441	H	-0.226632	0.032105	-0.368836
C442	C	-0.215475	0.037300	-0.438501
C443	C	-0.304068	0.043708	-0.424034
H444	H	-0.188307	0.037666	-0.469336
H445	H	-0.181626	0.087016	-0.420350
H446	H	-0.216412	-0.017136	-0.435632
H447	H	-0.303130	0.098148	-0.426899
H448	H	-0.337925	-0.006012	-0.442190
C449	C	-0.541564	0.113081	-0.071128
C450	C	-0.591480	0.039788	-0.097877
H451	H	-0.568742	0.112715	-0.040292
H452	H	-0.481470	0.108728	-0.080945
H453	H	-0.540640	0.167509	-0.074000
H454	H	-0.592397	-0.014640	-0.095008
H455	H	-0.651589	0.044134	-0.088057
C456	C	-0.491628	-0.017526	-0.452025
C457	C	-0.441710	0.055762	-0.425274
H458	H	-0.464456	-0.017149	-0.482859
H459	H	-0.492548	-0.071951	-0.449159
H460	H	-0.551730	-0.013172	-0.442202
H461	H	-0.381609	0.051404	-0.435095
H462	H	-0.440780	0.110200	-0.428143
H463	H	0.417564	-0.755580	-0.518528
H464	H	-0.746339	0.088530	-0.372795
C465	C	-0.865708	0.070259	-0.171691
C466	C	-0.840939	0.072029	-0.216509
H467	H	-0.926157	0.074277	-0.156684
H468	H	-0.861352	0.015584	-0.171621
H469	H	-0.826418	0.119726	-0.156370
H470	H	-0.880225	0.022557	-0.231831
H471	H	-0.845302	0.126710	-0.216582
H472	H	-0.806568	0.063430	-0.154318
H473	H	-0.717713	0.052007	-0.112064
H474	H	0.417746	-0.755558	-0.018645
