data_functionalizedCrystal
_audit_creation_method	'MofGen! by Chris Wilmer'
_symmetry_space_group_name_H-M	'P1'
_symmetry_Int_Tables_number	1
_symmetry_cell_setting	triclinic
loop_
_symmetry_equiv_pos_as_xyz
  x,y,z
_cell_length_a	11.792241
_cell_length_b	10.654550
_cell_length_c	9.730223
_cell_angle_alpha	89.996251
_cell_angle_beta	90.001500
_cell_angle_gamma	95.660841
loop_
_atom_site_label
_atom_site_type_symbol
_atom_site_fract_x
_atom_site_fract_y
_atom_site_fract_z
O1	O	0.159415	-1.667383	0.114404
O2	O	0.174603	-1.301862	0.114382
O3	O	0.001859	-1.493493	0.114383
O4	O	0.332159	-1.475752	0.114402
O5	O	0.001863	-1.493490	-0.114196
O6	O	0.174608	-1.301859	-0.114198
O7	O	0.159419	-1.667381	-0.114176
Zn8	Zn	0.167014	-1.484620	-0.150479
Zn9	Zn	0.167008	-1.484623	0.150685
O10	O	0.332163	-1.475750	-0.114178
C11	C	0.173490	-1.255066	0.000089
C12	C	0.170154	-1.115632	0.000080
C13	C	-0.040432	-1.492377	0.000094
C14	C	-0.166454	-1.489042	0.000095
N15	N	0.167017	-1.484627	-0.356016
C16	C	-0.397180	-1.482908	0.000118
C17	C	-0.268787	-1.486316	0.000105
C18	C	0.374455	-1.476865	0.000114
C19	C	0.500476	-1.480201	0.000122
C20	C	0.160532	-1.714177	0.000120
C21	C	0.163869	-1.853611	0.000137
C22	C	0.271863	-1.035858	0.000106
C23	C	0.268721	-0.904847	0.000129
C24	C	0.062152	-0.933394	0.000107
C25	C	0.065295	-1.064404	0.000074
C26	C	0.391124	-1.019376	0.000124
C27	C	0.387982	-0.888364	0.000148
C28	C	0.090552	-1.569503	-0.427941
C29	C	0.090539	-1.569500	-0.571824
C30	C	0.243465	-1.399740	-0.571844
C31	C	0.243472	-1.399739	-0.427963
C32	C	0.002265	-1.667516	-0.427931
C33	C	0.002251	-1.667513	-0.571814
N34	N	0.166996	-1.484625	0.356221
H35	H	-0.017527	-1.129352	0.000033
C36	C	-0.034388	-0.745241	0.000148
C37	C	-0.053105	-0.877079	0.000114
H38	H	-0.105546	-0.710479	0.000163
H39	H	0.007527	-0.717895	-0.079551
H40	H	0.007533	-0.717938	0.079872
H41	H	-0.095020	-0.904382	-0.079615
H42	H	-0.095038	-0.904436	0.079822
H43	H	-0.084976	-1.646320	-0.388883
C44	C	0.308268	-1.182782	-0.616166
C45	C	0.327500	-1.306436	-0.650938
H46	H	0.360146	-1.125181	-0.665002
H47	H	0.319226	-1.170644	-0.520195
H48	H	0.232393	-1.168656	-0.639744
H49	H	0.403374	-1.320565	-0.627350
H50	H	0.316552	-1.318579	-0.746930
C51	C	0.489122	-0.951685	-0.207315
C52	C	0.454084	-1.058806	-0.129016
H53	H	0.527982	-0.976032	-0.287042
H54	H	0.538791	-0.895297	-0.154155
H55	H	0.424349	-0.911089	-0.233868
H56	H	0.518858	-1.099398	-0.102455
H57	H	0.404413	-1.115215	-0.182186
C58	C	0.443016	-1.198587	0.126599
C59	C	0.442393	-1.067380	0.133341
H60	H	0.474660	-1.228221	0.208846
H61	H	0.487604	-1.219933	0.050357
H62	H	0.367199	-1.236589	0.116043
H63	H	0.518211	-1.029376	0.143886
H64	H	0.397805	-1.046022	0.209604
H65	H	0.424026	-0.842589	-0.098534
H66	H	0.432916	-0.846505	0.095818
C67	C	0.439345	-1.327297	-0.383686
C68	C	0.327521	-1.306434	-0.348905
H69	H	0.491233	-1.269695	-0.334872
H70	H	0.450270	-1.315150	-0.479662
H71	H	0.452372	-1.411194	-0.360089
H72	H	0.314490	-1.222540	-0.372511
H73	H	0.316591	-1.318571	-0.252907
C74	C	0.064069	-1.871279	-0.474832
C75	C	0.039573	-1.790505	-0.367663
H76	H	0.087097	-1.947208	-0.437621
H77	H	0.123747	-1.831451	-0.529772
H78	H	-0.002032	-1.889973	-0.529771
H79	H	0.105678	-1.771803	-0.312729
H80	H	-0.020109	-1.830340	-0.312700
C81	C	-0.182145	-1.599877	-0.524888
C82	C	-0.109058	-1.626693	-0.632067
H83	H	-0.250866	-1.574696	-0.562091
H84	H	-0.146366	-1.533690	-0.469974
H85	H	-0.198783	-1.673069	-0.469926
H86	H	-0.092413	-1.553498	-0.687023
H87	H	-0.144844	-1.692885	-0.687004
H88	H	0.021698	-1.763969	-0.610857
