data_functionalizedCrystal
_audit_creation_method	'MofGen! by Chris Wilmer'
_symmetry_space_group_name_H-M	'P1'
_symmetry_Int_Tables_number	1
_symmetry_cell_setting	triclinic
loop_
_symmetry_equiv_pos_as_xyz
  x,y,z
_cell_length_a	14.519709
_cell_length_b	10.654550
_cell_length_c	9.730223
_cell_angle_alpha	90.000043
_cell_angle_beta	89.994652
_cell_angle_gamma	95.917462
loop_
_atom_site_label
_atom_site_type_symbol
_atom_site_fract_x
_atom_site_fract_y
_atom_site_fract_z
O1	O	0.129532	-1.666594	-0.114191
O2	O	0.629532	-1.166594	0.385809
O3	O	0.141873	-1.300996	-0.114216
O4	O	0.641873	-0.800996	0.385784
O5	O	0.001514	-1.493488	-0.114190
O6	O	0.501514	-0.993488	0.385810
O7	O	0.269891	-1.474102	-0.114216
O8	O	0.769891	-0.974102	0.385784
O9	O	0.001511	-1.493476	0.114390
O10	O	0.501511	-0.993476	0.614390
O11	O	0.141869	-1.300984	0.114364
O12	O	0.641869	-0.800984	0.614364
O13	O	0.129528	-1.666581	0.114389
O14	O	0.629528	-1.166581	0.614389
Zn15	Zn	0.135698	-1.483781	0.150669
Zn16	Zn	0.635698	-0.983781	0.650669
Zn17	Zn	0.135703	-1.483797	-0.150495
Zn18	Zn	0.635703	-0.983797	0.349505
O19	O	0.269887	-1.474089	0.114363
O20	O	0.769887	-0.974089	0.614363
C21	C	-0.032852	-1.492579	0.000100
C22	C	0.467148	-0.992579	0.500100
C23	C	-0.135247	-1.489871	0.000100
C24	C	0.364753	-0.989871	0.500100
C25	C	0.140965	-1.254201	0.000071
C26	C	0.640965	-0.754201	0.500071
C27	C	0.138254	-1.114784	0.000061
C28	C	0.638254	-0.614784	0.500061
C29	C	0.130436	-1.713377	0.000099
C30	C	0.630436	-1.213377	0.500099
C31	C	0.133147	-1.852794	0.000100
C32	C	0.633147	-1.352794	0.500100
C33	C	-0.510195	-1.479904	0.000064
C34	C	-0.010195	-0.979904	0.500064
C35	C	-0.405872	-1.482672	0.000075
C36	C	0.094128	-0.982672	0.500075
C37	C	-0.322724	-1.484887	0.000083
C38	C	0.177276	-0.984887	0.500083
C39	C	-0.218395	-1.487656	0.000091
C40	C	0.281605	-0.987656	0.500091
C41	C	0.304253	-1.474999	0.000070
C42	C	0.804253	-0.974999	0.500070
C43	C	0.406649	-1.477706	0.000061
C44	C	0.906649	-0.977706	0.500061
N45	N	0.135694	-1.483779	0.356205
N46	N	0.635694	-0.983779	0.856205
C47	C	0.220895	-1.034504	0.000057
C48	C	0.720895	-0.534504	0.500057
C49	C	0.218342	-0.903507	0.000081
C50	C	0.718342	-0.403507	0.500081
C51	C	0.050500	-0.933084	0.000108
C52	C	0.550500	-0.433084	0.500108
C53	C	0.053054	-1.064078	0.000094
C54	C	0.553054	-0.564078	0.500094
N55	N	0.135700	-1.483809	-0.356032
N56	N	0.635700	-0.983809	0.143968
C57	C	0.073570	-1.569043	0.428142
C58	C	0.573570	-1.069043	0.928142
C59	C	0.073570	-1.569056	0.572025
C60	C	0.573570	-1.069056	1.072025
C61	C	0.197827	-1.398535	0.572021
C62	C	0.697827	-0.898535	1.072021
C63	C	0.197822	-1.398518	0.428140
C64	C	0.697822	-0.898518	0.928140
H65	H	0.290270	-1.075783	0.000041
H66	H	0.790270	-0.575783	0.500041
H67	H	0.285637	-0.838147	0.000081
H68	H	0.785637	-0.338147	0.500081
H69	H	0.022982	-1.638484	0.630593
H70	H	0.522982	-1.138484	1.130593
C71	C	0.005225	-1.662814	0.349017
C72	C	0.505225	-1.162814	0.849017
H73	H	-0.031780	-1.713587	0.412473
H74	H	0.468220	-1.213587	0.912473
H75	H	0.038751	-1.715156	0.292871
H76	H	0.538751	-1.215156	0.792871
H77	H	-0.033480	-1.617540	0.292910
H78	H	0.466520	-1.117540	0.792910
C79	C	0.266143	-1.304726	0.651148
C80	C	0.766143	-0.804726	1.151148
H81	H	0.303127	-1.253924	0.587693
H82	H	0.803127	-0.753924	1.087693
H83	H	0.304857	-1.349950	0.707281
H84	H	0.804857	-0.849950	1.207281
H85	H	0.232579	-1.252398	0.707269
H86	H	0.732579	-0.752398	1.207269
H87	H	-0.014247	-1.129446	0.000101
H88	H	0.485753	-0.629446	0.500101
C89	C	-0.043212	-0.877303	0.000126
C90	C	0.456788	-0.377303	0.500126
H91	H	-0.032899	-0.787789	0.000119
H92	H	0.467101	-0.287789	0.500119
H93	H	-0.077278	-0.904851	0.079837
H94	H	0.422722	-0.404851	0.579837
H95	H	-0.077270	-0.904843	-0.079595
H96	H	0.422730	-0.404843	0.420405
C97	C	0.266164	-1.304726	0.349004
C98	C	0.766164	-0.804726	0.849004
H99	H	0.303175	-1.253962	0.412451
H100	H	0.803175	-0.753962	0.912451
H101	H	0.232628	-1.252376	0.292891
H102	H	0.732628	-0.752376	0.792891
H103	H	0.304864	-1.349985	0.292862
H104	H	0.804864	-0.849985	0.792862
