data_functionalizedCrystal
_audit_creation_method	'MofGen! by Chris Wilmer'
_symmetry_space_group_name_H-M	'P1'
_symmetry_Int_Tables_number	1
_symmetry_cell_setting	triclinic
loop_
_symmetry_equiv_pos_as_xyz
  x,y,z
_cell_length_a	10.489741
_cell_length_b	10.654559
_cell_length_c	9.130313
_cell_angle_alpha	90.000468
_cell_angle_beta	90.000996
_cell_angle_gamma	84.513929
loop_
_atom_site_label
_atom_site_type_symbol
_atom_site_fract_x
_atom_site_fract_y
_atom_site_fract_z
O1	O	0.179212	1.667911	0.121807
O2	O	0.196270	1.302442	0.121808
O3	O	0.002139	1.493493	0.121798
O4	O	0.373343	1.476861	0.121816
O5	O	0.002145	1.493490	-0.121801
O6	O	0.196275	1.302440	-0.121791
O7	O	0.179218	1.667909	-0.121792
Cu8	Cu	0.187747	1.485174	-0.144034
Cu9	Cu	0.187740	1.485177	0.144050
O10	O	0.373348	1.476858	-0.121783
C11	C	0.195017	1.255643	0.000008
C12	C	0.191263	1.116198	0.000009
C13	C	0.073433	1.064603	-0.000001
C14	C	0.069913	0.933579	0.000010
C15	C	0.302063	0.905756	0.000033
C16	C	0.305582	1.036777	0.000033
C17	C	-0.060597	1.080666	-0.000021
C18	C	-0.064117	0.949642	-0.000010
C19	C	-0.045389	1.492235	-0.000000
C20	C	-0.187017	1.488477	0.000002
C21	C	-0.255102	1.366917	0.000013
C22	C	-0.347248	1.424340	-0.120093
C23	C	-0.347228	1.424371	0.120076
C24	C	-0.277297	1.545950	-0.120204
C25	C	-0.277268	1.545964	0.120074
C26	C	-0.369386	1.603475	-0.000063
C27	C	0.420876	1.478116	0.000019
C28	C	0.562504	1.481874	0.000026
C29	C	0.180470	1.714708	0.000010
C30	C	0.184224	1.854153	0.000020
N31	N	0.187750	1.485181	-0.346657
C32	C	0.101819	1.569800	-0.423313
C33	C	0.101804	1.569797	-0.576650
C34	C	0.273662	1.400551	-0.576661
C35	C	0.273670	1.400550	-0.423327
C36	C	0.002601	1.667517	-0.423308
C37	C	0.002586	1.667514	-0.576645
N38	N	0.187727	1.485180	0.346672
H39	H	-0.205406	1.266972	-0.000107
H40	H	-0.418855	1.703511	-0.000130
C41	C	-0.128824	1.137047	0.137688
C42	C	-0.187376	1.050120	0.248711
C43	C	-0.255600	1.106500	0.386416
C44	C	-0.265271	1.249809	0.413097
C45	C	-0.206717	1.336744	0.302070
C46	C	-0.138493	1.280363	0.164365
H47	H	-0.180219	0.944027	0.228963
H48	H	-0.298945	1.042144	0.468606
H49	H	-0.315774	1.291545	0.515035
H50	H	-0.213874	1.442837	0.321819
H51	H	-0.095148	1.344720	0.082176
H52	H	0.033672	1.758715	-0.375748
H53	H	-0.116524	0.920247	-0.101959
H54	H	-0.246486	1.597339	-0.221859
H55	H	0.401530	1.078780	0.000065
H56	H	-0.090067	1.636957	-0.624196
C57	C	0.368185	1.307460	-0.338999
C58	C	0.462759	1.214435	-0.423329
C59	C	0.557276	1.121341	-0.338998
C60	C	0.557219	1.121273	-0.170337
C61	C	0.462641	1.214302	-0.085997
C62	C	0.368125	1.307395	-0.170328
H63	H	0.462804	1.214483	-0.548191
H64	H	0.627288	1.052475	-0.401434
H65	H	0.627186	1.052359	-0.107910
H66	H	0.462596	1.214254	0.038865
H67	H	0.298112	1.376261	-0.107893
C68	C	-0.121794	0.901475	0.142073
C69	C	-0.242887	0.830559	0.135617
C70	C	-0.300558	0.782392	0.277698
C71	C	-0.237136	0.805140	0.426235
C72	C	-0.116036	0.876060	0.432697
C73	C	-0.058365	0.924227	0.290615
H74	H	-0.289842	0.813716	0.025656
H75	H	-0.390205	0.729892	0.272915
H76	H	-0.279828	0.769484	0.531412
H77	H	-0.069081	0.892903	0.542658
H78	H	0.031282	0.976727	0.295399
C79	C	-0.129843	1.638480	-0.367073
C80	C	-0.209472	1.734827	-0.270105
C81	C	-0.341912	1.705788	-0.213869
C82	C	-0.394722	1.580403	-0.254602
C83	C	-0.315092	1.484047	-0.351575
C84	C	-0.182652	1.513086	-0.407810
H85	H	-0.170380	1.827652	-0.239947
H86	H	-0.400859	1.777118	-0.142083
H87	H	-0.492762	1.558907	-0.212973
H88	H	-0.354185	1.391222	-0.381732
H89	H	-0.123705	1.441756	-0.479596
H90	H	0.343615	1.331646	-0.639102
H91	H	0.395137	0.841076	0.000054
H92	H	-0.101086	1.126287	-0.105205
H93	H	-0.378234	1.372904	-0.221635
H94	H	-0.246248	1.597356	0.221620
H95	H	0.024445	1.764035	-0.618260
H96	H	-0.378171	1.372922	0.221627
