data_functionalizedCrystal
_audit_creation_method	'MofGen! by Chris Wilmer'
_symmetry_space_group_name_H-M	'P1'
_symmetry_Int_Tables_number	1
_symmetry_cell_setting	triclinic
loop_
_symmetry_equiv_pos_as_xyz
  x,y,z
_cell_length_a	17.699077
_cell_length_b	16.776229
_cell_length_c	14.971486
_cell_angle_alpha	90.011612
_cell_angle_beta	96.552648
_cell_angle_gamma	90.003019
loop_
_atom_site_label
_atom_site_type_symbol
_atom_site_fract_x
_atom_site_fract_y
_atom_site_fract_z
O1	O	1.004357	0.066268	-0.113071
O2	O	0.784015	0.066271	-0.127793
O3	O	0.900092	0.066275	0.009789
O4	O	0.888280	0.066263	-0.250652
O5	O	0.900081	-0.066301	0.009765
O6	O	0.784004	-0.066306	-0.127817
O7	O	1.004347	-0.066309	-0.113095
Zn8	Zn	0.894173	-0.087357	-0.120460
Zn9	Zn	0.894188	0.087319	-0.120428
O10	O	0.888269	-0.066313	-0.250676
C11	C	0.755811	-0.000017	-0.127278
C12	C	0.671789	-0.000016	-0.125698
C13	C	0.632314	-0.072284	-0.124967
C14	C	0.553367	-0.072285	-0.123468
C15	C	0.513897	-0.000016	-0.122707
C16	C	0.553378	0.072257	-0.123436
C17	C	0.632323	0.072257	-0.124928
C18	C	0.235000	0.072259	-0.117417
C19	C	0.156048	0.072254	-0.115927
C20	C	0.156044	-0.072283	-0.115957
C21	C	0.234989	-0.072283	-0.117449
C22	C	0.274464	-0.000010	-0.118173
C23	C	0.360066	-0.000010	-0.119796
C24	C	0.428295	-0.000016	-0.121090
N25	N	0.894169	-0.206568	-0.120481
C26	C	0.848246	-0.751737	-0.066227
C27	C	0.848245	-0.668284	-0.066234
C28	C	0.894191	-0.626567	-0.120420
C29	C	0.940147	-0.668307	-0.174596
C30	C	0.940153	-0.751757	-0.174583
C31	C	0.940128	-0.331759	-0.174648
C32	C	0.940117	-0.248303	-0.174659
C33	C	0.848220	-0.248286	-0.066300
C34	C	0.848225	-0.331737	-0.066287
C35	C	0.894184	-0.373469	-0.120458
C36	C	0.894187	-0.463958	-0.120448
C37	C	0.894185	-0.536080	-0.120436
C38	C	1.032550	-0.000019	-0.113609
C39	C	1.116573	-0.000015	-0.115189
C40	C	0.888803	-0.000026	-0.283987
C41	C	0.890386	-0.000031	-0.383279
N42	N	0.894198	0.206530	-0.120400
C43	C	0.822194	-0.000029	-0.440740
C44	C	0.823686	-0.000018	-0.534035
C45	C	0.893371	-0.000015	-0.569866
C46	C	0.961568	-0.000014	-0.512397
C47	C	0.960075	-0.000019	-0.419104
C48	C	0.964674	-0.000006	-0.706848
C49	C	0.966167	-0.000002	-0.800147
C50	C	0.828285	-0.000005	-0.821779
C51	C	0.826792	-0.000010	-0.728486
C52	C	0.894990	-0.000010	-0.671024
C53	C	0.899558	-0.000010	0.043100
C54	C	0.897975	-0.000000	0.142391
H55	H	0.267122	-0.131131	-0.118073
N56	N	0.989708	-0.796780	-0.233013
H57	H	1.026718	-0.831386	-0.194004
H58	H	1.018765	-0.757646	-0.267338
H59	H	1.018307	-0.000013	-0.541578
H60	H	0.123894	-0.131131	-0.115363
H61	H	0.765448	-0.000041	-0.411575
H62	H	0.664444	-0.131133	-0.125594
H63	H	0.770049	-0.000016	-0.699316
N64	N	1.041323	-0.000002	-0.838803
H65	H	1.071208	0.049146	-0.817837
H66	H	1.031845	-0.000035	-0.906616
H67	H	0.977550	-0.365728	-0.218758
N68	N	1.038226	-0.000016	-0.644864
H69	H	1.040687	0.049127	-0.605657
H70	H	1.082558	-0.000048	-0.681776
N71	N	0.113474	0.150204	-0.115103
H72	H	0.150460	0.195989	-0.115785
H73	H	0.086806	0.153345	-0.059057
H74	H	0.267131	0.131109	-0.118003
N75	N	0.510812	0.150206	-0.122604
H76	H	0.454809	0.139242	-0.121549
H77	H	0.518525	0.181766	-0.178284
N78	N	0.674905	0.150203	-0.125710
H79	H	0.637923	0.195986	-0.125002
H80	H	0.701574	0.153353	-0.181754
H81	H	0.810800	-0.214298	-0.022189
N82	N	0.750136	-0.000015	-0.596012
H83	H	0.705765	-0.000023	-0.559157
H84	H	0.747751	-0.049160	-0.635208
H85	H	0.810828	-0.785697	-0.022107
N86	N	0.989679	-0.203301	-0.233097
H87	H	0.974817	-0.217844	-0.298199
H88	H	1.044713	-0.217826	-0.215283
N89	N	0.798687	-0.623271	-0.007801
H90	H	0.769578	-0.662361	0.026523
H91	H	0.761722	-0.588659	-0.046861
H92	H	0.810808	-0.365699	-0.022167
H93	H	0.772756	-0.000007	-0.868569
N94	N	0.989711	-0.623316	-0.233032
H95	H	0.982735	-0.564118	-0.224823
H96	H	0.974818	-0.637925	-0.298107
N97	N	1.033625	-0.000017	-0.357123
H98	H	1.077997	-0.000015	-0.393977
H99	H	1.036007	-0.049165	-0.317957
H100	H	0.521232	-0.131133	-0.122858
