data_functionalizedCrystal
_audit_creation_method	'MofGen! by Chris Wilmer'
_symmetry_space_group_name_H-M	'P1'
_symmetry_Int_Tables_number	1
_symmetry_cell_setting	triclinic
loop_
_symmetry_equiv_pos_as_xyz
  x,y,z
_cell_length_a	6.817900
_cell_length_b	17.982783
_cell_length_c	12.200875
_cell_angle_alpha	94.640652
_cell_angle_beta	107.143593
_cell_angle_gamma	102.448572
loop_
_atom_site_label
_atom_site_type_symbol
_atom_site_fract_x
_atom_site_fract_y
_atom_site_fract_z
V1	V	-4.063246	-0.105585	-0.358138
O2	O	-4.055274	0.004896	-0.350830
O3	O	-4.009504	-0.209186	-0.356160
O4	O	-4.033044	-0.104039	-0.514119
O5	O	-4.031572	-0.100979	-0.191777
V6	V	-4.545209	-0.092361	-0.338183
O7	O	-4.327928	-0.134593	-0.401911
O8	O	-4.730724	-0.063353	-0.294409
O9	O	-4.375745	0.011240	-0.340161
O10	O	-4.670577	-0.202842	-0.345490
O11	O	-4.694280	-0.096967	-0.504543
O12	O	-4.352205	-0.093907	-0.182201
C13	C	-3.852616	-0.234440	-0.350632
C14	C	-3.890083	-0.319136	-0.350054
C15	C	-3.855758	-0.347995	-0.244684
C16	C	-3.890982	-0.427576	-0.244146
C17	C	-3.960518	-0.478297	-0.348977
C18	C	-3.994852	-0.449433	-0.454355
C19	C	-3.959641	-0.369854	-0.454893
C20	C	-4.136854	-0.770370	-0.452188
C21	C	-4.172057	-0.849955	-0.451641
C22	C	-4.068195	-0.828093	-0.241440
C23	C	-4.032985	-0.748513	-0.241978
C24	C	-4.067332	-0.719657	-0.347356
C25	C	-4.029140	-0.633365	-0.347939
C26	C	-3.998695	-0.564587	-0.348395
C27	C	-3.882643	-0.100313	-0.552123
C28	C	-3.939197	-0.099735	-0.679642
C29	C	-4.042699	-0.098676	-0.913111
C30	C	-3.985095	-0.099265	-0.783192
C31	C	-4.195974	0.036489	-0.345686
C32	C	-4.137746	0.121184	-0.346271
C33	C	-4.165947	-0.097636	-0.144191
C34	C	-4.088632	-0.098210	-0.016672
H35	H	-3.799120	-0.306702	-0.159317
C36	C	-4.030437	-0.859837	-0.125521
C37	C	-4.214298	-0.915232	-0.101704
C38	C	-4.176533	-0.946975	0.014212
C39	C	-3.954906	-0.923322	0.106310
C40	C	-3.771029	-0.867923	0.082496
C41	C	-3.808794	-0.836181	-0.033420
H42	H	-4.378374	-0.932745	-0.169883
H43	H	-4.312652	-0.987984	0.031840
H44	H	-3.926950	-0.946819	0.192118
H45	H	-3.606954	-0.850411	0.150675
H46	H	-3.672675	-0.795172	-0.051048
H47	H	-3.987616	-0.346359	-0.540696
C48	C	-4.071291	-0.505223	-0.569671
C49	C	-4.109017	-0.473476	-0.685576
C50	C	-4.185426	-0.529263	-0.800894
C51	C	-4.224109	-0.616798	-0.800308
C52	C	-4.186384	-0.648549	-0.684399
C53	C	-4.109975	-0.592762	-0.569080
H54	H	-4.080381	-0.408674	-0.686014
H55	H	-4.213352	-0.505758	-0.886698
H56	H	-4.280671	-0.658095	-0.885673
H57	H	-4.215019	-0.713351	-0.683960
H58	H	-4.082048	-0.616267	-0.483277
H59	H	-3.863034	-0.451069	-0.158343
H60	H	-3.976355	-0.707219	-0.156613
C61	C	-4.248575	-0.905751	-0.566964
C62	C	-4.286371	-0.874013	-0.682877
C63	C	-4.362886	-0.929809	-0.798193
C64	C	-4.401605	-1.017343	-0.797595
C65	C	-4.363809	-1.049086	-0.681678
C66	C	-4.287294	-0.993290	-0.566362
H67	H	-4.257709	-0.809211	-0.683323
H68	H	-4.390865	-0.906311	-0.884002
H69	H	-4.458245	-1.058647	-0.882958
H70	H	-4.392471	-1.113888	-0.681231
H71	H	-4.259315	-1.016788	-0.480553
H72	H	-4.164798	-0.746885	-0.537991
