data_functionalizedCrystal
_audit_creation_method	'MofGen! by Chris Wilmer'
_symmetry_space_group_name_H-M	'P1'
_symmetry_Int_Tables_number	1
_symmetry_cell_setting	triclinic
loop_
_symmetry_equiv_pos_as_xyz
  x,y,z
_cell_length_a	15.995350
_cell_length_b	13.330367
_cell_length_c	14.853567
_cell_angle_alpha	89.994272
_cell_angle_beta	83.563652
_cell_angle_gamma	89.985824
loop_
_atom_site_label
_atom_site_type_symbol
_atom_site_fract_x
_atom_site_fract_y
_atom_site_fract_z
O1	O	1.111103	0.083330	0.116200
O2	O	1.611103	0.583330	0.616200
O3	O	0.867345	0.083350	0.130550
O4	O	1.367345	0.583350	0.630550
O5	O	0.995735	0.083342	-0.007864
O6	O	1.495735	0.583342	0.492136
O7	O	0.982713	0.083337	0.254613
O8	O	1.482713	0.583337	0.754613
O9	O	0.995759	-0.083505	-0.007855
O10	O	1.495759	0.416495	0.492145
O11	O	0.867369	-0.083498	0.130559
O12	O	1.367369	0.416502	0.630559
O13	O	1.111127	-0.083517	0.116209
O14	O	1.611127	0.416483	0.616209
Cu15	Cu	0.989250	-0.098742	0.123385
Cu16	Cu	1.489250	0.401258	0.623385
Cu17	Cu	0.989222	0.098574	0.123374
Cu18	Cu	1.489222	0.598574	0.623374
O19	O	0.982737	-0.083510	0.254622
O20	O	1.482737	0.416490	0.754622
C21	C	0.836161	-0.000071	0.129961
C22	C	1.336161	0.499929	0.629961
C23	C	0.743209	-0.000064	0.128182
C24	C	1.243209	0.499936	0.628182
N25	N	0.989202	0.237356	0.123360
N26	N	1.489202	0.737356	0.623360
C27	C	0.995157	-0.000078	-0.041447
C28	C	1.495157	0.499922	0.458553
C29	C	0.993389	-0.000069	-0.141528
C30	C	1.493389	0.499931	0.358472
C31	C	0.405454	-0.000084	0.121795
C32	C	0.905454	0.499916	0.621795
C33	C	0.452773	-0.000455	0.023220
C34	C	0.952773	0.499545	0.523220
C35	C	0.549465	-0.000072	0.024999
C36	C	1.049465	0.499928	0.524999
C37	C	0.573018	-0.000075	0.124963
C38	C	1.073018	0.499925	0.624963
C39	C	0.531974	0.095198	0.173579
C40	C	1.031974	0.595198	0.673579
C41	C	0.435335	0.095271	0.171103
C42	C	0.935335	0.595271	0.671103
C43	C	0.435026	-0.094465	0.173150
C44	C	0.935026	0.405535	0.673150
C45	C	0.531971	-0.095717	0.173126
C46	C	1.031971	0.404283	0.673126
C47	C	0.667718	-0.000066	0.126759
C48	C	1.167718	0.499934	0.626759
C49	C	0.310754	-0.000086	0.120002
C50	C	0.810754	0.499914	0.620002
C51	C	1.142311	-0.000094	0.116798
C52	C	1.642311	0.499906	0.616798
C53	C	1.235263	-0.000095	0.118576
C54	C	1.735263	0.499905	0.618576
N55	N	0.989276	-0.237523	0.123391
N56	N	1.489276	0.262477	0.623391
C57	C	0.932308	0.709982	0.184554
C58	C	1.432308	1.209982	0.684554
C59	C	1.046228	0.709943	0.062222
C60	C	1.546228	1.209943	0.562222
C61	C	1.046216	0.604925	0.062216
C62	C	1.546216	1.104925	0.562216
C63	C	0.989247	0.552430	0.123379
C64	C	1.489247	1.052430	0.623379
C65	C	0.932291	0.604954	0.184548
C66	C	1.432291	1.104954	0.684548
C67	C	1.103165	0.552394	0.001041
C68	C	1.603165	1.052394	0.501041
C69	C	1.103154	0.447369	0.001032
C70	C	1.603154	0.947369	0.501032
C71	C	1.046188	0.394872	0.062200
C72	C	1.546188	0.894872	0.562200
C73	C	0.989231	0.447402	0.123373
C74	C	1.489231	0.947402	0.623373
C75	C	0.932263	0.394907	0.184536
C76	C	1.432263	0.894907	0.684536
C77	C	0.875309	0.447435	0.245713
C78	C	1.375309	0.947435	0.745713
C79	C	0.875326	0.552457	0.245716
C80	C	1.375326	1.052457	0.745716
C81	C	1.046171	0.289851	0.062197
C82	C	1.546171	0.789851	0.562197
C83	C	0.932246	0.289879	0.184529
C84	C	1.432246	0.789879	0.684529
C85	C	0.909648	-0.000082	-0.553949
C86	C	1.409648	0.499918	-0.053949
C87	C	1.062178	-0.000094	-0.575436
C88	C	1.562178	0.499906	-0.075436
C89	C	1.063841	-0.000088	-0.481405
C90	C	1.563841	0.499912	0.018595
C91	C	0.988406	-0.000081	-0.423641
C92	C	1.488406	0.499919	0.076359
C93	C	0.911308	-0.000079	-0.459909
C94	C	1.411308	0.499921	0.040091
C95	C	1.140937	-0.000100	-0.445129
C96	C	1.640937	0.499900	0.054871
C97	C	1.142603	-0.000096	-0.351093
C98	C	1.642603	0.499904	0.148907
C99	C	1.067167	-0.000081	-0.293327
C100	C	1.567167	0.499919	0.206673
C101	C	0.990066	-0.000078	-0.329600
C102	C	1.490066	0.499922	0.170400
C103	C	0.914631	-0.000071	-0.271837
C104	C	1.414631	0.499929	0.228163
C105	C	0.837529	-0.000061	-0.308108
C106	C	1.337529	0.499939	0.191892
C107	C	0.835872	-0.000064	-0.402144
C108	C	1.335872	0.499936	0.097856
C109	C	1.068824	-0.000077	-0.199292
C110	C	1.568824	0.499923	0.300708
C111	C	0.916291	-0.000068	-0.177796
C112	C	1.416291	0.499932	0.322204
C113	C	0.983315	-0.000087	0.288206
C114	C	1.483315	0.499913	0.788206
C115	C	0.985083	-0.000089	0.388287
C116	C	1.485083	0.499911	0.888287
H117	H	0.577860	-0.068367	-0.013216
H118	H	1.077860	0.431633	0.486784
H119	H	0.885859	0.247144	0.234339
H120	H	1.385859	0.747144	0.734339
F121	F	0.814675	0.391555	0.310800
F122	F	1.314675	0.891555	0.810800
H123	H	0.577269	0.068344	-0.013482
H124	H	1.077269	0.568344	0.486518
H125	H	1.131599	-0.000092	-0.169764
H126	H	1.631599	0.499908	0.330236
H127	H	0.403170	0.099593	0.243475
H128	H	0.903170	0.599593	0.743475
F129	F	0.411335	0.188361	0.124753
F130	F	0.911335	0.688361	0.624753
H131	H	0.854861	-0.000057	-0.130770
H132	H	1.354861	0.499943	0.369230
H133	H	0.403349	-0.095112	0.245829
H134	H	0.903349	0.404888	0.745829
F135	F	0.757248	-0.000060	-0.246622
F136	F	1.257248	0.499940	0.253378
F137	F	0.871698	0.765883	0.249665
F138	F	1.371698	1.265883	0.749665
F139	F	1.164321	0.608263	-0.063467
F140	F	1.664321	1.108263	0.436533
H141	H	0.414463	-0.166680	0.140927
H142	H	0.914463	0.333320	0.640927
F143	F	0.753822	-0.000051	-0.440753
F144	F	1.253822	0.499949	0.059247
H145	H	1.202353	-0.000116	-0.492167
H146	H	1.702353	0.499884	0.007833
F147	F	0.427087	0.088353	-0.028056
F148	F	0.927087	0.588353	0.471944
F149	F	0.550566	0.099845	0.269566
F150	F	1.050566	0.599845	0.769566
H151	H	0.828956	0.595232	0.295524
H152	H	1.328956	1.095232	0.795524
H153	H	0.846873	-0.000070	-0.583486
H154	H	1.346873	0.499930	-0.083486
F155	F	1.107163	0.765813	-0.002533
F156	F	1.607163	1.265813	0.497467
H157	H	0.434215	-0.068778	-0.016180
H158	H	0.934215	0.431222	0.483820
F159	F	1.142457	-0.000116	-0.636914
F160	F	1.642457	0.499884	-0.136914
H161	H	1.149529	0.404607	-0.048781
H162	H	1.649529	0.904607	0.451219
H163	H	1.092538	0.247087	0.012383
H164	H	1.592538	0.747087	0.512383
H165	H	1.205384	-0.000102	-0.321569
H166	H	1.705384	0.499898	0.178431
H167	H	0.560298	0.166105	0.139805
H168	H	1.060298	0.666105	0.639805
F169	F	0.567552	-0.187843	0.126667
F170	F	1.067552	0.312157	0.626667
H171	H	0.547422	-0.101474	0.246024
H172	H	1.047422	0.398526	0.746024
