data_functionalizedCrystal
_audit_creation_method	'MofGen! by Chris Wilmer'
_symmetry_space_group_name_H-M	'P1'
_symmetry_Int_Tables_number	1
_symmetry_cell_setting	triclinic
loop_
_symmetry_equiv_pos_as_xyz
  x,y,z
_cell_length_a	15.944551
_cell_length_b	15.944551
_cell_length_c	15.021413
_cell_angle_alpha	89.996935
_cell_angle_beta	89.997174
_cell_angle_gamma	96.501262
loop_
_atom_site_label
_atom_site_type_symbol
_atom_site_fract_x
_atom_site_fract_y
_atom_site_fract_z
O1	O	1.114529	-0.108321	-0.073941
O2	O	0.869979	-0.121677	-0.073964
O3	O	0.998932	0.007276	-0.073944
O4	O	0.985576	-0.237274	-0.073961
O5	O	0.998912	0.007257	0.074121
O6	O	0.869959	-0.121695	0.074101
O7	O	1.114508	-0.108339	0.074123
Zn8	Zn	0.992230	-0.115020	0.097620
Zn9	Zn	0.992257	-0.114996	-0.097461
O10	O	0.985555	-0.237292	0.074103
C11	C	0.838675	-0.121132	0.000066
C12	C	0.745429	-0.119470	0.000057
C13	C	0.530572	-0.035565	0.000081
C14	C	0.469562	-0.074518	-0.072926
C15	C	0.574703	-0.116462	0.000068
C16	C	0.469564	-0.074556	0.073054
C17	C	0.409790	-0.113551	0.000083
C18	C	0.514921	-0.155438	-0.072998
C19	C	0.514930	-0.155464	0.073047
C20	C	0.453937	-0.194476	0.000023
C21	C	0.669705	-0.118137	0.000059
C22	C	0.314789	-0.111883	0.000085
C23	C	0.998367	0.038561	0.000089
C24	C	0.996705	0.131807	0.000089
C25	C	1.145813	-0.108885	0.000092
C26	C	1.239059	-0.110547	0.000094
C27	C	0.986120	-0.268577	0.000069
C28	C	0.987782	-0.361823	0.000063
N29	N	0.992218	-0.115036	0.230758
C30	C	0.912801	0.346663	0.000069
C31	C	0.951753	0.407672	0.073077
C32	C	0.993698	0.302533	0.000082
C33	C	0.951792	0.407673	-0.072903
C34	C	0.990787	0.467445	0.000071
C35	C	1.032672	0.362313	0.073150
C36	C	1.032700	0.362308	-0.072895
C37	C	1.071711	0.423298	0.000131
C38	C	0.995372	0.207530	0.000089
C39	C	0.989119	0.562446	0.000070
N40	N	0.992276	-0.114973	-0.230598
C41	C	0.932581	-0.174636	0.470432
C42	C	1.008481	-0.190943	0.529772
C43	C	0.992239	-0.115015	0.412365
C44	C	0.916360	-0.098727	0.529766
C45	C	0.992253	-0.114997	0.587789
C46	C	1.068178	-0.131360	0.470398
C47	C	0.976006	-0.039111	0.470387
C48	C	1.051962	-0.055386	0.529701
C49	C	0.992230	-0.115028	0.311307
C50	C	0.992271	-0.114984	0.688844
H51	H	0.563905	0.031573	-0.000005
H52	H	0.917528	0.427772	0.134794
O53	O	0.445630	-0.033558	-0.146486
C54	C	0.485049	0.050185	-0.146235
H55	H	0.503290	0.069670	-0.075191
H56	H	0.439602	0.094012	-0.173806
H57	H	0.544130	0.054592	-0.189503
O58	O	0.538917	-0.196158	-0.146689
C59	C	0.627215	-0.197219	-0.145813
H60	H	0.657407	-0.143304	-0.102545
H61	H	0.652672	-0.189269	-0.216595
H62	H	0.642965	-0.259939	-0.117593
H63	H	0.917574	0.427758	-0.134630
O64	O	0.959735	0.037464	0.439192
C65	C	1.028532	0.073189	0.387548
H66	H	1.087893	0.044299	0.407827
H67	H	1.038482	0.144305	0.398960
H68	H	1.014852	0.059853	0.314096
O69	O	0.414410	-0.274665	-0.000184
C70	C	0.437549	-0.316986	-0.077248
H71	H	0.459458	-0.268757	-0.130800
H72	H	0.380861	-0.360326	-0.102729
H73	H	0.491035	-0.356098	-0.060531
O74	O	0.538924	-0.196135	0.146766
C75	C	0.516062	-0.153285	0.223592
H76	H	0.509297	-0.084802	0.206106
H77	H	0.566984	-0.155343	0.276567
H78	H	0.453420	-0.185059	0.250228
O79	O	1.024995	-0.267506	0.560798
C80	C	1.104429	-0.285135	0.529274
H81	H	1.121171	-0.246928	0.466325
H82	H	1.101981	-0.355327	0.513610
H83	H	1.154366	-0.267405	0.582393
O84	O	0.445703	-0.033619	0.146660
C85	C	0.485096	0.050134	0.146372
H86	H	0.544502	0.054166	0.103637
H87	H	0.502793	0.070263	0.217371
H88	H	0.439848	0.093699	0.117877
O89	O	1.112327	0.004688	0.560519
C90	C	1.192179	-0.012785	0.530086
H91	H	1.189780	-0.082789	0.513527
H92	H	1.241287	0.004127	0.584231
H93	H	1.210040	0.026178	0.467892
H94	H	1.066851	0.342314	0.134941
H95	H	1.066896	0.342185	-0.134615
O96	O	0.872545	-0.234940	0.439417
C97	C	0.889983	-0.314854	0.469696
H98	H	0.959967	-0.312487	0.486336
H99	H	0.873137	-0.363850	0.415425
H100	H	0.850946	-0.332844	0.531808
O101	O	1.144679	-0.147962	0.439277
C102	C	1.143733	-0.147815	0.345421
H103	H	1.075865	-0.160959	0.320875
H104	H	1.182099	-0.198821	0.319523
H105	H	1.172471	-0.083550	0.319972
H106	H	1.138919	0.456457	0.000178
O107	O	0.839763	-0.082245	0.560725
C108	C	0.785789	-0.071506	0.488271
H109	H	0.825189	-0.052578	0.426648
H110	H	0.744177	-0.019978	0.504707
H111	H	0.744355	-0.133277	0.474868
O112	O	0.832682	0.306959	0.000301
C113	C	0.790325	0.329948	0.077404
H114	H	0.838536	0.351932	0.130940
H115	H	0.747115	0.273159	0.102877
H116	H	0.751072	0.383339	0.060743
