data_functionalizedCrystal
_audit_creation_method	'MofGen! by Chris Wilmer'
_symmetry_space_group_name_H-M	'P1'
_symmetry_Int_Tables_number	1
_symmetry_cell_setting	triclinic
loop_
_symmetry_equiv_pos_as_xyz
  x,y,z
_cell_length_a	13.635800
_cell_length_b	11.102183
_cell_length_c	17.078481
_cell_angle_alpha	84.888595
_cell_angle_beta	99.306161
_cell_angle_gamma	71.396124
loop_
_atom_site_label
_atom_site_type_symbol
_atom_site_fract_x
_atom_site_fract_y
_atom_site_fract_z
V1	V	2.002845	-0.175542	0.247360
O2	O	1.983374	0.008741	0.242653
O3	O	1.991590	-0.348364	0.245667
O4	O	1.968158	-0.172708	0.355243
O5	O	2.006969	-0.168131	0.132318
V6	V	2.244340	-0.153515	0.233600
O7	O	2.134058	-0.223859	0.277543
O8	O	2.338226	-0.105198	0.203417
O9	O	2.143992	0.019306	0.235294
O10	O	2.322510	-0.337798	0.238308
O11	O	2.298915	-0.160926	0.348642
O12	O	2.167425	-0.156350	0.125718
V13	V	2.502845	-0.175542	0.247360
O14	O	2.483374	0.008741	0.242653
O15	O	2.491590	-0.348364	0.245667
O16	O	2.468158	-0.172708	0.355243
O17	O	2.506969	-0.168131	0.132318
V18	V	2.744340	-0.153515	0.233600
O19	O	2.634058	-0.223859	0.277543
O20	O	2.838226	-0.105198	0.203417
O21	O	2.643992	0.019306	0.235294
O22	O	2.822510	-0.337798	0.238308
O23	O	2.798915	-0.160926	0.348642
O24	O	2.667425	-0.156350	0.125718
C25	C	1.917579	-0.390498	0.241765
C26	C	1.948951	-0.531781	0.241099
C27	C	1.919858	-0.495678	0.095788
C28	C	1.920047	-0.544001	0.022823
C29	C	1.949527	-0.676750	0.022202
C30	C	1.978822	-0.761181	0.094554
C31	C	1.978632	-0.712858	0.167520
C32	C	1.949147	-0.580104	0.168133
C33	C	2.007732	-0.748961	0.312830
C34	C	1.978246	-0.616212	0.313452
C35	C	2.037027	-0.833392	0.385182
C36	C	2.036831	-0.785070	0.458149
C37	C	2.007348	-0.652312	0.458767
C38	C	1.978056	-0.567890	0.386417
C39	C	1.887688	-0.166430	0.381539
C40	C	1.900055	-0.165256	0.469734
C41	C	2.049675	0.061434	0.239194
C42	C	2.007922	0.202716	0.239864
C43	C	2.079566	-0.162632	0.099418
C44	C	2.056818	-0.163799	0.011222
C45	C	2.417579	-0.390498	0.241765
C46	C	2.448951	-0.531781	0.241099
C47	C	2.387688	-0.166430	0.381539
C48	C	2.400055	-0.165256	0.469734
C49	C	1.997006	-0.171049	0.515209
C50	C	2.008619	-0.169945	0.598077
C51	C	1.923283	-0.163058	0.635469
C52	C	1.826323	-0.157261	0.589987
C53	C	1.814708	-0.158355	0.507120
C54	C	1.948244	-0.159096	0.882872
C55	C	1.959867	-0.158006	0.965746
C56	C	2.142163	-0.170688	0.973831
C57	C	2.130541	-0.171790	0.890962
C58	C	2.033581	-0.165986	0.845487
N59	N	1.935152	-0.161934	0.720174
N60	N	2.021711	-0.167101	0.760782
C61	C	2.549675	0.061434	0.239194
C62	C	2.507922	0.202716	0.239864
C63	C	2.579566	-0.162632	0.099418
C64	C	2.556818	-0.163799	0.011222
C65	C	2.497011	-0.171037	0.515195
C66	C	2.508640	-0.169917	0.598062
C67	C	2.423315	-0.163026	0.635468
C68	C	2.326350	-0.157242	0.590000
C69	C	2.314719	-0.158352	0.507133
C70	C	2.459910	-0.170675	-0.026163
C71	C	2.438518	-0.171757	-0.109033
C72	C	2.514037	-0.165971	-0.154516
C73	C	2.610952	-0.159091	-0.117125
C74	C	2.632341	-0.158000	-0.034258
C75	C	2.631278	-0.544737	0.249008
C76	C	2.737174	-0.617588	0.252648
C77	C	2.766645	-0.750335	0.252023
C78	C	2.690209	-0.810235	0.247762
C79	C	2.584312	-0.737384	0.244122
C80	C	2.554851	-0.604634	0.244745
C81	C	2.401989	-0.724430	0.236219
C82	C	2.372515	-0.591681	0.236838
C83	C	2.325554	-0.784329	0.231958
C84	C	2.219653	-0.711477	0.228313
C85	C	2.190185	-0.578722	0.228936
C86	C	2.266619	-0.518830	0.233198
H87	H	1.895823	-0.387583	0.096285
H88	H	2.235766	-0.153647	0.470125
C89	C	2.615313	-0.176289	0.648062
N90	N	2.695659	-0.181090	0.685720
H91	H	2.221104	-0.175411	1.010866
H92	H	1.890369	-0.152393	0.996187
H93	H	2.002837	-0.869271	0.094043
H94	H	1.735754	-0.153607	0.470091
C95	C	1.949735	-0.729906	-0.058063
N96	N	1.949889	-0.769943	-0.118519
C97	C	2.331912	-0.179348	-0.150144
N98	N	2.251619	-0.185071	-0.181106
H99	H	2.061036	-0.941483	0.384672
C100	C	2.738953	-0.150446	0.006858
N101	N	2.819258	-0.144756	0.037821
H102	H	2.157431	-0.760260	0.224848
H103	H	2.060690	-0.853823	0.517053
H104	H	2.007209	-0.612979	0.518185
H105	H	1.869306	-0.154415	0.845860
C106	C	2.590883	-0.178608	0.474064
N107	N	2.661592	-0.184301	0.443088
C108	C	2.376818	-0.177031	0.023852
N109	N	2.314223	-0.181809	0.061517
H110	H	2.496613	-0.166876	-0.221990
C111	C	2.694017	-0.152732	-0.167168
N112	N	2.756582	-0.147950	-0.204863
C113	C	1.887815	-0.451118	-0.056762
N114	N	1.863538	-0.381161	-0.116705
C115	C	1.945626	-0.421860	0.387090
N116	N	1.921203	-0.311868	0.387594
C117	C	2.598869	-0.398713	0.249701
N118	N	2.574462	-0.288728	0.250229
C119	C	2.232467	-0.149521	0.631146
N120	N	2.161743	-0.143660	0.662135
C121	C	2.090885	-0.178624	0.474086
N122	N	2.161598	-0.184324	0.443114
C123	C	2.883135	-0.830473	0.256027
N124	N	2.970876	-0.890832	0.259040
H125	H	2.200033	-0.177397	0.860524
H126	H	2.087564	-0.174655	0.635100
C127	C	2.722635	-0.956263	0.247086
N128	N	2.747057	-1.066254	0.246576
H129	H	2.799403	-0.568803	0.256120
C130	C	2.357975	-0.930356	0.231274
N131	N	2.382393	-1.040344	0.230756
H132	H	2.103955	-0.519415	0.225978
C133	C	2.234210	-0.372801	0.233867
N134	N	2.209802	-0.262809	0.234367
H135	H	2.432800	-0.162124	0.702944
H136	H	1.756839	-0.151645	0.620437
