data_functionalizedCrystal
_audit_creation_method	'MofGen! by Chris Wilmer'
_symmetry_space_group_name_H-M	'P1'
_symmetry_Int_Tables_number	1
_symmetry_cell_setting	triclinic
loop_
_symmetry_equiv_pos_as_xyz
  x,y,z
_cell_length_a	14.853566
_cell_length_b	15.995292
_cell_length_c	13.330367
_cell_angle_alpha	89.998548
_cell_angle_beta	89.995295
_cell_angle_gamma	83.551515
loop_
_atom_site_label
_atom_site_type_symbol
_atom_site_fract_x
_atom_site_fract_y
_atom_site_fract_z
O1	O	1.196198	0.109315	-0.083350
O2	O	0.933717	0.122339	-0.083366
O3	O	1.072160	-0.006056	-0.083359
O4	O	1.057755	0.237709	-0.083357
O5	O	1.072140	-0.006059	0.083488
O6	O	0.933697	0.122336	0.083482
O7	O	1.196178	0.109312	0.083497
Cu8	Cu	1.064936	0.115824	0.098724
Cu9	Cu	1.064959	0.115827	-0.098592
O10	O	1.057735	0.237706	0.083490
C11	C	0.900120	0.121747	0.000056
C12	C	0.800039	0.119979	0.000050
C13	C	0.376876	0.112504	-0.090881
C14	C	0.376876	0.112501	0.091022
C15	C	0.470907	0.114161	0.091019
C16	C	0.517928	0.114994	0.000064
C17	C	0.470916	0.114167	-0.090887
C18	C	0.517925	0.114997	0.181969
C19	C	0.611962	0.116658	0.181969
C20	C	0.658984	0.117485	0.091014
C21	C	0.611967	0.116657	0.000058
C22	C	0.658988	0.117489	-0.090896
C23	C	0.611973	0.116655	-0.181852
C24	C	0.517939	0.114993	-0.181843
C25	C	0.753019	0.119147	0.091004
C26	C	0.753027	0.119152	-0.090902
C27	C	1.071564	-0.037254	0.000062
C28	C	1.069806	-0.130209	0.000055
C29	C	1.063344	-0.467955	0.000063
C30	C	1.163268	-0.444526	0.000442
C31	C	1.165168	-0.347849	0.000062
C32	C	1.066551	-0.300395	0.000060
C33	C	1.016605	-0.329552	-0.095218
C34	C	1.015402	-0.426344	-0.095295
C35	C	1.013339	-0.426207	0.094442
C36	C	1.017041	-0.329710	0.095698
C37	C	1.068357	-0.205697	0.000054
C38	C	1.061535	-0.562652	0.000062
C39	C	1.229775	0.109903	0.000074
C40	C	1.329856	0.111671	0.000073
C41	C	1.058331	0.268904	0.000067
C42	C	1.060089	0.361859	0.000068
N43	N	1.064926	0.115821	0.237505
N44	N	1.064977	0.115823	-0.237374
C45	C	1.003654	0.172658	0.710125
C46	C	1.126289	0.058990	0.710099
C47	C	1.126278	0.058987	0.605081
C48	C	1.064956	0.115822	0.552580
C49	C	1.003644	0.172659	0.605097
C50	C	1.187595	0.002157	0.552556
C51	C	1.187588	0.002153	0.447531
C52	C	1.126261	0.058984	0.395028
C53	C	1.064946	0.115822	0.447552
C54	C	1.003624	0.172657	0.395051
C55	C	0.942303	0.229492	0.447573
C56	C	0.942317	0.229490	0.552594
C57	C	1.126248	0.058986	0.290006
C58	C	1.003613	0.172658	0.290023
H59	H	0.338594	0.111821	-0.164936
H60	H	1.237527	-0.044112	0.595305
H61	H	1.201776	-0.472480	0.068770
H62	H	0.338586	0.111829	0.165073
H63	H	0.479652	0.114313	-0.255894
O64	O	1.217307	-0.323402	-0.090561
H65	H	1.218855	-0.254188	-0.091143
O66	O	0.662667	0.117574	0.280065
H67	H	0.614171	0.116719	0.343310
H68	H	0.892378	0.275771	0.404814
H69	H	0.892393	0.275764	0.595364
H70	H	0.479633	0.114325	0.256019
O71	O	1.192429	-0.002301	0.766726
H72	H	1.235066	-0.041818	0.712561
H73	H	1.237517	-0.044126	0.404774
H74	H	1.204285	-0.328779	0.068360
O75	O	0.803727	0.120057	0.189093
H76	H	0.793732	0.062714	0.232714
O77	O	1.214022	-0.482891	-0.089553
H78	H	1.168388	-0.518570	-0.134553
H79	H	1.176178	0.012715	0.247248
H80	H	1.050009	-0.453119	-0.166514
H81	H	0.942137	-0.440979	-0.099613
O82	O	0.920481	-0.287450	-0.099933
H83	H	0.907256	-0.245193	-0.034262
O84	O	0.937522	0.233962	0.766762
H85	H	0.947830	0.224421	0.848612
H86	H	1.044798	-0.454260	0.166662
O87	O	0.803742	0.120053	-0.189004
H88	H	0.755249	0.119199	-0.252244
O89	O	1.062790	-0.303240	-0.189144
H90	H	1.121278	-0.269366	-0.168207
O91	O	1.065199	-0.305058	0.189073
H92	H	1.124149	-0.272060	0.167469
O93	O	0.662702	0.117550	-0.279946
H94	H	0.636616	0.174257	-0.323562
O95	O	0.921697	-0.286139	0.103314
H96	H	0.872923	-0.333863	0.102379
O97	O	0.915914	-0.444859	0.095309
H98	H	0.903126	-0.483669	0.028887
O99	O	0.937475	0.233961	0.233396
H100	H	0.894846	0.273482	0.287564
