data_functionalizedCrystal
_audit_creation_method	'MofGen! by Chris Wilmer'
_symmetry_space_group_name_H-M	'P1'
_symmetry_Int_Tables_number	1
_symmetry_cell_setting	triclinic
loop_
_symmetry_equiv_pos_as_xyz
  x,y,z
_cell_length_a	13.033293
_cell_length_b	13.032868
_cell_length_c	21.395355
_cell_angle_alpha	97.163312
_cell_angle_beta	97.215283
_cell_angle_gamma	74.808508
loop_
_atom_site_label
_atom_site_type_symbol
_atom_site_fract_x
_atom_site_fract_y
_atom_site_fract_z
Zn1	Zn	1.570223	0.216991	0.490551
Zn2	Zn	2.070223	0.716991	0.990551
Zn3	Zn	1.547507	0.394607	0.397561
Zn4	Zn	2.047507	0.894607	0.897561
Zn5	Zn	1.392573	0.239526	0.373953
Zn6	Zn	1.892573	0.739526	0.873953
Zn7	Zn	1.369974	0.417100	0.490472
Zn8	Zn	1.869974	0.917100	0.990472
O9	O	1.470069	0.317056	0.438134
O10	O	1.970069	0.817056	0.938134
O11	O	1.715855	0.221708	0.488130
O12	O	2.215855	0.721708	0.988130
O13	O	1.526906	0.374053	0.306749
O14	O	2.026906	0.874053	0.806749
O15	O	1.435103	0.087888	0.379573
O16	O	1.935103	0.587888	0.879573
O17	O	1.699166	0.352202	0.419810
O18	O	2.199166	0.852202	0.919810
O19	O	1.565621	0.071332	0.465237
O20	O	2.065621	0.571332	0.965237
O21	O	1.413076	0.260115	0.289404
O22	O	1.913076	0.760115	0.789404
O23	O	1.240929	0.281926	0.379496
O24	O	1.740929	0.781926	0.879496
O25	O	1.396586	0.390538	0.578163
O26	O	1.896586	0.890538	1.078163
O27	O	1.224326	0.412389	0.465102
O28	O	1.724326	0.912389	0.965102
O29	O	1.543708	0.243518	0.578221
O30	O	2.043708	0.743518	1.078221
O31	O	1.504993	0.546239	0.419733
O32	O	2.004993	1.046239	0.919733
O33	O	1.374559	0.562765	0.487994
O34	O	1.874559	1.062765	0.987994
C35	C	1.194085	0.352045	0.419729
C36	C	1.694085	0.852045	0.919729
C37	C	1.076015	0.367038	0.411871
C38	C	1.576015	0.867038	0.911871
C39	C	1.031620	0.309258	0.442237
C40	C	1.531620	0.809258	0.942237
C41	C	0.909588	0.324753	0.434117
C42	C	1.409588	0.824753	0.934117
C43	C	1.434888	0.593041	0.456433
C44	C	1.934888	1.093041	0.956433
C45	C	1.419934	0.711097	0.464288
C46	C	1.919934	1.211097	0.964288
C47	C	1.477860	0.755511	0.434048
C48	C	1.977860	1.255511	0.934048
C49	C	1.462406	0.877527	0.442167
C50	C	1.962406	1.377527	0.942167
C51	C	1.747130	0.281932	0.456612
C52	C	2.247130	0.781932	0.956612
C53	C	1.865197	0.266964	0.464486
C54	C	2.365197	0.766964	0.964486
C55	C	1.470160	0.317024	0.601562
C56	C	1.970160	0.817024	1.101562
C57	C	1.470199	0.317010	0.671205
C58	C	1.970199	0.817010	1.171205
C59	C	1.505382	1.039994	0.419771
C60	C	2.005382	1.539994	0.919771
C61	C	1.520340	0.921938	0.411923
C62	C	2.020340	1.421938	0.911923
C63	C	1.470049	0.317004	0.275341
C64	C	1.970049	0.817004	0.775341
C65	C	1.470254	0.316693	0.205692
C66	C	1.970254	0.816693	0.705692
C67	C	1.546803	0.240454	0.703949
C68	C	2.046803	0.740454	1.203949
C69	C	1.546807	0.240409	0.769382
C70	C	2.046807	0.740409	1.269382
C71	C	1.470216	0.316936	0.802069
C72	C	1.970216	0.816936	1.302069
C73	C	1.393598	0.393498	0.769317
C74	C	1.893598	0.893498	1.269317
C75	C	1.393590	0.393535	0.703885
C76	C	1.893590	0.893535	1.203885
C77	C	1.449636	0.413645	0.911527
C78	C	1.949636	0.913645	1.411527
C79	C	1.449652	0.413609	0.976958
C80	C	1.949652	0.913609	1.476958
C81	C	1.470237	0.316823	1.003883
C82	C	1.970237	0.816823	1.503883
C83	C	1.490828	0.220067	0.965370
C84	C	1.990828	0.720067	1.465370
C85	C	1.490820	0.220104	0.899938
C86	C	1.990820	0.720104	1.399938
C87	C	1.470217	0.316904	0.873020
C88	C	1.970217	0.816904	1.373020
C89	C	1.546850	0.240212	1.107577
C90	C	2.046850	0.740212	1.607577
C91	C	1.546847	0.240166	1.173009
C92	C	2.046847	0.740166	1.673009
C93	C	1.393643	0.393264	1.172944
C94	C	1.893643	0.893264	1.672944
C95	C	1.393641	0.393302	1.107512
C96	C	1.893641	0.893302	1.607512
C97	C	1.470250	0.316776	1.074832
C98	C	1.970250	0.816776	1.574832
H99	H	0.917528	0.206014	0.496494
H100	H	1.417528	0.706014	0.996494
H101	H	1.538898	0.703206	0.402151
H102	H	2.038898	1.203206	0.902151
H103	H	1.401373	0.929831	0.474071
H104	H	1.901373	1.429831	0.974071
H105	H	1.023680	0.427976	0.379861
H106	H	1.523680	0.927976	0.879861
C107	C	1.602801	0.851284	0.368824
C108	C	2.102801	1.351284	0.868824
N109	N	1.664908	0.798066	0.336362
N110	N	2.164908	1.298066	0.836362
C111	C	1.337477	0.781757	0.507383
C112	C	1.837477	1.281757	1.007383
N113	N	1.275366	0.834977	0.539842
N114	N	1.775366	1.334977	1.039842
H115	H	1.331235	0.455804	0.795935
H116	H	1.831235	0.955804	1.295935
H117	H	1.331205	0.455875	0.677224
H118	H	1.831205	0.955875	1.177224
C119	C	1.631063	0.156261	0.668004
C120	C	2.131063	0.656261	1.168004
N121	N	1.694524	0.092843	0.640928
N122	N	2.194524	0.592843	1.140928
H123	H	1.609185	0.178062	0.796047
H124	H	2.109185	0.678062	1.296047
C125	C	1.513455	0.113676	0.857575
C126	C	2.013455	0.613676	1.357575
N127	N	1.530498	0.033512	0.825667
N128	N	2.030498	0.533512	1.325667
H129	H	1.507592	0.141255	0.987291
H130	H	2.007592	0.641255	1.487291
C131	C	1.309374	0.477524	1.071492
C132	C	1.809374	0.977524	1.571492
N133	N	1.245897	0.540962	1.044362
N134	N	1.745897	1.040962	1.544362
C135	C	1.631112	0.156025	1.071626
C136	C	2.131112	0.656025	1.571626
N137	N	1.694578	0.092614	1.044549
N138	N	2.194578	0.592614	1.544549
H139	H	1.609226	0.177819	1.199668
H140	H	2.109226	0.677819	1.699668
H141	H	1.331272	0.455565	1.199556
H142	H	1.831272	0.955565	1.699556
C143	C	1.427001	0.520042	1.019316
C144	C	1.927001	1.020042	1.519316
N145	N	1.409936	0.600210	1.051219
N146	N	1.909936	1.100210	1.551219
C147	C	1.427010	0.520123	0.881918
C148	C	1.927010	1.020123	1.381918
N149	N	1.409976	0.600320	0.859618
N150	N	1.909976	1.100320	1.359618
H151	H	0.857257	0.385695	0.402104
H152	H	1.357257	0.885695	0.902104
C153	C	1.102318	0.226924	0.485478
C154	C	1.602318	0.726924	0.985478
N155	N	1.155567	0.164909	0.518048
N156	N	1.655567	0.664909	1.018048
