data_functionalizedCrystal
_audit_creation_method	'MofGen! by Chris Wilmer'
_symmetry_space_group_name_H-M	'P1'
_symmetry_Int_Tables_number	1
_symmetry_cell_setting	triclinic
loop_
_symmetry_equiv_pos_as_xyz
  x,y,z
_cell_length_a	13.897449
_cell_length_b	13.897448
_cell_length_c	12.827885
_cell_angle_alpha	90.029689
_cell_angle_beta	89.977240
_cell_angle_gamma	89.979604
loop_
_atom_site_label
_atom_site_type_symbol
_atom_site_fract_x
_atom_site_fract_y
_atom_site_fract_z
Zn1	Zn	1.474684	0.383947	-0.590947
Zn2	Zn	1.474575	0.545273	-0.416207
Zn3	Zn	1.313375	0.383996	-0.416210
Zn4	Zn	1.313350	0.545204	-0.590897
O5	O	1.393996	0.464605	-0.503565
O6	O	1.609651	0.405356	-0.567787
O7	O	1.453156	0.523929	-0.269971
O8	O	1.334829	0.249008	-0.439411
O9	O	1.609571	0.523881	-0.439407
O10	O	1.453342	0.248972	-0.567789
O11	O	1.334723	0.405440	-0.269973
O12	O	1.178390	0.405372	-0.439362
O13	O	1.334786	0.523763	-0.737139
O14	O	1.178371	0.523811	-0.567704
O15	O	1.453318	0.405288	-0.737176
O16	O	1.453131	0.680246	-0.439358
O17	O	1.334680	0.680195	-0.567702
C18	C	1.393917	0.715219	-0.503547
C19	C	1.393972	0.822433	-0.503574
C20	C	1.143381	0.464590	-0.503529
C21	C	1.036168	0.464607	-0.503538
C22	C	0.949098	0.464610	-0.503555
C23	C	0.839865	0.464617	-0.503587
C24	C	1.394067	1.018728	-0.503649
C25	C	1.394011	0.909496	-0.503611
C26	C	1.645589	0.464621	-0.503602
C27	C	1.752803	0.464627	-0.503618
C28	C	1.394093	1.213012	-0.503618
C29	C	1.394113	1.105798	-0.503672
C30	C	1.394061	0.464512	-0.776135
C31	C	1.394089	0.464473	-0.892289
C32	C	1.452749	0.405836	-0.944092
C33	C	1.452779	0.405794	-1.064142
C34	C	1.393986	0.464628	-0.232055
C35	C	1.394145	0.464395	-0.115903
H36	H	1.503003	0.355596	-1.108691
N37	N	1.519269	0.339398	-0.885125
H38	H	1.509829	0.348857	-0.807723
H39	H	1.588163	0.354421	-0.904171
H40	H	1.343925	0.514603	-1.071360
N41	N	1.327586	0.530918	-0.951268
H42	H	1.366812	0.575566	-0.996557
H43	H	1.288442	0.569992	-0.900145
