data_functionalizedCrystal
_audit_creation_method	'MofGen! by Chris Wilmer'
_symmetry_space_group_name_H-M	'P1'
_symmetry_Int_Tables_number	1
_symmetry_cell_setting	triclinic
loop_
_symmetry_equiv_pos_as_xyz
  x,y,z
_cell_length_a	16.053802
_cell_length_b	16.992694
_cell_length_c	16.974813
_cell_angle_alpha	92.975366
_cell_angle_beta	88.912550
_cell_angle_gamma	92.750953
loop_
_atom_site_label
_atom_site_type_symbol
_atom_site_fract_x
_atom_site_fract_y
_atom_site_fract_z
O1	O	-0.080405	-1.044046	0.164036
O2	O	-0.080306	-0.815757	0.162201
O3	O	-0.072625	-0.935897	0.048765
O4	O	-0.088087	-0.923906	0.277473
O5	O	0.065813	-0.929284	0.054981
O6	O	0.058132	-0.809145	0.168418
O7	O	0.058033	-1.037433	0.170253
Zn8	Zn	0.080062	-0.922239	0.170322
Zn9	Zn	-0.102336	-0.930951	0.162132
O10	O	0.050351	-0.917293	0.283689
C11	C	-0.010931	-0.783234	0.162951
C12	C	-0.010465	-0.696175	0.155912
N13	N	0.204544	-0.916298	0.175912
C14	C	-0.001420	-0.932011	0.022473
C15	C	0.004496	-0.930277	-0.065130
N16	N	-0.226817	-0.936898	0.156536
C17	C	0.251505	-0.967436	0.127664
C18	C	0.338647	-0.963288	0.131582
C19	C	0.378825	-0.908005	0.183752
C20	C	0.331858	-0.856862	0.232002
C21	C	0.244718	-0.861007	0.228080
C22	C	0.639076	-0.889899	0.200864
C23	C	0.726222	-0.885760	0.204784
C24	C	0.733005	-0.992186	0.104363
C25	C	0.645863	-0.996329	0.100448
C26	C	0.598903	-0.945183	0.148695
N27	N	0.467898	-0.903765	0.187760
N28	N	0.509833	-0.949419	0.144683
C29	C	-0.011344	-1.069957	0.169503
C30	C	-0.011816	-1.157016	0.176542
C31	C	-0.015055	-0.646080	0.223821
C32	C	-0.014596	-0.564279	0.217204
C33	C	-0.009553	-0.532574	0.142676
C34	C	-0.004959	-0.582675	0.074762
C35	C	-0.005412	-0.664475	0.081380
C36	C	-0.007676	-0.288916	0.115246
C37	C	-0.007226	-0.207111	0.108632
C38	C	-0.016861	-0.188719	0.251075
C39	C	-0.017318	-0.270522	0.257687
C40	C	-0.012721	-0.320615	0.189773
N41	N	-0.009086	-0.448960	0.135910
N42	N	-0.013181	-0.404227	0.196540
C43	C	-0.068186	-0.933069	-0.109669
C44	C	-0.062625	-0.931434	-0.191981
C45	C	0.015620	-0.927013	-0.229752
C46	C	0.088308	-0.924219	-0.185206
C47	C	0.082746	-0.925848	-0.102895
C48	C	0.040348	-0.921749	-0.475560
C49	C	0.045906	-0.920122	-0.557877
C50	C	-0.105028	-0.927336	-0.564647
C51	C	-0.110584	-0.928969	-0.482334
C52	C	-0.037896	-0.926171	-0.437795
N53	N	0.021307	-0.925344	-0.313887
N54	N	-0.043583	-0.927834	-0.353661
C55	C	-0.020855	-0.921179	0.309981
C56	C	-0.026777	-0.922914	0.397583
H57	H	0.218798	-1.012457	0.085185
C58	C	0.336597	-1.068921	0.031950
C59	C	0.390265	-1.019513	0.078559
H60	H	0.368465	-1.103639	-0.000779
H61	H	0.304681	-1.037844	-0.000018
H62	H	0.300255	-1.098800	0.065040
H63	H	0.426603	-0.989630	0.045468
H64	H	0.422195	-1.050595	0.110530
H65	H	0.099536	-0.919486	-0.439307
H66	H	-0.003120	-0.181301	0.047940
H67	H	0.141932	-0.923564	-0.066631
H68	H	0.600848	-0.848255	0.240150
H69	H	-0.019162	-0.671887	0.284510
H70	H	-0.021435	-0.296329	0.318375
H71	H	-0.003932	-0.329693	0.059945
C72	C	-0.093844	-0.526807	0.333372
C73	C	-0.019648	-0.509216	0.291854
H74	H	-0.096963	-0.492810	0.379457
H75	H	-0.094832	-0.580055	0.347973
H76	H	-0.140058	-0.519472	0.300844
H77	H	0.026566	-0.516557	0.324379
H78	H	-0.018653	-0.455955	0.277254
C79	C	0.000005	-0.465451	0.001368
C80	C	0.000583	-0.547828	-0.007161
H81	H	0.003420	-0.443941	-0.049210
H82	H	0.046374	-0.445971	0.031709
H83	H	-0.050179	-0.450574	0.027380
H84	H	0.050770	-0.562704	-0.033168
H85	H	-0.045791	-0.567315	-0.037514
H86	H	0.613151	-1.041345	0.057967
H87	H	0.771247	-1.033826	0.065081
H88	H	0.152017	-0.920614	-0.215965
C89	C	-0.020437	-0.055160	0.304181
C90	C	-0.021903	-0.133654	0.325724
H91	H	-0.023543	-0.021167	0.350270
H92	H	-0.066660	-0.047834	0.271674
H93	H	0.029894	-0.043244	0.276000
H94	H	-0.072238	-0.145573	0.353900
H95	H	0.024323	-0.140984	0.358244
C96	C	-0.161694	-1.006418	-0.025639
C97	C	-0.154193	-0.937914	-0.068148
H98	H	-0.214793	-1.009404	-0.000009
H99	H	-0.119204	-1.004988	0.012661
H100	H	-0.156184	-1.051320	-0.060744
H101	H	-0.159697	-0.893011	-0.033042
H102	H	-0.196695	-0.939337	-0.106453
C103	C	0.004142	-0.674443	-0.060082
C104	C	-0.000374	-0.719543	0.006732
H105	H	0.007249	-0.708441	-0.106168
H106	H	0.052393	-0.639860	-0.057535
H107	H	-0.044161	-0.644451	-0.061863
H108	H	0.047932	-0.749530	0.008515
H109	H	-0.048629	-0.754140	0.004183
C110	C	0.462423	-0.803258	0.282611
C111	C	0.376020	-0.796095	0.289351
H112	H	0.489683	-0.765746	0.318023
H113	H	0.480302	-0.793949	0.230112
H114	H	0.475881	-0.854935	0.295142
H115	H	0.362562	-0.744419	0.276815
H116	H	0.358135	-0.805397	0.341863
C117	C	-0.212371	-0.938796	-0.190410
C118	C	-0.142520	-0.934546	-0.240942
H119	H	-0.261696	-0.940734	-0.220639
H120	H	-0.211647	-0.893586	-0.155049
H121	H	-0.211148	-0.984961	-0.161280
H122	H	-0.143739	-0.888378	-0.270068
H123	H	-0.143244	-0.979761	-0.276317
H124	H	-0.164206	-0.929612	-0.600919
C125	C	0.710771	-0.780953	0.303636
C126	C	0.770389	-0.824977	0.262122
H127	H	0.738040	-0.743426	0.339027
H128	H	0.674721	-0.815261	0.332546
H129	H	0.679127	-0.754303	0.267488
H130	H	0.802028	-0.851631	0.298270
H131	H	0.806453	-0.790664	0.233211
H132	H	0.109625	-0.916518	-0.588626
C133	C	0.246760	-0.755401	0.327743
C134	C	0.193095	-0.804798	0.281119
H135	H	0.214889	-0.720702	0.360490
H136	H	0.283093	-0.725510	0.294669
H137	H	0.278684	-0.786494	0.359701
H138	H	0.161175	-0.773705	0.249157
H139	H	0.156747	-0.834691	0.314198
H140	H	-0.174299	-0.932570	-0.451588
