data_functionalizedCrystal
_audit_creation_method	'MofGen! by Chris Wilmer'
_symmetry_space_group_name_H-M	'P1'
_symmetry_Int_Tables_number	1
_symmetry_cell_setting	triclinic
loop_
_symmetry_equiv_pos_as_xyz
  x,y,z
_cell_length_a	21.295418
_cell_length_b	25.639239
_cell_length_c	21.295411
_cell_angle_alpha	89.980474
_cell_angle_beta	89.956262
_cell_angle_gamma	90.054499
loop_
_atom_site_label
_atom_site_type_symbol
_atom_site_fract_x
_atom_site_fract_y
_atom_site_fract_z
Zn1	Zn	0.962320	-0.207990	-0.356243
Zn2	Zn	0.962207	-0.295410	-0.250972
Zn3	Zn	0.857043	-0.208014	-0.250953
Zn4	Zn	0.856998	-0.295420	-0.356169
O5	O	0.909642	-0.251708	-0.303584
O6	O	1.050395	-0.219572	-0.342318
O7	O	0.948229	-0.283822	-0.162880
O8	O	0.871075	-0.134846	-0.264943
O9	O	1.050312	-0.283799	-0.264976
O10	O	0.948421	-0.134828	-0.342299
O11	O	0.870965	-0.219613	-0.162866
O12	O	0.768948	-0.219623	-0.264871
O13	O	0.870997	-0.283816	-0.444268
O14	O	0.768914	-0.283840	-0.342172
O15	O	0.948377	-0.219582	-0.444322
O16	O	0.948185	-0.368576	-0.264904
O17	O	0.870888	-0.368584	-0.342191
C18	C	0.746090	-0.251736	-0.303512
C19	C	0.676122	-0.251760	-0.303496
C20	C	0.643255	-0.285242	-0.343686
C21	C	0.577512	-0.285229	-0.343715
C22	C	0.544640	-0.251740	-0.303541
C23	C	0.577515	-0.218252	-0.263347
C24	C	0.643257	-0.218262	-0.263325
N25	N	0.441365	-0.247648	-0.248483
N26	N	0.378913	-0.247641	-0.248506
C27	C	0.346565	-0.251707	-0.303608
N28	N	0.379028	-0.255789	-0.358686
N29	N	0.441485	-0.255799	-0.358662
C30	C	0.473354	-0.251725	-0.303561
C31	C	0.242412	-0.285176	-0.343832
C32	C	0.176668	-0.285160	-0.343862
C33	C	0.176673	-0.218185	-0.263489
C34	C	0.242415	-0.218199	-0.263465
C35	C	0.275281	-0.251697	-0.303636
C36	C	0.909536	-0.387551	-0.303555
C37	C	0.909548	-0.445665	-0.303564
C38	C	0.949996	-0.806011	-0.263409
C39	C	0.950020	-0.860616	-0.263418
O40	O	0.984300	-0.888838	-0.229245
N41	N	0.909753	-0.887947	-0.303626
C42	C	0.869463	-0.860672	-0.343833
O43	O	0.835215	-0.888934	-0.378034
C44	C	0.869442	-0.806069	-0.343827
C45	C	0.909708	-0.778740	-0.303612
C46	C	0.990259	-0.778683	-0.223198
C47	C	0.990233	-0.724082	-0.223188
C48	C	0.949945	-0.696810	-0.263391
C49	C	0.909682	-0.724139	-0.303603
C50	C	0.829156	-0.778794	-0.384037
C51	C	0.829139	-0.724187	-0.384028
C52	C	0.869404	-0.696858	-0.343812
C53	C	0.869369	-0.642267	-0.343796
N54	N	0.909636	-0.614935	-0.303588
C55	C	0.949924	-0.642207	-0.263385
C56	C	0.869510	-0.975343	-0.343842
C57	C	0.869527	-1.029945	-0.343845
C58	C	0.950086	-1.029885	-0.263431
C59	C	0.950065	-0.975282	-0.263425
C60	C	0.909778	-0.948011	-0.303634
C61	C	0.949868	-0.527542	-0.263369
C62	C	0.949837	-0.472937	-0.263361
C63	C	0.869281	-0.473001	-0.343778
C64	C	0.869309	-0.527602	-0.343783
C65	C	0.909607	-0.554871	-0.303577
O66	O	0.835108	-0.614010	-0.377953
O67	O	0.984172	-0.613939	-0.229195
C68	C	1.073832	-0.251681	-0.303657
C69	C	1.143801	-0.251670	-0.303688
C70	C	0.909694	-0.251697	-0.467774
C71	C	0.909717	-0.251693	-0.537743
C72	C	0.909766	-0.115335	-0.303627
C73	C	0.909818	-0.057221	-0.303645
C74	C	0.950007	-0.218244	-0.570639
C75	C	0.950006	-0.218221	-0.636381
C76	C	0.909721	-0.251657	-0.669225
C77	C	0.869424	-0.285108	-0.636321
C78	C	0.869421	-0.285126	-0.570580
N79	N	0.904857	-0.297396	-0.772441
N80	N	0.904863	-0.297377	-0.834892
C81	C	0.909725	-0.251604	-0.867300
N82	N	0.914594	-0.205848	-0.834897
N83	N	0.914591	-0.205867	-0.772440
C84	C	0.909719	-0.251641	-0.740511
C85	C	0.950017	-0.218128	-0.971482
C86	C	0.950011	-0.218104	-1.037225
C87	C	0.869433	-0.284995	-1.037164
C88	C	0.869435	-0.285014	-0.971422
C89	C	0.909730	-0.251581	-0.938584
C90	C	0.909626	-0.251682	-0.140032
C91	C	0.909726	-0.251539	-0.070065
H92	H	0.269176	-0.190937	-0.230734
C93	C	0.784818	-0.694193	-0.428262
N94	N	0.751435	-0.671602	-0.461579
H95	H	0.836622	-0.312329	-0.663067
C96	C	0.825120	-0.321775	-1.073289
N97	N	0.791742	-0.349478	-1.100501
C98	C	0.278566	-0.322019	-0.388028
N99	N	0.305796	-0.349768	-0.421318
C100	C	0.825114	-0.321813	-0.935234
N101	N	0.791729	-0.349530	-0.907979
H102	H	0.982819	-0.190863	-1.064008
H103	H	0.836477	-0.450788	-0.376509
C104	C	0.679403	-0.322090	-0.387878
N105	N	0.706631	-0.349844	-0.421164
H106	H	0.149909	-0.190915	-0.230781
H107	H	0.982818	-0.191020	-0.543907
C108	C	0.679412	-0.181430	-0.219106
N109	N	0.706645	-0.153689	-0.185799
H110	H	0.149909	-0.312424	-0.376594
C111	C	0.825098	-0.321924	-0.534393
N112	N	0.791715	-0.349643	-0.507136
C113	C	0.994409	-1.059894	-0.219212
N114	N	1.027792	-1.082499	-0.185909
C115	C	0.825013	-0.557664	-0.388020
N116	N	0.791653	-0.580304	-0.421344
H117	H	0.550746	-0.312494	-0.376445
C118	C	0.994336	-0.181347	-0.935358
N119	N	1.027717	-0.153642	-0.908152
H120	H	0.982813	-0.190981	-0.663170
C121	C	0.994131	-0.442878	-0.219116
N122	N	1.027492	-0.420240	-0.185792
C123	C	0.541355	-0.181413	-0.219156
N124	N	0.514118	-0.153664	-0.185871
C125	C	1.034524	-0.694028	-0.178943
N126	N	1.067884	-0.671394	-0.145613
C127	C	0.994194	-0.557530	-0.219136
N128	N	1.027577	-0.580117	-0.185815
C129	C	1.034579	-0.808673	-0.178964
N130	N	1.067960	-0.831258	-0.145640
H131	H	0.836733	-1.052191	-0.376587
C132	C	0.994362	-0.945225	-0.219188
N133	N	1.027729	-0.922589	-0.185867
H134	H	0.836698	-0.953141	-0.376584
H135	H	0.796364	-0.801036	-0.416781
