data_functionalizedCrystal
_audit_creation_method	'MofGen! by Chris Wilmer'
_symmetry_space_group_name_H-M	'P1'
_symmetry_Int_Tables_number	1
_symmetry_cell_setting	triclinic
loop_
_symmetry_equiv_pos_as_xyz
  x,y,z
_cell_length_a	21.295418
_cell_length_b	19.077068
_cell_length_c	19.077271
_cell_angle_alpha	90.123862
_cell_angle_beta	92.263831
_cell_angle_gamma	87.656381
loop_
_atom_site_label
_atom_site_type_symbol
_atom_site_fract_x
_atom_site_fract_y
_atom_site_fract_z
Zn1	Zn	0.938165	0.263493	-0.408879
Zn2	Zn	1.188165	0.513493	-0.158879
Zn3	Zn	1.438165	0.763493	0.091121
Zn4	Zn	1.688165	1.013493	0.341121
Zn5	Zn	0.937747	0.385726	-0.296085
Zn6	Zn	1.187747	0.635726	-0.046085
Zn7	Zn	1.437747	0.885726	0.203915
Zn8	Zn	1.687747	1.135726	0.453915
Zn9	Zn	0.836953	0.268268	-0.291349
Zn10	Zn	1.086953	0.518268	-0.041349
Zn11	Zn	1.336953	0.768268	0.208651
Zn12	Zn	1.586953	1.018268	0.458651
Zn13	Zn	0.828474	0.381002	-0.413513
Zn14	Zn	1.078474	0.631002	-0.163513
Zn15	Zn	1.328474	0.881002	0.086487
Zn16	Zn	1.578474	1.131002	0.336487
O17	O	0.885335	0.324622	-0.352457
O18	O	1.135335	0.574622	-0.102457
O19	O	1.385335	0.824622	0.147543
O20	O	1.635335	1.074622	0.397543
O21	O	1.026198	0.279686	-0.393960
O22	O	1.276198	0.529686	-0.143960
O23	O	1.526198	0.779686	0.106040
O24	O	1.776198	1.029686	0.356040
O25	O	0.927749	0.374120	-0.197127
O26	O	1.177749	0.624120	0.052873
O27	O	1.427749	0.874120	0.302873
O28	O	1.677749	1.124120	0.552873
O29	O	0.854102	0.169300	-0.303019
O30	O	1.104102	0.419300	-0.053019
O31	O	1.354102	0.669300	0.196981
O32	O	1.604102	0.919300	0.446981
O33	O	1.025891	0.369490	-0.311091
O34	O	1.275891	0.619490	-0.061091
O35	O	1.525891	0.869490	0.188909
O36	O	1.775891	1.119490	0.438909
O37	O	0.928462	0.165791	-0.389367
O38	O	1.178462	0.415791	-0.139367
O39	O	1.428462	0.665791	0.110633
O40	O	1.678462	0.915791	0.360633
O41	O	0.853696	0.287824	-0.193647
O42	O	1.103696	0.537824	0.056353
O43	O	1.353696	0.787824	0.306353
O44	O	1.603696	1.037824	0.556353
O45	O	0.747739	0.283244	-0.307512
O46	O	0.997739	0.533244	-0.057512
O47	O	1.247739	0.783244	0.192488
O48	O	1.497739	1.033244	0.442488
O49	O	0.839652	0.361439	-0.511228
O50	O	1.089652	0.611439	-0.261228
O51	O	1.339652	0.861439	-0.011228
O52	O	1.589652	1.111439	0.238772
O53	O	0.741510	0.366069	-0.397264
O54	O	0.991510	0.616069	-0.147264
O55	O	1.241510	0.866069	0.102736
O56	O	1.491510	1.116069	0.352736
O57	O	0.920241	0.275105	-0.507824
O58	O	1.170241	0.525105	-0.257824
O59	O	1.420241	0.775105	-0.007824
O60	O	1.670241	1.025105	0.242176
O61	O	0.919528	0.483434	-0.315584
O62	O	1.169528	0.733434	-0.065584
O63	O	1.419528	0.983434	0.184416
O64	O	1.669528	1.233434	0.434416
O65	O	0.839246	0.479964	-0.401857
O66	O	1.089246	0.729964	-0.151857
O67	O	1.339246	0.979964	0.098143
O68	O	1.589246	1.229964	0.348143
C69	C	0.721784	0.324662	-0.352377
C70	C	0.971784	0.574662	-0.102377
C71	C	1.221784	0.824662	0.147623
C72	C	1.471784	1.074662	0.397623
C73	C	0.651816	0.324696	-0.352361
C74	C	0.901816	0.574696	-0.102361
C75	C	1.151816	0.824696	0.147639
C76	C	1.401816	1.074696	0.397639
C77	C	0.878438	0.507195	-0.359752
C78	C	1.128438	0.757195	-0.109752
C79	C	1.378438	1.007195	0.140248
C80	C	1.628438	1.257195	0.390248
C81	C	0.875544	0.585300	-0.362897
C82	C	1.125544	0.835300	-0.112897
C83	C	1.375544	1.085300	0.137103
C84	C	1.625544	1.335300	0.387103
C85	C	0.879047	0.317213	-0.535735
C86	C	1.129047	0.567213	-0.285735
C87	C	1.379047	0.817213	-0.035735
C88	C	1.629047	1.067213	0.214265
C89	C	0.876368	0.314055	-0.613837
C90	C	1.126368	0.564055	-0.363837
C91	C	1.376368	0.814055	-0.113837
C92	C	1.626368	1.064055	0.136163
C93	C	0.615722	0.367885	-0.399030
C94	C	0.865722	0.617885	-0.149030
C95	C	1.115722	0.867885	0.100970
C96	C	1.365722	1.117885	0.350970
C97	C	0.549979	0.367867	-0.399061
C98	C	0.799979	0.617867	-0.149061
C99	C	1.049979	0.867867	0.100939
C100	C	1.299979	1.117867	0.350939
C101	C	0.520332	0.324667	-0.352410
C102	C	0.770332	0.574667	-0.102410
C103	C	1.020332	0.824667	0.147590
C104	C	1.270332	1.074667	0.397590
C105	C	0.556434	0.281469	-0.305737
C106	C	0.806434	0.531469	-0.055737
C107	C	1.056434	0.781469	0.194263
C108	C	1.306434	1.031469	0.444263
C109	C	0.622176	0.281483	-0.305712
C110	C	0.872176	0.531483	-0.055712
C111	C	1.122176	0.781483	0.194288
C112	C	1.372176	1.031483	0.444288
N113	N	0.419388	0.321646	-0.290731
N114	N	0.669388	0.571646	-0.040731
N115	N	0.919388	0.821646	0.209269
N116	N	1.169388	1.071646	0.459269
N117	N	0.356936	0.321636	-0.290756
N118	N	0.606936	0.571636	-0.040756
N119	N	0.856936	0.821636	0.209244
N120	N	1.106936	1.071636	0.459244
C121	C	0.322257	0.324619	-0.352483
C122	C	0.572257	0.574619	-0.102483
C123	C	0.822257	0.824619	0.147517
C124	C	1.072257	1.074619	0.397517
N125	N	0.352389	0.327625	-0.414185
N126	N	0.602389	0.577625	-0.164185
N127	N	0.852389	0.827625	0.085815
N128	N	1.102389	1.077625	0.335815
N129	N	0.414846	0.327639	-0.414158
N130	N	0.664846	0.577639	-0.164158
N131	N	0.914846	0.827639	0.085842
N132	N	1.164846	1.077639	0.335842
C133	C	0.449047	0.324646	-0.352432
C134	C	0.699047	0.574646	-0.102432
C135	C	0.949047	0.824646	0.147568
C136	C	1.199047	1.074646	0.397568
C137	C	0.214877	0.367790	-0.399190
C138	C	0.464877	0.617790	-0.149190
C139	C	0.714877	0.867790	0.100810
C140	C	0.964877	1.117790	0.350810
C141	C	0.149133	0.367767	-0.399222
C142	C	0.399133	0.617767	-0.149222
C143	C	0.649133	0.867767	0.100778
C144	C	0.899133	1.117767	0.350778
C145	C	0.155590	0.281373	-0.305891
C146	C	0.405590	0.531373	-0.055891
C147	C	0.655590	0.781373	0.194109
C148	C	0.905590	1.031373	0.444109
C149	C	0.221332	0.281392	-0.305866
C150	C	0.471332	0.531392	-0.055866
C151	C	0.721332	0.781392	0.194134
C152	C	0.971332	1.031392	0.444134
C153	C	0.250972	0.324605	-0.352514
C154	C	0.500972	0.574605	-0.102514
C155	C	0.750972	0.824605	0.147486
C156	C	1.000972	1.074605	0.397486
C157	C	1.049523	0.324582	-0.352537
C158	C	1.299523	0.574582	-0.102537
C159	C	1.549523	0.824582	0.147463
C160	C	1.799523	1.074582	0.397463
C161	C	1.119491	0.324565	-0.352571
C162	C	1.369491	0.574565	-0.102571
C163	C	1.619491	0.824565	0.147429
C164	C	1.869491	1.074565	0.397429
C165	C	0.892275	0.141336	-0.345148
C166	C	1.142275	0.391336	-0.095148
C167	C	1.392275	0.641336	0.154852
C168	C	1.642275	0.891336	0.404852
C169	C	0.895232	0.063230	-0.342033
C170	C	1.145232	0.313230	-0.092033
C171	C	1.395232	0.563230	0.157967
C172	C	1.645232	0.813230	0.407967
C173	C	0.916013	0.623776	-0.319494
C174	C	1.166013	0.873776	-0.069494
C175	C	1.416013	1.123776	0.180506
C176	C	1.666013	1.373776	0.430506
C177	C	0.913295	0.697163	-0.322456
C178	C	1.163295	0.947163	-0.072456
C179	C	1.413295	1.197163	0.177544
C180	C	1.663295	1.447163	0.427544
C181	C	0.870105	0.732073	-0.368818
C182	C	1.120105	0.982073	-0.118818
C183	C	1.370105	1.232073	0.131182
C184	C	1.620105	1.482073	0.381182
C185	C	0.829634	0.693592	-0.412225
C186	C	1.079634	0.943592	-0.162225
C187	C	1.329634	1.193592	0.087775
C188	C	1.579634	1.443592	0.337775
C189	C	0.832356	0.620206	-0.409267
C190	C	1.082356	0.870206	-0.159267
C191	C	1.332356	1.120206	0.090733
C192	C	1.582356	1.370206	0.340733
C193	C	0.857483	0.951363	-0.382483
C194	C	1.107483	1.201363	-0.132483
C195	C	1.357483	1.451363	0.117517
C196	C	1.607483	1.701363	0.367517
C197	C	0.854763	1.024754	-0.385437
C198	C	1.104763	1.274754	-0.135437
C199	C	1.354763	1.524754	0.114563
C200	C	1.604763	1.774754	0.364563
C201	C	0.938426	1.028320	-0.295667
C202	C	1.188426	1.278320	-0.045667
C203	C	1.438426	1.528320	0.204333
C204	C	1.688426	1.778320	0.454333
C205	C	0.941141	0.954932	-0.292710
C206	C	1.191141	1.204932	-0.042710
C207	C	1.441141	1.454932	0.207290
C208	C	1.691141	1.704932	0.457290
C209	C	0.900672	0.916457	-0.336120
C210	C	1.150672	1.166457	-0.086120
C211	C	1.400672	1.416457	0.163880
C212	C	1.650672	1.666457	0.413880
N213	N	0.867324	0.807087	-0.371845
N214	N	1.117324	1.057087	-0.121845
N215	N	1.367324	1.307087	0.128155
N216	N	1.617324	1.557087	0.378155
N217	N	0.903456	0.841445	-0.333096
N218	N	1.153456	1.091445	-0.083096
N219	N	1.403456	1.341445	0.166904
N220	N	1.653456	1.591445	0.416904
C221	C	0.857150	0.291464	-1.053277
C222	C	1.107150	0.541464	-0.803277
C223	C	1.357150	0.791464	-0.553277
C224	C	1.607150	1.041464	-0.303277
C225	C	0.859670	0.294429	-0.979892
C226	C	1.109670	0.544429	-0.729892
C227	C	1.359670	0.794429	-0.479892
C228	C	1.609670	1.044429	-0.229892
C229	C	0.899482	0.340844	-0.945010
C230	C	1.149482	0.590844	-0.695010
C231	C	1.399482	0.840844	-0.445010
C232	C	1.649482	1.090844	-0.195010
C233	C	0.936781	0.384293	-0.983517
C234	C	1.186781	0.634293	-0.733517
C235	C	1.436781	0.884293	-0.483517
C236	C	1.686781	1.134293	-0.233517
C237	C	0.934263	0.381325	-1.056901
C238	C	1.184263	0.631325	-0.806901
C239	C	1.434263	0.881325	-0.556901
C240	C	1.684263	1.131325	-0.306901
C241	C	0.911149	0.354536	-0.725729
C242	C	1.161149	0.604536	-0.475729
C243	C	1.411149	0.854536	-0.225729
C244	C	1.661149	1.104536	0.024271
C245	C	0.913662	0.357502	-0.652340
C246	C	1.163662	0.607502	-0.402340
C247	C	1.413662	0.857502	-0.152340
C248	C	1.663662	1.107502	0.097660
C249	C	0.836552	0.267637	-0.648719
C250	C	1.086552	0.517637	-0.398719
C251	C	1.336552	0.767637	-0.148719
C252	C	1.586552	1.017637	0.101281
C253	C	0.834035	0.264676	-0.722105
C254	C	1.084035	0.514676	-0.472105
C255	C	1.334035	0.764676	-0.222105
C256	C	1.584035	1.014676	0.027895
C257	C	0.871336	0.308122	-0.760606
C258	C	1.121336	0.558122	-0.510606
C259	C	1.371336	0.808122	-0.260606
C260	C	1.621336	1.058122	-0.010606
N261	N	0.902058	0.343877	-0.869998
N262	N	1.152058	0.593877	-0.619998
N263	N	1.402058	0.843877	-0.369998
N264	N	1.652058	1.093877	-0.119998
N265	N	0.868763	0.305085	-0.835616
N266	N	1.118763	0.555085	-0.585616
N267	N	1.368763	0.805085	-0.335616
N268	N	1.618763	1.055085	-0.085616
C269	C	0.891636	0.331952	-0.169889
C270	C	1.141636	0.581952	0.080111
C271	C	1.391636	0.831952	0.330111
C272	C	1.641636	1.081952	0.580111
C273	C	0.894444	0.334912	-0.091779
C274	C	1.144444	0.584912	0.158221
C275	C	1.394444	0.834912	0.408221
C276	C	1.644444	1.084912	0.658221
H277	H	0.520586	0.403036	-0.437068
H278	H	0.770586	0.653036	-0.187068
H279	H	1.020586	0.903036	0.062932
H280	H	1.270586	1.153036	0.312932
O281	O	0.647685	0.414486	-0.449351
O282	O	0.897685	0.664486	-0.199351
O283	O	1.147685	0.914486	0.050649
O284	O	1.397685	1.164486	0.300649
H285	H	0.677328	0.451475	-0.419261
H286	H	0.927328	0.701475	-0.169261
H287	H	1.177328	0.951475	0.080739
H288	H	1.427328	1.201475	0.330739
O289	O	0.788700	0.578710	-0.456079
O290	O	1.038700	0.828710	-0.206079
O291	O	1.288700	1.078710	0.043921
O292	O	1.538700	1.328710	0.293921
H293	H	0.816861	0.543784	-0.490525
H294	H	1.066861	0.793784	-0.240525
H295	H	1.316861	1.043784	0.009475
H296	H	1.566861	1.293784	0.259475
O297	O	0.974487	0.428193	-1.098426
O298	O	1.224487	0.678193	-0.848426
O299	O	1.474487	0.928193	-0.598426
O300	O	1.724487	1.178193	-0.348426
H301	H	1.006564	0.395385	-1.130616
H302	H	1.256564	0.645385	-0.880616
H303	H	1.506564	0.895385	-0.630616
H304	H	1.756564	1.145385	-0.380616
H305	H	0.532292	0.246293	-0.267755
H306	H	0.782292	0.496293	-0.017755
H307	H	1.032292	0.746293	0.232245
H308	H	1.282292	0.996293	0.482245
H309	H	0.651563	0.246311	-0.267708
H310	H	0.901563	0.496311	-0.017708
H311	H	1.151563	0.746311	0.232292
H312	H	1.401563	0.996311	0.482292
O313	O	0.246853	0.414385	-0.449508
O314	O	0.496853	0.664385	-0.199508
O315	O	0.746853	0.914385	0.050492
O316	O	0.996853	1.164385	0.300492
H317	H	0.210707	0.444406	-0.481976
H318	H	0.460707	0.694406	-0.231976
H319	H	0.710707	0.944406	0.018024
H320	H	0.960707	1.194406	0.268024
H321	H	0.119746	0.402935	-0.437230
H322	H	0.369746	0.652935	-0.187230
H323	H	0.619746	0.902935	0.062770
H324	H	0.869746	1.152935	0.312770
H325	H	0.829300	0.259050	-0.948546
H326	H	1.079300	0.509050	-0.698546
H327	H	1.329300	0.759050	-0.448546
H328	H	1.579300	1.009050	-0.198546
O329	O	0.814220	0.241391	-1.090899
O330	O	1.064220	0.491391	-0.840899
O331	O	1.314220	0.741391	-0.590899
O332	O	1.564220	0.991391	-0.340899
H333	H	0.779848	0.271486	-1.125573
H334	H	1.029848	0.521486	-0.875573
H335	H	1.279848	0.771486	-0.625573
H336	H	1.529848	1.021486	-0.375573
H337	H	0.969200	0.422082	-0.955111
H338	H	1.219200	0.672082	-0.705111
H339	H	1.469200	0.922082	-0.455111
H340	H	1.719200	1.172082	-0.205111
H341	H	0.806185	0.232264	-0.617364
H342	H	1.056185	0.482264	-0.367364
H343	H	1.306185	0.732264	-0.117364
H344	H	1.556185	0.982264	0.132636
O345	O	0.123625	0.234782	-0.255567
O346	O	0.373625	0.484782	-0.005567
O347	O	0.623625	0.734782	0.244433
O348	O	0.873625	0.984782	0.494433
H349	H	0.071846	0.242032	-0.263419
H350	H	0.321846	0.492032	-0.013419
H351	H	0.571846	0.742032	0.236581
H352	H	0.821846	0.992032	0.486581
H353	H	0.824531	0.920042	-0.417828
H354	H	1.074531	1.170042	-0.167828
H355	H	1.324531	1.420042	0.082172
H356	H	1.574531	1.670042	0.332172
O357	O	0.982079	1.069810	-0.248850
O358	O	1.232079	1.319810	0.001150
O359	O	1.482079	1.569810	0.251150
O360	O	1.732079	1.819810	0.501150
H361	H	1.031581	1.055157	-0.260403
H362	H	1.281581	1.305157	-0.010403
H363	H	1.531581	1.555157	0.239597
H364	H	1.781581	1.805157	0.489597
H365	H	0.250720	0.246226	-0.267859
H366	H	0.500720	0.496226	-0.017859
H367	H	0.750720	0.746226	0.232141
H368	H	1.000720	0.996226	0.482141
H369	H	0.801613	0.226882	-0.750500
H370	H	1.051613	0.476882	-0.500500
H371	H	1.301613	0.726882	-0.250500
H372	H	1.551613	0.976882	-0.000500
O373	O	0.951375	0.401409	-0.767238
O374	O	1.201375	0.651409	-0.517238
O375	O	1.451375	0.901409	-0.267238
O376	O	1.701375	1.151409	-0.017238
H377	H	0.983459	0.368610	-0.799429
H378	H	1.233459	0.618610	-0.549429
H379	H	1.483459	0.868610	-0.299429
H380	H	1.733459	1.118610	-0.049429
H381	H	0.951181	0.595357	-0.281738
H382	H	1.201181	0.845357	-0.031738
H383	H	1.451181	1.095357	0.218262
H384	H	1.701181	1.345357	0.468262
H385	H	0.946249	0.728487	-0.287112
H386	H	1.196249	0.978487	-0.037112
H387	H	1.446249	1.228487	0.212888
H388	H	1.696249	1.478487	0.462888
H389	H	0.976310	0.926510	-0.254958
H390	H	1.226310	1.176510	-0.004958
H391	H	1.476310	1.426510	0.245042
H392	H	1.726310	1.676510	0.495042
H393	H	0.946097	0.395287	-0.623941
H394	H	1.196097	0.645287	-0.373941
H395	H	1.446097	0.895287	-0.123941
H396	H	1.696097	1.145287	0.126059
H397	H	0.819599	1.053175	-0.423202
H398	H	1.069599	1.303175	-0.173202
H399	H	1.319599	1.553175	0.076798
H400	H	1.569599	1.803175	0.326798
H401	H	0.794470	0.722022	-0.449977
H402	H	1.044470	0.972022	-0.199977
H403	H	1.294470	1.222022	0.050023
H404	H	1.544470	1.472022	0.300023
