data_functionalizedCrystal
_audit_creation_method	'MofGen! by Chris Wilmer'
_symmetry_space_group_name_H-M	'P1'
_symmetry_Int_Tables_number	1
_symmetry_cell_setting	triclinic
loop_
_symmetry_equiv_pos_as_xyz
  x,y,z
_cell_length_a	16.959455
_cell_length_b	16.959454
_cell_length_c	12.759393
_cell_angle_alpha	89.969286
_cell_angle_beta	89.979060
_cell_angle_gamma	90.019503
loop_
_atom_site_label
_atom_site_type_symbol
_atom_site_fract_x
_atom_site_fract_y
_atom_site_fract_z
Zn1	Zn	1.208432	-0.314647	-0.594056
Zn2	Zn	1.708432	0.185353	-0.094056
Zn3	Zn	1.208341	-0.446849	-0.418379
Zn4	Zn	1.708341	0.053151	0.081621
Zn5	Zn	1.076247	-0.314687	-0.418388
Zn6	Zn	1.576247	0.185313	0.081612
Zn7	Zn	1.076226	-0.446786	-0.594013
Zn8	Zn	1.576226	0.053214	-0.094013
O9	O	1.142311	-0.380742	-0.506209
O10	O	1.642311	0.119258	-0.006209
O11	O	1.319031	-0.332193	-0.570766
O12	O	1.819031	0.167807	-0.070766
O13	O	1.190788	-0.429360	-0.271359
O14	O	1.690788	0.070640	0.228641
O15	O	1.093828	-0.204071	-0.441713
O16	O	1.593828	0.295929	0.058287
O17	O	1.318964	-0.429321	-0.441697
O18	O	1.818964	0.070679	0.058303
O19	O	1.190945	-0.204041	-0.570775
O20	O	1.690945	0.295959	-0.070775
O21	O	1.093739	-0.332261	-0.271366
O22	O	1.593739	0.167739	0.228634
O23	O	0.965633	-0.332200	-0.441671
O24	O	1.465633	0.167800	0.058329
O25	O	1.093793	-0.429215	-0.741040
O26	O	1.593793	0.070785	-0.241040
O27	O	0.965617	-0.429253	-0.570701
O28	O	1.465617	0.070747	-0.070701
O29	O	1.190925	-0.332133	-0.741071
O30	O	1.690925	0.167867	-0.241071
O31	O	1.190768	-0.557451	-0.441655
O32	O	1.690768	-0.057451	0.058345
O33	O	1.093704	-0.557405	-0.570693
O34	O	1.593704	-0.057405	-0.070693
C35	C	0.936945	-0.380725	-0.506183
C36	C	1.436945	0.119275	-0.006183
C37	C	0.849088	-0.380737	-0.506197
C38	C	1.349088	0.119263	-0.006197
C39	C	0.807777	-0.431235	-0.438901
C40	C	1.307777	0.068765	0.061099
C41	C	0.807846	-0.330245	-0.573501
C42	C	1.307846	0.169755	-0.073501
C43	C	0.725300	-0.330251	-0.573514
C44	C	1.225300	0.169749	-0.073514
C45	C	0.683989	-0.380749	-0.506218
C46	C	1.183989	0.119251	-0.006218
C47	C	0.725224	-0.431241	-0.438909
C48	C	1.225224	0.068759	0.061091
C49	C	0.684059	-0.279754	-0.640814
C50	C	1.184059	0.220246	-0.140814
C51	C	0.601508	-0.279758	-0.640828
C52	C	1.101508	0.220242	-0.140828
C53	C	0.560196	-0.330261	-0.573536
C54	C	1.060196	0.169739	-0.073536
C55	C	0.601435	-0.380755	-0.506226
C56	C	1.101435	0.119245	-0.006226
C57	C	0.560124	-0.431253	-0.438930
C58	C	1.060124	0.068747	0.061070
C59	C	0.601363	-0.481752	-0.371624
C60	C	1.101363	0.018248	0.128376
C61	C	0.683911	-0.481743	-0.371617
C62	C	1.183911	0.018257	0.128383
C63	C	0.477647	-0.330269	-0.573543
C64	C	0.977647	0.169731	-0.073543
C65	C	0.477571	-0.431259	-0.438938
C66	C	0.977571	0.068741	0.061062
C67	C	1.142245	-0.586108	-0.506191
C68	C	1.642245	-0.086108	-0.006191
C69	C	1.142289	-0.673965	-0.506218
C70	C	1.642289	-0.173965	-0.006218
C71	C	1.091843	-1.045447	-0.573391
C72	C	1.591843	-0.545447	-0.073391
C73	C	1.192999	-1.045434	-0.439133
C74	C	1.692999	-0.545434	0.060867
C75	C	1.192972	-0.962889	-0.439124
C76	C	1.692972	-0.462889	0.060876
C77	C	1.142378	-0.921618	-0.506248
C78	C	1.642378	-0.421618	-0.006248
C79	C	1.091812	-0.962893	-0.573382
C80	C	1.591812	-0.462893	-0.073382
C81	C	1.243531	-0.921607	-0.371983
C82	C	1.743531	-0.421607	0.128017
C83	C	1.243505	-0.839056	-0.371970
C84	C	1.743505	-0.339056	0.128030
C85	C	1.192915	-0.797784	-0.439101
C86	C	1.692915	-0.297784	0.060899
C87	C	1.142347	-0.839064	-0.506238
C88	C	1.642347	-0.339064	-0.006238
C89	C	1.091754	-0.797794	-0.573362
C90	C	1.591754	-0.297794	-0.073362
C91	C	1.041190	-0.839072	-0.640506
C92	C	1.541190	-0.339072	-0.140506
C93	C	1.041222	-0.921621	-0.640512
C94	C	1.541222	-0.421621	-0.140512
C95	C	1.192883	-0.715236	-0.439094
C96	C	1.692883	-0.215236	0.060906
C97	C	1.091723	-0.715240	-0.573352
C98	C	1.591723	-0.215240	-0.073352
C99	C	1.348479	-0.380760	-0.506235
C100	C	1.848479	0.119240	-0.006235
C101	C	1.436336	-0.380767	-0.506247
C102	C	1.936336	0.119233	-0.006247
C103	C	1.142367	-0.380662	-0.780242
C104	C	1.642367	0.119338	-0.280242
C105	C	1.142390	-0.380628	-0.897019
C106	C	1.642390	0.119372	-0.397019
C107	C	1.142399	-0.174574	-0.506250
C108	C	1.642399	0.325426	-0.006250
C109	C	1.142437	-0.086717	-0.506267
C110	C	1.642437	0.413283	-0.006267
C111	C	1.192974	-0.330073	-0.951899
C112	C	1.692974	0.169927	-0.451899
C113	C	1.192993	-0.330044	-1.061624
C114	C	1.692993	0.169956	-0.561624
C115	C	1.091842	-0.431133	-1.061577
C116	C	1.591842	0.068867	-0.561577
C117	C	1.091820	-0.431157	-0.951855
C118	C	1.591820	0.068843	-0.451855
C119	C	1.243544	-0.279544	-0.897063
C120	C	1.743544	0.220456	-0.397063
C121	C	1.294132	-0.228985	-0.951944
C122	C	1.794132	0.271015	-0.451944
C123	C	1.294151	-0.228956	-1.061668
C124	C	1.794151	0.271044	-0.561668
C125	C	1.243582	-0.279487	-1.116512
C126	C	1.743582	0.220513	-0.616512
C127	C	1.142302	-0.380764	-0.233241
C128	C	1.642302	0.119236	0.266759
C129	C	1.142431	-0.380576	-0.116465
C130	C	1.642431	0.119424	0.383535
H131	H	0.567717	-0.522865	-0.316827
H132	H	1.067717	-0.022865	0.183173
H133	H	1.234186	-1.079042	-0.384477
H134	H	1.734186	-0.579042	0.115523
H135	H	1.284716	-0.955216	-0.317327
H136	H	1.784716	-0.455216	0.182673
Cl137	Cl	1.243596	-0.279438	-1.254452
Cl138	Cl	1.743596	0.220562	-0.754452
H139	H	1.335299	-0.187840	-0.907283
H140	H	1.835299	0.312160	-0.407283
H141	H	1.050671	-0.472272	-1.106240
H142	H	1.550671	0.027728	-0.606240
H143	H	0.443941	-0.472385	-0.384141
H144	H	0.943941	0.027615	0.115859
H145	H	1.284677	-0.805452	-0.317300
H146	H	1.784677	-0.305452	0.182700
H147	H	1.234047	-0.681630	-0.384422
H148	H	1.734047	-0.181630	0.115578
Cl149	Cl	0.859617	-0.494719	-0.354296
Cl150	Cl	1.359617	0.005281	0.145704
Cl151	Cl	0.425808	-0.266784	-0.658141
Cl152	Cl	0.925808	0.233216	-0.158141
H153	H	1.243536	-0.279563	-0.807720
H154	H	1.743536	0.220437	-0.307720
H155	H	1.050618	-0.472312	-0.907171
H156	H	1.550618	0.027688	-0.407171
H157	H	0.841486	-0.289128	-0.628286
H158	H	1.341486	0.210872	-0.128286
Cl159	Cl	0.735758	-0.545218	-0.287008
Cl160	Cl	1.235758	-0.045218	0.212992
Cl161	Cl	0.735996	-0.216276	-0.725408
Cl162	Cl	1.235996	0.283724	-0.225408
Cl163	Cl	0.549673	-0.216279	-0.725445
Cl164	Cl	1.049673	0.283721	-0.225445
H165	H	1.050526	-0.681642	-0.628017
H166	H	1.550526	-0.181642	-0.128017
H167	H	0.999993	-0.805460	-0.695154
H168	H	1.499993	-0.305460	-0.195154
Cl169	Cl	1.357748	-0.165400	-1.130658
Cl170	Cl	1.857748	0.334600	-0.630658
Cl171	Cl	0.977661	-0.973518	-0.724910
Cl172	Cl	1.477661	-0.473518	-0.224910
H173	H	1.050678	-1.079059	-0.628061
H174	H	1.550678	-0.579059	-0.128061
