data_functionalizedCrystal
_audit_creation_method	'MofGen! by Chris Wilmer'
_symmetry_space_group_name_H-M	'P1'
_symmetry_Int_Tables_number	1
_symmetry_cell_setting	triclinic
loop_
_symmetry_equiv_pos_as_xyz
  x,y,z
_cell_length_a	23.196402
_cell_length_b	27.440280
_cell_length_c	23.196401
_cell_angle_alpha	90.017084
_cell_angle_beta	60.007472
_cell_angle_gamma	59.999414
loop_
_atom_site_label
_atom_site_type_symbol
_atom_site_fract_x
_atom_site_fract_y
_atom_site_fract_z
Zr1	Zr	0.630943	0.469501	-0.075575
O2	O	0.751222	0.391666	-0.167636
O3	O	0.510672	0.493359	-0.047355
O4	O	0.630941	0.493338	-0.167623
O5	O	0.630952	0.391706	0.047504
O6	O	0.630930	0.573540	-0.167611
O7	O	0.630953	0.391687	-0.047368
O8	O	0.415791	0.573579	0.047527
O9	O	0.846090	0.391668	-0.167635
O10	O	0.560130	0.563391	-0.035309
O11	O	0.560137	0.503551	0.035484
O12	O	0.701738	0.503526	-0.106117
O13	O	0.701745	0.443686	-0.035324
Zr14	Zr	0.630923	0.597445	0.075753
Zr15	Zr	0.630925	0.597415	-0.075556
Zr16	Zr	0.630940	0.469531	0.075734
Zr17	Zr	0.782247	0.469504	-0.075573
Zr18	Zr	0.479618	0.597442	0.075750
O19	O	0.751193	0.573587	0.047532
O20	O	0.751197	0.573543	-0.167609
O21	O	0.751218	0.391709	0.047505
O22	O	0.510643	0.675280	0.167814
O23	O	0.510647	0.675237	-0.047328
O24	O	0.510669	0.493403	0.167787
O25	O	0.630914	0.675239	-0.047326
O26	O	0.630924	0.573608	0.167801
O27	O	0.630936	0.493405	0.167789
O28	O	0.630912	0.675259	0.047546
O29	O	0.846076	0.493343	-0.167620
O30	O	0.415789	0.573603	0.167798
O31	O	0.415775	0.675278	0.167813
O32	O	0.415777	0.675254	0.047542
O33	O	0.846089	0.391692	-0.047364
O34	O	0.846074	0.493367	-0.047349
O35	O	0.560127	0.563420	0.106294
O36	O	0.560120	0.623260	0.035502
O37	O	0.701728	0.563395	-0.035306
O38	O	0.701736	0.503555	0.035486
C39	C	0.441674	0.533469	0.000086
C40	C	0.377441	0.533467	0.000085
C41	C	-0.033134	0.489289	-0.052183
C42	C	0.027223	0.489284	-0.052183
C43	C	0.005134	0.533478	0.000089
C44	C	-0.077322	0.577672	0.052374
C45	C	-0.137677	0.577672	0.052376
C46	C	0.060705	0.587411	0.016384
C47	C	0.121061	0.587411	0.016378
C48	C	0.191287	0.533477	0.000086
C49	C	0.201158	0.479539	-0.016214
C50	C	0.140803	0.479540	-0.016212
C51	C	0.070573	0.533482	0.000092
C52	C	0.339178	0.489279	-0.052192
C53	C	0.399535	0.489273	-0.052187
C54	C	0.294987	0.577666	0.052366
C55	C	0.234633	0.577666	0.052364
C56	C	0.256734	0.533473	0.000081
C57	C	0.630955	0.373472	0.000065
C58	C	0.630962	0.319169	0.000057
C59	C	0.557001	0.013720	0.037069
C60	C	0.556997	-0.037298	0.037076
O61	O	0.494132	-0.037110	0.068531
N62	N	0.630914	-0.094064	0.000114
C63	C	0.704840	-0.099811	-0.036851
O64	O	0.767712	-0.152779	-0.068288
C65	C	0.704844	-0.048793	-0.036852
C66	C	0.630922	0.007972	0.000106
C67	C	0.483085	0.070483	0.074025
C68	C	0.483090	0.121498	0.074018
C69	C	0.557011	0.115750	0.037054
C70	C	0.630927	0.058987	0.000098
C71	C	0.778770	-0.054540	-0.073812
C72	C	0.778767	-0.003516	-0.073811
C73	C	0.704845	0.053249	-0.036852
C74	C	0.704852	0.104254	-0.036872
N75	N	0.630935	0.161020	0.000089
C76	C	0.557014	0.166768	0.037053
C77	C	0.704827	-0.206949	-0.036843
C78	C	0.704824	-0.257967	-0.036846
C79	C	0.556980	-0.195450	0.037082
C80	C	0.556984	-0.144433	0.037080
C81	C	0.630910	-0.150184	0.000119
C82	C	0.557030	0.273900	0.037034
C83	C	0.557041	0.324917	0.037021
C84	C	0.704885	0.262396	-0.036904
C85	C	0.704874	0.211384	-0.036894
C86	C	0.630940	0.217140	0.000080
O87	O	0.767685	0.104112	-0.068310
O88	O	0.494153	0.219738	0.068493
C89	C	0.820191	0.533477	0.000092
C90	C	0.884424	0.533479	0.000093
C91	C	0.630936	0.533435	-0.189176
C92	C	0.630937	0.533422	-0.253410
C93	C	0.630910	0.693474	0.000113
C94	C	0.630903	0.747777	0.000121
C95	C	0.704852	0.502175	-0.320544
C96	C	0.704853	0.502191	-0.380900
C97	C	0.630934	0.533444	-0.374116
C98	C	0.557009	0.564697	-0.306970
C99	C	0.557010	0.564686	-0.246617
C100	C	0.574306	0.529004	-0.441435
C101	C	0.574308	0.529011	-0.501789
C102	C	0.630928	0.533482	-0.560264
C103	C	0.687560	0.537933	-0.558385
C104	C	0.687561	0.537922	-0.498032
C105	C	0.630925	0.533460	-0.439555
C106	C	0.704850	0.502250	-0.692845
C107	C	0.704848	0.502270	-0.753200
C108	C	0.557002	0.564772	-0.679268
C109	C	0.557006	0.564757	-0.618915
C110	C	0.630932	0.533493	-0.625709
C111	C	0.630930	0.533511	0.189353
C112	C	0.630929	0.533524	0.253588
C113	C	0.441652	0.693470	0.000110
C114	C	0.377411	0.747771	0.000117
C115	C	0.441671	0.533507	0.189350
C116	C	0.377437	0.533518	0.253584
C117	C	0.441649	0.693508	0.189374
C118	C	0.377407	0.747822	0.253616
C119	C	0.820217	0.373438	-0.189196
C120	C	0.884458	0.319123	-0.253438
C121	C	0.820214	0.373476	0.000068
C122	C	0.884454	0.319175	0.000061
C123	C	0.820194	0.533439	-0.189173
C124	C	0.884428	0.533427	-0.253406
C125	C	0.347248	0.742021	-0.036849
C126	C	0.286896	0.793038	-0.036856
C127	C	0.256704	0.849805	0.000106
C128	C	0.286873	0.855554	0.037073
C129	C	0.347228	0.804537	0.037076
C130	C	0.347267	0.564775	0.320717
C131	C	0.286921	0.564783	0.381077
C132	C	0.256742	0.533539	0.374303
C133	C	0.286918	0.502279	0.307162
C134	C	0.347267	0.502267	0.246804
C135	C	0.347235	0.804570	0.246831
C136	C	0.286882	0.855609	0.307187
C137	C	0.256698	0.849899	0.374327
C138	C	0.286876	0.793145	0.381110
C139	C	0.347232	0.742108	0.320755
C140	C	0.914637	0.262375	-0.246653
C141	C	0.975009	0.211336	-0.307010
C142	C	1.005196	0.217047	-0.374149
C143	C	0.975014	0.273800	-0.380932
C144	C	0.914648	0.324838	-0.320577
C145	C	0.914623	0.324925	0.037020
C146	C	0.974992	0.273908	0.037011
C147	C	1.005186	0.217141	0.000046
C148	C	0.975015	0.211392	-0.036917
C149	C	0.914651	0.262408	-0.036912
C150	C	0.914588	0.564678	-0.246609
C151	C	0.974935	0.564679	-0.306957
C152	C	1.005124	0.533425	-0.374103
C153	C	0.974958	0.502174	-0.380899
C154	C	0.914608	0.502177	-0.320551
H155	H	0.094360	0.453291	-0.094745
H156	H	0.733671	0.541548	-0.496505
C157	C	0.380393	0.810873	0.077751
N158	N	0.405369	0.815649	0.108391
C159	C	0.475690	0.599153	-0.671803
N160	N	0.414443	0.625050	-0.666181
H161	H	0.765019	-0.304184	-0.066951
C162	C	0.190348	0.533564	0.440706
N163	N	0.140337	0.533588	0.490724
H164	H	0.999548	0.278601	0.067114
H165	H	1.054338	0.175605	0.000048
H166	H	0.262340	0.788345	-0.066958
C167	C	0.110197	0.646744	0.034306
N168	N	0.102012	0.691434	0.047810
C169	C	1.008226	0.148943	-0.077564
N170	N	1.033236	0.101904	-0.108172
C171	C	0.475692	0.599124	-0.545063
N172	N	0.414442	0.625011	-0.489436
C173	C	1.008146	0.467821	-0.454765
N174	N	1.033138	0.441954	-0.510404
C175	C	0.881448	0.256080	-0.172805
N176	N	0.856458	0.251333	-0.117184
H177	H	0.765046	0.476794	-0.698377
H178	H	0.148843	0.435622	-0.029482
C179	C	0.253707	0.467915	0.299722
N180	N	0.228687	0.442036	0.294119
C181	C	0.278403	0.420207	-0.034132
N182	N	0.336584	0.375520	-0.047626
C183	C	0.363488	0.440662	-0.109700
N184	N	0.381799	0.404044	-0.153015
C185	C	0.786170	0.467816	-0.454758
N186	N	0.847417	0.441924	-0.510387
C187	C	0.253690	0.918033	0.299710
N188	N	0.228689	0.965049	0.294076
C189	C	0.512016	0.524111	-0.503851
N190	N	0.465095	0.520420	-0.505401
C191	C	1.008197	0.148913	-0.299532
N192	N	1.033192	0.101897	-0.293898
H193	H	0.890076	0.371044	-0.326109
H194	H	0.371823	0.476816	0.192143
C195	C	0.786174	0.467791	-0.328021
N196	N	0.847426	0.441895	-0.333653
C197	C	1.071595	0.160897	-0.440536
N198	N	1.121603	0.118603	-0.490536
C199	C	0.253732	0.599180	0.454925
N200	N	0.228733	0.625090	0.510545
C201	C	0.190306	0.905919	0.000101
N202	N	0.140291	0.948182	0.000098
H203	H	-0.015132	0.453302	-0.094754
H204	H	0.207552	0.891462	0.423467
H205	H	0.838965	-0.100753	-0.103907
H206	H	0.262282	0.901780	0.067166
C207	C	0.881387	0.599066	-0.172754
N208	N	0.856379	0.624972	-0.117128
C209	C	0.253658	0.786874	0.454971
N210	N	0.228632	0.782153	0.510605
C211	C	0.512018	0.524084	-0.377115
N212	N	0.465104	0.520378	-0.328670
H213	H	0.466666	0.453286	-0.094757
H214	H	0.371802	0.809231	0.192168
C215	C	0.270685	0.626279	0.109867
N216	N	0.252381	0.662895	0.153178
H217	H	0.371791	0.695903	0.326289
H218	H	0.838968	-0.008206	-0.103900
C219	C	1.008222	0.280072	-0.454793
N220	N	1.033230	0.284793	-0.510427
H221	H	0.496790	-0.098215	0.067181
C222	C	0.475698	0.599074	-0.299510
N223	N	0.414452	0.624968	-0.293889
C224	C	0.881425	0.387364	0.077683
N225	N	0.856427	0.434392	0.108309
H226	H	0.890089	0.257718	-0.067006
H227	H	0.999489	0.590127	-0.301410
H228	H	1.054265	0.533428	-0.423236
H229	H	0.167504	0.613653	0.094930
H230	H	0.890059	0.476726	-0.326095
C231	C	0.475693	0.599057	-0.172764
N232	N	0.414444	0.624943	-0.117136
C233	C	-0.101619	0.626288	0.109869
N234	N	-0.119921	0.662906	0.153177
C235	C	-0.228370	0.626293	0.109878
N236	N	-0.296682	0.662918	0.153187
C237	C	0.475718	0.387359	0.077681
N238	N	0.414467	0.434389	0.108308
C239	C	-0.016546	0.646748	0.034315
N240	N	-0.074732	0.691439	0.047822
C241	C	0.401769	0.183936	0.114682
N242	N	0.340514	0.230963	0.145315
C243	C	0.475699	0.280241	0.077701
N244	N	0.414440	0.285017	0.108327
C245	C	0.401759	0.076819	0.114684
N246	N	0.340499	0.081598	0.145305
H247	H	0.496790	-0.190778	0.067177
C248	C	0.786157	-0.213285	-0.077518
N249	N	0.847414	-0.218059	-0.108156
H250	H	0.765069	0.257726	-0.067001
C251	C	0.786192	0.148940	-0.077553
N252	N	0.847442	0.101910	-0.108171
H253	H	0.733668	0.541570	-0.605999
H254	H	0.765042	0.476828	-0.807865
H255	H	0.371830	0.695803	-0.066956
H256	H	0.371833	0.590218	0.326247
