data_functionalizedCrystal
_audit_creation_method	'MofGen! by Chris Wilmer'
_symmetry_space_group_name_H-M	'P1'
_symmetry_Int_Tables_number	1
_symmetry_cell_setting	triclinic
loop_
_symmetry_equiv_pos_as_xyz
  x,y,z
_cell_length_a	12.759401
_cell_length_b	12.759400
_cell_length_c	12.759393
_cell_angle_alpha	89.970195
_cell_angle_beta	89.980198
_cell_angle_gamma	90.013730
loop_
_atom_site_label
_atom_site_type_symbol
_atom_site_fract_x
_atom_site_fract_y
_atom_site_fract_z
Zn1	Zn	1.606267	-0.418241	-0.593993
Zn2	Zn	1.606158	-0.593957	-0.418316
Zn3	Zn	1.430565	-0.418290	-0.418332
Zn4	Zn	1.430558	-0.593876	-0.593956
O5	O	1.518387	-0.506091	-0.506149
O6	O	1.753273	-0.441564	-0.570698
O7	O	1.582823	-0.570708	-0.271297
O8	O	1.453921	-0.271262	-0.441656
O9	O	1.753193	-0.570661	-0.441628
O10	O	1.583008	-0.271226	-0.570714
O11	O	1.453816	-0.441646	-0.271309
O12	O	1.283543	-0.441568	-0.441620
O13	O	1.453908	-0.570523	-0.740982
O14	O	1.283538	-0.570570	-0.570651
O15	O	1.583001	-0.441485	-0.741009
O16	O	1.582815	-0.740967	-0.441592
O17	O	1.453802	-0.740908	-0.570635
C18	C	1.245420	-0.506066	-0.506134
C19	C	1.128643	-0.506081	-0.506152
C20	C	0.964086	-0.439006	-0.573470
C21	C	1.073810	-0.438985	-0.573463
C22	C	1.073746	-0.573210	-0.438852
C23	C	0.964024	-0.573235	-0.438865
C24	C	1.518325	-0.779058	-0.506131
C25	C	1.518394	-0.895835	-0.506158
C26	C	1.585581	-0.950588	-0.573415
C27	C	1.585640	-1.060312	-0.573444
C28	C	1.451323	-1.060520	-0.438948
C29	C	1.451260	-0.950798	-0.438926
C30	C	1.792420	-0.506116	-0.506165
C31	C	1.909197	-0.506127	-0.506172
C32	C	1.518466	-0.505990	-0.780183
C33	C	1.518499	-0.505947	-0.896959
C34	C	1.518478	-0.232057	-0.506191
C35	C	1.518517	-0.115281	-0.506209
C36	C	1.585723	-0.438746	-0.951837
C37	C	1.585740	-0.438701	-1.061561
C38	C	1.451308	-0.573066	-1.061520
C39	C	1.451286	-0.573105	-0.951798
C40	C	1.518369	-0.506115	-0.233182
C41	C	1.518539	-0.505862	-0.116406
H42	H	1.118496	-0.384330	-0.628264
H43	H	1.640244	-0.905840	-0.628161
H44	H	1.118400	-0.627844	-0.384050
H45	H	1.396666	-1.105284	-0.384209
H46	H	0.919449	-0.384362	-0.628276
H47	H	1.396588	-0.627747	-1.106183
H48	H	0.919332	-0.627899	-0.384062
H49	H	1.640347	-1.104888	-0.628214
F50	F	1.379740	-0.892521	-0.367344
H51	H	1.640449	-0.384058	-0.907191
H52	H	1.640479	-0.383977	-1.106238
F53	F	1.379728	-0.644629	-0.893390
