data_functionalizedCrystal
_audit_creation_method	'MofGen! by Chris Wilmer'
_symmetry_space_group_name_H-M	'P1'
_symmetry_Int_Tables_number	1
_symmetry_cell_setting	triclinic
loop_
_symmetry_equiv_pos_as_xyz
  x,y,z
_cell_length_a	11.792241
_cell_length_b	15.538191
_cell_length_c	14.185569
_cell_angle_alpha	82.124202
_cell_angle_beta	76.753184
_cell_angle_gamma	114.267245
loop_
_atom_site_label
_atom_site_type_symbol
_atom_site_fract_x
_atom_site_fract_y
_atom_site_fract_z
O1	O	-0.333383	-1.226838	-0.083428
O2	O	-0.202607	-0.953247	-0.083428
O3	O	-0.435953	-1.096684	-0.083421
O4	O	-0.100037	-1.083402	-0.083435
O5	O	-0.504880	-1.139056	0.083416
O6	O	-0.271534	-0.995620	0.083409
O7	O	-0.402310	-1.269211	0.083409
Cu8	Cu	-0.343215	-1.136284	0.098642
Cu9	Cu	-0.261702	-1.086174	-0.098662
O10	O	-0.168964	-1.125774	0.083402
C11	C	-0.223388	-0.939408	-0.000010
C12	C	-0.182633	-0.835042	-0.000009
C13	C	-0.512357	-1.117036	-0.000003
C14	C	-0.637324	-1.114539	-0.000004
C15	C	-0.381528	-1.283050	-0.000012
C16	C	-0.422281	-1.387413	-0.000019
C17	C	-0.866104	-1.109944	-0.000021
C18	C	-0.738792	-1.112497	-0.000012
C19	C	-0.092559	-1.105422	-0.000019
C20	C	0.032410	-1.107917	-0.000024
N21	N	-0.400551	-1.171536	0.237415
C22	C	-0.587531	-0.545184	-0.000008
C23	C	-0.549205	-0.447114	-0.000010
C24	C	-0.333634	-0.425769	-0.000019
C25	C	-0.371943	-0.523842	-0.000012
C26	C	-0.498893	-0.583541	-0.000008
C27	C	-0.283305	-0.562199	-0.000011
C28	C	-0.321610	-0.660261	-0.000010
C29	C	-0.448553	-0.719966	-0.000008
C30	C	-0.537198	-0.681604	-0.000006
C31	C	-0.156353	-0.502495	-0.000023
C32	C	-0.067715	-0.540852	-0.000023
C33	C	-0.106023	-0.638918	-0.000013
C34	C	-0.232966	-0.698623	-0.000012
C35	C	-0.017378	-0.677280	-0.000016
C36	C	-0.055683	-0.775343	-0.000014
C37	C	-0.271271	-0.796685	-0.000010
N38	N	-0.204378	-1.050930	-0.237434
C39	C	-0.035974	-0.947360	0.605054
C40	C	-0.079400	-0.974069	0.710077
C41	C	-0.285981	-1.101108	0.710044
C42	C	-0.242574	-1.074406	0.605019
C43	C	-0.117569	-0.997532	0.552532
C44	C	-0.324170	-1.124579	0.552497
C45	C	-0.280763	-1.097882	0.447481
C46	C	-0.155762	-1.021013	0.394987
C47	C	-0.074163	-0.970836	0.447516
C48	C	-0.449171	-1.201457	0.604986
C49	C	-0.530766	-1.251630	0.552464
C50	C	-0.487364	-1.224929	0.447447
C51	C	-0.362362	-1.148060	0.394952
C52	C	-0.568963	-1.275107	0.394918
C53	C	-0.525557	-1.248410	0.289902
C54	C	-0.318956	-1.121363	0.289937
H55	H	-0.374648	-0.845299	-0.000000
H56	H	-0.217170	-1.058758	0.247200
Cl57	Cl	-0.503730	-1.235020	0.737008
H58	H	-0.592000	-1.289267	0.247138
H59	H	-0.012943	-0.933206	0.752835
H60	H	0.065813	-0.884754	0.562317
Cl61	Cl	-0.108199	-0.379215	-0.000025
H62	H	-0.621394	-0.415888	-0.000013
Cl63	Cl	-0.496709	-0.843245	-0.000012
Cl64	Cl	-0.696801	-0.756666	0.000012
H65	H	0.035649	-0.492231	-0.000030
Cl66	Cl	-0.747134	-0.620246	0.000010
H67	H	0.085989	-0.628656	-0.000029
H68	H	0.016492	-0.806575	-0.000004
H69	H	-0.230269	-0.377148	-0.000027
H70	H	-0.387760	-1.163702	0.752791
Cl71	Cl	-0.101189	-0.987455	0.262965
H72	H	0.027624	-0.908230	0.404780
Cl73	Cl	-0.687910	-1.348271	0.618455
Cl74	Cl	-0.726099	-1.371755	0.460911
