data_functionalizedCrystal
_audit_creation_method	'MofGen! by Chris Wilmer'
_symmetry_space_group_name_H-M	'P1'
_symmetry_Int_Tables_number	1
_symmetry_cell_setting	triclinic
loop_
_symmetry_equiv_pos_as_xyz
  x,y,z
_cell_length_a	10.540539
_cell_length_b	10.489741
_cell_length_c	9.616153
_cell_angle_alpha	89.998052
_cell_angle_beta	89.995174
_cell_angle_gamma	84.532333
loop_
_atom_site_label
_atom_site_type_symbol
_atom_site_fract_x
_atom_site_fract_y
_atom_site_fract_z
O1	O	1.685914	0.179760	-0.115579
O2	O	1.316503	0.196697	-0.115596
O3	O	1.509614	0.002629	-0.115579
O4	O	1.492802	0.373827	-0.115596
O5	O	1.509587	0.002633	0.115712
O6	O	1.316476	0.196701	0.115695
O7	O	1.685887	0.179764	0.115712
Zn8	Zn	1.501177	0.188233	0.152426
Zn9	Zn	1.501212	0.188228	-0.152310
O10	O	1.492776	0.373831	0.115695
C11	C	1.269186	0.195429	0.000047
C12	C	1.128238	0.191629	0.000041
C13	C	0.944793	0.046011	0.000588
C14	C	1.091412	0.049864	0.000052
C15	C	1.066588	0.259850	-0.132036
C16	C	0.920043	0.255011	-0.132132
C17	C	0.919525	0.257900	0.130890
C18	C	1.066507	0.259206	0.132621
C19	C	1.508331	-0.044900	0.000066
C20	C	1.504532	-0.186529	0.000063
C21	C	1.381661	-0.254654	0.000047
C22	C	1.439691	-0.346782	0.114088
C23	C	1.439746	-0.346760	-0.113947
C24	C	1.562613	-0.276791	0.114199
C25	C	1.562651	-0.276760	-0.113939
C26	C	1.620770	-0.368860	0.000130
C27	C	1.733203	0.181032	0.000066
C28	C	1.874152	0.184832	0.000063
C29	C	1.494059	0.421361	0.000047
C30	C	1.497858	0.562990	0.000041
N31	N	1.501163	0.188236	0.360401
N32	N	1.501237	0.188215	-0.360285
C33	C	1.397545	0.291701	0.580761
C34	C	1.397773	0.292088	0.419594
C35	C	1.633890	0.218515	0.418855
C36	C	1.633325	0.219248	0.580073
C37	C	1.473374	0.054153	0.580317
C38	C	1.470328	0.055022	0.419090
H39	H	1.107452	0.209368	0.230331
N40	N	1.144840	-0.017490	0.118821
N41	N	1.073849	-0.067679	0.202687
H42	H	1.111577	-0.115260	0.286568
H43	H	1.415224	0.390600	0.621256
H44	H	1.280637	-0.204991	0.000157
H45	H	1.378634	0.025335	0.621051
N46	N	1.374468	-0.385669	0.235042
N47	N	1.329986	-0.303768	0.320876
H48	H	1.283915	-0.331227	0.406296
H49	H	1.712936	0.145199	0.380509
N50	N	0.884656	0.191721	-0.255957
N51	N	0.829719	0.091515	-0.247736
H52	H	0.804732	0.046809	-0.335188
H53	H	1.614546	-0.245964	0.210720
H54	H	1.721885	-0.418297	0.000198
N55	N	0.908984	-0.024193	0.119484
N56	N	0.830973	0.027256	0.205217
H57	H	0.805705	-0.022312	0.289217
N58	N	0.906873	-0.023964	-0.117545
N59	N	0.792402	-0.042454	-0.133764
H60	H	0.765612	-0.091870	-0.217196
N61	N	1.420260	0.416847	0.371154
N62	N	1.424338	0.438815	0.243552
H63	H	1.440225	0.526930	0.209340
N64	N	1.347834	0.026243	0.371164
N65	N	1.283416	0.103488	0.294067
H66	H	1.196903	0.083167	0.260211
H67	H	1.109182	0.212456	-0.230326
H68	H	1.090745	0.362562	0.140590
N69	N	1.665131	0.339825	0.368171
N70	N	1.589869	0.404181	0.289017
H71	H	1.611926	0.489860	0.253221
H72	H	1.540845	-0.025687	0.378802
N73	N	1.568205	-0.042470	0.628172
N74	N	1.582732	-0.062348	0.755603
H75	H	1.649708	-0.130579	0.789410
H76	H	1.657691	0.317055	0.617657
H77	H	1.088954	0.363958	-0.136955
N78	N	0.860273	0.386344	0.132004
N79	N	0.741532	0.406500	0.136301
H80	H	0.699678	0.497209	0.137080
N81	N	1.627824	-0.237834	-0.234898
N82	N	1.585970	-0.259893	-0.353226
H83	H	1.631991	-0.232400	-0.438665
H84	H	1.133162	-0.004197	-0.094786
N85	N	1.273424	0.269245	0.629435
N86	N	1.187955	0.248755	0.544468
H87	H	1.100288	0.232903	0.578853
H88	H	1.712959	0.146910	0.619068
H89	H	0.872087	0.356966	-0.138131
N90	N	0.879945	0.200372	0.256501
N91	N	0.808916	0.264443	0.340094
H92	H	0.780964	0.223805	0.428804
N93	N	1.374500	-0.385620	-0.234882
N94	N	1.260786	-0.344477	-0.255172
H95	H	1.214696	-0.371918	-0.340576
N96	N	1.273851	0.269673	0.370284
N97	N	1.227012	0.168403	0.401534
H98	H	1.139405	0.152743	0.366821
