data_functionalizedCrystal
_audit_creation_method	'MofGen! by Chris Wilmer'
_symmetry_space_group_name_H-M	'P1'
_symmetry_Int_Tables_number	1
_symmetry_cell_setting	triclinic
loop_
_symmetry_equiv_pos_as_xyz
  x,y,z
_cell_length_a	14.044220
_cell_length_b	10.654554
_cell_length_c	13.101039
_cell_angle_alpha	86.609523
_cell_angle_beta	93.667477
_cell_angle_gamma	88.837860
loop_
_atom_site_label
_atom_site_type_symbol
_atom_site_fract_x
_atom_site_fract_y
_atom_site_fract_z
O1	O	0.128063	1.687556	-0.085222
O2	O	0.140751	1.323354	-0.085224
O3	O	-0.003613	1.499987	-0.085213
O4	O	0.272427	1.510922	-0.085233
O5	O	0.006762	1.487316	0.085216
O6	O	0.151127	1.310682	0.085206
O7	O	0.138438	1.674885	0.085207
Zn8	Zn	0.146430	1.490772	0.112266
Zn9	Zn	0.132760	1.507467	-0.112282
O10	O	0.282802	1.498251	0.085196
C11	C	0.145006	1.270126	-0.000009
C12	C	0.142216	1.130403	-0.000009
C13	C	0.051969	0.938772	-0.000011
C14	C	0.054591	1.070057	-0.000004
C15	C	0.227226	1.059457	-0.000011
C16	C	0.224604	0.928174	-0.000011
C17	C	-0.035662	0.878434	-0.000017
C18	C	-0.120672	0.949371	-0.000013
C19	C	-0.118051	1.080656	-0.000006
C20	C	-0.030419	1.141003	-0.000002
C21	C	-0.033771	1.488866	0.000002
C22	C	-0.139091	1.474590	0.000003
C23	C	-0.331925	1.448493	-0.000011
C24	C	-0.388892	1.549741	-0.000014
C25	C	-0.496191	1.535220	-0.000022
C26	C	-0.224616	1.463012	-0.000003
C27	C	0.312961	1.509373	-0.000021
C28	C	0.418280	1.523649	-0.000029
C29	C	0.134183	1.728112	-0.000010
C30	C	0.136973	1.867836	-0.000016
N31	N	0.155758	1.479387	0.265513
N32	N	0.123424	1.518861	-0.265530
C33	C	0.168459	1.463898	0.474555
C34	C	0.110726	1.534345	0.525435
C35	C	0.117793	1.525727	0.641753
C36	C	0.161394	1.472515	0.358227
H37	H	-0.028291	1.247903	0.000013
H38	H	-0.363737	1.350913	-0.000014
Cl39	Cl	0.026585	1.637976	0.457820
H40	H	-0.037806	0.771537	-0.000025
Cl41	Cl	-0.230831	0.873507	-0.000004
H42	H	-0.187270	1.138408	0.000007
Cl43	Cl	0.252964	1.360798	0.542170
H44	H	-0.357082	1.647333	-0.000083
Cl45	Cl	0.337383	1.135324	-0.000014
H46	H	0.293822	0.870416	-0.000011
