data_functionalizedCrystal
_audit_creation_method	'MofGen! by Chris Wilmer'
_symmetry_space_group_name_H-M	'P1'
_symmetry_Int_Tables_number	1
_symmetry_cell_setting	triclinic
loop_
_symmetry_equiv_pos_as_xyz
  x,y,z
_cell_length_a	18.215407
_cell_length_b	17.640280
_cell_length_c	18.215399
_cell_angle_alpha	101.224603
_cell_angle_beta	90.019833
_cell_angle_gamma	78.800709
loop_
_atom_site_label
_atom_site_type_symbol
_atom_site_fract_x
_atom_site_fract_y
_atom_site_fract_z
Zn1	Zn	1.184366	-0.314661	0.356963
Zn2	Zn	1.517699	0.018673	0.690296
Zn3	Zn	1.851032	0.352006	1.023629
Zn4	Zn	1.209181	-0.446838	0.209048
Zn5	Zn	1.542514	-0.113505	0.542382
Zn6	Zn	1.875848	0.219829	0.875715
Zn7	Zn	1.061303	-0.314687	0.233905
Zn8	Zn	1.394636	0.018647	0.567239
Zn9	Zn	1.727970	0.351980	0.900572
Zn10	Zn	1.086163	-0.446794	0.332082
Zn11	Zn	1.419496	-0.113461	0.665415
Zn12	Zn	1.752829	0.219873	0.998748
O13	O	1.135253	-0.380745	0.282999
O14	O	1.468586	-0.047412	0.616333
O15	O	1.801920	0.285922	0.949666
O16	O	1.290643	-0.332202	0.337352
O17	O	1.623976	0.001131	0.670685
O18	O	1.957310	0.334465	1.004018
O19	O	1.189546	-0.429337	0.109356
O20	O	1.522879	-0.096004	0.442689
O21	O	1.856213	0.237329	0.776023
O22	O	1.056838	-0.204079	0.271045
O23	O	1.390172	0.129254	0.604378
O24	O	1.723505	0.462587	0.937711
O25	O	1.308875	-0.429312	0.228680
O26	O	1.642208	-0.095979	0.562013
O27	O	1.975542	0.237355	0.895346
O28	O	1.147252	-0.204060	0.361454
O29	O	1.480585	0.129273	0.694788
O30	O	1.813918	0.462606	1.028121
O31	O	1.080901	-0.332246	0.127618
O32	O	1.414234	0.001087	0.460951
O33	O	1.747567	0.334421	0.794285
O34	O	0.961615	-0.332203	0.246918
O35	O	1.294948	0.001130	0.580252
O36	O	1.628282	0.334463	0.913585
O37	O	1.099208	-0.429237	0.438372
O38	O	1.432541	-0.095904	0.771705
O39	O	1.765875	0.237430	1.105039
O40	O	0.979879	-0.429262	0.319048
O41	O	1.313213	-0.095929	0.652381
O42	O	1.646546	0.237404	0.985715
O43	O	1.171357	-0.332159	0.456652
O44	O	1.504691	0.001174	0.789985
O45	O	1.838024	0.334507	1.123319
O46	O	1.213652	-0.557436	0.204553
O47	O	1.546985	-0.224103	0.537887
O48	O	1.880318	0.109230	0.871220
O49	O	1.123271	-0.557404	0.294945
O50	O	1.456604	-0.224071	0.628279
O51	O	1.789937	0.109263	0.961612
C52	C	0.944044	-0.380731	0.282981
C53	C	1.277378	-0.047398	0.616314
C54	C	1.610711	0.285935	0.949648
C55	C	0.862248	-0.380745	0.282987
C56	C	1.195581	-0.047411	0.616320
C57	C	1.528915	0.285922	0.949653
C58	C	1.173871	-0.586099	0.244368
C59	C	1.507205	-0.252765	0.577702
C60	C	1.840538	0.080568	0.911035
C61	C	1.190460	-0.673950	0.227866
C62	C	1.523793	-0.340616	0.561200
C63	C	1.857127	-0.007283	0.894533
C64	C	0.683598	-0.431363	0.320471
C65	C	1.016932	-0.098029	0.653804
C66	C	1.350265	0.235304	0.987137
C67	C	0.606740	-0.431365	0.320479
C68	C	0.940073	-0.098032	0.653813
C69	C	1.273407	0.235302	0.987146
C70	C	0.587662	-0.330142	0.245542
C71	C	0.920996	0.003192	0.578875
C72	C	1.254329	0.336525	0.912208
C73	C	0.664519	-0.330136	0.245538
C74	C	0.997852	0.003198	0.578871
C75	C	1.331185	0.336531	0.912204
C76	C	0.712485	-0.380751	0.283000
C77	C	1.045819	-0.047417	0.616334
C78	C	1.379152	0.285916	0.949667
C79	C	0.558771	-0.380759	0.283013
C80	C	0.892104	-0.047426	0.616346
C81	C	1.225438	0.285908	0.949680
C82	C	0.475438	-0.380761	0.283022
C83	C	0.808771	-0.047428	0.616355
C84	C	1.142104	0.285905	0.949689
C85	C	0.795824	-0.380748	0.282993
C86	C	1.129157	-0.047414	0.616326
C87	C	1.462491	0.285919	0.949659
C88	C	1.009534	-0.962935	0.408631
C89	C	1.342868	-0.629601	0.741964
C90	C	1.676201	-0.296268	1.075297
C91	C	1.025123	-1.045484	0.393101
C92	C	1.358457	-0.712151	0.726435
C93	C	1.691790	-0.378817	1.059768
C94	C	1.119295	-1.045452	0.299071
C95	C	1.452629	-0.712119	0.632405
C96	C	1.785962	-0.378786	0.965738
C97	C	1.103717	-0.962901	0.314596
C98	C	1.437050	-0.629568	0.647929
C99	C	1.770384	-0.296234	0.981262
C100	C	1.048835	-0.921649	0.369375
C101	C	1.382168	-0.588315	0.702709
C102	C	1.715502	-0.254982	1.036042
C103	C	1.143018	-0.921615	0.275340
C104	C	1.476351	-0.588282	0.608674
C105	C	1.809684	-0.254949	0.942007
C106	C	1.127438	-0.839071	0.290861
C107	C	1.460771	-0.505738	0.624194
C108	C	1.794104	-0.172405	0.957527
C109	C	1.072557	-0.797813	0.345636
C110	C	1.405890	-0.464480	0.678970
C111	C	1.739223	-0.131146	1.012303
C112	C	1.033255	-0.839105	0.384896
C113	C	1.366588	-0.505771	0.718229
C114	C	1.699922	-0.172438	1.051563
C115	C	1.197896	-0.962869	0.220557
C116	C	1.531229	-0.629536	0.553890
C117	C	1.864562	-0.296202	0.887223
C118	C	1.237196	-0.921583	0.181301
C119	C	1.570530	-0.588250	0.514635
C120	C	1.903863	-0.254917	0.847968
C121	C	1.221620	-0.839038	0.196825
C122	C	1.554953	-0.505704	0.530159
C123	C	1.888287	-0.172371	0.863492
C124	C	1.166739	-0.797780	0.251601
C125	C	1.500073	-0.464446	0.584935
C126	C	1.833406	-0.131113	0.918268
C127	C	1.260922	-0.797746	0.157566
C128	C	1.594255	-0.464413	0.490899
C129	C	1.927589	-0.131079	0.824233
C130	C	1.245342	-0.715202	0.173086
C131	C	1.578675	-0.381869	0.506420
C132	C	1.912008	-0.048535	0.839753
C133	C	1.151159	-0.715236	0.267122
C134	C	1.484493	-0.381902	0.600455
C135	C	1.817826	-0.048569	0.933788
C136	C	1.327209	-0.380759	0.283018
C137	C	1.660542	-0.047426	0.616352
C138	C	1.993875	0.285908	0.949685
C139	C	1.409009	-0.380765	0.283027
C140	C	1.742342	-0.047432	0.616360
C141	C	2.075675	0.285902	0.949693
C142	C	1.135288	-0.380690	0.474963
C143	C	1.468621	-0.047357	0.808296
C144	C	1.801954	0.285976	1.141629
C145	C	1.135302	-0.380667	0.556766
C146	C	1.468636	-0.047334	0.890099
C147	C	1.801969	0.285999	1.223433
C148	C	1.096504	-0.174589	0.321798
C149	C	1.429837	0.158744	0.655131
C150	C	1.763171	0.492077	0.988464
C151	C	1.079991	-0.086738	0.338331
C152	C	1.413325	0.246595	0.671664
C153	C	1.746658	0.579928	1.004998
C154	C	1.135250	-0.380742	0.091794
C155	C	1.468584	-0.047409	0.425127
C156	C	1.801917	0.285924	0.758460
C157	C	1.135336	-0.380543	0.010033
C158	C	1.468669	-0.047209	0.343366
C159	C	1.802003	0.286124	0.676699
C160	C	1.172878	-0.330072	0.754489
C161	C	1.506212	0.003262	1.087822
C162	C	1.839545	0.336595	1.421155
C163	C	1.172883	-0.330049	0.831352
C164	C	1.506216	0.003285	1.164685
C165	C	1.839550	0.336618	1.498018
C166	C	1.097755	-0.431141	0.812304
C167	C	1.431089	-0.097807	1.145638
C168	C	1.764422	0.235526	1.478971
C169	C	1.097747	-0.431159	0.735444
C170	C	1.431080	-0.097826	1.068777
C171	C	1.764413	0.235508	1.402110
C172	C	1.135313	-0.380626	0.706537
C173	C	1.468646	-0.047292	1.039871
C174	C	1.801979	0.286041	1.373204
C175	C	1.135326	-0.380584	0.860261
C176	C	1.468659	-0.047251	1.193595
C177	C	1.801992	0.286082	1.526928
C178	C	1.135330	-0.380560	0.943600
C179	C	1.468664	-0.047226	1.276933
C180	C	1.801997	0.286107	1.610266
C181	C	1.135307	-0.380649	0.623194
C182	C	1.468641	-0.047316	0.956527
C183	C	1.801974	0.286018	1.289861
H184	H	0.722651	-0.472575	0.350978
H185	H	1.055984	-0.139241	0.684311
H186	H	1.389318	0.194092	1.017644
Cl187	Cl	0.570428	-0.494993	0.367589
Cl188	Cl	0.903762	-0.161660	0.700922
Cl189	Cl	1.237095	0.171674	1.034256
H190	H	0.548599	-0.288934	0.215039
H191	H	0.881932	0.044399	0.548373
H192	H	1.215266	0.377733	0.881706
H193	H	0.964849	-0.929345	0.453244
H194	H	1.298183	-0.596012	0.786577
H195	H	1.631516	-0.262679	1.119910
H196	H	1.277344	-0.681587	0.141120
H197	H	1.610677	-0.348254	0.474453
H198	H	1.944011	-0.014920	0.807786
H199	H	0.688037	-0.288916	0.215026
H200	H	1.021371	0.044417	0.548359
H201	H	1.354704	0.377750	0.881692
H202	H	1.106474	-0.681646	0.311735
H203	H	1.439808	-0.348313	0.645068
H204	H	1.773141	-0.014980	0.978401
H205	H	1.203471	-0.288881	0.870391
H206	H	1.536805	0.044452	1.203725
H207	H	1.870138	0.377786	1.537058
Cl208	Cl	0.975701	-1.097384	0.442449
Cl209	Cl	1.309035	-0.764051	0.775782
Cl210	Cl	1.642368	-0.430717	1.109116
H211	H	1.059867	-0.730600	0.358267
H212	H	1.393201	-0.397267	0.691600
H213	H	1.726534	-0.063934	1.024934
Cl214	Cl	0.964266	-0.787238	0.453770
Cl215	Cl	1.297600	-0.453905	0.787104
Cl216	Cl	1.630933	-0.120571	1.120437
H217	H	1.163978	-1.079051	0.254467
H218	H	1.497311	-0.745718	0.587801
H219	H	1.830645	-0.412385	0.921134
Cl220	Cl	1.306190	-0.973451	0.112440
Cl221	Cl	1.639523	-0.640118	0.445773
Cl222	Cl	1.972856	-0.306784	0.779107
Cl223	Cl	1.220101	-0.266541	0.718152
Cl224	Cl	1.553434	0.066792	1.051486
Cl225	Cl	1.886767	0.400126	1.384819
Cl226	Cl	1.217508	-1.066640	0.201072
Cl227	Cl	1.550842	-0.733307	0.534405
Cl228	Cl	1.884175	-0.399974	0.867739
Cl229	Cl	1.329908	-0.849616	0.088698
Cl230	Cl	1.663242	-0.516283	0.422031
Cl231	Cl	1.996575	-0.182949	0.755365
H232	H	1.067172	-0.472285	0.835849
H233	H	1.400506	-0.138952	1.169183
H234	H	1.733839	0.194382	1.502516
H235	H	1.067151	-0.472326	0.696400
H236	H	1.400484	-0.138992	1.029733
H237	H	1.733818	0.194341	1.363067
