data_functionalizedCrystal
_audit_creation_method	'MofGen! by Chris Wilmer'
_symmetry_space_group_name_H-M	'P1'
_symmetry_Int_Tables_number	1
_symmetry_cell_setting	triclinic
loop_
_symmetry_equiv_pos_as_xyz
  x,y,z
_cell_length_a	18.215407
_cell_length_b	18.215405
_cell_length_c	18.215399
_cell_angle_alpha	89.969449
_cell_angle_beta	89.982223
_cell_angle_gamma	90.020505
loop_
_atom_site_label
_atom_site_type_symbol
_atom_site_fract_x
_atom_site_fract_y
_atom_site_fract_z
Zn1	Zn	-1.125072	0.293078	0.416062
Zn2	Zn	-0.791739	0.626411	0.749395
Zn3	Zn	-0.458405	0.959745	1.082729
Zn4	Zn	-1.124980	0.416149	0.292990
Zn5	Zn	-0.791647	0.749482	0.626324
Zn6	Zn	-0.458314	1.082816	0.959657
Zn7	Zn	-1.002004	0.293092	0.293014
Zn8	Zn	-0.668671	0.626425	0.626347
Zn9	Zn	-0.335338	0.959758	0.959681
Zn10	Zn	-1.001970	0.416098	0.416020
Zn11	Zn	-0.668637	0.749431	0.749353
Zn12	Zn	-0.335304	1.082764	1.082686
O13	O	-1.063507	0.354604	0.354521
O14	O	-0.730173	0.687937	0.687855
O15	O	-0.396840	1.021271	1.021188
O16	O	-1.228044	0.309419	0.399744
O17	O	-0.894711	0.642753	0.733078
O18	O	-0.561377	0.976086	1.066411
O19	O	-1.108643	0.399852	0.190009
O20	O	-0.775310	0.733186	0.523342
O21	O	-0.441977	1.066519	0.856676
O22	O	-1.018382	0.190105	0.309364
O23	O	-0.685049	0.523439	0.642698
O24	O	-0.351716	0.856772	0.976031
O25	O	-1.227977	0.399839	0.309324
O26	O	-0.894643	0.733173	0.642657
O27	O	-0.561310	1.066506	0.975991
O28	O	-1.108799	0.190095	0.399767
O29	O	-0.775466	0.523429	0.733101
O30	O	-0.442133	0.856762	1.066434
O31	O	-1.018293	0.309443	0.190026
O32	O	-0.684960	0.642776	0.523360
O33	O	-0.351627	0.976109	0.856693
O34	O	-0.899016	0.309393	0.309323
O35	O	-0.565682	0.642726	0.642656
O36	O	-0.232349	0.976060	0.975990
O37	O	-1.018324	0.399752	0.519010
O38	O	-0.684991	0.733085	0.852343
O39	O	-0.351657	1.066418	1.185676
O40	O	-0.898991	0.399765	0.399695
O41	O	-0.565657	0.733098	0.733028
O42	O	-0.232324	1.066432	1.066361
O43	O	-1.108766	0.309369	0.519041
O44	O	-0.775433	0.642703	0.852374
O45	O	-0.442100	0.976036	1.185707
O46	O	-1.108610	0.519127	0.309283
O47	O	-0.775277	0.852460	0.642616
O48	O	-0.441943	1.185793	0.975949
O49	O	-1.018235	0.519089	0.399672
O50	O	-0.684902	0.852422	0.733005
O51	O	-0.351569	1.185756	1.066338
C52	C	-0.872300	0.354575	0.354507
C53	C	-0.538967	0.687909	0.687841
C54	C	-0.205634	1.021242	1.021174
C55	C	-0.790502	0.354581	0.354519
C56	C	-0.457168	0.687914	0.687852
C57	C	-0.123835	1.021247	1.021185
C58	C	-0.602342	0.307590	0.401673
C59	C	-0.269008	0.640923	0.735007
C60	C	0.064325	0.974257	1.068340
C61	C	-0.525483	0.307594	0.401675
C62	C	-0.192150	0.640927	0.735009
C63	C	0.141184	0.974261	1.068342
C64	C	-0.525424	0.401607	0.307375
C65	C	-0.192090	0.734940	0.640709
C66	C	0.141243	1.068274	0.974042
C67	C	-0.602281	0.401599	0.307370
C68	C	-0.268948	0.734932	0.640704
C69	C	0.064386	1.068265	0.974037
C70	C	-0.640738	0.354591	0.354523
C71	C	-0.307405	0.687925	0.687857
C72	C	0.025929	1.021258	1.021190
C73	C	-0.487022	0.354603	0.354530
C74	C	-0.153689	0.687937	0.687864
C75	C	0.179645	1.021270	1.021197
C76	C	-0.403688	0.354608	0.354532
C77	C	-0.070355	0.687941	0.687866
C78	C	0.262978	1.021275	1.021199
C79	C	-0.724077	0.354586	0.354521
C80	C	-0.390744	0.687919	0.687854
C81	C	-0.057410	1.021252	1.021188
C82	C	-1.063429	0.545810	0.354486
C83	C	-0.730096	0.879144	0.687819
C84	C	-0.396762	1.212477	1.021153
C85	C	-1.063463	0.627609	0.354496
C86	C	-0.730130	0.960943	0.687829
C87	C	-0.396796	1.294276	1.021162
C88	C	-1.063552	0.354553	0.546474
C89	C	-0.730218	0.687887	0.879808
C90	C	-0.396885	1.021220	1.213141
C91	C	-1.063571	0.354532	0.628273
C92	C	-0.730237	0.687865	0.961607
C93	C	-0.396904	1.021198	1.294940
C94	C	-0.255460	0.354625	0.354534
C95	C	0.077874	0.687959	0.687868
C96	C	0.411207	1.021292	1.021201
C97	C	-0.337259	0.354614	0.354535
C98	C	-0.003925	0.687947	0.687869
C99	C	0.329408	1.021281	1.021202
C100	C	-1.063605	0.162651	0.354573
C101	C	-0.730271	0.495984	0.687906
C102	C	-0.396938	0.829318	1.021240
C103	C	-1.063647	0.080852	0.354595
C104	C	-0.730313	0.414186	0.687928
C105	C	-0.396980	0.747519	1.021262
C106	C	-1.110632	0.815798	0.307517
C107	C	-0.777298	1.149132	0.640850
C108	C	-0.443965	1.482465	0.974183
C109	C	-1.110665	0.892657	0.307534
C110	C	-0.777331	1.225990	0.640868
C111	C	-0.443998	1.559324	0.974201
C112	C	-1.016476	0.892658	0.401579
C113	C	-0.683143	1.225991	0.734913
C114	C	-0.349809	1.559324	1.068246
C115	C	-1.016447	0.815800	0.401565
C116	C	-0.683114	1.149134	0.734898
C117	C	-0.349781	1.482467	1.068231
C118	C	-1.063524	0.777373	0.354529
C119	C	-0.730191	1.110706	0.687862
C120	C	-0.396857	1.444039	1.021196
C121	C	-1.063586	0.931089	0.354562
C122	C	-0.730252	1.264422	0.687895
C123	C	-0.396919	1.597755	1.021228
C124	C	-1.063621	1.014422	0.354581
C125	C	-0.730288	1.347756	0.687915
C126	C	-0.396954	1.681089	1.021248
C127	C	-1.063490	0.694034	0.354510
C128	C	-0.730157	1.027367	0.687844
C129	C	-0.396823	1.360700	1.021177
C130	C	-1.063504	0.354602	0.163315
C131	C	-0.730171	0.687935	0.496649
C132	C	-0.396838	1.021268	0.829982
C133	C	-1.063628	0.354416	0.081517
C134	C	-0.730295	0.687749	0.414850
C135	C	-0.396961	1.021082	0.748183
C136	C	-1.110681	0.307426	0.816485
C137	C	-0.777348	0.640759	1.149818
C138	C	-0.444014	0.974092	1.483152
C139	C	-1.110690	0.307404	0.893344
C140	C	-0.777356	0.640738	1.226677
C141	C	-0.444023	0.974071	1.560010
C142	C	-1.016513	0.401524	0.893300
C143	C	-0.683179	0.734857	1.226633
C144	C	-0.349846	1.068191	1.559967
C145	C	-1.016501	0.401541	0.816443
C146	C	-0.683167	0.734874	1.149776
C147	C	-0.349834	1.068208	1.483109
C148	C	-1.063589	0.354493	0.778037
C149	C	-0.730256	0.687826	1.111370
C150	C	-0.396922	1.021160	1.444704
C151	C	-1.063610	0.354454	0.931753
C152	C	-0.730276	0.687788	1.265087
C153	C	-0.396943	1.021121	1.598420
C154	C	-1.063619	0.354432	1.015087
C155	C	-0.730286	0.687765	1.348420
C156	C	-0.396952	1.021098	1.681754
C157	C	-1.063579	0.354515	0.694698
C158	C	-0.730246	0.687848	1.028031
C159	C	-0.396912	1.021181	1.361365
H160	H	-0.633651	0.269311	0.440066
H161	H	-0.300318	0.602645	0.773400
H162	H	0.033016	0.935978	1.106733
H163	H	-0.494224	0.269320	0.440069
H164	H	-0.160891	0.602653	0.773402
H165	H	0.172443	0.935986	1.106735
Br166	Br	-0.473228	0.465401	0.243386
Br167	Br	-0.139894	0.798734	0.576719
Br168	Br	0.193439	1.132067	0.910053
Br169	Br	-1.174608	0.243530	0.945521
Br170	Br	-0.841275	0.576863	1.278854
Br171	Br	-0.507942	0.910196	1.612187
Br172	Br	-0.952517	0.763646	0.465379
Br173	Br	-0.619184	1.096980	0.798712
Br174	Br	-0.285850	1.430313	1.132045
Br175	Br	-0.654396	0.465381	0.243366
Br176	Br	-0.321062	0.798714	0.576699
Br177	Br	0.012271	1.132047	0.910032
Br178	Br	-0.952579	0.465417	0.764258
Br179	Br	-0.619245	0.798750	1.097591
Br180	Br	-0.285912	1.132083	1.430925
H181	H	-0.978146	0.923955	0.439873
H182	H	-0.644813	1.257288	0.773206
H183	H	-0.311480	1.590622	1.106540
Br184	Br	-0.952613	0.465374	0.945426
Br185	Br	-0.619279	0.798708	1.278759
Br186	Br	-0.285946	1.132041	1.612093
Br187	Br	-1.174584	0.243574	0.764365
Br188	Br	-0.841251	0.576907	1.097699
Br189	Br	-0.507918	0.910240	1.431032
H190	H	-1.148966	0.784512	0.269218
H191	H	-0.815632	1.117846	0.602552
H192	H	-0.482299	1.451179	0.935885
H193	H	-1.149026	0.923940	0.269253
H194	H	-0.815692	1.257273	0.602586
H195	H	-0.482359	1.590606	0.935920
