data_functionalizedCrystal
_audit_creation_method	'MofGen! by Chris Wilmer'
_symmetry_space_group_name_H-M	'P1'
_symmetry_Int_Tables_number	1
_symmetry_cell_setting	triclinic
loop_
_symmetry_equiv_pos_as_xyz
  x,y,z
_cell_length_a	11.026623
_cell_length_b	10.065875
_cell_length_c	10.967829
_cell_angle_alpha	110.797457
_cell_angle_beta	83.619121
_cell_angle_gamma	100.714592
loop_
_atom_site_label
_atom_site_type_symbol
_atom_site_fract_x
_atom_site_fract_y
_atom_site_fract_z
O1	O	-1.576529	0.243866	0.554318
O2	O	-1.224977	0.229418	0.492878
O3	O	-1.415704	0.193051	0.338276
O4	O	-1.385802	0.280233	0.708920
O5	O	-1.452140	-0.040889	0.308728
O6	O	-1.261413	-0.004522	0.463330
O7	O	-1.612965	0.009927	0.524769
Zn8	Zn	-1.442974	-0.034440	0.489358
Zn9	Zn	-1.394968	0.273785	0.528289
O10	O	-1.422238	0.046294	0.679372
C11	C	-1.198308	0.109782	0.466770
C12	C	-1.064559	0.101836	0.432982
C13	C	-0.988089	0.123781	0.526274
C14	C	-0.849852	0.115569	0.491355
N15	N	-1.475745	-0.244796	0.462790
C16	C	-1.434499	0.064749	0.275314
C17	C	-1.436204	0.030983	0.131727
C18	C	-0.639634	0.129564	0.550876
C19	C	-0.773383	0.137517	0.584661
N20	N	-1.362207	0.484138	0.554850
C21	C	-1.431582	0.538688	0.498609
C22	C	-1.406359	0.700660	0.519039
C23	C	-1.418090	0.137119	0.083024
C24	C	-1.419852	0.102223	-0.065380
C25	C	-1.403443	0.174598	0.742334
C26	C	-1.401736	0.208373	0.885922
H27	H	-1.027681	0.077004	0.327264
C28	C	-0.823171	0.171122	0.727493
H29	H	-0.909548	0.172246	0.732231
H30	H	-0.808052	0.099355	0.758886
H31	H	-0.782639	0.262521	0.779479
H32	H	-1.024962	0.148641	0.631995
C33	C	-1.442566	-0.055440	-0.157460
H34	H	-1.440778	-0.058211	-0.245124
H35	H	-1.379938	-0.104233	-0.148614
H36	H	-1.521013	-0.101135	-0.135459
C37	C	-0.800065	0.081971	0.348522
H38	H	-0.865969	0.069259	0.294518
H39	H	-0.739054	0.159536	0.341764
H40	H	-0.764474	-0.003633	0.321159
C41	C	-1.379029	0.366037	-0.022000
H42	H	-1.380835	0.368812	0.065667
H43	H	-1.300596	0.411745	-0.043999
H44	H	-1.441674	0.414816	-0.030849
H45	H	-1.453010	-0.085717	0.063554
H46	H	-1.553823	0.682000	0.399517
C47	C	-1.300892	0.799547	0.604526
H48	H	-1.297771	0.895437	0.607038
H49	H	-1.315272	0.796449	0.690563
H50	H	-1.224559	0.767771	0.568698
C51	C	-1.537046	0.439798	0.413128
H52	H	-1.540158	0.343905	0.410604
H53	H	-1.613374	0.471575	0.448944
H54	H	-1.522656	0.442890	0.327083
H55	H	-1.284142	0.557350	0.618130
H56	H	-1.401271	0.253819	0.151196
