data_functionalizedCrystal
_audit_creation_method	'MofGen! by Chris Wilmer'
_symmetry_space_group_name_H-M	'P1'
_symmetry_Int_Tables_number	1
_symmetry_cell_setting	triclinic
loop_
_symmetry_equiv_pos_as_xyz
  x,y,z
_cell_length_a	10.654562
_cell_length_b	15.625429
_cell_length_c	9.130313
_cell_angle_alpha	71.921598
_cell_angle_beta	89.996930
_cell_angle_gamma	84.353932
loop_
_atom_site_label
_atom_site_type_symbol
_atom_site_fract_x
_atom_site_fract_y
_atom_site_fract_z
O1	O	1.666503	0.126673	-0.189164
O2	O	1.300901	0.138725	-0.195545
O3	O	1.493474	0.001525	-0.122687
O4	O	1.473930	0.263872	-0.262021
O5	O	1.493471	0.001529	0.120909
O6	O	1.300899	0.138728	0.048052
O7	O	1.666501	0.126676	0.054433
Cu8	Cu	1.483699	0.132703	0.073485
Cu9	Cu	1.483702	0.132698	-0.214597
O10	O	1.473928	0.263876	-0.018425
C11	C	1.254111	0.137839	-0.073273
C12	C	1.114697	0.135184	-0.071856
C13	C	1.049177	0.133948	0.061574
C14	C	0.918181	0.131461	0.062871
C15	C	0.918234	0.131450	-0.202708
C16	C	1.049229	0.133931	-0.204000
C17	C	1.114645	0.135202	0.193718
C18	C	1.049126	0.133967	0.327159
C19	C	0.918129	0.131479	0.328455
C20	C	0.852652	0.130227	0.196311
C21	C	1.492589	-0.032065	0.016949
C22	C	1.489941	-0.132160	0.070102
C23	C	1.481205	-0.461372	-0.418956
C24	C	1.478711	-0.555426	-0.368966
C25	C	1.478709	-0.555408	-0.103414
C26	C	1.481209	-0.461353	-0.153382
C27	C	1.482455	-0.414342	-0.311154
C28	C	1.482459	-0.414323	-0.045580
C29	C	1.484952	-0.320275	-0.095544
C30	C	1.486194	-0.273257	-0.253310
C31	C	1.484948	-0.320294	-0.361119
C32	C	1.481204	-0.461335	0.112192
C33	C	1.482454	-0.414305	0.219994
C34	C	1.484956	-0.320256	0.170031
C35	C	1.486198	-0.273238	0.012264
C36	C	1.486202	-0.273219	0.277839
C37	C	1.488695	-0.179171	0.227874
C38	C	1.488691	-0.179190	-0.037700
C39	C	1.713290	0.127562	-0.067842
C40	C	1.852705	0.130217	-0.069268
C41	C	1.474813	0.297466	-0.158065
C42	C	1.477460	0.397561	-0.211227
N43	N	1.483707	0.132705	0.276106
N44	N	1.483705	0.132689	-0.417214
C45	C	1.568999	0.071974	0.385008
C46	C	1.568996	0.071963	0.538351
C47	C	1.398403	0.193423	0.473871
C48	C	1.398401	0.193428	0.320534
C49	C	1.654305	0.011251	0.340580
C50	C	1.739606	-0.049484	0.449485
C51	C	1.739602	-0.049495	0.602828
C52	C	1.654298	0.011230	0.647266
H53	H	1.489717	-0.140912	-0.166174
C54	C	1.477339	-0.607165	-0.487553
C55	C	1.586642	-0.603803	-0.598905
C56	C	1.585264	-0.655543	-0.717485
C57	C	1.474583	-0.710646	-0.724713
C58	C	1.365272	-0.714011	-0.613357
C59	C	1.366650	-0.662270	-0.494778
H60	H	1.668582	-0.563010	-0.593558
H61	H	1.666184	-0.653053	-0.799918
H62	H	1.473563	-0.748948	-0.812493
H63	H	1.283332	-0.754803	-0.618705
H64	H	1.285730	-0.664761	-0.412345
H65	H	0.864912	0.130433	-0.310295
H66	H	1.328947	0.242880	0.231863
H67	H	1.102447	0.134979	0.434749
H68	H	1.809049	-0.098954	0.691501
H69	H	1.221308	0.137230	0.192675
H70	H	1.489686	-0.140876	0.315657
H71	H	0.864788	0.130467	0.437113
H72	H	0.745987	0.128200	0.197378
H73	H	1.809051	-0.098929	0.413298
C74	C	1.121313	0.135300	-0.350775
C75	C	1.225491	0.058861	-0.346675
C76	C	1.297578	0.060229	-0.493451
C77	C	1.265488	0.138034	-0.644325
C78	C	1.161305	0.214478	-0.648430
C79	C	1.089217	0.213111	-0.501655
H80	H	1.249251	0.001260	-0.234984
H81	H	1.374702	0.003639	-0.490411
H82	H	1.318851	0.139046	-0.752977
H83	H	1.137545	0.272080	-0.760121
H84	H	1.012094	0.269701	-0.504694
H85	H	1.488210	-0.196676	-0.293990
H86	H	1.485974	-0.282016	-0.489593
H87	H	1.482231	-0.423094	-0.547430
C88	C	1.477320	-0.607131	0.070127
C89	C	1.368689	-0.584637	0.167722
C90	C	1.367293	-0.636361	0.341264
C91	C	1.474528	-0.710579	0.417210
C92	C	1.583167	-0.733077	0.319613
C93	C	1.584562	-0.681353	0.146072
H94	H	1.289300	-0.529693	0.111503
H95	H	1.286871	-0.619706	0.413510
H96	H	1.473494	-0.748868	0.545675
H97	H	1.662555	-0.788021	0.375832
H98	H	1.664985	-0.698008	0.073825
H99	H	1.479160	-0.537913	0.152867
H100	H	1.654294	0.011210	0.772133
C101	C	1.304582	0.260222	0.522746
C102	C	1.304748	0.260339	0.691345
C103	C	1.210929	0.327143	0.740214
C104	C	1.116944	0.393830	0.620485
C105	C	1.116775	0.393716	0.451875
C106	C	1.210594	0.326912	0.403005
H107	H	1.374325	0.210971	0.779985
H108	H	1.211056	0.327228	0.865031
H109	H	1.047494	0.443283	0.656661
H110	H	1.047198	0.443084	0.363234
H111	H	1.210468	0.326828	0.278188
H112	H	1.481434	-0.452593	0.348453
H113	H	1.485175	-0.311508	0.406297
H114	H	1.654318	0.011256	0.215723
