data_functionalizedCrystal
_audit_creation_method	'MofGen! by Chris Wilmer'
_symmetry_space_group_name_H-M	'P1'
_symmetry_Int_Tables_number	1
_symmetry_cell_setting	triclinic
loop_
_symmetry_equiv_pos_as_xyz
  x,y,z
_cell_length_a	23.532407
_cell_length_b	23.532407
_cell_length_c	14.421503
_cell_angle_alpha	90.006857
_cell_angle_beta	89.987551
_cell_angle_gamma	82.848713
loop_
_atom_site_label
_atom_site_type_symbol
_atom_site_fract_x
_atom_site_fract_y
_atom_site_fract_z
O1	O	0.755250	0.069131	0.077013
O2	O	0.589387	0.079134	0.077042
O3	O	0.677320	-0.008799	0.077001
O4	O	0.667317	0.157064	0.077055
O5	O	0.677331	-0.008794	-0.077223
O6	O	0.589398	0.079139	-0.077181
O7	O	0.755261	0.069136	-0.077211
Cu8	Cu	0.672330	0.074138	-0.091278
Cu9	Cu	0.672318	0.074132	0.091109
O10	O	0.667328	0.157070	-0.077169
C11	C	0.568176	0.078882	-0.000066
C12	C	0.504959	0.078116	-0.000056
C13	C	0.677071	-0.030013	-0.000116
C14	C	0.676305	-0.093230	-0.000130
C15	C	0.621110	-0.359397	-0.000062
C16	C	0.621821	-0.299997	-0.000069
O17	O	0.578035	-0.263252	-0.000032
N18	N	0.674097	-0.277371	-0.000089
C19	C	0.725666	-0.314148	-0.000092
O20	O	0.770196	-0.289449	-0.000109
C21	C	0.724954	-0.373547	-0.000079
C22	C	0.672674	-0.396170	-0.000068
C23	C	0.568834	-0.382020	-0.000050
C24	C	0.568123	-0.441417	-0.000045
C25	C	0.619687	-0.478189	-0.000051
C26	C	0.671963	-0.455566	-0.000062
C27	C	0.776521	-0.410324	-0.000075
C28	C	0.775805	-0.469726	-0.000061
C29	C	0.723525	-0.492349	-0.000050
C30	C	0.722816	-0.551735	-0.000063
N31	N	0.670539	-0.574361	-0.000043
C32	C	0.618975	-0.537589	-0.000037
C33	C	0.727157	-0.189406	-0.000120
C34	C	0.727870	-0.130008	-0.000141
C35	C	0.624025	-0.115860	-0.000115
C36	C	0.623313	-0.175260	-0.000102
C37	C	0.674881	-0.212032	-0.000100
C38	C	0.617486	-0.662325	-0.000026
C39	C	0.616779	-0.721727	-0.000024
C40	C	0.720623	-0.735869	-0.000045
C41	C	0.721330	-0.676473	-0.000051
C42	C	0.669757	-0.639701	-0.000039
O43	O	0.766579	-0.588514	-0.000096
O44	O	0.574452	-0.562296	-0.000008
C45	C	0.105856	0.125350	-0.000082
C46	C	0.046456	0.124638	-0.000088
O47	O	0.009712	0.168424	-0.000108
N48	N	0.023830	0.072362	-0.000104
C49	C	0.060607	0.020794	-0.000123
O50	O	0.035908	-0.023737	-0.000137
C51	C	0.120007	0.021506	-0.000123
C52	C	0.142629	0.073785	-0.000099
C53	C	0.128480	0.177625	-0.000059
C54	C	0.187876	0.178336	-0.000051
C55	C	0.224649	0.126772	-0.000067
C56	C	0.202025	0.074496	-0.000091
C57	C	0.156783	-0.030062	-0.000149
C58	C	0.216185	-0.029345	-0.000150
C59	C	0.238808	0.022934	-0.000126
C60	C	0.298194	0.023643	-0.000100
N61	N	0.320821	0.075920	-0.000084
C62	C	0.284048	0.127484	-0.000068
C63	C	-0.064135	0.019302	-0.000123
C64	C	-0.123533	0.018589	-0.000115
C65	C	-0.137680	0.122434	-0.000083
C66	C	-0.078281	0.123146	-0.000084
C67	C	-0.041509	0.071578	-0.000107
C68	C	0.408784	0.128974	-0.000051
C69	C	0.468186	0.129680	-0.000040
C70	C	0.482329	0.025836	-0.000077
C71	C	0.422932	0.025129	-0.000084
C72	C	0.386161	0.076702	-0.000074
O73	O	0.334974	-0.020119	-0.000084
O74	O	0.308756	0.172007	-0.000066
C75	C	0.776472	0.069388	-0.000100
C76	C	0.839689	0.070154	-0.000104
C77	C	0.667577	0.178283	-0.000050
C78	C	0.668343	0.241500	-0.000031
N79	N	0.672343	0.074143	-0.219559
C80	C	0.713012	0.033473	-0.469207
C81	C	0.661614	0.022704	-0.530999
C82	C	0.672331	0.074136	-0.408720
C83	C	0.723718	0.084872	-0.531022
C84	C	0.672323	0.074128	-0.591442
C85	C	0.620906	0.063341	-0.469152
C86	C	0.683044	0.125531	-0.469169
C87	C	0.631608	0.114784	-0.530933
C88	C	0.672336	0.074139	-0.303459
C89	C	0.672312	0.074125	-0.696701
N90	N	0.672309	0.074123	0.219391
H91	H	0.574205	-0.740143	-0.000020
H92	H	0.098544	0.219617	-0.000049
Cl93	Cl	0.840637	-0.515951	-0.000056
Cl94	Cl	0.578432	0.167874	-0.572519
Cl95	Cl	0.502396	-0.469847	-0.000020
Cl96	Cl	0.790815	0.098897	-0.572987
H97	H	0.770441	-0.111594	-0.000164
H98	H	0.652545	-0.020763	-0.558158
H99	H	0.246123	-0.071339	-0.000171
H100	H	0.575489	-0.632392	-0.000016
H101	H	0.580742	-0.193674	-0.000097
H102	H	-0.059866	0.165717	-0.000069
Cl103	Cl	0.528568	-0.038984	-0.000102
H104	H	0.692129	0.168985	-0.441990
H105	H	-0.141947	-0.023982	-0.000121
H106	H	0.577436	0.054207	-0.442089
H107	H	0.763901	-0.658053	-0.000073
Cl108	Cl	-0.183920	0.187258	-0.000068
H109	H	-0.034198	-0.022693	-0.000134
Cl110	Cl	0.766073	-0.019644	-0.427356
H111	H	0.526842	-0.352085	-0.000042
H112	H	0.486602	0.172255	-0.000019
Cl113	Cl	0.791992	-0.235629	-0.000130
Cl114	Cl	0.394491	-0.040595	-0.000119
H115	H	0.762606	-0.765820	-0.000054
H116	H	0.819093	-0.391915	-0.000083
Cl117	Cl	0.362567	0.193810	-0.000038
Cl118	Cl	0.216306	0.244063	-0.000027
H119	H	0.582038	-0.085909	-0.000111
H120	H	0.138374	-0.072634	-0.000170
