data_functionalizedCrystal
_audit_creation_method	'MofGen! by Chris Wilmer'
_symmetry_space_group_name_H-M	'P1'
_symmetry_Int_Tables_number	1
_symmetry_cell_setting	triclinic
loop_
_symmetry_equiv_pos_as_xyz
  x,y,z
_cell_length_a	12.759401
_cell_length_b	19.805405
_cell_length_c	12.759393
_cell_angle_alpha	89.963446
_cell_angle_beta	89.979062
_cell_angle_gamma	90.027935
loop_
_atom_site_label
_atom_site_type_symbol
_atom_site_fract_x
_atom_site_fract_y
_atom_site_fract_z
Zn1	Zn	1.606181	-0.269403	-0.593976
Zn2	Zn	1.606036	-0.382606	-0.418277
Zn3	Zn	1.430480	-0.269439	-0.418311
Zn4	Zn	1.430436	-0.382558	-0.593915
O5	O	1.518283	-0.326001	-0.506120
O6	O	1.753183	-0.284424	-0.570681
O7	O	1.582706	-0.367629	-0.271261
O8	O	1.453866	-0.174718	-0.441653
O9	O	1.753076	-0.367594	-0.441596
O10	O	1.582953	-0.174691	-0.570713
O11	O	1.453725	-0.284486	-0.271285
O12	O	1.283453	-0.284440	-0.441594
O13	O	1.453791	-0.367513	-0.740944
O14	O	1.283420	-0.367548	-0.570609
O15	O	1.582910	-0.284378	-0.740989
O16	O	1.582663	-0.477316	-0.441536
O17	O	1.453650	-0.477281	-0.570576
C18	C	1.245316	-0.325993	-0.506099
C19	C	1.128539	-0.326006	-0.506115
C20	C	1.073688	-0.369346	-0.573187
C21	C	0.963964	-0.369349	-0.573208
C22	C	0.963952	-0.282669	-0.439075
C23	C	1.073674	-0.282663	-0.439060
C24	C	1.518165	-0.501858	-0.506069
C25	C	1.518210	-0.577089	-0.506082
C26	C	1.585453	-0.612429	-0.438962
C27	C	1.585497	-0.683118	-0.438985
C28	C	1.518294	-0.718465	-0.506124
C29	C	1.451048	-0.683120	-0.573252
C30	C	1.451010	-0.612433	-0.573234
C31	C	1.451203	-0.968194	-0.573330
C32	C	1.451245	-1.038886	-0.573342
C33	C	1.585691	-1.038878	-0.439081
C34	C	1.585652	-0.968191	-0.439063
C35	C	1.518411	-0.932852	-0.506194
C36	C	1.518365	-0.856204	-0.506170
C37	C	1.518334	-0.795112	-0.506144
C38	C	1.792316	-0.326010	-0.506141
C39	C	1.909093	-0.326014	-0.506150
C40	C	1.518362	-0.325936	-0.780153
C41	C	1.518395	-0.325909	-0.896930
C42	C	1.518430	-0.149459	-0.506194
C43	C	1.518493	-0.074227	-0.506225
C44	C	1.585633	-0.282614	-0.951817
C45	C	1.585650	-0.282584	-1.061541
C46	C	1.451190	-0.369151	-1.061481
C47	C	1.451168	-0.369177	-0.951759
C48	C	1.518265	-0.326017	-0.233152
C49	C	1.518435	-0.325854	-0.116376
H50	H	1.640173	-0.583654	-0.384284
H51	H	1.640446	-1.067659	-0.384424
H52	H	1.396334	-0.711906	-0.627923
O53	O	1.650815	-0.240482	-0.898604
C54	C	1.701941	-0.125358	-0.865149
C55	C	1.628042	-0.172998	-0.925454
H56	H	1.683570	-0.070788	-0.886852
H57	H	1.690377	-0.132751	-0.777286
H58	H	1.786644	-0.137276	-0.886721
H59	H	1.543310	-0.161110	-0.903969
H60	H	1.639696	-0.165596	-1.013303
H61	H	1.396459	-0.404380	-1.106137
H62	H	1.118356	-0.404637	-0.627790
H63	H	0.919267	-0.247382	-0.384480
H64	H	1.396256	-0.583660	-0.627892
H65	H	1.640400	-0.247328	-1.106225
O66	O	1.385932	-1.073119	-0.638670
C67	C	1.252539	-1.065671	-0.771811
C68	C	1.326464	-1.026818	-0.697904
H69	H	1.204425	-1.028254	-0.819705
H70	H	1.300722	-1.098693	-0.826858
H71	H	1.197689	-1.098837	-0.723520
H72	H	1.381329	-0.993615	-0.746110
H73	H	1.278216	-0.993838	-0.642854
O74	O	1.386028	-0.933845	-0.638645
C75	C	1.371750	-0.853953	-0.780430
C76	C	1.445688	-0.892823	-0.706541
H77	H	1.419955	-0.820767	-0.835328
H78	H	1.323745	-0.891334	-0.828486
H79	H	1.316798	-0.820944	-0.732118
H80	H	1.500704	-0.925833	-0.754772
H81	H	1.493620	-0.855405	-0.658482
O82	O	1.126801	-0.240539	-0.373802
C83	C	1.115220	-0.154536	-0.240806
C84	C	1.054923	-0.202217	-0.314631
H85	H	1.057133	-0.123530	-0.192964
H86	H	1.166515	-0.185533	-0.185707
H87	H	1.166663	-0.119210	-0.289157
H88	H	1.003423	-0.237552	-0.266365
H89	H	1.003695	-0.171177	-0.369734
O90	O	1.385818	-0.411302	-0.898597
C91	C	1.252411	-0.497134	-0.910108
C92	C	1.326381	-0.449479	-0.970444
H93	H	1.204321	-0.528003	-0.968169
H94	H	1.300556	-0.532583	-0.858759
H95	H	1.197539	-0.466055	-0.858715
H96	H	1.381268	-0.480503	-1.021893
H97	H	1.278171	-0.414028	-1.021727
H98	H	0.919309	-0.404640	-0.627827
O99	O	1.650847	-0.717342	-0.373681
C100	C	1.784236	-0.709875	-0.240543
C101	C	1.710260	-0.671033	-0.314431
H102	H	1.832306	-0.672451	-0.192635
H103	H	1.736096	-0.743006	-0.185507
H104	H	1.839124	-0.742930	-0.288850
H105	H	1.655356	-0.637940	-0.266209
H106	H	1.758465	-0.637943	-0.369470
H107	H	1.640372	-0.939413	-0.384388
