data_functionalizedCrystal
_audit_creation_method	'MofGen! by Chris Wilmer'
_symmetry_space_group_name_H-M	'P1'
_symmetry_Int_Tables_number	1
_symmetry_cell_setting	triclinic
loop_
_symmetry_equiv_pos_as_xyz
  x,y,z
_cell_length_a	19.805407
_cell_length_b	25.639240
_cell_length_c	19.805399
_cell_angle_alpha	89.969206
_cell_angle_beta	90.019573
_cell_angle_gamma	89.956837
loop_
_atom_site_label
_atom_site_type_symbol
_atom_site_fract_x
_atom_site_fract_y
_atom_site_fract_z
Zn1	Zn	1.034657	0.208163	0.382705
Zn2	Zn	1.534657	0.708163	0.882705
Zn3	Zn	1.034539	0.295597	0.269510
Zn4	Zn	1.534539	0.795597	0.769510
Zn5	Zn	0.921472	0.208177	0.269529
Zn6	Zn	1.421472	0.708177	0.769529
Zn7	Zn	0.921402	0.295569	0.382657
Zn8	Zn	1.421402	0.795569	0.882657
O9	O	0.978017	0.251877	0.326100
O10	O	1.478017	0.751877	0.826100
O11	O	1.129358	0.219767	0.367701
O12	O	1.629358	0.719767	0.867701
O13	O	1.019520	0.284018	0.174796
O14	O	1.519520	0.784018	0.674796
O15	O	0.936564	0.135010	0.284570
O16	O	1.436564	0.635010	0.784570
O17	O	1.129271	0.284004	0.284537
O18	O	1.629271	0.784004	0.784537
O19	O	1.019721	0.135000	0.367720
O20	O	1.519721	0.635000	0.867720
O21	O	0.936450	0.219791	0.174810
O22	O	1.436450	0.719791	0.674810
O23	O	0.826746	0.219764	0.284524
O24	O	1.326746	0.719764	0.784524
O25	O	0.936446	0.283957	0.477380
O26	O	1.436446	0.783957	0.977380
O27	O	0.826695	0.283971	0.367638
O28	O	1.326695	0.783971	0.867638
O29	O	1.019654	0.219740	0.477415
O30	O	1.519654	0.719740	0.977415
O31	O	1.019452	0.368758	0.284491
O32	O	1.519452	0.868758	0.784491
O33	O	0.936331	0.368738	0.367619
O34	O	1.436331	0.868738	0.867619
C35	C	0.802161	0.251867	0.326078
C36	C	1.302161	0.751867	0.826078
C37	C	0.726929	0.251875	0.326085
C38	C	1.226929	0.751875	0.826085
C39	C	0.691576	0.285357	0.369292
C40	C	1.191576	0.785357	0.869292
C41	C	0.620888	0.285358	0.369302
C42	C	1.120888	0.785358	0.869302
C43	C	0.585554	0.251879	0.326100
C44	C	1.085554	0.751879	0.826100
C45	C	0.620912	0.218393	0.282891
C46	C	1.120912	0.718393	0.782891
C47	C	0.691599	0.218390	0.282885
C48	C	1.191599	0.718390	0.782885
C49	C	0.335838	0.218404	0.282913
C50	C	0.835838	0.718404	0.782913
C51	C	0.265146	0.218411	0.282920
C52	C	0.765146	0.718411	0.782920
C53	C	0.265127	0.285373	0.369330
C54	C	0.765127	0.785373	0.869330
C55	C	0.335814	0.285370	0.369324
C56	C	0.835814	0.785370	0.869324
C57	C	0.371166	0.251882	0.326118
C58	C	0.871166	0.751882	0.826118
C59	C	0.447815	0.251881	0.326109
C60	C	0.947815	0.751881	0.826109
C61	C	0.508907	0.251883	0.326105
C62	C	1.008907	0.751883	0.826105
C63	C	0.977890	0.387719	0.326063
C64	C	1.477890	0.887719	0.826063
C65	C	0.977897	0.445833	0.326069
C66	C	1.477897	0.945833	0.826069
C67	C	1.021355	0.806194	0.282863
C68	C	1.521355	1.306194	0.782863
C69	C	1.021376	0.860799	0.282869
C70	C	1.521376	1.360799	0.782869
O71	O	1.058236	0.889034	0.246113
O72	O	1.558236	1.389034	0.746113
N73	N	0.978072	0.888116	0.326115
N74	N	1.478072	1.388116	0.826115
C75	C	0.934749	0.860826	0.369362
C76	C	1.434749	1.360826	0.869362
O77	O	0.897918	0.889075	0.406147
O78	O	1.397918	1.389075	0.906147
C79	C	0.934732	0.806222	0.369358
C80	C	1.434732	1.306222	0.869358
C81	C	0.978034	0.778908	0.326105
C82	C	1.478034	1.278908	0.826105
C83	C	1.064654	0.778880	0.239614
C84	C	1.564654	1.278880	0.739614
C85	C	1.064633	0.724280	0.239606
C86	C	1.564633	1.224280	0.739606
C87	C	1.021312	0.696993	0.282848
C88	C	1.521312	1.196993	0.782848
C89	C	0.978013	0.724307	0.326098
C90	C	1.478013	1.224307	0.826098
C91	C	0.891413	0.778933	0.412608
C92	C	1.391413	1.278933	0.912608
C93	C	0.891401	0.724326	0.412601
C94	C	1.391401	1.224326	0.912601
C95	C	0.934703	0.697012	0.369348
C96	C	1.434703	1.197012	0.869348
C97	C	0.934670	0.642421	0.369333
C98	C	1.434670	1.142421	0.869333
N99	N	0.977974	0.615104	0.326087
N100	N	1.477974	1.115104	0.826087
C101	C	1.021295	0.642390	0.282845
C102	C	1.521295	1.142390	0.782845
C103	C	0.934788	0.975496	0.369367
C104	C	1.434788	1.475496	0.869367
C105	C	0.934801	1.030098	0.369368
C106	C	1.434801	1.530098	0.869368
C107	C	1.021429	1.030068	0.282876
C108	C	1.521429	1.530068	0.782876
C109	C	1.021412	0.975464	0.282872
C110	C	1.521412	1.475464	0.782872
C111	C	0.978093	0.948179	0.326121
C112	C	1.478093	1.448179	0.826121
C113	C	1.021245	0.527725	0.282833
C114	C	1.521245	1.027725	0.782833
C115	C	1.021218	0.473120	0.282827
C116	C	1.521218	0.973120	0.782827
C117	C	0.934593	0.473155	0.369321
C118	C	1.434593	0.973155	0.869321
C119	C	0.934618	0.527756	0.369324
C120	C	1.434618	1.027756	0.869324
C121	C	0.977949	0.555039	0.326078
C122	C	1.477949	1.055039	0.826078
O123	O	0.897831	0.614151	0.406073
O124	O	1.397831	1.114151	0.906073
O125	O	1.058126	0.614134	0.246072
O126	O	1.558126	1.114134	0.746072
C127	C	1.154560	0.251887	0.326122
C128	C	1.654560	0.751887	0.826122
C129	C	1.229792	0.251891	0.326132
C130	C	1.729792	0.751891	0.826132
C131	C	0.978055	0.251844	0.502643
C132	C	1.478055	0.751844	1.002643
C133	C	0.978071	0.251830	0.577875
C134	C	1.478071	0.751830	1.077875
C135	C	0.978138	1.115504	0.326141
C136	C	1.478138	1.615504	0.826141
C137	C	0.978125	1.057390	0.326128
C138	C	1.478125	1.557390	0.826128
C139	C	0.978018	0.251872	0.150244
C140	C	1.478018	0.751872	0.650244
C141	C	0.978133	0.251738	0.075012
C142	C	1.478133	0.751738	0.575012
C143	C	1.021399	0.218390	0.613238
C144	C	1.521399	0.718390	1.113238
C145	C	1.021406	0.218375	0.683927
C146	C	1.521406	0.718375	1.183927
C147	C	0.978088	0.251802	0.719251
C148	C	1.478088	0.751802	1.219251
C149	C	0.934756	0.285243	0.683882
C150	C	1.434756	0.785243	1.183882
C151	C	0.934746	0.285255	0.613195
C152	C	1.434746	0.785255	1.113195
C153	C	0.934794	0.285195	0.968955
C154	C	1.434794	0.785195	1.468955
C155	C	0.934809	0.285181	1.039648
C156	C	1.434809	0.785181	1.539648
C157	C	1.021454	0.218314	1.039688
C158	C	1.521454	0.718314	1.539688
C159	C	1.021444	0.218326	0.969000
C160	C	1.521444	0.718326	1.469000
C161	C	0.978110	0.251765	0.933638
C162	C	1.478110	0.751765	1.433638
C163	C	0.978102	0.251780	0.856990
C164	C	1.478102	0.751780	1.356990
C165	C	0.978099	0.251790	0.795898
C166	C	1.478099	0.751790	1.295898
H167	H	0.720382	0.191122	0.247704
H168	H	1.220382	0.691122	0.747704
Br169	Br	0.875806	0.436113	0.428007
Br170	Br	1.375806	0.936113	0.928007
Br171	Br	1.080238	0.172962	0.921065
Br172	Br	1.580238	0.672962	1.421065
Br173	Br	1.080265	0.172931	1.087683
Br174	Br	1.580265	0.672931	1.587683
Br175	Br	0.383807	0.172953	0.224279
Br176	Br	0.883807	0.672953	0.724279
Br177	Br	0.875982	0.330575	0.920972
Br178	Br	1.375982	0.830575	1.420972
H179	H	1.099935	0.801091	0.204400
H180	H	1.599935	1.301091	0.704400
H181	H	0.592137	0.191131	0.247718
H182	H	1.092137	0.691131	0.747718
H183	H	0.236379	0.191145	0.247740
H184	H	0.736379	0.691145	0.747740
H185	H	1.099895	0.702043	0.204388
H186	H	1.599895	1.202043	0.704388
H187	H	1.056689	0.191146	0.712717
H188	H	1.556689	0.691146	1.212717
H189	H	1.056480	0.450882	0.247603
H190	H	1.556480	0.950882	0.747603
H191	H	0.856125	0.702113	0.447822
H192	H	1.356125	1.202113	0.947822
H193	H	1.056673	0.953228	0.247652
H194	H	1.556673	1.453228	0.747652
H195	H	0.899360	0.549996	0.404547
H196	H	1.399360	1.049996	0.904547
Br197	Br	0.876018	0.330550	1.087587
Br198	Br	1.376018	0.830550	1.587587
H199	H	1.056675	0.191171	0.584483
H200	H	1.556675	0.691171	1.084483
Br201	Br	0.572911	0.330800	0.427945
Br202	Br	1.072911	0.830800	0.927945
Br203	Br	0.383764	0.330811	0.427953
Br204	Br	0.883764	0.830811	0.927953
H205	H	0.236335	0.312639	0.404513
H206	H	0.736335	0.812639	0.904513
H207	H	1.056532	0.549933	0.247619
H208	H	1.556532	1.049933	0.747619
H209	H	1.056706	1.052294	0.247668
H210	H	1.556706	1.552294	0.747668
Br211	Br	0.876022	1.067161	0.428061
Br212	Br	1.376022	1.567161	0.928061
Br213	Br	0.875963	0.330606	0.731820
Br214	Br	1.375963	0.830606	1.231820
Br215	Br	0.875987	0.938472	0.428064
Br216	Br	1.375987	1.438472	0.928064
Br217	Br	0.832650	0.815989	0.471320
Br218	Br	1.332650	1.315989	0.971320
H219	H	0.899458	0.312480	0.584403
H220	H	1.399458	0.812480	1.084403
H221	H	0.720340	0.312622	0.404470
H222	H	1.220340	0.812622	0.904470
