data_functionalizedCrystal
_audit_creation_method	'MofGen! by Chris Wilmer'
_symmetry_space_group_name_H-M	'P1'
_symmetry_Int_Tables_number	1
_symmetry_cell_setting	triclinic
loop_
_symmetry_equiv_pos_as_xyz
  x,y,z
_cell_length_a	16.992694
_cell_length_b	17.666332
_cell_length_c	16.992695
_cell_angle_alpha	89.993578
_cell_angle_beta	89.331777
_cell_angle_gamma	90.003580
loop_
_atom_site_label
_atom_site_type_symbol
_atom_site_fract_x
_atom_site_fract_y
_atom_site_fract_z
O1	O	1.050856	0.062854	-0.166918
O2	O	1.550856	0.562854	0.333082
O3	O	0.822456	0.062876	-0.165087
O4	O	1.322456	0.562876	0.334913
O5	O	0.935740	0.062859	-0.051803
O6	O	1.435740	0.562859	0.448197
O7	O	0.937572	0.062871	-0.280203
O8	O	1.437572	0.562871	0.219797
O9	O	0.935719	-0.063037	-0.051795
O10	O	1.435719	0.436963	0.448205
O11	O	0.822434	-0.063020	-0.165079
O12	O	1.322434	0.436980	0.334921
O13	O	1.050834	-0.063043	-0.166911
O14	O	1.550834	0.436957	0.333089
Cu15	Cu	0.936632	-0.074527	-0.165994
Cu16	Cu	1.436632	0.425473	0.334006
Cu17	Cu	0.936658	0.074361	-0.166003
Cu18	Cu	1.436658	0.574361	0.333997
O19	O	0.937550	-0.063026	-0.280195
O20	O	1.437550	0.436974	0.219805
C21	C	0.793085	-0.000069	-0.162727
C22	C	1.293085	0.499931	0.337273
C23	C	0.705600	-0.000061	-0.155699
C24	C	1.205600	0.499939	0.344301
N25	N	0.936620	-0.179246	-0.165988
N26	N	1.436620	0.320754	0.334012
C27	C	0.659610	-0.000058	-0.223517
C28	C	1.159610	0.499942	0.276483
C29	C	0.577409	-0.000069	-0.216908
C30	C	1.077409	0.499931	0.283092
C31	C	0.541201	-0.000077	-0.142480
C32	C	1.041201	0.499923	0.357520
C33	C	0.587198	-0.000082	-0.074657
C34	C	1.087198	0.499918	0.425343
C35	C	0.669397	-0.000077	-0.081267
C36	C	1.169397	0.499923	0.418733
C37	C	0.295886	-0.000099	-0.115086
C38	C	0.795886	0.499901	0.384914
C39	C	0.213681	-0.000102	-0.108481
C40	C	0.713681	0.499898	0.391519
C41	C	0.203898	-0.000090	-0.250732
C42	C	0.703898	0.499910	0.249268
C43	C	0.286099	-0.000080	-0.257335
C44	C	0.786099	0.499920	0.242665
C45	C	0.332089	-0.000089	-0.189512
C46	C	0.832089	0.499911	0.310488
N47	N	0.457178	-0.000086	-0.135723
N48	N	0.957178	0.499914	0.364277
N49	N	0.416110	-0.000086	-0.196270
N50	N	0.916110	0.499914	0.303730
C51	C	0.986802	-0.218864	-0.115853
C52	C	1.486802	0.281136	0.384147
C53	C	0.986806	-0.298111	-0.115849
C54	C	1.486806	0.201889	0.384151
C55	C	0.936637	-0.337738	-0.165995
C56	C	1.436637	0.162262	0.334005
C57	C	0.886446	-0.298112	-0.216133
C58	C	1.386446	0.201888	0.283867
C59	C	0.886438	-0.218865	-0.216130
C60	C	1.386438	0.281135	0.283870
N61	N	0.930982	-0.462153	-0.235021
N62	N	1.430982	0.037847	0.264979
N63	N	0.930994	-0.537433	-0.235022
N64	N	1.430994	-0.037433	0.264978
C65	C	0.936659	-0.576502	-0.166007
C66	C	1.436659	-0.076502	0.333993
N67	N	0.942325	-0.537447	-0.096989
N68	N	1.442325	-0.037447	0.403011
N69	N	0.942317	-0.462160	-0.096989
N70	N	1.442317	0.037840	0.403011
C71	C	0.936641	-0.423668	-0.166004
C72	C	1.436641	0.076332	0.333996
C73	C	0.986847	-0.702049	-0.115864
C74	C	1.486847	-0.202049	0.384136
C75	C	0.986846	-0.781298	-0.115859
C76	C	1.486846	-0.281298	0.384141
C77	C	0.886491	-0.781297	-0.216150
C78	C	1.386491	-0.281297	0.283850
C79	C	0.886488	-0.702049	-0.216148
C80	C	1.386488	-0.202049	0.283852
C81	C	0.936670	-0.662430	-0.166006
C82	C	1.436670	-0.162430	0.333994
C83	C	1.080205	-0.000095	-0.169270
C84	C	1.580205	0.499905	0.330730
C85	C	1.167690	-0.000099	-0.176299
C86	C	1.667690	0.499901	0.323701
C87	C	0.933374	-0.000089	-0.022439
C88	C	1.433374	0.499911	0.477561
C89	C	0.926345	-0.000088	0.065046
C90	C	1.426345	0.499912	0.565046
N91	N	0.936676	0.179080	-0.166004
N92	N	1.436676	0.679080	0.333996
C93	C	0.939917	-0.000076	-0.309559
C94	C	1.439917	0.499924	0.190441
C95	C	0.946945	-0.000072	-0.397044
C96	C	1.446945	0.499928	0.102956
C97	C	0.994163	-0.000095	0.111037
C98	C	1.494163	0.499905	0.611037
C99	C	0.987554	-0.000087	0.193238
C100	C	1.487554	0.499913	0.693238
C101	C	0.913127	-0.000078	0.229446
C102	C	1.413127	0.499922	0.729446
C103	C	0.845303	-0.000068	0.183449
C104	C	1.345303	0.499932	0.683449
C105	C	0.851913	-0.000070	0.101250
C106	C	1.351913	0.499930	0.601250
C107	C	0.885732	-0.000064	0.474760
C108	C	1.385732	0.499936	0.974760
C109	C	0.879127	-0.000064	0.556966
C110	C	1.379127	0.499936	1.056966
C111	C	1.021379	-0.000082	0.566749
C112	C	1.521379	0.499918	1.066749
C113	C	1.027982	-0.000089	0.484547
C114	C	1.527982	0.499911	0.984547
C115	C	0.960159	-0.000076	0.438558
C116	C	1.460159	0.499924	0.938558
N117	N	0.906369	-0.000072	0.313468
N118	N	1.406369	0.499928	0.813468
N119	N	0.966917	-0.000076	0.354537
N120	N	1.466917	0.499924	0.854537
H121	H	0.689084	-0.000051	-0.284124
H122	H	1.189084	0.499949	0.215876
H123	H	1.054770	-0.000108	0.081563
H124	H	1.554770	0.499892	0.581563
Cl125	Cl	0.541678	-0.000097	0.018910
Cl126	Cl	1.041678	0.499903	0.518910
H127	H	0.333322	-0.000107	-0.059859
H128	H	0.833322	0.499893	0.440141
H129	H	0.845629	-0.669791	-0.256976
H130	H	1.345629	-0.169791	0.243024
Cl131	Cl	0.785554	-0.000056	0.602483
Cl132	Cl	1.285554	0.499944	1.102483
H133	H	0.706842	-0.000079	-0.026042
H134	H	1.206842	0.499921	0.473958
H135	H	1.027661	-0.186608	-0.075022
H136	H	1.527661	0.313392	0.424978
H137	H	0.315574	-0.000064	-0.317942
H138	H	0.815574	0.499936	0.182058
H139	H	1.042779	-0.000095	0.230680
H140	H	1.542779	0.499905	0.730680
H141	H	0.845639	-0.813561	-0.256976
H142	H	1.345639	-0.313561	0.243024
Cl143	Cl	0.823348	-0.169057	-0.279163
Cl144	Cl	1.323348	0.330943	0.220837
Cl145	Cl	0.751737	-0.000046	0.228968
Cl146	Cl	1.251737	0.499954	0.728968
Cl147	Cl	0.519595	-0.000060	-0.302169
Cl148	Cl	1.019595	0.499940	0.197831
H149	H	0.796688	-0.000064	0.063804
H150	H	1.296688	0.499936	0.563804
H151	H	0.830505	-0.000054	0.437325
H152	H	1.330505	0.499946	0.937325
Cl153	Cl	0.146078	-0.000081	-0.335990
Cl154	Cl	0.646078	0.499919	0.164010
Cl155	Cl	1.049898	-0.347924	-0.052817
Cl156	Cl	1.549898	0.152076	0.447183
Cl157	Cl	0.823373	-0.347927	-0.279170
Cl158	Cl	1.323373	0.152073	0.220830
Cl159	Cl	1.049929	-0.652241	-0.052824
Cl160	Cl	1.549929	-0.152241	0.447176
H161	H	0.184203	-0.000108	-0.047870
H162	H	0.684203	0.499892	0.452130
Cl163	Cl	1.121552	-0.000077	0.439035
Cl164	Cl	1.621552	0.499923	0.939035
Cl165	Cl	1.049932	-0.831106	-0.052822
Cl166	Cl	1.549932	-0.331106	0.447178
H167	H	1.076596	-0.000092	0.604202
H168	H	1.576596	0.499908	1.104202
