data_functionalizedCrystal
_audit_creation_method	'MofGen! by Chris Wilmer'
_symmetry_space_group_name_H-M	'P1'
_symmetry_Int_Tables_number	1
_symmetry_cell_setting	triclinic
loop_
_symmetry_equiv_pos_as_xyz
  x,y,z
_cell_length_a	11.169417
_cell_length_b	19.077068
_cell_length_c	19.077271
_cell_angle_alpha	89.876138
_cell_angle_beta	92.285754
_cell_angle_gamma	92.327792
loop_
_atom_site_label
_atom_site_type_symbol
_atom_site_fract_x
_atom_site_fract_y
_atom_site_fract_z
Zn1	Zn	1.788696	-0.263783	-0.408478
Zn2	Zn	1.787898	-0.386016	-0.295684
Zn3	Zn	1.595726	-0.268526	-0.290991
Zn4	Zn	1.579561	-0.381258	-0.413158
O5	O	1.687970	-0.324896	-0.352078
O6	O	1.956539	-0.280003	-0.393521
O7	O	1.768838	-0.374407	-0.196730
O8	O	1.628423	-0.169563	-0.302653
O9	O	1.955953	-0.369807	-0.310652
O10	O	1.770197	-0.166078	-0.388970
O11	O	1.627649	-0.288088	-0.193282
O12	O	1.425633	-0.283475	-0.307192
O13	O	1.600872	-0.361698	-0.510869
O14	O	1.413756	-0.366298	-0.396947
O15	O	1.754523	-0.275390	-0.507431
O16	O	1.753163	-0.483718	-0.315190
O17	O	1.600098	-0.480223	-0.401498
C18	C	1.376147	-0.324885	-0.352069
C19	C	1.242745	-0.324897	-0.352082
C20	C	1.674821	-0.507467	-0.359377
C21	C	1.669304	-0.585570	-0.362523
C22	C	1.746462	-0.624059	-0.319102
C23	C	1.741280	-0.697445	-0.322065
C24	C	1.658933	-0.732342	-0.368445
C25	C	1.581772	-0.693848	-0.411871
C26	C	1.586961	-0.620463	-0.408911
C27	C	1.634868	-0.951627	-0.382116
C28	C	1.629683	-1.025018	-0.385071
C29	C	1.789193	-1.028610	-0.295266
C30	C	1.794370	-0.955223	-0.292307
C31	C	1.717213	-0.916736	-0.335735
N32	N	1.653632	-0.807355	-0.371474
N33	N	1.722521	-0.841724	-0.332710
C34	C	2.001011	-0.324906	-0.352088
C35	C	2.134411	-0.324911	-0.352092
C36	C	1.675983	-0.317484	-0.535359
C37	C	1.670875	-0.314326	-0.613463
C38	C	1.701202	-0.141611	-0.344766
C39	C	1.706841	-0.063506	-0.341651
C40	C	1.634233	-0.291729	-1.052911
C41	C	1.639039	-0.294694	-0.979524
C42	C	1.714944	-0.341122	-0.944625
C43	C	1.786057	-0.384582	-0.983117
C44	C	1.781257	-0.381613	-1.056502
C45	C	1.737188	-0.354817	-0.725339
C46	C	1.741980	-0.357785	-0.651949
C47	C	1.594963	-0.267895	-0.648361
C48	C	1.590164	-0.264933	-0.721748
C49	C	1.661282	-0.308391	-0.760233
N50	N	1.719855	-0.344155	-0.869612
N51	N	1.656376	-0.305354	-0.835244
C52	C	1.699984	-0.332228	-0.169508
C53	C	1.705338	-0.335188	-0.091397
H54	H	1.813513	-0.595651	-0.281331
O55	O	1.816278	-0.734726	-0.279813
C56	C	1.975078	-0.730543	-0.190452
C57	C	1.890189	-0.688238	-0.238252
H58	H	2.034874	-0.692975	-0.156848
H59	H	1.920060	-0.766414	-0.155024
H60	H	2.033204	-0.763567	-0.224138
H61	H	1.832045	-0.655174	-0.204621
H62	H	1.945279	-0.652411	-0.273684
O63	O	1.874203	-0.921301	-0.247177
C64	C	1.902545	-0.842289	-0.148997
C65	C	1.812007	-0.880674	-0.200054
H66	H	1.852296	-0.809421	-0.110895
H67	H	1.956785	-0.882378	-0.118421
H68	H	1.965599	-0.806611	-0.179917
H69	H	1.748876	-0.916350	-0.169189
H70	H	1.757854	-0.840546	-0.230631
H71	H	1.524132	-0.589126	-0.444269
H72	H	1.514729	-0.722267	-0.449638
O73	O	1.525770	-0.225653	-0.611084
C74	C	1.379500	-0.136150	-0.615270
C75	C	1.457776	-0.183965	-0.657572
H76	H	1.324526	-0.102423	-0.652837
H77	H	1.316578	-0.169762	-0.582217
H78	H	1.439522	-0.100831	-0.579430
H79	H	1.397848	-0.219292	-0.693451
H80	H	1.520707	-0.150311	-0.690579
O81	O	1.864103	-1.066102	-0.253162
C82	C	1.926782	-1.180748	-0.217902
C83	C	1.841884	-1.138375	-0.265631
H84	H	1.908831	-1.239189	-0.227956
H85	H	2.023771	-1.165813	-0.229718
H86	H	1.910538	-1.168606	-0.160654
H87	H	1.858020	-1.150494	-0.322895
H88	H	1.744924	-1.153316	-0.253755
H89	H	1.581136	-0.259306	-0.948191
O90	O	1.806417	-0.396927	-0.762737
C91	C	1.962353	-0.403025	-0.845974
C92	C	1.884032	-0.355255	-0.803651
H93	H	2.025106	-0.369353	-0.879075
H94	H	2.017508	-0.436696	-0.808445
H95	H	1.902356	-0.438399	-0.881774
H96	H	1.943939	-0.319839	-0.767849
H97	H	1.828867	-0.321632	-0.841220
O98	O	1.859715	-0.429779	-0.949297
C99	C	1.910736	-0.550228	-0.931584
C100	C	1.827259	-0.499115	-0.969942
H101	H	1.884510	-0.606298	-0.948249
H102	H	2.007478	-0.537372	-0.945534
H103	H	1.901968	-0.544850	-0.872525
H104	H	1.835922	-0.504465	-1.029009
H105	H	1.730552	-0.511985	-0.955933
O106	O	1.549723	-1.059029	-0.430067
C107	C	1.471087	-1.170493	-0.474445
C108	C	1.561676	-1.132065	-0.423450
H109	H	1.480738	-1.229548	-0.469123
H110	H	1.376125	-1.156669	-0.461481
H111	H	1.489394	-1.153702	-0.530525
H112	H	1.543481	-1.148834	-0.367353
H113	H	1.656610	-1.145890	-0.436475
O114	O	1.850501	-0.423799	-1.093811
C115	C	2.050724	-0.456981	-1.117662
C116	C	1.972438	-0.409178	-1.075354
H117	H	2.149327	-0.445167	-1.102767
H118	H	2.026597	-0.514238	-1.105483
H119	H	2.034196	-0.446896	-1.176104
H120	H	1.988924	-0.419201	-1.016901
H121	H	1.996581	-0.351937	-1.087593
O122	O	1.559782	-0.914355	-0.424316
C123	C	1.401042	-0.918544	-0.513714
C124	C	1.486000	-0.960844	-0.465953
H125	H	1.341385	-0.956111	-0.547400
H126	H	1.342790	-0.885559	-0.480066
H127	H	1.456126	-0.882636	-0.549072
H128	H	1.431012	-0.996790	-0.430586
H129	H	1.544257	-0.993783	-0.499643
H130	H	1.572420	-0.253924	-1.081320
H131	H	1.528348	-0.227130	-0.750158
H132	H	1.803820	-0.395579	-0.623536
