data_functionalizedCrystal
_audit_creation_method	'MofGen! by Chris Wilmer'
_symmetry_space_group_name_H-M	'P1'
_symmetry_Int_Tables_number	1
_symmetry_cell_setting	triclinic
loop_
_symmetry_equiv_pos_as_xyz
  x,y,z
_cell_length_a	30.700772
_cell_length_b	30.711245
_cell_length_c	30.700791
_cell_angle_alpha	59.997370
_cell_angle_beta	89.997626
_cell_angle_gamma	60.000410
loop_
_atom_site_label
_atom_site_type_symbol
_atom_site_fract_x
_atom_site_fract_y
_atom_site_fract_z
O1	O	-0.298810	0.311648	-0.683009
O2	O	-0.235468	0.222485	-0.530475
O3	O	-0.235469	0.311649	-0.619668
O4	O	-0.298809	0.222484	-0.593816
O5	O	-0.307914	0.384068	-0.619667
O6	O	-0.307913	0.294904	-0.530473
O7	O	-0.371255	0.384067	-0.683008
Zn8	Zn	-0.351086	0.350984	-0.606741
Zn9	Zn	-0.255637	0.255569	-0.606742
O10	O	-0.371254	0.294903	-0.593815
C11	C	-0.234799	0.390614	-0.625543
C12	C	-0.261679	0.360049	-0.621849
C13	C	-0.261134	0.443385	-0.625910
C14	C	-0.155921	0.390611	-0.625536
C15	C	-0.098464	0.360043	-0.621834
C16	C	-0.182376	0.443382	-0.625903
C17	C	-0.234798	0.469460	-0.625537
C18	C	-0.261677	0.523198	-0.621837
C19	C	-0.182377	0.364656	-0.625909
C20	C	-0.496424	0.535507	-1.110652
C21	C	-0.548845	0.588279	-1.136987
C22	C	-0.496426	0.535505	-1.031775
C23	C	-0.548846	0.588277	-1.058229
C24	C	-0.575300	0.614355	-1.110651
C25	C	-0.470090	0.509549	-1.058230
C26	C	-0.368659	0.393515	-1.158818
C27	C	-0.343658	0.364487	-1.183645
C28	C	-0.370609	0.389404	-1.235592
C29	C	-0.343507	0.357927	-1.262511
C30	C	-0.422562	0.443355	-1.262713
C31	C	-0.447557	0.472383	-1.237888
C32	C	-0.420603	0.447460	-1.185939
C33	C	-0.765507	0.790223	-1.238414
C34	C	-0.819372	0.840033	-1.263416
C35	C	-0.846396	0.865018	-1.236465
C36	C	-0.904800	0.919019	-1.263564
C37	C	-0.819548	0.840192	-1.184511
C38	C	-0.765683	0.790391	-1.159514
C39	C	-0.738666	0.765407	-1.186472
C40	C	-0.368664	0.393507	-0.841564
C41	C	-0.343666	0.364473	-0.787696
C42	C	-0.370618	0.389388	-0.760674
C43	C	-0.343517	0.357908	-0.702266
C44	C	-0.422569	0.443334	-0.787520
C45	C	-0.447565	0.472364	-0.841386
C46	C	-0.420606	0.447448	-0.868406
C47	C	-0.447713	0.478938	-1.159023
C48	C	-0.469320	0.504029	-1.137568
C49	C	-0.469322	0.504025	-0.973369
C50	C	-0.447716	0.478933	-0.926814
C51	C	-0.633705	0.668355	-1.137755
C52	C	-0.680259	0.711401	-1.159361
C53	C	-0.574965	0.071046	-0.567495
C54	C	-0.548511	0.018274	-0.567126
C55	C	-0.496089	0.071047	-0.567497
C56	C	-0.469755	0.018276	-0.567129
C57	C	-0.496090	-0.007802	-0.567496
C58	C	-0.548510	0.097004	-0.567128
C59	C	-0.765171	0.213040	-0.581771
C60	C	-0.819036	0.242069	-0.585807
C61	C	-0.846057	0.217151	-0.587832
C62	C	-0.904464	0.248630	-0.592219
C63	C	-0.819210	0.163201	-0.585817
C64	C	-0.765347	0.134172	-0.581774
C65	C	-0.738328	0.159094	-0.579751
C66	C	-0.447927	-0.183672	-0.581773
C67	C	-0.423101	-0.233482	-0.585811
C68	C	-0.371157	-0.258468	-0.587841
C69	C	-0.344238	-0.312469	-0.592226
C70	C	-0.344037	-0.233642	-0.585828
C71	C	-0.368858	-0.183841	-0.581781
C72	C	-0.420809	-0.158855	-0.579757
C73	C	-0.447924	0.213046	-0.581783
C74	C	-0.423100	0.242080	-0.585829
C75	C	-0.371153	0.217164	-0.587857
C76	C	-0.344236	0.248644	-0.592247
C77	C	-0.344036	0.163218	-0.585844
C78	C	-0.368862	0.134188	-0.581800
C79	C	-0.420806	0.159104	-0.579765
C80	C	-0.679924	0.127616	-0.575371
C81	C	-0.633369	0.102524	-0.571878
C82	C	-0.469174	0.102527	-0.571885
C83	C	-0.447719	0.127620	-0.575380
C84	C	-0.469175	-0.061803	-0.571881
C85	C	-0.447721	-0.104850	-0.575375
O86	O	0.076275	0.222476	-0.593796
O87	O	-0.076258	0.311642	-0.619652
O88	O	0.012926	0.222475	-0.530457
O89	O	-0.012908	0.311643	-0.682991
O90	O	0.012928	0.294892	-0.530451
O91	O	-0.076255	0.384059	-0.619646
O92	O	0.076278	0.294892	-0.593791
Zn93	Zn	0.000012	0.350973	-0.606718
Zn94	Zn	0.000008	0.255561	-0.606725
O95	O	-0.012906	0.384059	-0.682986
O96	O	-0.298814	0.669852	-0.593798
O97	O	-0.235466	0.543214	-0.619649
O98	O	-0.235474	0.543208	-0.530456
O99	O	-0.298805	0.669859	-0.682991
O100	O	-0.307920	0.543209	-0.530463
O101	O	-0.307912	0.543215	-0.619656
O102	O	-0.371260	0.669854	-0.593805
Zn103	Zn	-0.351088	0.606535	-0.606732
Zn104	Zn	-0.255637	0.606533	-0.606723
O105	O	-0.371252	0.669860	-0.682998
O106	O	-1.076594	1.063323	-1.299158
O107	O	-0.924060	0.936695	-1.235823
O108	O	-1.013242	0.936678	-1.235814
O109	O	-0.987413	1.063340	-1.299168
O110	O	-1.013240	0.936680	-1.308261
O111	O	-0.924059	0.936698	-1.308270
O112	O	-1.076593	1.063325	-1.371605
Zn113	Zn	-1.000326	1.000012	-1.351440
Zn114	Zn	-1.000328	1.000009	-1.255989
O115	O	-0.987412	1.063342	-1.371615
O116	O	-0.307909	0.294911	-1.371269
O117	O	-0.371248	0.384079	-1.307933
O118	O	-0.371244	0.294909	-1.307915
O119	O	-0.307913	0.384081	-1.371287
O120	O	-0.298795	0.222495	-1.235474
O121	O	-0.298799	0.311665	-1.235492
O122	O	-0.235460	0.222497	-1.298828
Zn123	Zn	-0.255627	0.255584	-1.255658
Zn124	Zn	-0.351081	0.350992	-1.351102
O125	O	-0.235464	0.311668	-1.298845
C126	C	-0.155920	0.137096	-0.371939
C127	C	-0.098463	0.083360	-0.345062
C128	C	-0.182373	0.163174	-0.345604
C129	C	-0.234798	0.215940	-0.450812
C130	C	-0.261678	0.246504	-0.508267
C131	C	-0.261132	0.241899	-0.424357
C132	C	-0.234795	0.215944	-0.371938
C133	C	-0.261673	0.246512	-0.345060
C134	C	-0.182376	0.163171	-0.424358
C135	C	0.018798	0.215914	-0.371911
C136	C	0.015098	0.246477	-0.345028
C137	C	0.019162	0.163143	-0.345579
C138	C	0.018803	0.215921	-0.450790
C139	C	0.015109	0.246491	-0.508246
C140	C	0.019168	0.163150	-0.424339
C141	C	0.018795	0.137070	-0.371918
C142	C	0.015092	0.083332	-0.345044
C143	C	0.019171	0.241874	-0.424332
C144	C	-0.234823	0.390597	-0.371923
C145	C	-0.261705	0.360030	-0.345050
C146	C	-0.182403	0.364636	-0.345583
C147	C	-0.234814	0.469448	-0.450795
C148	C	-0.261687	0.523190	-0.508252
C149	C	-0.182395	0.443368	-0.424335
C150	C	-0.155945	0.390593	-0.371914
C151	C	-0.098490	0.360023	-0.345030
C152	C	-0.261153	0.443371	-0.424345
C153	C	-0.039177	0.614011	-1.110626
C154	C	-0.039545	0.587936	-1.136963
C155	C	-0.039185	0.535162	-1.031752
C156	C	-0.039553	0.509206	-1.058209
C157	C	-0.039180	0.535165	-1.110630
C158	C	-0.039550	0.587932	-1.058205
C159	C	-0.024887	0.789874	-1.158782
C160	C	-0.020846	0.839684	-1.183606
C161	C	-0.018815	0.864671	-1.235553
C162	C	-0.014423	0.918671	-1.262468
C163	C	-0.020829	0.839848	-1.262675
C164	C	-0.024877	0.790048	-1.237854
C165	C	-0.026906	0.765061	-1.185905
C166	C	-0.024893	0.472749	-1.238399
C167	C	-0.020855	0.443897	-1.263402
C168	C	-0.018829	0.389943	-1.236454
C169	C	-0.014443	0.358650	-1.263556
C170	C	-0.020849	0.364845	-1.184501
C171	C	-0.024897	0.393702	-1.159502
C172	C	-0.026915	0.447656	-1.186457
C173	C	-0.024920	0.472731	-0.841541
C174	C	-0.020880	0.443871	-0.787673
C175	C	-0.018857	0.389916	-0.760653
C176	C	-0.014474	0.358620	-0.702246
C177	C	-0.020869	0.364822	-0.787502
C178	C	-0.024907	0.393682	-0.841367
C179	C	-0.026937	0.447641	-0.868384
C180	C	-0.031291	0.711056	-1.158992
C181	C	-0.034788	0.668011	-1.137539
C182	C	-0.034805	0.503870	-0.973347
C183	C	-0.031315	0.478929	-0.926792
C184	C	-0.034794	0.503877	-1.137736
C185	C	-0.031299	0.478939	-1.159344
O186	O	-0.012954	0.311615	-0.235449
O187	O	0.012911	0.222455	-0.298794
O188	O	-0.076286	0.311615	-0.298802
O189	O	0.076242	0.222455	-0.235442
O190	O	-0.076278	0.384038	-0.371244
O191	O	0.012918	0.294878	-0.371236
O192	O	-0.012946	0.384037	-0.307891
Zn193	Zn	-0.000013	0.350956	-0.351065
Zn194	Zn	-0.000023	0.255536	-0.255620
O195	O	0.076250	0.294877	-0.307883
C196	C	-0.574944	1.071090	-1.110635
C197	C	-0.548499	1.097071	-1.136959
C198	C	-0.496077	0.992251	-1.031751
C199	C	-0.469751	1.018350	-1.058195
C200	C	-0.496087	1.071129	-1.110614
C201	C	-0.548489	1.018312	-1.058215
C202	C	-0.765121	1.133441	-1.158837
C203	C	-0.818979	1.162279	-1.183672
C204	C	-0.846001	1.216240	-1.235617
C205	C	-0.904400	1.247517	-1.262545
C206	C	-0.819162	1.241359	-1.262727
C207	C	-0.765306	1.212517	-1.237894
C208	C	-0.738286	1.158556	-1.185947
C209	C	-0.447958	1.213197	-1.238342
C210	C	-0.423143	1.242248	-1.263332
C211	C	-0.371209	1.217351	-1.236372
C212	C	-0.344302	1.248849	-1.263460
C213	C	-0.344088	1.163395	-1.184420
C214	C	-0.368898	1.134339	-1.159435
C215	C	-0.420839	1.159249	-1.186402
C216	C	-0.447907	0.816337	-0.841556
C217	C	-0.423084	0.766524	-0.787689
C218	C	-0.371148	0.741553	-0.760658
C219	C	-0.344232	0.687544	-0.702252
C220	C	-0.344039	0.766401	-0.787494
C221	C	-0.368864	0.816214	-0.841358
C222	C	-0.420798	0.841175	-0.868387
C223	C	-0.679889	1.127288	-1.159022
C224	C	-0.633341	1.102362	-1.137560
C225	C	-0.469163	0.938242	-0.973347
C226	C	-0.447710	0.895189	-0.926793
C227	C	-0.469184	1.102631	-1.137706
C228	C	-0.447740	1.127742	-1.159303
H229	H	-0.570085	0.610097	-1.036986
C230	C	-0.319320	0.472875	-0.626719
H231	H	-0.331283	0.508107	-0.626891
H232	H	-0.321361	0.443934	-0.595946
H233	H	-0.341215	0.484790	-0.657828
H234	H	-0.301763	0.746097	-0.765471
C235	C	-0.286902	-0.261120	-0.588063
H236	H	-0.276003	-0.294332	-0.590766
H237	H	-0.263380	-0.275669	-0.556546
H238	H	-0.286078	-0.230305	-0.618271
H239	H	-0.019239	0.464305	-0.765815
C240	C	-0.577535	0.617767	-1.195173
H241	H	-0.554263	0.594663	-1.207138
H242	H	-0.587514	0.658839	-1.217069
H243	H	-0.608527	0.617984	-1.197207
C244	C	-0.153686	0.307299	-0.626719
H245	H	-0.176962	0.295504	-0.626889
H246	H	-0.122695	0.274500	-0.595949
H247	H	-0.143711	0.316516	-0.657831
C248	C	0.019969	0.133668	-0.453031
H249	H	0.020132	0.098440	-0.429754
H250	H	0.051071	0.121759	-0.463017
H251	H	-0.010809	0.162616	-0.484019
H252	H	-0.427020	0.467082	-1.036992
C253	C	0.019960	0.133654	-0.287395
H254	H	0.020118	0.156758	-0.275428
H255	H	0.051063	0.092582	-0.265497
H256	H	-0.010817	0.133441	-0.285367
H257	H	-0.301367	0.320546	-0.765840
C258	C	-0.452206	0.470764	-1.319850
H259	H	-0.486723	0.507053	-1.332447
H260	H	-0.455438	0.441570	-1.319838
H261	H	-0.432749	0.480593	-1.342520
C262	C	0.019973	0.299238	-0.453024
H263	H	0.020140	0.311033	-0.488099
H264	H	0.051072	0.290040	-0.433834
H265	H	-0.010808	0.332038	-0.454850
C266	C	-0.848567	0.301411	-0.588030
H267	H	-0.884516	0.315128	-0.590723
H268	H	-0.847879	0.332366	-0.618227
H269	H	-0.831530	0.293344	-0.556502
C270	C	-0.735787	1.240147	-1.267711
H271	H	-0.759594	1.276417	-1.302202
H272	H	-0.706590	1.211033	-1.271012
H273	H	-0.722975	1.250050	-1.248317
C274	C	-0.505040	0.843809	-0.871280
H275	H	-0.517635	0.821887	-0.847582
H276	H	-0.505025	0.840578	-0.900480
H277	H	-0.527713	0.885918	-0.884110
C278	C	-0.505085	1.240590	-1.268006
H279	H	-0.517680	1.276878	-1.302525
H280	H	-0.527766	1.250404	-1.248556
H281	H	-0.505048	1.211386	-1.271245
H282	H	-0.161154	0.465192	-0.445574
C283	C	-0.504700	0.531720	-1.267717
H284	H	-0.517174	0.542401	-1.302208
H285	H	-0.504752	0.564196	-1.271018
H286	H	-0.527431	0.525163	-1.248329
C287	C	-0.153714	0.307267	-0.287400
H288	H	-0.176987	0.295464	-0.275440
H289	H	-0.143734	0.316464	-0.265496
H290	H	-0.122724	0.274474	-0.285372
C291	C	-0.018626	0.471496	-1.320541
H292	H	-0.015931	0.446585	-1.331571
H293	H	0.011572	0.472949	-1.321305
H294	H	-0.050151	0.511981	-1.344003
C295	C	-0.577166	0.988801	-1.029535
H296	H	-0.612236	1.011894	-1.052815
H297	H	-0.578993	0.988570	-0.998540
H298	H	-0.557963	0.947731	-1.019566
C299	C	-0.339014	0.366095	-0.871282
H300	H	-0.304498	0.329804	-0.847578
H301	H	-0.335780	0.395289	-0.900476
H302	H	-0.358472	0.356269	-0.884120
C303	C	-0.848901	0.867332	-1.320556
H304	H	-0.825096	0.845315	-1.333026
H305	H	-0.861737	0.909436	-1.343294
H306	H	-0.878084	0.864073	-1.320596
C307	C	-0.452928	0.301416	-0.588041
H308	H	-0.487417	0.312092	-0.586246
H309	H	-0.456231	0.333895	-0.620477
H310	H	-0.433539	0.294859	-0.558752
C311	C	-0.153693	0.133674	-0.287410
H312	H	-0.118619	0.098445	-0.275444
H313	H	-0.172893	0.121764	-0.265529
H314	H	-0.151871	0.162609	-0.285357
H315	H	-0.304226	0.465201	-0.445584
H316	H	-0.040154	0.466747	-1.036971
H317	H	-0.040137	0.609766	-1.180035
H318	H	-0.346707	0.373218	-1.116520
C319	C	-0.286961	1.136003	-1.154764
H320	H	-0.276068	1.161034	-1.177082
H321	H	-0.263430	1.095537	-1.145804
H322	H	-0.286145	1.134551	-1.123111
C323	C	-0.018646	0.305475	-0.757784
H324	H	-0.015958	0.291882	-0.721860
H325	H	0.011553	0.274452	-0.758399
H326	H	-0.050170	0.313484	-0.774757
H327	H	-0.743491	0.090244	-0.580129
C328	C	-0.577177	1.154423	-1.195150
H329	H	-0.553901	1.166220	-1.207108
H330	H	-0.608181	1.187225	-1.197206
H331	H	-0.587131	1.145194	-1.217041
C332	C	-0.153687	0.472866	-0.626699
H333	H	-0.176966	0.508093	-0.626864
H334	H	-0.143696	0.484775	-0.657798
H335	H	-0.122703	0.443918	-0.595916
C336	C	-0.452904	0.739193	-0.758174
H337	H	-0.487386	0.761191	-0.781988
H338	H	-0.456221	0.742434	-0.728985
H339	H	-0.433501	0.697089	-0.745348
H340	H	-0.161136	0.141341	-0.445595
H341	H	-0.346773	-0.163634	-0.580138
H342	H	-0.040142	0.609756	-1.036966
H343	H	-0.026569	0.516664	-0.863535
H344	H	-0.743125	1.089503	-1.116541
C345	C	-0.848885	1.300712	-1.319861
H346	H	-0.884806	1.314296	-1.330768
H347	H	-0.831909	1.292726	-1.343379
H348	H	-0.848287	1.331740	-1.320681
C349	C	-0.339031	0.074847	-0.579579
H350	H	-0.304537	0.064162	-0.581361
H351	H	-0.358413	0.081392	-0.608862
H352	H	-0.335730	0.042372	-0.547137
H353	H	-0.445230	1.286179	-1.305630
H354	H	-0.346812	1.090407	-1.117138
C355	C	-0.027093	0.762748	-1.267686
H356	H	-0.025300	0.784757	-1.302176
H357	H	-0.059529	0.765998	-1.270988
H358	H	0.002194	0.720642	-1.248299
H359	H	-0.840828	1.141824	-1.161596
H360	H	-0.301360	0.320560	-1.161559
C361	C	-0.339040	0.843536	-0.870876
H362	H	-0.304552	0.821527	-0.847066
H363	H	-0.358433	0.885639	-0.883708
H364	H	-0.335727	0.840285	-0.900063
C365	C	-0.027126	0.762398	-1.101645
H366	H	-0.025354	0.784318	-1.089051
H367	H	0.002154	0.720287	-1.078971
H368	H	-0.059569	0.765648	-1.101666
H369	H	-0.019208	0.859891	-1.161521
C370	C	-0.577198	0.154365	-0.566323
H371	H	-0.612273	0.166162	-0.566157
H372	H	-0.579011	0.187162	-0.597094
H373	H	-0.558009	0.145153	-0.535212
C374	C	-0.018594	0.867332	-1.319811
H375	H	-0.015890	0.900545	-1.330709
H376	H	-0.050112	0.881883	-1.343332
H377	H	0.011611	0.836522	-1.320639
H378	H	-0.743828	0.770183	-1.117215
C379	C	-0.319317	0.299259	-0.453045
H380	H	-0.331283	0.311054	-0.488120
H381	H	-0.321353	0.332055	-0.454862
H382	H	-0.341212	0.290046	-0.433853
H383	H	-0.743512	0.769886	-1.260368
H384	H	-0.841214	0.142915	-0.587462
C385	C	-0.849269	0.867674	-1.154864
H386	H	-0.885194	0.900887	-1.177189
H387	H	-0.832304	0.882223	-1.145900
H388	H	-0.848652	0.836862	-1.123213
H389	H	-0.490216	0.233332	-0.580118
H390	H	-0.026540	0.516681	-1.260351
C391	C	-0.018623	0.305499	-1.154856
H392	H	-0.015920	0.291903	-1.177181
H393	H	-0.050143	0.313497	-1.145892
H394	H	0.011580	0.274475	-1.123205
H395	H	-0.026544	0.373266	-1.117204
H396	H	-0.026555	0.373253	-0.863226
H397	H	-0.426701	0.996564	-1.036931
H398	H	-0.444516	0.463620	-0.765515
C399	C	-0.504702	0.531711	-0.870918
H400	H	-0.517171	0.542398	-0.847114
H401	H	-0.527443	0.525176	-0.883757
H402	H	-0.504737	0.564181	-0.900100
H403	H	-0.426684	-0.003546	-0.566538
H404	H	-0.569749	-0.003556	-0.566521
H405	H	-0.490225	-0.163335	-0.580122
C406	C	-0.735453	0.240451	-0.579539
H407	H	-0.759153	0.276732	-0.581311
H408	H	-0.722612	0.250280	-0.608822
H409	H	-0.706262	0.211250	-0.547097
C410	C	-0.452935	-0.260780	-0.588034
H411	H	-0.487429	-0.238762	-0.586254
H412	H	-0.433556	-0.302884	-0.558752
H413	H	-0.456235	-0.257520	-0.620477
H414	H	-0.301737	0.142930	-0.587496
