data_functionalizedCrystal
_audit_creation_method	'MofGen! by Chris Wilmer'
_symmetry_space_group_name_H-M	'P1'
_symmetry_Int_Tables_number	1
_symmetry_cell_setting	triclinic
loop_
_symmetry_equiv_pos_as_xyz
  x,y,z
_cell_length_a	12.645331
_cell_length_b	25.639239
_cell_length_c	12.645324
_cell_angle_alpha	89.961230
_cell_angle_beta	89.977038
_cell_angle_gamma	90.037665
loop_
_atom_site_label
_atom_site_type_symbol
_atom_site_fract_x
_atom_site_fract_y
_atom_site_fract_z
Zn1	Zn	1.620580	-0.208125	-0.599395
Zn2	Zn	2.120580	0.291875	-0.099395
Zn3	Zn	1.620395	-0.295575	-0.422113
Zn4	Zn	2.120395	0.204425	0.077887
Zn5	Zn	1.443293	-0.208154	-0.422139
Zn6	Zn	1.943293	0.291846	0.077861
Zn7	Zn	1.443211	-0.295530	-0.599328
Zn8	Zn	1.943211	0.204470	-0.099328
O9	O	1.531870	-0.251846	-0.510744
O10	O	2.031870	0.248154	-0.010744
O11	O	1.768902	-0.219733	-0.575895
O12	O	2.268902	0.280267	-0.075895
O13	O	1.596860	-0.284009	-0.273769
O14	O	2.096860	0.215991	0.226231
O15	O	1.466922	-0.134985	-0.445691
O16	O	1.966922	0.365015	0.054309
O17	O	1.768767	-0.283981	-0.445647
O18	O	2.268767	0.216019	0.054353
O19	O	1.597174	-0.134964	-0.575920
O20	O	2.097174	0.365036	-0.075920
O21	O	1.466744	-0.219781	-0.273788
O22	O	1.966744	0.280219	0.226212
O23	O	1.294935	-0.219737	-0.445627
O24	O	1.794935	0.280263	0.054373
O25	O	1.466782	-0.283905	-0.747685
O26	O	1.966782	0.216095	-0.247685
O27	O	1.294875	-0.283932	-0.575807
O28	O	1.794875	0.216068	-0.075807
O29	O	1.597094	-0.219689	-0.747733
O30	O	2.097094	0.280311	-0.247733
O31	O	1.596780	-0.368734	-0.445582
O32	O	2.096780	0.131266	0.054418
O33	O	1.466603	-0.368701	-0.575782
O34	O	1.966603	0.131299	-0.075782
C35	C	1.256440	-0.251833	-0.510713
C36	C	1.756440	0.248167	-0.010713
C37	C	1.138610	-0.251841	-0.510725
C38	C	1.638610	0.248159	-0.010725
C39	C	1.531692	-0.387688	-0.510695
C40	C	2.031692	0.112312	-0.010695
C41	C	1.531712	-0.445803	-0.510710
C42	C	2.031712	0.054197	-0.010710
C43	C	0.971049	-0.211270	-0.429281
C44	C	1.471049	0.288730	0.070719
C45	C	1.093608	-0.211375	-0.428922
C46	C	1.593608	0.288625	0.071078
C47	C	1.094049	-0.306920	-0.480197
C48	C	1.594049	0.193080	0.019803
C49	C	0.971450	-0.306699	-0.479641
C50	C	1.471450	0.193301	0.020359
C51	C	0.971472	-0.237856	-0.623013
C52	C	1.471472	0.262144	-0.123013
C53	C	1.094078	-0.236626	-0.622389
C54	C	1.594078	0.263374	-0.122389
C55	C	1.599830	-0.806170	-0.443064
C56	C	2.099830	-0.306170	0.056936
C57	C	1.599871	-0.860774	-0.443079
C58	C	2.099871	-0.360774	0.056921
O59	O	1.657602	-0.889015	-0.385511
O60	O	2.157602	-0.389015	0.114489
N61	N	1.532056	-0.888085	-0.510814
N62	N	2.032056	-0.388085	-0.010814
C63	C	1.464204	-0.860788	-0.578547
C64	C	1.964204	-0.360788	-0.078547
O65	O	1.406526	-0.889032	-0.636163
O66	O	1.906526	-0.389032	-0.136163
C67	C	1.464169	-0.806185	-0.578538
C68	C	1.964169	-0.306185	-0.078538
C69	C	1.531980	-0.778877	-0.510790
C70	C	2.031980	-0.278877	-0.010790
C71	C	1.667636	-0.778862	-0.375323
C72	C	2.167636	-0.278862	0.124677
C73	C	1.667594	-0.724262	-0.375308
C74	C	2.167594	-0.224262	0.124692
C75	C	1.599744	-0.696969	-0.443034
C76	C	2.099744	-0.196969	0.056966
C77	C	1.531937	-0.724277	-0.510775
C78	C	2.031937	-0.224277	-0.010775
C79	C	1.396322	-0.778889	-0.646275
C80	C	1.896322	-0.278889	-0.146275
C81	C	1.396294	-0.724282	-0.646261
C82	C	1.896294	-0.224282	-0.146261
C83	C	1.464105	-0.696975	-0.578513
C84	C	1.964105	-0.196975	-0.078513
C85	C	1.464045	-0.642383	-0.578485
C86	C	1.964045	-0.142383	-0.078485
N87	N	1.531860	-0.615073	-0.510750
N88	N	2.031860	-0.115073	-0.010750
C89	C	1.599709	-0.642366	-0.443024
C90	C	2.099709	-0.142366	0.056976
C91	C	1.464284	-0.975459	-0.578564
C92	C	1.964284	-0.475459	-0.078564
C93	C	1.464312	-1.030061	-0.578569
C94	C	1.964312	-0.530061	-0.078569
C95	C	1.599981	-1.030043	-0.443101
C96	C	2.099981	-0.530043	0.056899
C97	C	1.599946	-0.975440	-0.443092
C98	C	2.099946	-0.475440	0.056908
C99	C	1.532098	-0.948148	-0.510828
C100	C	2.032098	-0.448148	-0.010828
C101	C	1.599614	-0.527701	-0.442997
C102	C	2.099614	-0.027701	0.057003
C103	C	1.599562	-0.473095	-0.442984
C104	C	2.099562	0.026905	0.057016
C105	C	1.463897	-0.473118	-0.578455
C106	C	1.963897	0.026882	-0.078455
C107	C	1.463945	-0.527718	-0.578464
C108	C	1.963945	-0.027718	-0.078464
C109	C	1.531812	-0.555008	-0.510731
C110	C	2.031812	-0.055008	-0.010731
O111	O	1.406347	-0.614108	-0.636027
O112	O	1.906347	-0.114108	-0.136027
O113	O	1.657387	-0.614115	-0.385428
O114	O	2.157387	-0.114115	0.114572
C115	C	1.808375	-0.251859	-0.510775
C116	C	2.308375	0.248141	-0.010775
C117	C	1.926205	-0.251864	-0.510789
C118	C	2.426205	0.248136	-0.010789
C119	C	1.531949	-0.251789	-0.787249
C120	C	2.031949	0.248211	-0.287249
C121	C	1.531983	-0.251765	-0.905079
C122	C	2.031983	0.248235	-0.405079
C123	C	1.532078	-0.115473	-0.510816
C124	C	2.032078	0.384527	-0.010816
C125	C	1.532166	-0.057359	-0.510846
C126	C	2.032166	0.442641	-0.010846
C127	C	1.614281	-0.211484	-1.072674
C128	C	2.114281	0.288516	-0.572674
C129	C	1.614018	-0.211338	-0.950114
C130	C	2.114018	0.288662	-0.450114
C131	C	1.420312	-0.236791	-0.949561
C132	C	1.920312	0.263209	-0.449561
C133	C	1.420812	-0.236485	-1.072160
C134	C	1.920812	0.263515	-0.572160
C135	C	1.560450	-0.307078	-1.072264
C136	C	2.060450	0.192922	-0.572264
C137	C	1.562893	-0.306800	-0.949658
C138	C	2.062893	0.193200	-0.449658
C139	C	1.531852	-0.251865	-0.235314
C140	C	2.031852	0.248135	0.264686
C141	C	1.532023	-0.251742	-0.117485
C142	C	2.032023	0.248258	0.382515
H143	H	1.123740	-0.170531	-0.448058
H144	H	1.623740	0.329469	0.051942
H145	H	1.595200	-0.170346	-0.920811
H146	H	2.095200	0.329654	-0.420811
H147	H	0.942795	-0.318577	-0.397599
H148	H	1.442795	0.181423	0.102401
H149	H	1.500541	-0.337075	-1.101249
H150	H	2.000541	0.162925	-0.601249
H151	H	1.696825	-0.220716	-0.920041
H152	H	2.196825	0.279284	-0.420041
H153	H	1.357439	-0.264532	-1.101800
H154	H	1.857439	0.235468	-0.601800
H155	H	0.941615	-0.170303	-0.448212
H156	H	1.441615	0.329697	0.051788
H157	H	1.122879	-0.220634	-0.345759
H158	H	1.622879	0.279366	0.154241
H159	H	1.722815	-0.702031	-0.320146
H160	H	2.222815	-0.202031	0.179854
H161	H	1.341045	-0.702064	-0.701423
H162	H	1.841045	-0.202064	-0.201423
H163	H	1.396711	-0.196035	-1.100779
H164	H	1.896711	0.303965	-0.600779
H165	H	1.341098	-0.801114	-0.701438
H166	H	1.841098	-0.301114	-0.201438
H167	H	1.123213	-0.196093	-0.645409
H168	H	1.623213	0.303907	-0.145409
H169	H	1.357357	-0.265212	-0.920387
H170	H	1.857357	0.234788	-0.420387
H171	H	1.124716	-0.264036	-0.686368
H172	H	1.624716	0.235964	-0.186368
H173	H	1.697363	-0.220743	-1.102165
H174	H	2.197363	0.279257	-0.602165
H175	H	1.722893	-0.801078	-0.320173
H176	H	2.222893	-0.301078	0.179827
H177	H	1.595705	-0.170718	-1.103508
H178	H	2.095705	0.329282	-0.603508
H179	H	0.942471	-0.267423	-0.683743
H180	H	1.442471	0.232577	-0.183743
H181	H	1.654782	-0.450863	-0.387812
H182	H	2.154782	0.049137	0.112188
H183	H	0.940194	-0.220426	-0.346607
H184	H	1.440194	0.279574	0.153393
H185	H	0.941783	-0.337969	-0.536418
H186	H	1.441783	0.162031	-0.036418
H187	H	1.123195	-0.337975	-0.537699
H188	H	1.623195	0.162025	-0.037699
H189	H	1.654880	-0.549914	-0.387844
H190	H	2.154880	-0.049914	0.112156
H191	H	1.655165	-0.953209	-0.387927
H192	H	2.155165	-0.453209	0.112073
H193	H	1.655232	-1.052275	-0.387959
H194	H	2.155232	-0.552275	0.112041
H195	H	1.409083	-1.052291	-0.633725
H196	H	1.909083	-0.552291	-0.133725
H197	H	1.124695	-0.319003	-0.399035
H198	H	1.624695	0.180997	0.100965
H199	H	1.395769	-0.196792	-0.918876
H200	H	1.895769	0.303208	-0.418876
H201	H	1.408731	-0.549954	-0.633633
H202	H	1.908731	-0.049954	-0.133633
H203	H	0.940604	-0.198393	-0.650774
H204	H	1.440604	0.301607	-0.150774
H205	H	1.640455	-0.320710	-1.103246
H206	H	2.140455	0.179290	-0.603246
H207	H	1.645073	-0.318091	-0.920584
H208	H	2.145073	0.181909	-0.420584
H209	H	1.507332	-0.338410	-0.918998
H210	H	2.007332	0.161590	-0.418998
H211	H	1.409025	-0.953241	-0.633720
H212	H	1.909025	-0.453241	-0.133720
H213	H	1.408652	-0.450888	-0.633594
H214	H	1.908652	0.049112	-0.133594
