data_functionalizedCrystal
_audit_creation_method	'MofGen! by Chris Wilmer'
_symmetry_space_group_name_H-M	'P1'
_symmetry_Int_Tables_number	1
_symmetry_cell_setting	triclinic
loop_
_symmetry_equiv_pos_as_xyz
  x,y,z
_cell_length_a	6.817900
_cell_length_b	17.253917
_cell_length_c	14.125465
_cell_angle_alpha	99.564255
_cell_angle_beta	100.398878
_cell_angle_gamma	102.659311
loop_
_atom_site_label
_atom_site_type_symbol
_atom_site_fract_x
_atom_site_fract_y
_atom_site_fract_z
V1	V	-3.991200	-0.110582	-0.309050
O2	O	-3.979515	0.006025	-0.293772
O3	O	-3.942842	-0.219950	-0.315971
O4	O	-3.927345	-0.108569	-0.439714
O5	O	-3.995119	-0.106127	-0.169172
V6	V	-4.476826	-0.096671	-0.291221
O7	O	-4.247847	-0.141096	-0.348157
O8	O	-4.670376	-0.066157	-0.252114
O9	O	-4.301978	0.012696	-0.284300
O10	O	-4.605909	-0.213279	-0.306499
O11	O	-4.590304	-0.101127	-0.431099
O12	O	-4.317475	-0.098684	-0.160557
C13	C	-3.788353	-0.246621	-0.313427
C14	C	-3.829997	-0.336028	-0.319958
C15	C	-3.819736	-0.366749	-0.233994
C16	C	-3.858885	-0.450758	-0.240133
C17	C	-3.908281	-0.504043	-0.332237
C18	C	-3.918547	-0.473317	-0.418208
C19	C	-3.879413	-0.389310	-0.412068
C20	C	-4.028534	-0.756498	-0.360148
C21	C	-4.067663	-0.840509	-0.366281
C22	C	-4.008002	-0.817944	-0.188206
C23	C	-3.968858	-0.733937	-0.182074
C24	C	-3.979138	-0.703218	-0.268045
N25	N	-3.948292	-0.589913	-0.338515
N26	N	-3.939142	-0.617350	-0.261767
C27	C	-3.768584	-0.104543	-0.471273
C28	C	-3.797659	-0.103621	-0.578151
C29	C	-3.850951	-0.101930	-0.773836
C30	C	-4.036445	-0.105322	-0.826435
C31	C	-4.066099	-0.104381	-0.935321
C32	C	-3.821288	-0.102871	-0.664940
C33	C	-4.119809	0.039363	-0.286841
C34	C	-4.057402	0.128769	-0.280317
C35	C	-4.139579	-0.102713	-0.128993
C36	C	-4.089743	-0.103631	-0.022114
H37	H	-3.887791	-0.364300	-0.482070
H38	H	-3.714427	-0.098320	-0.810577
O39	O	-4.217316	-0.110102	-0.777776
H40	H	-4.338443	-0.166901	-0.814294
H41	H	-3.850532	-0.475766	-0.170132
O42	O	-3.996919	-0.851074	-0.095483
H43	H	-4.032439	-0.918441	-0.115221
H44	H	-3.779500	-0.323369	-0.158992
O45	O	-3.915523	-0.676462	-0.082732
H46	H	-3.914956	-0.711939	-0.023985
H47	H	-4.036882	-0.731497	-0.430151
O48	O	-4.120963	-0.897988	-0.465626
H49	H	-4.121559	-0.862516	-0.524377
H50	H	-3.958782	-0.516709	-0.493201
