data_functionalizedCrystal
_audit_creation_method	'MofGen! by Chris Wilmer'
_symmetry_space_group_name_H-M	'P1'
_symmetry_Int_Tables_number	1
_symmetry_cell_setting	triclinic
loop_
_symmetry_equiv_pos_as_xyz
  x,y,z
_cell_length_a	12.759401
_cell_length_b	12.759400
_cell_length_c	12.759393
_cell_angle_alpha	89.969553
_cell_angle_beta	89.981382
_cell_angle_gamma	90.013592
loop_
_atom_site_label
_atom_site_type_symbol
_atom_site_fract_x
_atom_site_fract_y
_atom_site_fract_z
Zn1	Zn	1.606267	-0.418192	-0.593993
Zn2	Zn	1.606166	-0.593911	-0.418316
Zn3	Zn	1.430569	-0.418248	-0.418332
Zn4	Zn	1.430562	-0.593831	-0.593958
O5	O	1.518391	-0.506046	-0.506150
O6	O	1.753274	-0.441512	-0.570697
O7	O	1.582833	-0.570666	-0.271297
O8	O	1.453920	-0.271220	-0.441655
O9	O	1.753200	-0.570612	-0.441629
O10	O	1.583005	-0.271179	-0.570712
O11	O	1.453822	-0.441607	-0.271309
O12	O	1.283547	-0.441530	-0.441621
O13	O	1.453909	-0.570475	-0.740983
O14	O	1.283542	-0.570530	-0.570652
O15	O	1.582998	-0.441434	-0.741009
O16	O	1.582826	-0.740922	-0.441594
O17	O	1.453811	-0.740863	-0.570637
C18	C	1.245423	-0.506028	-0.506135
C19	C	1.128647	-0.506045	-0.506153
C20	C	1.073824	-0.438944	-0.573463
C21	C	0.964100	-0.438955	-0.573470
C22	C	0.964031	-0.573177	-0.438855
C23	C	1.073753	-0.573160	-0.438843
C24	C	1.518336	-0.779013	-0.506133
C25	C	1.518408	-0.895790	-0.506161
C26	C	1.585589	-0.950551	-0.573416
C27	C	1.585638	-1.060275	-0.573442
C28	C	1.451322	-1.060467	-0.438948
C29	C	1.451269	-0.950745	-0.438929
C30	C	1.652728	-0.895595	-0.640649
C31	C	1.719915	-0.950356	-0.707909
C32	C	1.719964	-1.060080	-0.707934
C33	C	1.652826	-1.115043	-0.640700
C34	C	1.792424	-0.506065	-0.506165
C35	C	1.909201	-0.506073	-0.506172
C36	C	1.518464	-0.505940	-0.780183
C37	C	1.518496	-0.505895	-0.896960
C38	C	1.518475	-0.232012	-0.506189
C39	C	1.518510	-0.115236	-0.506206
C40	C	1.585722	-0.438696	-0.951837
C41	C	1.585747	-0.438659	-1.061561
C42	C	1.451316	-0.573026	-1.061521
C43	C	1.451287	-0.573058	-0.951799
C44	C	1.652930	-0.371533	-0.896998
C45	C	1.720163	-0.304331	-0.951875
C46	C	1.720188	-0.304293	-1.061600
C47	C	1.652980	-0.371457	-1.116446
C48	C	1.518378	-0.506076	-0.233182
C49	C	1.518550	-0.505825	-0.116406
H50	H	0.919323	-0.627820	-0.384054
H51	H	1.652859	-1.204388	-0.640739
H52	H	1.652920	-0.371559	-0.807655
F53	F	1.791354	-0.891860	-0.779470
F54	F	1.379875	-1.118966	-0.367397
F55	F	1.132242	-0.367512	-0.645097
F56	F	1.791672	-0.232840	-0.893502
F57	F	1.132103	-0.644573	-0.367190
H58	H	1.652994	-0.371409	-1.205791
F59	F	0.905758	-0.367536	-0.645109
F60	F	1.652661	-0.778818	-0.640648
F61	F	1.791458	-1.118358	-0.779527
F62	F	1.379770	-0.892461	-0.367345
F63	F	1.791742	-0.232772	-1.120001
F64	F	1.379797	-0.644505	-1.119897
F65	F	1.379736	-0.644576	-0.893391
