data_functionalizedCrystal
_audit_creation_method	'MofGen! by Chris Wilmer'
_symmetry_space_group_name_H-M	'P1'
_symmetry_Int_Tables_number	1
_symmetry_cell_setting	triclinic
loop_
_symmetry_equiv_pos_as_xyz
  x,y,z
_cell_length_a	10.723023
_cell_length_b	10.723024
_cell_length_c	9.198806
_cell_angle_alpha	90.002012
_cell_angle_beta	90.003487
_cell_angle_gamma	84.467709
loop_
_atom_site_label
_atom_site_type_symbol
_atom_site_fract_x
_atom_site_fract_y
_atom_site_fract_z
O1	O	1.657188	0.175020	0.120874
O2	O	1.294036	0.191774	0.120879
O3	O	1.483989	0.001821	0.120871
O4	O	1.467235	0.364973	0.120882
O5	O	1.483974	0.001820	-0.120914
O6	O	1.294021	0.191774	-0.120906
O7	O	1.657173	0.175019	-0.120911
Cu8	Cu	1.475596	0.183396	-0.142985
Cu9	Cu	1.475613	0.183397	0.142953
O10	O	1.467220	0.364973	-0.120903
C11	C	1.247529	0.190555	-0.000012
C12	C	1.108974	0.186908	-0.000010
C13	C	1.047194	0.185281	-0.125261
C14	C	0.903991	0.181511	-0.125262
C15	C	1.482762	-0.044679	-0.000020
C16	C	1.479114	-0.183233	-0.000015
C17	C	1.585402	-0.258216	-0.000014
C18	C	1.581634	-0.401420	-0.000009
C19	C	1.703680	0.176239	-0.000016
C20	C	1.842235	0.179886	-0.000009
C21	C	1.468447	0.411473	-0.000009
C22	C	1.472095	0.550027	-0.000005
N23	N	1.475592	0.183395	-0.344099
C24	C	1.555348	0.103288	-0.416300
C25	C	1.555367	0.103283	-0.583712
N26	N	1.475627	0.183388	0.344067
H27	H	1.100321	0.186672	-0.232492
F28	F	1.386352	0.273031	-0.425296
H29	H	1.055849	0.185506	0.107221
H30	H	1.407346	0.251980	-0.593853
F31	F	1.356525	-0.237890	0.000001
H32	H	1.381099	-0.385548	-0.000015
F33	F	1.707992	-0.203559	-0.000008
F34	F	1.644358	0.013423	-0.335104
H35	H	1.623654	0.034704	-0.645802
H36	H	0.850861	0.180120	-0.232493
H37	H	1.672625	-0.465852	-0.000015
F38	F	0.911665	0.181723	0.140162
