data_functionalizedCrystal
_audit_creation_method	'MofGen! by Chris Wilmer'
_symmetry_space_group_name_H-M	'P1'
_symmetry_Int_Tables_number	1
_symmetry_cell_setting	triclinic
loop_
_symmetry_equiv_pos_as_xyz
  x,y,z
_cell_length_a	18.050591
_cell_length_b	18.050590
_cell_length_c	14.908308
_cell_angle_alpha	93.264736
_cell_angle_beta	93.272236
_cell_angle_gamma	90.014558
loop_
_atom_site_label
_atom_site_type_symbol
_atom_site_fract_x
_atom_site_fract_y
_atom_site_fract_z
Zn1	Zn	1.111129	-0.319961	-0.510220
Zn2	Zn	1.118220	-0.436997	-0.359360
Zn3	Zn	0.994108	-0.312816	-0.359364
Zn4	Zn	0.986921	-0.444102	-0.510151
O5	O	1.052594	-0.378469	-0.434774
O6	O	1.215993	-0.335503	-0.490235
O7	O	1.107732	-0.414560	-0.233121
O8	O	1.009671	-0.209841	-0.379405
O9	O	1.221203	-0.421488	-0.379399
O10	O	1.095646	-0.215090	-0.490238
O11	O	1.016547	-0.323325	-0.233123
O12	O	0.889231	-0.330215	-0.379339
O13	O	0.997422	-0.433599	-0.636401
O14	O	0.883951	-0.426670	-0.490122
O15	O	1.088677	-0.342393	-0.636451
O16	O	1.100763	-0.541862	-0.379333
O17	O	1.004298	-0.547083	-0.490119
C18	C	0.859645	-0.378439	-0.434724
C19	C	0.777099	-0.378445	-0.434724
C20	C	0.580491	-0.325942	-0.374619
C21	C	0.532137	-0.392626	-0.352417
C22	C	0.625967	-0.378470	-0.434765
C23	C	0.527240	-0.311809	-0.456964
C24	C	0.479980	-0.378487	-0.434802
C25	C	0.578701	-0.445187	-0.412520
C26	C	0.573807	-0.364327	-0.517105
C27	C	0.525473	-0.431059	-0.494935
C28	C	0.710066	-0.378458	-0.434741
C29	C	0.395882	-0.378506	-0.434827
C30	C	1.052539	-0.571420	-0.434738
C31	C	1.052582	-0.653966	-0.434753
C32	C	1.105139	-0.850555	-0.374592
C33	C	1.119367	-0.903796	-0.456928
C34	C	1.052622	-0.805098	-0.434789
C35	C	1.038468	-0.898940	-0.352489
C36	C	1.052663	-0.951085	-0.434816
C37	C	1.066883	-0.857254	-0.517169
C38	C	0.985955	-0.852391	-0.412674
C39	C	1.000155	-0.905613	-0.495067
C40	C	1.052601	-0.720999	-0.434772
C41	C	1.052684	-1.035182	-0.434843
C42	C	1.246298	-0.378500	-0.434824
C43	C	1.328842	-0.378513	-0.434846
C44	C	1.041457	-0.389585	-0.670074
C45	C	1.036711	-0.394323	-0.770345
C46	C	1.052669	-0.184766	-0.434830
C47	C	1.052701	-0.102222	-0.434854
C48	C	1.122815	-0.308234	-0.958818
C49	C	1.118358	-0.312683	-1.053032
C50	C	1.023337	-0.407663	-1.052987
C51	C	1.027794	-0.403215	-0.958773
C52	C	1.077535	-0.353500	-0.911692
C53	C	1.081996	-0.349055	-0.817477
C54	C	0.986971	-0.444032	-0.817434
C55	C	0.982514	-0.448480	-0.911647
C56	C	1.063731	-0.367343	-0.200389
C57	C	1.068621	-0.362396	-0.100119
H58	H	1.149562	-0.826476	-0.323737
O59	O	0.974957	-0.455968	-1.098590
C60	C	0.881209	-0.549739	-1.088615
C61	C	0.935954	-0.495054	-1.036858
H62	H	0.849672	-0.581366	-1.038727
H63	H	0.840254	-0.517752	-1.132694
H64	H	0.913216	-0.590622	-1.132751
H65	H	0.904009	-0.454158	-0.992673
H66	H	0.976909	-0.527090	-0.992835
H67	H	0.955758	-0.929561	-0.546045
H68	H	0.504633	-0.255434	-0.475693
O69	O	0.918636	-0.825561	-0.390416
C70	C	0.787009	-0.824228	-0.427792
C71	C	0.863199	-0.854684	-0.453101
H72	H	0.742170	-0.847750	-0.478470
H73	H	0.774945	-0.841221	-0.357581
H74	H	0.787519	-0.761116	-0.428618
H75	H	0.862745	-0.917797	-0.452327
H76	H	0.875233	-0.837634	-0.523297
H77	H	0.592257	-0.352329	-0.586702
H78	H	1.155227	-0.275821	-1.091398
O79	O	0.934241	-0.496871	-0.957287
C80	C	0.896822	-0.624559	-0.986120
C81	C	0.951528	-0.569834	-0.934364
H82	H	0.910788	-0.683563	-0.967620
H83	H	0.837808	-0.610702	-0.967568
H84	H	0.901401	-0.619924	-1.061547
H85	H	0.947015	-0.574440	-0.858924
H86	H	1.010519	-0.583708	-0.952991
O87	O	1.024249	-0.920847	-0.269377
C88	C	1.063569	-0.917659	-0.111997
C89	C	1.079741	-0.892787	-0.206067
H90	H	1.108432	-0.894997	-0.060788
H91	H	1.007171	-0.895589	-0.092565
H92	H	1.063154	-0.980857	-0.113011
H93	H	1.080194	-0.829595	-0.205125
H94	H	1.136127	-0.914912	-0.225462
H95	H	0.950103	-0.480892	-0.779054
H96	H	1.163320	-0.267758	-0.920484
O97	O	0.609179	-0.273076	-0.313756
C98	C	0.620574	-0.228267	-0.158199
C99	C	0.588056	-0.288191	-0.227027
H100	H	0.603495	-0.240458	-0.088066
H101	H	0.683684	-0.228394	-0.159126
H102	H	0.598573	-0.171550	-0.176468
H103	H	0.609999	-0.344939	-0.208806
H104	H	0.524947	-0.287999	-0.226087
H105	H	1.175763	-0.926344	-0.475651
H106	H	0.601183	-0.501582	-0.393683
H107	H	0.513705	-0.404601	-0.282800
O108	O	0.496958	-0.484211	-0.555531
C109	C	0.491048	-0.614510	-0.600617
C110	C	0.523382	-0.554391	-0.531922
H111	H	0.512411	-0.671262	-0.581565
H112	H	0.427894	-0.613872	-0.600607
H113	H	0.508942	-0.602890	-0.670582
H114	H	0.505543	-0.565970	-0.461924
H115	H	0.586531	-0.555043	-0.532011
O116	O	1.130328	-0.300700	-0.771880
C117	C	1.224131	-0.206988	-0.781873
C118	C	1.169417	-0.261709	-0.833620
H119	H	1.255761	-0.175461	-0.831767
H120	H	1.192168	-0.166023	-0.737791
H121	H	1.265010	-0.239013	-0.737740
H122	H	1.128525	-0.229746	-0.877801
H123	H	1.201429	-0.302674	-0.877645
O124	O	1.081292	-0.835246	-0.600176
C125	C	1.097389	-0.732271	-0.693299
C126	C	1.081078	-0.757094	-0.599251
H127	H	1.097206	-0.669084	-0.692588
H128	H	1.154070	-0.753867	-0.712301
H129	H	1.052911	-0.755495	-0.744657
H130	H	1.125509	-0.733879	-0.547830
H131	H	1.024375	-0.735508	-0.580326
