data_functionalizedCrystal
_audit_creation_method	'MofGen! by Chris Wilmer'
_symmetry_space_group_name_H-M	'P1'
_symmetry_Int_Tables_number	1
_symmetry_cell_setting	triclinic
loop_
_symmetry_equiv_pos_as_xyz
  x,y,z
_cell_length_a	13.032721
_cell_length_b	13.033688
_cell_length_c	12.759393
_cell_angle_alpha	82.849716
_cell_angle_beta	97.149226
_cell_angle_gamma	76.639755
loop_
_atom_site_label
_atom_site_type_symbol
_atom_site_fract_x
_atom_site_fract_y
_atom_site_fract_z
Zn1	Zn	-0.216354	-1.570098	-0.421524
Zn2	Zn	-0.394018	-1.547408	-0.271407
Zn3	Zn	-0.238990	-1.392468	-0.271386
Zn4	Zn	-0.416510	-1.369897	-0.472538
O5	O	-0.316468	-1.469968	-0.359214
O6	O	-0.221036	-1.715716	-0.380270
O7	O	-0.373514	-1.526805	-0.124397
O8	O	-0.087342	-1.434972	-0.269944
O9	O	-0.351564	-1.699046	-0.269979
O10	O	-0.070711	-1.565476	-0.380249
O11	O	-0.259615	-1.412971	-0.124382
O12	O	-0.281425	-1.240846	-0.319410
O13	O	-0.389899	-1.396503	-0.612778
O14	O	-0.411848	-1.224263	-0.467195
O15	O	-0.242845	-1.543590	-0.575298
O16	O	-0.545648	-1.504919	-0.319446
O17	O	-0.562173	-1.374502	-0.467216
C18	C	-0.351534	-1.194017	-0.398837
C19	C	-0.366561	-1.075960	-0.415816
C20	C	-0.324157	-0.909500	-0.367900
C21	C	-0.308626	-1.031517	-0.350347
C22	C	-0.592449	-1.434828	-0.398887
C23	C	-0.710502	-1.419893	-0.415881
C24	C	-0.754916	-1.477819	-0.350383
C25	C	-0.876930	-1.462384	-0.367946
C26	C	-0.039407	-1.505273	-0.319404
C27	C	0.078660	-1.520318	-0.302439
C28	C	-0.316356	-1.470060	-0.633221
C29	C	-0.316309	-1.470099	-0.749987
C30	C	-0.281257	-0.746997	-0.319425
C31	C	-0.266230	-0.865053	-0.302440
C32	C	-0.239726	-1.546694	-0.785332
C33	C	-0.239678	-1.546718	-0.895047
C34	C	-0.392804	-1.393548	-0.934063
C35	C	-0.392847	-1.393521	-0.824350
C36	C	-0.109523	-1.600669	-1.021540
C37	C	-0.032948	-1.677279	-1.056889
C38	C	-0.003486	-1.782983	-1.004066
C39	C	-0.050612	-1.812097	-0.915896
C40	C	-0.127195	-1.735491	-0.880554
C41	C	-0.156638	-1.629775	-0.933374
C42	C	-0.523001	-1.339580	-0.697853
C43	C	-0.599589	-1.262978	-0.662509
C44	C	-0.629062	-1.157271	-0.715331
C45	C	-0.581954	-1.128159	-0.803507
C46	C	-0.505366	-1.204761	-0.838851
C47	C	-0.475892	-1.310467	-0.786021
C48	C	-0.316496	-1.469946	-0.086252
C49	C	-0.316218	-1.470151	0.030585
H50	H	-0.205142	-0.917333	-0.233400
F51	F	-0.778864	-1.340139	-0.506177
H52	H	-0.247535	-1.083794	-0.281302
F53	F	-0.404023	-0.841169	-0.458128
F54	F	-0.158265	-1.628193	-0.706193
H55	H	-0.165568	-1.759196	-0.808771
H56	H	-0.929232	-1.401364	-0.437031
H57	H	-0.427659	-1.023685	-0.484857
F58	F	-0.686552	-1.557584	-0.260098
F59	F	-0.852982	-1.600087	-0.212146
H60	H	-0.026625	-1.898175	-0.872899
H61	H	-0.467010	-1.181049	-0.910650
F62	F	0.078009	-1.864516	-1.041692
F63	F	-0.491611	-1.452080	-0.641606
F64	F	0.017204	-1.646291	-1.150724
F65	F	-0.140862	-1.488163	-1.077756
F66	F	-0.474261	-1.312056	-1.013213
F67	F	-0.613324	-1.015654	-0.859731
H68	H	-0.691435	-1.094905	-0.686551
H69	H	-0.637955	-1.286693	-0.590718
