data_functionalizedCrystal
_audit_creation_method	'MofGen! by Chris Wilmer'
_symmetry_space_group_name_H-M	'P1'
_symmetry_Int_Tables_number	1
_symmetry_cell_setting	triclinic
loop_
_symmetry_equiv_pos_as_xyz
  x,y,z
_cell_length_a	19.188930
_cell_length_b	16.992694
_cell_length_c	15.455313
_cell_angle_alpha	92.857794
_cell_angle_beta	92.650876
_cell_angle_gamma	93.093497
loop_
_atom_site_label
_atom_site_type_symbol
_atom_site_fract_x
_atom_site_fract_y
_atom_site_fract_z
O1	O	0.145160	-1.043326	-0.072038
O2	O	0.143535	-0.815047	-0.072064
O3	O	0.043078	-0.935773	-0.072033
O4	O	0.245617	-0.922600	-0.072069
O5	O	0.048798	-0.928870	0.072227
O6	O	0.149255	-0.808144	0.072197
O7	O	0.150879	-1.036422	0.072222
Cu8	Cu	0.150589	-0.921653	0.085382
Cu9	Cu	0.143825	-0.929817	-0.085223
O10	O	0.251336	-0.915696	0.072192
C11	C	0.019902	-0.931895	0.000099
C12	C	-0.057677	-0.930614	0.000107
C13	C	0.144306	-0.782390	0.000064
C14	C	0.138072	-0.695368	0.000055
C15	C	0.150109	-1.069079	0.000093
C16	C	0.156342	-1.156102	0.000096
C17	C	-0.098455	-1.001452	0.000119
C18	C	-0.171350	-1.000250	0.000105
C19	C	-0.203463	-0.928204	0.000096
C20	C	-0.162676	-0.857356	0.000079
C21	C	-0.089783	-0.858561	0.000085
N22	N	-0.312744	-0.870784	0.049185
N23	N	-0.381990	-0.869644	0.049181
C24	C	-0.423085	-0.924569	0.000078
N25	N	-0.392319	-0.980688	-0.049011
N26	N	-0.323067	-0.981830	-0.049004
C27	C	-0.282503	-0.926889	0.000090
C28	C	-0.542904	-0.994108	0.000074
C29	C	-0.615801	-0.992903	0.000054
C30	C	-0.607124	-0.850007	0.000038
C31	C	-0.534230	-0.851215	0.000048
C32	C	-0.502124	-0.923267	0.000070
C33	C	0.274513	-0.919575	0.000057
C34	C	0.352092	-0.920856	0.000044
N35	N	0.155346	-0.915916	0.205376
C36	C	0.198212	-0.644922	0.000045
C37	C	0.192351	-0.563155	0.000058
C38	C	0.126351	-0.531836	0.000075
C39	C	0.066208	-0.582288	0.000087
C40	C	0.072069	-0.664053	0.000080
C41	C	0.102059	-0.288320	0.000102
C42	C	0.096203	-0.206548	0.000106
C43	C	0.222347	-0.187420	0.000079
C44	C	0.228202	-0.269188	0.000067
C45	C	0.168059	-0.319633	0.000084
N46	N	0.120360	-0.448257	0.000085
N47	N	0.174051	-0.403210	0.000079
N48	N	0.139063	-0.935560	-0.205217
C49	C	0.112686	-0.967222	0.250783
C50	C	0.116291	-0.962891	0.341590
C51	C	0.162559	-0.907257	0.386988
C52	C	0.205221	-0.855945	0.341574
C53	C	0.201613	-0.860273	0.250769
C54	C	0.178116	-0.888576	0.658564
C55	C	0.181723	-0.884253	0.749376
C56	C	0.092792	-0.991199	0.749385
C57	C	0.089190	-0.995525	0.658578
C58	C	0.131849	-0.944211	0.613173
N59	N	0.166246	-0.902830	0.479807
N60	N	0.128158	-0.948634	0.520355
H61	H	-0.072320	-1.060123	0.000134
O62	O	0.250840	-0.514265	0.000009
C63	C	0.310350	-0.559440	0.000009
H64	H	0.294953	-0.621832	-0.027307
H65	H	0.333113	-0.561897	0.069213
C66	C	0.384318	-0.444559	-0.023024
C67	C	0.365407	-0.521187	-0.056580
H68	H	0.418282	-0.420961	-0.057927
H69	H	0.344226	-0.414122	-0.023021
H70	H	0.403283	-0.446616	0.034645
H71	H	0.346435	-0.519127	-0.114244
H72	H	0.405498	-0.551622	-0.056594
H73	H	0.281946	-0.294682	0.000043
O74	O	0.044175	-1.049344	0.614249
C75	C	0.081928	-1.100113	0.561410
H76	H	0.138108	-1.100450	0.588754
H77	H	0.081628	-1.078515	0.492738
C78	C	-0.021319	-1.183879	0.525933
C79	C	0.047681	-1.184298	0.559522
H80	H	-0.042445	-1.235807	0.524764
H81	H	-0.046755	-1.149673	0.561529
H82	H	-0.021560	-1.165877	0.468709
H83	H	0.047920	-1.202290	0.616748
H84	H	0.073116	-1.218509	0.523936
H85	H	0.271312	-0.146339	0.000067
H86	H	0.242891	-0.810642	0.378543
O87	O	0.002052	-0.551965	-0.000014
C88	C	-0.037841	-0.581316	-0.074733
H89	H	-0.016640	-0.639152	-0.099647
H90	H	-0.034469	-0.536469	-0.127050
C91	C	-0.140651	-0.524795	-0.021426
C92	C	-0.114615	-0.595834	-0.052021
H93	H	-0.188010	-0.533748	-0.007418
H94	H	-0.113774	-0.505018	0.028913
H95	H	-0.137835	-0.487430	-0.065029
H96	H	-0.117423	-0.633195	-0.008414
H97	H	-0.141494	-0.615618	-0.102351
O98	O	0.032045	-0.176220	0.000009
C99	C	-0.007855	-0.205568	-0.074707
H100	H	0.013339	-0.263409	-0.099620
H101	H	-0.004480	-0.160724	-0.127026
C102	C	-0.110655	-0.149030	-0.021393
C103	C	-0.084629	-0.220074	-0.051988
H104	H	-0.158014	-0.157975	-0.007382
H105	H	-0.083774	-0.129254	0.028942
H106	H	-0.107837	-0.111666	-0.064998
H107	H	-0.087439	-0.257433	-0.008380
H108	H	-0.111512	-0.239856	-0.102316
O109	O	0.243125	-0.810400	0.206792
C110	C	0.284726	-0.760355	0.266331
H111	H	0.289898	-0.789407	0.331055
H112	H	0.259163	-0.701740	0.276006
C113	C	0.351359	-0.709940	0.151373
C114	C	0.357717	-0.745625	0.230866
H115	H	0.396383	-0.700851	0.129496
H116	H	0.323331	-0.743654	0.111260
H117	H	0.330054	-0.661098	0.159446
H118	H	0.379014	-0.794470	0.222790
H119	H	0.385751	-0.711919	0.270978
O120	O	0.043666	-0.337343	0.000261
C121	C	0.046248	-0.381663	0.074960
H122	H	0.082341	-0.349103	0.127180
H123	H	0.066965	-0.441867	0.058061
C124	C	-0.072003	-0.432722	0.044707
C125	C	-0.027677	-0.392729	0.108847
H126	H	-0.117603	-0.439552	0.065609
H127	H	-0.073742	-0.402866	-0.005621
H128	H	-0.054730	-0.482888	0.030630
H129	H	-0.044946	-0.342560	0.122914
H130	H	-0.025943	-0.422577	0.159178
O131	O	0.067681	-1.021290	0.206821
C132	C	0.030813	-1.065657	0.266376
H133	H	0.030788	-1.030434	0.331109
H134	H	0.057142	-1.123352	0.276018
C135	C	-0.044961	-1.127027	0.151454
C136	C	-0.044996	-1.083762	0.230958
H137	H	-0.091723	-1.138199	0.129606
H138	H	-0.020121	-1.097139	0.111330
H139	H	-0.023016	-1.175101	0.159500
H140	H	-0.066932	-1.035685	0.222909
H141	H	-0.069842	-1.113643	0.271080
O142	O	0.074779	-1.012627	0.385732
C143	C	0.031440	-0.968301	0.438292
H144	H	0.025688	-0.907786	0.410941
H145	H	0.055785	-0.960838	0.507108
C146	C	-0.033954	-1.086032	0.473286
C147	C	-0.041023	-1.011709	0.439688
H148	H	-0.078652	-1.112810	0.474151
H149	H	-0.004754	-1.115896	0.437878
H150	H	-0.013664	-1.079803	0.530629
H151	H	-0.061305	-1.017940	0.382343
H152	H	-0.070228	-0.981847	0.475087
O153	O	0.219663	-0.838810	0.614509
C154	C	0.290362	-0.850249	0.636698
H155	H	0.295224	-0.911824	0.661642
H156	H	0.310510	-0.804222	0.689415
C157	C	0.327834	-0.766112	0.525391
C158	C	0.333806	-0.841742	0.556021
H159	H	0.354633	-0.760861	0.475628
H160	H	0.280203	-0.758403	0.510444
H161	H	0.344623	-0.727765	0.569330
H162	H	0.317009	-0.880087	0.512087
H163	H	0.381435	-0.849457	0.570959
O164	O	-0.211009	-1.069050	-0.000031
C165	C	-0.256400	-1.076201	-0.074733
H166	H	-0.234034	-1.038530	-0.126965
H167	H	-0.309808	-1.055276	-0.057847
C168	C	-0.291517	-1.209432	-0.044432
C169	C	-0.264044	-1.163170	-0.108588
H170	H	-0.296236	-1.263079	-0.065314
H171	H	-0.260939	-1.204615	0.005898
H172	H	-0.336022	-1.191986	-0.030366
H173	H	-0.219537	-1.180610	-0.122645
H174	H	-0.294615	-1.167993	-0.158921
H175	H	0.058060	-1.032976	0.786362
H176	H	0.023097	-0.705127	0.000088
O177	O	-0.511826	-1.064167	0.000041
C178	C	-0.563453	-1.126435	0.000058
H179	H	-0.615221	-1.105935	-0.027257
H180	H	-0.569807	-1.144971	0.069266
C181	C	-0.477754	-1.222286	-0.022964
C182	C	-0.541335	-1.197109	-0.056521
H183	H	-0.464110	-1.265883	-0.057861
H184	H	-0.442971	-1.180335	-0.022973
H185	H	-0.483057	-1.237726	0.034708
H186	H	-0.536029	-1.181660	-0.114188
H187	H	-0.576117	-1.239059	-0.056524
H188	H	-0.649002	-1.050591	0.000059
O189	O	0.226573	-0.830168	0.793577
C190	C	0.188543	-0.779433	0.846110
H191	H	0.136219	-0.810204	0.859716
H192	H	0.179145	-0.723176	0.811133
C193	C	0.294643	-0.720645	0.915651
C194	C	0.230380	-0.758442	0.932368
H195	H	0.320451	-0.707693	0.968857
H196	H	0.320266	-0.754825	0.880256
H197	H	0.286803	-0.673769	0.886502
H198	H	0.238222	-0.805321	0.961506
H199	H	0.204760	-0.724270	0.967769
H200	H	-0.188827	-0.798696	0.000070
O201	O	-0.494716	-0.782327	0.000086
C202	C	-0.538688	-0.718478	0.000054
H203	H	-0.590842	-0.737257	0.027362
H204	H	-0.547838	-0.699693	-0.069158
C205	C	-0.439851	-0.625678	0.023083
C206	C	-0.503906	-0.648740	0.056631
H207	H	-0.418396	-0.582658	0.057979
H208	H	-0.410226	-0.668693	0.023102
H209	H	-0.447486	-0.610028	-0.034593
H210	H	-0.496270	-0.664398	0.114301
H211	H	-0.533530	-0.605726	0.056623
H212	H	-0.056581	-0.800874	0.000075
H213	H	-0.633270	-0.791346	0.000026
H214	H	0.251956	-0.670415	0.000031
