data_functionalizedCrystal
_audit_creation_method	'MofGen! by Chris Wilmer'
_symmetry_space_group_name_H-M	'P1'
_symmetry_Int_Tables_number	1
_symmetry_cell_setting	triclinic
loop_
_symmetry_equiv_pos_as_xyz
  x,y,z
_cell_length_a	15.995300
_cell_length_b	15.995350
_cell_length_c	9.130313
_cell_angle_alpha	89.997713
_cell_angle_beta	89.994890
_cell_angle_gamma	83.482091
loop_
_atom_site_label
_atom_site_type_symbol
_atom_site_fract_x
_atom_site_fract_y
_atom_site_fract_z
O1	O	1.111011	0.107726	-0.121846
O2	O	0.867230	0.121097	-0.121836
O3	O	0.995784	-0.007477	-0.121840
O4	O	0.982456	0.236300	-0.121842
O5	O	0.995775	-0.007481	0.121759
O6	O	0.867221	0.121094	0.121763
O7	O	1.111002	0.107722	0.121753
Cu8	Cu	0.989111	0.114408	0.144001
Cu9	Cu	0.989121	0.114412	-0.144083
O10	O	0.982447	0.236297	0.121757
C11	C	0.836030	0.120550	-0.000035
C12	C	0.743077	0.118915	-0.000032
C13	C	0.572894	0.115896	-0.000043
C14	C	0.525428	0.207443	-0.000041
C15	C	0.428740	0.205773	-0.000597
C16	C	0.405337	0.112924	-0.000052
C17	C	0.446475	0.067506	-0.138885
C18	C	0.543109	0.069822	-0.138997
C19	C	0.543378	0.068463	0.138030
C20	C	0.446433	0.068471	0.139851
C21	C	0.310642	0.111239	-0.000063
C22	C	0.667590	0.117577	-0.000043
C23	C	0.995229	-0.038674	-0.000043
C24	C	0.993577	-0.131624	-0.000051
C25	C	0.987644	-0.469370	-0.000046
C26	C	0.896090	-0.421920	-0.000589
C27	C	0.897743	-0.325230	-0.000040
C28	C	0.990587	-0.301810	-0.000049
C29	C	1.035740	-0.342898	0.139053
C30	C	1.033440	-0.439533	0.139170
C31	C	1.035341	-0.439888	-0.137848
C32	C	1.035319	-0.342942	-0.139686
C33	C	0.992255	-0.207113	-0.000047
C34	C	0.985979	-0.564068	-0.000039
C35	C	1.142202	0.108269	-0.000051
C36	C	1.235154	0.109904	-0.000064
C37	C	0.983003	0.267493	-0.000043
C38	C	0.984655	0.360443	-0.000044
N39	N	0.989109	0.114404	0.346623
N40	N	0.989129	0.114409	-0.346706
C41	C	1.046052	0.057495	0.423273
C42	C	1.046060	0.057495	0.576610
C43	C	0.932180	0.171321	0.576633
C44	C	0.932168	0.171316	0.423299
H45	H	0.431095	0.000777	0.148645
H46	H	1.103950	-0.328785	0.144219
H47	H	1.092427	0.011154	0.639015
N48	N	0.583236	-0.016214	0.139736
N49	N	0.539635	-0.076280	0.136594
H50	H	0.567787	-0.136082	0.137790
N51	N	0.850197	-0.445155	-0.125741
N52	N	0.884425	-0.496960	-0.215996
H53	H	0.852014	-0.513373	-0.304393
H54	H	0.862249	-0.296800	-0.099754
N55	N	0.874024	0.229446	0.654981
N56	N	0.874041	0.229443	0.791885
H57	H	0.832968	0.270496	0.847219
H58	H	0.418093	0.098646	-0.242593
N59	N	0.850389	-0.446500	0.123857
N60	N	0.884953	-0.498812	0.212945
H61	H	0.852679	-0.516174	0.300838
H62	H	1.000507	-0.457830	0.243158
N63	N	0.548610	0.253615	0.124818
N64	N	0.517091	0.327993	0.143486
H65	H	0.533465	0.360603	0.231673
N66	N	0.874012	0.229465	0.344995
N67	N	0.900571	0.281448	0.259416
H68	H	0.859499	0.322514	0.204113
N69	N	0.393037	0.250538	0.124233
N70	N	0.439521	0.283237	0.212373
H71	H	0.414309	0.314857	0.300537
H72	H	0.561431	0.102558	-0.243170
H73	H	0.862003	-0.297360	0.099847
H74	H	0.545040	0.243687	-0.099449
H75	H	1.100657	-0.471794	0.145474
H76	H	0.400896	0.241310	-0.100699
H77	H	0.432376	-0.000718	-0.143657
N78	N	0.583588	-0.014512	-0.146409
N79	N	0.540444	-0.074890	-0.151493
H80	H	0.569029	-0.134451	-0.156730
H81	H	0.419090	0.101638	0.242561
N82	N	0.569095	0.106276	0.270070
N83	N	0.609497	0.168650	0.264009
H84	H	0.627660	0.195364	0.357255
N85	N	1.120029	-0.479725	-0.139029
N86	N	1.168292	-0.468601	-0.034923
H87	H	1.228103	-0.496735	-0.035746
N88	N	0.996384	-0.307286	0.268913
N89	N	0.935092	-0.251657	0.259376
H90	H	0.907291	-0.226507	0.351086
H91	H	1.005411	-0.460420	-0.243280
N92	N	0.993952	-0.308685	-0.268775
N93	N	0.931757	-0.254177	-0.258088
H94	H	0.902539	-0.229978	-0.349254
H95	H	1.092416	0.011153	0.360847
N96	N	1.120250	-0.323667	-0.150238
N97	N	1.149325	-0.279107	-0.054582
H98	H	1.209309	-0.265490	-0.062028
