data_functionalizedCrystal
_audit_creation_method	'MofGen! by Chris Wilmer'
_symmetry_space_group_name_H-M	'P1'
_symmetry_Int_Tables_number	1
_symmetry_cell_setting	triclinic
loop_
_symmetry_equiv_pos_as_xyz
  x,y,z
_cell_length_a	8.497374
_cell_length_b	8.497374
_cell_length_c	12.759395
_cell_angle_alpha	89.997371
_cell_angle_beta	90.001171
_cell_angle_gamma	90.005237
loop_
_atom_site_label
_atom_site_type_symbol
_atom_site_fract_x
_atom_site_fract_y
_atom_site_fract_z
Zn1	Zn	0.892083	0.628265	1.606168
Zn2	Zn	0.628349	0.892011	1.606159
Zn3	Zn	0.628313	0.628245	1.430525
Zn4	Zn	0.892083	0.892004	1.430500
O5	O	0.760207	0.760131	1.518338
O6	O	0.857113	0.663262	1.753187
O7	O	0.407582	0.857016	1.582868
O8	O	0.663288	0.407486	1.453838
O9	O	0.663349	0.857035	1.753181
O10	O	0.857078	0.407500	1.582882
O11	O	0.407555	0.663229	1.453830
O12	O	0.663287	0.663223	1.283501
O13	O	1.112845	0.857024	1.453795
O14	O	0.857078	0.857005	1.283482
O15	O	1.112845	0.663256	1.582858
O16	O	0.663348	1.112772	1.582844
O17	O	0.857113	1.112767	1.453787
C18	C	0.760180	0.760112	1.245370
C19	C	0.760205	0.760142	1.128594
C20	C	1.171687	0.760133	1.518330
C21	C	1.350331	0.760150	1.518332
C22	C	0.760230	1.170011	1.518325
C23	C	0.760204	1.348655	1.518353
C24	C	0.961673	0.962253	1.128613
C25	C	1.062412	1.063321	1.073762
C26	C	1.062431	1.063341	0.964040
C27	C	0.961704	0.962277	0.909167
C28	C	0.860966	0.861209	0.964018
C29	C	0.860954	0.861204	1.073743
C30	C	0.659509	0.659092	0.963999
C31	C	0.659479	0.659078	1.073721
C32	C	0.558782	0.558029	0.909126
C33	C	0.458033	0.456966	0.963977
C34	C	0.458017	0.456952	1.073705
C35	C	0.558740	0.558010	1.128572
C36	C	0.760235	0.760152	1.792371
C37	C	0.760247	0.760160	1.909148
H38	H	0.961656	0.962259	1.217954
C39	C	1.173239	1.174506	0.903697
H40	H	1.158825	1.160029	0.830493
H41	H	1.149989	1.280464	0.921677
H42	H	1.279276	1.151580	0.921683
C43	C	1.173202	1.174483	1.134123
H44	H	1.158758	1.160012	1.207325
H45	H	1.279237	1.151579	1.116149
H46	H	1.149936	1.280449	1.116142
H47	H	0.961743	0.962288	0.819826
C48	C	0.347252	0.345805	0.903622
H49	H	0.287253	0.285606	0.952001
H50	H	0.278434	0.406038	0.860807
H51	H	0.407733	0.277166	0.860832
H52	H	0.558812	0.558045	0.819785
C53	C	0.347207	0.345771	1.134034
H54	H	0.287222	0.285597	1.085635
H55	H	0.407656	0.277133	1.176841
H56	H	0.278353	0.406001	1.176829
H57	H	0.558732	0.558013	1.217913
