data_functionalizedCrystal
_audit_creation_method	'MofGen! by Chris Wilmer'
_symmetry_space_group_name_H-M	'P1'
_symmetry_Int_Tables_number	1
_symmetry_cell_setting	triclinic
loop_
_symmetry_equiv_pos_as_xyz
  x,y,z
_cell_length_a	15.298068
_cell_length_b	25.639239
_cell_length_c	15.296720
_cell_angle_alpha	80.361793
_cell_angle_beta	91.645182
_cell_angle_gamma	99.698099
loop_
_atom_site_label
_atom_site_type_symbol
_atom_site_fract_x
_atom_site_fract_y
_atom_site_fract_z
Zn1	Zn	1.253305	-0.155542	0.727332
Zn2	Zn	1.753305	0.344458	1.227332
Zn3	Zn	1.278533	-0.225763	0.580848
Zn4	Zn	1.778533	0.274237	1.080848
Zn5	Zn	1.132187	-0.150461	0.555499
Zn6	Zn	1.632187	0.349539	1.055499
Zn7	Zn	1.106749	-0.255075	0.701865
Zn8	Zn	1.606749	0.244925	1.201865
O9	O	1.192693	-0.196710	0.641386
O10	O	1.692693	0.303290	1.141386
O11	O	1.379232	-0.154716	0.729167
O12	O	1.879232	0.345284	1.229167
O13	O	1.280325	-0.201381	0.454927
O14	O	1.780325	0.298619	0.954927
O15	O	1.148341	-0.077966	0.578343
O16	O	1.648341	0.422034	1.078343
O17	O	1.397767	-0.206307	0.621546
O18	O	1.897767	0.293693	1.121546
O19	O	1.237326	-0.081699	0.704587
O20	O	1.737326	0.418301	1.204587
O21	O	1.172804	-0.146057	0.436303
O22	O	1.672804	0.353943	0.936303
O23	O	1.006232	-0.174479	0.553649
O24	O	1.506232	0.325521	1.053649
O25	O	1.104985	-0.256265	0.827802
O26	O	1.604985	0.243735	1.327802
O27	O	0.987542	-0.251338	0.661183
O28	O	1.487542	0.248662	1.161183
O29	O	1.212659	-0.183138	0.846512
O30	O	1.712659	0.316862	1.346512
O31	O	1.255658	-0.302820	0.596852
O32	O	1.755658	0.197180	1.096852
O33	O	1.129449	-0.324356	0.685763
O34	O	1.629449	0.175644	1.185763
C35	C	0.965103	-0.215539	0.601903
C36	C	1.465103	0.284461	1.101903
C37	C	0.867736	-0.223609	0.585032
C38	C	1.367736	0.276391	1.085032
C39	C	0.554612	-0.139164	0.761964
C40	C	1.054612	0.360836	1.261964
C41	C	0.646093	-0.131584	0.777819
C42	C	1.146093	0.368416	1.277819
C43	C	0.701508	-0.154589	0.729624
C44	C	1.201508	0.345411	1.229624
C45	C	0.665433	-0.185176	0.665570
C46	C	1.165433	0.314824	1.165570
C47	C	0.573943	-0.192761	0.649718
C48	C	1.073943	0.307239	1.149718
C49	C	0.720839	-0.208186	0.617378
C50	C	1.220839	0.291814	1.117378
C51	C	0.684764	-0.238773	0.553324
C52	C	1.184764	0.261227	1.053324
C53	C	0.593282	-0.246355	0.537475
C54	C	1.093282	0.253645	1.037475
C55	C	0.537867	-0.223350	0.585670
C56	C	1.037867	0.276650	1.085670
C57	C	0.812329	-0.200602	0.633230
C58	C	1.312329	0.299398	1.133230
C59	C	0.831660	-0.254198	0.520984
C60	C	1.331660	0.245802	1.020984
C61	C	0.740179	-0.261778	0.505129
C62	C	1.240179	0.238222	1.005129
C63	C	1.192551	-0.332560	0.641318
C64	C	1.692551	0.167440	1.141318
C65	C	1.192565	-0.390674	0.641332
C66	C	1.692565	0.109326	1.141332
C67	C	1.126969	-0.653085	0.687662
C68	C	1.626969	-0.153085	1.187662
C69	C	1.126938	-0.598482	0.687647
C70	C	1.626938	-0.098482	1.187647
O71	O	1.071027	-0.579791	0.726984
O72	O	1.571027	-0.079791	1.226984
N73	N	1.192667	-0.559944	0.641397
N74	N	1.692667	-0.059944	1.141397
C75	C	1.258437	-0.576012	0.595167
C76	C	1.758437	-0.076012	1.095167
O77	O	1.314343	-0.538219	0.555827
O78	O	1.814343	-0.038219	1.055827
C79	C	1.258471	-0.630614	0.595189
C80	C	1.758471	-0.130614	1.095189
C81	C	1.192732	-0.669149	0.641434
C82	C	1.692732	-0.169149	1.141434
C83	C	1.061235	-0.691619	0.733905
C84	C	1.561235	-0.191619	1.233905
C85	C	1.061265	-0.746218	0.733919
C86	C	1.561265	-0.246218	1.233919
C87	C	1.127029	-0.762283	0.687691
C88	C	1.627029	-0.262283	1.187691
C89	C	1.192762	-0.723748	0.641448
C90	C	1.692762	-0.223748	1.141448
C91	C	1.324243	-0.646680	0.548965
C92	C	1.824243	-0.146680	1.048965
C93	C	1.324272	-0.701287	0.548991
C94	C	1.824272	-0.201287	1.048991
C95	C	1.258533	-0.739823	0.595236
C96	C	1.758533	-0.239823	1.095236
C97	C	1.258555	-0.794411	0.595234
C98	C	1.758555	-0.294411	1.095234
N99	N	1.192825	-0.832949	0.641484
N100	N	1.692825	-0.332949	1.141484
C101	C	1.127062	-0.816885	0.687712
C102	C	1.627062	-0.316885	1.187712
C103	C	1.258363	-0.461345	0.595127
C104	C	1.758363	0.038655	1.095127
C105	C	1.258326	-0.406743	0.595099
C106	C	1.758326	0.093257	1.095099
C107	C	1.126828	-0.429217	0.687581
C108	C	1.626828	0.070783	1.187581
C109	C	1.126861	-0.483819	0.687602
C110	C	1.626861	0.016181	1.187602
C111	C	1.192633	-0.499882	0.641377
C112	C	1.692633	0.000118	1.141377
C113	C	1.127130	-0.931546	0.687738
C114	C	1.627130	-0.431546	1.187738
C115	C	1.127163	-0.986148	0.687745
C116	C	1.627163	-0.486148	1.187745
C117	C	1.258664	-0.963670	0.595268
C118	C	1.758664	-0.463670	1.095268
C119	C	1.258628	-0.909072	0.595257
C120	C	1.758628	-0.409072	1.095257
C121	C	1.192857	-0.893012	0.641499
C122	C	1.692857	-0.393012	1.141499
O123	O	1.314440	-0.813142	0.555920
O124	O	1.814440	-0.313142	1.055920
O125	O	1.071173	-0.854683	0.727055
O126	O	1.571173	-0.354683	1.227055
C127	C	1.421172	-0.177808	0.681024
C128	C	1.921172	0.322192	1.181024
C129	C	1.518536	-0.169754	0.697916
C130	C	2.018536	0.330246	1.197916
C131	C	1.153171	-0.223538	0.869824
C132	C	1.653171	0.276462	1.369824
C133	C	1.136328	-0.234970	0.967170
C134	C	1.636328	0.265030	1.467170
C135	C	1.192857	-0.060330	0.641478
C136	C	1.692857	0.439670	1.141478
C137	C	1.192927	-0.002213	0.641517
C138	C	1.692927	0.497787	1.141517
C139	C	1.232113	-0.169945	0.413846
C140	C	1.732113	0.330055	0.913846
C141	C	1.249125	-0.158351	0.316529
C142	C	1.749125	0.341649	0.816529
C143	C	1.313101	-0.114907	1.280540
C144	C	1.813101	0.385093	1.780540
C145	C	1.328930	-0.104166	1.189080
C146	C	1.828930	0.395834	1.689080
C147	C	1.280781	-0.136866	1.133598
C148	C	1.780781	0.363134	1.633598
C149	C	1.216800	-0.180309	1.169586
C150	C	1.716800	0.319691	1.669586
C151	C	1.200973	-0.191053	1.261057
C152	C	1.700973	0.308947	1.761057
C153	C	1.168654	-0.213012	1.114114
C154	C	1.668654	0.286988	1.614114
C155	C	1.104672	-0.256455	1.150102
C156	C	1.604672	0.243545	1.650102
C157	C	1.088848	-0.267198	1.241564
C158	C	1.588848	0.232802	1.741564
C159	C	1.136998	-0.234498	1.297046
C160	C	1.636998	0.265502	1.797046
C161	C	1.184480	-0.202268	1.022643
C162	C	1.684480	0.297732	1.522643
C163	C	1.072353	-0.278414	1.003159
C164	C	1.572353	0.221586	1.503159
C165	C	1.056523	-0.289155	1.094620
C166	C	1.556523	0.210845	1.594620
H167	H	0.509484	-0.120440	0.801202
H168	H	1.009484	0.379560	1.301202
H169	H	1.004428	-0.324527	1.123935
H170	H	1.504428	0.175473	1.623935
Br171	Br	1.413474	-0.594396	0.486209
Br172	Br	1.913474	-0.094396	0.986209
Br173	Br	1.115520	-0.249075	1.421178
Br174	Br	1.615520	0.250925	1.921178
H175	H	1.293673	-0.128118	1.059127
H176	H	1.793673	0.371882	1.559127
Br177	Br	0.691210	-0.303287	0.418200
Br178	Br	1.191210	0.196713	0.918200
H179	H	1.377835	-0.714361	0.511351
H180	H	1.877835	-0.214361	1.011351
H181	H	1.312152	-0.877694	0.557589
H182	H	1.812152	-0.377694	1.057589
Br183	Br	0.972054	-0.798509	0.796700
Br184	Br	1.472054	-0.298509	1.296700
H185	H	1.036758	-0.302575	1.270863
H186	H	1.536758	0.197425	1.770863
H187	H	0.463374	-0.229524	0.572770
H188	H	0.963374	0.270476	1.072770
H189	H	0.563912	-0.271266	0.485324
H190	H	1.063912	0.228734	0.985324
H191	H	0.876779	-0.272934	0.481744
H192	H	1.376779	0.227066	0.981744
Br193	Br	0.971975	-0.669830	0.796654
Br194	Br	1.471975	-0.169830	1.296654
Br195	Br	1.037640	-0.536112	0.750365
Br196	Br	1.537640	-0.036112	1.250365
H197	H	1.311922	-0.474417	0.557477
H198	H	1.811922	0.025583	1.057477
Br199	Br	1.007011	-0.322800	0.927871
Br200	Br	1.507011	0.177200	1.427871
H201	H	1.352302	-0.088290	1.325722
H202	H	1.852302	0.411710	1.825722
H203	H	1.381026	-0.068796	1.159785
H204	H	1.881026	0.431204	1.659785
Br205	Br	0.825663	-0.144301	0.751142
Br206	Br	1.325663	0.355699	1.251142
Br207	Br	1.037939	-1.038444	0.750509
Br208	Br	1.537939	-0.538444	1.250509
Br209	Br	0.695044	-0.090079	0.864751
Br210	Br	1.195044	0.409921	1.364751
H211	H	1.236574	-0.166896	0.993351
H212	H	1.736574	0.333104	1.493351
Br213	Br	1.037868	-0.909759	0.750495
Br214	Br	1.537868	-0.409759	1.250495
Br215	Br	1.347536	-0.354451	0.532320
Br216	Br	1.847536	0.145549	1.032320
Br217	Br	1.037573	-0.407405	0.750315
Br218	Br	1.537573	0.092595	1.250315
H219	H	1.312204	-0.976759	0.557627
H220	H	1.812204	-0.476759	1.057627
H221	H	0.841692	-0.175697	0.685382
H222	H	1.341692	0.324303	1.185382
