data_functionalizedCrystal
_audit_creation_method	'MofGen! by Chris Wilmer'
_symmetry_space_group_name_H-M	'P1'
_symmetry_Int_Tables_number	1
_symmetry_cell_setting	triclinic
loop_
_symmetry_equiv_pos_as_xyz
  x,y,z
_cell_length_a	12.811457
_cell_length_b	23.532357
_cell_length_c	22.610064
_cell_angle_alpha	89.998923
_cell_angle_beta	95.423661
_cell_angle_gamma	83.439233
loop_
_atom_site_label
_atom_site_type_symbol
_atom_site_fract_x
_atom_site_fract_y
_atom_site_fract_z
O1	O	1.391829	0.076705	0.025464
O2	O	1.086162	0.085045	0.009066
O3	O	1.248240	-0.002008	0.017773
O4	O	1.229751	0.163758	0.016757
O5	O	1.248211	-0.001995	0.116141
O6	O	1.086133	0.085058	0.107434
O7	O	1.391801	0.076719	0.123831
Zn8	Zn	1.238962	0.080890	0.131250
Zn9	Zn	1.239000	0.080873	0.001647
O10	O	1.229722	0.163772	0.115124
C11	C	1.047049	0.084584	0.056153
C12	C	0.930548	0.083184	0.049903
C13	C	0.711601	0.080557	0.145413
C14	C	0.602138	0.079241	0.139544
C15	C	0.602160	0.079232	0.032298
C16	C	0.711622	0.080548	0.038167
C17	C	0.766339	0.081211	0.094726
C18	C	0.875802	0.082531	0.100594
C19	C	0.875823	0.082518	-0.006652
C20	C	0.766360	0.081203	-0.012520
C21	C	1.247763	-0.023221	0.066934
C22	C	1.246373	-0.086447	0.066865
C23	C	1.237659	-0.478513	0.012744
C24	C	1.236338	-0.537920	0.012670
O25	O	1.235632	-0.568646	-0.032970
N26	N	1.235666	-0.567627	0.066254
C27	C	1.236306	-0.537924	0.119916
O28	O	1.235613	-0.568648	0.165487
C29	C	1.237621	-0.478518	0.119989
C30	C	1.238302	-0.448815	0.066402
C31	C	1.238340	-0.448809	-0.040839
C32	C	1.239664	-0.389407	-0.040764
C33	C	1.240307	-0.359708	0.012894
C34	C	1.239626	-0.389412	0.066477
C35	C	1.238253	-0.448816	0.173650
C36	C	1.239566	-0.389406	0.173718
C37	C	1.240248	-0.359702	0.120131
C38	C	1.241593	-0.300311	0.120209
N39	N	1.242264	-0.270604	0.066624
C40	C	1.241621	-0.300302	0.012967
C41	C	1.233545	-0.662681	0.119758
C42	C	1.232238	-0.722086	0.119686
C43	C	1.232267	-0.722078	0.012439
C44	C	1.233581	-0.662672	0.012513
C45	C	1.234216	-0.632973	0.066174
C46	C	1.244402	-0.175553	0.013128
C47	C	1.245730	-0.116146	0.013207
C48	C	1.245695	-0.116159	0.120453
C49	C	1.244372	-0.175562	0.120374
C50	C	1.243722	-0.205257	0.066706
O51	O	1.242295	-0.269547	0.165826
O52	O	1.242300	-0.269571	-0.032597
C53	C	1.430913	0.077179	0.076743
C54	C	1.547414	0.078580	0.082989
C55	C	1.230199	0.184984	0.065962
C56	C	1.231589	0.248210	0.066027
N57	N	1.238944	0.080902	0.219702
C58	C	1.310770	0.042336	0.632202
C59	C	1.310776	0.042332	0.694122
O60	O	1.371801	0.009548	0.729419
N61	N	1.238998	0.080866	0.721242
C62	C	1.167203	0.119402	0.686438
O63	O	1.106150	0.152177	0.715191
C64	C	1.167194	0.119402	0.624519
C65	C	1.238983	0.080870	0.597403
C66	C	1.382553	0.003806	0.605085
C67	C	1.382549	0.003811	0.543170
C68	C	1.310762	0.042345	0.508370
C69	C	1.238979	0.080875	0.535487
C70	C	1.095395	0.157935	0.589715
C71	C	1.095391	0.157932	0.527792
C72	C	1.167180	0.119400	0.500676
C73	C	1.167187	0.119413	0.438771
N74	N	1.238965	0.080880	0.411652
C75	C	1.310752	0.042346	0.446451
C76	C	1.167227	0.119397	0.816473
C77	C	1.167241	0.119400	0.878391
C78	C	1.310812	0.042329	0.886071
C79	C	1.310803	0.042330	0.824152
C80	C	1.239005	0.080864	0.789353
C81	C	1.310739	0.042358	0.316423
C82	C	1.310731	0.042368	0.254501
C83	C	1.167156	0.119436	0.246827
C84	C	1.167167	0.119429	0.308743
C85	C	1.238962	0.080885	0.343540
O86	O	1.106190	0.152179	0.403437
O87	O	1.371786	0.009571	0.417689
N88	N	1.239025	0.080864	0.913196
H89	H	0.557593	0.078683	-0.013750
Cl90	Cl	1.243535	-0.212906	0.187742
Cl91	Cl	1.401057	-0.006115	0.929832
H92	H	1.369194	0.010990	0.232426
H93	H	0.756150	0.081104	0.191466
Cl94	Cl	0.533329	0.078417	0.203268
H95	H	1.108763	0.150781	0.788142
Cl96	Cl	1.400999	-0.006097	0.360157
H97	H	1.243867	-0.199723	-0.030574
Cl98	Cl	0.697568	0.080350	-0.083619
H99	H	1.036921	0.189310	0.499461
H100	H	1.108794	0.150783	0.900465
H101	H	1.108720	0.150811	0.330822
Cl102	Cl	1.076914	0.167878	0.203069
H103	H	1.036937	0.189311	0.611784
Cl104	Cl	0.944640	0.083351	-0.070376
Cl105	Cl	1.234435	-0.625336	-0.054857
Cl106	Cl	1.234352	-0.625353	0.187225
H107	H	1.246287	-0.091964	-0.030432
H108	H	1.240215	-0.365227	-0.084400
H109	H	1.237813	-0.472983	-0.084536
Cl110	Cl	1.246503	-0.078813	0.187904
H111	H	1.231740	-0.746269	-0.031252
H112	H	0.920350	0.083074	0.146648
Cl113	Cl	1.472795	-0.044635	0.509087
H114	H	1.231699	-0.746267	0.163323
Cl115	Cl	1.237389	-0.486142	0.241021
Cl116	Cl	1.472812	-0.044643	0.648824
H117	H	1.240067	-0.365227	0.217416
H118	H	1.369259	0.010953	0.802078
