data_functionalizedCrystal
_audit_creation_method	'MofGen! by Chris Wilmer'
_symmetry_space_group_name_H-M	'P1'
_symmetry_Int_Tables_number	1
_symmetry_cell_setting	triclinic
loop_
_symmetry_equiv_pos_as_xyz
  x,y,z
_cell_length_a	13.897449
_cell_length_b	13.897448
_cell_length_c	13.897431
_cell_angle_alpha	90.075904
_cell_angle_beta	90.049745
_cell_angle_gamma	90.018972
loop_
_atom_site_label
_atom_site_type_symbol
_atom_site_fract_x
_atom_site_fract_y
_atom_site_fract_z
Zn1	Zn	-1.474979	0.383520	-0.545382
Zn2	Zn	-1.224979	0.633520	-0.295382
Zn3	Zn	-0.974979	0.883520	-0.045382
Zn4	Zn	-0.724979	1.133520	0.204618
Zn5	Zn	-1.474791	0.544969	-0.384083
Zn6	Zn	-1.224791	0.794969	-0.134083
Zn7	Zn	-0.974791	1.044969	0.115917
Zn8	Zn	-0.724791	1.294969	0.365917
Zn9	Zn	-1.313586	0.383693	-0.384100
Zn10	Zn	-1.063586	0.633693	-0.134100
Zn11	Zn	-0.813586	0.883693	0.115900
Zn12	Zn	-0.563586	1.133693	0.365900
Zn13	Zn	-1.313650	0.544778	-0.545336
Zn14	Zn	-1.063650	0.794778	-0.295336
Zn15	Zn	-0.813650	1.044778	-0.045336
Zn16	Zn	-0.563650	1.294778	0.204664
O17	O	-1.394252	0.464240	-0.464725
O18	O	-1.144252	0.714240	-0.214725
O19	O	-0.894252	0.964240	0.035275
O20	O	-0.644252	1.214240	0.285275
O21	O	-1.609936	0.404944	-0.523998
O22	O	-1.359936	0.654944	-0.273998
O23	O	-1.109936	0.904944	-0.023998
O24	O	-0.859936	1.154944	0.226002
O25	O	-1.453302	0.523728	-0.249104
O26	O	-1.203302	0.773728	0.000896
O27	O	-0.953302	1.023728	0.250896
O28	O	-0.703302	1.273728	0.500896
O29	O	-1.335047	0.248689	-0.405521
O30	O	-1.085047	0.498689	-0.155521
O31	O	-0.835047	0.748689	0.094479
O32	O	-0.585047	0.998689	0.344479
O33	O	-1.609798	0.523560	-0.405492
O34	O	-1.359798	0.773560	-0.155492
O35	O	-1.109798	1.023560	0.094508
O36	O	-0.859798	1.273560	0.344508
O37	O	-1.453622	0.248561	-0.524014
O38	O	-1.203622	0.498561	-0.274014
O39	O	-0.953622	0.748561	-0.024014
O40	O	-0.703622	0.998561	0.225986
O41	O	-1.334865	0.405239	-0.249116
O42	O	-1.084865	0.655239	0.000884
O43	O	-0.834865	0.905239	0.250884
O44	O	-0.584865	1.155239	0.500884
O45	O	-1.178613	0.405054	-0.405476
O46	O	-0.928613	0.655054	-0.155476
O47	O	-0.678613	0.905054	0.094524
O48	O	-0.428613	1.155054	0.344524
O49	O	-1.335155	0.523234	-0.680324
O50	O	-1.085155	0.773234	-0.430324
O51	O	-0.835155	1.023234	-0.180324
O52	O	-0.585155	1.273234	0.069676
O53	O	-1.178660	0.523403	-0.523936
O54	O	-0.928660	0.773403	-0.273936
O55	O	-0.678660	1.023403	-0.023936
O56	O	-0.428660	1.273403	0.226064
O57	O	-1.453683	0.404759	-0.680358
O58	O	-1.203683	0.654759	-0.430358
O59	O	-0.953683	0.904759	-0.180358
O60	O	-0.703683	1.154759	0.069642
O61	O	-1.453363	0.679925	-0.405447
O62	O	-1.203363	0.929925	-0.155447
O63	O	-0.953363	1.179925	0.094553
O64	O	-0.703363	1.429925	0.344553
O65	O	-1.334973	0.679785	-0.523919
O66	O	-1.084973	0.929785	-0.273919
O67	O	-0.834973	1.179785	-0.023919
O68	O	-0.584973	1.429785	0.226081
C69	C	-1.143637	0.464227	-0.464703
C70	C	-0.893637	0.714227	-0.214703
C71	C	-0.643637	0.964227	0.035297
C72	C	-0.393637	1.214227	0.285297
C73	C	-1.036423	0.464245	-0.464717
C74	C	-0.786423	0.714245	-0.214717
C75	C	-0.536423	0.964245	0.035283
C76	C	-0.286423	1.214245	0.285283
C77	C	-1.394181	0.714855	-0.464698
C78	C	-1.144181	0.964855	-0.214698
C79	C	-0.894181	1.214855	0.035302
C80	C	-0.644181	1.464855	0.285302
C81	C	-1.394239	0.822068	-0.464718
C82	C	-1.144239	1.072068	-0.214718
C83	C	-0.894239	1.322068	0.035282
C84	C	-0.644239	1.572068	0.285282
C85	C	-1.394447	0.463956	-0.716319
C86	C	-1.144447	0.713956	-0.466319
C87	C	-0.894447	0.963956	-0.216319
C88	C	-0.644447	1.213956	0.033681
C89	C	-1.394531	0.463835	-0.823533
C90	C	-1.144531	0.713835	-0.573533
C91	C	-0.894531	0.963835	-0.323533
C92	C	-0.644531	1.213835	-0.073533
C93	C	-1.645844	0.464254	-0.464748
C94	C	-1.395844	0.714254	-0.214748
C95	C	-1.145844	0.964254	0.035252
C96	C	-0.895844	1.214254	0.285252
C97	C	-1.753058	0.464260	-0.464758
C98	C	-1.503058	0.714260	-0.214758
C99	C	-1.253058	0.964260	0.035242
C100	C	-1.003058	1.214260	0.285242
C101	C	-0.840128	0.464248	-0.464742
C102	C	-0.590128	0.714248	-0.214742
C103	C	-0.340128	0.964248	0.035258
C104	C	-0.090128	1.214248	0.285258
C105	C	-0.949361	0.464244	-0.464725
C106	C	-0.699361	0.714244	-0.214725
C107	C	-0.449361	0.964244	0.035275
C108	C	-0.199361	1.214244	0.285275
C109	C	-1.394349	0.212647	-0.464775
C110	C	-1.144349	0.462647	-0.214775
C111	C	-0.894349	0.712647	0.035225
C112	C	-0.644349	0.962647	0.285225
C113	C	-1.394390	0.105433	-0.464796
C114	C	-1.144390	0.355433	-0.214796
C115	C	-0.894390	0.605433	0.035204
C116	C	-0.644390	0.855433	0.285204
C117	C	-1.394341	1.018363	-0.464778
C118	C	-1.144341	1.268363	-0.214778
C119	C	-0.894341	1.518363	0.035222
C120	C	-0.644341	1.768363	0.285222
C121	C	-1.394282	0.909131	-0.464748
C122	C	-1.144282	1.159131	-0.214748
C123	C	-0.894282	1.409131	0.035252
C124	C	-0.644282	1.659131	0.285252
C125	C	-1.394112	0.464454	-0.214111
C126	C	-1.144112	0.714454	0.035889
C127	C	-0.894112	0.964454	0.285889
C128	C	-0.644112	1.214454	0.535889
C129	C	-1.394215	0.464303	-0.106897
C130	C	-1.144215	0.714303	0.143103
C131	C	-0.894215	0.964303	0.393103
C132	C	-0.644215	1.214303	0.643103
C133	C	-1.394315	0.464166	-0.019828
C134	C	-1.144315	0.714166	0.230172
C135	C	-0.894315	0.964166	0.480172
C136	C	-0.644315	1.214166	0.730172
C137	C	-1.394438	0.463985	0.089404
C138	C	-1.144438	0.713985	0.339404
C139	C	-0.894438	0.963985	0.589404
C140	C	-0.644438	1.213985	0.839404
