data_functionalizedCrystal
_audit_creation_method	'MofGen! by Chris Wilmer'
_symmetry_space_group_name_H-M	'P1'
_symmetry_Int_Tables_number	1
_symmetry_cell_setting	triclinic
loop_
_symmetry_equiv_pos_as_xyz
  x,y,z
_cell_length_a	27.732048
_cell_length_b	10.654550
_cell_length_c	9.130313
_cell_angle_alpha	90.000110
_cell_angle_beta	89.994713
_cell_angle_gamma	83.563779
loop_
_atom_site_label
_atom_site_type_symbol
_atom_site_fract_x
_atom_site_fract_y
_atom_site_fract_z
O1	O	-0.641855	-0.149411	-0.121607
O2	O	-0.501203	-0.172130	-0.121651
O3	O	-0.574763	0.022105	-0.121623
O4	O	-0.568295	-0.343646	-0.121636
O5	O	-0.574762	0.022100	0.121976
O6	O	-0.501202	-0.172135	0.121948
O7	O	-0.641854	-0.149416	0.121991
Cu8	Cu	-0.571528	-0.160776	0.144212
Cu9	Cu	-0.571529	-0.160770	-0.143872
O10	O	-0.568294	-0.343651	0.121963
C11	C	-0.574287	0.068880	0.000175
C12	C	-0.572867	0.208264	0.000169
C13	C	-0.483193	-0.171655	0.000143
C14	C	-0.429529	-0.170219	0.000126
C15	C	-0.659864	-0.149890	0.000194
C16	C	-0.713528	-0.151326	0.000201
C17	C	-0.091372	-0.275959	0.000186
C18	C	0.110321	-0.270631	0.000199
O19	O	0.140974	-0.367322	0.000259
N20	N	0.130162	-0.155458	0.000200
C21	C	0.099576	-0.041609	0.000208
O22	O	0.121080	0.056475	0.000225
C23	C	-0.102116	-0.046938	0.000205
C24	C	-0.121954	-0.162118	0.000189
C25	C	-0.111211	-0.391130	0.000171
C26	C	-0.161631	-0.392461	0.000160
C27	C	-0.192213	-0.278620	0.000163
C28	C	-0.172374	-0.163449	0.000178
C29	C	-0.132701	0.066910	0.000224
C30	C	-0.183126	0.065567	0.000227
C31	C	-0.202964	-0.049613	0.000210
C32	C	-0.253376	-0.050940	0.000170
N33	N	-0.273217	-0.166113	0.000168
C34	C	-0.242635	-0.279953	0.000165
C35	C	0.205467	-0.038819	0.000207
C36	C	0.255890	-0.037486	0.000205
C37	C	0.266631	-0.266509	0.000198
C38	C	0.216208	-0.267840	0.000190
C39	C	0.185626	-0.153992	0.000205
C40	C	-0.348522	-0.282739	0.000140
C41	C	-0.398947	-0.284060	0.000123
C42	C	-0.409684	-0.055038	0.000137
C43	C	-0.359263	-0.053716	0.000146
C44	C	-0.328683	-0.167577	0.000153
O45	O	-0.284058	0.045700	0.000126
O46	O	-0.264149	-0.378023	0.000181
C47	C	-0.040952	-0.274628	0.000197
C48	C	-0.021113	-0.159457	0.000212
C49	C	-0.051695	-0.045616	0.000215
C50	C	0.029309	-0.158124	0.000210
C51	C	0.059891	-0.271965	0.000206
C52	C	0.040050	-0.387138	0.000205
C53	C	-0.010370	-0.388469	0.000194
C54	C	-0.031854	0.069557	0.000216
C55	C	0.018567	0.070878	0.000226
C56	C	0.049148	-0.042962	0.000223
C57	C	-0.568769	-0.390426	0.000162
C58	C	-0.570190	-0.529810	0.000158
N59	N	-0.571531	-0.160779	0.346835
C60	C	-0.616177	0.289570	0.000187
C61	C	-0.614840	0.420535	0.000176
C62	C	-0.526876	0.388874	0.000136
C63	C	-0.528215	0.257912	0.000136
C64	C	-0.660830	0.239922	0.000220
C65	C	-0.704144	0.321230	0.000239
C66	C	-0.702806	0.452195	0.000229
C67	C	-0.658154	0.501852	0.000199
N68	N	-0.571530	-0.160756	-0.346494
C69	C	-0.604111	-0.074801	0.423499
C70	C	-0.604110	-0.074786	0.576836
C71	C	-0.538946	-0.246739	0.576830
C72	C	-0.538945	-0.246747	0.423496
C73	C	-0.636697	0.011166	0.346838
C74	C	-0.669281	0.097151	0.423502
C75	C	-0.669279	0.097166	0.576839
C76	C	-0.636694	0.011197	0.653511
H77	H	-0.415096	-0.377858	0.000108
Cl78	Cl	-0.310086	-0.425881	0.000146
H79	H	0.200059	-0.361630	0.000185
Cl80	Cl	0.305086	-0.409622	0.000200
H81	H	-0.636693	0.011224	0.778368
Cl82	Cl	-0.662515	0.075283	0.000238
Cl83	Cl	-0.070293	0.212686	0.000221
Cl84	Cl	-0.760275	0.258806	0.000258
Cl85	Cl	-0.334323	0.091083	0.000174
Cl86	Cl	-0.497986	-0.354811	0.673218
H87	H	-0.636702	0.011160	0.221983
Cl88	Cl	-0.656473	0.666495	0.000250
H89	H	0.272038	0.056305	0.000195
Cl90	Cl	-0.710237	0.205267	0.673216
H91	H	-0.492947	0.191709	0.000124
Cl92	Cl	0.167029	0.104321	0.000222
H93	H	-0.116558	0.160702	0.000238
H94	H	0.034713	0.164679	0.000228
H95	H	-0.738075	0.518393	0.000230
H96	H	-0.086315	-0.483838	0.000174
Cl97	Cl	-0.470746	0.451302	0.000102
H98	H	-0.695808	0.167152	0.361068
Cl99	Cl	-0.497984	-0.354834	0.327116
H100	H	-0.177778	-0.486253	0.000146
H101	H	-0.434592	0.037648	0.000134
Cl102	Cl	-0.035302	-0.533275	0.000175
Cl103	Cl	-0.221568	0.208701	0.000249
H104	H	0.064959	-0.479831	0.000196
