data_functionalizedCrystal
_audit_creation_method	'MofGen! by Chris Wilmer'
_symmetry_space_group_name_H-M	'P1'
_symmetry_Int_Tables_number	1
_symmetry_cell_setting	triclinic
loop_
_symmetry_equiv_pos_as_xyz
  x,y,z
_cell_length_a	15.995350
_cell_length_b	15.072220
_cell_length_c	17.699083
_cell_angle_alpha	89.996460
_cell_angle_beta	83.387695
_cell_angle_gamma	90.001272
loop_
_atom_site_label
_atom_site_type_symbol
_atom_site_fract_x
_atom_site_fract_y
_atom_site_fract_z
O1	O	1.110785	-0.073709	0.097556
O2	O	0.866985	-0.073728	0.109603
O3	O	0.995773	-0.073710	-0.006598
O4	O	0.981997	-0.073727	0.213757
O5	O	0.995766	0.073855	-0.006598
O6	O	0.866978	0.073837	0.109604
O7	O	1.110778	0.073856	0.097556
Zn8	Zn	0.988877	0.097276	0.103580
Zn9	Zn	0.988886	-0.097147	0.103579
O10	O	0.981990	0.073838	0.213758
C11	C	0.835788	0.000053	0.109105
C12	C	0.742841	0.000046	0.107612
C13	C	0.405104	0.000065	0.102250
C14	C	0.452706	0.000400	0.019493
C15	C	0.549394	0.000061	0.020987
C16	C	0.572659	0.000056	0.104910
C17	C	0.531493	-0.084211	0.145728
C18	C	0.434861	-0.084275	0.143649
C19	C	0.434511	0.083534	0.145359
C20	C	0.531457	0.084642	0.145339
C21	C	0.667354	0.000048	0.106417
C22	C	0.310409	0.000067	0.100745
N23	N	0.988892	-0.229836	0.103573
C24	C	0.988882	-0.589038	0.103578
C25	C	1.057718	-0.551394	0.041337
C26	C	1.057965	-0.448568	0.041496
C27	C	0.988887	-0.410834	0.103575
C28	C	1.007582	-0.448166	0.182608
C29	C	1.008073	-0.551023	0.182244
C30	C	0.901145	-0.551135	0.087496
C31	C	0.901737	-0.448270	0.085700
C32	C	0.988888	-0.310120	0.103578
C33	C	0.988883	-0.689751	0.103580
C34	C	1.141975	0.000074	0.098054
C35	C	1.234923	0.000075	0.099547
C36	C	0.995276	0.000073	-0.034796
C37	C	0.993795	0.000073	-0.118816
N38	N	0.988878	0.229965	0.103580
C39	C	1.069391	0.000080	-0.167312
C40	C	1.067994	0.000072	-0.246257
C41	C	0.991001	0.000063	-0.276706
C42	C	0.915400	0.000054	-0.228205
C43	C	0.916797	0.000055	-0.149261
C44	C	0.909763	0.000046	-0.546577
C45	C	0.908372	0.000047	-0.625527
C46	C	1.060960	0.000063	-0.643574
C47	C	1.062358	0.000064	-0.564630
C48	C	0.986757	0.000050	-0.516135
C49	C	0.988272	0.000057	-0.430533
C50	C	0.989485	0.000063	-0.362306
C51	C	0.982487	0.000054	0.241955
C52	C	0.983968	0.000048	0.325976
H53	H	0.577320	-0.060445	-0.011316
H54	H	1.122518	0.000070	-0.683068
H55	H	0.402489	-0.088103	0.204407
O56	O	0.413237	-0.159439	0.108087
C57	C	0.461416	-0.295284	0.045789
C58	C	0.486017	-0.210187	0.086034
H59	H	0.520242	-0.336347	0.027962
H60	H	0.430043	-0.276857	-0.006710
H61	H	0.415732	-0.335678	0.086373
H62	H	0.531726	-0.169753	0.045510
H63	H	0.517344	-0.228676	0.138543
H64	H	0.883085	-0.577078	0.031089
H65	H	1.129552	0.000080	-0.285740
H66	H	0.848204	0.000035	-0.507102
H67	H	0.559927	-0.146920	0.117377
H68	H	0.852711	0.000041	-0.253002
O69	O	1.137222	0.000033	-0.535178
C70	C	1.288427	0.000094	-0.561413
C71	C	1.203702	0.000113	-0.594865
H72	H	1.342199	0.000177	-0.609653
H73	H	1.292954	-0.061676	-0.524929
H74	H	1.292848	0.061835	-0.524881
H75	H	1.199224	-0.061587	-0.631431
H76	H	1.199212	0.061924	-0.631306
H77	H	0.545492	-0.087348	0.207384
O78	O	0.409980	0.159725	0.113136
C79	C	0.329562	0.294838	0.130713
C80	C	0.357260	0.208605	0.167341
H81	H	0.286948	0.334390	0.174525
H82	H	0.293832	0.277924	0.080463
H83	H	0.387459	0.336072	0.110041
H84	H	0.299409	0.167330	0.188059
H85	H	0.393020	0.225581	0.217557
O86	O	1.135709	-0.419307	0.053690
C87	C	1.283867	-0.417509	0.009234
C88	C	1.195870	-0.450721	-0.004662
H89	H	1.332529	-0.442878	-0.037943
H90	H	1.299817	-0.443123	0.066466
H91	H	1.284388	-0.341874	0.009442
H92	H	1.195284	-0.526352	-0.004908
H93	H	1.179956	-0.425040	-0.061884
H94	H	0.845671	0.000042	-0.650315
H95	H	0.849924	-0.575480	0.132884
O96	O	0.583498	0.072023	-0.017366
C97	C	0.679798	0.125370	-0.122251
C98	C	0.641263	0.043798	-0.078868
H99	H	0.726496	0.102579	-0.171994
H100	H	0.713729	0.168162	-0.082273
H101	H	0.627643	0.165765	-0.144632
H102	H	0.693366	0.003335	-0.056482
H103	H	0.607311	0.001072	-0.118876
O104	O	0.430820	0.072553	-0.019968
C105	C	0.478120	0.205622	-0.087282
C106	C	0.503028	0.123960	-0.042586
H107	H	0.536488	0.247198	-0.105596
H108	H	0.430555	0.247228	-0.049621
H109	H	0.448876	0.182857	-0.139770
H110	H	0.532307	0.146647	0.009902
H111	H	0.550557	0.082372	-0.080301
H112	H	1.122466	-0.577248	0.051478
O113	O	0.950510	-0.580590	0.239228
C114	C	0.845765	-0.541132	0.342671
C115	C	0.910931	-0.507533	0.278174
H116	H	0.813735	-0.482084	0.374167
H117	H	0.878719	-0.583002	0.383992
H118	H	0.796553	-0.583197	0.317564
H119	H	0.960161	-0.465432	0.303214
H120	H	0.877917	-0.465712	0.236863
O121	O	0.843386	-0.000106	-0.102118
C122	C	0.756435	-0.076540	-0.002475
C123	C	0.839597	-0.076472	-0.055832
H124	H	0.753352	-0.138266	0.034971
H125	H	0.701132	-0.076603	-0.037758
H126	H	0.753282	-0.014758	0.034899
H127	H	0.842833	-0.138245	-0.093217
H128	H	0.894861	-0.076364	-0.020504
H129	H	1.046841	-0.576148	-0.017596
O130	O	0.429482	-0.071219	-0.019915
C131	C	0.446325	-0.151304	-0.138523
C132	C	0.472686	-0.070147	-0.093990
H133	H	0.481256	-0.150475	-0.198416
H134	H	0.375619	-0.148942	-0.141931
H135	H	0.462627	-0.214620	-0.108163
H136	H	0.456440	-0.006790	-0.124314
H137	H	0.543387	-0.072587	-0.090576
O138	O	0.884833	-0.419314	0.016285
C139	C	0.856707	-0.459826	-0.110046
C140	C	0.875857	-0.492743	-0.031474
H141	H	0.849427	-0.519176	-0.148676
H142	H	0.910601	-0.416157	-0.136279
H143	H	0.795850	-0.419765	-0.103331
H144	H	0.936689	-0.532840	-0.038123
H145	H	0.821914	-0.536365	-0.005268
H146	H	0.558831	0.146982	0.115543
O147	O	0.549780	0.090675	0.218309
C148	C	0.658348	0.102825	0.301507
C149	C	0.637719	0.095988	0.218831
H150	H	0.729445	0.107141	0.301955
H151	H	0.633362	0.041660	0.334652
H152	H	0.627496	0.164806	0.329121
H153	H	0.668565	0.034045	0.191150
H154	H	0.662687	0.157197	0.185741
H155	H	0.402626	0.084100	0.206375
O156	O	1.044729	-0.418298	-0.028529
C157	C	1.030043	-0.290597	-0.107852
C158	C	1.045015	-0.324750	-0.028505
H159	H	1.030287	-0.214960	-0.107864
H160	H	0.966625	-0.315585	-0.122581
H161	H	1.082198	-0.315972	-0.151873
H162	H	0.992910	-0.299389	0.015568
H163	H	1.108460	-0.299771	-0.013840
O164	O	1.084451	-0.579494	0.199089
C165	C	1.222003	-0.538053	0.229965
C166	C	1.135546	-0.505695	0.210881
H167	H	1.263332	-0.478403	0.239520
H168	H	1.253410	-0.579505	0.180787
H169	H	1.213248	-0.580217	0.283773
H170	H	1.144228	-0.463496	0.157095
H171	H	1.104169	-0.464290	0.260102
O172	O	0.949460	-0.418972	0.239284
C173	C	0.924015	-0.337164	0.356647
C174	C	0.989928	-0.370187	0.292522
H175	H	0.956705	-0.297699	0.399699
H176	H	0.890065	-0.396410	0.386158
H177	H	0.876461	-0.292882	0.331524
H178	H	1.037534	-0.414454	0.317584
H179	H	1.023813	-0.310900	0.263020
O180	O	0.837746	-0.417800	0.136289
C181	C	0.723871	-0.455460	0.232147
C182	C	0.796289	-0.490080	0.174853
H183	H	0.690344	-0.513880	0.263353
H184	H	0.677317	-0.416941	0.200571
H185	H	0.750381	-0.409915	0.274973
H186	H	0.769855	-0.535659	0.132013
H187	H	0.842831	-0.528548	0.206480
O188	O	1.144256	0.000047	-0.137863
C189	C	1.295462	0.000103	-0.164105
C190	C	1.210734	0.000125	-0.197553
H191	H	1.349230	0.000186	-0.212348
H192	H	1.299989	-0.061667	-0.127621
H193	H	1.299886	0.061844	-0.127574
H194	H	1.206252	-0.061574	-0.234118
H195	H	1.206243	0.061936	-0.233993
H196	H	1.070823	-0.422399	0.197091
