data_functionalizedCrystal
_audit_creation_method	'MofGen! by Chris Wilmer'
_symmetry_space_group_name_H-M	'P1'
_symmetry_Int_Tables_number	1
_symmetry_cell_setting	triclinic
loop_
_symmetry_equiv_pos_as_xyz
  x,y,z
_cell_length_a	23.532407
_cell_length_b	19.288864
_cell_length_c	22.010155
_cell_angle_alpha	89.984364
_cell_angle_beta	89.993714
_cell_angle_gamma	97.007539
loop_
_atom_site_label
_atom_site_type_symbol
_atom_site_fract_x
_atom_site_fract_y
_atom_site_fract_z
O1	O	0.071031	-0.921128	0.050726
O2	O	0.404365	-0.587795	0.384059
O3	O	0.737698	-0.254462	0.717393
O4	O	0.080615	-0.718838	0.050685
O5	O	0.413949	-0.385505	0.384019
O6	O	0.747282	-0.052172	0.717352
O7	O	-0.007096	-0.826083	0.050696
O8	O	0.326238	-0.492750	0.384029
O9	O	0.659571	-0.159417	0.717362
O10	O	0.158742	-0.813883	0.050716
O11	O	0.492076	-0.480550	0.384049
O12	O	0.825409	-0.147217	0.717382
O13	O	-0.007073	-0.826076	-0.050355
O14	O	0.326261	-0.492742	0.282979
O15	O	0.659594	-0.159409	0.616312
O16	O	0.080638	-0.718831	-0.050365
O17	O	0.413972	-0.385497	0.282968
O18	O	0.747305	-0.052164	0.616302
O19	O	0.071055	-0.921121	-0.050324
O20	O	0.404388	-0.587788	0.283009
O21	O	0.737721	-0.254454	0.616342
Cu22	Cu	0.075849	-0.819975	-0.059571
Cu23	Cu	0.409182	-0.486642	0.273762
Cu24	Cu	0.742515	-0.153308	0.607095
Cu25	Cu	0.075821	-0.819984	0.059932
Cu26	Cu	0.409155	-0.486651	0.393266
Cu27	Cu	0.742488	-0.153317	0.726599
O28	O	0.158765	-0.813876	-0.050335
O29	O	0.492099	-0.480542	0.282999
O30	O	0.825432	-0.147209	0.616332
C31	C	0.080318	-0.692959	0.000155
C32	C	0.413652	-0.359626	0.333488
C33	C	0.746985	-0.026292	0.666821
C34	C	0.079393	-0.615858	0.000139
C35	C	0.412726	-0.282525	0.333472
C36	C	0.746059	0.050808	0.666805
C37	C	-0.028301	-0.825769	0.000169
C38	C	0.305033	-0.492436	0.333502
C39	C	0.638366	-0.159102	0.666836
C40	C	-0.091520	-0.824835	0.000164
C41	C	0.241814	-0.491502	0.333497
C42	C	0.575147	-0.158168	0.666831
N43	N	0.075867	-0.819974	-0.143624
N44	N	0.409201	-0.486640	0.189710
N45	N	0.742534	-0.153307	0.523043
C46	C	-0.490503	-0.882442	0.000209
C47	C	-0.157170	-0.549108	0.333542
C48	C	0.176163	-0.215775	0.666876
C49	C	-0.549905	-0.881574	0.000213
C50	C	-0.216572	-0.548241	0.333547
C51	C	0.116761	-0.214907	0.666880
O52	O	-0.586539	-0.934976	0.000247
O53	O	-0.253206	-0.601643	0.333580
O54	O	0.080127	-0.268309	0.666913
N55	N	-0.572664	-0.817817	0.000200
N56	N	-0.239330	-0.484483	0.333534
N57	N	0.094003	-0.151150	0.666867
C58	C	-0.536017	-0.754923	0.000189
C59	C	-0.202683	-0.421590	0.333522
C60	C	0.130650	-0.088256	0.666855
O61	O	-0.560829	-0.700613	0.000178
O62	O	-0.227495	-0.367280	0.333512
O63	O	0.105838	-0.033946	0.666845
C64	C	-0.476616	-0.755792	0.000189
C65	C	-0.143282	-0.422458	0.333522
C66	C	0.190051	-0.089125	0.666855
C67	C	-0.453861	-0.819553	0.000196
C68	C	-0.120528	-0.486220	0.333529
C69	C	0.212806	-0.152886	0.666862
C70	C	-0.467748	-0.946198	0.000217
C71	C	-0.134415	-0.612865	0.333550
C72	C	0.198919	-0.279531	0.666884
C73	C	-0.408350	-0.947065	0.000211
C74	C	-0.075017	-0.613732	0.333545
C75	C	0.258317	-0.280399	0.666878
C76	C	-0.371708	-0.884176	0.000198
C77	C	-0.038374	-0.550843	0.333531
C78	C	0.294959	-0.217510	0.666865
C79	C	-0.394463	-0.820420	0.000190
C80	C	-0.061130	-0.487087	0.333523
C81	C	0.272204	-0.153754	0.666857
C82	C	-0.439970	-0.692899	0.000181
C83	C	-0.106636	-0.359565	0.333515
C84	C	0.226697	-0.026232	0.666848
C85	C	-0.380565	-0.693773	0.000182
C86	C	-0.047232	-0.360439	0.333515
C87	C	0.286101	-0.027106	0.666848
C88	C	-0.357811	-0.757534	0.000189
C89	C	-0.024477	-0.424201	0.333522
C90	C	0.308856	-0.090867	0.666856
C91	C	-0.298422	-0.758399	0.000171
C92	C	0.034911	-0.425066	0.333505
C93	C	0.368244	-0.091732	0.666838
N94	N	-0.275664	-0.822156	0.000184
N95	N	0.057669	-0.488823	0.333518
N96	N	0.391003	-0.155490	0.666851
C97	C	-0.312307	-0.885045	0.000198
C98	C	0.021027	-0.551712	0.333531
C99	C	0.354360	-0.218378	0.666864
C100	C	-0.660763	-0.753104	0.000190
C101	C	-0.327430	-0.419771	0.333523
C102	C	0.005904	-0.086438	0.666857
C103	C	-0.720163	-0.752235	0.000186
C104	C	-0.386829	-0.418902	0.333519
C105	C	-0.053496	-0.085568	0.666852
C106	C	-0.734047	-0.878886	0.000212
C107	C	-0.400714	-0.545553	0.333545
C108	C	-0.067381	-0.212219	0.666878
C109	C	-0.674647	-0.879755	0.000212
C110	C	-0.341313	-0.546421	0.333545
C111	C	-0.007980	-0.213088	0.666878
C112	C	-0.638005	-0.816861	0.000203
C113	C	-0.304671	-0.483528	0.333537
C114	C	0.028662	-0.150195	0.666870
C115	C	-0.187566	-0.886862	0.000186
C116	C	0.145767	-0.553528	0.333519
C117	C	0.479101	-0.220195	0.666852
C118	C	-0.128162	-0.887724	0.000178
C119	C	0.205171	-0.554390	0.333511
C120	C	0.538504	-0.221057	0.666844
C121	C	-0.114283	-0.761073	0.000155
C122	C	0.219051	-0.427740	0.333488
C123	C	0.552384	-0.094406	0.666821
C124	C	-0.173681	-0.760211	0.000160
C125	C	0.159652	-0.426877	0.333493
C126	C	0.492985	-0.093544	0.666826
C127	C	-0.210322	-0.823111	0.000177
C128	C	0.123011	-0.489777	0.333510
C129	C	0.456344	-0.156444	0.666844
O130	O	-0.261754	-0.705025	0.000141
O131	O	0.071579	-0.371692	0.333474
O132	O	0.404913	-0.038358	0.666807
O133	O	-0.287486	-0.939346	0.000216
O134	O	0.045847	-0.606013	0.333549
O135	O	0.379180	-0.272679	0.666883
C136	C	0.179971	-0.814190	0.000193
C137	C	0.513304	-0.480857	0.333527
C138	C	0.846637	-0.147523	0.666860
C139	C	0.243190	-0.815124	0.000202
C140	C	0.576523	-0.481791	0.333536
C141	C	0.909856	-0.148458	0.666869
C142	C	0.071351	-0.947000	0.000208
C143	C	0.404685	-0.613667	0.333541
C144	C	0.738018	-0.280333	0.666874
C145	C	0.072277	-1.024101	0.000228
C146	C	0.405610	-0.690768	0.333561
C147	C	0.738944	-0.357434	0.666894
C148	C	0.130858	-0.571003	0.000154
C149	C	0.464191	-0.237670	0.333488
C150	C	0.797524	0.095663	0.666821
C151	C	0.129988	-0.498559	0.000161
C152	C	0.463321	-0.165225	0.333494
C153	C	0.796655	0.168108	0.666828
C154	C	0.077650	-0.470973	0.000164
C155	C	0.410984	-0.137639	0.333498
C156	C	0.744317	0.195694	0.666831
C157	C	0.026179	-0.515838	0.000145
C158	C	0.359512	-0.182504	0.333478
C159	C	0.692846	0.150829	0.666812
C160	C	0.027050	-0.588280	0.000132
C161	C	0.360383	-0.254947	0.333466
C162	C	0.693717	0.078386	0.666799
C163	C	0.036499	-0.362840	0.035582
C164	C	0.369833	-0.029507	0.368915
C165	C	0.703166	0.303826	0.702249
C166	C	0.035630	-0.290398	0.035599
C167	C	0.368964	0.042935	0.368932
C168	C	0.702297	0.376268	0.702265
C169	C	0.074961	-0.247535	0.000201
C170	C	0.408295	0.085798	0.333534
C171	C	0.741628	0.419131	0.666867
C172	C	0.115171	-0.277121	-0.035206
C173	C	0.448505	0.056212	0.298127
C174	C	0.781838	0.389545	0.631461
C175	C	0.116042	-0.349564	-0.035219
C176	C	0.449376	-0.016231	0.298115
C177	C	0.782709	0.317102	0.631448
C178	C	0.076700	-0.392422	0.000178
C179	C	0.410033	-0.059088	0.333511
C180	C	0.743367	0.274245	0.666844
C181	C	0.125487	-0.124127	0.000223
C182	C	0.458820	0.209206	0.333556
C183	C	0.792153	0.542539	0.666889
C184	C	0.124615	-0.051682	0.000226
C185	C	0.457948	0.281651	0.333559
C186	C	0.791282	0.614985	0.666892
C187	C	0.020804	-0.068962	0.000216
C188	C	0.354138	0.264371	0.333549
C189	C	0.687471	0.597704	0.666882
C190	C	0.021678	-0.141406	0.000207
C191	C	0.355011	0.191927	0.333540
C192	C	0.688344	0.525261	0.666873
C193	C	0.074021	-0.168984	0.000213
C194	C	0.407354	0.164349	0.333546
C195	C	0.740687	0.497683	0.666880
C196	C	0.114660	-0.772470	-0.436240
C197	C	0.447994	-0.439136	-0.102907
C198	C	0.781327	-0.105803	0.230426
C199	C	0.114666	-0.772468	-0.372633
C200	C	0.447999	-0.439135	-0.039299
C201	C	0.781332	-0.105801	0.294034
O202	O	0.147672	-0.732058	-0.339745
O203	O	0.481006	-0.398724	-0.006412
O204	O	0.814339	-0.065391	0.326921
N205	N	0.075846	-0.819968	-0.340808
N206	N	0.409179	-0.486635	-0.007475
N207	N	0.742512	-0.153302	0.325859
C208	C	0.037014	-0.867469	-0.372594
C209	C	0.370348	-0.534136	-0.039261
C210	C	0.703681	-0.200803	0.294073
O211	O	0.003995	-0.907872	-0.339684
O212	O	0.337328	-0.574538	-0.006351
O213	O	0.670662	-0.241205	0.326983
C214	C	0.037007	-0.867467	-0.436201
C215	C	0.370340	-0.534134	-0.102867
C216	C	0.703674	-0.200801	0.230466
C217	C	0.075833	-0.819968	-0.468022
C218	C	0.409167	-0.486635	-0.134689
C219	C	0.742500	-0.153302	0.198645
C220	C	0.153483	-0.724974	-0.468062
C221	C	0.486816	-0.391641	-0.134729
C222	C	0.820150	-0.058307	0.198605
C223	C	0.153479	-0.724977	-0.531665
C224	C	0.486812	-0.391644	-0.198332
C225	C	0.820145	-0.058310	0.135001
C226	C	0.114651	-0.772475	-0.563447
C227	C	0.447985	-0.439142	-0.230114
C228	C	0.781318	-0.105809	0.103220
C229	C	0.075829	-0.819971	-0.531625
C230	C	0.409162	-0.486638	-0.198292
C231	C	0.742495	-0.153304	0.135041
C232	C	-0.001827	-0.914964	-0.467985
C233	C	0.331507	-0.581631	-0.134652
C234	C	0.664840	-0.248297	0.198681
C235	C	-0.001831	-0.914958	-0.531596
C236	C	0.331502	-0.581624	-0.198263
C237	C	0.664836	-0.248291	0.135070
C238	C	0.036995	-0.867459	-0.563418
C239	C	0.370329	-0.534125	-0.230084
C240	C	0.703662	-0.200792	0.103249
C241	C	0.036997	-0.867472	-0.627010
C242	C	0.370330	-0.534139	-0.293677
C243	C	0.703663	-0.200806	0.039657
N244	N	0.075817	-0.819972	-0.658835
N245	N	0.409150	-0.486638	-0.325502
N246	N	0.742483	-0.153305	0.007832
C247	C	0.114644	-0.772473	-0.627053
C248	C	0.447977	-0.439140	-0.293720
C249	C	0.781311	-0.105807	0.039613
C250	C	0.037032	-0.867469	-0.239016
C251	C	0.370365	-0.534136	0.094317
C252	C	0.703699	-0.200803	0.427650
C253	C	0.037042	-0.867475	-0.175411
C254	C	0.370375	-0.534142	0.157922
C255	C	0.703708	-0.200808	0.491256
C256	C	0.114693	-0.772473	-0.175454
C257	C	0.448026	-0.439139	0.157879
C258	C	0.781359	-0.105806	0.491213
C259	C	0.114685	-0.772471	-0.239061
C260	C	0.448018	-0.439137	0.094273
C261	C	0.781352	-0.105804	0.427606
C262	C	0.075852	-0.819969	-0.270841
C263	C	0.409185	-0.486635	0.062492
C264	C	0.742519	-0.153302	0.395826
C265	C	0.114632	-0.772483	-0.760625
C266	C	0.447965	-0.439150	-0.427291
C267	C	0.781298	-0.105817	-0.093958
C268	C	0.114625	-0.772492	-0.824233
C269	C	0.447959	-0.439159	-0.490900
C270	C	0.781292	-0.105826	-0.157567
C271	C	0.036973	-0.867492	-0.824185
C272	C	0.370306	-0.534159	-0.490851
C273	C	0.703639	-0.200825	-0.157518
C274	C	0.036981	-0.867486	-0.760582
C275	C	0.370314	-0.534152	-0.427248
C276	C	0.703648	-0.200819	-0.093915
C277	C	0.075813	-0.819976	-0.728803
C278	C	0.409146	-0.486642	-0.395470
C279	C	0.742479	-0.153309	-0.062136
O280	O	0.004005	-0.907860	-0.659938
O281	O	0.337339	-0.574527	-0.326605
O282	O	0.670672	-0.241193	0.006729
O283	O	0.147653	-0.732072	-0.659971
O284	O	0.480986	-0.398738	-0.326638
O285	O	0.814319	-0.065405	0.006695
N286	N	0.075798	-0.819991	0.143985
N287	N	0.409131	-0.486657	0.477318
N288	N	0.742465	-0.153324	0.810652
H289	H	-0.109639	-0.939648	0.000182
H290	H	0.223694	-0.606315	0.333515
H291	H	0.557028	-0.272981	0.666848
H292	H	-0.350734	-0.642556	0.000176
H293	H	-0.017400	-0.309223	0.333509
H294	H	0.315933	0.024111	0.666843
H295	H	0.005371	-0.906170	-0.734672
H296	H	0.338704	-0.572837	-0.401339
H297	H	0.672037	-0.239504	-0.068005
Cl298	Cl	0.194691	-0.442159	0.000179
Cl299	Cl	0.528025	-0.108826	0.333513
Cl300	Cl	0.861358	0.224507	0.666846
Cl301	Cl	-0.748761	-0.672075	0.000165
Cl302	Cl	-0.415428	-0.338741	0.333498
Cl303	Cl	-0.082094	-0.005408	0.666832
H304	H	-0.630931	-0.701886	0.000178
H305	H	-0.297598	-0.368552	0.333511
H306	H	0.035735	-0.035219	0.666845
H307	H	0.168107	-0.146582	0.000219
H308	H	0.501441	0.186751	0.333552
H309	H	0.834774	0.520084	0.666886
H310	H	-0.033443	-0.953642	-0.442085
H311	H	0.299891	-0.620308	-0.108752
H312	H	0.633224	-0.286975	0.224581
Cl313	Cl	0.166587	-0.386757	-0.079730
Cl314	Cl	0.499920	-0.053423	0.253603
Cl315	Cl	0.833253	0.279910	0.586936
H316	H	-0.217393	-0.938081	0.000202
H317	H	0.115941	-0.604748	0.333536
H318	H	0.449274	-0.271415	0.666869
Cl319	Cl	-0.011836	-0.927203	-0.864149
Cl320	Cl	0.321497	-0.593869	-0.530816
Cl321	Cl	0.654830	-0.260536	-0.197482
Cl322	Cl	0.163440	-0.712776	-0.864234
Cl323	Cl	0.496773	-0.379443	-0.530901
Cl324	Cl	0.830106	-0.046109	-0.197568
H325	H	-0.389829	-0.998986	0.000220
H326	H	-0.056496	-0.665653	0.333553
H327	H	0.276838	-0.332320	0.666886
Cl328	Cl	-0.014913	-0.253211	0.080115
Cl329	Cl	0.318420	0.080122	0.413449
Cl330	Cl	0.651754	0.413456	0.746782
Cl331	Cl	-0.468560	-0.612736	0.000176
Cl332	Cl	-0.135227	-0.279403	0.333510
Cl333	Cl	0.198106	0.053930	0.666843
H334	H	0.147198	-0.242223	-0.064031
H335	H	0.480531	0.091110	0.269303
H336	H	0.813865	0.424443	0.602636
Cl337	Cl	0.202301	-0.665254	-0.428118
Cl338	Cl	0.535635	-0.331921	-0.094785
Cl339	Cl	0.868968	0.001413	0.238548
H340	H	-0.497577	-0.997412	0.000230
H341	H	-0.164244	-0.664079	0.333563
H342	H	0.169089	-0.330746	0.666897
H343	H	0.146307	-0.733796	-0.149566
H344	H	0.479640	-0.400462	0.183767
H345	H	0.812974	-0.067129	0.517101
Cl346	Cl	-0.011763	-0.927200	-0.135414
Cl347	Cl	0.321571	-0.593866	0.197919
Cl348	Cl	0.654904	-0.260533	0.531253
Cl349	Cl	0.189320	0.004709	0.000242
Cl350	Cl	0.522653	0.338042	0.333575
Cl351	Cl	0.855987	0.671376	0.666909
H352	H	0.185093	-0.686297	-0.557571
H353	H	0.518426	-0.352964	-0.224237
H354	H	0.851759	-0.019631	0.109096
H355	H	-0.021810	-0.046503	0.000256
H356	H	0.311524	0.286831	0.333589
H357	H	0.644857	0.620164	0.666922
H358	H	0.005411	-0.906153	-0.264889
H359	H	0.338744	-0.572820	0.068444
H360	H	0.672078	-0.239487	0.401778
H361	H	-0.192209	-0.708291	0.000137
H362	H	0.141124	-0.374958	0.333470
H363	H	0.474458	-0.041624	0.666804
H364	H	0.146251	-0.733795	-0.734758
H365	H	0.479585	-0.400462	-0.401424
H366	H	0.812918	-0.067129	-0.068091
H367	H	-0.656124	-0.931675	0.000218
H368	H	-0.322791	-0.598341	0.333551
H369	H	0.010543	-0.265008	0.666884
H370	H	-0.033455	-0.953636	-0.557469
H371	H	0.299878	-0.620302	-0.224136
H372	H	0.633211	-0.286969	0.109198
H373	H	-0.020231	-0.177928	0.000197
H374	H	0.313103	0.155405	0.333531
H375	H	0.646436	0.488738	0.666864
H376	H	0.004470	-0.397734	0.064411
H377	H	0.337803	-0.064401	0.397744
H378	H	0.671137	0.268932	0.731078
H379	H	-0.763893	-0.930094	0.000225
H380	H	-0.430560	-0.596760	0.333558
H381	H	-0.097226	-0.263427	0.666891
H382	H	-0.016435	-0.493372	0.000156
H383	H	0.316899	-0.160039	0.333489
H384	H	0.650232	0.173294	0.666823
Cl385	Cl	-0.068207	-0.682017	0.000139
Cl386	Cl	0.265126	-0.348684	0.333473
Cl387	Cl	0.598459	-0.015350	0.666806
Cl388	Cl	0.163496	-0.712754	-0.279058
Cl389	Cl	0.496829	-0.379421	0.054276
Cl390	Cl	0.830163	-0.046087	0.387609
H391	H	-0.014860	-0.624802	0.000120
H392	H	0.318473	-0.291469	0.333453
H393	H	0.651807	0.041865	0.666787
Cl394	Cl	0.196660	-0.605669	0.000160
Cl395	Cl	0.529993	-0.272336	0.333493
Cl396	Cl	0.863326	0.060998	0.666826
