data_functionalizedCrystal
_audit_creation_method	'MofGen! by Chris Wilmer'
_symmetry_space_group_name_H-M	'P1'
_symmetry_Int_Tables_number	1
_symmetry_cell_setting	triclinic
loop_
_symmetry_equiv_pos_as_xyz
  x,y,z
_cell_length_a	14.853567
_cell_length_b	19.188930
_cell_length_c	13.330367
_cell_angle_alpha	89.990231
_cell_angle_beta	89.995418
_cell_angle_gamma	83.389856
loop_
_atom_site_label
_atom_site_type_symbol
_atom_site_fract_x
_atom_site_fract_y
_atom_site_fract_z
O1	O	1.195862	0.091155	-0.083366
O2	O	0.933342	0.102014	-0.083385
O3	O	1.072178	-0.005046	-0.083355
O4	O	1.057026	0.198215	-0.083395
O5	O	1.072158	-0.005048	0.083492
O6	O	0.933322	0.102011	0.083462
O7	O	1.195842	0.091153	0.083481
Cu8	Cu	1.064580	0.096582	0.098706
Cu9	Cu	1.064604	0.096585	-0.098610
O10	O	1.057006	0.198212	0.083452
C11	C	0.899746	0.101521	0.000037
C12	C	0.799671	0.100046	0.000031
C13	C	1.071677	-0.031060	0.000071
C14	C	1.070204	-0.108569	0.000080
C15	C	0.387525	0.030218	0.000067
C16	C	0.365537	0.157407	0.000041
C17	C	0.459563	0.158794	0.000037
C18	C	0.517574	0.095891	0.000047
C19	C	0.481560	0.031602	0.000060
C20	C	0.495585	0.223081	0.000014
C21	C	0.589616	0.224470	0.000009
C22	C	0.647629	0.161567	0.000026
C23	C	0.611610	0.097276	0.000041
C24	C	0.669621	0.034373	0.000050
C25	C	0.633603	-0.029919	0.000072
C26	C	0.539574	-0.031301	0.000077
C27	C	0.741659	0.162949	0.000021
C28	C	0.763656	0.035757	0.000044
C29	C	1.151668	-0.153221	0.000090
C30	C	1.150285	-0.226050	0.000074
C31	C	1.067432	-0.254223	0.000068
C32	C	0.985957	-0.209561	0.000051
C33	C	0.987343	-0.136734	0.000057
N34	N	1.004094	-0.362440	0.056844
N35	N	1.002783	-0.431623	0.056841
C36	C	1.063251	-0.473645	0.000047
N37	N	1.125093	-0.443873	-0.056730
N38	N	1.126407	-0.374684	-0.056722
C39	C	1.065920	-0.333190	0.000060
C40	C	1.143220	-0.597267	0.000039
C41	C	1.141833	-0.670096	0.000016
C42	C	0.977503	-0.653606	0.000003
C43	C	0.978893	-0.580778	0.000016
C44	C	1.061754	-0.552613	0.000038
C45	C	1.229438	0.091646	0.000057
C46	C	1.329513	0.093120	0.000057
C47	C	1.057507	0.224226	0.000023
C48	C	1.058980	0.301736	0.000008
N49	N	1.064570	0.096579	0.237488
N50	N	1.064621	0.096582	-0.237391
C51	C	1.003125	0.143972	0.710098
C52	C	1.126107	0.049192	0.710092
C53	C	1.126097	0.049190	0.605073
C54	C	1.064601	0.096580	0.552562
C55	C	1.003115	0.143973	0.605070
C56	C	1.187588	0.001803	0.552558
C57	C	1.187581	0.001799	0.447533
C58	C	1.126080	0.049187	0.395020
C59	C	1.064590	0.096581	0.447534
C60	C	1.003094	0.143971	0.395023
C61	C	0.941600	0.191363	0.447535
C62	C	0.941613	0.191361	0.552557
C63	C	1.126066	0.049189	0.289999
C64	C	1.003084	0.143972	0.289995
H65	H	0.680849	-0.081134	0.000073
C66	C	0.887519	-0.684143	-0.000213
C67	C	0.838310	-0.661453	-0.086067
C68	C	0.755414	-0.689580	-0.086312
H69	H	0.853870	-0.668849	0.057901
H70	H	0.898320	-0.733915	-0.000272
H71	H	0.827506	-0.611692	-0.085999
H72	H	0.871930	-0.676747	-0.144194
H73	H	0.766215	-0.739352	-0.086371
H74	H	0.721774	-0.674284	-0.028195
H75	H	0.722019	-0.674195	-0.144567
C76	C	0.890471	-0.532260	-0.000191
C77	C	0.886465	-0.489969	-0.086040
C78	C	0.805015	-0.445273	-0.086275
H79	H	0.887500	-0.503450	0.057926
H80	H	0.840902	-0.559444	-0.000251
H81	H	0.936020	-0.462788	-0.085970
H82	H	0.889420	-0.518760	-0.144171
H83	H	0.755446	-0.472457	-0.086336
H84	H	0.802052	-0.416468	-0.028155
H85	H	0.802282	-0.416578	-0.144527
C86	C	1.192819	-0.002373	0.766978
C87	C	1.178474	-0.071002	0.741437
C88	C	1.239917	-0.118527	0.793818
H89	H	1.184078	0.004319	0.837060
H90	H	1.252975	0.005244	0.749737
H91	H	1.118333	-0.078616	0.758685
H92	H	1.187222	-0.077717	0.671364
H93	H	1.300073	-0.110910	0.776577
H94	H	1.231171	-0.111828	0.863897
H95	H	1.230198	-0.165096	0.776488
C96	C	1.241722	-0.122779	0.000056
C97	C	1.312769	-0.177477	0.000037
C98	C	1.395738	-0.149459	-0.000009
H99	H	1.245799	-0.094730	0.058226
H100	H	1.245738	-0.094724	-0.058149
H101	H	1.308755	-0.205520	0.058235
H102	H	1.308722	-0.205531	-0.058129
H103	H	1.399755	-0.121404	-0.058214
H104	H	1.399806	-0.121410	0.058161
H105	H	1.443954	-0.186567	-0.000032
H106	H	0.770981	0.215294	0.000005
H107	H	1.216625	-0.262413	0.000079
H108	H	0.318299	0.208620	0.000024
C109	C	0.500520	-0.101120	0.000294
C110	C	0.529999	-0.139149	0.086151
C111	C	0.494030	-0.203465	0.086386
H112	H	0.520429	-0.127104	-0.057818
H113	H	0.436208	-0.092965	0.000345
H114	H	0.594298	-0.147306	0.086091
H115	H	0.510092	-0.113187	0.144277
H116	H	0.429717	-0.195310	0.086436
H117	H	0.513941	-0.229443	0.028270
H118	H	0.514019	-0.229273	0.144643
H119	H	1.208174	-0.706452	0.000019
C120	C	1.233272	-0.566817	-0.000009
C121	C	1.304322	-0.621514	-0.000044
C122	C	1.387289	-0.593493	-0.000106
H123	H	1.237357	-0.538770	0.058161
H124	H	1.237277	-0.538761	-0.058214
H125	H	1.300318	-0.649559	0.058155
H126	H	1.300266	-0.649566	-0.058209
H127	H	1.391294	-0.565437	-0.058310
H128	H	1.391365	-0.565446	0.058065
H129	H	1.435506	-0.630600	-0.000139
H130	H	0.953003	0.182561	0.247247
H131	H	0.891533	0.229951	0.404768
C132	C	0.936217	0.195341	0.767053
C133	C	0.847677	0.183876	0.741539
C134	C	0.786017	0.231177	0.793998
H135	H	0.945693	0.241985	0.749875
H136	H	0.944965	0.188550	0.837131
H137	H	0.838932	0.190674	0.671477
H138	H	0.838172	0.137242	0.758720
H139	H	0.794765	0.224385	0.864076
H140	H	0.795501	0.277818	0.776816
H141	H	0.725936	0.223400	0.776702
H142	H	0.358195	-0.022127	0.000088
H143	H	0.618933	0.276821	-0.000009
H144	H	0.448345	0.274293	-0.000005
C145	C	0.896067	-0.240241	-0.000111
C146	C	0.890494	-0.281574	-0.085939
C147	C	0.807704	-0.309854	-0.086121
H148	H	0.847668	-0.203287	-0.000168
H149	H	0.892094	-0.268355	0.058041
H150	H	0.894458	-0.253462	-0.144076
H151	H	0.938874	-0.318539	-0.085900
H152	H	0.803731	-0.337968	-0.027969
H153	H	0.759311	-0.272896	-0.086175
H154	H	0.803915	-0.337906	-0.144349
H155	H	0.921003	-0.100377	0.000049
H156	H	0.891548	0.229945	0.595318
H157	H	1.237661	-0.036778	0.595316
C158	C	1.254232	-0.049844	0.390703
C159	C	1.239763	-0.118425	0.416406
C160	C	1.301134	-0.166053	0.364118
H161	H	1.314409	-0.042295	0.407891
H162	H	1.245487	-0.043188	0.320601
H163	H	1.248516	-0.125079	0.486493
H164	H	1.179599	-0.125996	0.399215
H165	H	1.292389	-0.159396	0.294016
H166	H	1.361307	-0.158498	0.381311
H167	H	1.291320	-0.212590	0.381544
C168	C	1.192721	-0.002361	0.233025
C169	C	1.178385	-0.071000	0.258558
C170	C	1.239765	-0.118505	0.206079
H171	H	1.252896	0.005219	0.250172
H172	H	1.183895	0.004386	0.162950
H173	H	1.187219	-0.077744	0.328617
H174	H	1.118222	-0.078602	0.241409
H175	H	1.230938	-0.111758	0.136004
H176	H	1.299936	-0.110918	0.223230
H177	H	1.230040	-0.165082	0.223388
H178	H	0.810884	-0.015466	0.000056
