data_functionalizedCrystal
_audit_creation_method	'MofGen! by Chris Wilmer'
_symmetry_space_group_name_H-M	'P1'
_symmetry_Int_Tables_number	1
_symmetry_cell_setting	triclinic
loop_
_symmetry_equiv_pos_as_xyz
  x,y,z
_cell_length_a	13.897448
_cell_length_b	21.395364
_cell_length_c	21.395355
_cell_angle_alpha	89.975448
_cell_angle_beta	89.984371
_cell_angle_gamma	90.032644
loop_
_atom_site_label
_atom_site_type_symbol
_atom_site_fract_x
_atom_site_fract_y
_atom_site_fract_z
Zn1	Zn	-0.383742	0.957916	-0.354274
Zn2	Zn	-0.545021	0.957842	-0.249502
Zn3	Zn	-0.383784	0.853131	-0.249511
Zn4	Zn	-0.545039	0.853124	-0.354242
O5	O	-0.464396	0.905503	-0.301882
O6	O	-0.405111	1.045584	-0.340385
O7	O	-0.523643	0.943924	-0.161825
O8	O	-0.248797	0.867065	-0.263425
O9	O	-0.523602	1.045530	-0.263410
O10	O	-0.248766	0.944050	-0.340394
O11	O	-0.405183	0.866993	-0.161832
O12	O	-0.405200	0.765452	-0.263394
O13	O	-0.523632	0.867053	-0.441924
O14	O	-0.523673	0.765447	-0.340340
O15	O	-0.405128	0.944043	-0.441948
O16	O	-0.680005	0.943917	-0.263379
O17	O	-0.680018	0.866981	-0.340331
C18	C	-0.464443	0.742716	-0.301865
C19	C	-0.464487	0.673074	-0.301872
C20	C	-0.402889	0.640412	-0.342015
C21	C	-0.402864	0.574976	-0.342018
C22	C	-0.464453	0.542206	-0.301883
C23	C	-0.526054	0.574876	-0.261732
C24	C	-0.526071	0.640311	-0.261727
C25	C	-0.551319	0.438494	-0.296849
C26	C	-0.551304	0.373061	-0.296859
C27	C	-0.464400	0.340385	-0.301897
C28	C	-0.377508	0.373150	-0.306939
C29	C	-0.377525	0.438584	-0.306933
C30	C	-0.464441	0.471254	-0.301885
C31	C	-0.402769	0.236770	-0.342045
C32	C	-0.402742	0.171334	-0.342043
C33	C	-0.525941	0.171235	-0.261761
C34	C	-0.525960	0.236670	-0.261760
C35	C	-0.464375	0.269434	-0.301905
C36	C	-0.715011	0.905457	-0.301864
C37	C	-0.822225	0.905495	-0.301877
C38	C	-1.018520	0.905561	-0.301917
C39	C	-0.909287	0.905523	-0.301897
C40	C	-0.212803	0.905566	-0.301914
C41	C	-0.105590	0.905593	-0.301928
C42	C	-0.464377	0.905555	-0.465306
C43	C	-0.464369	0.905577	-0.534947
C44	C	-0.464350	1.068926	-0.301900
C45	C	-0.464330	1.138568	-0.301908
C46	C	-0.402661	0.945664	-0.567673
C47	C	-0.402619	0.945664	-0.633109
C48	C	-0.464303	0.905582	-0.665815
C49	C	-0.526015	0.865487	-0.633081
C50	C	-0.526048	0.865485	-0.567647
C51	C	-0.551157	0.900619	-0.769484
C52	C	-0.551126	0.900626	-0.834917
C53	C	-0.464201	0.905586	-0.867636
C54	C	-0.377304	0.910553	-0.834915
C55	C	-0.377337	0.910550	-0.769480
C56	C	-0.464274	0.905580	-0.736768
C57	C	-0.402443	0.945674	-0.971315
C58	C	-0.402400	0.945669	-1.036752
C59	C	-0.525804	0.865496	-1.036723
C60	C	-0.525838	0.865498	-0.971287
C61	C	-0.464159	0.905591	-0.938587
C62	C	-0.464346	0.905487	-0.139095
C63	C	-0.464083	0.905587	-0.069454
H64	H	-0.352576	0.144741	-0.374732
O65	O	-0.644922	0.895263	-0.734201
H66	H	-0.654771	0.937227	-0.704400
O67	O	-0.335829	0.988904	-1.072049
H68	H	-0.346154	0.982164	-1.123044
H69	H	-0.352617	0.263448	-0.374730
O70	O	-0.592545	0.822253	-0.668351
H71	H	-0.582161	0.828993	-0.719351
H72	H	-0.576018	0.832855	-1.063352
O73	O	-0.592373	0.135901	-0.218472
H74	H	-0.582017	0.084912	-0.225221
O75	O	-0.335912	0.988906	-0.936038
H76	H	-0.292981	1.016775	-0.969791
O77	O	-0.592369	0.822244	-0.935983
H78	H	-0.635248	0.794367	-0.969717
H79	H	-0.306775	0.465259	-0.311036
H80	H	-0.306583	0.914592	-0.742841
H81	H	-0.576233	0.666904	-0.229036
H82	H	-0.576123	0.263264	-0.229074
H83	H	-0.621882	0.896586	-0.861553
H84	H	-0.576296	0.832838	-0.541001
O85	O	-0.645066	0.473727	-0.291408
H86	H	-0.643451	0.503509	-0.248956
O87	O	-0.336451	0.675751	-0.385301
H88	H	-0.293604	0.642041	-0.413210
H89	H	-0.576200	0.548191	-0.229054
H90	H	-0.352436	0.978310	-0.541053
O91	O	-0.283532	0.915893	-0.870187
H92	H	-0.273683	0.873916	-0.899970
O93	O	-0.336432	0.539735	-0.385321
H94	H	-0.293617	0.573511	-0.413238
H95	H	-0.306742	0.346546	-0.311042
O96	O	-0.645014	0.337723	-0.291409
H97	H	-0.705445	0.371436	-0.287887
H98	H	-0.352364	0.978306	-0.659760
