data_functionalizedCrystal
_audit_creation_method	'MofGen! by Chris Wilmer'
_symmetry_space_group_name_H-M	'P1'
_symmetry_Int_Tables_number	1
_symmetry_cell_setting	triclinic
loop_
_symmetry_equiv_pos_as_xyz
  x,y,z
_cell_length_a	15.625110
_cell_length_b	15.538191
_cell_length_c	9.730223
_cell_angle_alpha	90.002740
_cell_angle_beta	108.083372
_cell_angle_gamma	66.740235
loop_
_atom_site_label
_atom_site_type_symbol
_atom_site_fract_x
_atom_site_fract_y
_atom_site_fract_z
O1	O	1.155988	0.122967	0.461934
O2	O	0.888718	0.137603	0.328711
O3	O	1.074380	-0.006775	0.421249
O4	O	0.970327	0.267345	0.369396
O5	O	1.074377	-0.006771	0.649828
O6	O	0.888716	0.137607	0.557289
O7	O	1.155986	0.122971	0.690513
Zn8	Zn	1.022350	0.130289	0.660193
Zn9	Zn	1.022354	0.130285	0.359031
O10	O	0.970324	0.267349	0.597974
C11	C	0.855346	0.136940	0.426366
C12	C	0.755915	0.134949	0.376802
C13	C	0.615772	0.132141	0.182356
C14	C	0.709202	0.134012	0.228943
C15	C	0.709206	0.134020	0.478133
C16	C	0.615771	0.132154	0.431566
C17	C	0.569062	0.131213	0.283676
C18	C	0.569062	0.131226	0.532887
C19	C	0.475638	0.129355	0.486324
C20	C	0.428923	0.128411	0.338441
C21	C	0.475638	0.129342	0.237114
C22	C	0.615776	0.132160	0.680777
C23	C	0.569066	0.131232	0.782098
C24	C	0.475637	0.129367	0.735534
C25	C	0.428923	0.128424	0.587651
C26	C	0.428922	0.128437	0.836862
C27	C	0.335498	0.126566	0.790299
C28	C	0.335498	0.126553	0.541089
C29	C	1.085265	-0.041854	0.540960
C30	C	1.117693	-0.146384	0.557111
C31	C	0.795532	-0.434606	0.396555
C32	C	0.826025	-0.532831	0.411758
C33	C	0.997544	-0.555044	0.497253
C34	C	0.967065	-0.456819	0.482051
C35	C	0.866058	-0.396607	0.431703
C36	C	1.037591	-0.418820	0.517198
C37	C	1.007114	-0.320604	0.502004
C38	C	0.906111	-0.260386	0.451662
C39	C	0.835580	-0.298391	0.416508
C40	C	1.138598	-0.479034	0.567556
C41	C	1.209124	-0.441035	0.602703
C42	C	1.178647	-0.342817	0.587499
C43	C	1.077644	-0.282599	0.537158
C44	C	1.249177	-0.304812	0.622653
C45	C	1.218700	-0.206596	0.607459
C46	C	1.047167	-0.184383	0.521963
C47	C	1.189358	0.123634	0.592855
C48	C	1.288789	0.125625	0.642409
C49	C	0.959439	0.302428	0.478260
C50	C	0.927011	0.406958	0.462101
N51	N	1.022354	0.130292	0.865731
N52	N	1.022359	0.130274	0.153497
C53	C	1.104574	0.066383	0.978638
C54	C	1.104575	0.066372	1.122521
C55	C	0.940132	0.194186	1.040577
C56	C	0.940129	0.194193	0.896695
C57	C	1.199515	-0.007407	1.025950
C58	C	1.199517	-0.007418	1.169833
H59	H	0.297458	0.125828	0.872800
H60	H	0.352850	0.126889	0.300532
H61	H	1.257446	0.015020	1.010201
Cl62	Cl	1.336100	-0.516738	0.666006
Cl63	Cl	1.213186	-0.118964	0.972451
H64	H	1.200508	-0.075645	1.214940
H65	H	1.276130	-0.175657	0.636081
H66	H	0.873175	0.246224	0.804762
H67	H	0.713281	-0.385578	0.355547
Cl68	Cl	1.376153	-0.380517	0.685971
H69	H	1.163409	-0.559007	0.579913
H70	H	0.873186	0.246212	1.065804
H71	H	1.263564	0.008178	1.240810
Cl72	Cl	0.276764	0.125385	0.355162
H73	H	0.437599	0.128588	0.116684
H74	H	0.577733	0.131386	0.061927
H75	H	0.747227	0.134773	0.146422
H76	H	0.747251	0.134782	0.598547
H77	H	0.768587	-0.563764	0.383153
H78	H	0.607111	0.131994	0.902511
Cl79	Cl	0.733230	0.134502	0.739315
H80	H	1.079785	-0.604082	0.538252
H81	H	0.466971	0.129193	0.957276
H82	H	0.753330	-0.249362	0.375500
Cl83	Cl	0.920183	-0.108680	0.458653
H84	H	0.881298	-0.180412	0.439300
