data_functionalizedCrystal
_audit_creation_method	'MofGen! by Chris Wilmer'
_symmetry_space_group_name_H-M	'P1'
_symmetry_Int_Tables_number	1
_symmetry_cell_setting	triclinic
loop_
_symmetry_equiv_pos_as_xyz
  x,y,z
_cell_length_a	8.559649
_cell_length_b	15.995350
_cell_length_c	7.088929
_cell_angle_alpha	83.778427
_cell_angle_beta	95.325015
_cell_angle_gamma	76.635520
loop_
_atom_site_label
_atom_site_type_symbol
_atom_site_fract_x
_atom_site_fract_y
_atom_site_fract_z
O1	O	2.103728	-0.018745	-0.158958
O2	O	1.638524	0.024497	-0.158965
O3	O	1.883843	-0.119829	-0.158960
O4	O	1.858409	0.125582	-0.158964
O5	O	1.916627	-0.139156	0.159016
O6	O	1.671308	0.005171	0.159011
O7	O	2.136513	-0.038072	0.159018
Cu8	Cu	1.906904	-0.018215	0.188048
Cu9	Cu	1.868132	0.004641	-0.187995
O10	O	1.891194	0.106255	0.159012
C11	C	1.595386	0.018111	0.000022
C12	C	1.418005	0.027866	0.000019
C13	C	1.899183	-0.160619	0.000025
C14	C	1.896030	-0.253367	0.000014
C15	C	1.884710	-0.590386	0.000020
C16	C	1.709925	-0.531674	-0.000696
C17	C	1.713152	-0.435230	0.000021
C18	C	1.890325	-0.423187	0.000016
C19	C	1.995220	-0.480842	0.181594
C20	C	1.990847	-0.577205	0.181746
C21	C	1.957174	-0.555817	-0.179852
C22	C	1.956885	-0.458723	-0.182252
C23	C	1.893508	-0.328694	0.000020
C24	C	1.881533	-0.684880	0.000029
C25	C	2.179650	-0.031685	0.000027
C26	C	2.357029	-0.041439	0.000017
C27	C	1.875853	0.147046	0.000024
C28	C	1.879005	0.239793	0.000022
N29	N	1.934185	-0.034292	0.452537
N30	N	1.840864	0.020710	-0.452484
H31	H	1.334498	0.094668	0.000007
O32	O	2.062328	-0.109790	0.560694
H33	H	2.127235	-0.148036	0.457616
O34	O	1.712737	0.096214	0.439389
H35	H	1.592069	0.091299	0.477746
O36	O	1.605619	-0.381328	-0.172369
H37	H	1.650237	-0.404056	-0.304542
H38	H	1.626669	-0.537801	-0.130908
O39	O	1.467615	-0.129926	0.000037
H40	H	1.594258	-0.123962	0.000059
H41	H	1.653755	-0.554668	0.128790
O42	O	1.926132	-0.607031	0.361524
H43	H	1.898241	-0.552627	0.447532
O44	O	1.640667	-0.403003	0.172747
H45	H	1.603183	-0.456324	0.256099
H46	H	2.119966	-0.618201	0.189981
O47	O	2.168560	-0.473760	0.190573
H48	H	2.181816	-0.428962	0.065417
H49	H	1.949300	-0.456825	0.316721
O50	O	1.862716	-0.567066	-0.362165
H51	H	1.763056	-0.597426	-0.326599
H52	H	1.880031	-0.419258	-0.316578
H53	H	2.084957	-0.451003	-0.193219
O54	O	2.127629	-0.608761	-0.181505
H55	H	2.160646	-0.659455	-0.054914
