data_functionalizedCrystal
_audit_creation_method	'MofGen! by Chris Wilmer'
_symmetry_space_group_name_H-M	'P1'
_symmetry_Int_Tables_number	1
_symmetry_cell_setting	triclinic
loop_
_symmetry_equiv_pos_as_xyz
  x,y,z
_cell_length_a	19.077068
_cell_length_b	19.077300
_cell_length_c	19.077271
_cell_angle_alpha	94.678430
_cell_angle_beta	85.514665
_cell_angle_gamma	90.059760
loop_
_atom_site_label
_atom_site_type_symbol
_atom_site_fract_x
_atom_site_fract_y
_atom_site_fract_z
Zn1	Zn	-0.337183	-1.047450	0.369395
Zn2	Zn	-0.450304	-1.047385	0.256241
Zn3	Zn	-0.328088	-0.934710	0.255879
Zn4	Zn	-0.450304	-0.924794	0.378821
O5	O	-0.391470	-0.988585	0.315084
O6	O	-0.355994	-1.145928	0.350592
O7	O	-0.430285	-1.036562	0.157386
O8	O	-0.230805	-0.953842	0.266840
O9	O	-0.439104	-1.145881	0.267458
O10	O	-0.237487	-1.036672	0.350241
O11	O	-0.340494	-0.953779	0.157119
O12	O	-0.340495	-0.834908	0.275980
O13	O	-0.439105	-0.936942	0.476378
O14	O	-0.430286	-0.827623	0.366306
O15	O	-0.355995	-1.027057	0.469453
O16	O	-0.548793	-1.026946	0.276598
O17	O	-0.548793	-0.936879	0.366657
C18	C	-0.384404	-0.805729	0.322127
C19	C	-0.381399	-0.727500	0.325157
C20	C	-0.359792	-0.287162	0.346901
C21	C	-0.362628	-0.360665	0.344050
C22	C	-0.407240	-0.397389	0.299265
C23	C	-0.449024	-0.360606	0.257333
C24	C	-0.446190	-0.287104	0.260188
C25	C	-0.420349	-0.617215	0.286081
C26	C	-0.423178	-0.690722	0.283227
C27	C	-0.336783	-0.690776	0.369945
C28	C	-0.333950	-0.617273	0.372793
C29	C	-0.375737	-0.580496	0.330864
N30	N	-0.410139	-0.472522	0.296348
N31	N	-0.372841	-0.505364	0.333785
C32	C	-0.574332	-0.980848	0.322705
C33	C	-0.652564	-0.977602	0.325986
C34	C	-0.689297	-1.023003	0.280674
C35	C	-0.762805	-1.019954	0.283765
C36	C	-0.799579	-0.971499	0.332163
C37	C	-0.762841	-0.926096	0.377479
C38	C	-0.689334	-0.929149	0.374392
C39	C	-1.019422	-0.957338	0.346424
C40	C	-1.092933	-0.954287	0.349506
C41	C	-1.092893	-1.048146	0.255792
C42	C	-1.019385	-1.051192	0.252706
C43	C	-0.982654	-1.005792	0.298025
N44	N	-0.874716	-0.968379	0.335321
N45	N	-0.907518	-1.008915	0.294869
C46	C	-0.207895	-0.996370	0.307449
C47	C	-0.129666	-0.999688	0.304195
C48	C	-0.398564	-0.980900	0.499251
C49	C	-0.401587	-0.977626	0.577733
C50	C	-0.398559	-0.172156	0.308006
C51	C	-0.401570	-0.250384	0.304971
C52	C	-0.359739	-1.023003	0.610999
C53	C	-0.362576	-1.019918	0.684741
C54	C	-0.407267	-0.971458	0.725215
C55	C	-0.449117	-0.926076	0.691943
C56	C	-0.446275	-0.929159	0.618203
C57	C	-0.420402	-0.957205	0.946141
C58	C	-0.423242	-0.954127	1.019886
C59	C	-0.336701	-1.047968	1.012679
C60	C	-0.333866	-1.051049	0.938937
C61	C	-0.375713	-1.005665	0.905672
N62	N	-0.410170	-0.968305	0.800590
N63	N	-0.372806	-1.008816	0.830298
C64	C	-0.384418	-0.996233	1.131634
C65	C	-0.381394	-0.999505	1.053153
H66	H	-0.485351	-0.390512	0.220871
H67	H	-0.297625	-0.587377	0.409264
N68	N	-0.497323	-0.873805	0.735585
H69	H	-0.483950	-0.824522	0.724226
H70	H	-0.492762	-0.878792	0.787333
N71	N	-0.465408	-0.577554	0.240851
H72	H	-0.498002	-0.544491	0.272032
H73	H	-0.494049	-0.612020	0.212052
H74	H	-0.459509	-0.720621	0.246757
H75	H	-0.323349	-1.062466	0.578050
N76	N	-0.491254	-0.247432	0.214967
H77	H	-0.519945	-0.281848	0.186162
H78	H	-0.460122	-0.219499	0.182328
N79	N	-0.491404	-0.880210	0.582319
H80	H	-0.520146	-0.849042	0.619147
H81	H	-0.523905	-0.908750	0.551973
H82	H	-0.302630	-1.084917	1.039771
H83	H	-0.302764	-0.720728	0.404082
N84	N	-1.132596	-0.902021	0.401710
H85	H	-1.122143	-0.911341	0.451211
H86	H	-1.184721	-0.907001	0.396722
H87	H	-0.328610	-0.390607	0.378196
N88	N	-0.311667	-0.247556	0.395198
H89	H	-0.285631	-0.282011	0.421327
H90	H	-0.340446	-0.214491	0.430206
H91	H	-0.659361	-1.062457	0.241260
H92	H	-0.792710	-1.056924	0.246867
H93	H	-0.989446	-1.090648	0.213296
H94	H	-1.122808	-1.085110	0.218897
N95	N	-0.979809	-0.908367	0.395295
H96	H	-1.014261	-0.877205	0.426418
H97	H	-0.946988	-0.878287	0.366498
H98	H	-0.659427	-0.892179	0.411290
N99	N	-0.802499	-0.873835	0.429684
H100	H	-0.854640	-0.878787	0.424763
H101	H	-0.787331	-0.824572	0.420050
N102	N	-0.317426	-1.068847	0.720622
H103	H	-0.288682	-1.100012	0.683792
H104	H	-0.348500	-1.098925	0.751165
H105	H	-0.297476	-1.090512	0.905988
N106	N	-0.471449	-0.901860	1.063543
H107	H	-0.497528	-0.873576	1.031282
H108	H	-0.442719	-0.869231	1.094203
H109	H	-0.454488	-0.920260	0.919066
