data_functionalizedCrystal
_audit_creation_method	'MofGen! by Chris Wilmer'
_symmetry_space_group_name_H-M	'P1'
_symmetry_Int_Tables_number	1
_symmetry_cell_setting	triclinic
loop_
_symmetry_equiv_pos_as_xyz
  x,y,z
_cell_length_a	14.044220
_cell_length_b	11.792241
_cell_length_c	13.101039
_cell_angle_alpha	93.376518
_cell_angle_beta	93.667477
_cell_angle_gamma	91.308853
loop_
_atom_site_label
_atom_site_type_symbol
_atom_site_fract_x
_atom_site_fract_y
_atom_site_fract_z
O1	O	0.124790	-1.524822	-0.085117
O2	O	0.374790	-1.274822	0.164883
O3	O	0.624790	-1.024822	0.414883
O4	O	0.874790	-0.774822	0.664883
O5	O	0.138185	-1.195740	-0.085141
O6	O	0.388185	-0.945740	0.164859
O7	O	0.638185	-0.695740	0.414859
O8	O	0.888185	-0.445740	0.664859
O9	O	-0.006522	-1.355341	-0.085119
O10	O	0.243478	-1.105341	0.164881
O11	O	0.493478	-0.855341	0.414881
O12	O	0.743478	-0.605341	0.664881
O13	O	0.269497	-1.365221	-0.085139
O14	O	0.519497	-1.115221	0.164861
O15	O	0.769497	-0.865221	0.414861
O16	O	1.019497	-0.615221	0.664861
O17	O	0.003878	-1.343891	0.085309
O18	O	0.253878	-1.093891	0.335309
O19	O	0.503878	-0.843891	0.585309
O20	O	0.753878	-0.593891	0.835309
O21	O	0.148585	-1.184291	0.085287
O22	O	0.398585	-0.934291	0.335287
O23	O	0.648585	-0.684291	0.585287
O24	O	0.898585	-0.434291	0.835287
O25	O	0.135190	-1.513372	0.085311
O26	O	0.385190	-1.263372	0.335311
O27	O	0.635190	-1.013372	0.585311
O28	O	0.885190	-0.763372	0.835311
Zn29	Zn	0.143539	-1.347014	0.112359
Zn30	Zn	0.393539	-1.097014	0.362359
Zn31	Zn	0.643539	-0.847014	0.612359
Zn32	Zn	0.893539	-0.597014	0.862359
Zn33	Zn	0.129836	-1.362099	-0.112188
Zn34	Zn	0.379836	-1.112099	0.137812
Zn35	Zn	0.629836	-0.862099	0.387812
Zn36	Zn	0.879836	-0.612099	0.637812
O37	O	0.279897	-1.353772	0.085290
O38	O	0.529897	-1.103772	0.335290
O39	O	0.779897	-0.853772	0.585290
O40	O	1.029897	-0.603772	0.835290
C41	C	0.142543	-1.147646	0.000070
C42	C	0.392543	-0.897646	0.250070
C43	C	0.642543	-0.647646	0.500070
C44	C	0.892543	-0.397646	0.750070
C45	C	0.140024	-1.021396	0.000061
C46	C	0.390024	-0.771396	0.250061
C47	C	0.640024	-0.521396	0.500061
C48	C	0.890024	-0.271396	0.750061
C49	C	-0.036659	-1.345292	0.000095
C50	C	0.213341	-1.095292	0.250095
C51	C	0.463341	-0.845292	0.500095
C52	C	0.713341	-0.595292	0.750095
C53	C	-0.141951	-1.332393	0.000095
C54	C	0.108049	-1.082393	0.250095
C55	C	0.358049	-0.832393	0.500095
C56	C	0.608049	-0.582393	0.750095
N57	N	0.120478	-1.372394	-0.265435
N58	N	0.370478	-1.122394	-0.015435
N59	N	0.620478	-0.872394	0.234565
N60	N	0.870478	-0.622394	0.484565
C61	C	-0.334734	-1.308812	0.000079
C62	C	-0.084734	-1.058812	0.250079
C63	C	0.165266	-0.808812	0.500079
C64	C	0.415266	-0.558812	0.750079
C65	C	-0.391897	-1.400296	0.000083
C66	C	-0.141897	-1.150296	0.250083
C67	C	0.108103	-0.900296	0.500083
C68	C	0.358103	-0.650296	0.750083
C69	C	-0.499168	-1.387176	0.000073
C70	C	-0.249168	-1.137176	0.250073
C71	C	0.000832	-0.887176	0.500073
C72	C	0.250832	-0.637176	0.750073
C73	C	-0.227453	-1.321931	0.000088
C74	C	0.022547	-1.071931	0.250088
C75	C	0.272547	-0.821931	0.500088
C76	C	0.522547	-0.571931	0.750088
C77	C	0.310033	-1.363821	0.000073
C78	C	0.560033	-1.113821	0.250073
C79	C	0.810033	-0.863821	0.500073
C80	C	1.060033	-0.613821	0.750073
C81	C	0.415325	-1.376720	0.000066
C82	C	0.665325	-1.126720	0.250066
C83	C	0.915325	-0.876720	0.500066
C84	C	1.165325	-0.626720	0.750066
C85	C	0.130832	-1.561467	0.000098
C86	C	0.380832	-1.311467	0.250098
C87	C	0.630832	-1.061467	0.500098
C88	C	0.880832	-0.811467	0.750098
C89	C	0.133350	-1.687717	0.000100
C90	C	0.383350	-1.437717	0.250100
C91	C	0.633350	-1.187717	0.500100
C92	C	0.883350	-0.937717	0.750100
C93	C	0.135394	-0.790247	0.000091
C94	C	0.385394	-0.540247	0.250091
C95	C	0.635394	-0.290247	0.500091
C96	C	0.885394	-0.040247	0.750091
C97	C	0.137967	-0.918875	0.000075
C98	C	0.387967	-0.668875	0.250075
C99	C	0.637967	-0.418875	0.500075
C100	C	0.887967	-0.168875	0.750075
N101	N	0.152889	-1.336727	0.265606
N102	N	0.402889	-1.086727	0.515606
N103	N	0.652889	-0.836727	0.765606
N104	N	0.902889	-0.586727	1.015606
C105	C	0.165620	-1.322732	0.474646
C106	C	0.415620	-1.072732	0.724646
C107	C	0.665620	-0.822732	0.974646
C108	C	0.915620	-0.572732	1.224646
C109	C	0.107750	-1.386386	0.525531
C110	C	0.357750	-1.136386	0.775531
C111	C	0.607750	-0.886386	1.025531
C112	C	0.857750	-0.636386	1.275531
C113	C	0.114834	-1.378599	0.641848
C114	C	0.364834	-1.128599	0.891848
C115	C	0.614834	-0.878599	1.141848
C116	C	0.864834	-0.628599	1.391848
C117	C	0.158538	-1.330517	0.358318
C118	C	0.408538	-1.080517	0.608318
C119	C	0.658538	-0.830517	0.858318
C120	C	0.908538	-0.580517	1.108318
H121	H	-0.366357	-1.220642	0.000070
H122	H	-0.116357	-0.970642	0.250070
H123	H	0.133643	-0.720642	0.500070
H124	H	0.383643	-0.470642	0.750070
H125	H	-0.360277	-1.488478	0.000020
H126	H	-0.110277	-1.238478	0.250020
H127	H	0.139723	-0.988478	0.500020
H128	H	0.389723	-0.738478	0.750020
O129	O	0.238305	-1.242824	0.532651
O130	O	0.488305	-0.992824	0.782651
O131	O	0.738305	-0.742824	1.032651
O132	O	0.988305	-0.492824	1.282651
H133	H	0.279611	-1.197392	0.477436
H134	H	0.529611	-0.947392	0.727436
H135	H	0.779611	-0.697392	0.977436
H136	H	1.029611	-0.447392	1.227436
H137	H	0.052887	-1.446730	0.481737
H138	H	0.302887	-1.196730	0.731737
H139	H	0.552887	-0.946730	0.981737
H140	H	0.802887	-0.696730	1.231737
