data_functionalizedCrystal
_audit_creation_method	'MofGen! by Chris Wilmer'
_symmetry_space_group_name_H-M	'P1'
_symmetry_Int_Tables_number	1
_symmetry_cell_setting	triclinic
loop_
_symmetry_equiv_pos_as_xyz
  x,y,z
_cell_length_a	12.594516
_cell_length_b	15.298073
_cell_length_c	15.299448
_cell_angle_alpha	107.393815
_cell_angle_beta	80.302628
_cell_angle_gamma	80.325120
loop_
_atom_site_label
_atom_site_type_symbol
_atom_site_fract_x
_atom_site_fract_y
_atom_site_fract_z
Zn1	Zn	0.042518	-1.513153	-0.772529
Zn2	Zn	-0.172753	-1.486128	-0.616992
Zn3	Zn	-0.031989	-1.330672	-0.590037
Zn4	Zn	-0.172653	-1.357579	-0.745518
O5	O	-0.083719	-1.421883	-0.681269
O6	O	0.045102	-1.639736	-0.774482
O7	O	-0.185304	-1.442936	-0.483254
O8	O	0.126856	-1.354927	-0.614269
O9	O	-0.113057	-1.619881	-0.660209
O10	O	0.181596	-1.488996	-0.748345
O11	O	-0.081885	-1.328722	-0.463451
O12	O	-0.081788	-1.204073	-0.588077
O13	O	-0.112887	-1.400787	-0.879263
O14	O	-0.185134	-1.223842	-0.702308
O15	O	0.045199	-1.515087	-0.899108
O16	O	-0.321701	-1.469027	-0.634017
O17	O	-0.321627	-1.374582	-0.728444
C18	C	-0.141535	-1.180207	-0.639337
C19	C	-0.166290	-1.076821	-0.621420
C20	C	0.092976	-0.826810	-0.809278
C21	C	0.116232	-0.923947	-0.826117
C22	C	0.045604	-0.962171	-0.774944
C23	C	-0.048285	-0.903247	-0.706930
C24	C	-0.071548	-0.806100	-0.690094
C25	C	-0.118920	-0.941461	-0.655760
C26	C	-0.212809	-0.882537	-0.587746
C27	C	-0.236068	-0.785401	-0.570914
C28	C	-0.165440	-0.747177	-0.622086
C29	C	-0.095657	-1.038607	-0.672596
C30	C	-0.260181	-1.017898	-0.553412
C31	C	-0.283438	-0.920760	-0.536574
C32	C	-0.360277	-1.421820	-0.681249
C33	C	-0.478562	-1.421884	-0.681287
C34	C	-0.547826	-1.370502	-0.732601
C35	C	-0.644436	-1.333143	-0.643800
C36	C	-0.592727	-1.459331	-0.770117
C37	C	-0.573636	-1.384472	-0.592433
C38	C	-0.521897	-1.510709	-0.718814
C39	C	-0.618481	-1.473372	-0.629960
C40	C	0.193929	-1.421975	-0.681313
C41	C	0.312247	-1.422014	-0.681332
C42	C	-0.025522	-1.463953	-0.923879
C43	C	-0.000722	-1.481881	-1.027264
C44	C	-0.025671	-0.664501	-0.723356
C45	C	-0.000915	-0.767887	-0.741270
C46	C	0.093239	-1.549813	-1.086165
C47	C	0.116552	-1.566650	-1.183299
C48	C	0.045902	-1.515560	-1.221544
C49	C	-0.048066	-1.447630	-1.162644
C50	C	-0.071376	-1.430787	-1.065499
C51	C	-0.118714	-1.396533	-1.200878
C52	C	-0.212681	-1.328604	-1.141978
C53	C	-0.235988	-1.311764	-1.044843
C54	C	-0.165337	-1.362854	-1.006599
C55	C	-0.095403	-1.413376	-1.298024
C56	C	-0.260018	-1.294350	-1.277358
C57	C	-0.283331	-1.277514	-1.180223
C58	C	-0.141600	-1.380030	-0.439612
C59	C	-0.166057	-1.362283	-0.336258
H60	H	-0.317697	-1.049019	-0.511748
O61	O	-0.510946	-1.318397	-0.784135
C62	C	-0.532506	-1.165944	-0.802814
C63	C	-0.574365	-1.224839	-0.744363
H64	H	-0.583776	-1.090296	-0.770693
H65	H	-0.441803	-1.166844	-0.802849
H66	H	-0.540997	-1.197118	-0.878222
H67	H	-0.565949	-1.193709	-0.668930
H68	H	-0.665051	-1.223940	-0.744407
H69	H	0.064548	-1.041264	-0.788655
O70	O	0.161661	-0.789840	-0.859097
C71	C	0.327325	-0.820611	-0.979055
C72	C	0.249616	-0.862605	-0.922709
H73	H	0.398468	-0.879419	-1.030485
H74	H	0.279193	-0.783600	-1.019802
H75	H	0.361884	-0.767705	-0.928535
H76	H	0.215036	-0.915548	-0.973163
H77	H	0.297800	-0.899558	-0.881950
H78	H	-0.184375	-0.668082	-0.608386
O79	O	-0.655277	-1.525390	-0.578292
C80	C	-0.731366	-1.659598	-0.577471
C81	C	-0.689694	-1.600793	-0.636102
H82	H	-0.759225	-1.720563	-0.624181
H83	H	-0.661670	-1.688493	-0.547626
H84	H	-0.804133	-1.613222	-0.517171
H85	H	-0.616948	-1.647108	-0.696446
H86	H	-0.759455	-1.571889	-0.665877
O87	O	-0.004503	-1.095759	-0.738768
C88	C	0.091941	-1.153007	-0.902232
C89	C	-0.011340	-1.088226	-0.827380
H90	H	0.086438	-1.146954	-0.973895
H91	H	0.169367	-1.131095	-0.882790
H92	H	0.096445	-1.228989	-0.905430
H93	H	-0.015950	-1.012226	-0.824144
H94	H	-0.088716	-1.110218	-0.846851
H95	H	-0.601972	-1.490949	-0.845221
H96	H	-0.317543	-1.252742	-1.308495
O97	O	0.161714	-1.599384	-1.048865
C98	C	0.198779	-1.626147	-0.908361
C99	C	0.121119	-1.569949	-0.950480
H100	H	0.165999	-1.602356	-0.828808
H101	H	0.202591	-1.704465	-0.940406
H102	H	0.285295	-1.613179	-0.924689
H103	H	0.034564	-1.582838	-0.934166
H104	H	0.117402	-1.491650	-0.918433
O105	O	0.207476	-0.981264	-0.892065
C106	C	0.380503	-1.093127	-0.923793
C107	C	0.277207	-1.028269	-0.849012
H108	H	0.436919	-1.131133	-0.889009
H109	H	0.354154	-1.147091	-0.980233
H110	H	0.426943	-1.049114	-0.957495
H111	H	0.230720	-1.072204	-0.815238
H112	H	0.303627	-0.974302	-0.792631
O113	O	-0.707811	-1.243658	-0.605938
C114	C	-0.891156	-1.143572	-0.562877
C115	C	-0.819525	-1.244960	-0.605744
H116	H	-0.981487	-1.144589	-0.562724
H117	H	-0.882937	-1.111249	-0.487562
H118	H	-0.862050	-1.099805	-0.606674
H119	H	-0.848583	-1.288803	-0.562021
H120	H	-0.827748	-1.277209	-0.681069
O121	O	-0.374650	-1.211640	-1.122918
C122	C	-0.547694	-1.180095	-1.011091
C123	C	-0.444320	-1.254783	-1.075935
H124	H	-0.604062	-1.214951	-0.973103
H125	H	-0.521436	-1.123597	-0.957114
H126	H	-0.594151	-1.146446	-1.055109
H127	H	-0.397817	-1.288504	-1.031994
H128	H	-0.470650	-1.311222	-1.129915
H129	H	-0.018892	-1.468683	-1.345971
O130	O	0.068345	-1.531921	-1.315901
C131	C	0.005485	-1.580019	-1.459444
C132	C	-0.020083	-1.561494	-1.352582
H133	H	-0.065982	-1.603951	-1.489135
H134	H	0.016607	-1.512572	-1.473375
H135	H	0.084809	-1.637316	-1.494945
H136	H	-0.099416	-1.504228	-1.317009
H137	H	-0.031136	-1.628985	-1.338720
O138	O	-0.562612	-1.346630	-0.502853
C139	C	-0.438055	-1.304160	-0.402325
C140	C	-0.450388	-1.347019	-0.503818
H141	H	-0.347324	-1.304478	-0.403069
H142	H	-0.489806	-1.228672	-0.370247
H143	H	-0.467905	-1.347667	-0.358509
H144	H	-0.420525	-1.303586	-0.547709
H145	H	-0.398659	-1.422516	-0.535821
O146	O	-0.458678	-1.600239	-0.756841
C147	C	-0.395875	-1.740894	-0.893459
C148	C	-0.467499	-1.639506	-0.850504
H149	H	-0.403001	-1.772678	-0.969185
H150	H	-0.305733	-1.740053	-0.892498
H151	H	-0.425929	-1.785035	-0.850462
H152	H	-0.437542	-1.595306	-0.893466
H153	H	-0.557628	-1.640419	-0.851449
H154	H	0.193059	-1.621959	-1.231249
H155	H	-0.312525	-0.737428	-0.515539
O156	O	-0.374622	-0.863389	-0.470574
C157	C	-0.483325	-0.704551	-0.391786
C158	C	-0.380037	-0.769418	-0.466571
H159	H	-0.487724	-0.628559	-0.388511
H160	H	-0.560762	-0.726381	-0.411289
H161	H	-0.477911	-0.710691	-0.320138
H162	H	-0.385343	-0.763311	-0.538246
H163	H	-0.302642	-0.747569	-0.446987
H164	H	-0.184316	-1.349152	-0.927505
H165	H	-0.312500	-1.256449	-0.996888
