data_functionalizedCrystal
_audit_creation_method	'MofGen! by Chris Wilmer'
_symmetry_space_group_name_H-M	'P1'
_symmetry_Int_Tables_number	1
_symmetry_cell_setting	triclinic
loop_
_symmetry_equiv_pos_as_xyz
  x,y,z
_cell_length_a	19.076806
_cell_length_b	19.077105
_cell_length_c	18.215399
_cell_angle_alpha	87.683665
_cell_angle_beta	87.669684
_cell_angle_gamma	89.926089
loop_
_atom_site_label
_atom_site_type_symbol
_atom_site_fract_x
_atom_site_fract_y
_atom_site_fract_z
Zn1	Zn	-0.322999	1.063009	-0.447122
Zn2	Zn	0.010334	1.396342	-0.113789
Zn3	Zn	0.343667	1.729675	0.219544
Zn4	Zn	-0.440515	1.058203	-0.318909
Zn5	Zn	-0.107182	1.391536	0.014424
Zn6	Zn	0.226152	1.724869	0.347757
Zn7	Zn	-0.318293	0.945501	-0.319338
Zn8	Zn	0.015040	1.278834	0.013996
Zn9	Zn	0.348373	1.612167	0.347329
Zn10	Zn	-0.435747	0.940750	-0.437207
Zn11	Zn	-0.102414	1.274084	-0.103874
Zn12	Zn	0.230919	1.607417	0.229459
O13	O	-0.379389	1.001866	-0.380644
O14	O	-0.046055	1.335199	-0.047311
O15	O	0.287278	1.668532	0.286023
O16	O	-0.342553	1.160703	-0.434085
O17	O	-0.009219	1.494036	-0.100751
O18	O	0.324114	1.827369	0.232582
O19	O	-0.424328	1.043229	-0.215980
O20	O	-0.090994	1.376563	0.117354
O21	O	0.242339	1.709896	0.450687
O22	O	-0.220582	0.965088	-0.340617
O23	O	0.112751	1.298421	-0.007284
O24	O	0.446085	1.631754	0.326049
O25	O	-0.428891	1.157172	-0.339887
O26	O	-0.095557	1.490505	-0.006554
O27	O	0.237776	1.823838	0.326779
O28	O	-0.224039	1.051420	-0.434500
O29	O	0.109294	1.384754	-0.101167
O30	O	0.442627	1.718087	0.232167
O31	O	-0.334532	0.960428	-0.216294
O32	O	-0.001199	1.293761	0.117039
O33	O	0.332135	1.627094	0.450372
O34	O	-0.329909	0.846539	-0.331003
O35	O	0.003424	1.179872	0.002330
O36	O	0.336757	1.513206	0.335664
O37	O	-0.420765	0.956991	-0.541509
O38	O	-0.087432	1.290325	-0.208175
O39	O	0.245901	1.623658	0.125158
O40	O	-0.416202	0.843049	-0.417601
O41	O	-0.082869	1.176382	-0.084268
O42	O	0.250465	1.509715	0.249065
O43	O	-0.337930	1.046814	-0.548793
O44	O	-0.004596	1.380147	-0.215460
O45	O	0.328737	1.713481	0.117873
O46	O	-0.538218	1.038623	-0.330273
O47	O	-0.204885	1.371956	0.003060
O48	O	0.128449	1.705290	0.336394
O49	O	-0.534715	0.952331	-0.417186
O50	O	-0.201382	1.285665	-0.083853
O51	O	0.131951	1.618998	0.249481
C52	C	-0.372028	0.819298	-0.373273
C53	C	-0.038695	1.152631	-0.039940
C54	C	0.294638	1.485964	0.293394
C55	C	-0.368896	0.741193	-0.370137
C56	C	-0.035563	1.074527	-0.036803
C57	C	0.297770	1.407860	0.296530
C58	C	-0.412421	0.702699	-0.413673
C59	C	-0.079087	1.036032	-0.080340
C60	C	0.254246	1.369365	0.252994
C61	C	-0.409469	0.629312	-0.410730
C62	C	-0.076135	0.962645	-0.077396
C63	C	0.257198	1.295979	0.255937
C64	C	-0.362995	0.594421	-0.364246
C65	C	-0.029662	0.927755	-0.030912
C66	C	0.303671	1.261088	0.302421
C67	C	-0.319466	0.632921	-0.320708
C68	C	0.013867	0.966255	0.012626
C69	C	0.347201	1.299588	0.345959
C70	C	-0.322415	0.706307	-0.323655
C71	C	0.010918	1.039640	0.009678
C72	C	0.344252	1.372974	0.343012
C73	C	-0.349347	0.375136	-0.350607
C74	C	-0.016014	0.708469	-0.017274
C75	C	0.317319	1.041802	0.316059
C76	C	-0.346403	0.301745	-0.347661
C77	C	-0.013070	0.635078	-0.014328
C78	C	0.320264	0.968411	0.319005
C79	C	-0.436405	0.298140	-0.437685
C80	C	-0.103072	0.631473	-0.104352
C81	C	0.230262	0.964807	0.228982
C82	C	-0.439353	0.371527	-0.440625
C83	C	-0.106020	0.704860	-0.107292
C84	C	0.227314	1.038194	0.226042
C85	C	-0.395821	0.410021	-0.397090
C86	C	-0.062488	0.743354	-0.063757
C87	C	0.270846	1.076688	0.269577
N88	N	-0.359978	0.519408	-0.361234
N89	N	-0.026645	0.852742	-0.027901
N90	N	0.306688	1.186075	0.305432
N91	N	-0.398835	0.485033	-0.400106
N92	N	-0.065502	0.818366	-0.066772
N93	N	0.267832	1.151700	0.266561
C94	C	-0.561965	0.994459	-0.372624
C95	C	-0.228631	1.327793	-0.039291
C96	C	0.104702	1.661126	0.294043
C97	C	-0.640074	0.991355	-0.369220
C98	C	-0.306741	1.324688	-0.035887
C99	C	0.026593	1.658022	0.297447
C100	C	-1.079560	0.969042	-0.344832
C101	C	-0.746227	1.302375	-0.011498
C102	C	-0.412893	1.635708	0.321835
C103	C	-1.006168	0.971960	-0.348030
C104	C	-0.672835	1.305293	-0.014696
C105	C	-0.339501	1.638626	0.318637
C106	C	-0.971211	1.018337	-0.398544
C107	C	-0.637878	1.351670	-0.065211
C108	C	-0.304545	1.685004	0.268122
C109	C	-1.009651	1.061794	-0.445869
C110	C	-0.676317	1.395127	-0.112535
C111	C	-0.342984	1.728460	0.220798
C112	C	-1.083041	1.058871	-0.442673
C113	C	-0.749708	1.392205	-0.109340
C114	C	-0.416374	1.725538	0.223993
C115	C	-0.751904	1.031890	-0.413349
C116	C	-0.418570	1.365223	-0.080016
C117	C	-0.085237	1.698556	0.253318
C118	C	-0.678508	1.034810	-0.416539
C119	C	-0.345175	1.368143	-0.083206
C120	C	-0.011841	1.701477	0.250127
C121	C	-0.675031	0.944975	-0.318701
C122	C	-0.341697	1.278308	0.014632
C123	C	-0.008364	1.611642	0.347966
C124	C	-0.748423	0.942060	-0.315507
C125	C	-0.415089	1.275393	0.017826
C126	C	-0.081756	1.608726	0.351159
C127	C	-0.786855	0.985514	-0.362834
C128	C	-0.453522	1.318847	-0.029501
C129	C	-0.120189	1.652180	0.303833
N130	N	-0.896193	1.021322	-0.401813
N131	N	-0.562860	1.354656	-0.068480
N132	N	-0.229526	1.687989	0.264854
N133	N	-0.861872	0.982524	-0.359568
N134	N	-0.528539	1.315858	-0.026235
N135	N	-0.195205	1.649191	0.307098
C136	C	-0.196100	1.009320	-0.388713
C137	C	0.137233	1.342653	-0.055379
C138	C	0.470566	1.675987	0.277954
C139	C	-0.117994	1.012497	-0.392151
C140	C	0.215339	1.345830	-0.058817
C141	C	0.548673	1.679163	0.274516
C142	C	-0.379341	1.001909	-0.572601
C143	C	-0.046007	1.335242	-0.239268
C144	C	0.287326	1.668575	0.094066
C145	C	-0.379320	1.001927	-0.654402
C146	C	-0.045987	1.335261	-0.321068
C147	C	0.287347	1.668594	0.012265
C148	C	-0.386778	1.185146	-0.388044
C149	C	-0.053445	1.518480	-0.054711
C150	C	0.279888	1.851813	0.278622
C151	C	-0.389927	1.263250	-0.391198
C152	C	-0.056594	1.596583	-0.057864
C153	C	0.276739	1.929916	0.275469
C154	C	-0.336128	1.048726	-0.923257
C155	C	-0.002795	1.382060	-0.589924
C156	C	0.330539	1.715393	-0.256591
C157	C	-0.336147	1.048717	-0.846397
C158	C	-0.002813	1.382051	-0.513064
C159	C	0.330520	1.715384	-0.179731
C160	C	-0.422413	0.955189	-0.838801
C161	C	-0.089079	1.288523	-0.505468
C162	C	0.244254	1.621856	-0.172135
C163	C	-0.422397	0.955202	-0.915660
C164	C	-0.089064	1.288536	-0.582327
C165	C	0.244270	1.621869	-0.248993
C166	C	-0.379251	1.001970	-0.957886
C167	C	-0.045917	1.335303	-0.624553
C168	C	0.287416	1.668637	-0.291219
C169	C	-0.379285	1.001948	-0.804167
C170	C	-0.045952	1.335281	-0.470834
C171	C	0.287382	1.668615	-0.137501
C172	C	-0.379305	1.001938	-0.720832
C173	C	-0.045972	1.335271	-0.387499
C174	C	0.287361	1.668604	-0.054166
C175	C	-0.379231	1.001981	-1.041226
C176	C	-0.045898	1.335315	-0.707893
C177	C	0.287436	1.668648	-0.374560
C178	C	-0.379388	1.001865	-0.189438
C179	C	-0.046054	1.335198	0.143895
C180	C	0.287279	1.668532	0.477229
C181	C	-0.379216	1.001991	-0.107652
C182	C	-0.045882	1.335324	0.225681
C183	C	0.287451	1.668657	0.559015
H184	H	-0.281623	0.604508	-0.282862
H185	H	0.051710	0.937841	0.050471
H186	H	0.385043	1.271175	0.383804
F187	F	-0.468301	0.905439	-0.952516
F188	F	-0.134967	1.238772	-0.619183
F189	F	0.198366	1.572106	-0.285850
H190	H	-0.471845	0.266791	-0.473130
H191	H	-0.138512	0.600124	-0.139797
H192	H	0.194821	0.933457	0.193537
F193	F	-0.461888	0.739825	-0.463145
F194	F	-0.128555	1.073158	-0.129811
F195	F	0.204779	1.406492	0.203522
F196	F	-0.488818	0.408655	-0.490098
F197	F	-0.155484	0.741988	-0.156765
F198	F	0.177849	1.075322	0.176568
H199	H	-0.457540	0.917112	-0.804412
H200	H	-0.124206	1.250445	-0.471078
H201	H	0.209127	1.583779	-0.137745
H202	H	-0.444912	0.597972	-0.446181
H203	H	-0.111578	0.931306	-0.112848
H204	H	0.221755	1.264639	0.220486
F205	F	-0.641306	1.084175	-0.470304
F206	F	-0.307973	1.417509	-0.136971
F207	F	0.025360	1.750842	0.196363
F208	F	-0.785621	0.892698	-0.261743
F209	F	-0.452287	1.226031	0.071590
F210	F	-0.118954	1.559365	0.404923
F211	F	-0.972445	1.111146	-0.499637
F212	F	-0.639112	1.444479	-0.166303
F213	F	-0.305778	1.777812	0.167030
F214	F	-0.296942	0.264613	-0.298180
F215	F	0.036392	0.597946	0.035154
F216	F	0.369725	0.931280	0.368487
F217	F	-0.303015	0.416094	-0.304275
F218	F	0.030319	0.749428	0.029059
F219	F	0.363652	1.082761	0.362392
H220	H	-0.643732	0.909596	-0.280170
H221	H	-0.310399	1.242929	0.053163
H222	H	0.022935	1.576262	0.386496
F223	F	-0.792797	1.078132	-0.463724
F224	F	-0.459464	1.411466	-0.130391
F225	F	-0.126130	1.744799	0.202942
F226	F	-0.965267	0.925701	-0.297673
F227	F	-0.631933	1.259035	0.035660
F228	F	-0.298600	1.592368	0.368993
F229	F	-0.276089	0.747276	-0.277319
F230	F	0.057244	1.080609	0.056014
F231	F	0.390578	1.413943	0.389348
F232	F	-1.123945	1.105121	-0.493038
F233	F	-0.790612	1.438455	-0.159705
F234	F	-0.457278	1.771788	0.173629
H235	H	-0.301033	1.086792	-0.818206
H236	H	0.032301	1.420125	-0.484873
H237	H	0.365634	1.753458	-0.151540
F238	F	-1.116757	0.919684	-0.291063
F239	F	-0.783424	1.253017	0.042271
F240	F	-0.450090	1.586351	0.375604
F241	F	-0.290207	1.098499	-0.968195
F242	F	0.043127	1.431832	-0.634862
F243	F	0.376460	1.765166	-0.301528
