data_functionalizedCrystal
_audit_creation_method	'MofGen! by Chris Wilmer'
_symmetry_space_group_name_H-M	'P1'
_symmetry_Int_Tables_number	1
_symmetry_cell_setting	triclinic
loop_
_symmetry_equiv_pos_as_xyz
  x,y,z
_cell_length_a	17.699077
_cell_length_b	15.944493
_cell_length_c	16.776229
_cell_angle_alpha	89.999222
_cell_angle_beta	89.993415
_cell_angle_gamma	83.377810
loop_
_atom_site_label
_atom_site_type_symbol
_atom_site_fract_x
_atom_site_fract_y
_atom_site_fract_z
O1	O	1.004243	0.106201	-0.066267
O2	O	1.337576	0.439534	0.267066
O3	O	1.670909	0.772868	0.600399
O4	O	0.783885	0.120026	-0.066270
O5	O	1.117218	0.453360	0.267063
O6	O	1.450551	0.786693	0.600397
O7	O	0.900104	-0.009177	-0.066275
O8	O	1.233437	0.324156	0.267058
O9	O	1.566771	0.657489	0.600392
O10	O	0.888023	0.235405	-0.066262
O11	O	1.221357	0.568738	0.267071
O12	O	1.554690	0.902071	0.600405
O13	O	0.900089	-0.009185	0.066301
O14	O	1.233422	0.324148	0.399635
O15	O	1.566755	0.657481	0.732968
O16	O	0.783869	0.120018	0.066307
O17	O	1.117203	0.453352	0.399640
O18	O	1.450536	0.786685	0.732973
O19	O	1.004227	0.106193	0.066309
O20	O	1.337561	0.439526	0.399643
O21	O	1.670894	0.772860	0.732976
Zn22	Zn	0.894046	0.113104	0.087357
Zn23	Zn	1.227379	0.446438	0.420691
Zn24	Zn	1.560713	0.779771	0.754024
Zn25	Zn	0.894066	0.113115	-0.087318
Zn26	Zn	1.227400	0.446448	0.246015
Zn27	Zn	1.560733	0.779781	0.579349
O28	O	0.888008	0.235397	0.066314
O29	O	1.221341	0.568730	0.399648
O30	O	1.554675	0.902063	0.732981
C31	C	0.755679	0.119528	0.000018
C32	C	1.089013	0.452861	0.333351
C33	C	1.422346	0.786194	0.666685
C34	C	0.671659	0.118044	0.000016
C35	C	1.004992	0.451377	0.333350
C36	C	1.338325	0.784711	0.666683
C37	C	0.632182	0.117341	0.072285
C38	C	0.965515	0.450674	0.405618
C39	C	1.298848	0.784007	0.738951
C40	C	0.553237	0.115933	0.072285
C41	C	0.886570	0.449267	0.405619
C42	C	1.219904	0.782600	0.738952
C43	C	0.513770	0.115235	0.000017
C44	C	0.847103	0.448569	0.333350
C45	C	1.180437	0.781902	0.666684
C46	C	0.553253	0.115936	-0.072257
C47	C	0.886586	0.449270	0.261077
C48	C	1.219919	0.782603	0.594410
C49	C	0.632197	0.117338	-0.072257
C50	C	0.965530	0.450671	0.261077
C51	C	1.298863	0.784004	0.594410
C52	C	0.234881	0.110283	-0.072259
C53	C	0.568214	0.443617	0.261075
C54	C	0.901548	0.776950	0.594408
C55	C	0.155931	0.108885	-0.072253
C56	C	0.489264	0.442218	0.261080
C57	C	0.822598	0.775551	0.594414
C58	C	0.155921	0.108879	0.072284
C59	C	0.489255	0.442212	0.405617
C60	C	0.822588	0.775546	0.738950
C61	C	0.234865	0.110281	0.072284
C62	C	0.568199	0.443614	0.405617
C63	C	0.901532	0.776947	0.738950
C64	C	0.274342	0.110977	0.000010
C65	C	0.607675	0.444310	0.333344
C66	C	0.941008	0.777644	0.666677
C67	C	0.359943	0.112501	0.000010
C68	C	0.693276	0.445835	0.333344
C69	C	1.026609	0.779168	0.666677
C70	C	0.428170	0.113717	0.000016
C71	C	0.761503	0.447050	0.333350
C72	C	1.094836	0.780383	0.666683
C73	C	0.899603	-0.040475	0.000010
C74	C	1.232936	0.292858	0.333343
C75	C	1.566269	0.626192	0.666676
C76	C	0.898122	-0.133721	-0.000000
C77	C	1.231456	0.199613	0.333333
C78	C	1.564789	0.532946	0.666666
C79	C	0.966532	-0.369626	0.000015
C80	C	1.299865	-0.036293	0.333349
C81	C	1.633198	0.297041	0.666682
C82	C	0.929649	-0.420112	-0.065352
C83	C	1.262982	-0.086778	0.267982
C84	C	1.596315	0.246555	0.601315
C85	C	0.895379	-0.304436	0.000009
C86	C	1.228713	0.028898	0.333343
C87	C	1.562046	0.362231	0.666676
C88	C	0.929617	-0.420096	0.065358
C89	C	1.262950	-0.086762	0.398692
C90	C	1.596284	0.246571	0.732025
C91	C	0.892735	-0.469340	0.000022
C92	C	1.226069	-0.136006	0.333356
C93	C	1.559402	0.197327	0.666689
C94	C	0.858516	-0.353693	-0.065412
C95	C	1.191849	-0.020360	0.267922
C96	C	1.525182	0.312973	0.601255
C97	C	0.858494	-0.353674	0.065357
C98	C	1.191828	-0.020340	0.398690
C99	C	1.525161	0.312993	0.732024
C100	C	0.821559	-0.404126	-0.000026
C101	C	1.154892	-0.070793	0.333307
C102	C	1.488226	0.262540	0.666641
C103	C	0.896905	-0.209439	0.000001
C104	C	1.230238	0.123894	0.333335
C105	C	1.563571	0.457228	0.666668
C106	C	0.891204	-0.564334	0.000025
C107	C	1.224538	-0.231000	0.333358
C108	C	1.557871	0.102333	0.666691
C109	C	1.032433	0.106691	0.000020
C110	C	1.365766	0.440025	0.333353
C111	C	1.699100	0.773358	0.666686
C112	C	1.116453	0.108175	0.000016
C113	C	1.449787	0.441508	0.333349
C114	C	1.783120	0.774842	0.666683
C115	C	0.888509	0.266694	0.000028
C116	C	1.221843	0.600028	0.333361
C117	C	1.555176	0.933361	0.666695
C118	C	0.889990	0.359940	0.000033
C119	C	1.223323	0.693273	0.333366
C120	C	1.556656	1.026606	0.666699
N121	N	0.894038	0.113097	0.206569
N122	N	1.227371	0.446430	0.539902
N123	N	1.560704	0.779763	0.873235
N124	N	0.894081	0.113116	-0.206529
N125	N	1.227414	0.446449	0.126804
N126	N	1.560747	0.779782	0.460137
C127	C	0.945515	0.055909	0.248283
C128	C	1.278849	0.389242	0.581617
C129	C	1.612182	0.722575	0.914950
C130	C	0.945519	0.055908	0.331735
C131	C	1.278853	0.389241	0.665069
C132	C	1.612186	0.722575	0.998402
C133	C	0.894049	0.113100	0.373471
C134	C	1.227382	0.446433	0.706805
C135	C	1.560716	0.779767	1.040138
C136	C	0.842566	0.170291	0.331751
C137	C	1.175899	0.503624	0.665084
C138	C	1.509233	0.836957	0.998418
C139	C	0.842559	0.170287	0.248300
C140	C	1.175892	0.503620	0.581633
C141	C	1.509225	0.836953	0.914967
C142	C	0.842593	0.170307	0.668298
C143	C	1.175927	0.503641	1.001631
C144	C	1.509260	0.836974	1.334965
C145	C	0.842606	0.170308	0.751755
C146	C	1.175939	0.503642	1.085088
C147	C	1.509273	0.836975	1.418421
C148	C	0.945554	0.055929	0.751733
C149	C	1.278887	0.389262	1.085067
C150	C	1.612221	0.722595	1.418400
C151	C	0.945547	0.055925	0.668283
C152	C	1.278880	0.389258	1.001616
C153	C	1.612213	0.722591	1.334949
C154	C	0.894061	0.113112	0.626569
C155	C	1.227395	0.446445	0.959903
C156	C	1.560728	0.779779	1.293236
C157	C	0.894056	0.113111	0.536081
C158	C	1.227390	0.446444	0.869414
C159	C	1.560723	0.779778	1.202748
C160	C	0.894057	0.113106	0.463958
C161	C	1.227390	0.446439	0.797292
C162	C	1.560724	0.779772	1.130625
H163	H	0.266995	0.110853	0.131132
H164	H	0.600328	0.444186	0.464465
H165	H	0.933662	0.777520	0.797799
H166	H	0.521113	0.115362	-0.131099
H167	H	0.854446	0.448695	0.202234
H168	H	1.187780	0.782029	0.535568
F169	F	1.000331	-0.004943	0.623868
F170	F	1.333664	0.328390	0.957201
F171	F	1.666997	0.661723	1.290534
H172	H	0.987436	0.009341	0.365699
H173	H	1.320769	0.342674	0.699033
H174	H	1.654102	0.676008	1.032366
H175	H	0.959674	-0.449094	0.120618
H176	H	1.293007	-0.115760	0.453951
H177	H	1.626341	0.217573	0.787284
F178	F	0.787783	0.231156	0.376170
F179	F	1.121116	0.564489	0.709503
F180	F	1.454449	0.897822	1.042837
H181	H	0.664309	0.117916	0.131134
H182	H	0.997643	0.451249	0.464467
H183	H	1.330976	0.784583	0.797801
H184	H	1.027820	-0.354128	-0.000050
H185	H	1.361154	-0.020795	0.333284
H186	H	1.694487	0.312539	0.666617
F187	F	1.000348	-0.004939	0.796134
F188	F	1.333681	0.328394	1.129467
F189	F	1.667015	0.661728	1.462800
F190	F	0.968932	-0.458027	-0.137584
F191	F	1.302265	-0.124694	0.195749
F192	F	1.635598	0.208639	0.529083
F193	F	0.741389	-0.424174	-0.000072
F194	F	1.074722	-0.090840	0.333262
F195	F	1.408056	0.242493	0.666595
H196	H	0.800690	0.216883	0.785735
H197	H	1.134023	0.550216	1.119068
H198	H	1.467356	0.883549	1.452401
H199	H	0.800673	0.216873	0.634342
H200	H	1.134007	0.550206	0.967675
H201	H	1.467340	0.883539	1.301008
F202	F	0.819273	-0.315940	-0.137724
F203	F	1.152606	0.017394	0.195610
F204	F	1.485940	0.350727	0.528943
F205	F	0.511225	0.115196	0.149203
F206	F	0.844558	0.448530	0.482537
F207	F	1.177892	0.781863	0.815870
F208	F	0.787767	0.231152	0.203905
F209	F	1.121100	0.564485	0.537239
F210	F	1.454433	0.897819	0.870572
F211	F	0.113902	0.108134	0.149204
F212	F	0.447235	0.441468	0.482538
F213	F	0.780569	0.774801	0.815871
F214	F	0.276884	0.111025	-0.149178
F215	F	0.610218	0.444359	0.184155
F216	F	0.943551	0.777692	0.517488
F217	F	0.674211	0.118083	-0.149175
F218	F	1.007544	0.451416	0.184159
F219	F	1.340878	0.784750	0.517492
F220	F	0.113929	0.108141	-0.149175
F221	F	0.447262	0.441474	0.184158
F222	F	0.780596	0.774807	0.517492
H223	H	0.828465	-0.324652	0.120622
H224	H	1.161798	0.008681	0.453955
H225	H	1.495132	0.342014	0.787289
H226	H	0.987431	0.009340	0.214307
H227	H	1.320765	0.342673	0.547641
H228	H	1.654098	0.676007	0.880974
