data_functionalizedCrystal
_audit_creation_method	'MofGen! by Chris Wilmer'
_symmetry_space_group_name_H-M	'P1'
_symmetry_Int_Tables_number	1
_symmetry_cell_setting	triclinic
loop_
_symmetry_equiv_pos_as_xyz
  x,y,z
_cell_length_a	19.288864
_cell_length_b	17.766277
_cell_length_c	19.288857
_cell_angle_alpha	89.991474
_cell_angle_beta	96.865323
_cell_angle_gamma	90.023209
loop_
_atom_site_label
_atom_site_type_symbol
_atom_site_fract_x
_atom_site_fract_y
_atom_site_fract_z
O1	O	-0.921351	-0.062839	0.086649
O2	O	-0.588017	0.270494	0.419982
O3	O	-0.254684	0.603828	0.753316
O4	O	-0.719090	-0.062788	0.098338
O5	O	-0.385756	0.270545	0.431671
O6	O	-0.052423	0.603879	0.765005
O7	O	-0.826067	-0.062806	-0.008637
O8	O	-0.492734	0.270527	0.324696
O9	O	-0.159401	0.603861	0.658029
O10	O	-0.814373	-0.062821	0.193624
O11	O	-0.481040	0.270512	0.526957
O12	O	-0.147706	0.603846	0.860291
O13	O	-0.826049	0.062382	-0.008643
O14	O	-0.492715	0.395716	0.324691
O15	O	-0.159382	0.729049	0.658024
O16	O	-0.719071	0.062400	0.098332
O17	O	-0.385738	0.395734	0.431666
O18	O	-0.052404	0.729067	0.764999
O19	O	-0.921332	0.062349	0.086644
O20	O	-0.587999	0.395683	0.419977
O21	O	-0.254665	0.729016	0.753310
Cu22	Cu	-0.820200	0.073806	0.092488
Cu23	Cu	-0.486866	0.407139	0.425821
Cu24	Cu	-0.153533	0.740472	0.759154
Cu25	Cu	-0.820222	-0.074244	0.092494
Cu26	Cu	-0.486889	0.259089	0.425827
Cu27	Cu	-0.153555	0.592422	0.759161
O28	O	-0.814354	0.062367	0.193619
O29	O	-0.481021	0.395701	0.526952
O30	O	-0.147688	0.729034	0.860285
C31	C	-0.693204	-0.000187	0.097959
C32	C	-0.359871	0.333146	0.431292
C33	C	-0.026537	0.666479	0.764626
C34	C	-0.616100	-0.000167	0.096830
C35	C	-0.282767	0.333166	0.430163
C36	C	0.050566	0.666499	0.763497
C37	C	-0.825683	-0.000211	-0.034516
C38	C	-0.492349	0.333122	0.298817
C39	C	-0.159016	0.666456	0.632150
C40	C	-0.824556	-0.000209	-0.111620
C41	C	-0.491222	0.333125	0.221713
C42	C	-0.157889	0.666458	0.555046
C43	C	-0.947218	-0.000253	0.087022
C44	C	-0.613884	0.333080	0.420356
C45	C	-0.280551	0.666414	0.753689
C46	C	-1.024321	-0.000278	0.088151
C47	C	-0.690988	0.333055	0.421485
C48	C	-0.357655	0.666389	0.754818
N49	N	-0.820189	0.177936	0.092483
N50	N	-0.486856	0.511269	0.425816
N51	N	-0.153523	0.844603	0.759149
C52	C	-0.571402	-0.000184	0.159598
C53	C	-0.238069	0.333149	0.492931
C54	C	0.095264	0.666483	0.826265
C55	C	-0.498955	-0.000192	0.158537
C56	C	-0.165622	0.333141	0.491871
C57	C	0.167711	0.666474	0.825204
C58	C	-0.471210	-0.000199	0.094705
C59	C	-0.137876	0.333134	0.428038
C60	C	0.195457	0.666468	0.761372
C61	C	-0.515917	-0.000178	0.031929
C62	C	-0.182584	0.333155	0.365262
C63	C	0.150749	0.666488	0.698595
C64	C	-0.588363	-0.000162	0.032991
C65	C	-0.255029	0.333171	0.366325
C66	C	0.078304	0.666504	0.699658
C67	C	-0.362955	-0.044080	0.044528
C68	C	-0.029622	0.289254	0.377861
C69	C	0.303711	0.622587	0.711194
C70	C	-0.290511	-0.044100	0.043468
C71	C	0.042822	0.289233	0.376801
C72	C	0.376156	0.622567	0.710134
C73	C	-0.247764	-0.000244	0.091425
C74	C	0.085569	0.333089	0.424759
C75	C	0.418903	0.666422	0.758092
C76	C	-0.277469	0.043622	0.140455
C77	C	0.055865	0.376955	0.473788
C78	C	0.389198	0.710289	0.807121
C79	C	-0.349914	0.043638	0.141517
C80	C	-0.016581	0.376971	0.474851
C81	C	0.316752	0.710305	0.808184
C82	C	-0.392656	-0.000216	0.093546
C83	C	-0.059322	0.333118	0.426879
C84	C	0.274011	0.666451	0.760213
C85	C	-0.124510	-0.000269	0.153048
C86	C	0.208823	0.333065	0.486381
C87	C	0.542157	0.666398	0.819714
C88	C	-0.052062	-0.000272	0.151984
C89	C	0.281271	0.333061	0.485318
C90	C	0.614605	0.666394	0.818651
C91	C	-0.069026	-0.000266	0.025374
C92	C	0.264308	0.333067	0.358707
C93	C	0.597641	0.666401	0.692041
C94	C	-0.141472	-0.000255	0.026439
C95	C	0.191861	0.333079	0.359772
C96	C	0.525195	0.666412	0.693106
C97	C	-0.169210	-0.000260	0.090278
C98	C	0.164124	0.333074	0.423611
C99	C	0.497457	0.666407	0.756945
N100	N	-0.820238	-0.178375	0.092493
N101	N	-0.486905	0.154959	0.425827
N102	N	-0.153571	0.488292	0.759160
C103	C	-0.867574	0.217315	0.045137
C104	C	-0.534241	0.550648	0.378471
C105	C	-0.200908	0.883982	0.711804
C106	C	-0.867578	0.296117	0.045134
C107	C	-0.534245	0.629450	0.378467
C108	C	-0.200912	0.962783	0.711801
C109	C	-0.820204	0.335537	0.092488
C110	C	-0.486871	0.668870	0.425821
C111	C	-0.153537	1.002203	0.759155
C112	C	-0.772810	0.296148	0.139837
C113	C	-0.439477	0.629481	0.473171
C114	C	-0.106143	0.962815	0.806504
C115	C	-0.772803	0.217348	0.139834
C116	C	-0.439469	0.550681	0.473168
C117	C	-0.106136	0.884014	0.806501
C118	C	-0.810903	0.460371	0.155776
C119	C	-0.477570	0.793705	0.489109
C120	C	-0.144237	1.127038	0.822443
C121	C	-0.810915	0.539170	0.155780
C122	C	-0.477582	0.872503	0.489113
C123	C	-0.144249	1.205837	0.822446
C124	C	-0.820222	0.578583	0.092496
C125	C	-0.486889	0.911916	0.425830
C126	C	-0.153556	1.245250	0.759163
C127	C	-0.829532	0.539187	0.029207
C128	C	-0.496199	0.872520	0.362540
C129	C	-0.162865	1.205854	0.695873
C130	C	-0.829525	0.460387	0.029204
C131	C	-0.496191	0.793720	0.362537
C132	C	-0.162858	1.127054	0.695871
C133	C	-0.820206	0.420982	0.092496
C134	C	-0.486873	0.754316	0.425829
C135	C	-0.153540	1.087649	0.759163
C136	C	-0.867614	0.703408	0.045144
C137	C	-0.534281	1.036741	0.378477
C138	C	-0.200948	1.370074	0.711810
C139	C	-0.867614	0.782211	0.045139
C140	C	-0.534280	1.115544	0.378473
C141	C	-0.200947	1.448878	0.711806
C142	C	-0.772849	0.782241	0.139849
C143	C	-0.439515	1.115574	0.473182
C144	C	-0.106182	1.448907	0.806515
C145	C	-0.772846	0.703439	0.139847
C146	C	-0.439513	1.036772	0.473180
C147	C	-0.106180	1.370106	0.806514
C148	C	-0.820233	0.664027	0.092495
C149	C	-0.486899	0.997361	0.425828
C150	C	-0.153566	1.330694	0.759162
C151	C	-0.824040	-0.068449	-0.147828
C152	C	-0.490707	0.264885	0.185505
C153	C	-0.157373	0.598218	0.518839
C154	C	-0.822971	-0.068454	-0.220274
C155	C	-0.489638	0.264879	0.113059
C156	C	-0.156305	0.598213	0.446393
C157	C	-0.822432	-0.000215	-0.256511
C158	C	-0.489099	0.333118	0.076822
C159	C	-0.155766	0.666451	0.410155
C160	C	-0.822944	0.068034	-0.220295
C161	C	-0.489611	0.401367	0.113039
C162	C	-0.156278	0.734701	0.446372
C163	C	-0.824006	0.068037	-0.147849
C164	C	-0.490673	0.401371	0.185484
C165	C	-0.157339	0.734704	0.518818
C166	C	-0.861426	0.052050	-0.376745
C167	C	-0.528093	0.385383	-0.043412
C168	C	-0.194759	0.718716	0.289921
C169	C	-0.860369	0.052044	-0.449190
C170	C	-0.527035	0.385377	-0.115857
C171	C	-0.193702	0.718710	0.217477
C172	C	-0.819155	-0.000223	-0.479957
C173	C	-0.485821	0.333110	-0.146624
C174	C	-0.152488	0.666444	0.186709
C175	C	-0.779007	-0.052496	-0.438272
C176	C	-0.445674	0.280837	-0.104939
C177	C	-0.112340	0.614171	0.228395
C178	C	-0.780069	-0.052493	-0.365827
C179	C	-0.446735	0.280841	-0.032493
C180	C	-0.113402	0.614174	0.300840
C181	C	-0.821281	-0.000211	-0.335066
C182	C	-0.487947	0.333122	-0.001733
C183	C	-0.154614	0.666455	0.331600
C184	C	-0.817479	-0.068474	-0.594719
C185	C	-0.484146	0.264860	-0.261386
C186	C	-0.150812	0.598193	0.071948
C187	C	-0.816406	-0.068476	-0.667166
C188	C	-0.483073	0.264857	-0.333833
C189	C	-0.149739	0.598190	-0.000499
C190	C	-0.816386	0.068014	-0.667186
C191	C	-0.483053	0.401347	-0.333853
C192	C	-0.149719	0.734680	-0.000519
C193	C	-0.817452	0.068014	-0.594740
C194	C	-0.484119	0.401348	-0.261406
C195	C	-0.150785	0.734681	0.071927
C196	C	-0.818002	-0.000232	-0.558511
C197	C	-0.484668	0.333102	-0.225178
C198	C	-0.151335	0.666435	0.108156
C199	C	-0.814739	-0.000229	0.219498
C200	C	-0.481406	0.333104	0.552831
C201	C	-0.148072	0.666437	0.886165
C202	C	-0.815866	-0.000237	0.296602
C203	C	-0.482533	0.333097	0.629935
C204	C	-0.149199	0.666430	0.963269
H205	H	-0.593981	-0.000189	0.211581
H206	H	-0.260648	0.333144	0.544914
H207	H	0.072686	0.666477	0.878247
H208	H	-0.803340	0.571240	0.207314
H209	H	-0.470006	0.904573	0.540647
H210	H	-0.136673	1.237907	0.873980
H211	H	-0.462555	-0.000204	0.209652
H212	H	-0.129222	0.333130	0.542986
H213	H	0.204111	0.666463	0.876319
F214	F	-0.189045	-0.000241	-0.040368
F215	F	0.144288	0.333092	0.292965
F216	F	0.477621	0.666426	0.626298
F217	F	-0.824553	0.140671	-0.109313
F218	F	-0.491220	0.474005	0.224021
F219	F	-0.157887	0.807338	0.557354
F220	F	-0.815852	-0.141111	-0.705700
F221	F	-0.482519	0.192222	-0.372367
F222	F	-0.149186	0.525556	-0.039033
H223	H	-0.906197	0.671317	0.006585
H224	H	-0.572864	1.004651	0.339918
H225	H	-0.239531	1.337984	0.673251
H226	H	-0.374097	0.079358	0.181436
H227	H	-0.040764	0.412691	0.514770
H228	H	0.292570	0.746025	0.848103
F229	F	-0.839442	0.581126	-0.038149
F230	F	-0.506109	0.914460	0.295184
F231	F	-0.172776	1.247793	0.628517
F232	F	-0.903100	0.107674	-0.493548
F233	F	-0.569766	0.441007	-0.160215
F234	F	-0.236433	0.774340	0.173119
H235	H	-0.242665	0.079334	0.179506
H236	H	0.090668	0.412668	0.512839
H237	H	0.424001	0.746001	0.846173
H238	H	-0.624757	-0.000149	-0.018124
H239	H	-0.291423	0.333184	0.315209
H240	H	0.041910	0.666517	0.648543
F241	F	-0.258903	-0.090793	-0.008707
F242	F	0.074430	0.242540	0.324626
F243	F	0.407764	0.575874	0.657959
H244	H	-0.824486	-0.124020	-0.118335
H245	H	-0.491152	0.209313	0.214998
H246	H	-0.157819	0.542647	0.548332
H247	H	-0.745447	-0.095057	-0.463321
H248	H	-0.412113	0.238277	-0.129987
H249	H	-0.078780	0.571610	0.203346
H250	H	-0.147095	-0.000262	0.205029
H251	H	0.186238	0.333072	0.538362
H252	H	0.519572	0.666405	0.871696
H253	H	-0.747378	-0.095054	-0.331889
H254	H	-0.414044	0.238280	0.001444
H255	H	-0.080711	0.571613	0.334778
F256	F	-0.801048	0.418433	0.223137
F257	F	-0.467714	0.751766	0.556470
F258	F	-0.134381	1.085099	0.889803
H259	H	-0.015669	-0.000281	0.203100
H260	H	0.317665	0.333052	0.536433
H261	H	0.650998	0.666385	0.869767
F262	F	-0.822366	0.140658	-0.258861
F263	F	-0.489033	0.473992	0.074472
F264	F	-0.155699	0.807325	0.407805
F265	F	-0.722416	0.661526	0.190241
F266	F	-0.389082	0.994859	0.523575
F267	F	-0.055749	1.328192	0.856908
H268	H	-0.906157	0.185228	0.006579
H269	H	-0.572824	0.518561	0.339912
H270	H	-0.239491	0.851895	0.673246
F271	F	-0.039502	-0.000266	-0.042562
F272	F	0.293832	0.333068	0.290771
F273	F	0.627165	0.666401	0.624105
F274	F	-0.722388	0.338102	0.190233
F275	F	-0.389055	0.671435	0.523566
F276	F	-0.055722	1.004768	0.856899
H277	H	-0.734215	0.185285	0.178389
H278	H	-0.400882	0.518618	0.511723
H279	H	-0.067549	0.851951	0.845056
H280	H	-0.906198	0.814274	0.006581
H281	H	-0.572865	1.147607	0.339915
H282	H	-0.239531	1.480941	0.673248
F283	F	-0.408444	-0.090760	-0.006520
F284	F	-0.075111	0.242574	0.326814
F285	F	0.258223	0.575907	0.660147
H286	H	-0.493322	-0.000194	-0.020044
H287	H	-0.159989	0.333139	0.313289
H288	H	0.173344	0.666473	0.646623
H289	H	-0.817878	0.123583	-0.565260
H290	H	-0.484544	0.456916	-0.231926
H291	H	-0.151211	0.790250	0.101407
H292	H	-0.906166	0.328185	0.006578
H293	H	-0.572833	0.661518	0.339911
H294	H	-0.239499	0.994852	0.673245
H295	H	-0.837103	0.428314	-0.022328
H296	H	-0.503770	0.761647	0.311005
H297	H	-0.170436	1.094981	0.644338
F298	F	-0.722425	0.824190	0.190242
F299	F	-0.389092	1.157524	0.523576
F300	F	-0.055759	1.490857	0.856909
F301	F	-0.822422	-0.141088	-0.258817
F302	F	-0.489088	0.192246	0.074517
F303	F	-0.155755	0.525579	0.407850
H304	H	-0.817923	-0.124044	-0.565220
H305	H	-0.484589	0.209290	-0.231886
H306	H	-0.151256	0.542623	0.101447
F307	F	-0.815809	0.140639	-0.705747
F308	F	-0.482475	0.473973	-0.372414
F309	F	-0.149142	0.807306	-0.039081
H310	H	-0.894987	0.094617	-0.351701
H311	H	-0.561654	0.427951	-0.018368
H312	H	-0.228320	0.761284	0.314966
