data_functionalizedCrystal
_audit_creation_method	'MofGen! by Chris Wilmer'
_symmetry_space_group_name_H-M	'P1'
_symmetry_Int_Tables_number	1
_symmetry_cell_setting	triclinic
loop_
_symmetry_equiv_pos_as_xyz
  x,y,z
_cell_length_a	19.121063
_cell_length_b	18.215407
_cell_length_c	18.215399
_cell_angle_alpha	90.020595
_cell_angle_beta	92.409843
_cell_angle_gamma	87.531048
loop_
_atom_site_label
_atom_site_type_symbol
_atom_site_fract_x
_atom_site_fract_y
_atom_site_fract_z
Zn1	Zn	-0.279623	-1.112559	-0.428611
Zn2	Zn	-0.397078	-1.107211	-0.310787
Zn3	Zn	-0.279645	-0.989490	-0.305558
Zn4	Zn	-0.397038	-0.984203	-0.433809
O5	O	-0.338346	-1.048366	-0.369691
O6	O	-0.295211	-1.214833	-0.412995
O7	O	-0.381526	-1.091570	-0.207110
O8	O	-0.181357	-1.010267	-0.317518
O9	O	-0.381505	-1.210904	-0.326430
O10	O	-0.181341	-1.100684	-0.407924
O11	O	-0.295248	-1.005081	-0.203268
O12	O	-0.295209	-0.885805	-0.322557
O13	O	-0.381436	-1.001255	-0.536102
O14	O	-0.381457	-0.881920	-0.416783
O15	O	-0.295172	-1.095557	-0.532284
O16	O	-0.495357	-1.086443	-0.331470
O17	O	-0.495328	-0.996069	-0.421853
C18	C	-0.338332	-0.857160	-0.369667
C19	C	-0.338343	-0.775361	-0.369675
C20	C	-0.383321	-0.585160	-0.418680
C21	C	-0.383323	-0.508301	-0.418688
C22	C	-0.293374	-0.512323	-0.320706
C23	C	-0.293369	-0.589181	-0.320702
C24	C	-0.338347	-0.625597	-0.369688
C25	C	-0.338353	-0.471881	-0.369700
C26	C	-0.338354	-0.388547	-0.369709
C27	C	-0.338345	-0.708936	-0.369680
C28	C	-0.520826	-1.040122	-0.377809
C29	C	-0.598892	-1.036663	-0.381307
C30	C	-0.635560	-1.082127	-0.335931
C31	C	-0.708911	-1.078878	-0.339225
C32	C	-0.745594	-1.030160	-0.387891
C33	C	-0.708921	-0.984694	-0.433272
C34	C	-0.635571	-0.987948	-0.429981
C35	C	-0.967064	-1.017985	-0.400182
C36	C	-1.040419	-1.014733	-0.403467
C37	C	-1.040404	-1.108918	-0.309421
C38	C	-0.967053	-1.112164	-0.306132
C39	C	-0.930386	-1.066701	-0.351515
C40	C	-0.820571	-1.026836	-0.391257
C41	C	-0.855411	-1.070029	-0.348152
C42	C	-0.155152	-1.056662	-0.361558
C43	C	-0.077086	-1.060197	-0.358092
C44	C	-0.338297	-1.048413	-0.561642
C45	C	-0.338277	-1.048433	-0.643440
C46	C	-0.338358	-0.240318	-0.369713
C47	C	-0.338357	-0.322117	-0.369713
C48	C	-0.293317	-1.097555	-0.829645
C49	C	-0.293296	-1.097565	-0.906503
C50	C	-0.383128	-0.999368	-0.910468
C51	C	-0.383144	-0.999355	-0.833612
C52	C	-0.338240	-1.048453	-0.793202
C53	C	-0.338203	-1.048475	-0.946917
C54	C	-0.338181	-1.048485	-1.030249
C55	C	-0.338260	-1.048442	-0.709864
C56	C	-0.338343	-1.048364	-0.178485
C57	C	-0.338166	-1.048495	-0.096679
H58	H	-0.419943	-0.614808	-0.458569
O59	O	-0.249638	-1.145335	-0.941789
C60	C	-0.209997	-1.188650	-0.889638
H61	H	-0.238779	-1.189887	-0.836130
H62	H	-0.156655	-1.164115	-0.879089
C63	C	-0.164521	-1.265919	-0.984920
C64	C	-0.199875	-1.267443	-0.919203
H65	H	-0.158273	-1.314521	-1.003158
H66	H	-0.191225	-1.236735	-1.020056
H67	H	-0.120073	-1.245469	-0.976121
H68	H	-0.244325	-1.287884	-0.928005
H69	H	-0.173177	-1.296632	-0.884069
O70	O	-0.426824	-0.951783	-0.949761
C71	C	-0.472168	-0.991637	-0.996251
H72	H	-0.476513	-1.049398	-0.973292
H73	H	-0.450440	-0.995166	-1.053536
C74	C	-0.539842	-0.881437	-1.028862
C75	C	-0.545184	-0.952378	-1.000660
H76	H	-0.584882	-0.857219	-1.031585
H77	H	-0.509292	-0.854585	-0.997543
H78	H	-0.521733	-0.884387	-1.076597
H79	H	-0.563285	-0.949426	-0.952922
H80	H	-0.575739	-0.979229	-1.031971
H81	H	-0.256742	-0.622106	-0.280807
O82	O	-0.249757	-1.145212	-0.790280
C83	C	-0.259389	-1.134661	-0.714628
H84	H	-0.313595	-1.108111	-0.706527
H85	H	-0.217736	-1.097346	-0.690964
C86	C	-0.186376	-1.242015	-0.684846
C87	C	-0.252956	-1.209412	-0.674897
H88	H	-0.182405	-1.288124	-0.660337
H89	H	-0.179885	-1.249123	-0.735814
H90	H	-0.151673	-1.210912	-0.665127
H91	H	-0.287657	-1.240511	-0.694624
H92	H	-0.259453	-1.202312	-0.623931
H93	H	-0.825542	-1.109697	-0.308531
O94	O	-0.426978	-0.469104	-0.466377
C95	C	-0.411707	-0.488594	-0.539071
H96	H	-0.384706	-0.545617	-0.539436
H97	H	-0.375630	-0.446978	-0.562320
C98	C	-0.513394	-0.419035	-0.586132
C99	C	-0.480237	-0.489075	-0.586581
H100	H	-0.555665	-0.419328	-0.615439
H101	H	-0.523682	-0.405901	-0.537157
H102	H	-0.483322	-0.384362	-0.605504
H103	H	-0.510304	-0.523744	-0.567200
H104	H	-0.469956	-0.502214	-0.635553
H105	H	-0.605717	-0.950927	-0.466932
H106	H	-0.850445	-0.987169	-0.430880
H107	H	-0.419725	-0.959365	-0.803939
H108	H	-0.605698	-1.121794	-0.296299
H109	H	-0.738763	-1.115899	-0.302275
O110	O	-0.249752	-0.476830	-0.273149
C111	C	-0.259386	-0.400322	-0.283669
H112	H	-0.313619	-0.387386	-0.310090
H113	H	-0.217777	-0.380408	-0.321083
C114	C	-0.186248	-0.377015	-0.176480
C115	C	-0.252860	-0.361126	-0.208926
H116	H	-0.182219	-0.352835	-0.130376
H117	H	-0.179755	-0.428559	-0.169394
H118	H	-0.151580	-0.360419	-0.207666
H119	H	-0.287526	-0.377730	-0.177745
H120	H	-0.259359	-0.309583	-0.216005
H121	H	-0.937187	-1.151833	-0.266504
H122	H	-1.070266	-1.145932	-0.272474
O123	O	-1.075945	-0.967392	-0.450814
C124	C	-1.027854	-0.927951	-0.490155
H125	H	-0.975541	-0.960411	-0.490384
H126	H	-1.020115	-0.872413	-0.462814
C127	C	-1.120694	-0.876175	-0.569470
C128	C	-1.056444	-0.916046	-0.569757
H129	H	-1.138330	-0.868828	-0.618571
H130	H	-1.153094	-0.902745	-0.542964
H131	H	-1.114236	-0.829898	-0.546682
H132	H	-1.062904	-0.962326	-0.592536
H133	H	-1.024046	-0.889484	-0.596269
H134	H	-0.937216	-0.980965	-0.437133
H135	H	-0.738793	-0.945031	-0.472900
