data_functionalizedCrystal
_audit_creation_method	'MofGen! by Chris Wilmer'
_symmetry_space_group_name_H-M	'P1'
_symmetry_Int_Tables_number	1
_symmetry_cell_setting	triclinic
loop_
_symmetry_equiv_pos_as_xyz
  x,y,z
_cell_length_a	10.489711
_cell_length_b	10.489741
_cell_length_c	9.565339
_cell_angle_alpha	89.999484
_cell_angle_beta	90.005127
_cell_angle_gamma	84.533091
loop_
_atom_site_label
_atom_site_type_symbol
_atom_site_fract_x
_atom_site_fract_y
_atom_site_fract_z
O1	O	1.694075	0.179778	0.116310
O2	O	1.322874	0.196711	0.116301
O3	O	1.516921	0.002646	0.116297
O4	O	1.500028	0.373843	0.116314
O5	O	1.516906	0.002658	-0.116223
O6	O	1.322859	0.196723	-0.116219
O7	O	1.694060	0.179790	-0.116210
Zn8	Zn	1.508457	0.188258	-0.153132
Zn9	Zn	1.508477	0.188242	0.153223
O10	O	1.500013	0.373855	-0.116206
C11	C	1.275334	0.195446	0.000040
C12	C	1.133703	0.191644	0.000037
C13	C	0.951317	0.308348	0.000058
C14	C	1.043470	0.250047	0.114698
C15	C	1.043428	0.250027	-0.114549
C16	C	0.973519	0.126504	0.114801
C17	C	0.973467	0.126502	-0.114549
C18	C	1.065593	0.068111	0.000119
C19	C	1.515638	-0.044880	0.000038
C20	C	1.511820	-0.186509	0.000041
C21	C	1.388354	-0.254636	0.000048
C22	C	1.446671	-0.346759	-0.114595
C23	C	1.446715	-0.346745	0.114652
C24	C	1.570188	-0.276766	-0.114697
C25	C	1.570215	-0.276743	0.114652
C26	C	1.628622	-0.368839	-0.000019
C27	C	1.741600	0.181055	0.000054
C28	C	1.883231	0.184857	0.000066
C29	C	1.501296	0.421381	0.000056
C30	C	1.505114	0.563010	0.000063
N31	N	1.508452	0.188268	-0.362211
C32	C	1.418685	0.277987	-0.453413
C33	C	1.534183	0.303785	-0.546588
C34	C	1.393004	0.162481	-0.546592
C35	C	1.624009	0.214125	-0.453335
C36	C	1.482754	0.072769	-0.453331
C37	C	1.598335	0.098519	-0.546464
N38	N	1.508492	0.188222	0.362303
H39	H	0.942438	0.074298	-0.211478
H40	H	1.721681	0.236033	-0.412543
H41	H	1.555946	0.401440	-0.587550
H42	H	1.394465	-0.377709	0.211582
H43	H	1.342841	0.353929	-0.412556
H44	H	1.674349	0.022624	-0.587064
H45	H	1.074377	0.302306	-0.211469
H46	H	1.286841	-0.204974	-0.000070
H47	H	0.942716	0.074296	0.211834
H48	H	1.460955	-0.024855	-0.412336
H49	H	1.295355	0.140690	-0.587559
H50	H	1.115050	-0.033484	0.000173
H51	H	0.901626	0.409850	0.000176
H52	H	1.394423	-0.377760	-0.211520
H53	H	1.730226	-0.418274	-0.000080
H54	H	1.074471	0.302298	0.211618
H55	H	1.622377	-0.245935	-0.211728
H56	H	1.622419	-0.245709	0.211582
