data_functionalizedCrystal
_audit_creation_method	'MofGen! by Chris Wilmer'
_symmetry_space_group_name_H-M	'P1'
_symmetry_Int_Tables_number	1
_symmetry_cell_setting	triclinic
loop_
_symmetry_equiv_pos_as_xyz
  x,y,z
_cell_length_a	21.295417
_cell_length_b	13.897449
_cell_length_c	13.897441
_cell_angle_alpha	90.018596
_cell_angle_beta	89.964549
_cell_angle_gamma	89.968214
loop_
_atom_site_label
_atom_site_type_symbol
_atom_site_fract_x
_atom_site_fract_y
_atom_site_fract_z
Zn1	Zn	-0.250574	-1.474596	-0.545342
Zn2	Zn	0.082760	-1.141263	-0.212009
Zn3	Zn	0.416093	-0.807930	0.121325
Zn4	Zn	-0.355851	-1.474460	-0.384027
Zn5	Zn	-0.022518	-1.141127	-0.050694
Zn6	Zn	0.310816	-0.807794	0.282640
Zn7	Zn	-0.250602	-1.313292	-0.384060
Zn8	Zn	0.082731	-0.979958	-0.050727
Zn9	Zn	0.416065	-0.646625	0.282606
Zn10	Zn	-0.355811	-1.313231	-0.545280
Zn11	Zn	-0.022478	-0.979898	-0.211946
Zn12	Zn	0.310855	-0.646564	0.121387
O13	O	-0.303209	-1.393895	-0.464677
O14	O	0.030124	-1.060562	-0.131344
O15	O	0.363457	-0.727228	0.201989
O16	O	-0.264544	-1.609560	-0.523955
O17	O	0.068790	-1.276227	-0.190622
O18	O	0.402123	-0.942893	0.142711
O19	O	-0.341918	-1.453049	-0.249050
O20	O	-0.008584	-1.119716	0.084284
O21	O	0.324749	-0.786383	0.417617
O22	O	-0.162509	-1.334771	-0.405495
O23	O	0.170825	-1.001438	-0.072162
O24	O	0.504158	-0.668104	0.261172
O25	O	-0.341890	-1.609460	-0.405438
O26	O	-0.008557	-1.276127	-0.072105
O27	O	0.324776	-0.942793	0.261229
O28	O	-0.162488	-1.453281	-0.523988
O29	O	0.170845	-1.119948	-0.190655
O30	O	0.504179	-0.786614	0.142679
O31	O	-0.264592	-1.334639	-0.249074
O32	O	0.068742	-1.001306	0.084259
O33	O	0.402075	-0.667973	0.417592
O34	O	-0.264553	-1.178302	-0.405434
O35	O	0.068780	-0.844969	-0.072101
O36	O	0.402113	-0.511635	0.261232
O37	O	-0.341823	-1.334668	-0.680270
O38	O	-0.008490	-1.001335	-0.346936
O39	O	0.324844	-0.668002	-0.013603
O40	O	-0.341850	-1.178258	-0.523881
O41	O	-0.008517	-0.844924	-0.190548
O42	O	0.324816	-0.511591	0.142785
O43	O	-0.264505	-1.453223	-0.680316
O44	O	0.068828	-1.119889	-0.346982
O45	O	0.402161	-0.786556	-0.013649
O46	O	-0.443935	-1.452991	-0.405378
O47	O	-0.110602	-1.119657	-0.072044
O48	O	0.222732	-0.786324	0.261289
O49	O	-0.443906	-1.334536	-0.523849
O50	O	-0.110573	-1.001203	-0.190516
O51	O	0.222761	-0.667870	0.142818
C52	C	-0.303201	-1.143281	-0.464655
C53	C	0.030132	-0.809947	-0.131322
C54	C	0.363466	-0.476614	0.202011
C55	C	-0.303213	-1.036067	-0.464669
C56	C	0.030121	-0.702733	-0.131336
C57	C	0.363454	-0.369400	0.201998
C58	C	-0.466761	-1.393768	-0.464624
C59	C	-0.133428	-1.060435	-0.131291
C60	C	0.199906	-0.727102	0.202043
C61	C	-0.536729	-1.393803	-0.464633
C62	C	-0.203396	-1.060469	-0.131300
C63	C	0.129937	-0.727136	0.202033
C64	C	-0.303157	-1.393954	-0.716270
C65	C	0.030177	-1.060621	-0.382937
C66	C	0.363510	-0.727287	-0.049604
C67	C	-0.303134	-1.393979	-0.823484
C68	C	0.030199	-1.060646	-0.490151
C69	C	0.363533	-0.727312	-0.156818
C70	C	-0.569590	-1.455537	-0.403008
C71	C	-0.236257	-1.122203	-0.069675
C72	C	0.097077	-0.788870	0.263658
C73	C	-0.635333	-1.455582	-0.403030
C74	C	-0.301999	-1.122248	-0.069697
C75	C	0.031334	-0.788915	0.263637
C76	C	-0.668212	-1.393876	-0.464667
C77	C	-0.334878	-1.060542	-0.131333
C78	C	-0.001545	-0.727209	0.202000
C79	C	-0.635343	-1.332137	-0.526304
C80	C	-0.302010	-0.998804	-0.192970
C81	C	0.031324	-0.665471	0.140363
C82	C	-0.569602	-1.332101	-0.526287
C83	C	-0.236268	-0.998767	-0.192954
C84	C	0.097065	-0.665434	0.140380
N85	N	-0.771478	-1.309494	-0.472013
N86	N	-0.438145	-0.976161	-0.138679
N87	N	-0.104812	-0.642828	0.194654
N88	N	-0.833930	-1.309532	-0.472023
N89	N	-0.500596	-0.976199	-0.138690
N90	N	-0.167263	-0.642865	0.194644
C91	C	-0.866286	-1.393984	-0.464722
C92	C	-0.532953	-1.060650	-0.131389
C93	C	-0.199620	-0.727317	0.201945
N94	N	-0.833832	-1.478398	-0.457392
N95	N	-0.500499	-1.145065	-0.124058
N96	N	-0.167166	-0.811732	0.209275
N97	N	-0.771375	-1.478360	-0.457376
N98	N	-0.438042	-1.145027	-0.124043
N99	N	-0.104708	-0.811693	0.209290
C100	C	-0.739497	-1.393909	-0.464692
C101	C	-0.406164	-1.060576	-0.131359
C102	C	-0.072830	-0.727242	0.201975
C103	C	-0.970433	-1.455772	-0.403117
C104	C	-0.637099	-1.122439	-0.069784
C105	C	-0.303766	-0.789105	0.263549
C106	C	-1.036176	-1.455819	-0.403146
C107	C	-0.702843	-1.122485	-0.069812
C108	C	-0.369510	-0.789152	0.263521
C109	C	-1.036185	-1.332366	-0.526414
C110	C	-0.702852	-0.999033	-0.193081
C111	C	-0.369519	-0.665699	0.140253
C112	C	-0.970443	-1.332328	-0.526391
C113	C	-0.637110	-0.998994	-0.193057
C114	C	-0.303776	-0.665661	0.140276
C115	C	-0.937571	-1.394029	-0.464737
C116	C	-0.604237	-1.060696	-0.131404
C117	C	-0.270904	-0.727363	0.201930
C118	C	-0.139019	-1.394048	-0.464752
C119	C	0.194314	-1.060715	-0.131419
C120	C	0.527648	-0.727381	0.201915
C121	C	-0.069051	-1.394113	-0.464784
C122	C	0.264282	-1.060780	-0.131451
C123	C	0.597616	-0.727447	0.201883
C124	C	-0.303218	-1.645488	-0.464700
C125	C	0.030115	-1.312154	-0.131367
C126	C	0.363448	-0.978821	0.201967
C127	C	-0.303222	-1.752702	-0.464710
C128	C	0.030111	-1.419368	-0.131376
C129	C	0.363445	-1.086035	0.201957
C130	C	-0.303215	-0.839771	-0.464694
C131	C	0.030118	-0.506438	-0.131361
C132	C	0.363452	-0.173105	0.201973
C133	C	-0.303212	-0.949004	-0.464677
C134	C	0.030122	-0.615671	-0.131344
C135	C	0.363455	-0.282337	0.201989
C136	C	-0.303116	-1.393999	-0.910554
C137	C	0.030217	-1.060666	-0.577221
C138	C	0.363550	-0.727332	-0.243888
C139	C	-0.303088	-1.394026	-1.019787
C140	C	0.030245	-1.060693	-0.686454
C141	C	0.363579	-0.727360	-0.353120
C142	C	-0.303217	-1.393892	-0.214063
C143	C	0.030117	-1.060558	0.119270
C144	C	0.363450	-0.727225	0.452604
C145	C	-0.303062	-1.394053	-0.106850
C146	C	0.030271	-1.060720	0.226484
C147	C	0.363605	-0.727387	0.559817
H148	H	-0.542827	-1.505780	-0.352809
H149	H	-0.209494	-1.172447	-0.019476
H150	H	0.123839	-0.839113	0.313858
C151	C	-0.671504	-1.264262	-0.594105
C152	C	-0.338171	-0.930929	-0.260772
C153	C	-0.004837	-0.597596	0.072562
H154	H	-0.642515	-1.227494	-0.630811
H155	H	-0.309182	-0.894161	-0.297478
H156	H	0.024152	-0.560828	0.035855
H157	H	-0.697194	-1.222268	-0.557178
H158	H	-0.363861	-0.888934	-0.223845
H159	H	-0.030527	-0.555601	0.109488
H160	H	-0.697105	-1.301159	-0.636174
H161	H	-0.363772	-0.967826	-0.302841
H162	H	-0.030439	-0.634493	0.030492
C163	C	-0.671487	-1.523484	-0.335233
C164	C	-0.338154	-1.190151	-0.001899
C165	C	-0.004821	-0.856817	0.331434
H166	H	-0.642494	-1.560220	-0.298508
H167	H	-0.309160	-1.226887	0.034826
H168	H	0.024173	-0.893554	0.368159
H169	H	-0.697092	-1.565507	-0.372167
H170	H	-0.363759	-1.232174	-0.038833
H171	H	-0.030426	-0.898841	0.294500
H172	H	-0.697173	-1.486606	-0.293180
H173	H	-0.363839	-1.153273	0.040153
H174	H	-0.030506	-0.819940	0.373487
C175	C	-0.533450	-1.264189	-0.594072
C176	C	-0.200117	-0.930856	-0.260739
C177	C	0.133216	-0.597523	0.072594
H178	H	-0.489589	-1.273008	-0.585237
H179	H	-0.156256	-0.939675	-0.251903
H180	H	0.177078	-0.606342	0.081430
H181	H	-0.544271	-1.199393	-0.579905
H182	H	-0.210938	-0.866060	-0.246572
H183	H	0.122396	-0.532726	0.086761
H184	H	-0.544180	-1.278284	-0.658902
H185	H	-0.210847	-0.944951	-0.325568
H186	H	0.122486	-0.611618	0.007765
H187	H	-0.943667	-1.506016	-0.352918
H188	H	-0.610334	-1.172683	-0.019585
H189	H	-0.277000	-0.839350	0.313749
C190	C	-1.072327	-1.523717	-0.335345
C191	C	-0.738993	-1.190383	-0.002012
C192	C	-0.405660	-0.857050	0.331322
H193	H	-1.116188	-1.514907	-0.344188
H194	H	-0.782855	-1.181574	-0.010854
H195	H	-0.449522	-0.848241	0.322479
H196	H	-1.061592	-1.509614	-0.270524
H197	H	-0.728259	-1.176281	0.062809
H198	H	-0.394926	-0.842948	0.396142
H199	H	-1.061509	-1.588521	-0.349506
H200	H	-0.728175	-1.255187	-0.016172
H201	H	-0.394842	-0.921854	0.317161
C202	C	-1.072344	-1.264495	-0.594218
C203	C	-0.739011	-0.931162	-0.260884
C204	C	-0.405678	-0.597828	0.072449
H205	H	-1.116205	-1.273355	-0.585401
H206	H	-0.782871	-0.940022	-0.252067
H207	H	-0.449538	-0.606688	0.081266
H208	H	-1.061526	-1.278570	-0.659036
H209	H	-0.728193	-0.945236	-0.325703
H210	H	-0.394860	-0.611903	0.007631
H211	H	-1.061619	-1.199682	-0.580036
H212	H	-0.728285	-0.866349	-0.246703
H213	H	-0.394952	-0.533015	0.086631
C214	C	-0.934294	-1.264407	-0.594167
C215	C	-0.600961	-0.931074	-0.260833
C216	C	-0.267628	-0.597741	0.072500
H217	H	-0.963290	-1.227657	-0.630873
H218	H	-0.629956	-0.894323	-0.297540
H219	H	-0.296623	-0.560990	0.035793
H220	H	-0.908603	-1.301262	-0.636222
H221	H	-0.575269	-0.967929	-0.302889
H222	H	-0.241936	-0.634595	0.030444
H223	H	-0.908696	-1.222384	-0.557213
H224	H	-0.575362	-0.889050	-0.223880
H225	H	-0.242029	-0.555717	0.109454
