data_functionalizedCrystal
_audit_creation_method	'MofGen! by Chris Wilmer'
_symmetry_space_group_name_H-M	'P1'
_symmetry_Int_Tables_number	1
_symmetry_cell_setting	triclinic
loop_
_symmetry_equiv_pos_as_xyz
  x,y,z
_cell_length_a	18.101395
_cell_length_b	12.759401
_cell_length_c	12.759393
_cell_angle_alpha	90.022497
_cell_angle_beta	89.967630
_cell_angle_gamma	89.968074
loop_
_atom_site_label
_atom_site_type_symbol
_atom_site_fract_x
_atom_site_fract_y
_atom_site_fract_z
Zn1	Zn	-0.294778	-1.606147	-0.594050
Zn2	Zn	-0.418637	-1.605987	-0.418364
Zn3	Zn	-0.294815	-1.430445	-0.418380
Zn4	Zn	-0.418584	-1.430387	-0.593997
O5	O	-0.356703	-1.518242	-0.506198
O6	O	-0.311214	-1.753147	-0.570761
O7	O	-0.402250	-1.582659	-0.271345
O8	O	-0.191177	-1.453844	-0.441712
O9	O	-0.402213	-1.753030	-0.441685
O10	O	-0.191150	-1.582931	-0.570776
O11	O	-0.311279	-1.453689	-0.271357
O12	O	-0.311227	-1.283417	-0.441661
O13	O	-0.402122	-1.453744	-0.741025
O14	O	-0.402159	-1.283374	-0.570685
O15	O	-0.311163	-1.582874	-0.741064
O16	O	-0.522263	-1.582603	-0.441633
O17	O	-0.522224	-1.453590	-0.570670
C18	C	-0.356692	-1.245274	-0.506170
C19	C	-0.356705	-1.128498	-0.506183
C20	C	-0.404125	-1.073641	-0.573258
C21	C	-0.404127	-0.963917	-0.573276
C22	C	-0.309287	-0.963916	-0.439133
C23	C	-0.309282	-1.073638	-0.439122
C24	C	-0.549114	-1.518101	-0.506167
C25	C	-0.631428	-1.518137	-0.506189
C26	C	-0.930519	-1.518368	-0.506246
C27	C	-0.899200	-1.437384	-0.587633
C28	C	-0.813582	-1.436999	-0.587379
C29	C	-0.782136	-1.518253	-0.506218
C30	C	-0.813295	-1.488271	-0.395492
C31	C	-0.898940	-1.487748	-0.395979
C32	C	-0.898860	-1.629511	-0.534610
C33	C	-0.813208	-1.628857	-0.537038
C34	C	-0.698277	-1.518190	-0.506196
C35	C	-1.014378	-1.518428	-0.506260
C36	C	-0.163541	-1.518411	-0.506252
C37	C	-0.081227	-1.518484	-0.506275
C38	C	-0.356632	-1.518320	-0.780231
C39	C	-0.356602	-1.518354	-0.897008
C40	C	-0.356713	-0.792275	-0.506220
C41	C	-0.356712	-0.909051	-0.506212
C42	C	-0.309232	-1.585597	-0.951892
C43	C	-0.309200	-1.585614	-1.061616
C44	C	-0.403915	-1.451143	-1.061563
C45	C	-0.403942	-1.451121	-0.951841
C46	C	-0.356721	-1.518224	-0.233231
C47	C	-0.356542	-1.518394	-0.116454
H48	H	-0.270678	-0.919236	-0.384533
C49	C	-0.928355	-1.326763	-0.562574
C50	C	-0.905438	-1.233188	-0.631471
C51	C	-0.934593	-1.122568	-0.606407
C52	C	-0.986665	-1.105523	-0.512445
C53	C	-1.009585	-1.199101	-0.443541
C54	C	-0.980430	-1.309721	-0.468606
H55	H	-0.866889	-1.245803	-0.701033
H56	H	-0.917626	-1.053296	-0.657414
H57	H	-1.008247	-1.023635	-0.493891
H58	H	-1.048134	-1.186485	-0.373980
H59	H	-0.997397	-1.378993	-0.417598
C60	C	-0.257153	-1.659542	-0.891575
C61	C	-0.199029	-1.614053	-0.816150
C62	C	-0.146948	-1.687998	-0.755835
C63	C	-0.152990	-1.807432	-0.770946
C64	C	-0.211116	-1.852927	-0.846374
C65	C	-0.263198	-1.778982	-0.906689
H66	H	-0.194554	-1.525636	-0.804961
H67	H	-0.103919	-1.654319	-0.699998
H68	H	-0.114436	-1.862171	-0.726298
H69	H	-0.215591	-1.941344	-0.857563
H70	H	-0.306227	-1.812661	-0.962526
C71	C	-0.926222	-1.711024	-0.454537
C72	C	-0.972484	-1.805316	-0.491429
C73	C	-0.999852	-1.886819	-0.411353
C74	C	-0.980958	-1.874030	-0.294386
C75	C	-0.934694	-1.779734	-0.257489
C76	C	-0.907326	-1.698232	-0.337564
H77	H	-0.986472	-1.814787	-0.578020
H78	H	-1.034099	-1.956622	-0.438668
H79	H	-1.001217	-1.934363	-0.235109
H80	H	-0.920705	-1.770264	-0.170898
H81	H	-0.873078	-1.628428	-0.310250
H82	H	-0.442516	-1.396356	-0.907153
H83	H	-0.270662	-1.118304	-0.384500
C84	C	-0.257092	-1.659585	-1.121989
C85	C	-0.205021	-1.733532	-1.061671
C86	C	-0.152910	-1.807504	-1.122043
C87	C	-0.152870	-1.807528	-1.242733
C88	C	-0.204944	-1.733578	-1.303058
C89	C	-0.257055	-1.659606	-1.242686
H90	H	-0.205048	-1.733517	-0.972323
H91	H	-0.114362	-1.862246	-1.077386
H92	H	-0.114295	-1.862286	-1.287424
H93	H	-0.204916	-1.733593	-1.392406
H94	H	-0.295603	-1.604863	-1.287343
H95	H	-0.442739	-0.919257	-0.627898
H96	H	-0.792513	-1.455759	-0.669481
C97	C	-0.455993	-1.377206	-1.121890
C98	C	-0.514116	-1.422710	-1.197308
C99	C	-0.566198	-1.348778	-1.257636
C100	C	-0.560158	-1.229341	-1.242547
C101	C	-0.502033	-1.183831	-1.167126
C102	C	-0.449951	-1.257764	-1.106797
H103	H	-0.518590	-1.511130	-1.208481
H104	H	-0.609226	-1.382468	-1.313468
H105	H	-0.598712	-1.174612	-1.287206
H106	H	-0.497559	-1.095412	-1.155952
H107	H	-0.406923	-1.224074	-1.050965
C108	C	-0.456283	-1.133988	-0.647031
C109	C	-0.540465	-1.118836	-0.638255
C110	C	-0.592622	-1.179180	-0.712033
C111	C	-0.560598	-1.254676	-0.794587
C112	C	-0.476411	-1.269832	-0.803366
C113	C	-0.424254	-1.209488	-0.729589
H114	H	-0.564175	-1.062945	-0.577140
H115	H	-0.654943	-1.167960	-0.705533
H116	H	-0.599208	-1.299347	-0.849201
H117	H	-0.452701	-1.325722	-0.864481
H118	H	-0.361933	-1.220708	-0.736089
H119	H	-0.918985	-1.406503	-0.371952
C120	C	-0.926943	-1.462472	-0.698915
C121	C	-0.978379	-1.556798	-0.717252
C122	C	-1.006125	-1.581892	-0.828538
C123	C	-0.982435	-1.512660	-0.921486
C124	C	-0.930996	-1.418328	-0.903151
C125	C	-0.903251	-1.393234	-0.791866
H126	H	-0.995918	-1.608053	-0.648444
H127	H	-1.044203	-1.651723	-0.842109
H128	H	-1.002973	-1.531236	-1.003866
H129	H	-0.913457	-1.367073	-0.971960
H130	H	-0.865172	-1.323403	-0.778294
H131	H	-0.793161	-1.354618	-0.568590
H132	H	-0.919661	-1.544174	-0.333271
H133	H	-0.792928	-1.545399	-0.333198
H134	H	-0.791912	-1.407886	-0.371034
C135	C	-0.785685	-1.659418	-0.647116
C136	C	-0.735233	-1.584330	-0.708762
C137	C	-0.707703	-1.614889	-0.818839
C138	C	-0.730625	-1.720537	-0.867270
C139	C	-0.781079	-1.795632	-0.805624
C140	C	-0.808609	-1.765073	-0.695547
H141	H	-0.718263	-1.506117	-0.672911
H142	H	-0.670353	-1.559298	-0.864474
H143	H	-0.710245	-1.743159	-0.948756
H144	H	-0.798050	-1.873845	-0.841475
H145	H	-0.845959	-1.820664	-0.649912
C146	C	-0.784346	-1.714673	-0.462735
C147	C	-0.731820	-1.685692	-0.372373
C148	C	-0.702985	-1.771498	-0.298031
C149	C	-0.726677	-1.886286	-0.314051
C150	C	-0.779206	-1.915273	-0.404416
C151	C	-0.808041	-1.829467	-0.478759
H152	H	-0.714279	-1.600714	-0.360511
H153	H	-0.664099	-1.750039	-0.231136
H154	H	-0.705332	-1.949804	-0.259018
H155	H	-0.796747	-2.000250	-0.416279
H156	H	-0.846927	-1.850925	-0.545653
H157	H	-0.920402	-1.656845	-0.613975
