data_functionalizedCrystal
_audit_creation_method	'MofGen! by Chris Wilmer'
_symmetry_space_group_name_H-M	'P1'
_symmetry_Int_Tables_number	1
_symmetry_cell_setting	triclinic
loop_
_symmetry_equiv_pos_as_xyz
  x,y,z
_cell_length_a	12.759401
_cell_length_b	25.639240
_cell_length_c	12.759393
_cell_angle_alpha	89.956840
_cell_angle_beta	89.979062
_cell_angle_gamma	90.034283
loop_
_atom_site_label
_atom_site_type_symbol
_atom_site_fract_x
_atom_site_fract_y
_atom_site_fract_z
Zn1	Zn	1.606135	-0.208104	-0.593928
Zn2	Zn	1.605970	-0.295549	-0.418209
Zn3	Zn	1.430433	-0.208132	-0.418263
Zn4	Zn	1.430370	-0.295513	-0.593846
O5	O	1.518227	-0.251825	-0.506061
O6	O	1.753134	-0.219708	-0.570630
O7	O	1.582643	-0.283980	-0.271195
O8	O	1.453836	-0.134963	-0.441622
O9	O	1.753013	-0.283953	-0.441530
O10	O	1.582923	-0.134943	-0.570682
O11	O	1.453676	-0.219755	-0.271235
O12	O	1.283404	-0.219720	-0.441543
O13	O	1.453728	-0.283891	-0.740878
O14	O	1.283357	-0.283918	-0.570543
O15	O	1.582861	-0.219672	-0.740938
O16	O	1.582581	-0.368710	-0.441451
O17	O	1.453568	-0.368683	-0.570491
C18	C	1.245260	-0.251818	-0.506041
C19	C	1.128483	-0.251828	-0.506057
C20	C	1.073624	-0.285307	-0.573121
C21	C	0.963900	-0.285309	-0.573142
C22	C	0.963903	-0.218352	-0.439024
C23	C	1.073625	-0.218347	-0.439010
C24	C	0.813992	-0.304070	-0.696994
C25	C	0.759130	-0.337557	-0.764050
C26	C	0.794695	-0.388581	-0.779975
C27	C	0.885121	-0.406129	-0.728829
C28	C	0.939978	-0.372645	-0.661766
C29	C	0.904414	-0.321613	-0.645861
C30	C	1.223535	-0.199592	-0.315156
C31	C	1.278394	-0.166110	-0.248087
C32	C	1.242831	-0.115085	-0.232151
C33	C	1.152401	-0.097539	-0.283278
C34	C	1.097542	-0.131021	-0.350347
C35	C	1.133113	-0.182046	-0.366285
C36	C	1.518078	-0.387667	-0.505979
C37	C	1.518111	-0.445781	-0.505979
C38	C	1.585476	-0.806095	-0.573384
C39	C	1.585507	-0.860699	-0.573406
O40	O	1.642606	-0.888894	-0.630631
N41	N	1.518373	-0.888064	-0.506163
C42	C	1.451196	-0.860821	-0.438902
O43	O	1.394095	-0.889110	-0.381710
C44	C	1.451160	-0.806217	-0.438887
C45	C	1.518306	-0.778856	-0.506126
C46	C	1.652616	-0.778734	-0.640619
C47	C	1.652586	-0.724133	-0.640596
C48	C	1.585416	-0.696894	-0.573338
C49	C	1.518276	-0.724255	-0.506103
C50	C	1.383979	-0.778975	-0.371632
C51	C	1.383948	-0.724368	-0.371623
C52	C	1.451094	-0.697007	-0.438863
C53	C	1.451077	-0.642416	-0.438822
N54	N	1.518211	-0.615052	-0.506065
C55	C	1.585381	-0.642291	-0.573323
C56	C	1.451274	-0.975491	-0.438941
C57	C	1.451314	-1.030094	-0.438950
C58	C	1.585624	-1.029969	-0.573455
C59	C	1.585589	-0.975365	-0.573440
C60	C	1.518408	-0.948127	-0.506183
C61	C	1.585314	-0.527626	-0.573269
C62	C	1.585281	-0.473020	-0.573237
C63	C	1.450967	-0.473150	-0.438736
C64	C	1.451003	-0.527751	-0.438764
C65	C	1.518180	-0.554987	-0.506039
O66	O	1.394004	-0.614186	-0.381629
O67	O	1.642462	-0.613995	-0.630516
C68	C	1.792260	-0.251831	-0.506083
C69	C	1.909037	-0.251834	-0.506092
C70	C	1.518306	-0.251774	-0.780095
C71	C	1.518339	-0.251753	-0.896872
C72	C	1.518405	-0.115452	-0.506167
C73	C	1.518480	-0.057337	-0.506212
C74	C	1.585584	-0.218309	-0.951766
C75	C	1.585602	-0.218286	-1.061491
C76	C	1.451127	-0.285156	-1.061415
C77	C	1.451105	-0.285176	-0.951693
C78	C	1.623253	-0.156599	-1.211496
C79	C	1.690514	-0.123160	-1.266395
C80	C	1.793032	-0.115142	-1.230807
C81	C	1.828310	-0.140572	-1.140322
C82	C	1.761054	-0.174015	-1.085429
C83	C	1.658521	-0.182023	-1.121016
C84	C	1.413464	-0.346864	-0.801686
C85	C	1.346213	-0.380310	-0.746791
C86	C	1.243693	-0.388333	-0.782377
C87	C	1.208420	-0.362913	-0.872865
C88	C	1.275671	-0.329466	-0.927760
C89	C	1.378190	-0.321443	-0.892166
C90	C	1.518209	-0.251837	-0.233094
C91	C	1.518379	-0.251711	-0.116318
H92	H	0.685505	-0.323264	-0.805693
N93	N	1.378900	-1.059604	-0.366423
H94	H	1.421632	-1.082262	-0.317780
H95	H	1.336361	-1.034026	-0.323885
N96	N	1.512670	-0.165232	-1.249877
H97	H	1.514534	-0.180328	-1.322945
H98	H	1.475464	-0.190258	-1.201304
N99	N	1.311499	-0.694988	-0.299073
H100	H	1.262775	-0.672334	-0.341714
H101	H	1.269043	-0.720642	-0.256496
N102	N	1.384240	-0.407727	-0.649184
H103	H	1.379704	-0.446713	-0.659547
H104	H	1.459373	-0.397529	-0.635003
H105	H	1.847796	-0.087915	-1.275513
H106	H	1.246943	-0.308768	-1.001440
H107	H	1.023915	-0.116729	-0.391985
N108	N	1.132796	-0.321411	-0.645440
H109	H	1.178271	-0.345615	-0.602643
H110	H	1.081325	-0.342585	-0.687916
N111	N	1.378594	-0.557265	-0.366232
H112	H	1.421330	-0.579924	-0.317593
H113	H	1.336060	-0.531686	-0.323689
H114	H	1.640008	-0.549795	-0.628058
H115	H	1.707259	-0.701859	-0.695351
N116	N	0.775629	-0.249034	-0.679822
H117	H	0.824103	-0.230482	-0.629583
H118	H	0.774536	-0.229836	-0.748958
H119	H	0.919225	-0.191094	-0.384436
N120	N	1.114029	-0.042505	-0.266090
H121	H	1.162504	-0.023956	-0.215846
H122	H	1.112934	-0.023300	-0.335219
N123	N	1.037509	-0.391564	-0.606614
H124	H	1.066867	-0.362607	-0.561721
H125	H	1.019425	-0.422467	-0.560916
N126	N	1.378820	-0.946115	-0.366386
H127	H	1.336303	-0.971739	-0.323794
H128	H	1.421598	-0.923463	-0.317795
N129	N	1.725042	-0.808108	-0.713195
H130	H	1.767553	-0.782481	-0.755787
H131	H	1.773714	-0.830765	-0.670506
H132	H	1.252506	-0.241140	-0.328135
H133	H	1.639963	-0.450744	-0.627991
H134	H	0.914065	-0.447681	-0.741792
H135	H	0.750019	-0.415847	-0.834574
N136	N	1.658008	-0.945856	-0.645962
H137	H	1.700563	-0.971402	-0.688567
H138	H	1.615204	-0.923200	-0.694543
H139	H	1.496942	-0.340330	-0.772697
H140	H	1.287502	-0.087826	-0.177528
H141	H	1.640316	-1.052157	-0.628222
N142	N	1.097847	-0.371565	-0.911260
H143	H	1.060596	-0.396609	-0.862754
H144	H	1.059220	-0.337199	-0.912431
N145	N	1.311558	-0.808478	-0.299107
H146	H	1.269004	-0.782929	-0.256508
H147	H	1.262925	-0.831134	-0.341836
H148	H	1.352026	-0.180401	-0.206456
H149	H	1.396281	-0.450964	-0.383972
H150	H	1.911794	-0.134045	-1.111359
H151	H	1.640328	-0.191092	-0.907134
N152	N	1.799088	-0.201444	-0.987844
H153	H	1.874244	-0.191294	-0.973629
H154	H	1.753899	-0.190973	-0.926366
H155	H	1.661782	-0.102455	-1.340068
N156	N	1.378597	-0.321196	-1.120544
H157	H	1.388810	-0.316108	-1.198383
H158	H	1.394876	-0.358544	-1.101347
H159	H	1.188942	-0.415573	-0.737676
