data_functionalizedCrystal
_audit_creation_method	'MofGen! by Chris Wilmer'
_symmetry_space_group_name_H-M	'P1'
_symmetry_Int_Tables_number	1
_symmetry_cell_setting	triclinic
loop_
_symmetry_equiv_pos_as_xyz
  x,y,z
_cell_length_a	14.044191
_cell_length_b	14.044220
_cell_length_c	7.681215
_cell_angle_alpha	95.919068
_cell_angle_beta	95.917136
_cell_angle_gamma	93.190327
loop_
_atom_site_label
_atom_site_type_symbol
_atom_site_fract_x
_atom_site_fract_y
_atom_site_fract_z
O1	O	1.285908	0.238933	0.146358
O2	O	1.785908	0.738933	0.646358
O3	O	1.009237	0.230622	0.146380
O4	O	1.509237	0.730622	0.646380
O5	O	1.143418	0.096440	0.146352
O6	O	1.643418	0.596440	0.646352
O7	O	1.151726	0.373114	0.146386
O8	O	1.651726	0.873114	0.646386
O9	O	1.125925	0.078959	-0.146519
O10	O	1.625925	0.578959	0.353481
O11	O	0.991744	0.213141	-0.146491
O12	O	1.491744	0.713141	0.353509
O13	O	1.268415	0.221452	-0.146513
O14	O	1.768415	0.721452	0.353487
Zn15	Zn	1.127302	0.214521	-0.193001
Zn16	Zn	1.627302	0.714521	0.306999
Zn17	Zn	1.150350	0.237553	0.192868
Zn18	Zn	1.650350	0.737553	0.692868
O19	O	1.134233	0.355633	-0.146485
O20	O	1.634233	0.855633	0.353515
C21	C	0.964868	0.218245	-0.000053
C22	C	1.464868	0.718245	0.499947
C23	C	0.858726	0.207398	-0.000045
C24	C	1.358726	0.707398	0.499955
C25	C	0.613267	0.264498	-0.000055
C26	C	1.113267	0.764498	0.499945
C27	C	0.664392	0.187581	-0.000062
C28	C	1.164392	0.687581	0.499938
C29	C	0.772529	0.198610	-0.000052
C30	C	1.272529	0.698610	0.499948
C31	C	0.505119	0.253470	-0.000065
C32	C	1.005119	0.753470	0.499935
C33	C	1.131036	0.052078	-0.000084
C34	C	1.631036	0.552078	0.499916
C35	C	1.120191	-0.054065	-0.000085
C36	C	1.620191	0.445935	0.499915
C37	C	1.100367	-0.248402	-0.000058
C38	C	1.600367	0.251598	0.499942
C39	C	1.177281	-0.299530	-0.000059
C40	C	1.677281	0.200470	0.499941
C41	C	1.166251	-0.407665	-0.000044
C42	C	1.666251	0.092335	0.499956
C43	C	1.111396	-0.140256	-0.000073
C44	C	1.611396	0.359744	0.499927
C45	C	1.312783	0.233829	-0.000076
C46	C	1.812783	0.733829	0.499924
C47	C	1.418927	0.244677	-0.000072
C48	C	1.918927	0.744677	0.499928
C49	C	1.146616	0.399996	-0.000045
C50	C	1.646616	0.899996	0.499955
C51	C	1.157461	0.506140	-0.000032
C52	C	1.657461	1.006140	0.499968
N53	N	1.111579	0.198802	-0.456347
N54	N	1.611579	0.698802	0.043653
N55	N	1.166079	0.253265	0.456214
N56	N	1.666079	0.753265	0.956214
H57	H	0.626955	0.113455	0.000053
H58	H	1.126955	0.613455	0.500053
O59	O	1.037914	0.125171	-0.555990
O60	O	1.537914	0.625171	-0.055990
H61	H	1.039972	0.127226	-0.699626
H62	H	1.539972	0.627226	-0.199626
O63	O	1.239741	0.326907	-0.444135
O64	O	1.739741	0.826907	0.055865
H65	H	1.237673	0.324866	-0.300499
H66	H	1.737673	0.824866	0.199501
O67	O	0.662854	0.362695	-0.000021
O68	O	1.162854	0.862695	0.499979
H69	H	0.741240	0.356056	0.000002
H70	H	1.241240	0.856056	0.500002
H71	H	1.251422	-0.262082	0.000053
H72	H	1.751422	0.237918	0.500053
O73	O	1.002169	-0.297986	-0.000078
O74	O	1.502169	0.202014	0.499922
H75	H	1.008806	-0.376371	-0.000093
H76	H	1.508806	0.123629	0.499907
