data_functionalizedCrystal
_audit_creation_method	'MofGen! by Chris Wilmer'
_symmetry_space_group_name_H-M	'P1'
_symmetry_Int_Tables_number	1
_symmetry_cell_setting	triclinic
loop_
_symmetry_equiv_pos_as_xyz
  x,y,z
_cell_length_a	6.817900
_cell_length_b	10.943632
_cell_length_c	10.943624
_cell_angle_alpha	91.771060
_cell_angle_beta	108.838799
_cell_angle_gamma	108.838880
loop_
_atom_site_label
_atom_site_type_symbol
_atom_site_fract_x
_atom_site_fract_y
_atom_site_fract_z
V1	V	-4.115495	-0.178596	-0.402520
O2	O	-4.073204	0.008617	-0.394890
O3	O	-4.093445	-0.354159	-0.399737
O4	O	-4.093458	-0.175834	-0.578087
O5	O	-4.073192	-0.170943	-0.215305
V6	V	-4.592293	-0.156205	-0.380131
O7	O	-4.391506	-0.227713	-0.451632
O8	O	-4.766479	-0.107088	-0.331020
O9	O	-4.391136	0.019358	-0.382915
O10	O	-4.751980	-0.343418	-0.387762
O11	O	-4.751993	-0.163858	-0.567347
O12	O	-4.391123	-0.158967	-0.204564
C13	C	-3.944003	-0.396958	-0.393379
C14	C	-4.007438	-0.540484	-0.392273
C15	C	-3.852284	-0.617637	-0.384920
C16	C	-3.931120	-0.690292	-0.280695
C17	C	-4.041658	-0.723567	-0.494542
C18	C	-4.085393	-0.611235	-0.287974
C19	C	-4.195950	-0.644516	-0.501916
C20	C	-4.274895	-0.717134	-0.397670
C21	C	-3.944018	-0.169484	-0.620881
C22	C	-4.007457	-0.168388	-0.764408
C23	C	-3.852287	-0.161001	-0.841556
C24	C	-4.041646	-0.270645	-0.947527
C25	C	-3.931164	-0.056801	-0.914178
C26	C	-4.196026	-0.278134	-0.868502
C27	C	-4.085465	-0.064194	-0.835129
C28	C	-4.274960	-0.173869	-0.941070
C29	C	-4.203920	0.062151	-0.389269
C30	C	-4.119726	0.205675	-0.390383
C31	C	-4.203905	-0.165321	-0.161764
C32	C	-4.119703	-0.166411	-0.018236
H33	H	-4.454151	-0.760358	-0.403023
H34	H	-4.454274	-0.179336	-0.984314
C35	C	-3.940785	-0.694741	-0.685431
C36	C	-4.017504	-0.789578	-0.612377
H37	H	-3.925876	-0.735493	-0.758176
H38	H	-3.801079	-0.633323	-0.632240
H39	H	-4.043397	-0.651105	-0.715438
H40	H	-3.914883	-0.833208	-0.582361
H41	H	-4.157230	-0.851020	-0.665577
H42	H	-3.819813	-0.711058	-0.187152
C43	C	-4.049274	-0.410670	-0.172041
C44	C	-4.109455	-0.545420	-0.169995
H45	H	-4.064111	-0.370039	-0.099201
H46	H	-4.142981	-0.394770	-0.250480
H47	H	-3.899899	-0.375814	-0.167808
H48	H	-4.258836	-0.580278	-0.174238
H49	H	-4.015747	-0.561330	-0.091537
C50	C	-3.587271	-0.262143	-0.840166
C51	C	-3.610377	-0.153852	-0.782884
H52	H	-3.437934	-0.257736	-0.803935
H53	H	-3.626614	-0.262149	-0.931716
H54	H	-3.681574	-0.339987	-0.823674
H55	H	-3.516085	-0.076008	-0.799384
H56	H	-3.571008	-0.153834	-0.691312
C57	C	-3.471226	-0.581263	-0.261513
C58	C	-3.610223	-0.558916	-0.377481
H59	H	-3.321790	-0.545000	-0.256914
H60	H	-3.509785	-0.672577	-0.260008
H61	H	-3.487814	-0.541345	-0.188966
H62	H	-3.593647	-0.598842	-0.450028
H63	H	-3.571651	-0.467584	-0.378997
C64	C	-4.497379	-0.734558	-0.705707
C65	C	-4.346090	-0.616430	-0.628197
H66	H	-4.590049	-0.717216	-0.783679
H67	H	-4.585433	-0.781722	-0.659019
H68	H	-4.419250	-0.784838	-0.727006
H69	H	-4.424219	-0.566153	-0.606890
H70	H	-4.258025	-0.569245	-0.674894
C71	C	-3.560450	0.075979	-0.891699
C72	C	-3.780845	0.069489	-0.942157
H73	H	-3.467643	0.153946	-0.908963
H74	H	-3.546306	0.002629	-0.931838
H75	H	-3.517923	0.075786	-0.800067
H76	H	-3.823378	0.069673	-1.033791
H77	H	-3.794999	0.142858	-0.902022
C78	C	-4.285110	-0.404494	-0.705680
C79	C	-4.346385	-0.404560	-0.840759
H80	H	-4.377920	-0.482548	-0.688555
H81	H	-4.300441	-0.331264	-0.666152
H82	H	-4.135416	-0.399646	-0.670730
H83	H	-4.496074	-0.409398	-0.875708
H84	H	-4.331073	-0.477809	-0.880303
H85	H	-4.023784	-0.357924	-0.996461
H86	H	-4.103242	0.023090	-0.786160
