data_functionalizedCrystal
_audit_creation_method	'MofGen! by Chris Wilmer'
_symmetry_space_group_name_H-M	'P1'
_symmetry_Int_Tables_number	1
_symmetry_cell_setting	triclinic
loop_
_symmetry_equiv_pos_as_xyz
  x,y,z
_cell_length_a	10.654541
_cell_length_b	15.944564
_cell_length_c	9.730217
_cell_angle_alpha	90.003998
_cell_angle_beta	89.999791
_cell_angle_gamma	96.006069
loop_
_atom_site_label
_atom_site_type_symbol
_atom_site_fract_x
_atom_site_fract_y
_atom_site_fract_z
O1	O	1.666321	-0.117964	-0.114252
O2	O	1.300697	-0.129206	-0.114264
O3	O	1.493485	-0.001369	-0.114245
O4	O	1.473533	-0.245802	-0.114272
O5	O	1.493478	-0.001369	0.114335
O6	O	1.300690	-0.129206	0.114316
O7	O	1.666314	-0.117964	0.114328
Zn8	Zn	1.483501	-0.123585	0.150614
Zn9	Zn	1.483510	-0.123585	-0.150550
O10	O	1.473526	-0.245802	0.114308
C11	C	1.253906	-0.128381	0.000024
C12	C	1.114494	-0.125913	0.000020
C13	C	1.492650	0.029930	0.000046
C14	C	1.490159	0.123190	0.000047
C15	C	1.084556	-0.278777	-0.000014
C16	C	1.004093	-0.354046	-0.000036
C17	C	0.873105	-0.351722	-0.000038
C18	C	0.822578	-0.274120	-0.000012
C19	C	0.903041	-0.198851	0.000010
C20	C	1.034031	-0.201184	0.000007
C21	C	0.932979	-0.045989	0.000054
C22	C	1.063968	-0.048311	0.000046
C23	C	0.882453	0.031613	0.000080
C24	C	0.962916	0.106884	0.000092
C25	C	1.093912	0.104556	0.000092
C26	C	1.144431	0.026958	0.000068
C27	C	1.364699	0.338771	0.000025
C28	C	1.422944	0.399451	0.112732
C29	C	1.485651	0.293941	0.000038
C30	C	1.422979	0.399434	-0.112630
C31	C	1.481288	0.458878	0.000022
C32	C	1.543929	0.353392	0.112837
C33	C	1.543947	0.353369	-0.112627
C34	C	1.602280	0.414031	0.000107
C35	C	1.488161	0.198924	0.000048
C36	C	1.478787	0.553893	0.000022
C37	C	1.713105	-0.118789	0.000037
C38	C	1.852516	-0.121258	0.000032
N39	N	1.483504	-0.123585	0.356151
C40	C	1.474343	0.722898	0.000017
C41	C	1.476784	0.629634	0.000011
C42	C	1.654287	-0.010418	0.356159
C43	C	1.739687	0.046163	0.428103
C44	C	1.739699	0.046163	0.571982
C45	C	1.654300	-0.010423	0.643921
C46	C	1.568901	-0.067003	0.571978
C47	C	1.568900	-0.066999	0.428094
C48	C	1.398114	-0.180165	0.571969
C49	C	1.398105	-0.180170	0.428090
C50	C	1.312715	-0.236750	0.643909
C51	C	1.227319	-0.293336	0.571965
C52	C	1.227311	-0.293334	0.428076
C53	C	1.312706	-0.236750	0.356146
N54	N	1.483513	-0.123584	0.643913
H55	H	1.191212	-0.280678	-0.000044
Br56	Br	1.203102	0.206714	0.000139
H57	H	1.654305	-0.010412	0.761076
H58	H	1.264308	0.306044	0.000134
Br59	Br	0.894339	0.212190	0.000144
Br60	Br	1.111421	-0.370115	0.669599
Br61	Br	1.769749	0.468332	0.000209
H62	H	1.809235	0.092238	0.630559
H63	H	1.595064	0.332943	-0.207912
Br64	Br	1.312717	-0.236747	0.839176
Br65	Br	1.337680	0.433458	0.271542
Br66	Br	1.337682	0.433416	-0.271428
Br67	Br	1.629127	0.319589	0.271822
H68	H	1.251086	0.025055	0.000051
Br69	Br	1.111394	-0.370120	0.330451
H70	H	0.715920	-0.272234	0.000004
H71	H	1.045246	-0.417228	-0.000054
Br72	Br	0.763899	-0.453872	-0.000049
Br73	Br	1.654299	-0.010426	0.160892
H74	H	1.312711	-0.236747	0.238991
H75	H	1.809216	0.092236	0.369517
H76	H	0.775795	0.033501	0.000087
