data_functionalizedCrystal
_audit_creation_method	'MofGen! by Chris Wilmer'
_symmetry_space_group_name_H-M	'P1'
_symmetry_Int_Tables_number	1
_symmetry_cell_setting	triclinic
loop_
_symmetry_equiv_pos_as_xyz
  x,y,z
_cell_length_a	10.723023
_cell_length_b	10.723023
_cell_length_c	9.798715
_cell_angle_alpha	89.997861
_cell_angle_beta	89.996770
_cell_angle_gamma	84.467548
loop_
_atom_site_label
_atom_site_type_symbol
_atom_site_fract_x
_atom_site_fract_y
_atom_site_fract_z
O1	O	1.657187	0.175020	-0.113474
O2	O	1.294035	0.191774	-0.113479
O3	O	1.483988	0.001821	-0.113471
O4	O	1.467234	0.364973	-0.113482
O5	O	1.483974	0.001820	0.113511
O6	O	1.294021	0.191774	0.113503
O7	O	1.657173	0.175019	0.113508
Zn8	Zn	1.475595	0.183396	0.149544
Zn9	Zn	1.475613	0.183397	-0.149515
O10	O	1.467220	0.364973	0.113500
C11	C	1.247528	0.190555	0.000011
C12	C	1.108974	0.186908	0.000009
C13	C	1.047194	0.185281	0.117592
C14	C	0.903991	0.181512	0.117592
C15	C	1.482762	-0.044679	0.000019
C16	C	1.479115	-0.183233	0.000014
C17	C	1.477496	-0.244999	-0.117571
C18	C	1.473727	-0.388202	-0.117578
C19	C	1.703680	0.176239	0.000015
C20	C	1.842234	0.179886	0.000008
C21	C	1.468446	0.411473	0.000007
C22	C	1.472093	0.550027	0.000003
N23	N	1.475591	0.183395	0.353644
N24	N	1.475627	0.183388	-0.353615
C25	C	1.555347	0.103288	0.421424
C26	C	1.555367	0.103283	0.578587
H27	H	0.895354	0.181292	-0.100664
O28	O	1.045524	0.185461	-0.120056
C29	C	0.885114	0.289471	-0.263431
C30	C	0.956890	0.291278	-0.127419
H31	H	0.813420	0.375000	-0.269416
H32	H	0.953834	0.291363	-0.352017
H33	H	0.834892	0.200648	-0.269512
H34	H	1.007116	0.380086	-0.121206
H35	H	0.888111	0.289319	-0.038898
H36	H	1.407319	0.251971	0.411965
H37	H	1.478896	-0.191861	-0.218235
H38	H	0.850862	0.180120	0.218259
O39	O	1.636948	0.021409	0.647902
C40	C	1.803370	-0.145889	0.633105
C41	C	1.711067	-0.053208	0.554433
H42	H	1.863301	-0.206258	0.557569
H43	H	1.866376	-0.091645	0.699953
H44	H	1.748695	-0.208437	0.700051
H45	H	1.765640	0.009363	0.487412
H46	H	1.648061	-0.107530	0.487671
O47	O	1.393988	0.265164	0.577016
C48	C	1.177807	0.336806	0.533004
C49	C	1.270122	0.244145	0.611687
H50	H	1.077641	0.319828	0.560984
H51	H	1.195077	0.436882	0.561041
H52	H	1.192371	0.322250	0.418649
H53	H	1.255612	0.258587	0.726060
H54	H	1.252829	0.144103	0.583537
H55	H	1.477702	-0.236370	0.100678
H56	H	1.473491	-0.396865	0.100677
O57	O	1.110720	0.186786	0.237604
C58	C	1.271023	0.082695	0.381054
C59	C	1.199201	0.080853	0.245074
H60	H	1.342558	-0.002955	0.387150
H61	H	1.321400	0.171422	0.387169
H62	H	1.202207	0.080946	0.469564
H63	H	1.267933	0.082556	0.156486
H64	H	1.148805	-0.007866	0.239078
H65	H	1.623611	0.034702	0.363104
O66	O	1.471838	-0.451594	-0.237643
C67	C	1.360080	-0.585593	-0.381007
C68	C	1.362049	-0.513830	-0.244998
H69	H	1.271337	-0.635951	-0.386985
H70	H	1.361811	-0.516858	-0.469596
H71	H	1.445696	-0.657173	-0.387090
H72	H	1.276448	-0.442251	-0.238782
H73	H	1.360381	-0.582641	-0.156473
