data_functionalizedCrystal
_audit_creation_method	'MofGen! by Chris Wilmer'
_symmetry_space_group_name_H-M	'P1'
_symmetry_Int_Tables_number	1
_symmetry_cell_setting	triclinic
loop_
_symmetry_equiv_pos_as_xyz
  x,y,z
_cell_length_a	29.839135
_cell_length_b	29.839132
_cell_length_c	29.839125
_cell_angle_alpha	90.019925
_cell_angle_beta	89.984512
_cell_angle_gamma	89.952207
loop_
_atom_site_label
_atom_site_type_symbol
_atom_site_fract_x
_atom_site_fract_y
_atom_site_fract_z
Zn1	Zn	0.686708	0.178886	-0.254040
Zn2	Zn	1.186708	0.678886	0.245960
Zn3	Zn	0.686635	0.253998	-0.178907
Zn4	Zn	1.186635	0.753998	0.321093
Zn5	Zn	0.611590	0.178886	-0.178918
Zn6	Zn	1.111590	0.678886	0.321082
Zn7	Zn	0.611533	0.253993	-0.254004
Zn8	Zn	1.111533	0.753993	0.245996
O9	O	0.649116	0.216441	-0.216468
O10	O	1.149116	0.716441	0.283532
O11	O	0.749565	0.188852	-0.244084
O12	O	1.249565	0.688852	0.255916
O13	O	0.676673	0.244036	-0.116042
O14	O	1.176673	0.744036	0.383958
O15	O	0.621609	0.116019	-0.188903
O16	O	1.121609	0.616019	0.311097
O17	O	0.749512	0.244036	-0.188884
O18	O	1.249512	0.744036	0.311116
O19	O	0.676798	0.116019	-0.244095
O20	O	1.176798	0.616019	0.255905
O21	O	0.621539	0.188852	-0.116050
O22	O	1.121539	0.688852	0.383950
O23	O	0.548716	0.188847	-0.188868
O24	O	1.048716	0.688847	0.311132
O25	O	0.621512	0.244028	-0.316876
O26	O	1.121512	0.744028	0.183124
O27	O	0.548674	0.244028	-0.244033
O28	O	1.048674	0.744028	0.255967
O29	O	0.676742	0.188847	-0.316903
O30	O	1.176742	0.688847	0.183097
O31	O	0.676618	0.316865	-0.188849
O32	O	1.176618	0.816865	0.311151
O33	O	0.621441	0.316861	-0.244023
O34	O	1.121441	0.816861	0.255977
C35	C	0.532394	0.216437	-0.216448
C36	C	1.032394	0.716437	0.283552
C37	C	0.482459	0.216447	-0.216451
C38	C	0.982459	0.716447	0.283549
C39	C	0.172841	0.187750	-0.245252
C40	C	0.672841	0.687750	0.254748
C41	C	-0.014832	0.187753	-0.245265
C42	C	0.485168	0.687753	0.254735
O43	O	-0.039076	0.163344	-0.269732
O44	O	0.460924	0.663344	0.230268
N45	N	-0.038326	0.216441	-0.216484
N46	N	0.461674	0.716441	0.283516
C47	C	-0.014898	0.245129	-0.187696
C48	C	0.485102	0.745129	0.312304
O49	O	-0.039187	0.269527	-0.163212
O50	O	0.460813	0.769527	0.336788
C51	C	0.172774	0.245123	-0.187681
C52	C	0.672774	0.745123	0.312319
C53	C	0.196265	0.216436	-0.216467
C54	C	0.696265	0.716436	0.283533
C55	C	0.196332	0.159065	-0.274036
C56	C	0.696332	0.659065	0.225964
C57	C	0.243248	0.159066	-0.274034
C58	C	0.743248	0.659066	0.225966
C59	C	0.266672	0.187752	-0.245249
C60	C	0.766672	0.687752	0.254751
C61	C	0.243181	0.216437	-0.216465
C62	C	0.743181	0.716437	0.283535
C63	C	0.196201	0.273808	-0.158890
C64	C	0.696201	0.773808	0.341110
C65	C	0.243122	0.273803	-0.158888
C66	C	0.743122	0.773803	0.341112
C67	C	0.266613	0.245116	-0.187675
C68	C	0.766613	0.745116	0.312325
C69	C	0.313521	0.245125	-0.187678
C70	C	0.813521	0.745125	0.312322
N71	N	0.337014	0.216437	-0.216459
N72	N	0.837014	0.716437	0.283541
C73	C	0.313590	0.187750	-0.245245
C74	C	0.813590	0.687750	0.254755
C75	C	-0.113429	0.245130	-0.187706
C76	C	0.386571	0.745130	0.312294
C77	C	-0.160346	0.245133	-0.187710
C78	C	0.339654	0.745133	0.312290
C79	C	-0.160277	0.187756	-0.245279
C80	C	0.339723	0.687756	0.254721
C81	C	-0.113359	0.187756	-0.245277
C82	C	0.386641	0.687756	0.254723
C83	C	-0.089935	0.216442	-0.216487
C84	C	0.410065	0.716442	0.283513
C85	C	0.412116	0.187755	-0.245239
C86	C	0.912116	0.687755	0.254761
C87	C	0.459035	0.187760	-0.245236
C88	C	0.959035	0.687760	0.254764
C89	C	0.458962	0.245135	-0.187665
C90	C	0.958962	0.745135	0.312335
C91	C	0.412046	0.245132	-0.187670
C92	C	0.912046	0.745132	0.312330
C93	C	0.388624	0.216438	-0.216458
C94	C	0.888624	0.716438	0.283542
O95	O	0.337793	0.269518	-0.163221
O96	O	0.837793	0.769518	0.336779
O97	O	0.337887	0.163349	-0.269717
O98	O	0.837887	0.663349	0.230283
C99	C	0.125926	0.187749	-0.245254
C100	C	0.625926	0.687749	0.254746
C101	C	0.102434	0.216434	-0.216471
C102	C	0.602434	0.716434	0.283529
C103	C	0.125859	0.245120	-0.187685
C104	C	0.625859	0.745120	0.312315
C105	C	0.055517	0.216436	-0.216475
C106	C	0.555517	0.716436	0.283525
C107	C	0.032092	0.187749	-0.245260
C108	C	0.532092	0.687749	0.254740
C109	C	0.055586	0.159061	-0.274041
C110	C	0.555586	0.659061	0.225959
C111	C	0.102501	0.159062	-0.274040
C112	C	0.602501	0.659062	0.225960
C113	C	0.102365	0.273808	-0.158904
C114	C	0.602365	0.773808	0.341096
C115	C	0.055450	0.273805	-0.158909
C116	C	0.555450	0.773805	0.341091
C117	C	0.032025	0.245119	-0.187694
C118	C	0.532025	0.745119	0.312306
C119	C	0.649028	0.333163	-0.216441
C120	C	1.149028	0.833163	0.283559
C121	C	0.649031	0.383098	-0.216444
C122	C	1.149031	0.883098	0.283556
C123	C	0.677867	0.692730	-0.187762
C124	C	1.177867	1.192730	0.312238
C125	C	0.677910	0.880404	-0.187773
C126	C	1.177910	1.380404	0.312227
O127	O	0.702380	0.904659	-0.163378
O128	O	1.202380	1.404659	0.336622
N129	N	0.649164	0.903883	-0.216475
N130	N	1.149164	1.403883	0.283525
C131	C	0.620406	0.880441	-0.245179
C132	C	1.120406	1.380441	0.254821
O133	O	0.595960	0.904718	-0.269595
O134	O	1.095960	1.404718	0.230405
C135	C	0.620366	0.692769	-0.245171
C136	C	1.120366	1.192769	0.254829
C137	C	0.649111	0.669292	-0.216463
C138	C	1.149111	1.169292	0.283537
C139	C	0.706611	0.669254	-0.159058
C140	C	1.206611	1.169254	0.340942
C141	C	0.706598	0.622338	-0.159054
C142	C	1.206598	1.122338	0.340946
C143	C	0.677842	0.598900	-0.187754
C144	C	1.177842	1.098900	0.312246
C145	C	0.649098	0.622377	-0.216459
C146	C	1.149098	1.122377	0.283541
C147	C	0.591611	0.669328	-0.273876
C148	C	1.091611	1.169328	0.226124
C149	C	0.591604	0.622407	-0.273873
C150	C	1.091604	1.122407	0.226127
C151	C	0.620350	0.598930	-0.245165
C152	C	1.120350	1.098930	0.254835
C153	C	0.620330	0.552023	-0.245156
C154	C	1.120330	1.052023	0.254844
N155	N	0.649076	0.528543	-0.216454
N156	N	1.149076	1.028543	0.283546
C157	C	0.677832	0.551982	-0.187753
C158	C	1.177832	1.051982	0.312247
C159	C	0.620429	0.978972	-0.245180
C160	C	1.120429	1.478972	0.254820
C161	C	0.620438	1.025890	-0.245182
C162	C	1.120438	1.525890	0.254818
C163	C	0.677943	1.025849	-0.187776
C164	C	1.177943	1.525849	0.312224
C165	C	0.677931	0.978930	-0.187773
C166	C	1.177931	1.478930	0.312227
C167	C	0.649175	0.955492	-0.216478
C168	C	1.149175	1.455492	0.283522
C169	C	0.677803	0.453456	-0.187746
C170	C	1.177803	0.953456	0.312254
C171	C	0.677787	0.406536	-0.187744
C172	C	1.177787	0.906536	0.312256
C173	C	0.620284	0.406581	-0.245151
C174	C	1.120284	0.906581	0.254849
C175	C	0.620298	0.453497	-0.245152
C176	C	1.120298	0.953497	0.254848
C177	C	0.649062	0.476933	-0.216448
C178	C	1.149062	0.976933	0.283552
O179	O	0.595876	0.527738	-0.269541
O180	O	1.095876	1.027738	0.230459
O181	O	0.702282	0.527697	-0.163347
O182	O	1.202282	1.027697	0.336653
C183	C	0.677880	0.739646	-0.187766
C184	C	1.177880	1.239646	0.312234
C185	C	0.649137	0.763123	-0.216471
C186	C	1.149137	1.263123	0.283529
C187	C	0.620381	0.739684	-0.245172
C188	C	1.120381	1.239684	0.254828
C189	C	0.649146	0.810041	-0.216473
C190	C	1.149146	1.310041	0.283527
C191	C	0.677902	0.833479	-0.187772
C192	C	1.177902	1.333479	0.312228
C193	C	0.706649	0.810000	-0.159070
C194	C	1.206649	1.310000	0.340930
C195	C	0.706636	0.763084	-0.159066
C196	C	1.206636	1.263084	0.340934
C197	C	0.591634	0.763164	-0.273874
C198	C	1.091634	1.263164	0.226126
C199	C	0.591649	0.810079	-0.273875
C200	C	1.091649	1.310079	0.226125
C201	C	0.620405	0.833518	-0.245175
C202	C	1.120405	1.333518	0.254825
C203	C	0.766295	0.216445	-0.216487
C204	C	1.266295	0.716445	0.283513
C205	C	0.816229	0.216446	-0.216495
C206	C	1.316229	0.716446	0.283505
C207	C	0.649129	0.216437	-0.333646
C208	C	1.149129	0.716437	0.166354
C209	C	0.649134	0.216435	-0.383580
C210	C	1.149134	0.716435	0.116420
C211	C	0.649201	1.099262	-0.216495
C212	C	1.149201	1.599262	0.283505
C213	C	0.649194	1.049328	-0.216481
C214	C	1.149194	1.549328	0.283519
C215	C	0.677923	0.187627	-0.693241
C216	C	1.177923	0.687627	-0.193241
C217	C	0.677945	0.187589	-0.880914
C218	C	1.177945	0.687589	-0.380914
O219	O	0.702389	0.163138	-0.905193
O220	O	1.202389	0.663138	-0.405193
N221	N	0.649193	0.216315	-0.904366
N222	N	1.149193	0.716315	-0.404366
C223	C	0.620432	0.245050	-0.880896
C224	C	1.120432	0.745050	-0.380896
O225	O	0.595975	0.269479	-0.905150
O226	O	1.095975	0.769479	-0.405150
C227	C	0.620408	0.245086	-0.693224
C228	C	1.120408	0.745086	-0.193224
C229	C	0.649165	0.216361	-0.669775
C230	C	1.149165	0.716361	-0.169775
C231	C	0.706676	0.158905	-0.669791
C232	C	1.206676	0.658905	-0.169791
C233	C	0.706672	0.158916	-0.622876
C234	C	1.206672	0.658916	-0.122876
C235	C	0.677914	0.187650	-0.599410
C236	C	1.177914	0.687650	-0.099410
C237	C	0.649160	0.216373	-0.622859
C238	C	1.149160	0.716373	-0.122859
C239	C	0.591645	0.273819	-0.669756
C240	C	1.091645	0.773819	-0.169756
C241	C	0.591641	0.273824	-0.622835
C242	C	1.091641	0.773824	-0.122835
C243	C	0.620397	0.245100	-0.599385
C244	C	1.120397	0.745100	-0.099385
C245	C	0.620398	0.245119	-0.552478
C246	C	1.120398	0.745119	-0.052478
N247	N	0.649150	0.216393	-0.529026
N248	N	1.149150	0.716393	-0.029026
C249	C	0.677908	0.187659	-0.552492
C250	C	1.177908	0.687659	-0.052492
C251	C	0.620448	0.245030	-0.979427
C252	C	1.120448	0.745030	-0.479427
C253	C	0.620454	0.245022	-1.026345
C254	C	1.120454	0.745022	-0.526345
C255	C	0.677966	0.187560	-1.026359
C256	C	1.177966	0.687560	-0.526359
C257	C	0.677962	0.187571	-0.979440
C258	C	1.177962	0.687571	-0.479440
C259	C	0.649199	0.216304	-0.955975
C260	C	1.149199	0.716304	-0.455975
C261	C	0.677897	0.187685	-0.453966
C262	C	1.177897	0.687685	0.046034
C263	C	0.677892	0.187701	-0.407046
C264	C	1.177892	0.687701	0.092954
C265	C	0.620378	0.245161	-0.407036
C266	C	1.120378	0.745161	0.092964
C267	C	0.620385	0.245147	-0.453952
C268	C	1.120385	0.745147	0.046048
C269	C	0.649146	0.216406	-0.477416
C270	C	1.149146	0.716406	0.022584
O271	O	0.595964	0.269553	-0.528170
O272	O	1.095964	0.769553	-0.028170
O273	O	0.702355	0.163226	-0.528230
O274	O	1.202355	0.663226	-0.028230
C275	C	0.677927	0.187616	-0.740156
C276	C	1.177927	0.687616	-0.240156
C277	C	0.649173	0.216338	-0.763606
C278	C	1.149173	0.716338	-0.263606
C279	C	0.620415	0.245072	-0.740140
C280	C	1.120415	0.745072	-0.240140
C281	C	0.649179	0.216330	-0.810524
C282	C	1.149179	0.716330	-0.310524
C283	C	0.677937	0.187596	-0.833990
C284	C	1.177937	0.687596	-0.333990
C285	C	0.706689	0.158870	-0.810538
C286	C	1.206689	0.658870	-0.310538
C287	C	0.706685	0.158881	-0.763622
C288	C	1.206685	0.658881	-0.263622
C289	C	0.591664	0.273798	-0.763592
C290	C	1.091664	0.773798	-0.263592
C291	C	0.591670	0.273785	-0.810507
C292	C	1.091670	0.773785	-0.310507
C293	C	0.620428	0.245050	-0.833973
C294	C	1.120428	0.745050	-0.333973
C295	C	0.649130	0.216412	-0.099745
C296	C	1.149130	0.716412	0.400255
C297	C	0.649212	0.216288	-0.049811
C298	C	1.149212	0.716288	0.450189
H299	H	0.392919	0.268496	-0.164235
H300	H	0.892919	0.768496	0.335765
O301	O	0.125046	0.301719	-0.130927
O302	O	0.625046	0.801719	0.369073
C303	C	0.094244	0.327028	-0.105520
C304	C	0.594244	0.827028	0.394480
H305	H	0.060805	0.328605	-0.123922
H306	H	0.560805	0.828605	0.376078
H307	H	0.107763	0.362420	-0.100662
H308	H	0.607763	0.862420	0.399338
H309	H	0.089257	0.310527	-0.071430
H310	H	0.589257	0.810527	0.428570
H311	H	0.701226	0.472532	-0.164374
H312	H	1.201226	0.972532	0.335626
O313	O	0.734559	0.130908	-0.833357
O314	O	1.234559	0.630908	-0.333357
C315	C	0.709004	0.101896	-0.860502
C316	C	1.209004	0.601896	-0.360502
H317	H	0.673624	0.099126	-0.846353
H318	H	1.173624	0.599126	-0.346353
H319	H	0.725279	0.067322	-0.861047
H320	H	1.225279	0.567322	-0.361047
H321	H	0.707445	0.115782	-0.896057
H322	H	1.207445	0.615782	-0.396057
O323	O	0.563692	0.301660	-0.692580
O324	O	1.063692	0.801660	-0.192580
C325	C	0.534692	0.276080	-0.719712
C326	C	1.034692	0.776080	-0.219712
H327	H	0.550566	0.242033	-0.726751
H328	H	1.050566	0.742033	-0.226751
H329	H	0.528660	0.294375	-0.752699
H330	H	1.028660	0.794375	-0.252699
H331	H	0.501402	0.271146	-0.701625
H332	H	1.001402	0.771146	-0.201625
H333	H	0.730101	0.135491	-0.744534
H334	H	1.230101	0.635491	-0.244534
O335	O	0.563786	0.832931	-0.301787
O336	O	1.063786	1.332931	0.198213
C337	C	0.589353	0.860017	-0.330839
C338	C	1.089353	1.360017	0.169161
H339	H	0.623409	0.867019	-0.315025
H340	H	1.123409	1.367019	0.184975
H341	H	0.571058	0.893026	-0.336852
H342	H	1.071058	1.393026	0.163148
H343	H	0.594266	0.841910	-0.364131
H344	H	1.094266	1.341910	0.135869
O345	O	0.734569	0.599605	-0.131157
O346	O	1.234569	1.099605	0.368843
C347	C	0.759942	0.630362	-0.105824
C348	C	1.259942	1.130362	0.394176
H349	H	0.761484	0.663796	-0.124231
H350	H	1.261484	1.163796	0.375769
H351	H	0.795342	0.616777	-0.101069
H352	H	1.295342	1.116777	0.398931
H353	H	0.743520	0.635382	-0.071686
H354	H	1.243520	1.135382	0.428314
O355	O	0.734498	0.692081	-0.131179
O356	O	1.234498	1.192081	0.368821
C357	C	0.708970	0.719268	-0.102126
C358	C	1.208970	1.219268	0.397874
H359	H	0.674903	0.726319	-0.117915
H360	H	1.174903	1.226319	0.382085
H361	H	0.727287	0.752246	-0.096158
H362	H	1.227287	1.252246	0.403842
H363	H	0.704079	0.701223	-0.068814
H364	H	1.204079	1.201223	0.431186
H365	H	0.478160	0.164399	-0.268679
H366	H	0.978160	0.664399	0.231321
O367	O	0.389437	0.159871	-0.273248
O368	O	0.889437	0.659871	0.226752
C369	C	0.420240	0.134549	-0.298643
C370	C	0.920240	0.634549	0.201357
H371	H	0.453668	0.152956	-0.300155
H372	H	0.953668	0.652956	0.199845
H373	H	0.406705	0.129813	-0.334051
H374	H	0.906705	0.629813	0.165949
H375	H	0.425254	0.100403	-0.282257
H376	H	0.925254	0.600403	0.217743
H377	H	0.597011	0.959892	-0.268556
H378	H	1.097011	1.459892	0.231444
O379	O	0.563718	0.740449	-0.301816
O380	O	1.063718	1.240449	0.198184
C381	C	0.573511	0.751878	-0.346603
C382	C	1.073511	1.251878	0.153397
H383	H	0.590796	0.785921	-0.347553
H384	H	1.090796	1.285921	0.152447
H385	H	0.541072	0.753518	-0.366711
H386	H	1.041072	1.253518	0.133289
H387	H	0.596584	0.725437	-0.361760
H388	H	1.096584	1.225437	0.138240
O389	O	0.705898	0.956196	-0.159874
O390	O	1.205898	1.456196	0.340126
C391	C	0.731268	0.986950	-0.134535
C392	C	1.231268	1.486950	0.365465
H393	H	0.732815	1.020385	-0.152941
H394	H	1.232815	1.520385	0.347059
H395	H	0.766666	0.973363	-0.129774
H396	H	1.266666	1.473363	0.370226
H397	H	0.714840	0.991971	-0.100400
H398	H	1.214840	1.491971	0.399600
H399	H	0.701316	0.164280	-0.473065
H400	H	1.201316	0.664280	0.026935
H401	H	0.478042	0.268492	-0.164230
H402	H	0.978042	0.768492	0.335770
O403	O	0.705907	0.159623	-0.956733
O404	O	1.205907	0.659623	-0.456733
C405	C	0.731298	0.134272	-0.987512
C406	C	1.231298	0.634272	-0.487512
H407	H	0.712901	0.132713	-1.020953
H408	H	1.212901	0.632713	-0.520953
H409	H	0.736120	0.098876	-0.973966
H410	H	1.236120	0.598876	-0.473966
H411	H	0.765404	0.150724	-0.992503
H412	H	1.265404	0.650724	-0.492503
H413	H	0.036505	0.135705	-0.297481
H414	H	0.536505	0.635705	0.202519
O415	O	0.563715	0.301630	-0.833334
O416	O	1.063715	0.801630	-0.333334
C417	C	0.534715	0.276045	-0.860462
C418	C	1.034715	0.776045	-0.360462
H419	H	0.550590	0.241998	-0.867499
H420	H	1.050590	0.741998	-0.367499
H421	H	0.528680	0.294337	-0.893451
H422	H	1.028680	0.794337	-0.393451
H423	H	0.501426	0.271111	-0.842373
H424	H	1.001426	0.771111	-0.342373
O425	O	0.592418	0.383786	-0.273078
O426	O	1.092418	0.883786	0.226922
C427	C	0.617977	0.356601	-0.302104
C428	C	1.117977	0.856601	0.197896
H429	H	0.653360	0.370707	-0.304911
H430	H	1.153360	0.870707	0.195089
H431	H	0.601710	0.356065	-0.336664
H432	H	1.101710	0.856065	0.163336
H433	H	0.619531	0.321049	-0.288208
H434	H	1.119531	0.821049	0.211792
O435	O	0.592437	0.273121	-0.384306
O436	O	1.092437	0.773121	0.115694
C437	C	0.567051	0.298469	-0.415060
C438	C	1.067051	0.798469	0.084940
H439	H	0.585447	0.300014	-0.448512
H440	H	1.085447	0.800014	0.051488
H441	H	0.562236	0.333870	-0.401498
H442	H	1.062236	0.833870	0.098502
H443	H	0.532941	0.282023	-0.420039
H444	H	1.032941	0.782023	0.079961
O445	O	0.563712	0.301754	-0.740870
O446	O	1.063712	0.801754	-0.240870
C447	C	0.538330	0.327093	-0.771635
C448	C	1.038330	0.827093	-0.271635
H449	H	0.556737	0.328637	-0.805081
H450	H	1.056737	0.828637	-0.305081
H451	H	0.533504	0.362494	-0.758079
H452	H	1.033504	0.862494	-0.258079
H453	H	0.504225	0.310639	-0.776623
H454	H	1.004225	0.810639	-0.276623
H455	H	0.262370	0.135705	-0.297474
H456	H	0.762370	0.635705	0.202526
H457	H	0.701357	1.044940	-0.164407
H458	H	1.201357	1.544940	0.335593
O459	O	0.734604	0.740352	-0.131167
O460	O	1.234604	1.240352	0.368833
C461	C	0.759976	0.771108	-0.105831
C462	C	1.259976	1.271108	0.394169
H463	H	0.761521	0.804542	-0.124240
H464	H	1.261521	1.304542	0.375760
H465	H	0.795374	0.757521	-0.101072
H466	H	1.295374	1.257521	0.398928
H467	H	0.743550	0.776131	-0.071696
H468	H	1.243550	1.276131	0.428304
O469	O	0.705841	0.159753	-0.384338
O470	O	1.205841	0.659753	0.115662
C471	C	0.731230	0.134397	-0.415114
C472	C	1.231230	0.634397	0.084886
H473	H	0.712831	0.132835	-0.448555
H474	H	1.212831	0.632835	0.051445
H475	H	0.736052	0.099004	-0.401565
H476	H	1.236052	0.599004	0.098435
H477	H	0.765336	0.150848	-0.420109
H478	H	1.265336	0.650848	0.079891
O479	O	0.125248	0.131151	-0.302015
O480	O	0.625248	0.631151	0.197985
C481	C	0.094504	0.105843	-0.327427
C482	C	0.594504	0.605843	0.172573
H483	H	0.061056	0.104265	-0.309027
H484	H	0.561056	0.604265	0.190973
H485	H	0.108085	0.070452	-0.332285
H486	H	0.608085	0.570452	0.167715
H487	H	0.089510	0.122346	-0.361516
H488	H	0.589510	0.622346	0.138484
H489	H	0.597027	1.045000	-0.268554
H490	H	1.097027	1.545000	0.231446
O491	O	0.032614	0.301723	-0.131008
O492	O	0.532614	0.801723	0.368992
C493	C	0.005447	0.330774	-0.156526
C494	C	0.505447	0.830774	0.343474
H495	H	0.019590	0.333606	-0.191905
H496	H	0.519590	0.833606	0.308095
H497	H	0.004885	0.365322	-0.140210
H498	H	0.504885	0.865322	0.359790
H499	H	-0.030100	0.316888	-0.158096
H500	H	0.469900	0.816888	0.341904
H501	H	0.177265	0.135702	-0.297477
H502	H	0.677265	0.635702	0.202523
H503	H	0.701195	0.387423	-0.164365
H504	H	1.201195	0.887423	0.335635
H505	H	0.597043	0.268417	-1.045434
H506	H	1.097043	0.768417	-0.545434
O507	O	-0.090611	0.159846	-0.273253
O508	O	0.409389	0.659846	0.226747
C509	C	-0.121352	0.134540	-0.298668
C510	C	0.378648	0.634540	0.201332
H511	H	-0.154801	0.132960	-0.280271
H512	H	0.345199	0.632960	0.219729
H513	H	-0.107770	0.099149	-0.303528
H514	H	0.392230	0.599149	0.196472
H515	H	-0.126344	0.151045	-0.332757
H516	H	0.373656	0.651045	0.167243
O517	O	0.173440	0.301736	-0.130946
O518	O	0.673440	0.801736	0.369054
C519	C	0.184867	0.346526	-0.140682
C520	C	0.684867	0.846526	0.359318
H521	H	0.218934	0.347481	-0.157956
H522	H	0.718934	0.847481	0.342044
H523	H	0.186455	0.366616	-0.108219
H524	H	0.686455	0.866616	0.391781
H525	H	0.158453	0.361701	-0.163744
H526	H	0.658453	0.861701	0.336256
H527	H	0.730088	0.135525	-0.603787
H528	H	1.230088	0.635525	-0.103787
O529	O	0.563675	0.692057	-0.301807
O530	O	1.063675	1.192057	0.198193
C531	C	0.538290	0.661299	-0.327129
C532	C	1.038290	1.161299	0.172871
H533	H	0.556687	0.627836	-0.328692
H534	H	1.056687	1.127836	0.171308
H535	H	0.533479	0.674839	-0.362524
H536	H	1.033479	1.174839	0.137476
H537	H	0.504180	0.656351	-0.310647
H538	H	1.004180	1.156351	0.189353
O539	O	0.563734	0.599619	-0.301805
O540	O	1.063734	1.099619	0.198195
C541	C	0.589285	0.572432	-0.330836
C542	C	1.089285	1.072432	0.169164
H543	H	0.624670	0.586530	-0.333644
H544	H	1.124670	1.086530	0.166356
H545	H	0.573014	0.571903	-0.365394
H546	H	1.073014	1.071903	0.134606
H547	H	0.590831	0.536877	-0.316945
H548	H	1.090831	1.036877	0.183055
H549	H	0.730062	0.829092	-0.135699
H550	H	1.230062	1.329092	0.364301
H551	H	0.730095	0.135503	-0.688892
H552	H	1.230095	0.635503	-0.188892
O553	O	-0.183085	0.159950	-0.273263
O554	O	0.316915	0.659950	0.226737
C555	C	-0.210227	0.185571	-0.302242
C556	C	0.289773	0.685571	0.197758
H557	H	-0.217284	0.219596	-0.286338
H558	H	0.282716	0.719596	0.213662
H559	H	-0.243205	0.167284	-0.308293
H560	H	0.256795	0.667284	0.191707
H561	H	-0.192141	0.190551	-0.335526
H562	H	0.307859	0.690551	0.164474
O563	O	0.592554	0.273010	-0.956658
O564	O	1.092554	0.773010	-0.456658
C565	C	0.602330	0.317781	-0.968130
C566	C	1.102330	0.817781	-0.468130
H567	H	0.638222	0.320046	-0.981025
H568	H	1.138222	0.820046	-0.481025
H569	H	0.598431	0.339986	-0.937274
H570	H	1.098431	0.839986	-0.437274
H571	H	0.578242	0.329514	-0.995364
H572	H	1.078242	0.829514	-0.495364
O573	O	-0.183094	0.273017	-0.159708
O574	O	0.316906	0.773017	0.340292
C575	C	-0.152352	0.298341	-0.134311
C576	C	0.347648	0.798341	0.365689
H577	H	-0.118894	0.279934	-0.132790
H578	H	0.381106	0.779934	0.367210
H579	H	-0.165921	0.303081	-0.098905
H580	H	0.334079	0.803081	0.401095
H581	H	-0.147382	0.332486	-0.150698
H582	H	0.352618	0.832486	0.349302
H583	H	0.596893	0.472613	-0.268529
H584	H	1.096893	0.972613	0.231471
O585	O	0.265925	0.301693	-0.130985
O586	O	0.765925	0.801693	0.369015
C587	C	0.293038	0.330758	-0.156505
C588	C	0.793038	0.830758	0.343495
H589	H	0.300093	0.314967	-0.190581
H590	H	0.800093	0.814967	0.309419
H591	H	0.326019	0.336752	-0.138192
H592	H	0.826019	0.836752	0.361808
H593	H	0.274928	0.364057	-0.161380
H594	H	0.774928	0.864057	0.338620
O595	O	0.705856	0.159657	-1.049228
O596	O	1.205856	0.659657	-0.549228
C597	C	0.699698	0.165820	-1.095666
C598	C	1.199698	0.665820	-0.595666
H599	H	0.665019	0.180540	-1.102060
H600	H	1.165019	0.680540	-0.602060
H601	H	0.702765	0.132166	-1.113505
H602	H	1.202765	0.632166	-0.613505
H603	H	0.726331	0.189736	-1.108983
H604	H	1.226331	0.689736	-0.608983
H605	H	-0.094361	0.268491	-0.164260
H606	H	0.405639	0.768491	0.335740
H607	H	0.568213	0.297218	-0.603732
H608	H	1.068213	0.797218	-0.103732
O609	O	0.592430	0.272989	-0.476781
O610	O	1.092430	0.772989	0.023219
C611	C	0.563428	0.247400	-0.503903
C612	C	1.063428	0.747400	-0.003903
H613	H	0.579305	0.213354	-0.510941
H614	H	1.079305	0.713354	-0.010941
H615	H	0.557387	0.265689	-0.536893
H616	H	1.057387	0.765689	-0.036893
H617	H	0.530142	0.242464	-0.485810
H618	H	1.030142	0.742464	0.014190
