data_functionalizedCrystal
_audit_creation_method	'MofGen! by Chris Wilmer'
_symmetry_space_group_name_H-M	'P1'
_symmetry_Int_Tables_number	1
_symmetry_cell_setting	triclinic
loop_
_symmetry_equiv_pos_as_xyz
  x,y,z
_cell_length_a	17.077404
_cell_length_b	11.169409
_cell_length_c	17.077402
_cell_angle_alpha	89.962066
_cell_angle_beta	90.023108
_cell_angle_gamma	89.976185
loop_
_atom_site_label
_atom_site_type_symbol
_atom_site_fract_x
_atom_site_fract_y
_atom_site_fract_z
Zn1	Zn	1.200088	-0.678600	-0.312440
Zn2	Zn	1.700088	-0.178600	0.187560
Zn3	Zn	1.199985	-0.477897	-0.443734
Zn4	Zn	1.699985	0.022103	0.056266
Zn5	Zn	1.068810	-0.477923	-0.312487
Zn6	Zn	1.568810	0.022077	0.187513
Zn7	Zn	1.068788	-0.678530	-0.443669
Zn8	Zn	1.568788	-0.178530	0.056331
O9	O	1.134418	-0.578237	-0.378082
O10	O	1.634418	-0.078237	0.121918
O11	O	1.309921	-0.651994	-0.329865
O12	O	1.809921	-0.151994	0.170135
O13	O	1.182551	-0.309950	-0.426370
O14	O	1.682551	0.190050	0.073630
O15	O	1.086277	-0.504583	-0.202633
O16	O	1.586277	-0.004583	0.297367
O17	O	1.309846	-0.504539	-0.426325
O18	O	1.809846	-0.004539	0.073675
O19	O	1.182726	-0.652019	-0.202599
O20	O	1.682726	-0.152019	0.297401
O21	O	1.086177	-0.309969	-0.329943
O22	O	1.586177	0.190031	0.170057
O23	O	0.958960	-0.504515	-0.329880
O24	O	1.458960	-0.004515	0.170120
O25	O	1.086239	-0.846489	-0.426214
O26	O	1.586239	-0.346489	0.073786
O27	O	0.958944	-0.651901	-0.426259
O28	O	1.458944	-0.151901	0.073741
O29	O	1.182705	-0.846540	-0.329801
O30	O	1.682705	-0.346540	0.170199
O31	O	1.182529	-0.504471	-0.553572
O32	O	1.682529	-0.004471	-0.053572
O33	O	1.086139	-0.651876	-0.553524
O34	O	1.586139	-0.151876	-0.053524
C35	C	0.930470	-0.578204	-0.378068
C36	C	1.430470	-0.078204	0.121932
C37	C	0.843220	-0.578218	-0.378081
C38	C	1.343220	-0.078218	0.121919
C39	C	0.802242	-0.654839	-0.428341
C40	C	1.302242	-0.154839	0.071659
C41	C	0.720262	-0.654858	-0.428343
C42	C	1.220262	-0.154858	0.071657
C43	C	0.679261	-0.578250	-0.378088
C44	C	1.179261	-0.078250	0.121912
C45	C	0.720245	-0.501626	-0.327822
C46	C	1.220245	-0.001626	0.172178
C47	C	0.802224	-0.501614	-0.327817
C48	C	1.302224	-0.001614	0.172183
C49	C	0.549375	-0.501655	-0.327837
C50	C	1.049375	-0.001655	0.172163
C51	C	0.467390	-0.501665	-0.327843
C52	C	0.967390	-0.001665	0.172157
C53	C	0.467413	-0.654899	-0.428363
C54	C	0.967413	-0.154899	0.071637
C55	C	0.549392	-0.654887	-0.428358
C56	C	1.049392	-0.154887	0.071642
C57	C	0.590370	-0.578261	-0.378093
C58	C	1.090370	-0.078261	0.121907
C59	C	1.134481	-0.891280	-0.377995
C60	C	1.634481	-0.391280	0.122005
C61	C	1.134508	-1.024680	-0.377958
C62	C	1.634508	-0.524680	0.122042
C63	C	1.339162	-0.578271	-0.378097
C64	C	1.839162	-0.078271	0.121903
C65	C	1.426412	-0.578286	-0.378103
C66	C	1.926412	-0.078286	0.121897
C67	C	1.134342	-0.578189	-0.582030
C68	C	1.634342	-0.078189	-0.082030
C69	C	1.134381	-0.578209	-0.669280
C70	C	1.634381	-0.078209	-0.169280
C71	C	1.134400	-0.266413	-0.378112
C72	C	1.634400	0.233587	0.121888
C73	C	1.134526	-0.133013	-0.377928
C74	C	1.634526	0.366987	0.122072
C75	C	1.184623	-0.501538	-0.710269
C76	C	1.684623	-0.001538	-0.210269
C77	C	1.184661	-0.501569	-0.792249
C78	C	1.684661	-0.001569	-0.292249
C79	C	1.134454	-0.578265	-0.833239
C80	C	1.634454	-0.078265	-0.333239
C81	C	1.084210	-0.654945	-0.792245
C82	C	1.584210	-0.154945	-0.292245
C83	C	1.084176	-0.654919	-0.710266
C84	C	1.584176	-0.154919	-0.210266
C85	C	1.084283	-0.654990	-0.963115
C86	C	1.584283	-0.154990	-0.463115
C87	C	1.084315	-0.655015	-1.045099
C88	C	1.584315	-0.155015	-0.545099
C89	C	1.184768	-0.501640	-1.045098
C90	C	1.684768	-0.001640	-0.545098
C91	C	1.184734	-0.501614	-0.963119
C92	C	1.684734	-0.001614	-0.463119
C93	C	1.134489	-0.578292	-0.922130
C94	C	1.634489	-0.078292	-0.422130
C95	C	1.134515	-0.578312	-0.173338
C96	C	1.634515	-0.078312	0.326662
C97	C	1.134557	-0.578343	-0.086088
C98	C	1.634557	-0.078343	0.413912
H99	H	0.686855	-0.439255	-0.286900
H100	H	1.186855	0.060745	0.213100
H101	H	1.043333	-0.717398	-0.825625
H102	H	1.543333	-0.217398	-0.325625
C103	C	0.847336	-0.739111	-0.483622
C104	C	1.347336	-0.239111	0.016378
H105	H	0.811186	-0.784754	-0.513549
H106	H	1.311186	-0.284754	-0.013549
H107	H	0.879290	-0.693107	-0.517789
H108	H	1.379290	-0.193107	-0.017789
H109	H	0.879342	-0.791486	-0.453624
H110	H	1.379342	-0.291486	0.046376
H111	H	0.582772	-0.717262	-0.469285
H112	H	1.082772	-0.217262	0.030715
C113	C	0.422340	-0.739193	-0.483649
C114	C	0.922340	-0.239193	0.016351
H115	H	0.367645	-0.728242	-0.476449
H116	H	0.867645	-0.228242	0.023551
H117	H	0.435749	-0.721481	-0.536377
H118	H	0.935749	-0.221481	-0.036377
H119	H	0.435810	-0.819865	-0.472216
H120	H	0.935810	-0.319865	0.027784
C121	C	1.239846	-0.417164	-0.665184
C122	C	1.739846	0.082836	-0.165184
H123	H	1.232625	-0.428118	-0.610489
H124	H	1.732625	0.071882	-0.110489
H125	H	1.292589	-0.434800	-0.678563
H126	H	1.792589	0.065200	-0.178563
H127	H	1.228380	-0.336512	-0.678677
H128	H	1.728380	0.163488	-0.178677
C129	C	1.239923	-0.417224	-0.837334
C130	C	1.739923	0.082776	-0.337334
H131	H	1.269813	-0.371532	-0.801181
H132	H	1.769813	0.128468	-0.301181
H133	H	1.274127	-0.463186	-0.869260
H134	H	1.774127	0.036814	-0.369260
H135	H	1.209919	-0.364898	-0.869368
H136	H	1.709919	0.135102	-0.369368
H137	H	0.434009	-0.439298	-0.286912
H138	H	0.934009	0.060702	0.213088
H139	H	1.043265	-0.717354	-0.676893
H140	H	1.543265	-0.217354	-0.176893
H141	H	0.582736	-0.439269	-0.286899
H142	H	1.082736	0.060731	0.213101
C143	C	0.847299	-0.417333	-0.272529
C144	C	1.347299	0.082667	0.227471
H145	H	0.811141	-0.371703	-0.242604
H146	H	1.311141	0.128297	0.257396
H147	H	0.879305	-0.463338	-0.238361
H148	H	1.379305	0.036662	0.261639
H149	H	0.879253	-0.364946	-0.302518
H150	H	1.379253	0.135054	0.197482
H151	H	1.225682	-0.439209	-1.078476
H152	H	1.725682	0.060791	-0.578476
C153	C	0.675189	-0.739067	-0.483677
C154	C	1.175189	-0.239067	0.016323
H155	H	0.711349	-0.784658	-0.513627
H156	H	1.211349	-0.284658	-0.013627
H157	H	0.643214	-0.791476	-0.453736
H158	H	1.143214	-0.291476	0.046264
H159	H	0.643206	-0.692992	-0.517833
H160	H	1.143206	-0.192992	-0.017833
H161	H	1.225613	-0.439156	-0.929746
H162	H	1.725613	0.060844	-0.429746
C163	C	1.029098	-0.739393	-1.090187
C164	C	1.529098	-0.239393	-0.590187
H165	H	0.999178	-0.785071	-1.054036
H166	H	1.499178	-0.285071	-0.554036
H167	H	0.994920	-0.693455	-1.122223
H168	H	1.494920	-0.193455	-0.622223
H169	H	1.059137	-0.791731	-1.122110
H170	H	1.559137	-0.291731	-0.622110
H171	H	1.043370	-0.717434	-0.929744
H172	H	1.543370	-0.217434	-0.429744
