data_functionalizedCrystal
_audit_creation_method	'MofGen! by Chris Wilmer'
_symmetry_space_group_name_H-M	'P1'
_symmetry_Int_Tables_number	1
_symmetry_cell_setting	triclinic
loop_
_symmetry_equiv_pos_as_xyz
  x,y,z
_cell_length_a	8.634740
_cell_length_b	8.597304
_cell_length_c	16.776229
_cell_angle_alpha	82.293521
_cell_angle_beta	89.993840
_cell_angle_gamma	92.879790
loop_
_atom_site_label
_atom_site_type_symbol
_atom_site_fract_x
_atom_site_fract_y
_atom_site_fract_z
O1	O	2.053804	0.512875	-0.101503
O2	O	1.604203	0.469868	-0.098552
O3	O	1.837849	0.264241	-0.084427
O4	O	1.820158	0.718502	-0.115628
O5	O	1.837818	0.264221	0.048151
O6	O	1.604172	0.469849	0.034026
O7	O	2.053772	0.512855	0.031075
Zn8	Zn	1.828967	0.491349	0.053600
Zn9	Zn	1.829009	0.491375	-0.121077
O10	O	1.820126	0.718482	0.016949
C11	C	1.546590	0.460116	-0.031594
C12	C	1.374969	0.431068	-0.029600
C13	C	1.835932	0.205472	-0.014104
C14	C	1.830249	0.030385	-0.002083
C15	C	2.111385	0.522607	-0.035885
C16	C	2.283007	0.551656	-0.037884
C17	C	1.822043	0.777252	-0.053375
C18	C	1.827727	0.952339	-0.065402
N19	N	1.828950	0.491332	0.172812
N20	N	1.829038	0.491381	-0.240289
C21	C	1.932441	0.400329	0.220781
C22	C	1.932449	0.400329	0.304233
C23	C	1.828973	0.491342	0.339714
C24	C	1.725471	0.582348	0.291740
C25	C	1.725456	0.582338	0.208290
C26	C	1.725527	0.582387	0.628285
C27	C	1.725553	0.582394	0.711741
C28	C	1.932521	0.400378	0.724227
C29	C	1.932506	0.400368	0.640777
C30	C	1.828999	0.491368	0.592811
C31	C	1.828989	0.491364	0.502323
C32	C	1.828989	0.491355	0.430200
H33	H	1.828042	-0.036753	0.061333
C34	C	1.354009	0.721166	-0.049526
C35	C	1.460440	0.778437	0.015385
C36	C	1.531443	0.947943	0.003743
C37	C	1.496014	1.060178	-0.072810
C38	C	1.389577	1.002909	-0.137726
C39	C	1.318575	0.833403	-0.126084
H40	H	1.486672	0.695352	0.072058
H41	H	1.610234	0.990336	0.051799
H42	H	1.548574	1.185657	-0.081428
H43	H	1.363346	1.085994	-0.194400
H44	H	1.239783	0.791009	-0.174140
C45	C	1.611643	0.682466	0.330765
C46	C	1.611725	0.682575	0.422550
C47	C	1.497897	0.782701	0.461572
C48	C	1.383987	0.882718	0.408809
C49	C	1.383900	0.882613	0.317018
C50	C	1.497728	0.782487	0.277997
H51	H	1.696052	0.608533	0.461614
H52	H	1.497962	0.782778	0.529522
H53	H	1.299725	0.956837	0.437695
H54	H	1.299573	0.956655	0.277955
H55	H	1.497663	0.782410	0.210047
H56	H	1.322406	0.305604	-0.021003
H57	H	1.829911	0.019468	-0.128813
H58	H	2.016710	0.326223	0.191897
C59	C	2.046294	0.300233	0.357002
C60	C	2.160163	0.200166	0.317978
C61	C	2.274011	0.100066	0.370748
C62	C	2.273990	0.100033	0.462543
C63	C	2.160116	0.200105	0.501572
C64	C	2.046269	0.300205	0.448801
H65	H	2.160183	0.200186	0.250021
H66	H	2.358308	0.025986	0.341856
H67	H	2.358267	0.025933	0.501607
H68	H	2.160097	0.200084	0.569528
H69	H	1.961972	0.374284	0.477694
C70	C	2.046371	0.300259	0.776993
C71	C	1.984195	0.170780	0.843266
C72	C	2.098046	0.070669	0.896028
C73	C	2.274074	0.100036	0.882518
C74	C	2.336259	0.229521	0.816242
C75	C	2.222408	0.329632	0.763480
H76	H	1.853881	0.149036	0.853270
H77	H	2.052012	-0.025184	0.945090
H78	H	2.358353	0.025928	0.921576
H79	H	2.466573	0.251265	0.806238
H80	H	2.268442	0.425485	0.714418
H81	H	2.016771	0.326263	0.611891
H82	H	1.641284	0.656509	0.740628
H83	H	1.641251	0.656485	0.589236
H84	H	1.641181	0.656440	0.169234
