data_functionalizedCrystal
_audit_creation_method	'MofGen! by Chris Wilmer'
_symmetry_space_group_name_H-M	'P1'
_symmetry_Int_Tables_number	1
_symmetry_cell_setting	triclinic
loop_
_symmetry_equiv_pos_as_xyz
  x,y,z
_cell_length_a	6.817900
_cell_length_b	27.924003
_cell_length_c	27.923456
_cell_angle_alpha	97.581071
_cell_angle_beta	98.963413
_cell_angle_gamma	98.973271
loop_
_atom_site_label
_atom_site_type_symbol
_atom_site_fract_x
_atom_site_fract_y
_atom_site_fract_z
V1	V	-3.954358	-0.067844	-0.151573
O2	O	-3.966070	0.002521	-0.148382
O3	O	-3.884424	-0.133813	-0.150831
O4	O	-3.884393	-0.067125	-0.217545
O5	O	-3.966100	-0.064628	-0.081206
V6	V	-4.443571	-0.059389	-0.143121
O7	O	-4.203136	-0.086390	-0.170114
O8	O	-4.644991	-0.040843	-0.124580
O9	O	-4.290299	0.006579	-0.143863
O10	O	-4.549257	-0.129755	-0.146313
O11	O	-4.549226	-0.062605	-0.213489
O12	O	-4.290330	-0.060109	-0.077149
C13	C	-3.724883	-0.149884	-0.148516
C14	C	-3.748847	-0.203817	-0.148349
C15	C	-3.724844	-0.064817	-0.233616
C16	C	-3.748781	-0.064665	-0.287550
C17	C	-3.896671	-0.581834	-0.102809
C18	C	-3.806651	-0.379127	-0.103375
O19	O	-3.775200	-0.346849	-0.065635
N20	N	-3.818598	-0.360913	-0.147909
C21	C	-3.853040	-0.393379	-0.192305
O22	O	-3.861115	-0.373236	-0.230196
C23	C	-3.943045	-0.596086	-0.191737
C24	C	-3.931115	-0.614297	-0.147201
C25	C	-3.884742	-0.600046	-0.058276
C26	C	-3.907256	-0.650720	-0.058135
C27	C	-3.941700	-0.683182	-0.102527
C28	C	-3.953630	-0.664971	-0.147060
C29	C	-3.977471	-0.628551	-0.236132
C30	C	-3.999967	-0.679230	-0.235986
C31	C	-3.988038	-0.697441	-0.191450
C32	C	-4.010589	-0.748107	-0.191311
N33	N	-3.998642	-0.766321	-0.146777
C34	C	-3.964198	-0.733858	-0.102385
C35	C	-3.805788	-0.286955	-0.192599
C36	C	-3.783291	-0.236279	-0.192741
C37	C	-3.736900	-0.222030	-0.103812
C38	C	-3.759413	-0.272707	-0.103670
C39	C	-3.793842	-0.305169	-0.148065
C40	C	-4.011484	-0.840278	-0.102092
C41	C	-4.034011	-0.890957	-0.101955
C42	C	-4.080389	-0.905202	-0.190884
C43	C	-4.057875	-0.854528	-0.191022
C44	C	-4.023414	-0.822066	-0.146621
O45	O	-4.042021	-0.780412	-0.229031
O46	O	-3.956085	-0.754011	-0.064498
C47	C	-3.874156	-0.531160	-0.102950
C48	C	-3.886086	-0.512949	-0.147483
C49	C	-3.920530	-0.545411	-0.191875
C50	C	-3.863589	-0.462272	-0.147625
C51	C	-3.829144	-0.429810	-0.103233
C52	C	-3.817198	-0.448024	-0.058699
C53	C	-3.839712	-0.498698	-0.058558
C54	C	-3.932477	-0.527197	-0.236409
C55	C	-3.909963	-0.476523	-0.236546
C56	C	-3.875519	-0.444060	-0.192154
C57	C	-4.077901	-0.066114	-0.624477
C58	C	-4.167962	-0.065525	-0.827182
O59	O	-4.333096	-0.067497	-0.855500
N60	N	-3.998729	-0.063020	-0.850046
C61	C	-3.806964	-0.060659	-0.822230
O62	O	-3.665084	-0.058510	-0.846328
C63	C	-3.716903	-0.061244	-0.619526
C64	C	-3.886152	-0.063754	-0.596665
C65	C	-4.247135	-0.068623	-0.601617
C66	C	-4.224620	-0.068772	-0.550944
C67	C	-4.032871	-0.066413	-0.523132
C68	C	-3.863637	-0.063904	-0.545993
C69	C	-3.525139	-0.058879	-0.591710
C70	C	-3.502637	-0.059025	-0.541031
C71	C	-3.671886	-0.061535	-0.518171
C72	C	-3.649374	-0.061694	-0.467508
N73	N	-3.818608	-0.064199	-0.444644
C74	C	-4.010356	-0.066558	-0.472456
C75	C	-3.854261	-0.060353	-0.928653
C76	C	-3.876776	-0.060208	-0.979329
C77	C	-4.237773	-0.065073	-0.984277
C78	C	-4.215257	-0.065222	-0.933601
C79	C	-4.023494	-0.062858	-0.905789
C80	C	-3.963061	-0.066873	-0.366039
C81	C	-3.940529	-0.067025	-0.315362
C82	C	-3.579534	-0.062157	-0.310418
C83	C	-3.602064	-0.062008	-0.361091
C84	C	-3.793842	-0.064365	-0.388900
O85	O	-3.484305	-0.059718	-0.439159
O86	O	-4.152203	-0.068696	-0.448347
C87	C	-4.100415	-0.065964	-0.675150
C88	C	-3.931181	-0.063455	-0.698011
C89	C	-3.739432	-0.061095	-0.670199
C90	C	-3.953696	-0.063309	-0.748687
C91	C	-4.145445	-0.065669	-0.776499
C92	C	-4.314678	-0.068174	-0.753635
C93	C	-4.292164	-0.068323	-0.702962
C94	C	-3.570199	-0.058590	-0.693063
C95	C	-3.592729	-0.058441	-0.743736
C96	C	-3.784477	-0.060801	-0.771548
C97	C	-4.113181	0.022648	-0.146177
C98	C	-4.068455	0.076580	-0.146347
C99	C	-4.113222	-0.062418	-0.061076
C100	C	-4.068524	-0.062567	-0.007141
H101	H	-4.024298	-0.905781	-0.065687
Br102	Br	-3.690113	-0.177963	-0.043565
Br103	Br	-3.799532	-0.211572	-0.253187
Br104	Br	-3.837992	-0.555998	0.001979
Br105	Br	-4.574913	-0.071379	-0.791390
Br106	Br	-4.046715	-0.723283	-0.296240
H107	H	-3.833825	-0.313382	-0.228753
H108	H	-4.362442	-0.070814	-0.532335
H109	H	-3.738957	-0.058172	-0.997939
Br110	Br	-3.309949	-0.055392	-0.655327
H111	H	-3.919700	-0.461701	-0.272816
Br112	Br	-3.993660	-0.603850	-0.296578
H113	H	-4.119221	-0.068793	-0.388676
Br114	Br	-4.170244	-0.070434	-0.284341
Br115	Br	-3.964718	-0.796231	-0.041834
H116	H	-3.897533	-0.665542	-0.021868
H117	H	-3.464250	-0.059970	-0.379706
Br118	Br	-4.498007	-0.068275	-1.022032
H119	H	-3.749692	-0.287531	-0.067405
Br120	Br	-4.444962	-0.068628	-0.902582
Br121	Br	-3.770472	-0.403958	0.001547
Br122	Br	-4.127145	-0.949268	-0.251128
H123	H	-3.698102	-0.058433	-0.906014
H124	H	-4.067652	-0.839701	-0.227288
H125	H	-3.960520	-0.553624	-0.272559
H126	H	-3.829994	-0.513520	-0.022291
H127	H	-4.429987	-0.070367	-0.684354
H128	H	-3.387313	-0.056836	-0.610314
Br129	Br	-4.507395	-0.071826	-0.639352
Br130	Br	-3.242372	-0.055812	-0.503288
H131	H	-3.423414	-0.060238	-0.287765
H132	H	-3.454893	-0.056401	-0.762345
