data_functionalizedCrystal
_audit_creation_method	'MofGen! by Chris Wilmer'
_symmetry_space_group_name_H-M	'P1'
_symmetry_Int_Tables_number	1
_symmetry_cell_setting	triclinic
loop_
_symmetry_equiv_pos_as_xyz
  x,y,z
_cell_length_a	17.699083
_cell_length_b	19.188930
_cell_length_c	16.776229
_cell_angle_alpha	89.988225
_cell_angle_beta	89.998886
_cell_angle_gamma	83.213899
loop_
_atom_site_label
_atom_site_type_symbol
_atom_site_fract_x
_atom_site_fract_y
_atom_site_fract_z
O1	O	1.003962	0.088294	-0.066185
O2	O	1.337296	0.421628	0.267148
O3	O	1.670629	0.754961	0.600481
O4	O	0.783569	0.099782	-0.066213
O5	O	1.116902	0.433115	0.267121
O6	O	1.450235	0.766448	0.600454
O7	O	0.900126	-0.007611	-0.066183
O8	O	1.233459	0.325723	0.267151
O9	O	1.566792	0.659056	0.600484
O10	O	0.887405	0.195686	-0.066215
O11	O	1.220739	0.529020	0.267118
O12	O	1.554072	0.862353	0.600451
O13	O	0.900110	-0.007617	0.066394
O14	O	1.233443	0.325716	0.399727
O15	O	1.566777	0.659050	0.733060
O16	O	0.783553	0.099775	0.066364
O17	O	1.116887	0.433108	0.399697
O18	O	1.450220	0.766442	0.733030
O19	O	1.003947	0.088288	0.066391
O20	O	1.337280	0.421621	0.399724
O21	O	1.670613	0.754954	0.733058
Zn22	Zn	0.893748	0.094030	0.087427
Zn23	Zn	1.227081	0.427364	0.420760
Zn24	Zn	1.560414	0.760697	0.754093
Zn25	Zn	0.893768	0.094039	-0.087249
Zn26	Zn	1.227101	0.427372	0.246085
Zn27	Zn	1.560435	0.760706	0.579418
O28	O	0.887390	0.195680	0.066361
O29	O	1.220723	0.529013	0.399694
O30	O	1.554057	0.862347	0.733028
C31	C	0.755365	0.099367	0.000072
C32	C	1.088698	0.432700	0.333406
C33	C	1.422031	0.766033	0.666739
C34	C	0.671348	0.098132	0.000062
C35	C	1.004681	0.431465	0.333396
C36	C	1.338015	0.764799	0.666729
C37	C	0.899706	-0.033625	0.000108
C38	C	1.233039	0.299708	0.333441
C39	C	1.566373	0.633041	0.666774
C40	C	0.898469	-0.111131	0.000114
C41	C	1.231803	0.222202	0.333448
C42	C	1.565136	0.555535	0.666781
C43	C	0.622644	0.161169	0.000053
C44	C	0.955977	0.494502	0.333386
C45	C	1.289311	0.827835	0.666719
C46	C	0.543702	0.160004	0.000063
C47	C	0.877036	0.493338	0.333396
C48	C	1.210369	0.826671	0.666730
C49	C	0.513466	0.095802	0.000078
C50	C	0.846799	0.429136	0.333411
C51	C	1.180133	0.762469	0.666744
C52	C	0.562176	0.032761	0.000090
C53	C	0.895510	0.366094	0.333423
C54	C	1.228843	0.699427	0.666757
C55	C	0.641117	0.033926	0.000085
C56	C	0.974450	0.367259	0.333419
C57	C	1.307783	0.700592	0.666752
C58	C	0.243819	0.028060	0.000111
C59	C	0.577153	0.361394	0.333444
C60	C	0.910486	0.694727	0.666777
C61	C	0.164873	0.026900	0.000113
C62	C	0.498206	0.360233	0.333446
C63	C	0.831540	0.693567	0.666780
C64	C	0.146405	0.154139	0.000088
C65	C	0.479739	0.487472	0.333422
C66	C	0.813072	0.820806	0.666755
C67	C	0.225345	0.155304	0.000084
C68	C	0.558679	0.488637	0.333417
C69	C	0.892012	0.821971	0.666750
C70	C	0.274049	0.092263	0.000100
C71	C	0.607382	0.425596	0.333433
C72	C	0.940715	0.758929	0.666767
C73	C	0.359646	0.093526	0.000090
C74	C	0.692980	0.426859	0.333423
C75	C	1.026313	0.760193	0.666757
C76	C	0.427870	0.094538	0.000082
C77	C	0.761203	0.427872	0.333415
C78	C	1.094537	0.761205	0.666749
C79	C	0.966861	-0.155978	0.000127
C80	C	1.300194	0.177355	0.333460
C81	C	1.633528	0.510688	0.666793
C82	C	0.965699	-0.228804	0.000114
C83	C	1.299033	0.104530	0.333447
C84	C	1.632366	0.437863	0.666780
C85	C	0.896142	-0.256778	0.000105
C86	C	1.229475	0.076555	0.333438
C87	C	1.562809	0.409889	0.666771
C88	C	0.827741	-0.211921	0.000088
C89	C	1.161075	0.121412	0.333421
C90	C	1.494408	0.454746	0.666754
C91	C	0.828905	-0.139098	0.000093
C92	C	1.162238	0.194236	0.333426
C93	C	1.495572	0.527569	0.666759
N94	N	0.842969	-0.364845	0.045216
N95	N	1.176302	-0.031512	0.378550
N96	N	1.509635	0.301822	0.711883
N97	N	0.841868	-0.434025	0.045213
N98	N	1.175201	-0.100691	0.378547
N99	N	1.508534	0.232642	0.711880
C100	C	0.892632	-0.476191	0.000088
C101	C	1.225965	-0.142857	0.333421
C102	C	1.559299	0.190476	0.666755
N103	N	0.944550	-0.446565	-0.045024
N104	N	1.277883	-0.113231	0.288309
N105	N	1.611217	0.220102	0.621642
N106	N	0.945653	-0.377379	-0.045018
N107	N	1.278986	-0.044046	0.288316
N108	N	1.612320	0.289288	0.621649
C109	C	0.894873	-0.335742	0.000099
C110	C	1.228206	-0.002409	0.333432
C111	C	1.561539	0.330925	0.666765
C112	C	0.959769	-0.600004	0.000085
C113	C	1.293102	-0.266671	0.333419
C114	C	1.626435	0.066663	0.666752
C115	C	0.958604	-0.672830	0.000067
C116	C	1.291937	-0.339497	0.333401
C117	C	1.625271	-0.006163	0.666734
C118	C	0.820644	-0.655946	0.000049
C119	C	1.153977	-0.322612	0.333383
C120	C	1.487311	0.010721	0.666716
C121	C	0.821811	-0.583121	0.000059
C122	C	1.155144	-0.249788	0.333393
C123	C	1.488477	0.083545	0.666726
C124	C	0.891375	-0.555155	0.000081
C125	C	1.224708	-0.221822	0.333414
C126	C	1.558042	0.111512	0.666748
C127	C	1.032151	0.088703	0.000104
C128	C	1.365484	0.422036	0.333438
C129	C	1.698818	0.755369	0.666771
C130	C	1.116167	0.089938	0.000109
C131	C	1.449501	0.423271	0.333442
C132	C	1.782834	0.756604	0.666775
C133	C	0.887810	0.221695	0.000069
C134	C	1.221143	0.555028	0.333402
C135	C	1.554476	0.888361	0.666735
C136	C	0.889046	0.299201	0.000057
C137	C	1.222379	0.632534	0.333390
C138	C	1.555713	0.965867	0.666723
N139	N	0.893739	0.094024	0.206638
N140	N	1.227073	0.427357	0.539971
N141	N	1.560406	0.760691	0.873305
N142	N	0.893782	0.094040	-0.206460
N143	N	1.227116	0.427373	0.126874
N144	N	1.560449	0.760706	0.460207
C145	C	0.945366	0.046490	0.248368
C146	C	1.278700	0.379824	0.581702
C147	C	1.612033	0.713157	0.915035
C148	C	0.945370	0.046490	0.331821
C149	C	1.278704	0.379823	0.665154
C150	C	1.612037	0.713156	0.998487
C151	C	0.893751	0.094027	0.373541
C152	C	1.227084	0.427360	0.706874
C153	C	1.560417	0.760693	1.040208
C154	C	0.842118	0.141563	0.331805
C155	C	1.175452	0.474896	0.665138
C156	C	1.508785	0.808229	0.998471
C157	C	0.842111	0.141559	0.248354
C158	C	1.175444	0.474893	0.581687
C159	C	1.508778	0.808226	0.915021
C160	C	0.842146	0.141576	0.668352
C161	C	1.175479	0.474910	1.001685
C162	C	1.508812	0.808243	1.335019
C163	C	0.842158	0.141578	0.751808
C164	C	1.175492	0.474911	1.085142
C165	C	1.508825	0.808244	1.418475
C166	C	0.945405	0.046507	0.751818
C167	C	1.278738	0.379840	1.085152
C168	C	1.612072	0.713173	1.418485
C169	C	0.945398	0.046503	0.668368
C170	C	1.278731	0.379837	1.001701
C171	C	1.612064	0.713170	1.335034
C172	C	0.893763	0.094037	0.626639
C173	C	1.227096	0.427370	0.959972
C174	C	1.560430	0.760703	1.293305
C175	C	0.893758	0.094036	0.536150
C176	C	1.227091	0.427369	0.869484
C177	C	1.560425	0.760702	1.202817
C178	C	0.893759	0.094031	0.464028
C179	C	1.227092	0.427365	0.797361
C180	C	1.560425	0.760698	1.130694
H181	H	0.504050	0.211335	0.000054
H182	H	0.837383	0.544669	0.333387
H183	H	1.170717	0.878002	0.666721
O184	O	0.135465	-0.035452	-0.000009
O185	O	0.468798	0.297881	0.333325
O186	O	0.802131	0.631214	0.666658
C187	C	0.090340	-0.039926	-0.068659
C188	C	0.423673	0.293408	0.264674
C189	C	0.757007	0.626741	0.598007
H190	H	0.108892	-0.003475	-0.116661
H191	H	0.442225	0.329858	0.216672
H192	H	0.775558	0.663191	0.550005
H193	H	0.097609	-0.096209	-0.091691
H194	H	0.430942	0.237124	0.241642
H195	H	0.764276	0.570458	0.574976
H196	H	0.028032	-0.023711	-0.053140
H197	H	0.361365	0.309622	0.280194
H198	H	0.694698	0.642955	0.613527
H199	H	0.249959	0.207584	0.000068
H200	H	0.583292	0.540917	0.333401
H201	H	0.916626	0.874251	0.666735
H202	H	0.647256	0.213450	0.000040
H203	H	0.980589	0.546783	0.333373
H204	H	1.313922	0.880116	0.666707
H205	H	0.283465	-0.023272	0.000125
H206	H	0.616798	0.310061	0.333458
H207	H	0.950131	0.643394	0.666791
O208	O	0.762486	-0.095501	-0.000056
O209	O	1.095819	0.237833	0.333277
O210	O	1.429153	0.571166	0.666611
C211	C	0.759050	-0.052841	-0.068704
C212	C	1.092384	0.280492	0.264630
C213	C	1.425717	0.613825	0.597963
H214	H	0.797849	-0.079565	-0.116692
H215	H	1.131182	0.253768	0.216642
H216	H	1.464515	0.587102	0.549975
H217	H	0.698060	-0.044542	-0.091761
H218	H	1.031393	0.288791	0.241573
H219	H	1.364726	0.622124	0.574906
H220	H	0.778463	0.000078	-0.053170
H221	H	1.111796	0.333411	0.280164
H222	H	1.445129	0.666745	0.613497
O223	O	0.532681	-0.029545	0.000070
O224	O	0.866015	0.303788	0.333404
O225	O	1.199348	0.637122	0.666737
C226	C	0.452563	-0.017058	0.000090
C227	C	0.785896	0.316275	0.333424
C228	C	1.119229	0.649609	0.666757
H229	H	0.433842	0.037460	-0.025019
H230	H	0.767175	0.370794	0.308314
H231	H	1.100509	0.704127	0.641647
H232	H	0.428460	-0.058131	-0.038391
H233	H	0.761793	0.275202	0.294942
H234	H	1.095126	0.608535	0.628275
H235	H	0.430600	-0.020407	0.063695
H236	H	0.763933	0.312927	0.397029
H237	H	1.097266	0.646260	0.730362
H238	H	0.106741	0.205470	0.000079
H239	H	0.440074	0.538804	0.333413
H240	H	0.773408	0.872137	0.666746
H241	H	0.680771	-0.017406	0.000093
H242	H	1.014105	0.315928	0.333426
H243	H	1.347438	0.649261	0.666760
O244	O	0.791934	0.187780	0.792213
O245	O	1.125267	0.521113	1.125547
O246	O	1.458600	0.854446	1.458880
C247	C	0.746368	0.229744	0.737489
C248	C	1.079701	0.563077	1.070822
C249	C	1.413035	0.896410	1.404156
H250	H	0.745604	0.201118	0.678009
H251	H	1.078938	0.534452	1.011343
H252	H	1.412271	0.867785	1.344676
H253	H	0.685895	0.240458	0.761610
H254	H	1.019228	0.573791	1.094943
H255	H	1.352561	0.907124	1.428277
H256	H	0.770757	0.281587	0.728596
H257	H	1.104091	0.614921	1.061929
H258	H	1.437424	0.948254	1.395263
H259	H	0.987409	0.007784	0.365797
H260	H	1.320742	0.341117	0.699130
H261	H	1.654075	0.674450	1.032464
H262	H	0.800070	0.180265	0.214378
H263	H	1.133404	0.513599	0.547711
H264	H	1.466737	0.846932	0.881045
H265	H	1.023506	-0.133213	0.000142
H266	H	1.356839	0.200120	0.333475
H267	H	1.690172	0.533453	0.666808
O268	O	0.755444	-0.539453	0.000020
O269	O	1.088777	-0.206120	0.333353
O270	O	1.422110	0.127214	0.666687
C271	C	0.771385	-0.469179	0.000047
C272	C	1.104719	-0.135846	0.333380
C273	C	1.438052	0.197487	0.666714
H274	H	0.830828	-0.466482	-0.025043
H275	H	1.164162	-0.133149	0.308290
H276	H	1.497495	0.200184	0.641624
H277	H	0.727781	-0.436103	-0.038448
H278	H	1.061114	-0.102770	0.294885
H279	H	1.394447	0.230563	0.628218
H280	H	0.768438	-0.448127	0.063651
H281	H	1.101771	-0.114794	0.396985
H282	H	1.435104	0.218540	0.730318
H283	H	0.764009	-0.678722	0.000038
H284	H	1.097342	-0.345388	0.333371
H285	H	1.430676	-0.012055	0.666705
H286	H	0.987434	0.007797	0.634402
H287	H	1.320767	0.341130	0.967735
H288	H	1.654100	0.674463	1.301068
H289	H	1.021394	-0.265325	0.000121
H290	H	1.354727	0.068008	0.333454
H291	H	1.688061	0.401341	0.666787
O292	O	0.995486	0.000352	0.792479
O293	O	1.328820	0.333686	1.125812
O294	O	1.662153	0.667019	1.459145
C295	C	0.984439	0.010554	0.875081
C296	C	1.317772	0.343888	1.208414
C297	C	1.651105	0.677221	1.541748
H298	H	0.924180	0.036717	0.886481
H299	H	1.257514	0.370050	1.219814
H300	H	1.590847	0.703383	1.553148
H301	H	0.993043	-0.042332	0.906808
H302	H	1.326377	0.291002	1.240141
H303	H	1.659710	0.624335	1.573474
H304	H	1.027158	0.045526	0.898749
H305	H	1.360492	0.378859	1.232082
H306	H	1.693825	0.712192	1.565415
H307	H	0.771107	-0.234702	0.000079
H308	H	1.104441	0.098631	0.333412
H309	H	1.437774	0.431964	0.666745
H310	H	1.016412	-0.577233	0.000099
H311	H	1.349745	-0.243899	0.333433
H312	H	1.683079	0.089434	0.666766
O313	O	1.025114	-0.716298	0.000114
O314	O	1.358447	-0.382965	0.333447
O315	O	1.691780	-0.049631	0.666781
C316	C	1.086757	-0.675994	0.000115
C317	C	1.420091	-0.342660	0.333449
C318	C	1.753424	-0.009327	0.666782
H319	H	1.067360	-0.621614	0.025217
H320	H	1.400693	-0.288281	0.358550
H321	H	1.734027	0.045052	0.691883
H322	H	1.134655	-0.702948	0.038615
H323	H	1.467989	-0.369615	0.371948
H324	H	1.801322	-0.036281	0.705282
H325	H	1.108104	-0.670828	-0.063482
H326	H	1.441438	-0.337495	0.269851
H327	H	1.774771	-0.004161	0.603185
H328	H	0.987404	0.007783	0.214405
H329	H	1.320737	0.341116	0.547738
H330	H	1.654071	0.674450	0.881072
O331	O	0.792101	0.187788	0.627740
O332	O	1.125434	0.521121	0.961073
O333	O	1.458768	0.854454	1.294407
C334	C	0.832486	0.230826	0.579470
C335	C	1.165819	0.564159	0.912804
C336	C	1.499153	0.897493	1.246137
H337	H	0.891796	0.202943	0.566959
H338	H	1.225129	0.536276	0.900293
H339	H	1.558463	0.869610	1.233626
H340	H	0.800850	0.241919	0.520793
H341	H	1.134183	0.575252	0.854126
H342	H	1.467517	0.908585	1.187460
H343	H	0.837468	0.282418	0.611624
H344	H	1.170802	0.615751	0.944958
H345	H	1.504135	0.949085	1.278291
H346	H	0.800085	0.180266	0.365778
H347	H	1.133418	0.513599	0.699111
H348	H	1.466751	0.846933	1.032445
