data_functionalizedCrystal
_audit_creation_method	'MofGen! by Chris Wilmer'
_symmetry_space_group_name_H-M	'P1'
_symmetry_Int_Tables_number	1
_symmetry_cell_setting	triclinic
loop_
_symmetry_equiv_pos_as_xyz
  x,y,z
_cell_length_a	15.995350
_cell_length_b	15.995292
_cell_length_c	14.185569
_cell_angle_alpha	76.851103
_cell_angle_beta	103.158160
_cell_angle_gamma	83.480495
loop_
_atom_site_label
_atom_site_type_symbol
_atom_site_fract_x
_atom_site_fract_y
_atom_site_fract_z
O1	O	1.091987	0.126893	-0.083326
O2	O	0.848204	0.140225	-0.083346
O3	O	0.976784	0.011668	-0.083337
O4	O	0.963406	0.255450	-0.083335
O5	O	1.014768	-0.026304	0.083500
O6	O	0.886188	0.102253	0.083491
O7	O	1.129970	0.088920	0.083511
Cu8	Cu	1.011547	0.092119	0.098735
Cu9	Cu	0.966627	0.137026	-0.098570
O10	O	1.001390	0.217477	0.083502
C11	C	0.836001	0.120689	0.000070
C12	C	0.743049	0.119038	0.000062
C13	C	0.405307	0.113101	0.000083
C14	C	0.452845	0.021462	0.000454
C15	C	0.549448	0.023202	0.000071
C16	C	0.572865	0.116046	0.000073
C17	C	0.510079	0.182887	-0.095195
C18	C	0.413427	0.180604	-0.095268
C19	C	0.456282	0.139313	0.094458
C20	C	0.553513	0.139007	0.095710
C21	C	0.667560	0.117716	0.000064
C22	C	0.310610	0.111436	0.000085
C23	C	0.995231	-0.038513	0.000079
C24	C	0.993597	-0.131464	0.000071
C25	C	0.987598	-0.469205	0.000080
C26	C	1.080489	-0.445979	0.000460
C27	C	1.082166	-0.349217	0.000081
C28	C	0.990575	-0.301648	0.000076
C29	C	0.922486	-0.309064	-0.095197
C30	C	0.921352	-0.405838	-0.095273
C31	C	0.962651	-0.448877	0.094452
C32	C	0.966376	-0.352670	0.095708
C33	C	0.992251	-0.206950	0.000071
C34	C	0.985917	-0.563900	0.000079
C35	C	1.142173	0.108457	0.000093
C36	C	1.235124	0.110109	0.000094
C37	C	0.982943	0.267659	0.000084
C38	C	0.984575	0.360612	0.000085
N39	N	1.043148	0.060533	0.237508
N40	N	0.935033	0.168605	-0.237343
C41	C	0.842191	0.261368	0.605144
C42	C	0.866134	0.237448	0.710167
C43	C	0.980014	0.123653	0.710136
C44	C	0.956078	0.147561	0.605111
C45	C	0.887167	0.216420	0.552623
C46	C	1.001054	0.102613	0.552589
C47	C	0.977123	0.126522	0.447573
C48	C	0.908216	0.195380	0.395078
C49	C	0.863235	0.240329	0.447607
C50	C	1.069970	0.033758	0.605079
C51	C	1.114946	-0.011190	0.552558
C52	C	1.091011	0.012715	0.447540
C53	C	1.022103	0.081572	0.395045
C54	C	1.135991	-0.032235	0.395012
C55	C	1.112059	-0.008325	0.289996
C56	C	0.998172	0.105482	0.290029
H57	H	0.380181	0.248805	-0.099590
H58	H	0.449885	-0.030684	0.068775
H59	H	0.417790	0.000499	-0.067490
Cl60	Cl	0.817181	-0.258612	-0.100681
Cl61	Cl	0.809583	0.293967	0.776186
Cl62	Cl	0.878133	0.225441	0.263056
Cl63	Cl	0.945938	-0.422221	-0.205218
H64	H	0.424654	0.206669	0.095103
H65	H	0.522318	0.167660	-0.166096
Cl66	Cl	0.857411	-0.470704	0.095441
H67	H	0.807115	0.296395	0.404869
H68	H	0.942051	0.161548	0.247291
H69	H	0.786070	0.317434	0.562406
Cl70	Cl	0.814777	-0.426784	-0.101962
H71	H	0.561738	0.003036	-0.068340
Cl72	Cl	0.617360	-0.055602	0.105507
Cl73	Cl	1.066646	0.037092	0.776127
Cl74	Cl	1.100056	0.003708	0.737102
Cl75	Cl	0.579228	0.241521	0.104595
H76	H	1.131815	-0.489527	0.068785
H77	H	1.134052	-0.345736	0.068375
H78	H	1.100594	-0.459534	-0.067475
H79	H	1.171057	-0.067254	0.595306
Cl80	Cl	1.168605	-0.064832	0.223967
H81	H	1.192105	-0.088295	0.437761
H82	H	0.596882	0.090000	0.166189
Cl83	Cl	0.530638	0.289442	-0.100688
Cl84	Cl	0.360135	0.154785	-0.205218
H85	H	0.452193	0.092947	0.166669
H86	H	1.103143	-0.315242	-0.068328
H87	H	1.008318	-0.493402	0.166668
Cl88	Cl	0.947310	-0.253185	-0.204661
H89	H	0.900833	-0.321009	0.101458
Cl90	Cl	1.043304	-0.348767	0.204531
