data_functionalizedCrystal
_audit_creation_method	'MofGen! by Chris Wilmer'
_symmetry_space_group_name_H-M	'P1'
_symmetry_Int_Tables_number	1
_symmetry_cell_setting	triclinic
loop_
_symmetry_equiv_pos_as_xyz
  x,y,z
_cell_length_a	27.731994
_cell_length_b	14.519709
_cell_length_c	12.996460
_cell_angle_alpha	90.007090
_cell_angle_beta	89.999504
_cell_angle_gamma	83.150340
loop_
_atom_site_label
_atom_site_type_symbol
_atom_site_fract_x
_atom_site_fract_y
_atom_site_fract_z
O1	O	-0.641468	-0.109495	-0.085422
O2	O	-0.308135	0.223839	0.247911
O3	O	0.025198	0.557172	0.581244
O4	O	-0.500751	-0.126232	-0.085457
O5	O	-0.167418	0.207102	0.247876
O6	O	0.165916	0.540435	0.581210
O7	O	-0.574841	0.016441	-0.085430
O8	O	-0.241507	0.349775	0.247904
O9	O	0.091826	0.683108	0.581237
O10	O	-0.567379	-0.252168	-0.085450
O11	O	-0.234045	0.081165	0.247883
O12	O	0.099288	0.414499	0.581217
O13	O	-0.574833	0.016449	0.085704
O14	O	-0.241500	0.349783	0.419038
O15	O	0.091834	0.683116	0.752371
O16	O	-0.500743	-0.126224	0.085677
O17	O	-0.167410	0.207109	0.419010
O18	O	0.165923	0.540443	0.752343
O19	O	-0.641461	-0.109487	0.085711
O20	O	-0.308127	0.223846	0.419045
O21	O	0.025206	0.557180	0.752378
Cu22	Cu	-0.571101	-0.117855	0.101320
Cu23	Cu	-0.237768	0.215478	0.434653
Cu24	Cu	0.095565	0.548812	0.767987
Cu25	Cu	-0.571110	-0.117864	-0.101066
Cu26	Cu	-0.237777	0.215469	0.232268
Cu27	Cu	0.095556	0.548803	0.565601
O28	O	-0.567371	-0.252160	0.085684
O29	O	-0.234038	0.081173	0.419017
O30	O	0.099296	0.414506	0.752351
C31	C	-0.574489	0.050799	0.000137
C32	C	-0.241156	0.384132	0.333471
C33	C	0.092178	0.717466	0.666804
C34	C	-0.573447	0.153162	0.000138
C35	C	-0.240114	0.486495	0.333471
C36	C	0.093220	0.819828	0.666804
C37	C	-0.482738	-0.125884	0.000106
C38	C	-0.149405	0.207449	0.333439
C39	C	0.183928	0.540782	0.666772
C40	C	-0.429077	-0.124850	0.000093
C41	C	-0.095744	0.208484	0.333426
C42	C	0.237590	0.541817	0.666759
C43	C	-0.659474	-0.109834	0.000146
C44	C	-0.326140	0.223499	0.333480
C45	C	0.007193	0.556832	0.666813
C46	C	-0.713135	-0.110869	0.000153
C47	C	-0.379801	0.222464	0.333486
C48	C	-0.046468	0.555798	0.666819
C49	C	-0.096323	-0.118329	0.093418
C50	C	0.237010	0.215004	0.426751
C51	C	0.570344	0.548338	0.760085
C52	C	0.105354	-0.114396	0.093430
C53	C	0.438687	0.218938	0.426763
C54	C	0.772020	0.552271	0.760097
O55	O	0.131433	-0.113844	0.172765
O56	O	0.464766	0.219489	0.506098
O57	O	0.798099	0.552823	0.839432
N58	N	0.130567	-0.113911	0.000145
N59	N	0.463900	0.219422	0.333478
N60	N	0.797233	0.552755	0.666812
C61	C	0.105357	-0.114404	-0.093150
C62	C	0.438690	0.218929	0.240184
C63	C	0.772024	0.552262	0.573517
O64	O	0.131429	-0.113893	-0.172494
O65	O	0.464762	0.219441	0.160840
O66	O	0.798096	0.552774	0.494173
C67	C	-0.096320	-0.118331	-0.093160
C68	C	0.237014	0.215002	0.240173
C69	C	0.570347	0.548336	0.573506
C70	C	-0.121529	-0.118825	0.000131
C71	C	0.211804	0.214509	0.333464
C72	C	0.545137	0.547842	0.666797
C73	C	-0.121533	-0.118821	0.186701
C74	C	0.211800	0.214512	0.520035
C75	C	0.545134	0.547845	0.853368
C76	C	-0.171949	-0.119810	0.186697
C77	C	0.161384	0.213524	0.520031
C78	C	0.494718	0.546857	0.853364
C79	C	-0.197155	-0.120305	0.093410
C80	C	0.136178	0.213028	0.426743
C81	C	0.469512	0.546361	0.760077
C82	C	-0.171945	-0.119813	0.000127
C83	C	0.161388	0.213520	0.333460
C84	C	0.494722	0.546854	0.666793
C85	C	-0.121529	-0.118817	-0.186454
C86	C	0.211805	0.214516	0.146879
C87	C	0.545138	0.547849	0.480213
C88	C	-0.171951	-0.119797	-0.186448
C89	C	0.161382	0.213537	0.146885
C90	C	0.494715	0.546870	0.480218
C91	C	-0.197161	-0.120290	-0.093157
C92	C	0.136172	0.213043	0.240176
C93	C	0.469506	0.546376	0.573509
C94	C	-0.247567	-0.121297	-0.093165
C95	C	0.085766	0.212036	0.240169
C96	C	0.419100	0.545370	0.573502
N97	N	-0.272780	-0.121781	0.000120
N98	N	0.060553	0.211552	0.333454
N99	N	0.393887	0.544886	0.666787
C100	C	-0.247574	-0.121285	0.093408
C101	C	0.085759	0.212048	0.426741
C102	C	0.419093	0.545381	0.760074
C103	C	0.211240	-0.112345	-0.093137
C104	C	0.544573	0.220989	0.240196
C105	C	0.877907	0.554322	0.573529
C106	C	0.261659	-0.111365	-0.093135
C107	C	0.594992	0.221968	0.240199
C108	C	0.928326	0.555302	0.573532
C109	C	0.261652	-0.111354	0.093445
C110	C	0.594986	0.221979	0.426778
C111	C	0.928319	0.555312	0.760112
C112	C	0.211233	-0.112341	0.093442
C113	C	0.544566	0.220992	0.426775
C114	C	0.877900	0.554326	0.760108
C115	C	0.186027	-0.112829	0.000148
C116	C	0.519361	0.220504	0.333481
C117	C	0.852694	0.553838	0.666814
C118	C	-0.353451	-0.123362	0.093392
C119	C	-0.020118	0.209972	0.426726
C120	C	0.313216	0.543305	0.760059
C121	C	-0.403871	-0.124354	0.093380
C122	C	-0.070538	0.208979	0.426713
C123	C	0.262796	0.542313	0.760047
C124	C	-0.403860	-0.124359	-0.093199
C125	C	-0.070527	0.208974	0.240134
C126	C	0.262807	0.542307	0.573468
C127	C	-0.353444	-0.123372	-0.093188
C128	C	-0.020111	0.209961	0.240146
C129	C	0.313223	0.543295	0.573479
C130	C	-0.328241	-0.122870	0.000117
C131	C	0.005092	0.210463	0.333450
C132	C	0.338426	0.543796	0.666783
O133	O	-0.273678	-0.121839	-0.172458
O134	O	0.059656	0.211494	0.160875
O135	O	0.392989	0.544828	0.494208
O136	O	-0.273656	-0.121777	0.172740
O137	O	0.059677	0.211557	0.506073
O138	O	0.393011	0.544890	0.839407
C139	C	-0.045907	-0.117341	0.093422
C140	C	0.287426	0.215993	0.426755
C141	C	0.620759	0.549326	0.760089
C142	C	-0.020697	-0.116848	0.000138
C143	C	0.312636	0.216485	0.333472
C144	C	0.645969	0.549819	0.666805
C145	C	-0.045904	-0.117344	-0.093149
C146	C	0.287430	0.215990	0.240184
C147	C	0.620763	0.549323	0.573518
C148	C	0.029722	-0.115868	0.000141
C149	C	0.363055	0.217465	0.333474
C150	C	0.696388	0.550799	0.666808
C151	C	0.054928	-0.115372	0.093428
C152	C	0.388261	0.217961	0.426762
C153	C	0.721594	0.551294	0.760095
C154	C	0.029715	-0.115857	0.186713
C155	C	0.363048	0.217477	0.520047
C156	C	0.696381	0.550810	0.853380
C157	C	-0.020701	-0.116845	0.186709
C158	C	0.312632	0.216488	0.520043
C159	C	0.645965	0.549822	0.853376
C160	C	-0.020691	-0.116859	-0.186434
C161	C	0.312643	0.216474	0.146900
C162	C	0.645976	0.549807	0.480233
C163	C	0.029725	-0.115872	-0.186422
C164	C	0.363059	0.217461	0.146911
C165	C	0.696392	0.550794	0.480244
C166	C	0.054931	-0.115377	-0.093135
C167	C	0.388265	0.217957	0.240198
C168	C	0.721598	0.551290	0.573532
C169	C	-0.567723	-0.286518	0.000115
C170	C	-0.234389	0.046816	0.333448
C171	C	0.098944	0.380149	0.666781
C172	C	-0.568765	-0.388880	0.000108
C173	C	-0.235431	-0.055547	0.333441
C174	C	0.097902	0.277786	0.666774
N175	N	-0.571098	-0.117848	0.243667
N176	N	-0.237765	0.215486	0.577000
N177	N	0.095568	0.548819	0.910334
C178	C	-0.569611	0.527989	0.000110
C179	C	-0.236277	0.861323	0.333443
C180	C	0.097056	1.194656	0.666777
C181	C	-0.570676	0.423700	0.000118
C182	C	-0.237343	0.757034	0.333451
C183	C	0.095991	1.090367	0.666785
C184	C	-0.571529	0.340579	0.000125
C185	C	-0.238195	0.673912	0.333458
C186	C	0.095138	1.007245	0.666792
C187	C	-0.572594	0.236283	0.000131
C188	C	-0.239261	0.569617	0.333464
C189	C	0.094072	0.902950	0.666798
N190	N	-0.571117	-0.117864	-0.243413
N191	N	-0.237784	0.215470	0.089921
N192	N	0.095549	0.548803	0.423254
C193	C	-0.571110	-0.117865	0.663481
C194	C	-0.237776	0.215468	0.996815
C195	C	0.095557	0.548802	1.330148
C196	C	-0.571105	-0.117863	0.546676
C197	C	-0.237772	0.215470	0.880010
C198	C	0.095561	0.548803	1.213343
C199	C	-0.571104	-0.117857	0.453578
C200	C	-0.237771	0.215476	0.786911
C201	C	0.095562	0.548810	1.120245
C202	C	-0.571099	-0.117854	0.336765
C203	C	-0.237766	0.215479	0.670099
C204	C	0.095567	0.548813	1.003432
H205	H	-0.424394	-0.124759	0.169352
H206	H	-0.091061	0.208574	0.502686
H207	H	0.242272	0.541908	0.836019
F208	F	-0.198774	-0.120313	-0.285748
F209	F	0.134559	0.213020	0.047586
F210	F	0.467892	0.546353	0.380919
F211	F	-0.094710	-0.118290	-0.285749
F212	F	0.238624	0.215043	0.047584
F213	F	0.571957	0.548377	0.380918
H214	H	-0.192471	-0.120206	0.262665
H215	H	0.140863	0.213127	0.595998
H216	H	0.474196	0.546461	0.929331
H217	H	-0.101016	-0.118416	0.262671
H218	H	0.232318	0.214918	0.596005
H219	H	0.565651	0.548251	0.929338
H220	H	-0.332936	-0.122961	0.169369
H221	H	0.000398	0.210372	0.502703
H222	H	0.333731	0.543705	0.836036
H223	H	-0.424392	-0.124767	-0.169151
H224	H	-0.091058	0.208566	0.164182
H225	H	0.242275	0.541900	0.497515
H226	H	0.190711	-0.112744	0.169407
H227	H	0.524044	0.220589	0.502741
H228	H	0.857377	0.553923	0.836074
F229	F	-0.047510	-0.117386	-0.285729
F230	F	0.285823	0.215948	0.047605
F231	F	0.619157	0.549281	0.380938
H232	H	0.282184	-0.110953	0.169403
H233	H	0.615517	0.222380	0.502737
H234	H	0.948851	0.555714	0.836070
F235	F	0.056550	-0.115333	0.285997
F236	F	0.389883	0.218000	0.619330
F237	F	0.723217	0.551333	0.952663
F238	F	-0.047525	-0.117370	0.286003
F239	F	0.285808	0.215963	0.619337
F240	F	0.619142	0.549297	0.952670
F241	F	0.288485	-0.110857	-0.192428
F242	F	0.621818	0.222477	0.140906
F243	F	0.955152	0.555810	0.474239
H244	H	0.050247	-0.115478	-0.262397
H245	H	0.383581	0.217855	0.070937
H246	H	0.716914	0.551189	0.404270
F247	F	0.184421	-0.112865	-0.192440
F248	F	0.517754	0.220468	0.140893
F249	F	0.851087	0.553801	0.474226
F250	F	-0.326612	-0.122862	-0.192477
F251	F	0.006721	0.210472	0.140856
F252	F	0.340055	0.543805	0.474189
