data_functionalizedCrystal
_audit_creation_method	'MofGen! by Chris Wilmer'
_symmetry_space_group_name_H-M	'P1'
_symmetry_Int_Tables_number	1
_symmetry_cell_setting	triclinic
loop_
_symmetry_equiv_pos_as_xyz
  x,y,z
_cell_length_a	10.967819
_cell_length_b	10.540510
_cell_length_c	10.065875
_cell_angle_alpha	98.879491
_cell_angle_beta	69.228723
_cell_angle_gamma	84.614685
loop_
_atom_site_label
_atom_site_type_symbol
_atom_site_fract_x
_atom_site_fract_y
_atom_site_fract_z
O1	O	1.740656	0.092849	-0.522880
O2	O	1.363355	0.124350	-0.434143
O3	O	1.560634	-0.076444	-0.480540
O4	O	1.543378	0.293643	-0.476483
O5	O	1.523017	-0.038006	-0.244705
O6	O	1.325739	0.162788	-0.198307
O7	O	1.703039	0.131287	-0.287045
Zn8	Zn	1.508416	0.153140	-0.205232
Zn9	Zn	1.557978	0.102497	-0.515956
O10	O	1.505761	0.332081	-0.240647
C11	C	1.296234	0.144180	-0.304862
C12	C	1.152278	0.145985	-0.271006
C13	C	0.958808	0.128753	-0.343115
C14	C	1.107594	0.126880	-0.378100
C15	C	1.540540	-0.104479	-0.362323
C16	C	1.536694	-0.245281	-0.361427
C17	C	1.673656	-0.467968	-0.393119
C18	C	1.677846	-0.321620	-0.394623
C19	C	1.485918	-0.309185	-0.479104
C20	C	1.482831	-0.455842	-0.478479
C21	C	1.437114	-0.411826	-0.209598
C22	C	1.443526	-0.265456	-0.209400
C23	C	1.770161	0.111457	-0.416328
C24	C	1.914119	0.109650	-0.450194
C25	C	1.525855	0.360116	-0.358868
C26	C	1.529703	0.500916	-0.359773
N27	N	1.474601	0.187702	0.006827
N28	N	1.591804	0.067925	-0.728017
C29	C	1.546205	0.114514	0.057765
C30	C	1.520190	0.141123	0.221051
H31	H	1.080392	0.163737	-0.153423
H32	H	1.626763	0.032151	-0.019505
H33	H	1.439617	0.223483	0.298321
O34	O	1.193157	0.105752	-0.518455
C35	C	1.219882	0.064285	-0.770223
C36	C	1.122835	0.088224	-0.611340
H37	H	1.163069	0.050080	-0.845365
H38	H	1.273153	0.151571	-0.788941
H39	H	1.295297	-0.026621	-0.793983
H40	H	1.047343	0.179085	-0.587470
H41	H	1.069663	0.000868	-0.592702
O42	O	1.687670	-0.030472	0.179663
C43	C	1.800571	-0.147110	-0.067156
C44	C	1.692145	-0.035472	0.037192
H45	H	1.804207	-0.151206	-0.182360
H46	H	1.900252	-0.129604	-0.062912
H47	H	1.777460	-0.243239	-0.033414
H48	H	1.715131	0.060704	0.003523
H49	H	1.592498	-0.053092	0.032934
O50	O	0.999793	0.088706	-0.590480
C51	C	1.062764	0.162644	-0.816781
C52	C	0.965669	0.186531	-0.657924
H53	H	1.035194	0.241703	-0.871366
H54	H	1.167499	0.164975	-0.820088
H55	H	1.057426	0.063498	-0.876526
H56	H	0.970889	0.285674	-0.598084
H57	H	0.860977	0.184116	-0.654724
H58	H	1.465688	-0.439111	-0.118067
H59	H	1.718984	-0.278736	-0.311384
O60	O	1.560998	-0.525495	-0.612486
C61	C	1.704910	-0.518913	-0.855299
C62	C	1.616448	-0.439883	-0.703590
H63	H	1.749744	-0.449728	-0.929007
H64	H	1.787356	-0.587216	-0.846350
H65	H	1.643035	-0.578313	-0.902879
H66	H	1.678213	-0.380407	-0.655923
H67	H	1.533997	-0.371662	-0.712632
H68	H	1.394034	0.270056	0.084101
H69	H	0.886917	0.146502	-0.225541
O70	O	1.720920	-0.502024	-0.293449
C71	C	1.776690	-0.674834	-0.183615
C72	C	1.723177	-0.636440	-0.296576
H73	H	1.778506	-0.783505	-0.186084
H74	H	1.881095	-0.651475	-0.210054
H75	H	1.709992	-0.617913	-0.070997
H76	H	1.789776	-0.693338	-0.409236
H77	H	1.618752	-0.659769	-0.270012
H78	H	1.743649	-0.529248	-0.502011
H79	H	1.378230	-0.475734	-0.459751
H80	H	1.480212	-0.222646	-0.122137
H81	H	1.750135	-0.311182	-0.504701
O82	O	1.363003	-0.248621	-0.456026
C83	C	1.227179	-0.047828	-0.436289
C84	C	1.366450	-0.116267	-0.462484
H85	H	1.229913	0.059197	-0.441471
H86	H	1.192586	-0.095918	-0.523139
H87	H	1.155903	-0.056089	-0.324751
H88	H	1.437822	-0.108028	-0.573976
H89	H	1.400932	-0.068161	-0.375548
O90	O	1.318944	-0.200768	-0.170711
C91	C	1.088262	-0.216768	-0.107615
C92	C	1.229282	-0.290182	-0.151370
H93	H	1.015735	-0.289030	-0.091994
H94	H	1.061040	-0.143154	-0.001908
H95	H	1.083631	-0.163767	-0.196662
H96	H	1.234019	-0.343260	-0.062420
H97	H	1.256444	-0.363722	-0.257118
O98	O	1.310490	-0.433184	-0.178524
C99	C	1.122524	-0.503480	-0.013009
C100	C	1.265900	-0.479306	-0.047988
H101	H	1.086439	-0.540799	0.092514
H102	H	1.056648	-0.408669	-0.000848
H103	H	1.118374	-0.578961	-0.104873
H104	H	1.270177	-0.403870	0.043831
H105	H	1.331712	-0.574175	-0.060204
H106	H	1.552084	-0.296611	-0.591127
