data_functionalizedCrystal
_audit_creation_method	'MofGen! by Chris Wilmer'
_symmetry_space_group_name_H-M	'P1'
_symmetry_Int_Tables_number	1
_symmetry_cell_setting	triclinic
loop_
_symmetry_equiv_pos_as_xyz
  x,y,z
_cell_length_a	19.288864
_cell_length_b	18.266242
_cell_length_c	19.288857
_cell_angle_alpha	90.008509
_cell_angle_beta	83.134677
_cell_angle_gamma	90.022884
loop_
_atom_site_label
_atom_site_type_symbol
_atom_site_fract_x
_atom_site_fract_y
_atom_site_fract_z
O1	O	0.921350	0.061119	0.086649
O2	O	1.254684	0.394452	0.419982
O3	O	1.588017	0.727786	0.753316
O4	O	0.719089	0.061070	0.098338
O5	O	1.052423	0.394403	0.431671
O6	O	1.385756	0.727736	0.765005
O7	O	0.826067	0.061087	-0.008637
O8	O	1.159400	0.394420	0.324696
O9	O	1.492734	0.727754	0.658029
O10	O	0.814373	0.061102	0.193624
O11	O	1.147706	0.394435	0.526957
O12	O	1.481039	0.727768	0.860291
O13	O	0.826049	-0.060675	-0.008643
O14	O	1.159382	0.272658	0.324691
O15	O	1.492716	0.605992	0.658024
O16	O	0.719071	-0.060692	0.098332
O17	O	1.052405	0.272641	0.431666
O18	O	1.385738	0.605974	0.764999
O19	O	0.921332	-0.060643	0.086644
O20	O	1.254666	0.272690	0.419977
O21	O	1.587999	0.606024	0.753310
Zn22	Zn	0.820199	-0.080000	0.092487
Zn23	Zn	1.153532	0.253333	0.425820
Zn24	Zn	1.486866	0.586667	0.759154
Zn25	Zn	0.820223	0.080427	0.092494
Zn26	Zn	1.153556	0.413760	0.425828
Zn27	Zn	1.486889	0.747093	0.759161
O28	O	0.814355	-0.060660	0.193619
O29	O	1.147688	0.272673	0.526952
O30	O	1.481021	0.606006	0.860285
C31	C	0.693204	0.000182	0.097959
C32	C	1.026537	0.333515	0.431292
C33	C	1.359871	0.666849	0.764626
C34	C	0.616100	0.000163	0.096830
C35	C	0.949434	0.333496	0.430163
C36	C	1.282767	0.666830	0.763497
N37	N	0.820188	-0.189487	0.092482
N38	N	1.153521	0.143846	0.425815
N39	N	1.486854	0.477180	0.759148
C40	C	0.571402	0.000179	0.159598
C41	C	0.904736	0.333512	0.492931
C42	C	1.238069	0.666846	0.826265
C43	C	0.498955	0.000187	0.158537
C44	C	0.832289	0.333520	0.491871
C45	C	1.165622	0.666854	0.825204
C46	C	0.471210	0.000194	0.094705
C47	C	0.804543	0.333527	0.428038
C48	C	1.137876	0.666860	0.761372
C49	C	0.515917	0.000173	0.031929
C50	C	0.849251	0.333507	0.365262
C51	C	1.182584	0.666840	0.698595
C52	C	0.588363	0.000158	0.032991
C53	C	0.921696	0.333491	0.366325
C54	C	1.255029	0.666825	0.699658
C55	C	0.362955	0.042873	0.044528
C56	C	0.696289	0.376206	0.377861
C57	C	1.029622	0.709540	0.711194
C58	C	0.290511	0.042893	0.043468
C59	C	0.623844	0.376226	0.376801
C60	C	0.957177	0.709560	0.710134
C61	C	0.247764	0.000238	0.091425
C62	C	0.581097	0.333571	0.424759
C63	C	0.914431	0.666904	0.758092
C64	C	0.277469	-0.042428	0.140455
C65	C	0.610802	0.290905	0.473788
C66	C	0.944136	0.624238	0.807121
C67	C	0.349914	-0.042444	0.141517
C68	C	0.683248	0.290890	0.474851
C69	C	1.016581	0.624223	0.808184
C70	C	0.392656	0.000210	0.093546
C71	C	0.725989	0.333543	0.426879
C72	C	1.059322	0.666876	0.760213
C73	C	0.124510	0.000261	0.153048
C74	C	0.457843	0.333595	0.486381
C75	C	0.791177	0.666928	0.819714
C76	C	0.052062	0.000265	0.151984
C77	C	0.385395	0.333598	0.485318
C78	C	0.718729	0.666932	0.818651
C79	C	0.069026	0.000259	0.025374
C80	C	0.402359	0.333592	0.358707
C81	C	0.735692	0.666925	0.692041
C82	C	0.141472	0.000248	0.026439
C83	C	0.474805	0.333581	0.359772
C84	C	0.808139	0.666914	0.693106
C85	C	0.169210	0.000253	0.090278
C86	C	0.502543	0.333586	0.423611
C87	C	0.835876	0.666919	0.756945
C88	C	0.867573	-0.227788	0.045136
C89	C	1.200906	0.105545	0.378470
C90	C	1.534240	0.438879	0.711803
C91	C	0.867577	-0.304433	0.045133
C92	C	1.200911	0.028900	0.378466
C93	C	1.534244	0.362234	0.711800
C94	C	0.820203	-0.342774	0.092487
C95	C	1.153537	-0.009440	0.425821
C96	C	1.486870	0.323893	0.759154
C97	C	0.772809	-0.304463	0.139836
C98	C	1.106143	0.028870	0.473170
C99	C	1.439476	0.362203	0.806503
C100	C	0.772801	-0.227820	0.139834
C101	C	1.106135	0.105513	0.473167
C102	C	1.439468	0.438847	0.806500
N103	N	0.811168	-0.463103	0.153976
N104	N	1.144502	-0.129770	0.487309
N105	N	1.477835	0.203564	0.820643
N106	N	0.811180	-0.535911	0.153976
N107	N	1.144513	-0.202578	0.487310
N108	N	1.477846	0.130756	0.820643
C109	C	0.820223	-0.573696	0.092497
C110	C	1.153556	-0.240363	0.425831
C111	C	1.486889	0.092970	0.759164
N112	N	0.829267	-0.535923	0.031016
N113	N	1.162601	-0.202589	0.364349
N114	N	1.495934	0.130744	0.697682
N115	N	0.829259	-0.463108	0.031016
N116	N	1.162593	-0.129775	0.364349
N117	N	1.495926	0.203559	0.697683
C118	C	0.820206	-0.425881	0.092495
C119	C	1.153539	-0.092547	0.425829
C120	C	1.486873	0.240786	0.759162
C121	C	0.867615	-0.695105	0.045144
C122	C	1.200949	-0.361771	0.378478
C123	C	1.534282	-0.028438	0.711811
C124	C	0.867615	-0.771751	0.045140
C125	C	1.200948	-0.438417	0.378474
C126	C	1.534281	-0.105084	0.711807
C127	C	0.772850	-0.771780	0.139850
C128	C	1.106183	-0.438446	0.473183
C129	C	1.439517	-0.105113	0.806516
C130	C	0.772847	-0.695135	0.139848
C131	C	1.106180	-0.361802	0.473181
C132	C	1.439514	-0.028468	0.806514
C133	C	0.820233	-0.656802	0.092496
C134	C	1.153567	-0.323469	0.425829
C135	C	1.486900	0.009865	0.759163
C136	C	0.947218	0.000246	0.087022
C137	C	1.280551	0.333580	0.420356
C138	C	1.613884	0.666913	0.753689
C139	C	1.024321	0.000270	0.088151
C140	C	1.357655	0.333604	0.421485
C141	C	1.690988	0.666937	0.754818
C142	C	0.825683	0.000205	-0.034516
C143	C	1.159016	0.333539	0.298817
C144	C	1.492349	0.666872	0.632150
C145	C	0.824556	0.000203	-0.111620
C146	C	1.157889	0.333536	0.221713
C147	C	1.491222	0.666870	0.555046
N148	N	0.820239	0.189914	0.092494
N149	N	1.153573	0.523247	0.425827
N150	N	1.486906	0.856580	0.759161
C151	C	0.824040	0.066575	-0.147828
C152	C	1.157373	0.399909	0.185505
C153	C	1.490706	0.733242	0.518839
C154	C	0.822971	0.066580	-0.220274
C155	C	1.156304	0.399914	0.113059
C156	C	1.489638	0.733247	0.446393
C157	C	0.822432	0.000209	-0.256511
C158	C	1.155766	0.333543	0.076822
C159	C	1.489099	0.666876	0.410155
C160	C	0.822945	-0.066172	-0.220295
C161	C	1.156278	0.267162	0.113039
C162	C	1.489611	0.600495	0.446372
C163	C	0.824006	-0.066175	-0.147849
C164	C	1.157340	0.267158	0.185484
C165	C	1.490673	0.600492	0.518818
C166	C	0.861426	-0.050625	-0.376745
C167	C	1.194760	0.282708	-0.043412
C168	C	1.528093	0.616042	0.289921
C169	C	0.860369	-0.050619	-0.449190
C170	C	1.193702	0.282714	-0.115857
C171	C	1.527036	0.616048	0.217477
C172	C	0.819155	0.000217	-0.479957
C173	C	1.152488	0.333550	-0.146624
C174	C	1.485821	0.666884	0.186709
C175	C	0.779007	0.051059	-0.438272
C176	C	1.112340	0.384392	-0.104939
C177	C	1.445673	0.717726	0.228395
C178	C	0.780068	0.051056	-0.365827
C179	C	1.113402	0.384389	-0.032493
C180	C	1.446735	0.717722	0.300840
C181	C	0.821281	0.000206	-0.335066
C182	C	1.154614	0.333539	-0.001733
C183	C	1.487947	0.666872	0.331600
C184	C	0.817479	0.066600	-0.594719
C185	C	1.150812	0.399933	-0.261386
C186	C	1.484145	0.733266	0.071948
C187	C	0.816406	0.066602	-0.667166
C188	C	1.149739	0.399935	-0.333832
C189	C	1.483072	0.733269	-0.000499
C190	C	0.816386	-0.066152	-0.667186
C191	C	1.149720	0.267181	-0.333853
C192	C	1.483053	0.600514	-0.000519
C193	C	0.817452	-0.066153	-0.594740
C194	C	1.150786	0.267181	-0.261406
C195	C	1.484119	0.600514	0.071927
C196	C	0.818002	0.000225	-0.558511
C197	C	1.151335	0.333559	-0.225178
C198	C	1.484668	0.666892	0.108156
C199	C	0.814739	0.000223	0.219498
C200	C	1.148072	0.333556	0.552831
C201	C	1.481406	0.666890	0.886165
C202	C	0.815866	0.000230	0.296602
C203	C	1.149199	0.333564	0.629935
C204	C	1.482533	0.666897	0.963269
H205	H	0.593981	0.000184	0.211581
H206	H	0.927314	0.333518	0.544914
H207	H	1.260648	0.666851	0.878247
C208	C	0.815791	-0.139161	-0.707035
C209	C	1.149124	0.194172	-0.373701
C210	C	1.482458	0.527505	-0.040368
H211	H	0.816248	-0.178692	-0.675091
H212	H	1.149581	0.154641	-0.341758
H213	H	1.482915	0.487974	-0.008424
H214	H	0.855870	-0.141912	-0.740724
H215	H	1.189204	0.191421	-0.407390
H216	H	1.522537	0.524754	-0.074057
H217	H	0.774873	-0.141927	-0.729867
H218	H	1.108206	0.191407	-0.396534
H219	H	1.441540	0.524740	-0.063200
H220	H	0.266331	0.077637	0.003548
H221	H	0.599664	0.410970	0.336881
H222	H	0.932997	0.744304	0.670215
C223	C	0.818074	0.139608	-0.554860
C224	C	1.151408	0.472942	-0.221527
C225	C	1.484741	0.806275	0.111806
H226	H	0.818790	0.130101	-0.506529
H227	H	1.152124	0.463434	-0.173196
H228	H	1.485457	0.796768	0.160137
H229	H	0.777408	0.166871	-0.561301
H230	H	1.110741	0.500205	-0.227968
H231	H	1.444074	0.833538	0.105366
H232	H	0.858405	0.166890	-0.572156
H233	H	1.191738	0.500224	-0.238823
H234	H	1.525071	0.833557	0.094510
H235	H	0.745446	0.092455	-0.463321
H236	H	1.078779	0.425788	-0.129987
H237	H	1.412113	0.759121	0.203346
H238	H	0.734235	-0.335684	0.178392
H239	H	1.067569	-0.002351	0.511725
H240	H	1.400902	0.330982	0.845058
C241	C	0.919688	-0.185626	-0.006956
C242	C	1.253022	0.147708	0.326378
C243	C	1.586355	0.481041	0.659711
H244	H	0.947906	-0.219418	-0.035158
H245	H	1.281239	0.113915	0.298175
H246	H	1.614572	0.447248	0.631509
H247	H	0.948517	-0.155703	0.017953
H248	H	1.281851	0.177630	0.351286
H249	H	1.615184	0.510964	0.684620
H250	H	0.894787	-0.155751	-0.035812
H251	H	1.228121	0.177583	0.297522
H252	H	1.561454	0.510916	0.630855
H253	H	0.824424	-0.120225	-0.118369
H254	H	1.157757	0.213108	0.214965
H255	H	1.491090	0.546441	0.548298
C256	C	0.919737	-0.813886	-0.006944
C257	C	1.253070	-0.480552	0.326389
C258	C	1.586404	-0.147219	0.659723
H259	H	0.912950	-0.865023	-0.000168
H260	H	1.246283	-0.531689	0.333165
H261	H	1.579617	-0.198356	0.666499
H262	H	0.966066	-0.801303	0.000483
H263	H	1.299399	-0.467969	0.333816
H264	H	1.632733	-0.134636	0.667150
H265	H	0.912340	-0.801335	-0.053285
H266	H	1.245673	-0.468001	0.280048
H267	H	1.579006	-0.134668	0.613381
C268	C	0.919704	-0.346577	-0.006945
C269	C	1.253038	-0.013243	0.326389
C270	C	1.586371	0.320090	0.659722
H271	H	0.912919	-0.397713	-0.000162
H272	H	1.246252	-0.064379	0.333171
H273	H	1.579585	0.268954	0.666504
H274	H	0.966032	-0.333990	0.000485
H275	H	1.299365	-0.000656	0.333818
H276	H	1.632698	0.332677	0.667151
H277	H	0.912310	-0.334033	-0.053289
H278	H	1.245644	-0.000700	0.280045
H279	H	1.578977	0.332634	0.613378
H280	H	0.734214	-0.196635	0.178389
H281	H	1.067547	0.136699	0.511722
H282	H	1.400881	0.470032	0.845055
H283	H	0.824485	0.120625	-0.118335
H284	H	1.157818	0.453959	0.214999
H285	H	1.491152	0.787292	0.548332
H286	H	0.397755	0.077613	0.005473
H287	H	0.731088	0.410946	0.338807
H288	H	1.064421	0.744279	0.672140
C289	C	0.002890	0.000283	0.221031
C290	C	0.336224	0.333616	0.554365
C291	C	0.669557	0.666950	0.887698
H292	H	-0.044229	0.000283	0.211257
H293	H	0.289105	0.333617	0.544590
H294	H	0.622438	0.666950	0.877924
H295	H	0.011301	0.042746	0.247214
H296	H	0.344634	0.376080	0.580547
H297	H	0.677968	0.709413	0.913880
H298	H	0.011256	-0.042181	0.247217
H299	H	0.344590	0.291152	0.580550
H300	H	0.677923	0.624486	0.913883
H301	H	0.493322	0.000189	-0.020044
H302	H	0.826656	0.333522	0.313289
H303	H	1.159989	0.666855	0.646623
H304	H	0.906198	-0.663892	0.006586
H305	H	1.239531	-0.330559	0.339919
H306	H	1.572865	0.002774	0.673252
H307	H	0.734274	-0.802996	0.178404
H308	H	1.067608	-0.469663	0.511737
H309	H	1.400941	-0.136330	0.845070
C310	C	0.818032	-0.139163	-0.554911
C311	C	1.151365	0.194170	-0.221577
C312	C	1.484698	0.527503	0.111756
H313	H	0.817564	-0.178692	-0.586867
H314	H	1.150897	0.154641	-0.253534
H315	H	1.484231	0.487975	0.079800
H316	H	0.777951	-0.141936	-0.521223
H317	H	1.111285	0.191397	-0.187890
H318	H	1.444618	0.524730	0.145443
H319	H	0.858949	-0.141911	-0.532079
H320	H	1.192282	0.191423	-0.198745
H321	H	1.525615	0.524756	0.134588
C322	C	0.815835	0.139616	-0.706994
C323	C	1.149168	0.472949	-0.373661
C324	C	1.482501	0.806282	-0.040327
H325	H	0.816320	0.179144	-0.675040
H326	H	1.149653	0.512477	-0.341706
H327	H	1.482986	0.845811	-0.008373
H328	H	0.774923	0.142370	-0.729827
H329	H	1.108257	0.475703	-0.396494
H330	H	1.441590	0.809037	-0.063161
H331	H	0.855921	0.142382	-0.740682
H332	H	1.189254	0.475716	-0.407348
H333	H	1.522587	0.809049	-0.074015
C334	C	0.904507	-0.106559	-0.495037
C335	C	1.237840	0.226774	-0.161704
C336	C	1.571174	0.560108	0.171630
H337	H	0.897973	-0.099277	-0.542589
H338	H	1.231306	0.234057	-0.209256
H339	H	1.564640	0.567390	0.124078
H340	H	0.890347	-0.154738	-0.481244
H341	H	1.223681	0.178595	-0.147911
H342	H	1.557014	0.511929	0.185422
H343	H	0.952431	-0.100168	-0.489568
H344	H	1.285765	0.233165	-0.156235
H345	H	1.619098	0.566498	0.177098
H346	H	0.822546	0.120631	-0.249759
H347	H	1.155880	0.453964	0.083574
H348	H	1.489213	0.787297	0.416907
C349	C	0.038514	0.000270	-0.044841
C350	C	0.371847	0.333604	0.288493
C351	C	0.705181	0.666937	0.621826
H352	H	-0.011034	0.000287	-0.036485
H353	H	0.322299	0.333620	0.296849
H354	H	0.655633	0.666954	0.630182
H355	H	0.053847	-0.042192	-0.070683
H356	H	0.387181	0.291141	0.262651
H357	H	0.720514	0.624475	0.595984
H358	H	0.053895	0.042735	-0.070669
H359	H	0.387229	0.376069	0.262664
H360	H	0.720562	0.709402	0.595997
H361	H	0.734264	-0.663948	0.178404
H362	H	1.067598	-0.330615	0.511737
H363	H	1.400931	0.002719	0.845070
C364	C	0.906764	-0.106549	-0.342908
C365	C	1.240098	0.226784	-0.009575
C366	C	1.573431	0.560118	0.323758
H367	H	0.930529	-0.136820	-0.378109
H368	H	1.263863	0.196514	-0.044776
H369	H	1.597196	0.529847	0.288557
H370	H	0.877844	-0.135964	-0.310723
H371	H	1.211178	0.197369	0.022611
H372	H	1.544511	0.530702	0.355944
H373	H	0.939899	-0.081358	-0.319027
H374	H	1.273233	0.251975	0.014306
H375	H	1.606566	0.585308	0.347640
H376	H	0.822504	-0.120211	-0.249803
H377	H	1.155837	0.213122	0.083530
H378	H	1.489171	0.546455	0.416863
H379	H	0.177867	0.000239	-0.024674
H380	H	0.511200	0.333572	0.308660
H381	H	0.844533	0.666905	0.641993
H382	H	0.747377	0.092452	-0.331889
H383	H	1.080710	0.425785	0.001444
H384	H	1.414044	0.759118	0.334778
H385	H	0.147095	0.000255	0.205029
H386	H	0.480428	0.333588	0.538362
H387	H	0.813762	0.666921	0.871696
C388	C	0.382589	-0.089378	0.195438
C389	C	0.715922	0.243955	0.528772
C390	C	1.049256	0.577288	0.862105
H391	H	0.346760	-0.114786	0.223847
H392	H	0.680093	0.218547	0.557181
H393	H	1.013427	0.551881	0.890514
H394	H	0.407113	-0.058631	0.223900
H395	H	0.740446	0.274702	0.557233
H396	H	1.073780	0.608036	0.890566
H397	H	0.414046	-0.123689	0.171828
H398	H	0.747380	0.209645	0.505162
H399	H	1.080713	0.542978	0.838495
H400	H	0.462555	0.000198	0.209652
H401	H	0.795889	0.333531	0.542986
H402	H	1.129222	0.666865	0.876319
H403	H	0.242666	-0.077163	0.179506
H404	H	0.575999	0.256170	0.512839
H405	H	0.909332	0.589504	0.846173
H406	H	0.624757	0.000145	-0.018124
H407	H	0.958090	0.333479	0.315209
H408	H	1.291423	0.666812	0.648543
