data_functionalizedCrystal
_audit_creation_method	'MofGen! by Chris Wilmer'
_symmetry_space_group_name_H-M	'P1'
_symmetry_Int_Tables_number	1
_symmetry_cell_setting	triclinic
loop_
_symmetry_equiv_pos_as_xyz
  x,y,z
_cell_length_a	23.532407
_cell_length_b	10.489741
_cell_length_c	9.565339
_cell_angle_alpha	89.999484
_cell_angle_beta	90.001814
_cell_angle_gamma	96.306074
loop_
_atom_site_label
_atom_site_type_symbol
_atom_site_fract_x
_atom_site_fract_y
_atom_site_fract_z
O1	O	0.756285	-0.154816	-0.116085
O2	O	0.590570	-0.177218	-0.116126
O3	O	0.677199	0.019706	-0.116096
O4	O	0.669657	-0.351741	-0.116115
O5	O	0.677192	0.019694	0.116424
O6	O	0.590563	-0.177231	0.116394
O7	O	0.756278	-0.154829	0.116435
Zn8	Zn	0.673420	-0.166032	0.153332
Zn9	Zn	0.673429	-0.166015	-0.153023
O10	O	0.669650	-0.351753	0.116406
C11	C	0.569347	-0.176654	0.000129
C12	C	0.506119	-0.174939	0.000114
C13	C	0.676625	0.067213	0.000163
C14	C	0.674921	0.208785	0.000160
C15	C	0.670223	-0.399259	0.000143
C16	C	0.671927	-0.540832	0.000137
C17	C	0.107717	-0.280717	0.000172
C18	C	0.048306	-0.279124	0.000180
O19	O	0.012211	-0.377181	0.000226
N20	N	0.024904	-0.162052	0.000184
C21	C	0.060916	-0.046567	0.000193
O22	O	0.035555	0.053158	0.000198
C23	C	0.120326	-0.048161	0.000194
C24	C	0.143724	-0.165240	0.000177
C25	C	0.131116	-0.397786	0.000156
C26	C	0.190522	-0.399379	0.000144
C27	C	0.226530	-0.283902	0.000149
C28	C	0.203131	-0.166833	0.000165
C29	C	0.156337	0.067323	0.000213
C30	C	0.215750	0.065718	0.000216
C31	C	0.239148	-0.051361	0.000198
C32	C	0.298545	-0.052949	0.000159
N33	N	0.321947	-0.170020	0.000155
C34	C	0.285940	-0.285497	0.000151
C35	C	-0.063849	-0.043227	0.000192
C36	C	-0.123257	-0.041631	0.000181
C37	C	-0.135863	-0.274188	0.000171
C38	C	-0.076454	-0.275783	0.000173
C39	C	-0.040447	-0.160298	0.000189
C40	C	0.410699	-0.288833	0.000126
C41	C	0.470111	-0.290416	0.000109
C42	C	0.482712	-0.057859	0.000126
C43	C	0.423305	-0.056275	0.000136
C44	C	0.387299	-0.171773	0.000140
O45	O	0.334675	0.045057	0.000119
O46	O	0.311308	-0.385205	0.000164
C47	C	0.777502	-0.155393	0.000177
C48	C	0.840730	-0.157108	0.000184
N49	N	0.673418	-0.166042	0.362412
C50	C	0.619802	0.275093	0.000136
C51	C	0.645837	0.368075	0.114787
C52	C	0.645857	0.368062	-0.114459
C53	C	0.700978	0.299903	0.114906
C54	C	0.700991	0.299880	-0.114444
C55	C	0.727065	0.392836	0.000235
N56	N	0.673435	-0.165995	-0.362102
C57	C	0.633343	-0.257083	0.453601
C58	C	0.684905	-0.281179	0.546791
C59	C	0.621878	-0.141955	0.546777
C60	C	0.725006	-0.190195	0.453550
C61	C	0.661945	-0.050921	0.453527
C62	C	0.713544	-0.074968	0.546676
H63	H	0.489158	-0.385759	0.000093
C64	C	0.747996	-0.397019	0.682632
C65	C	0.698020	-0.412568	0.602117
H66	H	0.756090	-0.478137	0.716778
H67	H	0.742854	-0.341731	0.759151
H68	H	0.778940	-0.360664	0.626559
H69	H	0.667074	-0.448916	0.658193
H70	H	0.703159	-0.467878	0.525587
C71	C	0.102093	-0.595495	-0.119405
C72	C	0.091541	-0.524733	0.000137
H73	H	0.077662	-0.673869	-0.119426
H74	H	0.140822	-0.613175	-0.119390
H75	H	0.094942	-0.547435	-0.200473
H76	H	0.098697	-0.572789	0.081205
H77	H	0.052803	-0.507056	0.000135
H78	H	0.245065	0.159762	0.000230
H79	H	0.622530	0.398256	-0.211397
C80	C	0.404222	-0.518868	0.000087
C81	C	0.371127	-0.415789	0.000113
H82	H	0.379791	-0.597242	0.000063
H83	H	0.427655	-0.514658	0.081168
H84	H	0.427657	-0.514619	-0.081003
H85	H	0.347694	-0.420032	0.081209
H86	H	0.347684	-0.420001	-0.080975
C87	C	0.825858	-0.123068	0.446508
C88	C	0.783860	-0.217854	0.398467
H89	H	0.862187	-0.140151	0.412477
H90	H	0.826243	-0.123194	0.545801
H91	H	0.817633	-0.041577	0.413803
H92	H	0.792083	-0.299345	0.431180
H93	H	0.783477	-0.217741	0.299153
H94	H	0.652214	0.046382	0.412530
C95	C	0.747779	0.149201	0.552330
C96	C	0.759353	0.029001	0.601507
H97	H	0.776062	0.213380	0.586176
H98	H	0.711207	0.166489	0.584434
H99	H	0.748227	0.149257	0.453025
H100	H	0.758900	0.028942	0.700813
H101	H	0.795934	0.011709	0.569410
H102	H	-0.057407	-0.371119	0.000166
C103	C	0.569247	-0.002315	0.682571
C104	C	0.563031	-0.114466	0.602060
H105	H	0.532916	0.014640	0.716703
H106	H	0.585034	0.067503	0.626512
H107	H	0.594000	-0.013041	0.759114
H108	H	0.538281	-0.103737	0.525511
H109	H	0.547235	-0.184301	0.658122
C110	C	0.599805	-0.481553	0.445492
C111	C	0.587637	-0.361104	0.398409
H112	H	0.571592	-0.545771	0.411408
H113	H	0.599723	-0.482754	0.544782
H114	H	0.636348	-0.497830	0.412196
H115	H	0.551095	-0.344823	0.431715
H116	H	0.587713	-0.359900	0.299099
H117	H	0.724296	0.269615	-0.211367
H118	H	-0.165192	-0.368216	0.000174
H119	H	0.574484	0.223935	0.000241
H120	H	0.209568	-0.494717	0.000129
H121	H	-0.034534	0.050821	0.000193
H122	H	-0.142303	0.053707	0.000174
H123	H	0.137297	0.162661	0.000229
C124	C	0.566928	0.469755	0.204957
C125	C	0.614351	0.408900	0.245620
H126	H	0.547491	0.494960	0.285726
H127	H	0.541790	0.412226	0.150990
H128	H	0.579344	0.543365	0.150598
H129	H	0.601935	0.335284	0.299971
H130	H	0.639494	0.466432	0.299610
C131	C	0.363798	0.080445	-0.119374
C132	C	0.397580	0.072416	0.000142
H133	H	0.347923	0.159898	-0.119361
H134	H	0.333853	0.011907	-0.119359
H135	H	0.386713	0.074995	-0.200459
H136	H	0.374665	0.077856	0.081228
H137	H	0.427530	0.140972	0.000139
C138	C	0.579384	0.042932	0.000145
C139	C	0.522299	0.069069	0.000143
H140	H	0.603824	0.121294	0.000172
H141	H	0.586524	-0.005083	-0.080946
H142	H	0.586521	-0.005125	0.081225
H143	H	0.515162	0.117119	-0.080943
H144	H	0.515156	0.117105	0.081242
H145	H	0.772424	0.443768	0.000310
H146	H	0.724277	0.269840	0.211943
