data_functionalizedCrystal
_audit_creation_method	'MofGen! by Chris Wilmer'
_symmetry_space_group_name_H-M	'P1'
_symmetry_Int_Tables_number	1
_symmetry_cell_setting	triclinic
loop_
_symmetry_equiv_pos_as_xyz
  x,y,z
_cell_length_a	14.853566
_cell_length_b	15.944493
_cell_length_c	13.930277
_cell_angle_alpha	89.998682
_cell_angle_beta	90.004369
_cell_angle_gamma	83.554729
loop_
_atom_site_label
_atom_site_type_symbol
_atom_site_fract_x
_atom_site_fract_y
_atom_site_fract_z
O1	O	1.196204	0.109662	0.079755
O2	O	0.933724	0.122728	0.079769
O3	O	1.072159	-0.006075	0.079769
O4	O	1.057769	0.238465	0.079754
O5	O	1.072140	-0.006078	-0.079893
O6	O	0.933705	0.122725	-0.079893
O7	O	1.196185	0.109660	-0.079907
Zn8	Zn	1.064942	0.116192	-0.105250
Zn9	Zn	1.064967	0.116195	0.105111
O10	O	1.057750	0.238462	-0.079908
C11	C	0.900127	0.122134	-0.000060
C12	C	0.800046	0.120361	-0.000054
C13	C	0.376883	0.112861	0.086961
C14	C	0.376883	0.112859	-0.087108
C15	C	0.470915	0.114524	-0.087105
C16	C	0.517935	0.115360	-0.000068
C17	C	0.470923	0.114529	0.086967
C18	C	0.517932	0.115363	-0.174138
C19	C	0.611970	0.117029	-0.174139
C20	C	0.658992	0.117859	-0.087100
C21	C	0.611974	0.117028	-0.000062
C22	C	0.658994	0.117863	0.086975
C23	C	0.611979	0.117026	0.174015
C24	C	0.517945	0.115359	0.174006
C25	C	0.753026	0.119526	-0.087091
C26	C	0.753034	0.119531	0.086981
C27	C	1.071561	-0.037372	-0.000057
C28	C	1.069798	-0.130623	-0.000045
C29	C	1.151284	-0.366292	-0.000068
C30	C	1.107351	-0.416907	0.078656
C31	C	1.066531	-0.301347	-0.000057
C32	C	1.107312	-0.416886	-0.078758
C33	C	1.063381	-0.466260	-0.000072
C34	C	1.022621	-0.350734	0.078732
C35	C	1.022595	-0.350710	-0.078753
C36	C	0.978600	-0.401293	-0.000010
C37	C	1.068348	-0.206345	-0.000047
C38	C	1.061558	-0.561260	-0.000075
C39	C	1.229782	0.110253	-0.000076
C40	C	1.329863	0.112026	-0.000076
C41	C	1.058348	0.269759	-0.000079
C42	C	1.060111	0.363010	-0.000085
N43	N	1.064931	0.116189	-0.248816
C44	C	1.003666	0.173207	-0.701085
C45	C	1.126293	0.059177	-0.701054
C46	C	1.126283	0.059175	-0.600559
C47	C	1.064964	0.116190	-0.550322
C48	C	1.003655	0.173208	-0.600580
C49	C	1.187596	0.002164	-0.550293
C50	C	1.187588	0.002159	-0.449791
C51	C	1.126264	0.059171	-0.399552
C52	C	1.064953	0.116191	-0.449817
C53	C	1.003634	0.173206	-0.399580
C54	C	0.942317	0.230222	-0.449843
C55	C	0.942331	0.230219	-0.550342
C56	C	1.126250	0.059174	-0.299053
C57	C	1.003623	0.173207	-0.299075
N58	N	1.064985	0.116192	0.248678
H59	H	0.338600	0.112176	0.157827
H60	H	0.986825	-0.321790	-0.145307
C61	C	1.152751	-0.543405	0.167972
C62	C	1.155670	-0.455934	0.168501
H63	H	1.182580	-0.567493	0.223440
H64	H	1.182255	-0.566934	0.112079
H65	H	1.091438	-0.555109	0.168053
H66	H	1.216983	-0.444230	0.168412
H67	H	1.126169	-0.432397	0.224408
C68	C	0.976519	-0.224323	0.167907
C69	C	0.974363	-0.311891	0.168690
H70	H	0.946737	-0.200345	0.223449
H71	H	0.946613	-0.201088	0.112089
H72	H	1.037674	-0.212149	0.167668
H73	H	0.913207	-0.324065	0.168922
H74	H	1.004266	-0.335134	0.224523
C75	C	0.232735	0.110308	-0.164401
C76	C	0.325201	0.111945	-0.182776
H77	H	0.200829	0.109739	-0.223467
H78	H	0.210452	0.158978	-0.128650
H79	H	0.224215	0.061088	-0.128637
H80	H	0.333721	0.161168	-0.218534
H81	H	0.347491	0.063270	-0.218543
C82	C	1.343668	-0.046916	-0.581208
C83	C	1.254988	-0.060517	-0.605503
H84	H	1.385270	-0.085617	-0.615299
H85	H	1.352432	-0.055069	-0.514168
H86	H	1.353446	0.009159	-0.597696
H87	H	1.245208	-0.116590	-0.589009
H88	H	1.246221	-0.052371	-0.672558
C89	C	0.630799	0.189699	0.322378
C90	C	0.663672	0.117951	0.269683
H91	H	0.662719	0.190272	0.381435
H92	H	0.568078	0.188574	0.334840
H93	H	0.639320	0.238911	0.286601
H94	H	0.655145	0.068738	0.305458
H95	H	0.726407	0.119068	0.257224
C96	C	1.294003	-0.378608	0.082607
C97	C	1.249818	-0.345036	0.000055
H98	H	1.354825	-0.365467	0.082694
H99	H	1.293579	-0.438130	0.083162
H100	H	1.263575	-0.354981	0.137951
H101	H	1.280241	-0.368667	-0.055289
H102	H	1.250247	-0.285501	-0.000508
H103	H	0.892394	0.276648	-0.408928
H104	H	0.892410	0.276641	-0.591272
C105	C	1.112132	-0.421169	-0.250994
C106	C	1.155633	-0.455885	-0.168606
H107	H	1.141966	-0.445250	-0.306457
H108	H	1.114103	-0.361834	-0.251324
H109	H	1.050825	-0.432894	-0.251082
H110	H	1.216938	-0.444155	-0.168515
H111	H	1.153671	-0.515235	-0.168276
H112	H	0.905539	-0.416840	0.000037
C113	C	0.499119	0.042705	-0.322507
C114	C	0.466246	0.114448	-0.269804
H115	H	0.467208	0.042143	-0.381570
H116	H	0.490594	-0.006506	-0.286746
H117	H	0.561850	0.043830	-0.334961
H118	H	0.403516	0.113319	-0.257343
H119	H	0.474763	0.163671	-0.305573
H120	H	0.953740	0.219626	-0.742012
C121	C	1.145862	-0.055087	-0.185995
C122	C	1.193654	-0.003468	-0.243787
H123	H	1.187482	-0.093752	-0.151869
H124	H	1.108375	-0.085391	-0.225201
H125	H	1.109329	-0.021124	-0.141709
H126	H	1.230182	-0.037431	-0.288079
H127	H	1.231156	0.026838	-0.204578
H128	H	0.479657	0.114676	0.244868
C129	C	0.756114	0.119575	-0.251428
C130	C	0.663647	0.117939	-0.269809
H131	H	0.788016	0.120139	-0.310492
H132	H	0.778399	0.070908	-0.215667
H133	H	0.764638	0.168798	-0.215672
H134	H	0.655122	0.068713	-0.305558
H135	H	0.641355	0.166611	-0.305585
H136	H	0.953686	0.219632	-0.258178
H137	H	0.791300	0.120216	-0.157957
H138	H	1.176222	0.012761	-0.741961
H139	H	1.237514	-0.044266	-0.408873
C140	C	0.897182	0.122090	0.164286
C141	C	0.804716	0.120447	0.182657
H142	H	0.929087	0.122650	0.223354
H143	H	0.905701	0.171306	0.128533
H144	H	0.919470	0.073416	0.128526
H145	H	0.782427	0.169124	0.218411
H146	H	0.796192	0.071226	0.218425
