data_functionalizedCrystal
_audit_creation_method	'MofGen! by Chris Wilmer'
_symmetry_space_group_name_H-M	'P1'
_symmetry_Int_Tables_number	1
_symmetry_cell_setting	triclinic
loop_
_symmetry_equiv_pos_as_xyz
  x,y,z
_cell_length_a	18.215407
_cell_length_b	12.594516
_cell_length_c	18.215399
_cell_angle_alpha	89.977894
_cell_angle_beta	89.980167
_cell_angle_gamma	90.016501
loop_
_atom_site_label
_atom_site_type_symbol
_atom_site_fract_x
_atom_site_fract_y
_atom_site_fract_z
Zn1	Zn	1.125117	-0.423740	-0.416146
Zn2	Zn	1.125045	-0.601738	-0.293092
Zn3	Zn	1.002050	-0.423775	-0.293093
Zn4	Zn	1.002035	-0.601679	-0.416117
O5	O	1.063561	-0.512733	-0.354612
O6	O	1.228092	-0.447362	-0.399834
O7	O	1.108705	-0.578170	-0.190108
O8	O	1.018412	-0.274825	-0.309429
O9	O	1.228038	-0.578136	-0.309427
O10	O	1.108829	-0.274799	-0.399835
O11	O	1.018341	-0.447422	-0.190109
O12	O	0.899063	-0.447364	-0.309401
O13	O	1.018386	-0.578035	-0.519105
O14	O	0.899052	-0.578069	-0.399786
O15	O	1.108814	-0.447305	-0.519126
O16	O	1.108690	-0.750676	-0.309399
O17	O	1.018315	-0.750632	-0.399785
C18	C	0.872355	-0.512715	-0.354591
C19	C	0.790556	-0.512733	-0.354599
C20	C	0.602376	-0.580898	-0.401604
C21	C	0.525517	-0.580901	-0.401613
C22	C	0.525499	-0.444588	-0.307636
C23	C	0.602356	-0.444580	-0.307631
C24	C	0.640793	-0.512741	-0.354614
C25	C	0.487077	-0.512752	-0.354628
C26	C	0.403743	-0.512755	-0.354638
C27	C	0.724132	-0.512737	-0.354606
C28	C	1.063513	-0.789274	-0.354605
C29	C	1.063560	-0.907579	-0.354626
C30	C	1.014400	-0.976847	-0.403753
C31	C	0.996471	-1.047706	-0.336600
C32	C	1.081556	-1.047520	-0.421791
C33	C	1.045595	-0.976880	-0.287438
C34	C	1.130712	-0.976687	-0.372674
C35	C	1.112808	-1.047514	-0.305475
C36	C	1.255514	-0.512752	-0.354634
C37	C	1.337313	-0.512760	-0.354643
C38	C	1.063606	-0.512660	-0.546565
C39	C	1.063625	-0.512628	-0.628364
C40	C	1.063630	-0.235112	-0.354635
C41	C	1.063659	-0.116807	-0.354645
C42	C	1.110728	-0.444493	-0.816570
C43	C	1.110737	-0.444462	-0.893429
C44	C	1.016575	-0.580599	-0.893396
C45	C	1.016563	-0.580624	-0.816538
C46	C	1.063644	-0.512572	-0.778127
C47	C	1.063664	-0.512517	-0.931844
C48	C	1.063674	-0.512483	-1.015177
C49	C	1.063634	-0.512604	-0.694788
C50	C	1.063559	-0.512729	-0.163406
C51	C	1.063683	-0.512461	-0.081607
H52	H	0.633668	-0.636396	-0.439862
O53	O	0.639760	-0.378517	-0.261945
C54	C	0.726467	-0.364016	-0.162571
C55	C	0.684167	-0.438949	-0.214270
H56	H	0.762368	-0.412845	-0.124002
H57	H	0.762521	-0.308437	-0.196381
H58	H	0.685781	-0.315283	-0.129022
H59	H	0.724800	-0.487750	-0.247830
H60	H	0.648102	-0.494457	-0.180418
H61	H	0.494241	-0.636400	-0.439878
O62	O	1.099715	-1.084360	-0.489577
C63	C	1.132202	-1.039807	-0.614084
C64	C	1.111671	-0.997948	-0.537347
H65	H	1.141859	-0.969965	-0.652732
H66	H	1.184364	-1.089490	-0.610199
H67	H	1.085527	-1.090971	-0.636142
H68	H	1.158298	-0.946740	-0.515244
H69	H	1.059486	-0.948323	-0.541277
H70	H	0.494195	-0.389095	-0.269384
H71	H	0.972753	-0.945818	-0.445237
H72	H	0.939728	-1.078924	-0.321350
O73	O	1.027382	-0.939846	-0.219717
C74	C	1.006941	-0.786101	-0.143721
C75	C	1.027563	-0.827899	-0.220449
H76	H	1.007095	-0.695587	-0.144283
H77	H	0.949898	-0.815911	-0.128231
H78	H	1.048618	-0.815872	-0.101825
H79	H	0.985936	-0.798145	-0.262396
H80	H	1.084624	-0.798098	-0.235876
H81	H	1.154423	-1.078347	-0.263891
H82	H	1.187442	-0.945472	-0.387956
O83	O	1.156404	-0.378362	-0.930886
C84	C	1.198178	-0.318016	-1.049301
C85	C	1.146412	-0.392918	-1.006974
H86	H	1.190128	-0.329774	-1.110826
H87	H	1.185268	-0.232174	-1.034246
H88	H	1.257506	-0.336700	-1.034159
H89	H	1.087066	-0.374330	-1.022094
H90	H	1.159385	-0.478738	-1.022033
H91	H	0.978244	-0.636006	-0.924679
H92	H	1.149063	-0.389079	-0.785298
H93	H	0.978215	-0.636061	-0.785237
