data_functionalizedCrystal
_audit_creation_method	'MofGen! by Chris Wilmer'
_symmetry_space_group_name_H-M	'P1'
_symmetry_Int_Tables_number	1
_symmetry_cell_setting	triclinic
loop_
_symmetry_equiv_pos_as_xyz
  x,y,z
_cell_length_a	23.532407
_cell_length_b	10.654562
_cell_length_c	22.010155
_cell_angle_alpha	90.011354
_cell_angle_beta	90.000423
_cell_angle_gamma	83.669390
loop_
_atom_site_label
_atom_site_type_symbol
_atom_site_fract_x
_atom_site_fract_y
_atom_site_fract_z
O1	O	0.080011	1.665306	0.050572
O2	O	0.087624	1.299588	0.050565
O3	O	0.000958	1.493475	0.050558
O4	O	0.166677	1.471419	0.050579
O5	O	0.000971	1.493440	-0.050493
O6	O	0.087637	1.299553	-0.050485
O7	O	0.080024	1.665271	-0.050478
Cu8	Cu	0.083832	1.482409	-0.059708
Cu9	Cu	0.083817	1.482450	0.059795
O10	O	0.166690	1.471384	-0.050471
C11	C	0.087070	1.252791	0.000039
C12	C	0.085393	1.113401	0.000036
C13	C	0.084618	1.047876	-0.055042
C14	C	0.083047	0.916904	-0.055032
C15	C	0.083029	0.916992	0.055138
C16	C	0.084596	1.047964	0.055128
C17	C	0.085416	1.113314	-0.110134
C18	C	0.084641	1.047789	-0.165217
C19	C	0.083070	0.916816	-0.165207
C20	C	0.082274	0.851369	-0.110114
C21	C	-0.020255	1.492896	0.000031
C22	C	-0.083483	1.491207	0.000026
C23	C	-0.481905	1.595354	0.000061
C24	C	-0.541316	1.593785	0.000066
O25	O	-0.577430	1.690330	0.000090
N26	N	-0.564696	1.478520	0.000063
C27	C	-0.528661	1.364815	0.000062
O28	O	-0.554002	1.266629	0.000061
C29	C	-0.469252	1.366385	0.000062
C30	C	-0.445876	1.481658	0.000059
C31	C	-0.458529	1.710618	0.000059
C32	C	-0.399122	1.712186	0.000053
C33	C	-0.363093	1.598490	0.000050
C34	C	-0.386469	1.483227	0.000053
C35	C	-0.433218	1.252682	0.000066
C36	C	-0.373806	1.254262	0.000066
C37	C	-0.350430	1.369535	0.000062
C38	C	-0.291033	1.371099	0.000044
N39	N	-0.267654	1.486365	0.000047
C40	C	-0.303683	1.600060	0.000050
C41	C	-0.653425	1.361527	0.000064
C42	C	-0.712833	1.359955	0.000060
C43	C	-0.725484	1.588926	0.000065
C44	C	-0.666075	1.590496	0.000064
C45	C	-0.630046	1.476792	0.000067
C46	C	-0.178925	1.603345	0.000037
C47	C	-0.119513	1.604903	0.000029
C48	C	-0.106867	1.375933	0.000027
C49	C	-0.166274	1.374374	0.000032
C50	C	-0.202302	1.488091	0.000039
O51	O	-0.254885	1.274605	0.000023
O52	O	-0.278334	1.698231	0.000059
C53	C	0.187904	1.471963	0.000057
C54	C	0.251132	1.473652	0.000066
C55	C	0.080578	1.712068	0.000049
C56	C	0.082255	1.851458	0.000056
N57	N	0.083842	1.482389	-0.143761
C58	C	0.045446	1.568309	-0.563544
C59	C	0.045443	1.568314	-0.627151
O60	O	0.012804	1.641316	-0.660046
N61	N	0.083805	1.482450	-0.658968
C62	C	0.122169	1.396565	-0.627174
O63	O	0.154799	1.323530	-0.660077
C64	C	0.122170	1.396554	-0.563568
C65	C	0.083809	1.482433	-0.531754
C66	C	0.007088	1.654179	-0.531730
C67	C	0.007093	1.654175	-0.468127
C68	C	0.045456	1.568299	-0.436337
C69	C	0.083814	1.482428	-0.468151
C70	C	0.160531	1.310665	-0.531775
C71	C	0.160529	1.310661	-0.468164
C72	C	0.122168	1.396540	-0.436350
C73	C	0.122182	1.396548	-0.372758
N74	N	0.083819	1.482413	-0.340941
C75	C	0.045457	1.568288	-0.372731
C76	C	0.122164	1.396593	-0.760752
C77	C	0.122167	1.396609	-0.824357
C78	C	0.045439	1.568357	-0.824330
C79	C	0.045440	1.568346	-0.760724
C80	C	0.083802	1.482458	-0.728935
C81	C	0.045470	1.568273	-0.239159
C82	C	0.045480	1.568264	-0.175551
C83	C	0.122205	1.396512	-0.175583
C84	C	0.122198	1.396525	-0.239187
C85	C	0.083825	1.482410	-0.270973
O86	O	0.154802	1.323581	-0.339823
O87	O	0.012828	1.641300	-0.339820
N88	N	0.083802	1.482481	0.143848
H89	H	-0.100484	1.698776	0.000025
H90	H	0.082382	0.863695	0.099992
H91	H	0.082435	0.863470	-0.210057
H92	H	0.153441	1.326597	-0.149690
H93	H	-0.624093	1.268929	0.000061
H94	H	-0.208253	1.695944	0.000045
Br95	Br	-0.367407	1.868637	0.000065
Br96	Br	0.174268	1.279989	-0.282360
H97	H	0.085230	1.101315	0.099977
Br98	Br	0.080122	0.673625	-0.110102
H99	H	-0.487859	1.803208	0.000063
H100	H	0.085286	1.101086	-0.210071
H101	H	-0.647046	1.684362	0.000062
Br102	Br	0.212595	1.194110	-0.574937
H103	H	-0.185308	1.280509	0.000018
Br104	Br	-0.464927	1.096230	0.000073
H105	H	0.014201	1.638280	-0.850225
H106	H	-0.754831	1.681503	0.000069
H107	H	-0.731860	1.266088	0.000052
H108	H	-0.077521	1.283365	0.000023
H109	H	-0.344473	1.161668	0.000068
H110	H	0.014242	1.638201	-0.149650
H111	H	0.014223	1.638207	-0.265033
H112	H	-0.024145	1.724101	-0.442228
H113	H	-0.024154	1.724109	-0.557608
H114	H	0.014203	1.638275	-0.734825
H115	H	0.153410	1.326692	-0.850255
Br116	Br	0.174236	1.280027	-0.717616
H117	H	0.086697	1.219958	-0.110148
Br118	Br	0.212593	1.194085	-0.425027
