data_functionalizedCrystal
_audit_creation_method	'MofGen! by Chris Wilmer'
_symmetry_space_group_name_H-M	'P1'
_symmetry_Int_Tables_number	1
_symmetry_cell_setting	triclinic
loop_
_symmetry_equiv_pos_as_xyz
  x,y,z
_cell_length_a	15.944493
_cell_length_b	15.944493
_cell_length_c	14.421503
_cell_angle_alpha	90.010165
_cell_angle_beta	89.992936
_cell_angle_gamma	83.475044
loop_
_atom_site_label
_atom_site_type_symbol
_atom_site_fract_x
_atom_site_fract_y
_atom_site_fract_z
O1	O	1.114537	0.108091	-0.077087
O2	O	1.447870	0.441425	0.256246
O3	O	1.781204	0.774758	0.589580
O4	O	0.869978	0.121499	-0.077090
O5	O	1.203311	0.454832	0.256243
O6	O	1.536645	0.788166	0.589577
O7	O	0.998961	-0.007484	-0.077096
O8	O	1.332295	0.325849	0.256237
O9	O	1.665628	0.659182	0.589570
O10	O	0.985554	0.237075	-0.077081
O11	O	1.318887	0.570408	0.256252
O12	O	1.652221	0.903741	0.589586
O13	O	0.998940	-0.007465	0.077127
O14	O	1.332273	0.325868	0.410461
O15	O	1.665607	0.659202	0.743794
O16	O	0.869957	0.121518	0.077133
O17	O	1.203290	0.454851	0.410467
O18	O	1.536623	0.788185	0.743800
O19	O	1.114516	0.108111	0.077136
O20	O	1.447849	0.441444	0.410470
O21	O	1.781182	0.774777	0.743803
Cu22	Cu	0.992234	0.114816	0.091217
Cu23	Cu	1.325568	0.448149	0.424550
Cu24	Cu	1.658901	0.781483	0.757883
Cu25	Cu	0.992260	0.114793	-0.091170
Cu26	Cu	1.325593	0.448127	0.242163
Cu27	Cu	1.658926	0.781460	0.575496
O28	O	0.985532	0.237094	0.077142
O29	O	1.318866	0.570427	0.410476
O30	O	1.652199	0.903761	0.743809
C31	C	0.838673	0.120961	0.000021
C32	C	1.172006	0.454294	0.333354
C33	C	1.505339	0.787627	0.666688
C34	C	0.745424	0.119318	0.000019
C35	C	1.078758	0.452651	0.333352
C36	C	1.412091	0.785984	0.666686
C37	C	0.509649	0.195240	0.000023
C38	C	0.842982	0.528574	0.333357
C39	C	1.176315	0.861907	0.666690
C40	C	0.459088	0.154308	0.076065
C41	C	0.792422	0.487641	0.409398
C42	C	1.125755	0.820974	0.742732
C43	C	0.574704	0.116273	0.000021
C44	C	0.908037	0.449607	0.333354
C45	C	1.241371	0.782940	0.666687
C46	C	0.459114	0.154270	-0.075987
C47	C	0.792447	0.487603	0.257346
C48	C	1.125781	0.820937	0.590679
C49	C	0.409795	0.113339	0.000018
C50	C	0.743128	0.446672	0.333352
C51	C	1.076462	0.780006	0.666685
C52	C	0.525372	0.075362	0.076125
C53	C	0.858705	0.408696	0.409459
C54	C	1.192039	0.742029	0.742792
C55	C	0.525401	0.075336	-0.075995
C56	C	0.858734	0.408669	0.257338
C57	C	1.192068	0.742003	0.590671
C58	C	0.474873	0.034346	0.000065
C59	C	0.808207	0.367679	0.333398
C60	C	1.141540	0.701012	0.666732
C61	C	0.669704	0.117966	0.000023
C62	C	1.003037	0.451300	0.333356
C63	C	1.336370	0.784633	0.666690
C64	C	0.314798	0.111640	0.000023
C65	C	0.648132	0.444973	0.333356
C66	C	0.981465	0.778307	0.666689
C67	C	0.998403	-0.038769	0.000011
C68	C	1.331736	0.294564	0.333345
C69	C	1.665069	0.627897	0.666678
C70	C	0.996760	-0.132018	-0.000000
C71	C	1.330093	0.201316	0.333333
C72	C	1.663426	0.534649	0.666666
C73	C	1.072682	-0.367793	0.000018
C74	C	1.406016	-0.034460	0.333352
C75	C	1.739349	0.298873	0.666685
C76	C	1.031751	-0.418362	-0.076022
C77	C	1.365084	-0.085029	0.257311
C78	C	1.698417	0.248304	0.590645
C79	C	0.993716	-0.302738	0.000011
C80	C	1.327049	0.030595	0.333344
C81	C	1.660382	0.363929	0.666678
C82	C	1.031711	-0.418320	0.076030
C83	C	1.365045	-0.084986	0.409364
C84	C	1.698378	0.248347	0.742697
C85	C	0.990781	-0.467647	0.000026
C86	C	1.324114	-0.134314	0.333359
C87	C	1.657448	0.199020	0.666693
C88	C	0.952805	-0.352079	-0.076092
C89	C	1.286139	-0.018746	0.257241
C90	C	1.619472	0.314588	0.590575
C91	C	0.952777	-0.352033	0.076029
C92	C	1.286111	-0.018699	0.409362
C93	C	1.619444	0.314634	0.742695
C94	C	0.911788	-0.402569	-0.000030
C95	C	1.245121	-0.069235	0.333303
C96	C	1.578454	0.264098	0.666636
C97	C	0.995408	-0.207739	0.000002
C98	C	1.328742	0.125595	0.333335
C99	C	1.662075	0.458928	0.666668
C100	C	0.989082	-0.562644	0.000029
C101	C	1.322415	-0.229311	0.333362
C102	C	1.655749	0.104023	0.666695
C103	C	1.145821	0.108649	0.000023
C104	C	1.479154	0.441982	0.333357
C105	C	1.812488	0.775316	0.666690
C106	C	1.239069	0.110292	0.000019
C107	C	1.572403	0.443625	0.333352
C108	C	1.905736	0.776959	0.666686
C109	C	0.986091	0.268379	0.000033
C110	C	1.319424	0.601712	0.333366
C111	C	1.652758	0.935046	0.666699
C112	C	0.987734	0.361627	0.000038
C113	C	1.321067	0.694961	0.333372
C114	C	1.654401	1.028294	0.666705
N115	N	0.992223	0.114832	0.219498
N116	N	1.325556	0.448165	0.552831
N117	N	1.658889	0.781498	0.886165
N118	N	0.992278	0.114771	-0.219452
N119	N	1.325611	0.448105	0.113882
N120	N	1.658945	0.781438	0.447215
C121	C	0.932570	0.174447	0.469154
C122	C	1.265904	0.507780	0.802488
C123	C	1.599237	0.841113	1.135821
C124	C	1.008469	0.190739	0.530959
C125	C	1.341802	0.524072	0.864293
C126	C	1.675136	0.857405	1.197626
C127	C	0.992243	0.114812	0.408659
C128	C	1.325576	0.448145	0.741993
C129	C	1.658910	0.781478	1.075326
C130	C	0.916364	0.098539	0.530948
C131	C	1.249697	0.431873	0.864282
C132	C	1.583031	0.765206	1.197615
C133	C	0.992256	0.114794	0.591381
C134	C	1.325589	0.448127	0.924714
C135	C	1.658923	0.781461	1.258047
C136	C	1.068180	0.131141	0.469103
C137	C	1.401513	0.464475	0.802437
C138	C	1.734847	0.797808	1.135770
C139	C	0.976025	0.038909	0.469087
C140	C	1.309358	0.372242	0.802420
C141	C	1.642692	0.705576	1.135754
C142	C	1.051979	0.055169	0.530864
C143	C	1.385312	0.388502	0.864197
C144	C	1.718645	0.721835	1.197531
C145	C	0.992234	0.114824	0.303398
C146	C	1.325568	0.448157	0.636732
C147	C	1.658901	0.781490	0.970065
C148	C	0.992273	0.114781	0.696640
C149	C	1.325607	0.448115	1.029973
C150	C	1.658940	0.781448	1.363306
H151	H	0.459422	-0.033727	0.000104
H152	H	0.792755	0.299606	0.333438
H153	H	1.126088	0.632940	0.666771
H154	H	1.132369	0.144974	0.442052
H155	H	1.465702	0.478307	0.775385
H156	H	1.799036	0.811640	1.108719
Br157	Br	1.136184	-0.028905	0.575749
Br158	Br	1.469517	0.304428	0.909082
Br159	Br	1.802851	0.637761	1.242416
H160	H	0.554198	0.042042	0.140476
H161	H	0.887531	0.375375	0.473810
H162	H	1.220864	0.708708	0.807143
H163	H	0.554363	0.042005	-0.140289
H164	H	0.887696	0.375338	0.193044
H165	H	1.221029	0.708671	0.526377
Br166	Br	1.186051	-0.341766	-0.000101
Br167	Br	1.519384	-0.008432	0.333232
Br168	Br	1.852717	0.324901	0.666566
H169	H	0.852189	0.084784	0.558116
H170	H	1.185522	0.418117	0.891450
H171	H	1.518856	0.751451	1.224783
H172	H	0.525258	0.263261	0.000099
H173	H	0.858592	0.596595	0.333432
H174	H	1.191925	0.929928	0.666765
Br175	Br	0.798330	-0.428326	-0.000095
Br176	Br	1.131664	-0.094993	0.333239
Br177	Br	1.464997	0.238340	0.666572
Br178	Br	1.087346	-0.466634	-0.183171
Br179	Br	1.420679	-0.133301	0.150163
Br180	Br	1.754012	0.200033	0.483496
H181	H	0.430177	0.187627	-0.140266
H182	H	0.763511	0.520960	0.193068
H183	H	1.096844	0.854294	0.526401
H184	H	0.962272	-0.025252	0.441889
H185	H	1.295605	0.308081	0.775222
H186	H	1.628939	0.641415	1.108555
Br187	Br	0.897244	-0.303713	0.183183
Br188	Br	1.230578	0.029620	0.516516
Br189	Br	1.563911	0.362953	0.849849
Br190	Br	0.848546	0.258565	0.423987
Br191	Br	1.181880	0.591898	0.757321
Br192	Br	1.515213	0.925231	1.090654
H193	H	0.430135	0.187664	0.140356
H194	H	0.763468	0.520998	0.473689
H195	H	1.096802	0.854331	0.807022
Br196	Br	0.897270	-0.304053	-0.183357
Br197	Br	1.230603	0.029281	0.149976
Br198	Br	1.563936	0.362614	0.483309
H199	H	1.065067	-0.447250	0.140312
H200	H	1.398401	-0.113916	0.473645
H201	H	1.731734	0.219417	0.806979
Br202	Br	1.031356	0.297710	0.576255
Br203	Br	1.364690	0.631043	0.909589
Br204	Br	1.698023	0.964377	1.242922
