data_functionalizedCrystal
_audit_creation_method	'MofGen! by Chris Wilmer'
_symmetry_space_group_name_H-M	'P1'
_symmetry_Int_Tables_number	1
_symmetry_cell_setting	triclinic
loop_
_symmetry_equiv_pos_as_xyz
  x,y,z
_cell_length_a	8.597340
_cell_length_b	9.065218
_cell_length_c	8.140239
_cell_angle_alpha	89.998670
_cell_angle_beta	82.299373
_cell_angle_gamma	94.826720
loop_
_atom_site_label
_atom_site_type_symbol
_atom_site_fract_x
_atom_site_fract_y
_atom_site_fract_z
O1	O	2.085538	-0.220241	-0.158597
O2	O	2.585538	0.279759	0.341403
O3	O	1.628850	-0.237136	-0.093951
O4	O	2.128850	0.262864	0.406049
O5	O	1.866634	-0.014064	-0.127614
O6	O	2.366634	0.485936	0.372386
O7	O	1.847754	-0.443313	-0.124935
O8	O	2.347754	0.056687	0.375065
O9	O	1.866626	-0.014062	-0.400840
O10	O	2.366626	0.485938	0.099160
O11	O	1.628842	-0.237134	-0.367177
O12	O	2.128842	0.262866	0.132823
O13	O	2.085531	-0.220239	-0.431823
O14	O	2.585531	0.279761	0.068177
Zn15	Zn	1.857185	-0.228686	-0.442881
Zn16	Zn	2.357185	0.271314	0.057119
Zn17	Zn	1.857195	-0.228689	-0.082894
Zn18	Zn	2.357195	0.271311	0.417106
O19	O	1.847747	-0.443312	-0.398161
O20	O	2.347747	0.056688	0.101839
C21	C	1.570349	-0.235321	-0.222284
C22	C	2.070349	0.264679	0.277716
C23	C	1.396047	-0.229896	-0.197610
C24	C	1.896047	0.270104	0.302390
C25	C	1.864815	0.040927	-0.263967
C26	C	2.364815	0.540927	0.236033
C27	C	1.859390	0.204780	-0.263191
C28	C	2.359390	0.704780	0.236809
C29	C	2.144031	-0.222054	-0.303487
C30	C	2.644031	0.277946	0.196513
C31	C	2.318333	-0.227479	-0.328149
C32	C	2.818333	0.272521	0.171851
C33	C	1.849565	-0.498302	-0.261803
C34	C	2.349565	0.001698	0.238197
C35	C	1.854990	-0.662155	-0.262568
C36	C	2.354990	-0.162155	0.237432
N37	N	1.857190	-0.228684	-0.688564
N38	N	2.357190	0.271316	-0.188564
N39	N	1.857203	-0.228679	0.162788
N40	N	2.357203	0.271321	0.662788
H41	H	1.329228	-0.227815	-0.066960
H42	H	1.829228	0.272185	0.433040
H43	H	1.385146	-0.229549	-0.458791
H44	H	1.885146	0.270451	0.041209
