data_functionalizedCrystal
_audit_creation_method	'MofGen! by Chris Wilmer'
_symmetry_space_group_name_H-M	'P1'
_symmetry_Int_Tables_number	1
_symmetry_cell_setting	triclinic
loop_
_symmetry_equiv_pos_as_xyz
  x,y,z
_cell_length_a	18.215407
_cell_length_b	12.759399
_cell_length_c	12.759393
_cell_angle_alpha	90.026988
_cell_angle_beta	89.977112
_cell_angle_gamma	89.985209
loop_
_atom_site_label
_atom_site_type_symbol
_atom_site_fract_x
_atom_site_fract_y
_atom_site_fract_z
Zn1	Zn	1.125148	0.418203	-0.594100
Zn2	Zn	1.125073	0.593918	-0.418431
Zn3	Zn	1.002074	0.418255	-0.418430
Zn4	Zn	1.002069	0.593842	-0.594062
O5	O	1.063591	0.506055	-0.506256
O6	O	1.228122	0.441522	-0.570814
O7	O	1.108727	0.570670	-0.271410
O8	O	1.018434	0.271227	-0.441748
O9	O	1.228067	0.570619	-0.441751
O10	O	1.108856	0.271189	-0.570812
O11	O	1.018361	0.441612	-0.271409
O12	O	0.899089	0.441537	-0.441711
O13	O	1.018425	0.570489	-0.741089
O14	O	0.899086	0.570540	-0.570748
O15	O	1.108851	0.441448	-0.741116
O16	O	1.108722	0.740929	-0.441714
O17	O	1.018352	0.740873	-0.570749
C18	C	0.872385	0.506037	-0.506226
C19	C	0.790586	0.506054	-0.506238
C20	C	1.063548	0.779022	-0.506251
C21	C	1.063598	0.895799	-0.506284
C22	C	1.063646	0.505954	-0.780289
C23	C	1.063670	0.505911	-0.897066
C24	C	0.602409	0.573331	-0.573343
C25	C	0.525551	0.573335	-0.573356
C26	C	0.525525	0.438797	-0.439192
C27	C	0.602382	0.438789	-0.439185
C28	C	0.640822	0.506062	-0.506259
C29	C	0.487106	0.506073	-0.506279
C30	C	0.403773	0.506076	-0.506293
C31	C	0.724161	0.506058	-0.506247
C32	C	1.255544	0.506073	-0.506287
C33	C	1.337343	0.506081	-0.506300
C34	C	1.110751	1.060386	-0.439213
C35	C	1.110706	0.950662	-0.439173
C36	C	1.016525	0.950665	-0.573431
C37	C	1.016566	1.060387	-0.573464
C38	C	1.063654	1.232021	-0.506299
C39	C	1.063683	1.115245	-0.506357
C40	C	1.110758	0.438708	-0.951944
C41	C	1.110770	0.438663	-1.061668
C42	C	1.016604	0.573032	-1.061627
C43	C	1.016589	0.573071	-0.951904
C44	C	1.063578	0.506079	-0.233289
C45	C	1.063698	0.505826	-0.116512
H46	H	0.494278	0.628111	-0.627984
H47	H	0.978164	0.905989	-0.628070
H48	H	1.149032	0.905999	-0.384497
C49	C	0.594643	0.305808	-0.306555
C50	C	0.644612	0.364844	-0.365436
H51	H	0.620715	0.260164	-0.261027
H52	H	0.564687	0.265675	-0.352395
H53	H	0.564645	0.351550	-0.266297
H54	H	0.674606	0.319102	-0.405701
H55	H	0.674580	0.404980	-0.319591
H56	H	0.494217	0.384027	-0.384581
C57	C	0.980715	0.750917	-1.095374
C58	C	0.964860	0.646860	-1.121907
H59	H	0.948767	0.796496	-1.132583
H60	H	1.030154	0.766284	-1.113371
H61	H	0.973963	0.760543	-1.022171
H62	H	0.971617	0.637232	-1.195109
H63	H	0.915408	0.631488	-1.103917
C64	C	0.594712	0.706304	-0.705970
C65	C	0.644664	0.647265	-0.647081
H66	H	0.620798	0.751941	-0.751500
H67	H	0.564718	0.746444	-0.660135
H68	H	0.564752	0.660563	-0.746227
H69	H	0.674621	0.693006	-0.606818
H70	H	0.674671	0.607122	-0.692922
C71	C	1.203834	1.049358	-0.306492
C72	C	1.162534	1.120687	-0.365439
H73	H	1.235798	1.086586	-0.260941
H74	H	1.231951	1.006499	-0.352290
H75	H	1.171758	1.006628	-0.266256
H76	H	1.194610	1.163412	-0.405682
H77	H	1.134414	1.163564	-0.319636
H78	H	0.978235	1.105054	-0.628143
C79	C	1.203830	0.305877	-0.963011
C80	C	1.162500	0.364876	-0.891665
H81	H	1.235770	0.260290	-0.925796
H82	H	1.231976	0.351639	-1.005805
H83	H	1.171772	0.265677	-1.005805
H84	H	1.194559	0.405083	-0.848876
H85	H	1.134353	0.319109	-0.848852
H86	H	1.149113	0.383938	-1.106345
H87	H	0.978239	0.627794	-0.907221
