data_functionalizedCrystal
_audit_creation_method	'MofGen! by Chris Wilmer'
_symmetry_space_group_name_H-M	'P1'
_symmetry_Int_Tables_number	1
_symmetry_cell_setting	triclinic
loop_
_symmetry_equiv_pos_as_xyz
  x,y,z
_cell_length_a	21.295417
_cell_length_b	17.077404
_cell_length_c	17.077404
_cell_angle_alpha	89.994054
_cell_angle_beta	90.017027
_cell_angle_gamma	89.969268
loop_
_atom_site_label
_atom_site_type_symbol
_atom_site_fract_x
_atom_site_fract_y
_atom_site_fract_z
Zn1	Zn	-0.250706	-1.199908	0.443817
Zn2	Zn	0.082627	-0.866575	0.777150
Zn3	Zn	0.415961	-0.533241	1.110483
Zn4	Zn	-0.355949	-1.199829	0.312540
Zn5	Zn	-0.022616	-0.866495	0.645873
Zn6	Zn	0.310717	-0.533162	0.979207
Zn7	Zn	-0.250698	-1.068671	0.312565
Zn8	Zn	0.082635	-0.735338	0.645898
Zn9	Zn	0.415968	-0.402004	0.979231
Zn10	Zn	-0.355942	-1.068590	0.443764
Zn11	Zn	-0.022608	-0.735257	0.777097
Zn12	Zn	0.310725	-0.401924	1.110430
O13	O	-0.303324	-1.134249	0.378171
O14	O	0.030010	-0.800916	0.711505
O15	O	0.363343	-0.467583	1.044838
O16	O	-0.264673	-1.309744	0.426414
O17	O	0.068660	-0.976411	0.759748
O18	O	0.401994	-0.643078	1.093081
O19	O	-0.341987	-1.182431	0.202696
O20	O	-0.008654	-0.849098	0.536030
O21	O	0.324679	-0.515764	0.869363
O22	O	-0.162610	-1.086147	0.330008
O23	O	0.170723	-0.752813	0.663342
O24	O	0.504057	-0.419480	0.996675
O25	O	-0.341995	-1.309686	0.329966
O26	O	-0.008662	-0.976353	0.663299
O27	O	0.324672	-0.643019	0.996633
O28	O	-0.162615	-1.182566	0.426438
O29	O	0.170718	-0.849233	0.759772
O30	O	0.504051	-0.515899	1.093105
O31	O	-0.264660	-1.086070	0.202715
O32	O	0.068673	-0.752736	0.536048
O33	O	0.402007	-0.419403	0.869381
O34	O	-0.264653	-0.958813	0.329957
O35	O	0.068681	-0.625480	0.663290
O36	O	0.402014	-0.292147	0.996623
O37	O	-0.341982	-1.086009	0.553617
O38	O	-0.008648	-0.752676	0.886951
O39	O	0.324685	-0.419343	1.220284
O40	O	-0.341974	-0.958754	0.426348
O41	O	-0.008641	-0.625421	0.759681
O42	O	0.324692	-0.292087	1.093014
O43	O	-0.264666	-1.182488	0.553657
O44	O	0.068668	-0.849155	0.886990
O45	O	0.402001	-0.515821	1.220323
O46	O	-0.444038	-1.182353	0.329914
O47	O	-0.110704	-0.849019	0.663248
O48	O	0.222629	-0.515686	0.996581
O49	O	-0.444032	-1.085932	0.426324
O50	O	-0.110699	-0.752599	0.759657
O51	O	0.222635	-0.419266	1.092990
C52	C	-0.303312	-0.930302	0.378150
C53	C	0.030021	-0.596968	0.711483
C54	C	0.363354	-0.263635	1.044816
C55	C	-0.303323	-0.843052	0.378159
C56	C	0.030011	-0.509718	0.711492
C57	C	0.363344	-0.176385	1.044826
C58	C	-0.466875	-1.134147	0.378128
C59	C	-0.133542	-0.800813	0.711461
C60	C	0.199791	-0.467480	1.044794
C61	C	-0.536843	-1.134174	0.378135
C62	C	-0.203510	-0.800841	0.711469
C63	C	0.129823	-0.467508	1.044802
C64	C	-0.303324	-1.134249	0.582915
C65	C	0.030010	-0.800915	0.916249
C66	C	0.363343	-0.467582	1.249582
C67	C	-0.303324	-1.134248	0.670165
C68	C	0.030010	-0.800915	1.003499
C69	C	0.363343	-0.467581	1.336832
C70	C	-0.569692	-1.184425	0.327987
C71	C	-0.236359	-0.851092	0.661320
C72	C	0.096975	-0.517758	0.994653
C73	C	-0.635435	-1.184462	0.328004
C74	C	-0.302101	-0.851128	0.661338
C75	C	0.031232	-0.517795	0.994671
C76	C	-0.668326	-1.134234	0.378162
C77	C	-0.334993	-0.800901	0.711496
C78	C	-0.001659	-0.467567	1.044829
C79	C	-0.635469	-1.083980	0.428321
C80	C	-0.302136	-0.750646	0.761654
C81	C	0.031197	-0.417313	1.094988
C82	C	-0.569728	-1.083950	0.428308
C83	C	-0.236395	-0.750617	0.761641
C84	C	0.096939	-0.417283	1.094974
N85	N	-0.771593	-1.065564	0.384139
N86	N	-0.438260	-0.732230	0.717473
N87	N	-0.104927	-0.398897	1.050806
N88	N	-0.834045	-1.065594	0.384148
N89	N	-0.500711	-0.732261	0.717481
N90	N	-0.167378	-0.398928	1.050814
C91	C	-0.866401	-1.134322	0.378207
C92	C	-0.533067	-0.800989	0.711541
C93	C	-0.199734	-0.467655	1.044874
N94	N	-0.833946	-1.203019	0.372243
N95	N	-0.500613	-0.869686	0.705577
N96	N	-0.167279	-0.536353	1.038910
N97	N	-0.771489	-1.202988	0.372231
N98	N	-0.438155	-0.869655	0.705564
N99	N	-0.104822	-0.536321	1.038898
C100	C	-0.739611	-1.134261	0.378183
C101	C	-0.406278	-0.800928	0.711516
C102	C	-0.072945	-0.467594	1.044850
C103	C	-0.970535	-1.184617	0.328075
C104	C	-0.637202	-0.851283	0.661408
C105	C	-0.303868	-0.517950	0.994742
C106	C	-1.036279	-1.184655	0.328098
C107	C	-0.702945	-0.851321	0.661432
C108	C	-0.369612	-0.517988	0.994765
C109	C	-1.036312	-1.084166	0.428411
C110	C	-0.702979	-0.750832	0.761744
C111	C	-0.369645	-0.417499	1.095078
C112	C	-0.970570	-1.084135	0.428392
C113	C	-0.637236	-0.750801	0.761725
C114	C	-0.303903	-0.417468	1.095059
C115	C	-0.937685	-1.134359	0.378220
C116	C	-0.604352	-0.801026	0.711553
C117	C	-0.271018	-0.467692	1.044887
C118	C	-0.139133	-1.134374	0.378232
C119	C	0.194200	-0.801041	0.711565
C120	C	0.527533	-0.467707	1.044899
C121	C	-0.069165	-1.134427	0.378258
C122	C	0.264168	-0.801094	0.711591
C123	C	0.597501	-0.467761	1.044925
C124	C	-0.303336	-1.338994	0.378193
C125	C	0.029998	-1.005660	0.711527
C126	C	0.363331	-0.672327	1.044860
C127	C	-0.303341	-1.426243	0.378203
C128	C	0.029993	-1.092910	0.711536
C129	C	0.363326	-0.759577	1.044870
C130	C	-0.343645	-0.802051	0.428269
C131	C	-0.010311	-0.468718	0.761603
C132	C	0.323022	-0.135385	1.094936
C133	C	-0.343646	-0.720071	0.428282
C134	C	-0.010313	-0.386738	0.761615
C135	C	0.323021	-0.053404	1.094949
C136	C	-0.303328	-0.679092	0.378179
C137	C	0.030005	-0.345759	0.711513
C138	C	0.363339	-0.012426	1.044846
C139	C	-0.263001	-0.720099	0.328067
C140	C	0.070332	-0.386765	0.661400
C141	C	0.403665	-0.053432	0.994734
C142	C	-0.262997	-0.802078	0.328059
C143	C	0.070336	-0.468744	0.661392
C144	C	0.403669	-0.135411	0.994726
C145	C	-0.263014	-0.549229	0.328086
C146	C	0.070320	-0.215895	0.661419
C147	C	0.403653	0.117438	0.994752
C148	C	-0.263019	-0.467244	0.328093
C149	C	0.070315	-0.133911	0.661426
C150	C	0.403648	0.199423	0.994759
C151	C	-0.343663	-0.467222	0.428309
C152	C	-0.010329	-0.133889	0.761642
C153	C	0.323004	0.199445	1.094975
C154	C	-0.343659	-0.549201	0.428301
C155	C	-0.010325	-0.215868	0.761634
C156	C	0.323008	0.117466	1.094967
C157	C	-0.303333	-0.590201	0.378187
C158	C	0.030001	-0.256868	0.711520
C159	C	0.363334	0.076465	1.044854
C160	C	-0.263064	-1.084080	0.711164
C161	C	0.070269	-0.750747	1.044498
C162	C	0.403602	-0.417413	1.377831
C163	C	-0.263069	-1.084077	0.793145
C164	C	0.070264	-0.750743	1.126478
C165	C	0.403597	-0.417410	1.459811
C166	C	-0.303331	-1.134246	0.834125
C167	C	0.030002	-0.800913	1.167458
C168	C	0.363335	-0.467579	1.500791
C169	C	-0.343595	-1.184416	0.793120
C170	C	-0.010262	-0.851083	1.126453
C171	C	0.323071	-0.517749	1.459787
C172	C	-0.343593	-1.184415	0.711141
C173	C	-0.010259	-0.851082	1.044474
C174	C	0.323074	-0.517748	1.377808
C175	C	-0.343597	-1.184416	0.963990
C176	C	-0.010263	-0.851083	1.297323
C177	C	0.323070	-0.517750	1.630657
C178	C	-0.343598	-1.184419	1.045975
C179	C	-0.010265	-0.851085	1.379308
C180	C	0.323068	-0.517752	1.712641
C181	C	-0.263073	-1.084078	1.045994
C182	C	0.070260	-0.750745	1.379327
C183	C	0.403593	-0.417411	1.712660
C184	C	-0.263071	-1.084077	0.964015
C185	C	0.070263	-0.750744	1.297348
C186	C	0.403596	-0.417410	1.630681
C187	C	-0.303334	-1.134248	0.923016
C188	C	0.029999	-0.800915	1.256349
C189	C	0.363333	-0.467582	1.589682
C190	C	-0.303338	-1.134246	1.174223
C191	C	0.029995	-0.800913	1.507557
C192	C	0.363329	-0.467579	1.840890
C193	C	-0.303339	-1.134251	1.086974
C194	C	0.029994	-0.800917	1.420307
C195	C	0.363328	-0.467584	1.753640
H196	H	-0.542919	-1.225322	0.287135
H197	H	-0.209586	-0.891989	0.620469
H198	H	0.123747	-0.558656	0.953802
Br199	Br	-0.680025	-1.252664	0.259940
Br200	Br	-0.346692	-0.919331	0.593274
Br201	Br	-0.013358	-0.585997	0.926607
H202	H	-0.230289	-1.043228	1.079379
H203	H	0.103045	-0.709894	1.412712
H204	H	0.436378	-0.376561	1.746046
Br205	Br	-1.080943	-1.016006	0.496493
Br206	Br	-0.747610	-0.682673	0.829826
Br207	Br	-0.414276	-0.349339	1.163159
Br208	Br	-0.398234	-1.252514	1.101590
Br209	Br	-0.064901	-0.919180	1.434924
Br210	Br	0.268432	-0.585847	1.768257
H211	H	-0.376481	-0.686692	0.469086
H212	H	-0.043148	-0.353359	0.802419
H213	H	0.290186	-0.020025	1.135753
Br214	Br	-0.398383	-0.411580	0.496331
Br215	Br	-0.065049	-0.078247	0.829664
Br216	Br	0.268284	0.255087	1.162997
H217	H	-0.230171	-0.582609	0.287285
H218	H	0.103163	-0.249275	0.620618
H219	H	0.436496	0.084058	0.953951
Br220	Br	-0.208277	-0.664486	0.260077
Br221	Br	0.125056	-0.331152	0.593411
Br222	Br	0.458389	0.002181	0.926744
H223	H	-0.376493	-0.582563	0.469094
H224	H	-0.043159	-0.249230	0.802427
H225	H	0.290174	0.084103	1.135761
Br226	Br	-0.398244	-1.252502	0.908349
Br227	Br	-0.064911	-0.919169	1.241682
Br228	Br	0.268423	-0.585835	1.575015
H229	H	-1.063023	-1.225580	0.287262
H230	H	-0.729690	-0.892246	0.620596
H231	H	-0.396356	-0.558913	0.953929
H232	H	-0.230289	-1.043222	0.826522
H233	H	0.103045	-0.709889	1.159856
H234	H	0.436378	-0.376555	1.493189
H235	H	-0.376381	-1.225261	0.826492
H236	H	-0.043047	-0.891927	1.159826
H237	H	0.290286	-0.558594	1.493159
H238	H	-0.230181	-0.433881	0.287304
H239	H	0.103153	-0.100548	0.620638
H240	H	0.436486	0.232785	0.953971
H241	H	-0.376371	-1.225273	0.677761
H242	H	-0.043038	-0.891939	1.011094
H243	H	0.290295	-0.558606	1.344427
H244	H	-0.542982	-1.043029	0.469146
H245	H	-0.209649	-0.709696	0.802479
H246	H	0.123685	-0.376363	1.135812
Br247	Br	-0.680106	-1.015819	0.496400
Br248	Br	-0.346772	-0.682486	0.829733
Br249	Br	-0.013439	-0.349152	1.163067
Br250	Br	-0.925902	-1.252774	0.259984
Br251	Br	-0.592569	-0.919440	0.593317
Br252	Br	-0.259235	-0.586107	0.926650
Br253	Br	-0.925986	-1.015932	0.496453
Br254	Br	-0.592653	-0.682598	0.829787
Br255	Br	-0.259319	-0.349265	1.163120
Br256	Br	-0.398370	-0.857657	0.496263
Br257	Br	-0.065037	-0.524324	0.829597
Br258	Br	0.268297	-0.190991	1.162930
H259	H	-0.230275	-1.043231	0.677804
H260	H	0.103059	-0.709898	1.011138
H261	H	0.436392	-0.376564	1.344471
Br262	Br	-0.208269	-0.857722	0.260054
Br263	Br	0.125065	-0.524389	0.593387
Br264	Br	0.458398	-0.191055	0.926720
Br265	Br	-0.208423	-1.015997	0.908399
Br266	Br	0.124910	-0.682664	1.241732
Br267	Br	0.458244	-0.349330	1.575066
