data_functionalizedCrystal
_audit_creation_method	'MofGen! by Chris Wilmer'
_symmetry_space_group_name_H-M	'P1'
_symmetry_Int_Tables_number	1
_symmetry_cell_setting	triclinic
loop_
_symmetry_equiv_pos_as_xyz
  x,y,z
_cell_length_a	16.109301
_cell_length_b	16.109301
_cell_length_c	14.586319
_cell_angle_alpha	90.005214
_cell_angle_beta	90.000787
_cell_angle_gamma	83.461481
loop_
_atom_site_label
_atom_site_type_symbol
_atom_site_fract_x
_atom_site_fract_y
_atom_site_fract_z
O1	O	-1.103131	-0.106866	-0.076185
O2	O	-0.853131	0.143134	0.173815
O3	O	-0.603131	0.393134	0.423815
O4	O	-0.353131	0.643134	0.673815
O5	O	-0.861069	-0.120165	-0.076200
O6	O	-0.611069	0.129835	0.173800
O7	O	-0.361069	0.379835	0.423800
O8	O	-0.111069	0.629835	0.673800
O9	O	-0.988749	0.007515	-0.076183
O10	O	-0.738749	0.257515	0.173817
O11	O	-0.488749	0.507515	0.423817
O12	O	-0.238749	0.757515	0.673817
O13	O	-0.975450	-0.234547	-0.076203
O14	O	-0.725450	0.015453	0.173797
O15	O	-0.475450	0.265453	0.423797
O16	O	-0.225450	0.515453	0.673797
O17	O	-0.988741	0.007517	0.076298
O18	O	-0.738741	0.257517	0.326298
O19	O	-0.488741	0.507517	0.576298
O20	O	-0.238741	0.757517	0.826298
O21	O	-0.861060	-0.120164	0.076281
O22	O	-0.611060	0.129836	0.326281
O23	O	-0.361060	0.379836	0.576281
O24	O	-0.111060	0.629836	0.826281
O25	O	-1.103122	-0.106864	0.076295
O26	O	-0.853122	0.143136	0.326295
O27	O	-0.603122	0.393136	0.576295
O28	O	-0.353122	0.643136	0.826295
Cu29	Cu	-0.982090	-0.113514	0.090211
Cu30	Cu	-0.732090	0.136486	0.340211
Cu31	Cu	-0.482090	0.386486	0.590211
Cu32	Cu	-0.232090	0.636486	0.840211
Cu33	Cu	-0.982101	-0.113516	-0.090115
Cu34	Cu	-0.732101	0.136484	0.159885
Cu35	Cu	-0.482101	0.386484	0.409885
Cu36	Cu	-0.232101	0.636484	0.659885
O37	O	-0.975441	-0.234545	0.076278
O38	O	-0.725441	0.015455	0.326278
O39	O	-0.475441	0.265455	0.576278
O40	O	-0.225441	0.515455	0.826278
C41	C	-0.830090	-0.119626	0.000038
C42	C	-0.580090	0.130374	0.250038
C43	C	-0.330090	0.380374	0.500038
C44	C	-0.080090	0.630374	0.750038
C45	C	-0.737794	-0.118011	0.000033
C46	C	-0.487794	0.131989	0.250033
C47	C	-0.237794	0.381989	0.500033
C48	C	0.012206	0.631989	0.750033
C49	C	-0.988206	0.038491	0.000058
C50	C	-0.738206	0.288491	0.250058
C51	C	-0.488206	0.538491	0.500058
C52	C	-0.238206	0.788491	0.750058
C53	C	-0.986591	0.130786	0.000059
C54	C	-0.736591	0.380786	0.250059
C55	C	-0.486591	0.630786	0.500059
C56	C	-0.236591	0.880786	0.750059
C57	C	-1.134101	-0.107404	0.000055
C58	C	-0.884101	0.142596	0.250055
C59	C	-0.634101	0.392596	0.500055
C60	C	-0.384101	0.642596	0.750055
C61	C	-1.226397	-0.109019	0.000054
C62	C	-0.976397	0.140981	0.250054
C63	C	-0.726397	0.390981	0.500054
C64	C	-0.476397	0.640981	0.750054
C65	C	-0.975984	-0.265521	0.000035
C66	C	-0.725984	-0.015521	0.250035
C67	C	-0.475984	0.234479	0.500035
C68	C	-0.225984	0.484479	0.750035
C69	C	-0.977600	-0.357816	0.000028
C70	C	-0.727600	-0.107816	0.250028
C71	C	-0.477600	0.142184	0.500028
C72	C	-0.227600	0.392184	0.750028
C73	C	-0.515522	-0.190018	0.000038
C74	C	-0.265522	0.059982	0.250038
C75	C	-0.015522	0.309982	0.500038
C76	C	0.234478	0.559982	0.750038
C77	C	-0.428801	-0.188494	0.000044
C78	C	-0.178801	0.061506	0.250044
C79	C	0.071199	0.311506	0.500044
C80	C	0.321199	0.561506	0.750044
C81	C	-0.448676	-0.037006	0.000052
C82	C	-0.198676	0.212994	0.250052
C83	C	0.051324	0.462994	0.500052
C84	C	0.301324	0.712994	0.750052
C85	C	-0.535394	-0.038530	0.000053
C86	C	-0.285394	0.211470	0.250053
C87	C	-0.035394	0.461470	0.500053
C88	C	0.214606	0.711470	0.750053
C89	C	-0.568815	-0.115039	0.000041
C90	C	-0.318815	0.134961	0.250041
C91	C	-0.068815	0.384961	0.500041
C92	C	0.181185	0.634961	0.750041
C93	C	-0.395376	-0.111990	0.000046
C94	C	-0.145376	0.138010	0.250046
C95	C	0.104624	0.388010	0.500046
C96	C	0.354624	0.638010	0.750046
C97	C	-0.301350	-0.110337	0.000053
C98	C	-0.051350	0.139663	0.250053
C99	C	0.198650	0.389663	0.500053
C100	C	0.448650	0.639663	0.750053
C101	C	-0.662847	-0.116693	0.000036
C102	C	-0.412847	0.133307	0.250036
C103	C	-0.162847	0.383307	0.500036
C104	C	0.087153	0.633307	0.750036
N105	N	-0.982089	-0.113512	0.217042
N106	N	-0.732089	0.136488	0.467042
N107	N	-0.482089	0.386488	0.717042
N108	N	-0.232089	0.636488	0.967042
C109	C	-1.058599	0.353059	0.000049
C110	C	-0.808599	0.603059	0.250049
C111	C	-0.558599	0.853059	0.500049
C112	C	-0.308599	1.103059	0.750049
C113	C	-1.057075	0.439779	0.000041
C114	C	-0.807075	0.689779	0.250041
C115	C	-0.557075	0.939779	0.500041
C116	C	-0.307075	1.189779	0.750041
C117	C	-0.905586	0.419905	0.000036
C118	C	-0.655586	0.669905	0.250036
C119	C	-0.405586	0.919905	0.500036
C120	C	-0.155586	1.169905	0.750036
C121	C	-0.907111	0.333186	0.000037
C122	C	-0.657111	0.583186	0.250037
C123	C	-0.407111	0.833186	0.500037
C124	C	-0.157111	1.083186	0.750037
C125	C	-0.983620	0.299766	0.000048
C126	C	-0.733620	0.549766	0.250048
C127	C	-0.483620	0.799766	0.500048
C128	C	-0.233620	1.049766	0.750048
C129	C	-0.980571	0.473205	0.000039
C130	C	-0.730571	0.723205	0.250039
C131	C	-0.480571	0.973205	0.500039
C132	C	-0.230571	1.223205	0.750039
C133	C	-0.978918	0.567231	0.000031
C134	C	-0.728918	0.817231	0.250031
C135	C	-0.478918	1.067231	0.500031
C136	C	-0.228918	1.317231	0.750031
C137	C	-0.985273	0.205734	0.000055
C138	C	-0.735273	0.455734	0.250055
C139	C	-0.485273	0.705734	0.500055
C140	C	-0.235273	0.955734	0.750055
N141	N	-0.982109	-0.113511	-0.216947
N142	N	-0.732109	0.136489	0.033053
N143	N	-0.482109	0.386489	0.283053
N144	N	-0.232109	0.636489	0.533053
C145	C	-1.038644	-0.056994	0.452057
C146	C	-0.788644	0.193006	0.702057
C147	C	-0.538644	0.443006	0.952057
C148	C	-0.288644	0.693006	1.202057
C149	C	-1.038647	-0.056992	0.548038
C150	C	-0.788647	0.193008	0.798038
C151	C	-0.538647	0.443008	1.048038
C152	C	-0.288647	0.693008	1.298038
C153	C	-0.925547	-0.170032	0.548032
C154	C	-0.675547	0.079968	0.798032
C155	C	-0.425547	0.329968	1.048032
C156	C	-0.175547	0.579968	1.298032
C157	C	-0.925541	-0.170030	0.452052
C158	C	-0.675541	0.079970	0.702052
C159	C	-0.425541	0.329970	0.952052
C160	C	-0.175541	0.579970	1.202052
C161	C	-0.982095	-0.113511	0.404067
C162	C	-0.732095	0.136489	0.654067
C163	C	-0.482095	0.386489	0.904067
C164	C	-0.232095	0.636489	1.154067
C165	C	-0.982103	-0.113512	0.596028
C166	C	-0.732103	0.136488	0.846028
C167	C	-0.482103	0.386488	1.096028
C168	C	-0.232103	0.636488	1.346028
C169	C	-0.982105	-0.113510	0.700095
C170	C	-0.732105	0.136490	0.950095
C171	C	-0.482105	0.386490	1.200095
C172	C	-0.232105	0.636490	1.450095
C173	C	-0.982092	-0.113512	0.299993
C174	C	-0.732092	0.136488	0.549993
C175	C	-0.482092	0.386488	0.799993
C176	C	-0.232092	0.636488	1.049993
H177	H	-0.542730	-0.252317	0.000035
H178	H	-0.292730	-0.002317	0.250035
H179	H	-0.042730	0.247683	0.500035
H180	H	0.207270	0.497683	0.750035
H181	H	-0.578788	0.022530	0.000058
H182	H	-0.328788	0.272530	0.250058
H183	H	-0.078788	0.522530	0.500058
H184	H	0.171212	0.772530	0.750058
F185	F	-0.865363	-0.230182	0.599107
F186	F	-0.615363	0.019818	0.849107
F187	F	-0.365363	0.269818	1.099107
F188	F	-0.115363	0.519818	1.349107
F189	F	-0.372086	-0.268298	0.000042
F190	F	-0.122086	-0.018298	0.250042
F191	F	0.127914	0.231702	0.500042
F192	F	0.377914	0.481702	0.750042
F193	F	-1.140026	0.317493	0.000060
F194	F	-0.890026	0.567493	0.250060
F195	F	-0.640026	0.817493	0.500060
F196	F	-0.390026	1.067493	0.750060
H197	H	-0.879487	-0.216053	0.412977
H198	H	-0.629487	0.033947	0.662977
H199	H	-0.379487	0.283947	0.912977
H200	H	-0.129487	0.533947	1.162977
F201	F	-0.413100	0.044416	0.000061
F202	F	-0.163100	0.294416	0.250061
F203	F	0.086900	0.544416	0.500061
F204	F	0.336900	0.794416	0.750061
F205	F	-1.136878	0.496495	0.000040
F206	F	-0.886878	0.746495	0.250040
F207	F	-0.636878	0.996495	0.500040
F208	F	-0.386878	1.246495	0.750040
H209	H	-0.843295	0.447127	0.000028
H210	H	-0.593295	0.697127	0.250028
H211	H	-0.343295	0.947127	0.500028
H212	H	-0.093295	1.197127	0.750028
H213	H	-0.846050	0.289792	0.000033
H214	H	-0.596050	0.539792	0.250033
H215	H	-0.346050	0.789792	0.500033
H216	H	-0.096050	1.039792	0.750033
F217	F	-1.098832	0.003160	0.400991
F218	F	-0.848832	0.253160	0.650991
F219	F	-0.598832	0.503160	0.900991
F220	F	-0.348832	0.753160	1.150991
F221	F	-1.098833	0.003164	0.599108
F222	F	-0.848833	0.253164	0.849108
F223	F	-0.598833	0.503164	1.099108
F224	F	-0.348833	0.753164	1.349108
