data_functionalizedCrystal
_audit_creation_method	'MofGen! by Chris Wilmer'
_symmetry_space_group_name_H-M	'P1'
_symmetry_Int_Tables_number	1
_symmetry_cell_setting	triclinic
loop_
_symmetry_equiv_pos_as_xyz
  x,y,z
_cell_length_a	17.038272
_cell_length_b	15.538191
_cell_length_c	14.750779
_cell_angle_alpha	97.569385
_cell_angle_beta	103.577494
_cell_angle_gamma	110.808175
loop_
_atom_site_label
_atom_site_type_symbol
_atom_site_fract_x
_atom_site_fract_y
_atom_site_fract_z
O1	O	0.958420	-0.218635	-0.079698
O2	O	0.731682	-0.215466	-0.079727
O3	O	0.889186	-0.083457	-0.079712
O4	O	0.800915	-0.350643	-0.079714
O5	O	0.933709	-0.046145	0.079943
O6	O	0.776205	-0.178153	0.079928
O7	O	1.002943	-0.181322	0.079956
Zn8	Zn	0.896643	-0.173813	0.105291
Zn9	Zn	0.837982	-0.222974	-0.105061
O10	O	0.845439	-0.313330	0.079941
C11	C	0.725633	-0.193921	0.000097
C12	C	0.641281	-0.185306	0.000086
C13	C	0.568730	-0.264430	0.000086
C14	C	0.489481	-0.256323	0.000099
C15	C	0.482783	-0.169094	0.000106
C16	C	0.555343	-0.089964	0.000108
C17	C	0.634592	-0.098070	0.000102
C18	C	0.245150	-0.140459	0.000131
C19	C	0.165892	-0.132360	0.000135
C20	C	0.100036	-0.298720	0.000128
C21	C	0.179288	-0.306819	0.000116
C22	C	0.251843	-0.227687	0.000123
C23	C	0.401777	-0.160807	0.000116
C24	C	0.332848	-0.235974	0.000120
C25	C	0.920682	-0.030446	0.000114
C26	C	0.948190	0.071922	0.000108
C27	C	1.008991	-0.202867	0.000131
C28	C	1.093341	-0.211484	0.000135
C29	C	0.813942	-0.366342	0.000114
C30	C	0.786433	-0.468711	0.000113
C31	C	0.674891	0.381611	0.000094
C32	C	0.700760	0.477805	0.000099
C33	C	0.846268	0.488591	0.000117
C34	C	0.820409	0.392395	0.000107
C35	C	0.734720	0.338912	0.000097
C36	C	0.880238	0.349697	0.000110
C37	C	0.854383	0.253510	0.000105
C38	C	0.768698	0.200022	0.000097
C39	C	0.708864	0.242726	0.000092
C40	C	0.965929	0.403183	0.000127
C41	C	1.025758	0.360485	0.000130
C42	C	0.999901	0.264295	0.000118
C43	C	0.914216	0.210806	0.000110
C44	C	1.059735	0.221591	0.000123
C45	C	1.033879	0.125404	0.000118
C46	C	0.888361	0.114620	0.000105
N47	N	0.936684	-0.140262	0.248850
N48	N	0.797949	-0.256519	-0.248621
C49	C	0.686133	-0.350182	0.600644
C50	C	0.714195	-0.326678	0.701146
C51	C	0.853673	-0.209833	0.701122
C52	C	0.825621	-0.233324	0.600618
C53	C	0.741851	-0.303500	0.550387
C54	C	0.881339	-0.186641	0.550361
C55	C	0.853291	-0.210134	0.449866
C56	C	0.769525	-0.280310	0.399628
C57	C	0.713803	-0.326993	0.449892
C58	C	0.965112	-0.116470	0.600594
C59	C	1.020830	-0.069788	0.550337
C60	C	0.992780	-0.093276	0.449840
C61	C	0.909014	-0.163451	0.399602
C62	C	1.048502	-0.046593	0.399576
C63	C	1.020454	-0.070086	0.299081
C64	C	0.880966	-0.186944	0.299107
H65	H	0.184730	-0.377852	0.000099
H66	H	0.304217	-0.076024	0.000139
H67	H	0.916038	0.532151	0.000130
H68	H	0.652037	0.512568	0.000111
N69	N	0.411261	-0.341690	0.000118
H70	H	0.360379	-0.355902	-0.059054
H71	H	0.393510	-0.328160	0.059353
H72	H	0.693665	-0.033639	0.000101
H73	H	1.065826	-0.032073	0.258162
H74	H	1.129506	0.265153	0.000141
H75	H	0.986976	0.481502	0.000122
H76	H	0.605112	0.338060	0.000078
H77	H	0.574174	-0.335461	0.000080
N78	N	1.098406	0.079344	0.000126
H79	H	1.156612	0.127819	0.000131
H80	H	1.074340	0.025839	-0.059060
H81	H	1.116712	0.010539	0.440488
N82	N	0.394543	-0.066732	0.000104
H83	H	0.452527	-0.017833	0.000097
H84	H	0.379610	-0.045913	0.059292
H85	H	0.338307	-0.306994	0.000120
N86	N	0.623449	-0.402680	0.395702
H87	H	0.587970	-0.374487	0.354011
H88	H	0.592475	-0.428663	0.442846
H89	H	0.818582	0.071069	0.000089
N90	N	1.118179	0.418173	0.000150
H91	H	1.125483	0.485587	0.000156
H92	H	1.128927	0.389888	-0.059034
H93	H	0.746691	-0.299440	0.317799
N94	N	0.790607	-0.262627	0.244923
H95	H	0.785729	-0.324624	0.262410
H96	H	0.781353	-0.270340	0.173652
N97	N	0.595775	-0.425863	0.546455
H98	H	0.564728	-0.451871	0.593540
H99	H	0.601838	-0.478697	0.504756
H100	H	0.040956	-0.363143	0.000123
H101	H	0.747649	0.121702	0.000098
N102	N	0.654099	-0.377039	0.755354
H103	H	0.596778	-0.425061	0.708280
H104	H	0.641954	-0.329303	0.797058
H105	H	0.160446	-0.061325	0.000139
N106	N	0.616437	0.185027	0.000065
H107	H	0.582453	0.226668	0.000058
H108	H	0.619043	0.158712	0.059247
N109	N	0.944024	-0.134150	0.755302
H110	H	0.953340	-0.126351	0.826592
H111	H	0.948836	-0.072201	0.737736
N112	N	0.995362	-0.091133	0.708986
H113	H	1.008769	-0.021994	0.733192
H114	H	1.050213	-0.103138	0.733105
H115	H	0.549887	-0.018937	0.000127
N116	N	1.111181	0.005895	0.604517
H117	H	1.120497	0.013694	0.675807
H118	H	1.115992	0.067843	0.586951
