data_functionalizedCrystal
_audit_creation_method	'MofGen! by Chris Wilmer'
_symmetry_space_group_name_H-M	'P1'
_symmetry_Int_Tables_number	1
_symmetry_cell_setting	triclinic
loop_
_symmetry_equiv_pos_as_xyz
  x,y,z
_cell_length_a	14.519731
_cell_length_b	22.610064
_cell_length_c	14.519731
_cell_angle_alpha	89.996905
_cell_angle_beta	96.311147
_cell_angle_gamma	89.990644
loop_
_atom_site_label
_atom_site_type_symbol
_atom_site_fract_x
_atom_site_fract_y
_atom_site_fract_z
O1	O	-1.223871	0.049201	0.120971
O2	O	-0.955398	0.049199	0.135187
O3	O	-1.096742	0.049195	-0.006158
O4	O	-1.082527	0.049205	0.262316
O5	O	-1.096717	-0.049174	-0.006137
O6	O	-0.955373	-0.049170	0.135208
O7	O	-1.223846	-0.049168	0.120992
Zn8	Zn	-1.089605	-0.064787	0.128103
Zn9	Zn	-1.089638	0.064818	0.128076
O10	O	-1.082502	-0.049164	0.262336
C11	C	-0.921026	0.000014	0.134531
C12	C	-0.818645	0.000013	0.132535
C13	C	-0.735501	0.000015	0.130913
C14	C	-0.631192	0.000014	0.128887
C15	C	-0.548053	0.000013	0.127278
C16	C	-0.443738	0.000013	0.125252
N17	N	-1.089590	-0.153240	0.128121
C18	C	-1.152229	-0.561883	0.065498
C19	C	-1.152233	-0.623803	0.065491
O20	O	-1.205452	-0.655823	0.012261
N21	N	-1.089638	-0.654777	0.128057
C22	C	-1.027027	-0.623828	0.190626
O23	O	-0.973784	-0.655859	0.243842
C24	C	-1.027019	-0.561909	0.190628
C25	C	-1.089625	-0.530938	0.128065
C26	C	-1.214829	-0.530912	0.002939
C27	C	-1.214825	-0.468997	0.002947
C28	C	-1.152221	-0.438052	0.065514
C29	C	-1.089621	-0.469023	0.128073
C30	C	-0.964404	-0.530961	0.253192
C31	C	-0.964401	-0.469038	0.253188
C32	C	-1.027007	-0.438067	0.190625
C33	C	-1.027013	-0.376162	0.190648
N34	N	-1.089609	-0.345188	0.128082
C35	C	-1.152213	-0.376133	0.065516
C36	C	-1.027048	-0.753861	0.190617
C37	C	-1.027060	-0.815779	0.190621
C38	C	-1.152266	-0.815750	0.065485
C39	C	-1.152257	-0.753831	0.065486
C40	C	-1.089644	-0.722887	0.128052
C41	C	-1.152201	-0.246106	0.065538
C42	C	-1.152194	-0.184185	0.065554
C43	C	-1.026985	-0.184219	0.190687
C44	C	-1.026995	-0.246135	0.190674
C45	C	-1.089606	-0.277077	0.128092
O46	O	-0.973819	-0.344102	0.243849
O47	O	-1.205438	-0.344094	0.012301
C48	C	-0.258218	0.000015	0.121648
C49	C	-0.360598	0.000012	0.123643
C50	C	-1.096064	0.000010	-0.040507
C51	C	-1.094068	0.000010	-0.142887
N52	N	-1.089661	0.153271	0.128050
C53	C	-1.092446	0.000011	-0.226031
C54	C	-1.090419	0.000016	-0.330340
C55	C	-1.088811	0.000019	-0.413479
C56	C	-1.086785	0.000023	-0.517795
C57	C	-1.083180	0.000022	0.296685
C58	C	-1.085176	0.000027	0.399066
H59	H	-1.203178	-0.158970	0.014608
N60	N	-1.219739	-0.279473	-0.001949
H61	H	-1.184448	-0.305166	-0.042878
H62	H	-1.259377	-0.250413	-0.041507
N63	N	-0.959537	-0.849180	0.258100
H64	H	-0.994837	-0.874869	0.299019
H65	H	-0.919896	-0.820137	0.297669
N66	N	-0.959486	-0.279549	0.258157
H67	H	-0.970218	-0.268780	0.323637
H68	H	-0.894047	-0.268767	0.247309
N69	N	-1.282346	-0.435597	-0.064535
H70	H	-1.321999	-0.464604	-0.104169
H71	H	-1.246972	-0.409911	-0.105389
N72	N	-1.282372	-0.564279	-0.064540
H73	H	-1.247090	-0.589976	-0.105472
H74	H	-1.322003	-0.535214	-0.104095
N75	N	-1.219781	-0.720429	-0.001992
H76	H	-1.259440	-0.749434	-0.041622
H77	H	-1.184409	-0.694744	-0.042849
H78	H	-0.976063	-0.728670	0.241574
H79	H	-0.913424	-0.556169	0.304136
N80	N	-0.896862	-0.435663	0.320667
H81	H	-0.857207	-0.464682	0.360295
H82	H	-0.932225	-0.409970	0.361528
N83	N	-1.219798	-0.849132	-0.001996
H84	H	-1.209077	-0.838357	-0.067478
H85	H	-1.285230	-0.838331	0.008868
H86	H	-0.976016	-0.159014	0.241631
