data_functionalizedCrystal
_audit_creation_method	'MofGen! by Chris Wilmer'
_symmetry_space_group_name_H-M	'P1'
_symmetry_Int_Tables_number	1
_symmetry_cell_setting	triclinic
loop_
_symmetry_equiv_pos_as_xyz
  x,y,z
_cell_length_a	14.395555
_cell_length_b	18.760492
_cell_length_c	14.395555
_cell_angle_alpha	60.002639
_cell_angle_beta	90.003714
_cell_angle_gamma	59.998178
loop_
_atom_site_label
_atom_site_type_symbol
_atom_site_fract_x
_atom_site_fract_y
_atom_site_fract_z
Zr1	Zr	0.894878	0.780210	-0.121879
O2	O	0.746541	0.928920	-0.270213
O3	O	0.940356	0.631500	-0.076403
O4	O	0.940349	0.780202	-0.270198
O5	O	0.746548	0.780225	0.076448
O6	O	1.093223	0.780196	-0.270190
O7	O	0.746548	0.780218	-0.076418
O8	O	1.093236	0.514196	0.076475
O9	O	0.746535	1.046226	-0.270217
O10	O	1.073835	0.692663	-0.057006
O11	O	0.959747	0.692673	0.057070
O12	O	0.959738	0.867750	-0.171099
O13	O	0.845650	0.867760	-0.057023
Zr14	Zr	1.138695	0.780214	0.121938
Zr15	Zr	1.138695	0.780202	-0.121866
Zr16	Zr	0.894879	0.780222	0.121925
Zr17	Zr	0.894870	0.967300	-0.121884
Zr18	Zr	1.138704	0.593124	0.121943
O19	O	1.093217	0.928925	0.076462
O20	O	1.093216	0.928908	-0.270195
O21	O	0.746541	0.928937	0.076443
O22	O	1.287033	0.631505	0.270272
O23	O	1.287032	0.631488	-0.076384
O24	O	0.940357	0.631517	0.270254
O25	O	1.287025	0.780199	-0.076389
O26	O	1.093224	0.780223	0.270257
O27	O	0.940350	0.780228	0.270249
O28	O	1.287026	0.780207	0.076477
O29	O	0.940337	1.046219	-0.270207
O30	O	1.093237	0.514205	0.270266
O31	O	1.287038	0.514198	0.270276
O32	O	1.287038	0.514189	0.076485
O33	O	0.746536	1.046236	-0.076426
O34	O	0.940337	1.046229	-0.076416
O35	O	1.073835	0.692674	0.171158
O36	O	1.187923	0.692665	0.057082
O37	O	1.073827	0.867752	-0.057011
O38	O	0.959739	0.867761	0.057065
C39	C	1.016797	0.546191	0.000037
C40	C	1.016801	0.466767	0.000039
C41	C	1.101002	0.066336	0.084248
C42	C	0.932549	0.195604	-0.084203
C43	C	0.932554	0.270223	-0.084202
C44	C	1.016784	0.242900	0.000027
C45	C	1.101008	0.140959	0.084254
C46	C	0.848324	0.372168	-0.168421
C47	C	0.848326	0.446794	-0.168422
C48	C	0.932561	0.419472	-0.084197
C49	C	1.016790	0.317524	0.000032
C50	C	1.101020	0.290202	0.084261
C51	C	1.185254	0.188254	0.168487
C52	C	1.185244	0.113638	0.168478
C53	C	0.932571	0.494089	-0.084189
C54	C	1.101026	0.364826	0.084267
C55	C	0.711809	0.780223	0.000013
C56	C	0.608303	0.780226	0.000008
C57	C	0.485504	0.875692	-0.062191
C58	C	0.454670	0.827964	-0.107264
C59	C	0.454713	0.827950	0.045072
C60	C	0.578833	0.732499	-0.045128
C61	C	0.578873	0.732498	0.107268
C62	C	0.548113	0.684701	0.062222
C63	C	1.321764	0.780202	0.000046
C64	C	1.425271	0.780198	0.000051
C65	C	1.016786	0.780197	-0.304931
C66	C	1.016786	0.780192	-0.408432
C67	C	1.016776	1.014233	0.000022
C68	C	1.016772	1.093658	0.000020
C69	C	1.079001	0.684745	-0.468734
C70	C	1.124092	0.732441	-0.437860
C71	C	0.971747	0.732471	-0.437915
C72	C	1.061941	0.827930	-0.561999
C73	C	0.909536	0.827946	-0.562050
C74	C	0.954601	0.875712	-0.531250
C75	C	1.016787	0.780227	0.304990
C76	C	1.016788	0.780232	0.408491
C77	C	1.321775	0.546181	0.000053
C78	C	1.425285	0.466753	0.000061
C79	C	1.016798	0.546206	0.304998
C80	C	1.016802	0.466787	0.408501
C81	C	1.321775	0.546196	0.305014
C82	C	1.425286	0.466773	0.408523
C83	C	0.711798	1.014229	-0.304955
C84	C	0.608288	1.093652	-0.408464
C85	C	0.711799	1.014244	0.000006
C86	C	0.608289	1.093672	-0.000002
C87	C	1.016775	1.014218	-0.304939
C88	C	1.016772	1.093638	-0.408442
C89	C	1.414341	0.429451	-0.059498
C90	C	1.511591	0.354830	-0.059513
C91	C	1.619783	0.317507	0.000038
C92	C	1.630724	0.354816	0.059599
C93	C	1.533476	0.429440	0.059607
C94	C	1.076357	0.429492	0.516670
C95	C	1.076356	0.354879	0.613932
C96	C	1.016807	0.317558	0.603022
C97	C	0.957244	0.354861	0.494841
C98	C	0.957239	0.429477	0.397582
C99	C	1.533458	0.429470	0.397585
C100	C	1.630727	0.354854	0.494833
C101	C	1.619820	0.317537	0.603018
C102	C	1.511636	0.354847	0.613953
C103	C	1.414370	0.429467	0.516706
C104	C	0.500115	1.130964	-0.397526
C105	C	0.402847	1.205603	-0.494774
C106	C	0.413754	1.242924	-0.602959
C107	C	0.521938	1.205609	-0.613894
C108	C	0.619203	1.130976	-0.516647
C109	C	0.619232	1.130981	0.059547
C110	C	0.521983	1.205622	0.059535
C111	C	0.413791	1.242948	-0.000019
C112	C	0.402849	1.205636	-0.059576
C113	C	0.500098	1.131001	-0.059570
C114	C	1.076333	1.130935	-0.397495
C115	C	1.076351	1.205548	-0.494738
C116	C	1.016802	1.242868	-0.602927
C117	C	0.957239	1.205563	-0.613871
C118	C	0.957227	1.130946	-0.516629
H119	H	1.169619	0.342566	0.152854
Cl120	Cl	0.535630	1.252533	-0.749907
Cl121	Cl	1.278385	0.476347	0.530476
Cl122	Cl	0.882369	1.252499	-0.749889
H123	H	0.491213	1.100581	-0.309445
H124	H	0.573774	0.603910	0.114828
Cl125	Cl	1.547253	0.476317	0.134499
Cl126	Cl	1.151229	1.252436	-0.480954
H127	H	0.908761	0.324463	0.485975
Cl128	Cl	0.266859	1.252494	-0.481001
H129	H	0.908721	1.100587	-0.525558
Cl130	Cl	0.755188	1.084071	-0.530417
Cl131	Cl	1.151207	1.084033	-0.261499
H132	H	0.908746	0.459833	0.309509
Cl133	Cl	1.151231	0.476391	0.530416
Cl134	Cl	1.160321	0.560131	-0.429514
H135	H	1.718827	0.324416	0.108083
Cl136	Cl	1.264126	0.670131	-0.355236
Cl137	Cl	1.291131	0.153919	0.274377
H138	H	1.124863	0.324516	0.702008
Cl139	Cl	1.120918	0.890187	-0.644353
Cl140	Cl	1.016823	1.336676	-0.725164
H141	H	1.253823	0.030629	0.237050
H142	H	0.334544	1.303694	-0.682135
H143	H	0.401151	0.868309	-0.197955
H144	H	0.902001	0.956492	-0.556871
Cl145	Cl	0.535764	1.252509	0.134418
H146	H	0.632194	0.692177	-0.083326
Cl147	Cl	0.661504	0.670264	0.247258
H148	H	0.707319	1.100596	0.108051
H149	H	0.401206	0.868319	0.083166
H150	H	0.334614	1.303721	-0.000015
Cl151	Cl	1.206893	-0.061820	0.190125
Cl152	Cl	0.826657	0.229946	-0.190075
H153	H	1.699029	0.256777	0.682194
Cl154	Cl	1.497810	0.307940	-0.134390
H155	H	1.016820	0.256801	0.682226
H156	H	1.698959	0.256742	0.000023
Cl157	Cl	1.497944	0.307922	0.749966
H158	H	0.779742	0.394405	-0.236987
H159	H	0.818855	0.868271	-0.615563
H160	H	1.542360	0.459842	0.309504
H161	H	0.863973	0.577090	-0.152749
Cl162	Cl	0.912932	0.670141	-0.355331
Cl163	Cl	1.766715	0.307960	0.481060
H164	H	0.779740	0.529797	-0.237007
H165	H	0.491171	1.100626	-0.108059
Cl166	Cl	0.446224	1.000320	-0.143520
Cl167	Cl	1.278340	0.476361	-0.134378
Cl168	Cl	0.266828	1.252567	-0.134434
