data_functionalizedCrystal
_audit_creation_method	'MofGen! by Chris Wilmer'
_symmetry_space_group_name_H-M	'P1'
_symmetry_Int_Tables_number	1
_symmetry_cell_setting	triclinic
loop_
_symmetry_equiv_pos_as_xyz
  x,y,z
_cell_length_a	12.645331
_cell_length_b	12.645330
_cell_length_c	12.827885
_cell_angle_alpha	89.968887
_cell_angle_beta	89.985491
_cell_angle_gamma	90.011881
loop_
_atom_site_label
_atom_site_type_symbol
_atom_site_fract_x
_atom_site_fract_y
_atom_site_fract_z
Zn1	Zn	1.620755	-0.422010	-0.590706
Zn2	Zn	2.120755	0.077990	-0.090706
Zn3	Zn	1.620657	-0.599310	-0.415962
Zn4	Zn	2.120657	-0.099310	0.084038
Zn5	Zn	1.443474	-0.422059	-0.415994
Zn6	Zn	1.943474	0.077941	0.084006
Zn7	Zn	1.443467	-0.599229	-0.590677
Zn8	Zn	1.943467	-0.099229	-0.090677
O9	O	1.532088	-0.510652	-0.503335
O10	O	2.032088	-0.010652	-0.003335
O11	O	1.769090	-0.445542	-0.567525
O12	O	2.269090	0.054458	-0.067525
O13	O	1.597114	-0.575852	-0.269731
O14	O	2.097114	-0.075852	0.230269
O15	O	1.467035	-0.273705	-0.439196
O16	O	1.967035	0.226295	0.060804
O17	O	1.769017	-0.575804	-0.439142
O18	O	2.269017	-0.075804	0.060858
O19	O	1.597283	-0.273669	-0.567556
O20	O	2.097283	0.226331	-0.067556
O21	O	1.466939	-0.445626	-0.269754
O22	O	1.966939	0.054374	0.230246
O23	O	1.295126	-0.445548	-0.439168
O24	O	1.795126	0.054452	0.060832
O25	O	1.467024	-0.575666	-0.736917
O26	O	1.967024	-0.075666	-0.236917
O27	O	1.295121	-0.575714	-0.567506
O28	O	1.795121	-0.075714	-0.067506
O29	O	1.597277	-0.445464	-0.736938
O30	O	2.097277	0.054536	-0.236938
O31	O	1.597108	-0.747647	-0.439113
O32	O	2.097108	-0.247647	0.060887
O33	O	1.466928	-0.747587	-0.567475
O34	O	1.966928	-0.247587	-0.067475
C35	C	1.256659	-0.510628	-0.503338
C36	C	1.756659	-0.010628	-0.003338
C37	C	1.138829	-0.510643	-0.503364
C38	C	1.638829	-0.010643	-0.003364
C39	C	0.971297	-0.592980	-0.583680
C40	C	1.471297	-0.092980	-0.083680
C41	C	1.093857	-0.592714	-0.584016
C42	C	1.593857	-0.092714	-0.084016
C43	C	1.094340	-0.398986	-0.533455
C44	C	1.594340	0.101014	-0.033455
C45	C	0.971742	-0.399489	-0.534020
C46	C	1.471742	0.100511	-0.034020
C47	C	0.971588	-0.539065	-0.392701
C48	C	1.471588	-0.039065	0.107299
C49	C	1.094194	-0.541506	-0.393298
C50	C	1.594194	-0.041506	0.106702
C51	C	1.532035	-0.786082	-0.503310
C52	C	2.032035	-0.286082	-0.003310
C53	C	1.532110	-0.903912	-0.503335
C54	C	2.032110	-0.403912	-0.003335
C55	C	1.613874	-1.071469	-0.422418
C56	C	2.113874	-0.571469	0.077582
C57	C	1.614141	-0.948909	-0.422616
C58	C	2.114141	-0.448909	0.077384
C59	C	1.562407	-0.948286	-0.613486
C60	C	2.062407	-0.448286	-0.113486
C61	C	1.563056	-1.070884	-0.613056
C62	C	2.063056	-0.570884	-0.113056
C63	C	1.420015	-1.071240	-0.475186
C64	C	1.920015	-0.571240	0.024814
C65	C	1.420552	-0.948636	-0.472715
C66	C	1.920552	-0.448636	0.027285
C67	C	1.808594	-0.510677	-0.503333
C68	C	2.308594	-0.010677	-0.003333
C69	C	1.926424	-0.510688	-0.503332
C70	C	2.426424	-0.010688	-0.003332
C71	C	1.532160	-0.510550	-0.775905
C72	C	2.032160	-0.010550	-0.275905
C73	C	1.532191	-0.510507	-0.892059
C74	C	2.032191	-0.010507	-0.392059
C75	C	1.532171	-0.234147	-0.503383
C76	C	2.032171	0.265853	-0.003383
C77	C	1.532206	-0.116317	-0.503403
C78	C	2.032206	0.383683	-0.003403
C79	C	1.596651	-0.446066	-0.943854
C80	C	2.096651	0.053934	-0.443854
C81	C	1.596685	-0.446020	-1.063904
C82	C	2.096685	0.053980	-0.563904
C83	C	1.532077	-0.510677	-0.231825
C84	C	2.032077	-0.010677	0.268175
C85	C	1.532252	-0.510422	-0.115672
C86	C	2.032252	-0.010422	0.384328
H87	H	1.124807	-0.485917	-0.330220
H88	H	1.624807	0.014083	0.169780
Cl89	Cl	0.926779	-0.446524	-0.300270
Cl90	Cl	1.426779	0.053476	0.199730
Cl91	Cl	0.923843	-0.662619	-0.350465
Cl92	Cl	1.423843	-0.162619	0.149535
Cl93	Cl	1.385272	-0.903869	-0.347566
Cl94	Cl	1.885272	-0.403869	0.152434
H95	H	1.123468	-0.336006	-0.476761
H96	H	1.623468	0.163994	0.023239
Cl97	Cl	1.139089	-0.668369	-0.358262
Cl98	Cl	1.639089	-0.168369	0.141738
H99	H	1.643487	-0.917498	-0.637787
H100	H	2.143487	-0.417498	-0.137787
Cl101	Cl	1.584805	-0.902590	-0.296531
Cl102	Cl	2.084805	-0.402590	0.203469
H103	H	1.651810	-0.390926	-0.899321
H104	H	2.151810	0.109074	-0.399321
H105	H	1.123203	-0.573933	-0.665990
H106	H	1.623203	-0.073933	-0.165990
H107	H	1.651875	-0.390853	-1.108447
H108	H	2.151875	0.109147	-0.608447
H109	H	1.125061	-0.374479	-0.613455
H110	H	1.625061	0.125521	-0.113455
Cl111	Cl	1.321532	-0.901366	-0.557108
Cl112	Cl	1.821532	-0.401366	-0.057108
Cl113	Cl	1.475197	-1.116686	-0.709381
Cl114	Cl	1.975197	-0.616686	-0.209381
H115	H	1.477066	-0.565599	-1.071136
H116	H	1.977066	-0.065599	-0.571136
Cl117	Cl	1.447015	-0.595631	-0.960805
Cl118	Cl	1.947015	-0.095631	-0.460805
H119	H	0.943163	-0.375420	-0.614897
H120	H	1.443163	0.124580	-0.114897
H121	H	1.697236	-0.919501	-0.441279
H122	H	2.197236	-0.419501	0.058721
Cl123	Cl	1.140303	-0.720561	-0.554944
Cl124	Cl	1.640303	-0.220561	-0.054944
Cl125	Cl	1.741483	-1.118906	-0.450908
Cl126	Cl	2.241483	-0.618906	0.049092
Cl127	Cl	0.925768	-0.721244	-0.554896
Cl128	Cl	1.425768	-0.221244	-0.054896
H129	H	0.940503	-0.574442	-0.665177
H130	H	1.440503	-0.074442	-0.165177
H131	H	0.942057	-0.335977	-0.478182
H132	H	1.442057	0.164023	0.021818
H133	H	1.595155	-1.101028	-0.340504
H134	H	2.095155	-0.601028	0.159496
H135	H	1.645062	-1.099396	-0.636959
H136	H	2.145062	-0.599396	-0.136959
H137	H	1.504734	-0.919135	-0.675442
H138	H	2.004734	-0.419135	-0.175442
H139	H	1.392463	-1.102254	-0.396263
H140	H	1.892463	-0.602254	0.103737
H141	H	1.359165	-1.100242	-0.534170
H142	H	1.859165	-0.600242	-0.034170
