data_functionalizedCrystal
_audit_creation_method	'MofGen! by Chris Wilmer'
_symmetry_space_group_name_H-M	'P1'
_symmetry_Int_Tables_number	1
_symmetry_cell_setting	triclinic
loop_
_symmetry_equiv_pos_as_xyz
  x,y,z
_cell_length_a	10.654541
_cell_length_b	14.044220
_cell_length_c	9.730217
_cell_angle_alpha	89.995579
_cell_angle_beta	89.999932
_cell_angle_gamma	88.836403
loop_
_atom_site_label
_atom_site_type_symbol
_atom_site_fract_x
_atom_site_fract_y
_atom_site_fract_z
O1	O	1.681226	0.133219	-0.114252
O2	O	1.317022	0.145915	-0.114264
O3	O	1.493657	0.001546	-0.114245
O4	O	1.504591	0.277587	-0.114271
O5	O	1.493651	0.001545	0.114335
O6	O	1.317016	0.145914	0.114316
O7	O	1.681220	0.133218	0.114328
Zn8	Zn	1.499117	0.139565	0.150614
Zn9	Zn	1.499125	0.139567	-0.150550
O10	O	1.504585	0.277586	0.114309
C11	C	1.270128	0.144983	0.000024
C12	C	1.130404	0.142195	0.000020
C13	C	1.119781	0.314827	-0.000014
C14	C	1.048829	0.399829	-0.000036
C15	C	0.917547	0.397204	-0.000037
C16	C	0.857215	0.309567	-0.000012
C17	C	0.928167	0.224565	0.000011
C18	C	1.059452	0.227199	0.000008
C19	C	0.938790	0.051935	0.000054
C20	C	1.070072	0.054558	0.000046
C21	C	0.878458	-0.035701	0.000080
C22	C	0.949411	-0.120706	0.000092
C23	C	1.080701	-0.118077	0.000092
C24	C	1.141025	-0.030444	0.000068
C25	C	1.488869	-0.033800	0.000046
C26	C	1.474593	-0.139120	0.000047
C27	C	1.448494	-0.331952	0.000026
C28	C	1.549742	-0.388921	0.000026
C29	C	1.535221	-0.496219	0.000014
C30	C	1.463014	-0.224644	0.000038
C31	C	1.728114	0.134150	0.000037
C32	C	1.867838	0.136938	0.000032
C33	C	1.509374	0.312933	0.000015
C34	C	1.523649	0.418252	0.000005
N35	N	1.499121	0.139564	0.356151
N36	N	1.499131	0.139561	-0.356087
C37	C	1.655605	0.011763	0.356159
C38	C	1.733855	-0.052135	0.428102
C39	C	1.733868	-0.052135	0.571982
C40	C	1.655619	0.011767	0.643921
C41	C	1.577368	0.075664	0.571978
C42	C	1.577367	0.075660	0.428095
C43	C	1.420880	0.203459	0.571970
C44	C	1.420872	0.203466	0.428090
C45	C	1.342631	0.267361	0.643909
C46	C	1.264385	0.331265	0.571965
C47	C	1.264376	0.331263	0.428076
C48	C	1.342621	0.267363	0.356146
H49	H	1.097966	0.471181	-0.000053
H50	H	1.655613	0.011765	0.239004
H51	H	1.797581	-0.104169	0.630559
C52	C	0.973091	-0.291085	0.000132
C53	C	0.883095	-0.217028	0.000122
H54	H	0.932144	-0.350550	0.000157
H55	H	1.024065	-0.286475	-0.079580
H56	H	1.024084	-0.286461	0.079843
H57	H	0.832108	-0.221647	-0.079594
H58	H	0.832099	-0.221640	0.079842
C59	C	1.670563	-0.246458	0.000068
C60	C	1.681485	-0.345983	0.000051
H61	H	1.751893	-0.219950	0.000096
H62	H	1.626220	-0.225953	-0.079643
H63	H	1.626185	-0.225975	0.079779
H64	H	1.725856	-0.366467	-0.079666
H65	H	1.725848	-0.366497	0.079771
C66	C	1.286662	-0.190711	0.000114
C67	C	1.158689	-0.211516	0.000120
H68	H	1.334802	-0.248399	0.000139
H69	H	1.305989	-0.154830	-0.079604
H70	H	1.305986	-0.154807	0.079818
H71	H	1.139363	-0.247414	-0.079591
H72	H	1.139354	-0.247412	0.079846
H73	H	1.342626	0.267360	0.238991
H74	H	1.200674	0.383285	0.630547
H75	H	1.350915	-0.363762	0.000020
C76	C	0.693284	-0.086451	0.117594
C77	C	0.734152	-0.038591	0.000078
H78	H	0.604194	-0.088231	0.117590
H79	H	0.726904	-0.149608	0.117604
H80	H	0.721022	-0.053960	0.197288
H81	H	0.706422	-0.071086	-0.079617
H82	H	0.700518	0.024577	0.000055
C83	C	1.789334	-0.215821	0.383723
C84	C	1.819867	-0.122349	0.348983
H85	H	1.842429	-0.259160	0.334862
H86	H	1.800563	-0.224984	0.479689
H87	H	1.704303	-0.226714	0.360154
H88	H	1.904896	-0.111453	0.372561
H89	H	1.808649	-0.113182	0.252996
C90	C	0.666257	0.352793	-0.117514
C91	C	0.712908	0.306680	-0.000003
H92	H	0.577168	0.351004	-0.117509
H93	H	0.692030	0.417140	-0.117517
H94	H	0.697921	0.321497	-0.197212
H95	H	0.681252	0.337981	0.079695
H96	H	0.687123	0.242322	0.000012
H97	H	1.655623	0.011755	0.761076
H98	H	1.342639	0.267354	0.761063
C99	C	1.109693	0.457588	0.442534
C100	C	1.178362	0.401505	0.349001
H101	H	1.056597	0.500957	0.393717
H102	H	1.060078	0.417779	0.498653
H103	H	1.165837	0.492077	0.498651
H104	H	1.122217	0.367012	0.292890
H105	H	1.227981	0.441320	0.292858
H106	H	0.859777	0.466420	-0.000046
C107	C	1.304941	0.365576	-0.117549
C108	C	1.264088	0.317715	-0.000027
H109	H	1.394031	0.367364	-0.117551
H110	H	1.277201	0.333091	-0.197231
H111	H	1.271312	0.428740	-0.117551
H112	H	1.297710	0.254548	-0.000030
H113	H	1.291841	0.350199	0.079675
H114	H	1.247921	-0.028295	0.000051
