data_functionalizedCrystal
_audit_creation_method	'MofGen! by Chris Wilmer'
_symmetry_space_group_name_H-M	'P1'
_symmetry_Int_Tables_number	1
_symmetry_cell_setting	triclinic
loop_
_symmetry_equiv_pos_as_xyz
  x,y,z
_cell_length_a	14.853567
_cell_length_b	14.044220
_cell_length_c	13.930277
_cell_angle_alpha	89.994760
_cell_angle_beta	89.995755
_cell_angle_gamma	88.411904
loop_
_atom_site_label
_atom_site_type_symbol
_atom_site_fract_x
_atom_site_fract_y
_atom_site_fract_z
O1	O	1.206174	0.123767	-0.079767
O2	O	0.944883	0.138510	-0.079784
O3	O	1.071607	-0.006851	-0.079766
O4	O	1.079450	0.269128	-0.079785
O5	O	1.071587	-0.006854	0.079896
O6	O	0.944863	0.138507	0.079878
O7	O	1.206155	0.123764	0.079895
Zn8	Zn	1.075506	0.131135	0.105236
Zn9	Zn	1.075532	0.131139	-0.105125
O10	O	1.079431	0.269125	0.079877
C11	C	0.911231	0.137841	0.000045
C12	C	0.810989	0.135839	0.000039
C13	C	0.390944	0.041029	0.000067
C14	C	0.383345	0.213721	0.000054
C15	C	0.477528	0.215604	0.000051
C16	C	0.528423	0.130197	0.000054
C17	C	0.485135	0.042908	0.000061
C18	C	0.520822	0.302891	0.000035
C19	C	0.615011	0.304777	0.000031
C20	C	0.665908	0.219369	0.000041
C21	C	0.622615	0.132077	0.000048
C22	C	0.673510	0.046670	0.000052
C23	C	0.630218	-0.040623	0.000066
C24	C	0.536032	-0.042499	0.000071
C25	C	0.760094	0.221246	0.000036
C26	C	0.767702	0.048550	0.000046
C27	C	1.068163	-0.042172	0.000065
C28	C	1.057921	-0.147411	0.000066
C29	C	1.039197	-0.340097	0.000051
C30	C	1.111836	-0.397635	0.000052
C31	C	1.101418	-0.504852	0.000044
C32	C	1.049614	-0.232870	0.000059
C33	C	1.239806	0.124433	0.000064
C34	C	1.340048	0.126435	0.000064
C35	C	1.082874	0.304446	0.000044
C36	C	1.093116	0.409685	0.000037
N37	N	1.075495	0.131132	0.248802
N38	N	1.075549	0.131135	-0.248691
C39	C	1.019414	0.195480	0.701064
C40	C	1.131673	0.066791	0.701049
C41	C	1.131663	0.066788	0.600553
C42	C	1.075527	0.131133	0.550308
C43	C	1.019403	0.195481	0.600559
C44	C	1.187792	0.002448	0.550295
C45	C	1.187784	0.002443	0.449793
C46	C	1.131644	0.066784	0.399546
C47	C	1.075517	0.131134	0.449803
C48	C	1.019382	0.195479	0.399558
C49	C	0.963249	0.259825	0.449813
C50	C	0.963263	0.259822	0.550312
C51	C	1.131630	0.066787	0.299047
C52	C	1.019371	0.195480	0.299053
H53	H	0.500776	-0.113569	0.000105
N54	N	0.346715	-0.048127	0.000090
N55	N	0.262620	-0.049800	0.000103
H56	H	0.231381	-0.112767	0.000121
H57	H	0.650251	0.375856	0.000019
N58	N	0.951378	-0.379324	0.000038
N59	N	0.942935	-0.467630	0.000033
H60	H	0.880913	-0.495346	0.000026
H61	H	0.479377	0.372424	0.000023
H62	H	0.795338	0.292318	0.000026
H63	H	1.233489	-0.049952	0.408882
N64	N	1.189007	0.001083	0.752392
N65	N	1.155685	-0.057809	0.808499
H66	H	1.196180	-0.104214	0.844768
N67	N	0.962016	0.261208	0.247748
N68	N	0.911905	0.318647	0.292632
H69	H	0.871397	0.365069	0.256398
N70	N	1.199662	-0.358408	0.000064
N71	N	1.208113	-0.270102	0.000074
H72	H	1.270137	-0.242393	0.000086
N73	N	0.905925	0.325565	0.398485
N74	N	0.939265	0.384465	0.342400
H75	H	0.898783	0.430895	0.306145
N76	N	0.905934	0.325537	0.601661
N77	N	0.905957	0.325527	0.691392
H78	H	0.865471	0.371939	0.727662
N79	N	0.819686	-0.038694	0.000030
N80	N	0.873085	-0.056914	-0.067279
H81	H	0.909799	-0.118530	-0.067292
N82	N	0.962078	0.261193	0.752406
N83	N	0.962086	0.261182	0.842137
H84	H	0.921591	0.307592	0.878400
N85	N	1.245163	-0.063230	0.601632
N86	N	1.245181	-0.063200	0.691362
H87	H	1.285712	-0.109576	0.727625
N88	N	1.188876	0.000974	0.247729
N89	N	1.238934	-0.056527	0.292601
H90	H	1.279331	-0.103048	0.256359
N91	N	0.331347	0.300948	0.000031
N92	N	0.247253	0.299257	0.000023
H93	H	0.210525	0.360864	0.000004
N94	N	0.682224	-0.127853	0.000057
N95	N	0.766318	-0.126152	0.000041
H96	H	0.803052	-0.187756	0.000033
