data_functionalizedCrystal
_audit_creation_method	'MofGen! by Chris Wilmer'
_symmetry_space_group_name_H-M	'P1'
_symmetry_Int_Tables_number	1
_symmetry_cell_setting	triclinic
loop_
_symmetry_equiv_pos_as_xyz
  x,y,z
_cell_length_a	12.594517
_cell_length_b	19.120786
_cell_length_c	12.594509
_cell_angle_alpha	92.474225
_cell_angle_beta	90.011478
_cell_angle_gamma	92.461418
loop_
_atom_site_label
_atom_site_type_symbol
_atom_site_fract_x
_atom_site_fract_y
_atom_site_fract_z
Zn1	Zn	1.609116	-0.279686	0.583455
Zn2	Zn	1.601383	-0.397156	0.397864
Zn3	Zn	1.431118	-0.279708	0.405513
Zn4	Zn	1.423482	-0.397100	0.575828
O5	O	1.516275	-0.338413	0.490665
O6	O	1.757035	-0.295284	0.558826
O7	O	1.578757	-0.381610	0.249930
O8	O	1.461162	-0.181415	0.435510
O9	O	1.751354	-0.381588	0.422473
O10	O	1.591936	-0.181399	0.566244
O11	O	1.453664	-0.295321	0.255550
O12	O	1.281160	-0.295266	0.428115
O13	O	1.448147	-0.381491	0.725788
O14	O	1.275550	-0.381513	0.553245
O15	O	1.584531	-0.295228	0.731391
O16	O	1.571352	-0.495439	0.415078
O17	O	1.440649	-0.495397	0.545827
C18	C	1.239736	-0.338386	0.490683
C19	C	1.121430	-0.338392	0.490714
C20	C	1.049150	-0.385393	0.558629
C21	C	0.982498	-0.321352	0.588958
C22	C	0.977280	-0.402486	0.460359
C23	C	1.056338	-0.274316	0.521096
C24	C	1.051123	-0.355493	0.392449
C25	C	0.984506	-0.291408	0.422744
C26	C	1.504362	-0.520904	0.478818
C27	C	1.499363	-0.598974	0.473785
C28	C	1.565050	-0.635583	0.539542
C29	C	1.560349	-0.708939	0.534815
C30	C	1.489964	-0.745684	0.464326
C31	C	1.424269	-0.709070	0.398566
C32	C	1.428966	-0.635716	0.403299
C33	C	1.472374	-0.967170	0.446633
C34	C	1.467684	-1.040529	0.441902
C35	C	1.603763	-1.040393	0.578153
C36	C	1.608458	-0.967037	0.582876
C37	C	1.542760	-0.930430	0.517120
C38	C	1.485159	-0.820665	0.459490
C39	C	1.547560	-0.855450	0.521962
C40	C	1.793894	-0.338440	0.490647
C41	C	1.912198	-0.338451	0.490640
C42	C	1.516350	-0.338351	0.768290
C43	C	1.516382	-0.338325	0.886597
C44	C	1.528263	-0.155209	0.502581
C45	C	1.533372	-0.077138	0.507659
C46	C	1.516264	-0.338423	0.214123
C47	C	1.516451	-0.338252	0.095829
C48	C	1.442227	-0.385217	0.952804
C49	C	1.538233	-0.402383	1.022465
C50	C	1.420454	-0.321116	1.027738
C51	C	1.612437	-0.355525	0.954698
C52	C	1.494595	-0.274228	0.959966
C53	C	1.590670	-0.291370	1.029597
H54	H	0.956220	-0.251640	0.365282
O55	O	1.091160	-0.374651	0.282455
H56	H	1.059433	-0.427880	0.257465
O57	O	1.674606	-1.079875	0.649090
H58	H	1.659509	-1.137056	0.633970
O59	O	1.631198	-0.748422	0.605743
H60	H	1.683229	-0.781843	0.555991
H61	H	1.604863	-0.825530	0.579359
O62	O	1.359213	-0.437817	0.908255
H63	H	1.359413	-0.437028	0.820186
H64	H	1.556699	-0.456557	1.050056
H65	H	1.622370	-0.605670	0.596938
H66	H	1.693611	-0.370111	0.922779
H67	H	1.339300	-0.306592	1.059783
O68	O	0.942440	-0.302187	0.698949
H69	H	0.854340	-0.301896	0.697643
O70	O	1.673866	-0.238803	1.073878
H71	H	1.656369	-0.185814	1.047683
H72	H	1.665771	-0.937121	0.640274
H73	H	1.476099	-0.220070	0.932351
H74	H	1.077641	-0.425064	0.616144
O75	O	1.391759	-1.080167	0.365879
H76	H	1.346854	-1.042388	0.320958
H77	H	1.090799	-0.220122	0.546833
H78	H	1.418882	-0.937370	0.393090
O79	O	0.931491	-0.474256	0.426377
H80	H	0.880447	-0.494855	0.490760
O81	O	1.348365	-0.748697	0.322521
H82	H	1.356147	-0.805856	0.330263
H83	H	1.375475	-0.605910	0.349754
H84	H	1.427855	-0.850592	0.402094
