data_functionalizedCrystal
_audit_creation_method	'MofGen! by Chris Wilmer'
_symmetry_space_group_name_H-M	'P1'
_symmetry_Int_Tables_number	1
_symmetry_cell_setting	triclinic
loop_
_symmetry_equiv_pos_as_xyz
  x,y,z
_cell_length_a	23.532407
_cell_length_b	23.532407
_cell_length_c	13.596369
_cell_angle_alpha	89.989360
_cell_angle_beta	89.997347
_cell_angle_gamma	82.848712
loop_
_atom_site_label
_atom_site_type_symbol
_atom_site_fract_x
_atom_site_fract_y
_atom_site_fract_z
O1	O	0.755260	0.069136	-0.081739
O2	O	1.088593	0.402470	0.251594
O3	O	1.421927	0.735803	0.584927
O4	O	0.589397	0.079139	-0.081756
O5	O	0.922730	0.412473	0.251577
O6	O	1.256063	0.745806	0.584910
O7	O	0.677330	-0.008794	-0.081729
O8	O	1.010663	0.324539	0.251604
O9	O	1.343997	0.657873	0.584937
O10	O	0.667327	0.157069	-0.081766
O11	O	1.000660	0.490403	0.251567
O12	O	1.333993	0.823736	0.584900
O13	O	0.677321	-0.008798	0.081854
O14	O	1.010655	0.324535	0.415187
O15	O	1.343988	0.657868	0.748520
O16	O	0.589388	0.079135	0.081827
O17	O	0.922721	0.412468	0.415160
O18	O	1.256055	0.745801	0.748493
O19	O	0.755251	0.069132	0.081844
O20	O	1.088585	0.402465	0.415177
O21	O	1.421918	0.735798	0.748510
Zn22	Zn	0.672318	0.074132	0.107808
Zn23	Zn	1.005652	0.407466	0.441141
Zn24	Zn	1.338985	0.740799	0.774474
Zn25	Zn	0.672330	0.074138	-0.107720
Zn26	Zn	1.005663	0.407472	0.225613
Zn27	Zn	1.338996	0.740805	0.558947
O28	O	0.667318	0.157065	0.081817
O29	O	1.000651	0.490398	0.415150
O30	O	1.333985	0.823732	0.748483
C31	C	0.568176	0.078882	0.000033
C32	C	0.901510	0.412216	0.333367
C33	C	1.234843	0.745549	0.666700
C34	C	0.504959	0.078116	0.000028
C35	C	0.838293	0.411450	0.333361
C36	C	1.171626	0.744783	0.666694
C37	C	0.238792	0.022921	0.000067
C38	C	0.572125	0.356254	0.333400
C39	C	0.905458	0.689588	0.666733
C40	C	0.298192	0.023632	0.000066
C41	C	0.631525	0.356966	0.333400
C42	C	0.964859	0.690299	0.666733
O43	O	0.334937	-0.020153	0.000110
O44	O	0.668270	0.313180	0.333444
O45	O	1.001603	0.646513	0.666777
N46	N	0.320818	0.075909	0.000048
N47	N	0.654152	0.409242	0.333381
N48	N	0.987485	0.742575	0.666715
C49	C	0.284041	0.127477	0.000040
C50	C	0.617374	0.460810	0.333373
C51	C	0.950707	0.794144	0.666707
O52	O	0.308740	0.172007	0.000025
O53	O	0.642074	0.505341	0.333359
O54	O	0.975407	0.838674	0.666692
C55	C	0.224642	0.126765	0.000047
C56	C	0.557975	0.460098	0.333381
C57	C	0.891308	0.793432	0.666714
C58	C	0.202019	0.074485	0.000056
C59	C	0.535352	0.407819	0.333389
C60	C	0.868686	0.741152	0.666723
C61	C	0.216169	-0.029354	0.000076
C62	C	0.549502	0.303979	0.333410
C63	C	0.882835	0.637312	0.666743
C64	C	0.156772	-0.030066	0.000075
C65	C	0.490106	0.303268	0.333408
C66	C	0.823439	0.636601	0.666741
C67	C	0.119999	0.021499	0.000064
C68	C	0.453333	0.354832	0.333397
C69	C	0.786666	0.688165	0.666731
C70	C	0.142623	0.073774	0.000054
C71	C	0.475956	0.407107	0.333388
C72	C	0.809289	0.740441	0.666721
C73	C	0.187865	0.178333	0.000047
C74	C	0.521199	0.511666	0.333380
C75	C	0.854532	0.844999	0.666713
C76	C	0.128463	0.177616	0.000055
C77	C	0.461796	0.510949	0.333388
C78	C	0.795129	0.844283	0.666721
C79	C	0.105840	0.125336	0.000063
C80	C	0.439173	0.458670	0.333396
C81	C	0.772507	0.792003	0.666730
C82	C	0.046454	0.124627	0.000042
C83	C	0.379787	0.457960	0.333375
C84	C	0.713120	0.791294	0.666709
N85	N	0.023828	0.072351	0.000061
N86	N	0.357161	0.405684	0.333394
N87	N	0.690494	0.739017	0.666727
C88	C	0.060600	0.020787	0.000071
C89	C	0.393934	0.354120	0.333405
C90	C	0.727267	0.687453	0.666738
C91	C	0.408783	0.128968	0.000026
C92	C	0.742117	0.462302	0.333359
C93	C	1.075450	0.795635	0.666693
C94	C	0.468181	0.129681	0.000012
C95	C	0.801514	0.463014	0.333345
C96	C	1.134848	0.796348	0.666678
C97	C	0.482328	0.025836	0.000040
C98	C	0.815662	0.359170	0.333373
C99	C	1.148995	0.692503	0.666706
C100	C	0.422929	0.025124	0.000047
C101	C	0.756263	0.358457	0.333381
C102	C	1.089596	0.691791	0.666714
C103	C	0.386157	0.076692	0.000044
C104	C	0.719490	0.410025	0.333378
C105	C	1.052824	0.743359	0.666711
C106	C	-0.064136	0.019297	0.000068
C107	C	0.269197	0.352630	0.333401
C108	C	0.602530	0.685964	0.666734
C109	C	-0.123538	0.018590	0.000062
C110	C	0.209795	0.351924	0.333395
C111	C	0.543128	0.685257	0.666729
C112	C	-0.137680	0.122435	0.000039
C113	C	0.195653	0.455768	0.333372
C114	C	0.528986	0.789101	0.666706
C115	C	-0.078284	0.123142	0.000039
C116	C	0.255050	0.456475	0.333373
C117	C	0.588383	0.789808	0.666706
C118	C	-0.041512	0.071568	0.000057
C119	C	0.291821	0.404901	0.333390
C120	C	0.625154	0.738235	0.666724
O121	O	0.009675	0.168390	0.000002
O122	O	0.343008	0.501723	0.333336
O123	O	0.676341	0.835057	0.666669
O124	O	0.035892	-0.023737	0.000099
O125	O	0.369226	0.309597	0.333432
O126	O	0.702559	0.642930	0.666766
C127	C	0.677071	-0.030012	0.000065
C128	C	1.010404	0.303321	0.333398
C129	C	1.343738	0.636654	0.666731
C130	C	0.676305	-0.093229	0.000072
C131	C	1.009638	0.240104	0.333406
C132	C	1.342972	0.573437	0.666739
C133	C	0.723538	-0.492332	0.000023
C134	C	1.056872	-0.158999	0.333356
C135	C	1.390205	0.174334	0.666690
C136	C	0.722827	-0.551733	0.000016
C137	C	1.056160	-0.218399	0.333349
C138	C	1.389494	0.114934	0.666682
O139	O	0.766613	-0.588477	-0.000016
O140	O	1.099946	-0.255144	0.333317
O141	O	1.433280	0.078190	0.666650
N142	N	0.670551	-0.574359	0.000011
N143	N	1.003884	-0.241025	0.333344
N144	N	1.337217	0.092308	0.666678
C145	C	0.618982	-0.537581	0.000004
C146	C	0.952316	-0.204248	0.333337
C147	C	1.285649	0.129085	0.666671
O148	O	0.574452	-0.562281	-0.000002
O149	O	0.907785	-0.228948	0.333332
O150	O	1.241119	0.104386	0.666665
C151	C	0.619695	-0.478182	0.000004
C152	C	0.953028	-0.144849	0.333338
C153	C	1.286361	0.188485	0.666671
C154	C	0.671974	-0.455559	0.000019
C155	C	1.005308	-0.122226	0.333352
C156	C	1.338641	0.211107	0.666686
C157	C	0.775814	-0.469709	0.000037
C158	C	1.109147	-0.136376	0.333370
C159	C	1.442481	0.196958	0.666703
C160	C	0.776525	-0.410313	0.000046
C161	C	1.109858	-0.076980	0.333379
C162	C	1.443192	0.256354	0.666713
C163	C	0.724961	-0.373540	0.000042
C164	C	1.058294	-0.040207	0.333375
C165	C	1.391628	0.293127	0.666709
C166	C	0.672685	-0.396163	0.000028
C167	C	1.006019	-0.062830	0.333362
C168	C	1.339352	0.270503	0.666695
C169	C	0.568127	-0.441406	-0.000010
C170	C	0.901460	-0.108072	0.333324
C171	C	1.234794	0.225261	0.666657
C172	C	0.568843	-0.382003	-0.000010
C173	C	0.902177	-0.048670	0.333323
C174	C	1.235510	0.284663	0.666657
C175	C	0.621123	-0.359381	0.000005
C176	C	0.954457	-0.026047	0.333338
C177	C	1.287790	0.307286	0.666671
C178	C	0.621832	-0.299994	0.000034
C179	C	0.955166	0.033339	0.333367
C180	C	1.288499	0.366672	0.666700
N181	N	0.674109	-0.277368	0.000038
N182	N	1.007442	0.055965	0.333372
N183	N	1.340775	0.389299	0.666705
C184	C	0.725673	-0.314141	0.000042
C185	C	1.059006	0.019192	0.333376
C186	C	1.392340	0.352526	0.666709
C187	C	0.617491	-0.662324	0.000001
C188	C	0.950824	-0.328990	0.333334
C189	C	1.284158	0.004343	0.666668
C190	C	0.616778	-0.721722	0.000008
C191	C	0.950112	-0.388388	0.333341
C192	C	1.283445	-0.055055	0.666674
C193	C	0.720623	-0.735869	0.000018
C194	C	1.053957	-0.402536	0.333351
C195	C	1.387290	-0.069202	0.666684
C196	C	0.721335	-0.676470	0.000018
C197	C	1.054669	-0.343137	0.333351
C198	C	1.388002	-0.009803	0.666685
C199	C	0.669767	-0.639698	0.000006
C200	C	1.003101	-0.306364	0.333339
C201	C	1.336434	0.026969	0.666672
C202	C	0.727163	-0.189404	0.000063
C203	C	1.060496	0.143929	0.333396
C204	C	1.393829	0.477262	0.666730
C205	C	0.727869	-0.130002	0.000076
C206	C	1.061203	0.203331	0.333410
C207	C	1.394536	0.536664	0.666743
C208	C	0.624025	-0.115860	0.000061
C209	C	0.957358	0.217473	0.333395
C210	C	1.290691	0.550807	0.666728
C211	C	0.623318	-0.175257	0.000053
C212	C	0.956651	0.158076	0.333386
C213	C	1.289984	0.491410	0.666720
C214	C	0.674891	-0.212028	0.000051
C215	C	1.008225	0.121305	0.333384
C216	C	1.341558	0.454639	0.666717
O217	O	0.578069	-0.263215	0.000061
O218	O	0.911403	0.070118	0.333395
O219	O	1.244736	0.403452	0.666728
O220	O	0.770196	-0.289433	0.000035
O221	O	1.103529	0.043900	0.333368
O222	O	1.436863	0.377234	0.666702
C223	C	0.776472	0.069389	0.000052
C224	C	1.109805	0.402722	0.333385
C225	C	1.443138	0.736055	0.666719
C226	C	0.839689	0.070155	0.000051
C227	C	1.173022	0.403488	0.333385
C228	C	1.506355	0.736821	0.666718
C229	C	0.667577	0.178283	0.000021
C230	C	1.000910	0.511617	0.333354
C231	C	1.334244	0.844950	0.666687
C232	C	0.668343	0.241500	0.000007
C233	C	1.001676	0.574834	0.333340
C234	C	1.335010	0.908167	0.666673
N235	N	0.672315	0.074128	0.254899
N236	N	1.005648	0.407461	0.588233
N237	N	1.338981	0.740795	0.921566
N238	N	0.672338	0.074138	-0.254812
N239	N	1.005671	0.407472	0.078521
N240	N	1.339005	0.740805	0.411855
C241	C	0.672329	0.074139	0.656190
C242	C	1.005662	0.407472	0.989524
C243	C	1.338996	0.740806	1.322857
C244	C	0.672323	0.074138	0.544539
C245	C	1.005657	0.407471	0.877872
C246	C	1.338990	0.740805	1.211206
C247	C	0.672322	0.074134	0.455548
C248	C	1.005655	0.407467	0.788882
C249	C	1.338989	0.740801	1.122215
C250	C	0.672316	0.074132	0.343890
C251	C	1.005649	0.407465	0.677223
C252	C	1.338983	0.740799	1.010557
H253	H	-0.059864	0.165712	0.000031
H254	H	0.273470	0.499045	0.333365
H255	H	0.606803	0.832379	0.666698
O256	O	0.400929	-0.025645	-0.000112
O257	O	0.734262	0.307688	0.333221
O258	O	1.067595	0.641021	0.666555
C259	C	0.342055	-0.086707	-0.084802
C260	C	0.675388	0.246627	0.248531
C261	C	1.008722	0.579960	0.581864
C262	C	0.366939	-0.029194	-0.084759
C263	C	0.700272	0.304139	0.248575
C264	C	1.033605	0.637473	0.581908
H265	H	0.314559	-0.089590	-0.153221
H266	H	0.647892	0.243744	0.180112
H267	H	0.981226	0.577077	0.513445
H268	H	0.378524	-0.123458	-0.084862
H269	H	0.711857	0.209875	0.248471
H270	H	1.045190	0.543208	0.581804
H271	H	0.314627	-0.089633	-0.016306
H272	H	0.647960	0.243700	0.317027
H273	H	0.981294	0.577034	0.650361
H274	H	0.394360	-0.026212	-0.153243
H275	H	0.727693	0.307122	0.180090
H276	H	1.061026	0.640455	0.513423
H277	H	0.330443	0.007530	-0.084648
H278	H	0.663776	0.340864	0.248686
H279	H	0.997109	0.674197	0.582019
O280	O	0.373007	0.179028	-0.000125
O281	O	0.706340	0.512362	0.333209
O282	O	1.039674	0.845695	0.666542
C283	C	0.297765	0.238516	-0.084925
C284	C	0.631099	0.571849	0.248409
C285	C	0.964432	0.905182	0.581742
C286	C	0.338235	0.181797	-0.084865
C287	C	0.671568	0.515131	0.248469
C288	C	1.004902	0.848464	0.581802
H289	H	0.269650	0.240778	-0.153440
H290	H	0.602984	0.574112	0.179894
H291	H	0.936317	0.907445	0.513227
H292	H	0.269561	0.240793	-0.016512
H293	H	0.602895	0.574127	0.316821
H294	H	0.936228	0.907460	0.650155
H295	H	0.324158	0.275987	-0.084894
H296	H	0.657491	0.609320	0.248440
H297	H	0.990825	0.942653	0.581773
H298	H	0.311888	0.144294	-0.084930
H299	H	0.645221	0.477627	0.248403
H300	H	0.978555	0.810961	0.581737
H301	H	0.366441	0.179570	-0.153271
H302	H	0.699774	0.512903	0.180062
H303	H	1.033108	0.846236	0.513395
H304	H	0.512280	-0.016150	0.000049
H305	H	0.845613	0.317183	0.333382
H306	H	1.178947	0.650516	0.666715
H307	H	-0.141954	-0.023984	0.000066
H308	H	0.191379	0.309349	0.333400
H309	H	0.524713	0.642683	0.666733
O310	O	0.827295	-0.388313	0.000221
O311	O	1.160628	-0.054979	0.333554
O312	O	1.493961	0.278354	0.666887
C313	C	0.888361	-0.329452	0.084930
C314	C	1.221694	0.003882	0.418263
C315	C	1.555028	0.337215	0.751596
C316	C	0.830848	-0.354334	0.084873
C317	C	1.164181	-0.021001	0.418206
C318	C	1.497514	0.312332	0.751540
H319	H	0.891247	-0.301965	0.153353
H320	H	1.224581	0.031368	0.486686
H321	H	1.557914	0.364702	0.820020
H322	H	0.925112	-0.365921	0.084990
H323	H	1.258446	-0.032588	0.418323
H324	H	1.591779	0.300746	0.751657
H325	H	0.891285	-0.302015	0.016438
H326	H	1.224618	0.031319	0.349771
H327	H	1.557952	0.364652	0.683105
H328	H	0.827868	-0.381764	0.153353
H329	H	1.161201	-0.048431	0.486686
H330	H	1.494535	0.284902	0.820020
H331	H	0.794124	-0.317838	0.084761
H332	H	1.127457	0.015495	0.418095
H333	H	1.460791	0.348829	0.751428
O334	O	0.825960	-0.505344	0.000088
O335	O	1.159293	-0.172011	0.333421
O336	O	1.492627	0.161322	0.666754
C337	C	0.929034	-0.513087	0.000058
C338	C	1.262367	-0.179754	0.333391
C339	C	1.595700	0.153579	0.666724
C340	C	0.872281	-0.472671	0.000012
C341	C	1.205614	-0.139338	0.333346
C342	C	1.538948	0.193996	0.666679
H343	H	0.966499	-0.486687	-0.000024
H344	H	1.299832	-0.153354	0.333309
H345	H	1.633165	0.179980	0.666642
H346	H	0.931335	-0.541245	0.068536
H347	H	1.264668	-0.207911	0.401869
H348	H	1.598002	0.125422	0.735203
H349	H	0.931279	-0.541257	-0.068383
H350	H	1.264612	-0.207924	0.264951
H351	H	1.597945	0.125409	0.598284
H352	H	0.869998	-0.444465	0.068406
H353	H	1.203331	-0.111132	0.401739
H354	H	1.536665	0.222202	0.735073
H355	H	0.870004	-0.444553	-0.068511
H356	H	1.203337	-0.111219	0.264822
H357	H	1.536670	0.222114	0.598155
H358	H	0.769159	-0.219337	0.000057
H359	H	1.102492	0.113996	0.333390
H360	H	1.435825	0.447330	0.666724
O361	O	-0.028445	-0.030816	-0.000097
O362	O	0.304888	0.302518	0.333236
O363	O	0.638221	0.635851	0.666570
C364	C	0.001784	-0.119365	-0.084811
C365	C	0.335118	0.213969	0.248522
C366	C	0.668451	0.547302	0.581856
C367	C	-0.038658	-0.062629	-0.084748
C368	C	0.294675	0.270704	0.248585
C369	C	0.628008	0.604038	0.581918
H370	H	-0.006467	-0.145107	-0.153233
H371	H	0.326866	0.188226	0.180100
H372	H	0.660200	0.521560	0.513433
H373	H	0.048139	-0.109919	-0.084878
H374	H	0.381472	0.223414	0.248456
H375	H	0.714805	0.556748	0.581789
H376	H	-0.006406	-0.145088	-0.016318
H377	H	0.326927	0.188245	0.317015
H378	H	0.660260	0.521578	0.650348
H379	H	-0.030519	-0.036877	-0.153229
H380	H	0.302814	0.296456	0.180104
H381	H	0.636147	0.629790	0.513438
H382	H	-0.084999	-0.072115	-0.084630
H383	H	0.248334	0.261219	0.248703
H384	H	0.581667	0.594552	0.582036
H385	H	0.246104	-0.071347	0.000088
H386	H	0.579437	0.261987	0.333422
H387	H	0.912771	0.595320	0.666755
O388	O	0.134896	-0.080901	0.000140
O389	O	0.468229	0.252433	0.333473
O390	O	0.801563	0.585766	0.666806
C391	C	0.155219	-0.183824	0.000125
C392	C	0.488553	0.149510	0.333459
C393	C	0.821886	0.482843	0.666792
C394	C	0.180065	-0.126291	0.000068
C395	C	0.513398	0.207043	0.333401
C396	C	0.846731	0.540376	0.666735
H397	H	0.191726	-0.220536	0.000046
H398	H	0.525059	0.112797	0.333380
H399	H	0.858393	0.446130	0.666713
H400	H	0.127788	-0.186794	0.068606
H401	H	0.461121	0.146539	0.401940
H402	H	0.794454	0.479873	0.735273
H403	H	0.127744	-0.186730	-0.068312
H404	H	0.461077	0.146604	0.265021
H405	H	0.794410	0.479937	0.598355
H406	H	0.207566	-0.123346	0.068459
H407	H	0.540899	0.209988	0.401792
H408	H	0.874233	0.543321	0.735126
H409	H	0.207464	-0.123345	-0.068458
H410	H	0.540797	0.209989	0.264875
H411	H	0.874130	0.543322	0.598208
O412	O	0.772105	-0.654470	0.000197
O413	O	1.105438	-0.321136	0.333531
O414	O	1.438772	0.012197	0.666864
C415	C	0.833166	-0.595607	0.084913
C416	C	1.166500	-0.262273	0.418246
C417	C	1.499833	0.071060	0.751580
C418	C	0.775653	-0.620489	0.084848
C419	C	1.108986	-0.287156	0.418182
C420	C	1.442320	0.046177	0.751515
H421	H	0.836049	-0.568118	0.153336
H422	H	1.169382	-0.234785	0.486669
H423	H	1.502715	0.098548	0.820002
H424	H	0.869918	-0.632076	0.084981
H425	H	1.203251	-0.298743	0.418315
H426	H	1.536584	0.034590	0.751648
H427	H	0.836094	-0.568171	0.016420
H428	H	1.169428	-0.234838	0.349754
H429	H	1.502761	0.098495	0.683087
H430	H	0.772670	-0.647918	0.153329
H431	H	1.106003	-0.314584	0.486663
H432	H	1.439336	0.018749	0.819996
H433	H	0.738929	-0.583993	0.084729
H434	H	1.072263	-0.250660	0.418062
H435	H	1.405596	0.082674	0.751396
O436	O	0.778671	-0.108055	-0.000088
O437	O	1.112004	0.225278	0.333245
O438	O	1.445338	0.558612	0.666579
C439	C	0.867663	-0.101997	-0.084797
C440	C	1.200996	0.231336	0.248537
C441	C	1.534330	0.564670	0.581870
C442	C	0.810148	-0.126877	-0.084742
C443	C	1.143481	0.206457	0.248592
C444	C	1.476815	0.539790	0.581925
H445	H	0.893134	-0.117214	-0.153221
H446	H	1.226467	0.216119	0.180112
H447	H	1.559800	0.549453	0.513445
H448	H	0.859353	-0.053224	-0.084853
H449	H	1.192686	0.280109	0.248480
H450	H	1.526019	0.613443	0.581813
H451	H	0.893100	-0.117167	-0.016306
H452	H	1.226433	0.216166	0.317027
H453	H	1.559767	0.549500	0.650360
H454	H	0.784682	-0.111750	-0.153221
H455	H	1.118015	0.221583	0.180113
H456	H	1.451349	0.554916	0.513446
H457	H	0.818499	-0.175647	-0.084634
H458	H	1.151832	0.157686	0.248699
H459	H	1.485166	0.491019	0.582033
O460	O	0.092662	0.227659	0.000091
O461	O	0.425995	0.560992	0.333425
O462	O	0.759329	0.894325	0.666758
C463	C	-0.005114	0.272593	0.000021
C464	C	0.328219	0.605926	0.333354
C465	C	0.661552	0.939259	0.666687
C466	C	0.035363	0.215879	0.000006
C467	C	0.368696	0.549213	0.333340
C468	C	0.702029	0.882546	0.666673
H469	H	-0.051449	0.263089	-0.000069
H470	H	0.281884	0.596422	0.333264
H471	H	0.615218	0.929756	0.666598
H472	H	0.003032	0.298341	0.068491
H473	H	0.336365	0.631674	0.401824
H474	H	0.669699	0.965007	0.735158
H475	H	0.003114	0.298339	-0.068427
H476	H	0.336447	0.631672	0.264906
H477	H	0.669781	0.965005	0.598239
H478	H	0.027158	0.190088	0.068408
H479	H	0.360491	0.523421	0.401741
H480	H	0.693825	0.856754	0.735075
H481	H	0.027208	0.190175	-0.068509
H482	H	0.360541	0.523508	0.264824
H483	H	0.693874	0.856841	0.598157
H484	H	-0.167631	0.164417	0.000025
H485	H	0.165702	0.497750	0.333359
H486	H	0.499035	0.831084	0.666692
H487	H	0.762610	-0.765821	0.000017
H488	H	1.095943	-0.432487	0.333350
H489	H	1.429276	-0.099154	0.666684
O490	O	0.565944	-0.743599	-0.000039
O491	O	0.899277	-0.410266	0.333294
O492	O	1.232610	-0.076932	0.666627
C493	C	0.463020	-0.723281	0.000009
C494	C	0.796354	-0.389948	0.333343
C495	C	1.129687	-0.056614	0.666676
C496	C	0.520552	-0.698432	0.000047
C497	C	0.853885	-0.365099	0.333380
C498	C	1.187218	-0.031766	0.666714
H499	H	0.426306	-0.686776	0.000100
H500	H	0.759639	-0.353443	0.333433
H501	H	1.092972	-0.020110	0.666767
H502	H	0.460052	-0.750704	-0.068470
H503	H	0.793385	-0.417371	0.264863
H504	H	1.126719	-0.084038	0.598196
H505	H	0.460115	-0.750766	0.068448
H506	H	0.793449	-0.417433	0.401781
H507	H	1.126782	-0.084099	0.735115
H508	H	0.523495	-0.670922	-0.068345
H509	H	0.856829	-0.337589	0.264988
H510	H	1.190162	-0.004255	0.598321
H511	H	0.523496	-0.671042	0.068572
H512	H	0.856829	-0.337708	0.401905
H513	H	1.190162	-0.004375	0.735239
H514	H	0.575496	-0.632386	-0.000000
H515	H	0.908829	-0.299053	0.333333
H516	H	1.242162	0.034281	0.666666
H517	H	0.525555	-0.459814	-0.000028
H518	H	0.858889	-0.126481	0.333306
H519	H	1.192222	0.206853	0.666639
H520	H	0.486595	0.172252	-0.000009
H521	H	0.819928	0.505586	0.333324
H522	H	1.153261	0.838919	0.666658
H523	H	0.526850	-0.352065	-0.000021
H524	H	0.860183	-0.018732	0.333312
H525	H	1.193516	0.314601	0.666645
O526	O	0.572485	-0.197141	-0.000001
O527	O	0.905818	0.136192	0.333332
O528	O	1.239151	0.469525	0.666665
C529	C	0.469560	-0.176833	0.000033
C530	C	0.802894	0.156501	0.333366
C531	C	1.136227	0.489834	0.666699
C532	C	0.527089	-0.151978	0.000087
C533	C	0.860422	0.181355	0.333420
C534	C	1.193755	0.514688	0.666754
H535	H	0.432843	-0.140331	0.000125
H536	H	0.766176	0.193002	0.333458
H537	H	1.099510	0.526336	0.666791
H538	H	0.466598	-0.204252	-0.068454
H539	H	0.799932	0.129081	0.264879
H540	H	1.133265	0.462415	0.598213
H541	H	0.466654	-0.204323	0.068465
H542	H	0.799988	0.129010	0.401798
H543	H	1.133321	0.462344	0.735131
H544	H	0.530034	-0.124463	-0.068299
H545	H	0.863367	0.208871	0.265035
H546	H	1.196700	0.542204	0.598368
H547	H	0.530026	-0.124592	0.068619
H548	H	0.863360	0.208741	0.401952
H549	H	1.196693	0.542075	0.735285
H550	H	0.206274	0.220904	0.000035
H551	H	0.539607	0.554238	0.333369
H552	H	0.872940	0.887571	0.666702
H553	H	0.582043	-0.085909	0.000061
H554	H	0.915376	0.247424	0.333395
H555	H	1.248709	0.580758	0.666728
