data_functionalizedCrystal
_audit_creation_method	'MofGen! by Chris Wilmer'
_symmetry_space_group_name_H-M	'P1'
_symmetry_Int_Tables_number	1
_symmetry_cell_setting	triclinic
loop_
_symmetry_equiv_pos_as_xyz
  x,y,z
_cell_length_a	12.759401
_cell_length_b	18.215405
_cell_length_c	18.215399
_cell_angle_alpha	89.967040
_cell_angle_beta	89.985126
_cell_angle_gamma	90.026410
loop_
_atom_site_label
_atom_site_type_symbol
_atom_site_fract_x
_atom_site_fract_y
_atom_site_fract_z
Zn1	Zn	1.606129	-0.292944	-0.416064
Zn2	Zn	1.606008	-0.416021	-0.292992
Zn3	Zn	1.430446	-0.292976	-0.293016
Zn4	Zn	1.430389	-0.415977	-0.416022
O5	O	1.518243	-0.354480	-0.354524
O6	O	1.753134	-0.309276	-0.399747
O7	O	1.582692	-0.399730	-0.190011
O8	O	1.453826	-0.189988	-0.309366
O9	O	1.753045	-0.399700	-0.309326
O10	O	1.582900	-0.189964	-0.399769
O11	O	1.453708	-0.309330	-0.190028
O12	O	1.283418	-0.309287	-0.309325
O13	O	1.453728	-0.399625	-0.519011
O14	O	1.283375	-0.399656	-0.399696
O15	O	1.582843	-0.309233	-0.519043
O16	O	1.582636	-0.518999	-0.309285
O17	O	1.453610	-0.518967	-0.399674
C18	C	1.245276	-0.354471	-0.354509
C19	C	1.128499	-0.354484	-0.354520
C20	C	1.073642	-0.401611	-0.401503
C21	C	0.963918	-0.401614	-0.401517
C22	C	0.963917	-0.307362	-0.307560
C23	C	1.073639	-0.307356	-0.307550
C24	C	1.518132	-0.545686	-0.354488
C25	C	1.518181	-0.627485	-0.354498
C26	C	1.585522	-0.815671	-0.307519
C27	C	1.585569	-0.892530	-0.307536
C28	C	1.451098	-0.892536	-0.401581
C29	C	1.451057	-0.815679	-0.401567
C30	C	1.518268	-0.777248	-0.354531
C31	C	1.518356	-0.930964	-0.354564
C32	C	1.518406	-1.014298	-0.354583
C33	C	1.518219	-0.693909	-0.354512
C34	C	1.792276	-0.354489	-0.354539
C35	C	1.909053	-0.354493	-0.354545
C36	C	1.518293	-0.354421	-0.546477
C37	C	1.518314	-0.354396	-0.628275
C38	C	1.518383	-0.162527	-0.354575
C39	C	1.518443	-0.080728	-0.354597
C40	C	1.451209	-0.307292	-0.816479
C41	C	1.451227	-0.307278	-0.893338
C42	C	1.585545	-0.401411	-0.893310
C43	C	1.585520	-0.401429	-0.816452
C44	C	1.518354	-0.354366	-0.778039
C45	C	1.518396	-0.354333	-0.931755
C46	C	1.518417	-0.354317	-1.015089
C47	C	1.518332	-0.354382	-0.694700
C48	C	1.518254	-0.354485	-0.163317
C49	C	1.518436	-0.354303	-0.081519
H50	H	1.118306	-0.439984	-0.439750
C51	C	0.903581	-0.453463	-0.453195
N52	N	0.858136	-0.492521	-0.492119
C53	C	1.377158	-0.934817	-0.453309
N54	N	1.321461	-0.966662	-0.492269
C55	C	1.659551	-0.934791	-0.255816
N56	N	1.715276	-0.966622	-0.216857
C57	C	0.903561	-0.255527	-0.255892
N58	N	0.858102	-0.216485	-0.216973
C59	C	1.133985	-0.255510	-0.255863
N60	N	1.179437	-0.216461	-0.216935
H61	H	1.396549	-0.268946	-0.924633
C62	C	1.659462	-0.773400	-0.255782
N63	N	1.715158	-0.741564	-0.216815
C64	C	1.659193	-0.453339	-0.935571
N65	N	1.714583	-0.492511	-0.967401
C66	C	1.659408	-0.453203	-0.774165
N67	N	1.715064	-0.492193	-0.742315
H68	H	1.396290	-0.784393	-0.439853
C69	C	1.377315	-0.255527	-0.774228
N70	N	1.321653	-0.216538	-0.742406
