data_functionalizedCrystal
_audit_creation_method	'MofGen! by Chris Wilmer'
_symmetry_space_group_name_H-M	'P1'
_symmetry_Int_Tables_number	1
_symmetry_cell_setting	triclinic
loop_
_symmetry_equiv_pos_as_xyz
  x,y,z
_cell_length_a	16.959454
_cell_length_b	15.298073
_cell_length_c	16.959455
_cell_angle_alpha	80.297909
_cell_angle_beta	90.005969
_cell_angle_gamma	80.321429
loop_
_atom_site_label
_atom_site_type_symbol
_atom_site_fract_x
_atom_site_fract_y
_atom_site_fract_z
Zn1	Zn	-0.106073	-1.379191	0.656487
Zn2	Zn	-0.238228	-1.379125	0.524307
Zn3	Zn	-0.128888	-1.228351	0.501406
Zn4	Zn	-0.261054	-1.228288	0.633527
O5	O	-0.183561	-1.303739	0.578932
O6	O	-0.104503	-1.505436	0.658147
O7	O	-0.223719	-1.359124	0.410658
O8	O	-0.015243	-1.248414	0.522002
O9	O	-0.201596	-1.505387	0.561034
O10	O	0.001519	-1.359236	0.635940
O11	O	-0.143388	-1.248351	0.393833
O12	O	-0.165522	-1.102090	0.499739
O13	O	-0.240501	-1.248307	0.747184
O14	O	-0.262624	-1.102044	0.596807
O15	O	-0.126637	-1.359175	0.764053
O16	O	-0.351875	-1.359063	0.538771
O17	O	-0.368645	-1.248243	0.619014
C18	C	-0.219026	-1.069331	0.543297
C19	C	-0.234217	-0.969050	0.528071
C20	C	-0.075149	-0.686479	0.687717
C21	C	-0.060879	-0.780698	0.702028
C22	C	-0.104212	-0.827790	0.658539
C23	C	-0.161819	-0.780655	0.600739
C24	C	-0.176095	-0.686427	0.586432
C25	C	-0.205157	-0.827739	0.557254
C26	C	-0.262764	-0.780603	0.499454
C27	C	-0.277037	-0.686384	0.485149
C28	C	-0.233704	-0.639292	0.528637
C29	C	-0.190881	-0.921967	0.571561
C30	C	-0.291826	-0.921915	0.470276
C31	C	-0.306097	-0.827696	0.455966
C32	C	-0.388939	-1.303664	0.578907
C33	C	-0.476788	-1.303714	0.578935
C34	C	-0.857009	-1.246119	0.620722
C35	C	-0.839472	-1.361610	0.537260
C36	C	-0.756931	-1.361579	0.537248
C37	C	-0.724425	-1.303816	0.578973
C38	C	-0.774461	-1.246084	0.620709
C39	C	-0.706890	-1.419303	0.495506
C40	C	-0.624343	-1.419273	0.495492
C41	C	-0.591836	-1.361514	0.537221
C42	C	-0.641877	-1.303781	0.578960
C43	C	-0.609372	-1.246017	0.620684
C44	C	-0.659411	-1.188288	0.662428
C45	C	-0.741954	-1.188325	0.662439
C46	C	-0.509293	-1.361477	0.537211
C47	C	-0.526823	-1.245982	0.620672
C48	C	0.022622	-1.303840	0.578978
C49	C	0.110485	-1.303882	0.578997
C50	C	-0.183570	-1.303742	0.785100
C51	C	-0.183574	-1.303743	0.872957
C52	C	-0.147951	-0.539063	0.614699
C53	C	-0.132759	-0.639343	0.629922
C54	C	-0.242860	-1.246021	0.905450
C55	C	-0.124287	-1.361461	0.923017
C56	C	-0.124286	-1.361460	1.005563
C57	C	-0.183572	-1.303738	1.038056
C58	C	-0.242859	-1.246016	0.988003
C59	C	-0.064995	-1.419174	1.055621
C60	C	-0.064991	-1.419175	1.138172
C61	C	-0.124281	-1.361457	1.170667
C62	C	-0.183572	-1.303734	1.120609
C63	C	-0.242858	-1.246012	1.153102
C64	C	-0.302152	-1.188292	1.103045
C65	C	-0.302149	-1.188298	1.020498
C66	C	-0.124284	-1.361451	1.253215
C67	C	-0.242857	-1.246007	1.235654
C68	C	-0.183572	-1.303730	1.373564
C69	C	-0.183570	-1.303729	1.285707
H70	H	-0.013978	-0.819068	0.749091
H71	H	-0.782702	-1.141324	0.696423
H72	H	-0.500363	-1.198948	0.654652
H73	H	-0.291138	-1.199029	0.864691
H74	H	-0.039879	-0.648127	0.723124
H75	H	-0.245326	-0.562571	0.516994
H76	H	-0.733363	-1.466324	0.461530
H77	H	-0.468556	-1.408475	0.503219
H78	H	-0.323950	-0.648009	0.438090
H79	H	-0.353001	-0.789305	0.408904
H80	H	-0.350423	-1.141305	0.979735
H81	H	-0.076016	-1.408451	0.896555
H82	H	-0.327116	-0.960258	0.434868
H83	H	-0.143976	-0.960335	0.618622
H84	H	-0.016725	-1.466165	1.029158
H85	H	-0.016711	-1.466175	1.178921
H86	H	-0.092587	-0.904508	0.670192
H87	H	-0.632936	-1.141253	0.696396
H88	H	-0.897754	-1.199120	0.654711
H89	H	-0.865944	-1.408633	0.503285
H90	H	-0.583606	-1.466280	0.461503
H91	H	-0.291138	-1.199006	1.262104
H92	H	-0.350419	-1.141290	1.129511
H93	H	-0.076002	-1.408438	1.293965
