data_functionalizedCrystal
_audit_creation_method	'MofGen! by Chris Wilmer'
_symmetry_space_group_name_H-M	'P1'
_symmetry_Int_Tables_number	1
_symmetry_cell_setting	triclinic
loop_
_symmetry_equiv_pos_as_xyz
  x,y,z
_cell_length_a	18.215407
_cell_length_b	16.120484
_cell_length_c	18.215399
_cell_angle_alpha	92.869789
_cell_angle_beta	89.982632
_cell_angle_gamma	92.922890
loop_
_atom_site_label
_atom_site_type_symbol
_atom_site_fract_x
_atom_site_fract_y
_atom_site_fract_z
Zn1	Zn	1.110210	-0.331972	-0.430915
Zn2	Zn	1.610210	0.168028	0.069085
Zn3	Zn	1.103876	-0.471394	-0.314084
Zn4	Zn	1.603876	0.028606	0.185916
Zn5	Zn	0.987141	-0.331992	-0.307869
Zn6	Zn	1.487141	0.168008	0.192131
Zn7	Zn	0.980869	-0.471340	-0.437112
Zn8	Zn	1.480869	0.028660	0.062888
O9	O	1.045524	-0.401675	-0.372495
O10	O	1.545524	0.098325	0.127505
O11	O	1.212353	-0.350481	-0.415425
O12	O	1.712353	0.149519	0.084575
O13	O	1.088366	-0.452933	-0.210277
O14	O	1.588366	0.047067	0.289723
O15	O	1.008742	-0.215324	-0.318996
O16	O	1.508742	0.284676	0.181004
O17	O	1.207700	-0.452913	-0.329590
O18	O	1.707700	0.047087	0.170410
O19	O	1.099160	-0.215309	-0.409398
O20	O	1.599160	0.284691	0.090602
O21	O	1.002601	-0.350515	-0.205710
O22	O	1.502601	0.149485	0.294290
O23	O	0.883326	-0.350463	-0.325005
O24	O	1.383326	0.149537	0.174995
O25	O	0.998051	-0.452822	-0.539273
O26	O	1.498051	0.047178	-0.039273
O27	O	0.878717	-0.452841	-0.419960
O28	O	1.378717	0.047159	0.080040
O29	O	1.093078	-0.350429	-0.534720
O30	O	1.593078	0.149571	-0.034720
O31	O	1.082283	-0.588052	-0.335599
O32	O	1.582283	-0.088052	0.164401
O33	O	0.991910	-0.588013	-0.425987
O34	O	1.491910	-0.088013	0.074013
C35	C	0.854319	-0.401649	-0.372481
C36	C	1.354319	0.098351	0.127519
C37	C	0.772519	-0.401658	-0.372493
C38	C	1.272519	0.098342	0.127507
C39	C	0.586742	-0.348431	-0.417267
C40	C	1.086742	0.151569	0.082733
C41	C	0.509883	-0.348439	-0.417270
C42	C	1.009883	0.151561	0.082730
C43	C	0.505056	-0.454941	-0.327737
C44	C	1.005056	0.045059	0.172263
C45	C	0.581914	-0.454929	-0.327731
C46	C	1.081914	0.045071	0.172269
C47	C	0.622755	-0.401676	-0.372500
C48	C	1.122755	0.098324	0.127500
C49	C	0.469038	-0.401695	-0.372509
C50	C	0.969038	0.098305	0.127491
C51	C	0.385704	-0.401703	-0.372512
C52	C	0.885704	0.098297	0.127488
C53	C	0.706095	-0.401666	-0.372497
C54	C	1.206095	0.098334	0.127503
C55	C	1.035749	-0.618282	-0.382156
C56	C	1.535749	-0.118282	0.117844
C57	C	1.031634	-0.710948	-0.386314
C58	C	1.531634	-0.210948	0.113686
C59	C	1.024126	-0.880610	-0.393920
C60	C	1.524126	-0.380610	0.106080
C61	C	1.067053	-0.921899	-0.351082
C62	C	1.567053	-0.421899	0.148918
C63	C	1.062876	-1.016304	-0.355314
C64	C	1.562876	-0.516304	0.144686
C65	C	1.028303	-0.786196	-0.389689
C66	C	1.528303	-0.286196	0.110311
C67	C	1.237476	-0.401701	-0.372510
C68	C	1.737476	0.098299	0.127490
C69	C	1.319274	-0.401712	-0.372516
C70	C	1.819274	0.098288	0.127484
C71	C	1.045571	-0.401617	-0.564445
C72	C	1.545571	0.098383	-0.064445
C73	C	1.045591	-0.401593	-0.646243
C74	C	1.545591	0.098407	-0.146243
C75	C	1.055357	-0.184221	-0.362812
C76	C	1.555357	0.315779	0.137188
C77	C	1.059548	-0.091555	-0.358686
C78	C	1.559548	0.408445	0.141314
C79	C	1.095091	-0.348227	-0.832066
C80	C	1.595091	0.151773	-0.332066
C81	C	1.095101	-0.348203	-0.908923
C82	C	1.595101	0.151797	-0.408923
C83	C	0.996150	-0.454829	-0.913653
C84	C	1.496150	0.045171	-0.413653
C85	C	0.996137	-0.454849	-0.836797
C86	C	1.496137	0.045151	-0.336797
C87	C	1.045612	-0.401549	-0.796005
C88	C	1.545612	0.098451	-0.296005
C89	C	1.045634	-0.401505	-0.949719
C90	C	1.545634	0.098495	-0.449719
C91	C	1.045645	-0.401479	-1.033052
C92	C	1.545645	0.098521	-0.533052
C93	C	1.045601	-0.401573	-0.712667
C94	C	1.545601	0.098427	-0.212667
C95	C	1.045522	-0.401672	-0.181289
C96	C	1.545522	0.098328	0.318711
C97	C	1.045655	-0.401461	-0.099481
C98	C	1.545655	0.098539	0.400519
H99	H	0.480566	-0.305081	-0.453722
H100	H	0.980566	0.194919	0.046278
H101	H	0.984241	-0.916159	-0.433769
H102	H	1.484241	-0.416159	0.066231
H103	H	0.619993	-0.305066	-0.453718
H104	H	1.119993	0.194934	0.046282
Cl105	Cl	0.453708	-0.521888	-0.271462
Cl106	Cl	0.953708	-0.021888	0.228538
H107	H	0.955871	-0.498226	-0.946875
H108	H	1.455871	0.001774	-0.446875
H109	H	1.106941	-0.886347	-0.311229
H110	H	1.606941	-0.386347	0.188771
H111	H	0.611236	-0.498288	-0.291273
H112	H	1.111236	0.001712	0.208727
Cl113	Cl	1.157312	-0.281173	-0.954254
Cl114	Cl	1.657312	0.218827	-0.454254
H115	H	0.955840	-0.498269	-0.807436
H116	H	1.455840	0.001731	-0.307436
H117	H	1.135374	-0.304824	-0.798855
H118	H	1.635374	0.195176	-0.298855
