data_functionalizedCrystal
_audit_creation_method	'MofGen! by Chris Wilmer'
_symmetry_space_group_name_H-M	'P1'
_symmetry_Int_Tables_number	1
_symmetry_cell_setting	triclinic
loop_
_symmetry_equiv_pos_as_xyz
  x,y,z
_cell_length_a	16.109301
_cell_length_b	17.699092
_cell_length_c	15.186229
_cell_angle_alpha	89.997943
_cell_angle_beta	89.999006
_cell_angle_gamma	83.373976
loop_
_atom_site_label
_atom_site_type_symbol
_atom_site_fract_x
_atom_site_fract_y
_atom_site_fract_z
O1	O	1.102966	0.097285	-0.073177
O2	O	0.860884	0.109392	-0.073189
O3	O	0.988761	-0.006841	-0.073180
O4	O	0.975089	0.213517	-0.073185
O5	O	0.988752	-0.006842	0.073277
O6	O	0.860875	0.109390	0.073268
O7	O	1.102958	0.097283	0.073280
Zn8	Zn	0.981915	0.103336	0.096528
Zn9	Zn	0.981926	0.103339	-0.096436
O10	O	0.975081	0.213516	0.073272
C11	C	0.829905	0.108900	0.000038
C12	C	0.737613	0.107430	0.000034
C13	C	0.428506	0.171593	0.000048
C14	C	0.515224	0.172982	0.000042
C15	C	0.535330	0.035076	0.000034
C16	C	0.448614	0.033688	0.000032
C17	C	0.395203	0.101949	0.000044
C18	C	0.568638	0.104726	0.000040
C19	C	0.662661	0.106231	0.000034
C20	C	0.301174	0.100444	0.000048
C21	C	0.988265	-0.035039	0.000047
C22	C	0.986792	-0.119059	0.000043
C23	C	0.986107	-0.158526	-0.079792
C24	C	0.984717	-0.237471	-0.079793
C25	C	0.984019	-0.276948	0.000041
C26	C	0.984702	-0.237475	0.079882
C27	C	0.986086	-0.158530	0.079883
C28	C	0.979122	-0.555848	0.079883
C29	C	0.977740	-0.634798	0.079877
C30	C	0.977753	-0.634789	-0.079793
C31	C	0.979136	-0.555844	-0.079792
C32	C	0.979815	-0.516377	0.000048
C33	C	0.981320	-0.430776	0.000048
C34	C	0.982520	-0.362549	0.000042
C35	C	1.133936	0.097775	0.000051
C36	C	1.226229	0.099245	0.000050
C37	C	0.975576	0.241714	0.000043
C38	C	0.977049	0.325734	0.000041
N39	N	0.981913	0.103335	0.228220
N40	N	0.981934	0.103335	-0.228129
C41	C	1.038557	0.051884	0.453947
C42	C	1.038559	0.051882	0.546137
C43	C	0.925285	0.154787	0.546138
C44	C	0.925279	0.154785	0.453950
C45	C	0.981920	0.103334	0.407857
C46	C	0.981928	0.103335	0.592235
C47	C	0.981931	0.103333	0.692191
C48	C	0.981916	0.103335	0.307894
H49	H	0.542334	0.229693	0.000045
H50	H	0.879171	0.196679	0.583677
O51	O	0.864192	0.210282	0.404228
H52	H	0.824817	0.246068	0.451766
O53	O	0.592937	-0.038546	0.000028
H54	H	0.581103	-0.071880	0.059717
H55	H	1.084677	0.009986	0.583660
H56	H	0.385021	0.227176	0.000056
H57	H	0.979691	-0.523725	0.144894
O58	O	0.412685	-0.041431	0.000038
H59	H	0.464391	-0.088664	0.000046
H60	H	0.984163	-0.269603	-0.144803
O61	O	0.976992	-0.677375	0.165992
H62	H	0.975929	-0.738902	0.152575
H63	H	0.986680	-0.126391	-0.144803
O64	O	0.979879	-0.513262	-0.165898
H65	H	0.979158	-0.553969	-0.221415
H66	H	0.977196	-0.666932	-0.144803
O67	O	0.983965	-0.280049	0.165994
H68	H	0.982903	-0.341577	0.152583
H69	H	0.986632	-0.126396	0.144892
O70	O	1.099634	-0.003614	0.404227
H71	H	1.139011	-0.039396	0.451769
