data_functionalizedCrystal
_audit_creation_method	'MofGen! by Chris Wilmer'
_symmetry_space_group_name_H-M	'P1'
_symmetry_Int_Tables_number	1
_symmetry_cell_setting	triclinic
loop_
_symmetry_equiv_pos_as_xyz
  x,y,z
_cell_length_a	17.038272
_cell_length_b	19.188937
_cell_length_c	16.098538
_cell_angle_alpha	87.287428
_cell_angle_beta	92.930266
_cell_angle_gamma	87.129493
loop_
_atom_site_label
_atom_site_type_symbol
_atom_site_fract_x
_atom_site_fract_y
_atom_site_fract_z
O1	O	-1.040403	-0.148678	-0.069155
O2	O	-0.812780	-0.146270	-0.069180
O3	O	-0.933157	-0.046226	-0.069159
O4	O	-0.920026	-0.248721	-0.069176
O5	O	-0.926125	-0.052046	0.069353
O6	O	-0.805749	-0.152089	0.069332
O7	O	-1.033371	-0.154497	0.069356
Zn8	Zn	-0.918443	-0.154217	0.091336
Zn9	Zn	-0.927708	-0.146550	-0.091159
O10	O	-0.912994	-0.254540	0.069336
C11	C	-0.929215	-0.023099	0.000097
C12	C	-0.927936	0.054485	0.000097
C13	C	-0.780143	-0.146990	0.000073
C14	C	-0.693371	-0.140458	0.000064
C15	C	-0.915003	0.605139	0.075587
C16	C	-0.916196	0.532240	0.075591
C17	C	-0.920630	0.498955	0.000088
C18	C	-0.923850	0.538574	-0.075423
C19	C	-0.922649	0.611471	-0.075425
N20	N	-0.969850	0.389411	-0.056106
N21	N	-0.970992	0.320162	-0.056099
C22	C	-0.924247	0.279321	0.000089
N23	N	-0.876326	0.310345	0.056282
N24	N	-0.875187	0.379600	0.056278
C25	C	-0.921932	0.419911	0.000082
C26	C	-0.922315	0.160665	0.075600
C27	C	-0.923504	0.087765	0.075600
C28	C	-0.931166	0.094101	-0.075416
C29	C	-0.929969	0.167000	-0.075414
C30	C	-0.925548	0.200277	0.000096
C31	C	-1.066008	-0.153776	0.000102
C32	C	-1.152781	-0.160308	0.000105
C33	C	-0.643071	-0.200424	0.000060
C34	C	-0.561539	-0.194284	0.000072
C35	C	-0.530309	-0.128176	0.000082
C36	C	-0.580615	-0.068205	0.000089
C37	C	-0.662145	-0.074347	0.000083
C38	C	-0.284617	-0.106479	0.000106
C39	C	-0.203080	-0.100342	0.000110
C40	C	-0.184010	-0.226421	0.000094
C41	C	-0.265543	-0.232557	0.000083
C42	C	-0.315842	-0.172586	0.000094
C43	C	-0.446970	-0.121898	0.000092
C44	C	-0.399178	-0.178865	0.000091
N45	N	-0.912126	-0.159450	0.215884
C46	C	-0.916939	0.722332	0.000081
C47	C	-0.918228	0.644749	0.000085
N48	N	-0.934031	-0.141312	-0.215707
C49	C	-0.963237	-0.117005	0.259478
C50	C	-0.958826	-0.120672	0.346666
C51	C	-0.903306	-0.166789	0.390259
C52	C	-0.852189	-0.209236	0.346659
C53	C	-0.856598	-0.205564	0.259472
C54	C	-0.887323	-0.180087	0.653506
C55	C	-0.882920	-0.183757	0.740699
C56	C	-0.989556	-0.095192	0.740700
C57	C	-0.993963	-0.091527	0.653512
C58	C	-0.942844	-0.133972	0.609919
C59	C	-0.898796	-0.170540	0.479379
C60	C	-0.947350	-0.130216	0.520801
H61	H	-0.913556	0.499982	0.137075
H62	H	-0.927457	0.511469	-0.136898
H63	H	-0.290965	-0.286388	0.000065
H64	H	-0.925274	0.643722	-0.136909
H65	H	-0.806979	-0.246782	0.382157
H66	H	-0.555180	-0.014379	0.000109
N67	N	-1.044689	-0.049415	0.787716
H68	H	-1.033474	-0.058736	0.849563
H69	H	-1.036600	0.001288	0.772488
N70	N	-0.338861	-0.041800	0.000124
H71	H	-0.306703	0.001009	0.000130
H72	H	-0.375708	-0.039438	-0.051223
H73	H	-0.814976	-0.240126	0.223979
H74	H	-0.992552	-0.092665	0.485305
H75	H	-0.911402	0.632229	0.137073
N76	N	-0.920023	0.045038	0.157038
H77	H	-0.917043	0.077184	0.204869
H78	H	-0.968801	0.017435	0.160324
H79	H	-0.932600	0.199251	-0.136896
H80	H	-0.668492	-0.254256	0.000051
H81	H	-0.177656	-0.046506	0.000117
H82	H	-0.853592	-0.208091	0.514880
H83	H	-0.934766	0.067001	-0.136891
N84	N	-0.917543	0.196564	0.157037
H85	H	-0.915675	0.160406	0.204869
H86	H	-0.868433	0.223893	0.160321
H87	H	-0.520588	-0.243115	0.000067
H88	H	-0.421532	-0.068073	0.000124
H89	H	-1.039172	-0.053976	0.618020
N90	N	-0.129761	-0.291100	0.000083
H91	H	-0.073372	-0.277182	0.000089
H92	H	-0.137249	-0.321859	0.051428
H93	H	-0.703099	-0.025516	0.000086
N94	N	-0.432852	-0.250168	0.000078
H95	H	-0.463656	-0.257686	0.051421
H96	H	-0.468817	-0.253316	-0.051305
H97	H	-1.008451	-0.079455	0.223990
H98	H	-1.000444	-0.086110	0.382160
H99	H	-0.845701	-0.214648	0.618020
N100	N	-0.823043	-0.233506	0.787720
H101	H	-0.791328	-0.259839	0.746876
H102	H	-0.786752	-0.206238	0.823913
