data_functionalizedCrystal
_audit_creation_method	'MofGen! by Chris Wilmer'
_symmetry_space_group_name_H-M	'P1'
_symmetry_Int_Tables_number	1
_symmetry_cell_setting	triclinic
loop_
_symmetry_equiv_pos_as_xyz
  x,y,z
_cell_length_a	10.654559
_cell_length_b	15.995292
_cell_length_c	9.730223
_cell_angle_alpha	90.001861
_cell_angle_beta	89.999563
_cell_angle_gamma	83.978650
loop_
_atom_site_label
_atom_site_type_symbol
_atom_site_fract_x
_atom_site_fract_y
_atom_site_fract_z
O1	O	1.666254	0.117639	-0.114287
O2	O	1.300627	0.128835	-0.114287
O3	O	1.493473	0.001404	-0.114289
O4	O	1.473408	0.245069	-0.114285
O5	O	1.493471	0.001408	0.114291
O6	O	1.300625	0.128838	0.114293
O7	O	1.666251	0.117642	0.114293
Zn8	Zn	1.483438	0.123241	0.150585
Zn9	Zn	1.483441	0.123236	-0.150579
O10	O	1.473405	0.245073	0.114295
C11	C	1.253839	0.128013	0.000003
C12	C	1.114429	0.125549	0.000003
C13	C	1.063924	0.048203	0.000005
C14	C	0.932933	0.045892	-0.000005
C15	C	0.902962	0.198280	-0.000015
C16	C	1.033951	0.200590	-0.000014
C17	C	1.144402	-0.026838	0.000021
C18	C	1.093898	-0.104190	0.000025
C19	C	0.962907	-0.106501	0.000015
C20	C	0.882420	-0.031459	0.000001
C21	C	1.492655	-0.029794	-0.000002
C22	C	1.490207	-0.122762	-0.000013
C23	C	1.481206	-0.460552	-0.000000
C24	C	1.620397	-0.436429	0.000511
C25	C	1.623043	-0.339738	-0.000010
C26	C	1.485672	-0.292970	-0.000006
C27	C	1.416085	-0.322479	-0.130532
C28	C	1.414409	-0.419279	-0.130636
C29	C	1.411564	-0.419149	0.129302
C30	C	1.416722	-0.322627	0.131022
C31	C	1.488189	-0.198260	-0.000013
C32	C	1.478685	-0.555263	-0.000002
C33	C	1.713039	0.118464	0.000000
C34	C	1.852449	0.120928	-0.000008
C35	C	1.474223	0.276271	0.000006
C36	C	1.476671	0.369239	0.000007
N37	N	1.483445	0.123243	0.356122
N38	N	1.483443	0.123227	-0.356115
C39	C	1.568859	0.066836	0.428047
C40	C	1.568856	0.066826	0.571930
C41	C	1.398020	0.179637	0.571950
C42	C	1.398019	0.179643	0.428069
C43	C	1.654285	0.010436	0.356099
C44	C	1.739707	-0.045975	0.428024
C45	C	1.739704	-0.045985	0.571907
C46	C	1.654279	0.010416	0.643865
H47	H	0.921791	-0.169484	0.000004
H48	H	1.312353	-0.434425	-0.136547
H49	H	1.677542	-0.320394	0.093555
H50	H	1.328466	0.225574	0.369507
H51	H	1.674047	-0.464112	0.094116
H52	H	0.775759	-0.033347	-0.000020
H53	H	1.673751	-0.465137	-0.092570
H54	H	1.809249	-0.091922	0.630467
H55	H	1.654298	0.010441	0.238942
N56	N	0.820770	0.274936	-0.000028
N57	N	0.825365	0.326210	-0.096379
H58	H	0.767319	0.380350	-0.096385
N59	N	1.474868	-0.452562	-0.253045
N60	N	1.518007	-0.404276	-0.337803
H61	H	1.560710	-0.427778	-0.424258
N62	N	1.691819	-0.316256	-0.117596
N63	N	1.738004	-0.371313	-0.199539
H64	H	1.786579	-0.354731	-0.282592
N65	N	1.085571	0.279588	0.000003
N66	N	1.202527	0.281636	0.000005
H67	H	1.238986	0.337430	0.000013
H68	H	1.314998	-0.291201	-0.135382
H69	H	1.328472	0.225557	0.630547
H70	H	1.464410	-0.302138	-0.227671
N71	N	1.826940	-0.103587	0.354507
N72	N	1.826931	-0.103573	0.226044
H73	H	1.888539	-0.144264	0.174123
N74	N	1.466264	-0.454287	0.253405
N75	N	1.557250	-0.510279	0.248056
H76	H	1.595894	-0.535098	0.335697
N77	N	1.654250	0.010395	0.790838
N78	N	1.633495	-0.054430	0.855041
H79	H	1.633475	-0.054444	0.958840
N80	N	1.480297	-0.298964	0.252152
N81	N	1.576031	-0.260399	0.242124
H82	H	1.620936	-0.243683	0.327669
H83	H	1.316455	-0.290242	0.138908
N84	N	1.283037	-0.437451	0.130394
N85	N	1.242755	-0.480784	0.036458
H86	H	1.151986	-0.493714	0.037217
H87	H	1.251063	-0.024965	0.000034
H88	H	1.159439	-0.165285	0.000025
