data_functionalizedCrystal
_audit_creation_method	'MofGen! by Chris Wilmer'
_symmetry_space_group_name_H-M	'P1'
_symmetry_Int_Tables_number	1
_symmetry_cell_setting	triclinic
loop_
_symmetry_equiv_pos_as_xyz
  x,y,z
_cell_length_a	19.188905
_cell_length_b	18.266242
_cell_length_c	16.992695
_cell_angle_alpha	89.993686
_cell_angle_beta	93.098611
_cell_angle_gamma	90.016163
loop_
_atom_site_label
_atom_site_type_symbol
_atom_site_fract_x
_atom_site_fract_y
_atom_site_fract_z
O1	O	0.931882	0.061003	-0.097780
O2	O	1.431882	0.561003	0.402220
O3	O	0.729341	0.060978	-0.110976
O4	O	1.229341	0.560978	0.389024
O5	O	0.829799	0.060985	0.009762
O6	O	1.329799	0.560985	0.509762
O7	O	0.831423	0.060997	-0.218517
O8	O	1.331423	0.560997	0.281483
O9	O	0.829781	-0.060777	0.009768
O10	O	1.329781	0.439223	0.509768
O11	O	0.729322	-0.060784	-0.110969
O12	O	1.229322	0.439216	0.389031
O13	O	0.931864	-0.060759	-0.097774
O14	O	1.431864	0.439241	0.402226
Zn15	Zn	0.830590	-0.080104	-0.104371
Zn16	Zn	1.330590	0.419896	0.395629
Zn17	Zn	0.830614	0.080323	-0.104379
Zn18	Zn	1.330614	0.580323	0.395621
O19	O	0.831405	-0.060765	-0.218511
O20	O	1.331405	0.439235	0.281489
C21	C	0.703295	0.000094	-0.110548
C22	C	1.203295	0.500094	0.389452
C23	C	0.625715	0.000084	-0.109275
C24	C	1.125715	0.500084	0.390725
C25	C	0.589298	0.066459	-0.108667
C26	C	1.089298	0.566459	0.391333
C27	C	0.516404	0.066468	-0.107463
C28	C	1.016404	0.566468	0.392537
C29	C	0.479931	0.000099	-0.106850
C30	C	0.979931	0.500099	0.393150
C31	C	0.516357	-0.066284	-0.107463
C32	C	1.016357	0.433716	0.392537
C33	C	0.589249	-0.066292	-0.108675
C34	C	1.089249	0.433708	0.391325
N35	N	0.368181	-0.049296	-0.060332
N36	N	0.868181	0.450704	0.439668
N37	N	0.298937	-0.049284	-0.059178
N38	N	0.798937	0.450716	0.440822
C39	C	0.260310	0.000116	-0.103198
C40	C	0.760310	0.500116	0.396802
N41	N	0.293545	0.049516	-0.148406
N42	N	0.793545	0.549516	0.351594
N43	N	0.362796	0.049507	-0.149556
N44	N	0.862796	0.549507	0.350444
C45	C	0.400891	0.000099	-0.105536
C46	C	0.900891	0.500099	0.394464
C47	C	0.144853	0.066505	-0.101285
C48	C	0.644853	0.566505	0.398715
C49	C	0.071957	0.066511	-0.100085
C50	C	0.571957	0.566511	0.399915
C51	C	0.071912	-0.066243	-0.100077
C52	C	0.571912	0.433757	0.399923
C53	C	0.144806	-0.066247	-0.101285
C54	C	0.644806	0.433753	0.398715
C55	C	0.181272	0.000129	-0.101885
C56	C	0.681272	0.500129	0.398115
N57	N	0.830578	-0.189591	-0.104365
N58	N	1.330578	0.310409	0.395635
C59	C	0.875079	-0.227896	-0.050928
C60	C	1.375079	0.272104	0.449072
C61	C	0.875083	-0.304541	-0.050924
C62	C	1.375083	0.195459	0.449076
C63	C	0.830594	-0.342877	-0.104371
C64	C	1.330594	0.157123	0.395629
C65	C	0.786085	-0.304562	-0.157811
C66	C	1.286085	0.195438	0.342189
C67	C	0.786077	-0.227919	-0.157808
C68	C	1.286077	0.272081	0.342192
N69	N	0.825580	-0.463207	-0.173769
N70	N	1.325580	0.036793	0.326231
N71	N	0.825591	-0.536015	-0.173770
N72	N	1.325591	-0.036015	0.326230
C73	C	0.830614	-0.573800	-0.104382
C74	C	1.330614	-0.073800	0.395618
N75	N	0.835639	-0.536026	-0.034992
N76	N	1.335639	-0.036026	0.465008
N77	N	0.835631	-0.463211	-0.034992
N78	N	1.335631	0.036789	0.465008
C79	C	0.830598	-0.425984	-0.104380
C80	C	1.330598	0.074016	0.395620
C81	C	0.875122	-0.695213	-0.050937
C82	C	1.375122	-0.195213	0.449063
C83	C	0.875121	-0.771859	-0.050932
C84	C	1.375121	-0.271859	0.449068
C85	C	0.786127	-0.771879	-0.157826
C86	C	1.286127	-0.271879	0.342174
C87	C	0.786124	-0.695234	-0.157824
C88	C	1.286124	-0.195234	0.342176
C89	C	0.830625	-0.656906	-0.104380
C90	C	1.330625	-0.156906	0.395620
C91	C	0.957909	0.000127	-0.098201
C92	C	1.457909	0.500127	0.401799
C93	C	1.035489	0.000141	-0.099474
C94	C	1.535489	0.500141	0.400526
C95	C	0.827701	0.000104	0.038970
C96	C	1.327701	0.500104	0.538970
C97	C	0.821468	0.000103	0.125993
C98	C	1.321468	0.500103	0.625993
N99	N	0.830631	0.189810	-0.104378
N100	N	1.330631	0.689810	0.395622
C101	C	0.833503	0.000117	-0.247720
C102	C	1.333503	0.500117	0.252280
C103	C	0.839736	0.000123	-0.334742
C104	C	1.339736	0.500123	0.165258
C105	C	0.881608	0.000110	0.176445
C106	C	1.381608	0.500110	0.676445
C107	C	0.875747	0.000116	0.258211
C108	C	1.375747	0.500116	0.758211
C109	C	0.809746	0.000110	0.289523
C110	C	1.309746	0.500110	0.789523
C111	C	0.749602	0.000106	0.239064
C112	C	1.249602	0.500106	0.739064
C113	C	0.755463	0.000105	0.157299
C114	C	1.255463	0.500105	0.657299
C115	C	0.785453	0.000117	0.533035
C116	C	1.285453	0.500117	1.033035
C117	C	0.779596	0.000116	0.614806
C118	C	1.279596	0.500116	1.114806
C119	C	0.905743	0.000128	0.633948
C120	C	1.405743	0.500128	1.133948
C121	C	0.911598	0.000122	0.552181
C122	C	1.411598	0.500122	1.052181
C123	C	0.851454	0.000122	0.501729
C124	C	1.351454	0.500122	1.001729
N125	N	0.803754	0.000114	0.373100
N126	N	1.303754	0.500114	0.873100
N127	N	0.857446	0.000123	0.418153
N128	N	1.357446	0.500123	0.918153
H129	H	0.618900	-0.120343	-0.109171
H130	H	1.118900	0.379657	0.390829
H131	H	0.486656	-0.120323	-0.106966
H132	H	0.986656	0.379677	0.393034
H133	H	0.935353	0.000110	0.150958
H134	H	1.435353	0.500110	0.650958
H135	H	0.911321	-0.335736	-0.007408
H136	H	1.411321	0.164264	0.492592
H137	H	0.042216	-0.120282	-0.099583
H138	H	0.542216	0.379718	0.400417
H139	H	0.924720	0.000120	0.299287
H140	H	1.424720	0.500120	0.799287
H141	H	0.174458	-0.120297	-0.101775
H142	H	0.674458	0.379703	0.398225
H143	H	0.749901	-0.803091	-0.201340
H144	H	1.249901	-0.303091	0.298660
H145	H	0.749891	-0.664043	-0.201340
H146	H	1.249891	-0.164043	0.298660
H147	H	0.749839	-0.196729	-0.201323
H148	H	1.249839	0.303271	0.298677
H149	H	0.725847	0.000100	0.640295
H150	H	1.225847	0.500100	1.140295
H151	H	0.911355	-0.664005	-0.007418
H152	H	1.411355	-0.164005	0.492582
H153	H	0.749861	-0.335779	-0.201327
H154	H	1.249861	0.164221	0.298673
H155	H	0.965343	0.000127	0.526694
H156	H	1.465343	0.500127	1.026694
H157	H	0.954708	0.000129	0.675034
H158	H	1.454708	0.500129	1.175034
H159	H	0.486747	0.120519	-0.106969
H160	H	0.986747	0.620519	0.393031
H161	H	0.736479	0.000117	0.491966
H162	H	1.236479	0.500117	0.991966
H163	H	0.911312	-0.196692	-0.007409
H164	H	1.411312	0.303308	0.492591
H165	H	0.174545	0.120552	-0.101782
H166	H	0.674545	0.620552	0.398218
H167	H	0.695862	0.000106	0.264564
H168	H	1.195862	0.500106	0.764564
H169	H	0.911356	-0.803049	-0.007414
H170	H	1.411356	-0.303049	0.492586
H171	H	0.706491	0.000100	0.116221
H172	H	1.206491	0.500100	0.616221
H173	H	0.618984	0.120507	-0.109156
H174	H	1.118984	0.620507	0.390844
H175	H	0.042307	0.120563	-0.099594
H176	H	0.542307	0.620563	0.400406
