data_functionalizedCrystal
_audit_creation_method	'MofGen! by Chris Wilmer'
_symmetry_space_group_name_H-M	'P1'
_symmetry_Int_Tables_number	1
_symmetry_cell_setting	triclinic
loop_
_symmetry_equiv_pos_as_xyz
  x,y,z
_cell_length_a	10.654562
_cell_length_b	22.010155
_cell_length_c	10.654559
_cell_angle_alpha	90.004797
_cell_angle_beta	84.489374
_cell_angle_gamma	90.018528
loop_
_atom_site_label
_atom_site_type_symbol
_atom_site_fract_x
_atom_site_fract_y
_atom_site_fract_z
O1	O	1.667858	0.050566	0.176471
O2	O	1.302383	0.050558	0.193261
O3	O	1.493517	0.050558	0.002128
O4	O	1.476723	0.050567	0.367604
O5	O	1.493459	-0.050493	0.002127
O6	O	1.302324	-0.050492	0.193260
O7	O	1.667800	-0.050485	0.176471
Cu8	Cu	1.485057	-0.059715	0.184865
Cu9	Cu	1.485126	0.059789	0.184866
O10	O	1.476665	-0.050484	0.367603
C11	C	1.255556	0.000032	0.192024
C12	C	1.116113	0.000029	0.188326
C13	C	1.050551	-0.055049	0.186601
C14	C	0.919528	-0.055039	0.183136
C15	C	0.919642	0.055132	0.183127
C16	C	1.050663	0.055121	0.186583
C17	C	1.050483	-0.118655	0.186611
C18	C	0.919461	-0.118645	0.183146
N19	N	1.485018	-0.143767	0.184864
C20	C	1.561962	-0.563543	0.261736
C21	C	1.561977	-0.627151	0.261733
O22	O	1.627353	-0.660039	0.327084
N23	N	1.485150	-0.658975	0.184852
C24	C	1.408313	-0.627187	0.107959
O25	O	1.342968	-0.660097	0.042565
C26	C	1.408306	-0.563581	0.107956
C27	C	1.485128	-0.531761	0.184852
C28	C	1.638779	-0.531723	0.338624
C29	C	1.638762	-0.468120	0.338629
C30	C	1.561929	-0.436337	0.261745
C31	C	1.485111	-0.468157	0.184857
C32	C	1.331476	-0.531795	0.031058
C33	C	1.331477	-0.468184	0.031061
C34	C	1.408299	-0.436364	0.107957
C35	C	1.408261	-0.372771	0.107977
N36	N	1.485087	-0.340948	0.184858
C37	C	1.561921	-0.372730	0.261742
C38	C	1.408336	-0.760765	0.107969
C39	C	1.408335	-0.824370	0.107978
C40	C	1.562001	-0.824330	0.261750
C41	C	1.561994	-0.760723	0.261748
C42	C	1.485163	-0.728941	0.184851
C43	C	1.561879	-0.239159	0.261746
C44	C	1.561852	-0.175550	0.261748
C45	C	1.408191	-0.175597	0.107971
C46	C	1.408213	-0.239200	0.107974
C47	C	1.485068	-0.270980	0.184865
O48	O	1.342922	-0.339842	0.042656
O49	O	1.627268	-0.339813	0.327113
C50	C	1.714627	0.000043	0.177707
C51	C	1.854070	0.000050	0.181405
C52	C	1.492253	0.000032	-0.044670
C53	C	1.488556	0.000033	-0.184113
N54	N	1.485175	0.143841	0.184858
C55	C	1.483387	0.055126	-0.380630
C56	C	1.486857	0.055119	-0.249608
C57	C	1.486799	-0.055051	-0.249648
C58	C	1.483339	-0.055044	-0.380669
C59	C	1.483415	0.118732	-0.380605
C60	C	1.486884	0.118726	-0.249583
C61	C	1.477930	0.000043	0.414402
C62	C	1.481626	0.000046	0.553844
H63	H	1.624462	-0.265027	0.324358
N64	N	1.362119	0.144876	-0.419815
H65	H	1.317474	0.113187	-0.467761
H66	H	1.306139	0.157508	-0.342335
H67	H	1.345643	-0.265109	0.045375
N68	N	0.849050	0.114550	0.181241
H69	H	0.756100	0.106201	0.178784
H70	H	0.862481	0.138608	0.259561
N71	N	1.111748	-0.151004	0.071640
H72	H	1.206276	-0.151026	0.074090
H73	H	1.080132	-0.194253	0.070828
N74	N	1.325335	-0.141311	0.025037
H75	H	1.336999	-0.096189	0.036705
H76	H	1.349380	-0.152429	-0.066070
N77	N	0.858120	-0.150983	0.298112
H78	H	0.925250	-0.165417	0.351919
H79	H	0.799280	-0.122126	0.348480
H80	H	1.578492	0.138465	-0.219997
H81	H	1.701325	-0.442217	0.401240
N82	N	1.488650	-0.114465	-0.179006
H83	H	1.412372	-0.116927	-0.115150
H84	H	1.487056	-0.149323	-0.240482
H85	H	0.889859	-0.138384	0.091552
N86	N	1.598395	0.151084	-0.441900
H87	H	1.652208	0.165513	-0.374750
H88	H	1.648751	0.122236	-0.500776
H89	H	1.080050	-0.138388	0.278206
N90	N	1.371940	0.151058	-0.188237
H91	H	1.371067	0.194329	-0.219686
H92	H	1.293391	0.129395	-0.210227
N93	N	1.721645	-0.565994	0.421572
H94	H	1.710006	-0.611119	0.409925
H95	H	1.812765	-0.554858	0.397617
N96	N	1.121384	0.114526	0.188411
H97	H	1.060037	0.149426	0.186780
H98	H	1.166265	0.116933	0.267558
N99	N	1.644717	-0.141227	0.344680
H100	H	1.620745	-0.152300	0.435827
H101	H	1.735846	-0.152293	0.320646
N102	N	1.644857	-0.726402	0.344672
H103	H	1.620880	-0.737471	0.435820
H104	H	1.735984	-0.737473	0.320643
N105	N	1.644876	-0.858616	0.344678
H106	H	1.633220	-0.903738	0.333002
H107	H	1.735996	-0.847483	0.320716
H108	H	1.345764	-0.850273	0.045377
N109	N	1.481466	-0.114451	-0.451349
H110	H	1.483076	-0.149349	-0.389979
H111	H	1.402313	-0.116855	-0.496223
N112	N	1.325456	-0.726488	0.025032
H113	H	1.276792	-0.756304	-0.023664
H114	H	1.264530	-0.700107	0.079214
H115	H	1.268921	-0.557692	-0.031560
H116	H	1.268910	-0.442311	-0.031560
