data_functionalizedCrystal
_audit_creation_method	'MofGen! by Chris Wilmer'
_symmetry_space_group_name_H-M	'P1'
_symmetry_Int_Tables_number	1
_symmetry_cell_setting	triclinic
loop_
_symmetry_equiv_pos_as_xyz
  x,y,z
_cell_length_a	12.759401
_cell_length_b	12.645330
_cell_length_c	12.759393
_cell_angle_alpha	90.032183
_cell_angle_beta	90.019465
_cell_angle_gamma	90.012318
loop_
_atom_site_label
_atom_site_type_symbol
_atom_site_fract_x
_atom_site_fract_y
_atom_site_fract_z
Zn1	Zn	1.606270	-0.421986	0.594004
Zn2	Zn	1.606171	-0.599290	0.418322
Zn3	Zn	1.430572	-0.422040	0.418340
Zn4	Zn	1.430567	-0.599207	0.593961
O5	O	1.518395	-0.510631	0.506157
O6	O	1.753278	-0.445518	0.570710
O7	O	1.582838	-0.575835	0.271304
O8	O	1.453923	-0.273686	0.441668
O9	O	1.753205	-0.575782	0.441637
O10	O	1.583007	-0.273646	0.570728
O11	O	1.453826	-0.445610	0.271317
O12	O	1.283551	-0.445529	0.441626
O13	O	1.453914	-0.575641	0.740988
O14	O	1.283547	-0.575693	0.570654
O15	O	1.583002	-0.445437	0.741019
O16	O	1.582833	-0.747626	0.441595
O17	O	1.453818	-0.747565	0.570636
C18	C	1.245428	-0.510609	0.506138
C19	C	1.128651	-0.510625	0.506155
C20	C	1.518343	-0.786061	0.506132
C21	C	1.518416	-0.903891	0.506156
C22	C	0.964028	-0.578372	0.438875
C23	C	1.073752	-0.578350	0.438857
C24	C	1.073821	-0.442909	0.573468
C25	C	0.964099	-0.442926	0.573479
C26	C	0.909134	-0.646109	0.371580
C27	C	0.963957	-0.713824	0.304266
C28	C	1.073681	-0.713803	0.304248
C29	C	1.128582	-0.646066	0.371544
C30	C	1.599449	-1.071449	0.424812
C31	C	1.599713	-0.948888	0.425011
C32	C	1.548444	-0.948263	0.616901
C33	C	1.549087	-1.070861	0.616469
C34	C	1.407324	-1.071220	0.477848
C35	C	1.407856	-0.948616	0.475364
C36	C	1.792429	-0.510654	0.506176
C37	C	1.909205	-0.510663	0.506185
C38	C	1.518469	-0.510524	0.780190
C39	C	1.518500	-0.510478	0.896967
C40	C	1.518477	-0.234126	0.506205
C41	C	1.518511	-0.116295	0.506225
C42	C	1.518382	-0.510661	0.233189
C43	C	1.518555	-0.510408	0.116413
C44	C	1.585726	-0.442675	0.951847
C45	C	1.585751	-0.442637	1.061571
C46	C	1.451322	-0.578214	1.061525
C47	C	1.451292	-0.578246	0.951803
C48	C	1.652934	-0.374907	0.897011
C49	C	1.720166	-0.307099	0.951892
C50	C	1.720191	-0.307060	1.061616
C51	C	1.652984	-0.374830	1.116459
H52	H	0.819792	-0.646136	0.371589
C53	C	1.325852	-1.110405	0.557950
N54	N	1.264496	-1.139926	0.618286
H55	H	1.118530	-0.387762	0.628258
C56	C	1.794084	-0.232551	0.891562
N57	N	1.849761	-0.176401	0.846122
H58	H	0.919461	-0.387787	0.628284
C59	C	1.574294	-0.908363	0.314085
N60	N	1.555138	-0.877844	0.230533
C61	C	1.133983	-0.788285	0.230197
N62	N	1.179401	-0.844391	0.174424
H63	H	1.217927	-0.646047	0.371517
H64	H	0.919250	-0.768967	0.249471
H65	H	1.580897	-1.101009	0.342456
C66	C	1.710106	-1.112981	0.449867
N67	N	1.793449	-1.144273	0.468736
H68	H	1.652923	-0.374933	0.807668
H69	H	1.682066	-0.919479	0.443781
H70	H	1.396605	-0.633389	1.106188
H71	H	1.774926	-0.251840	1.106296
C72	C	1.658887	-1.109380	0.648930
N73	N	1.741592	-1.138388	0.673375
C74	C	1.377346	-0.652839	0.891431
N75	N	1.321647	-0.709024	0.845959
C76	C	1.472916	-1.110935	0.701221
N77	N	1.415553	-1.141114	0.765062
C78	C	1.377259	-0.909439	0.365269
N79	N	1.354213	-0.879921	0.282347
H80	H	1.491287	-0.919111	0.679185
C81	C	1.657005	-0.906678	0.649914
N82	N	1.738777	-0.875360	0.674773
H83	H	1.380017	-1.102236	0.398499
C84	C	1.321988	-0.907249	0.549597
N85	N	1.257315	-0.876092	0.605518
C86	C	1.653010	-0.374779	1.237160
N87	N	1.653034	-0.374742	1.328070
