data_functionalizedCrystal
_audit_creation_method	'MofGen! by Chris Wilmer'
_symmetry_space_group_name_H-M	'P1'
_symmetry_Int_Tables_number	1
_symmetry_cell_setting	triclinic
loop_
_symmetry_equiv_pos_as_xyz
  x,y,z
_cell_length_a	8.497374
_cell_length_b	12.759401
_cell_length_c	12.759399
_cell_angle_alpha	90.016641
_cell_angle_beta	89.991562
_cell_angle_gamma	89.998247
loop_
_atom_site_label
_atom_site_type_symbol
_atom_site_fract_x
_atom_site_fract_y
_atom_site_fract_z
Zn1	Zn	0.891958	-1.606064	0.418406
Zn2	Zn	0.628160	-1.606013	0.594052
Zn3	Zn	0.628185	-1.430422	0.418393
Zn4	Zn	0.891892	-1.430354	0.594048
O5	O	0.760048	-1.518213	0.506225
O6	O	0.856982	-1.753079	0.441713
O7	O	0.407401	-1.582728	0.570747
O8	O	0.663213	-1.453771	0.271373
O9	O	0.663171	-1.753041	0.570760
O10	O	0.857005	-1.582815	0.271383
O11	O	0.407419	-1.453722	0.441691
O12	O	0.663149	-1.283392	0.441686
O13	O	1.112663	-1.453655	0.570752
O14	O	0.856893	-1.283342	0.570739
O15	O	1.112711	-1.582749	0.441709
O16	O	0.663107	-1.582661	0.741073
O17	O	0.856869	-1.453605	0.741069
C18	C	0.760017	-1.245246	0.506212
C19	C	0.760041	-1.128469	0.506232
C20	C	0.760013	-1.518149	0.779192
C21	C	0.760050	-1.518217	0.895969
C22	C	0.760081	-1.792246	0.506238
C23	C	0.760095	-1.909023	0.506244
C24	C	1.171529	-1.518205	0.506226
C25	C	1.350173	-1.518208	0.506237
C26	C	0.760119	-1.518307	0.232191
C27	C	0.760149	-1.518346	0.115415
C28	C	0.860765	-1.073609	0.573532
C29	C	0.860796	-0.963885	0.573536
C30	C	0.659366	-0.963891	0.438937
C31	C	0.659344	-1.073613	0.438928
C32	C	0.659273	-1.585494	0.950797
C33	C	0.659326	-1.585561	1.060521
C34	C	0.860938	-1.451067	1.060578
C35	C	0.860891	-1.451006	0.950856
H36	H	0.942818	-0.919222	0.628337
H37	H	0.577164	-1.640223	0.906111
C38	C	0.548597	-0.903542	0.364914
C39	C	0.617190	-0.828131	0.282515
C40	C	0.506416	-0.767783	0.208493
C41	C	0.327049	-0.782846	0.216871
C42	C	0.258446	-0.858261	0.299274
C43	C	0.369220	-0.918609	0.373295
H44	H	0.749977	-0.816977	0.276310
H45	H	0.557202	-0.711955	0.147493
H46	H	0.245048	-0.738172	0.162076
H47	H	0.125659	-0.869414	0.305479
H48	H	0.318435	-0.974436	0.434296
C49	C	0.548532	-1.133966	0.364896
C50	C	0.561713	-1.118908	0.245474
C51	C	0.450909	-1.179260	0.171444
C52	C	0.326925	-1.254670	0.216836
C53	C	0.313739	-1.269731	0.336264
C54	C	0.424543	-1.209379	0.410294
H55	H	0.653498	-1.063082	0.211867
H56	H	0.460670	-1.168110	0.083036
H57	H	0.244901	-1.299346	0.162034
H58	H	0.221954	-1.325557	0.369871
H59	H	0.414781	-1.220529	0.498702
H60	H	0.577265	-1.640346	1.105158
C61	C	0.971853	-1.377133	1.120957
C62	C	0.971907	-1.377195	1.241647
C63	C	1.082824	-1.303258	1.302024
C64	C	1.193686	-1.229260	1.241710
C65	C	1.193635	-1.229195	1.121013
C66	C	1.082719	-1.303132	1.060637
H67	H	0.889837	-1.431975	1.286301
H68	H	1.082861	-1.303306	1.391372
H69	H	1.275793	-1.174527	1.286404
H70	H	1.275706	-1.174415	1.076359
H71	H	1.082682	-1.303084	0.971289
H72	H	0.942763	-1.118269	0.628332
H73	H	0.942964	-1.396221	0.906212
