data_functionalizedCrystal
_audit_creation_method	'MofGen! by Chris Wilmer'
_symmetry_space_group_name_H-M	'P1'
_symmetry_Int_Tables_number	1
_symmetry_cell_setting	triclinic
loop_
_symmetry_equiv_pos_as_xyz
  x,y,z
_cell_length_a	10.489741
_cell_length_b	17.038272
_cell_length_c	8.965430
_cell_angle_alpha	90.000179
_cell_angle_beta	89.998843
_cell_angle_gamma	87.825365
loop_
_atom_site_label
_atom_site_type_symbol
_atom_site_fract_x
_atom_site_fract_y
_atom_site_fract_z
O1	O	1.704377	0.110369	-0.123948
O2	O	1.334150	0.120730	-0.123972
O3	O	1.517063	0.001722	-0.123948
O4	O	1.521464	0.229378	-0.123972
O5	O	1.517047	0.001729	0.124130
O6	O	1.334134	0.120738	0.124107
O7	O	1.704361	0.110377	0.124130
Cu8	Cu	1.519246	0.115558	0.146770
Cu9	Cu	1.519265	0.115549	-0.146612
O10	O	1.521448	0.229386	0.124107
C11	C	1.286537	0.119951	0.000065
C12	C	1.144689	0.117610	0.000056
C13	C	1.069466	0.041889	0.000078
C14	C	0.980693	0.077655	-0.122238
C15	C	0.980713	0.077681	0.122348
C16	C	1.057784	0.153408	-0.122361
C17	C	1.057813	0.153423	0.122335
C18	C	0.969072	0.189244	-0.000011
C19	C	1.513053	-0.027426	0.000091
C20	C	1.501111	-0.114288	0.000089
C21	C	1.610749	-0.163767	0.000098
C22	C	1.599521	-0.245383	0.000083
C23	C	1.478654	-0.277518	0.000070
C24	C	1.369007	-0.228032	0.000057
C25	C	1.380237	-0.146418	0.000062
C26	C	1.438983	-0.523505	0.000047
C27	C	1.427762	-0.605126	0.000048
C28	C	1.658277	-0.622471	0.000071
C29	C	1.669495	-0.540855	0.000084
C30	C	1.559849	-0.491376	0.000063
C31	C	1.467174	-0.360942	0.000060
C32	C	1.571330	-0.407954	0.000063
C33	C	1.751974	0.111156	0.000091
C34	C	1.893822	0.113497	0.000089
C35	C	1.525458	0.258533	0.000065
C36	C	1.537400	0.345395	0.000056
N37	N	1.519243	0.115564	0.353119
N38	N	1.519278	0.115537	-0.352961
C39	C	1.434622	0.170583	0.450415
C40	C	1.551599	0.186413	0.549834
C41	C	1.402315	0.099741	0.549828
C42	C	1.636282	0.131430	0.450350
C43	C	1.486918	0.044727	0.450335
C44	C	1.603976	0.060527	0.549709
H45	H	0.946688	0.045612	-0.225643
H46	H	1.735209	0.144873	0.406837
H47	H	1.091613	0.185419	-0.225887
H48	H	1.270594	-0.254202	0.000038
H49	H	1.578963	0.246307	0.593538
H50	H	1.675635	0.013985	0.593034
O51	O	1.454014	-0.026672	0.398211
C52	C	1.293528	-0.124084	0.389743
C53	C	1.330637	-0.043207	0.448848
H54	H	1.193787	-0.137485	0.430685
H55	H	1.294663	-0.123563	0.262595
H56	H	1.364718	-0.171109	0.432281
H57	H	1.259484	0.003863	0.406421
H58	H	1.329542	-0.043795	0.575994
O59	O	1.284236	0.083875	0.601775
C60	C	1.061595	0.124008	0.610302
C61	C	1.195244	0.142050	0.551353
H62	H	0.989613	0.171040	0.569585
H63	H	1.033230	0.064106	0.567621
H64	H	1.063020	0.123547	0.737445
H65	H	1.193921	0.142554	0.424214
H66	H	1.223556	0.201940	0.594148
H67	H	1.363135	0.217154	0.406817
O68	O	1.787004	-0.509771	0.000035
C69	C	2.014458	-0.535591	0.000171
C70	C	1.881458	-0.570897	0.000176
H71	H	2.090859	-0.584994	0.000317
H72	H	2.025579	-0.497839	-0.103666
H73	H	2.025390	-0.497792	0.103976
H74	H	1.870434	-0.608731	-0.103559
H75	H	1.870397	-0.608603	0.104081
H76	H	1.290957	-0.106132	0.000054
H77	H	1.113334	-0.020359	-0.000069
O78	O	1.098265	0.191722	0.245654
C79	C	1.091090	0.312268	0.386484
C80	C	1.045152	0.268990	0.246768
H81	H	1.048189	0.374752	0.387414
H82	H	1.059577	0.279967	0.490743
H83	H	1.199601	0.314137	0.384674
H84	H	0.936645	0.267110	0.248433
H85	H	1.076760	0.301307	0.142570
O86	O	0.940331	0.039346	0.245674
C87	C	0.945763	-0.081690	0.384959
C88	C	0.991610	-0.038356	0.245262
H89	H	0.987180	-0.144524	0.384656
H90	H	0.978930	-0.050074	0.489249
H91	H	0.837147	-0.082561	0.384339
H92	H	1.100220	-0.037472	0.245737
H93	H	0.958347	-0.069987	0.141034
H94	H	1.709172	-0.137610	0.000117
H95	H	0.925476	0.251558	-0.000084
H96	H	1.688801	-0.285666	0.000093
H97	H	1.329333	-0.631286	0.000062
O98	O	1.332380	-0.475532	-0.000154
C99	C	1.138830	-0.435714	-0.128721
C100	C	1.259497	-0.490104	-0.128666
H101	H	1.079884	-0.447464	-0.232627
H102	H	1.079698	-0.447497	-0.024971
H103	H	1.167631	-0.371866	-0.128647
H104	H	1.230811	-0.553971	-0.128792
H105	H	1.318600	-0.478252	-0.232406
O106	O	1.688667	-0.376649	-0.000124
C107	C	1.835152	-0.294600	-0.128668
C108	C	1.702220	-0.329996	-0.128632
H109	H	1.846163	-0.256887	-0.232572
H110	H	1.846176	-0.256771	-0.024916
H111	H	1.911573	-0.343993	-0.128584
H112	H	1.625719	-0.280654	-0.128769
H113	H	1.691306	-0.367845	-0.232375
O114	O	1.349695	-0.392065	0.000254
C115	C	1.149265	-0.402260	0.128810
C116	C	1.282257	-0.366945	0.128765
H117	H	1.094713	-0.381977	0.232715
H118	H	1.094554	-0.381912	0.025060
H119	H	1.160110	-0.469089	0.128730
H120	H	1.271529	-0.300114	0.128898
H121	H	1.336921	-0.387354	0.232506
H122	H	1.747544	-0.662765	0.000085
