data_functionalizedCrystal
_audit_creation_method	'MofGen! by Chris Wilmer'
_symmetry_space_group_name_H-M	'P1'
_symmetry_Int_Tables_number	1
_symmetry_cell_setting	triclinic
loop_
_symmetry_equiv_pos_as_xyz
  x,y,z
_cell_length_a	17.699083
_cell_length_b	17.699083
_cell_length_c	16.176319
_cell_angle_alpha	89.992304
_cell_angle_beta	89.998611
_cell_angle_gamma	83.283015
loop_
_atom_site_label
_atom_site_type_symbol
_atom_site_fract_x
_atom_site_fract_y
_atom_site_fract_z
O1	O	1.004079	0.095713	-0.068632
O2	O	1.504079	0.595713	0.431368
O3	O	0.783700	0.108166	-0.068660
O4	O	1.283700	0.608166	0.431340
O5	O	0.900116	-0.008250	-0.068638
O6	O	1.400116	0.491750	0.431362
O7	O	0.887663	0.212129	-0.068654
O8	O	1.387663	0.712129	0.431346
O9	O	0.900100	-0.008257	0.068855
O10	O	1.400100	0.491743	0.568855
O11	O	0.783684	0.108158	0.068834
O12	O	1.283684	0.608158	0.568834
O13	O	1.004063	0.095706	0.068861
O14	O	1.504063	0.595706	0.568861
Cu15	Cu	0.893872	0.101931	0.081401
Cu16	Cu	1.393872	0.601931	0.581401
Cu17	Cu	0.893891	0.101940	-0.081200
Cu18	Cu	1.393891	0.601940	0.418800
O19	O	0.887647	0.212121	0.068839
O20	O	1.387647	0.712121	0.568839
C21	C	0.755495	0.107716	0.000084
C22	C	1.255495	0.607716	0.500084
C23	C	0.671477	0.106377	0.000073
C24	C	1.171477	0.606377	0.500073
C25	C	0.899662	-0.036451	0.000109
C26	C	1.399662	0.463549	0.500109
C27	C	0.898323	-0.120469	0.000109
C28	C	1.398323	0.379531	0.500109
C29	C	0.622856	0.174710	0.000069
C30	C	1.122856	0.674710	0.500069
C31	C	0.543913	0.173448	0.000079
C32	C	1.043913	0.673448	0.500079
C33	C	0.513592	0.103852	0.000089
C34	C	1.013592	0.603852	0.500089
C35	C	0.562219	0.035513	0.000096
C36	C	1.062219	0.535513	0.500096
C37	C	0.641161	0.036776	0.000091
C38	C	1.141161	0.536776	0.500091
C39	C	0.243856	0.030418	0.000117
C40	C	0.743856	0.530418	0.500117
C41	C	0.164908	0.029160	0.000120
C42	C	0.664908	0.529160	0.500120
C43	C	0.146608	0.167090	0.000105
C44	C	0.646608	0.667090	0.500105
C45	C	0.225550	0.168353	0.000100
C46	C	0.725550	0.668353	0.500100
C47	C	0.274170	0.100015	0.000112
C48	C	0.774170	0.600015	0.500112
C49	C	0.359769	0.101384	0.000102
C50	C	0.859769	0.601384	0.500102
C51	C	0.427995	0.102481	0.000093
C52	C	0.927995	0.602481	0.500093
C53	C	0.966656	-0.169090	0.000119
C54	C	1.466656	0.330910	0.500119
C55	C	0.965394	-0.248033	0.000111
C56	C	1.465394	0.251967	0.500111
C57	C	0.895798	-0.278354	0.000100
C58	C	1.395798	0.221646	0.500100
C59	C	0.827459	-0.229727	0.000088
C60	C	1.327459	0.270273	0.500088
C61	C	0.828722	-0.150785	0.000089
C62	C	1.328722	0.349215	0.500089
C63	C	0.822364	-0.548090	0.000080
C64	C	1.322364	-0.048090	0.500080
C65	C	0.821106	-0.627038	0.000081
C66	C	1.321106	-0.127038	0.500081
C67	C	0.959036	-0.645338	0.000102
C68	C	1.459036	-0.145338	0.500102
C69	C	0.960299	-0.566396	0.000104
C70	C	1.460299	-0.066396	0.500104
C71	C	0.891961	-0.517776	0.000087
C72	C	1.391961	-0.017776	0.500087
C73	C	0.893330	-0.432177	0.000094
C74	C	1.393330	0.067823	0.500094
C75	C	0.894427	-0.363951	0.000099
C76	C	1.394427	0.136049	0.500099
C77	C	1.032268	0.096156	0.000116
C78	C	1.532268	0.596156	0.500116
C79	C	1.116286	0.097494	0.000121
C80	C	1.616286	0.597494	0.500121
C81	C	0.888102	0.240322	0.000091
C82	C	1.388102	0.740322	0.500091
C83	C	0.889440	0.324340	0.000085
C84	C	1.389440	0.824340	0.500085
N85	N	0.893864	0.101925	0.195767
N86	N	1.393864	0.601925	0.695767
N87	N	0.893905	0.101941	-0.195565
N88	N	1.393905	0.601941	0.304435
C89	C	0.945429	0.050397	0.239040
C90	C	1.445429	0.550397	0.739040
C91	C	0.945432	0.050396	0.325588
C92	C	1.445432	0.550396	0.825588
C93	C	0.893875	0.101927	0.368859
C94	C	1.393875	0.601927	0.868859
C95	C	0.842305	0.153457	0.325579
C96	C	1.342305	0.653457	0.825579
C97	C	0.842299	0.153454	0.239034
C98	C	1.342299	0.653454	0.739034
C99	C	0.842331	0.153472	0.674608
C100	C	1.342331	0.653472	1.174608
C101	C	0.842344	0.153473	0.761159
C102	C	1.342344	0.653473	1.261159
C103	C	0.945465	0.050414	0.761161
C104	C	1.445465	0.550414	1.261161
C105	C	0.945458	0.050410	0.674616
C106	C	1.445458	0.550410	1.174616
C107	C	0.893886	0.101937	0.631344
C108	C	1.393886	0.601937	1.131344
C109	C	0.893882	0.101937	0.537499
C110	C	1.393882	0.601937	1.037499
C111	C	0.893883	0.101932	0.462702
C112	C	1.393883	0.601932	0.962702
H113	H	0.504328	0.229092	0.000075
H114	H	1.004328	0.729092	0.500075
O115	O	0.995524	0.000247	0.803108
O116	O	1.495524	0.500247	1.303108
C117	C	0.983348	-0.074661	0.781987
C118	C	1.483348	0.425339	1.281987
H119	H	0.954173	-0.074530	0.719152
H120	H	1.454173	0.425470	1.219152
H121	H	1.040307	-0.112007	0.779027
H122	H	1.540307	0.387993	1.279027
H123	H	0.945722	-0.098020	0.830702
H124	H	1.445722	0.401980	1.330702
O125	O	0.995500	0.000244	0.367528
O126	O	1.495500	0.500244	0.867528
C127	C	0.983338	-0.074670	0.346409
C128	C	1.483338	0.425330	0.846409
H129	H	0.954155	-0.074544	0.283579
H130	H	1.454155	0.425456	0.783579
H131	H	1.040303	-0.112004	0.343440
H132	H	1.540303	0.387996	0.843440
H133	H	0.945725	-0.098038	0.395131
H134	H	1.445725	0.401962	0.895131
O135	O	0.755931	-0.500946	-0.000036
O136	O	1.255931	-0.000946	0.499964
C137	C	0.713682	-0.514653	-0.071258
C138	C	1.213682	-0.014653	0.428742
H139	H	0.732385	-0.574567	-0.094998
H140	H	1.232385	-0.074567	0.405002
H141	H	0.650546	-0.508992	-0.055247
H142	H	1.150546	-0.008992	0.444753
H143	H	0.723950	-0.471483	-0.121120
H144	H	1.223950	0.028517	0.378880
H145	H	0.800357	0.195437	0.796390
H146	H	1.300357	0.695437	1.296390
H147	H	1.016971	-0.541714	0.000117
H148	H	1.516971	-0.041714	0.500117
H149	H	0.647537	0.231384	0.000060
H150	H	1.147537	0.731384	0.500060
H151	H	0.987444	0.008451	0.639387
H152	H	1.487444	0.508451	1.139387
O153	O	0.792212	0.203600	0.632708
O154	O	1.292212	0.703600	1.132708
C155	C	0.746700	0.249070	0.689463
C156	C	1.246700	0.749070	1.189463
H157	H	0.777737	0.249887	0.751149
H158	H	1.277737	0.749887	1.251149
H159	H	0.735035	0.309529	0.664449
H160	H	1.235035	0.809529	1.164449
H161	H	0.690526	0.224565	0.698684
H162	H	1.190526	0.724565	1.198684
O163	O	0.532642	-0.032027	0.000070
O164	O	1.032642	0.467973	0.500070
C165	C	0.452540	-0.018491	0.000092
C166	C	0.952540	0.481509	0.500092
H167	H	0.433891	0.040608	-0.025944
H168	H	0.933891	0.540608	0.474056
H169	H	0.428383	-0.063015	-0.039820
H170	H	0.928383	0.436985	0.460180
H171	H	0.430573	-0.022121	0.066056
H172	H	0.930573	0.477879	0.566056
O173	O	1.034282	-0.139675	-0.000019
O174	O	1.534282	0.360325	0.499981
C175	C	1.075943	-0.164541	-0.071214
C176	C	1.575943	0.335459	0.428786
H177	H	1.035246	-0.180880	-0.120988
H178	H	1.535246	0.319120	0.379012
H179	H	1.108059	-0.116775	-0.095114
H180	H	1.608059	0.383225	0.404886
H181	H	1.118211	-0.216072	-0.055112
H182	H	1.618211	0.283928	0.444888
O183	O	0.792295	0.203487	0.367739
O184	O	1.292295	0.703487	0.867739
C185	C	0.803346	0.192431	0.453406
C186	C	1.303346	0.692431	0.953406
H187	H	0.863571	0.164068	0.465224
H188	H	1.363571	0.664068	0.965224
H189	H	0.794820	0.249762	0.486286
H190	H	1.294820	0.749762	0.986286
H191	H	0.760583	0.154525	0.477982
H192	H	1.260583	0.654525	0.977982
H193	H	0.800309	0.195412	0.203801
H194	H	1.300309	0.695412	0.703801
H195	H	0.107012	0.222734	0.000100
H196	H	0.607012	0.722734	0.500100
H197	H	0.250232	0.225025	0.000089
H198	H	0.750232	0.725025	0.500089
H199	H	0.140225	-0.027517	0.000128
H200	H	0.640225	0.472483	0.500128
H201	H	0.283434	-0.025228	0.000127
H202	H	0.783434	0.474772	0.500127
H203	H	0.680748	-0.018868	0.000095
H204	H	1.180748	0.481132	0.500095
H205	H	1.021038	-0.287618	0.000121
H206	H	1.521038	0.212382	0.500121
H207	H	0.770792	-0.254420	0.000073
H208	H	1.270792	0.245580	0.500073
O209	O	1.025352	-0.692677	0.000072
O210	O	1.525352	-0.192677	0.500072
C211	C	1.009320	-0.768856	0.000085
C212	C	1.509320	-0.268856	0.500085
H213	H	0.949881	-0.771771	-0.025956
H214	H	1.449881	-0.271771	0.474044
H215	H	1.052893	-0.804695	-0.039827
H216	H	1.552893	-0.304695	0.460173
H217	H	1.012221	-0.791702	0.066047
H218	H	1.512221	-0.291702	0.566047
H219	H	0.764429	-0.651721	0.000074
H220	H	1.264429	-0.151721	0.500074
O221	O	0.762294	-0.103628	-0.000029
O222	O	1.262294	0.396372	0.499971
C223	C	0.720049	-0.117330	-0.071256
C224	C	1.220049	0.382670	0.428744
H225	H	0.738744	-0.177248	-0.094991
H226	H	1.238744	0.322752	0.405009
H227	H	0.656911	-0.111657	-0.055252
H228	H	1.156911	0.388343	0.444748
H229	H	0.730329	-0.074165	-0.121118
H230	H	1.230329	0.425835	0.378882
O231	O	0.995394	0.000277	0.196938
O232	O	1.495394	0.500277	0.696938
C233	C	0.954919	-0.046377	0.146933
C234	C	1.454919	0.453623	0.646933
H235	H	0.895655	-0.016131	0.133949
H236	H	1.395655	0.483869	0.633949
H237	H	0.986526	-0.058443	0.086081
H238	H	1.486526	0.441557	0.586081
H239	H	0.949848	-0.102284	0.180333
H240	H	1.449848	0.397716	0.680333
