data_functionalizedCrystal
_audit_creation_method	'MofGen! by Chris Wilmer'
_symmetry_space_group_name_H-M	'P1'
_symmetry_Int_Tables_number	1
_symmetry_cell_setting	triclinic
loop_
_symmetry_equiv_pos_as_xyz
  x,y,z
_cell_length_a	15.297979
_cell_length_b	15.299383
_cell_length_c	15.298259
_cell_angle_alpha	88.410590
_cell_angle_beta	91.586881
_cell_angle_gamma	88.353499
loop_
_atom_site_label
_atom_site_type_symbol
_atom_site_fract_x
_atom_site_fract_y
_atom_site_fract_z
Zn1	Zn	1.255661	0.015629	-0.730532
Zn2	Zn	1.755661	0.515629	-0.230532
Zn3	Zn	1.303427	0.178014	-0.616092
Zn4	Zn	1.803427	0.678014	-0.116092
Zn5	Zn	1.141163	0.063555	-0.568138
Zn6	Zn	1.641163	0.563555	-0.068138
Zn7	Zn	1.132809	0.186213	-0.738744
Zn8	Zn	1.632809	0.686213	-0.238744
O9	O	1.208265	0.110853	-0.663376
O10	O	1.708265	0.610853	-0.163376
O11	O	1.381319	0.013681	-0.731984
O12	O	1.881319	0.513681	-0.231984
O13	O	1.305388	0.179456	-0.490438
O14	O	1.805388	0.679456	0.009562
O15	O	1.139857	-0.062094	-0.566174
O16	O	1.639857	0.437906	-0.066174
O17	O	1.416412	0.132985	-0.647905
O18	O	1.916412	0.632985	-0.147905
O19	O	1.223979	-0.097305	-0.685485
O20	O	1.723979	0.402695	-0.185485
O21	O	1.186174	0.095364	-0.455206
O22	O	1.686174	0.595364	0.044794
O23	O	1.020733	0.103314	-0.574137
O24	O	1.520733	0.603314	-0.074137
O25	O	1.125620	0.146959	-0.856947
O26	O	1.625620	0.646959	-0.356947
O27	O	1.014596	0.193431	-0.699480
O28	O	1.514596	0.693431	-0.199480
O29	O	1.215879	0.021632	-0.850914
O30	O	1.715879	0.521632	-0.350914
O31	O	1.297288	0.298393	-0.655867
O32	O	1.797288	0.798393	-0.155867
O33	O	1.171936	0.304417	-0.745979
O34	O	1.671936	0.804417	-0.245979
C35	C	0.986726	0.154464	-0.632496
C36	C	1.486726	0.654464	-0.132496
C37	C	0.891949	0.173138	-0.619310
C38	C	1.391949	0.673138	-0.119310
C39	C	1.238908	0.332329	-0.707040
C40	C	1.738908	0.832329	-0.207040
C41	C	1.252090	0.427058	-0.725759
C42	C	1.752090	0.927058	-0.225759
C43	C	0.865698	0.243952	-0.569236
C44	C	1.365698	0.743952	-0.069236
C45	C	0.776650	0.261499	-0.556851
C46	C	1.276650	0.761499	-0.056851
C47	C	0.713845	0.208230	-0.594534
C48	C	1.213845	0.708230	-0.094534
C49	C	0.740096	0.137411	-0.644604
C50	C	1.240096	0.637411	-0.144604
C51	C	0.829152	0.119866	-0.656996
C52	C	1.329152	0.619866	-0.156996
C53	C	0.677299	0.084143	-0.682294
C54	C	1.177299	0.584143	-0.182294
C55	C	0.703549	0.013324	-0.732364
C56	C	1.203549	0.513324	-0.232364
C57	C	0.792597	-0.004218	-0.744753
C58	C	1.292597	0.495782	-0.244753
C59	C	0.855403	0.049052	-0.707070
C60	C	1.355403	0.549052	-0.207070
C61	C	0.588242	0.101688	-0.669903
C62	C	1.088242	0.601688	-0.169903
C63	C	0.551696	-0.022398	-0.757663
C64	C	1.051696	0.477602	-0.257663
C65	C	0.640744	-0.039945	-0.770047
C66	C	1.140744	0.460055	-0.270047
C67	C	1.114298	0.767687	-0.529955
C68	C	1.614298	1.267687	-0.029955
C69	C	1.101909	0.678685	-0.512369
C70	C	1.601909	1.178685	-0.012369
C71	C	1.139453	0.615774	-0.565715
C72	C	1.639453	1.115774	-0.065715
C73	C	1.189389	0.641873	-0.636650
C74	C	1.689389	1.141873	-0.136650
C75	C	1.201774	0.730885	-0.654241
C76	C	1.701774	1.230885	-0.154241
C77	C	1.226929	0.578972	-0.690001
C78	C	1.726929	1.078972	-0.190001
C79	C	1.276865	0.605071	-0.760936
C80	C	1.776865	1.105071	-0.260936
C81	C	1.289248	0.694074	-0.778524
C82	C	1.789248	1.194074	-0.278524
C83	C	1.251704	0.756985	-0.725178
C84	C	1.751704	1.256985	-0.225178
C85	C	1.214544	0.489961	-0.672409
C86	C	1.714544	0.989961	-0.172409
C87	C	1.302020	0.453159	-0.796696
C88	C	1.802020	0.953159	-0.296696
C89	C	1.314409	0.542161	-0.814281
C90	C	1.814409	1.042161	-0.314281
C91	C	1.430670	0.067072	-0.694377
C92	C	1.930670	0.567072	-0.194377
C93	C	1.525445	0.048416	-0.707588
C94	C	2.025445	0.548416	-0.207588
C95	C	1.164489	0.079864	-0.885727
C96	C	1.664489	0.579864	-0.385727
C97	C	1.145835	0.066659	-0.980479
C98	C	1.645835	0.566659	-0.480479
C99	C	1.177473	0.888513	-0.619564
C100	C	1.677473	1.388513	-0.119564
C101	C	1.164228	0.793787	-0.600892
C102	C	1.664228	1.293787	-0.100892
C103	C	1.341529	0.204572	-1.320939
C104	C	1.841529	0.704572	-0.820939
C105	C	1.359053	0.216986	-1.231914
C106	C	1.859053	0.716986	-0.731914
C107	C	1.305750	0.179405	-1.169051
C108	C	1.805750	0.679405	-0.669051
C109	C	1.234920	0.129409	-1.195221
C110	C	1.734920	0.629409	-0.695221
C111	C	1.217391	0.117000	-1.284254
C112	C	1.717391	0.617000	-0.784254
C113	C	1.181612	0.091833	-1.132367
C114	C	1.681612	0.591833	-0.632367
C115	C	1.110782	0.041836	-1.158537
C116	C	1.610782	0.541836	-0.658537
C117	C	1.093257	0.029429	-1.247562
C118	C	1.593257	0.529429	-0.747562
C119	C	1.146559	0.067010	-1.310425
C120	C	1.646559	0.567010	-0.810425
C121	C	1.199141	0.104242	-1.043334
C122	C	1.699141	0.604242	-0.543334
C123	C	1.075003	0.016669	-1.006650
C124	C	1.575003	0.516669	-0.506650
C125	C	1.057480	0.004256	-1.095674
C126	C	1.557480	0.504256	-0.595674
C127	C	1.251911	0.141650	-0.441885
C128	C	1.751911	0.641650	0.058115
C129	C	1.270698	0.154583	-0.347109
C130	C	1.770698	0.654583	0.152891
H131	H	0.566878	0.159351	-0.629136
H132	H	1.066878	0.659351	-0.129136
H133	H	1.355067	0.563424	-0.872038
H134	H	1.855067	1.063424	-0.372038
F135	F	1.018262	-0.023319	-0.939751
F136	F	1.518262	0.476681	-0.439751
F137	F	0.950180	0.030383	-0.720253
F138	F	1.450180	0.530383	-0.220253
H139	H	1.061251	0.657437	-0.454616
H140	H	1.561251	1.157437	0.045384
H141	H	0.755284	0.319161	-0.516084
H142	H	1.255284	0.819161	-0.016084
H143	H	0.641339	0.222521	-0.584447
H144	H	1.141339	0.722521	-0.084447
F145	F	1.434432	0.270192	-1.204069
F146	F	1.934432	0.770192	-0.704069
F147	F	1.074334	0.834644	-0.473199
F148	F	1.574334	1.334644	0.026801
H149	H	0.916840	0.287320	-0.538564
H150	H	1.416840	0.787320	-0.038564
H151	H	1.132298	0.056903	-1.382917
H152	H	1.632298	0.556903	-0.882917
F153	F	1.017849	-0.023748	-1.275412
F154	F	1.517849	0.476252	-0.775412
F155	F	0.982099	-0.048952	-1.123537
F156	F	1.482099	0.451048	-0.623537
H157	H	0.813966	-0.061877	-0.785533
H158	H	1.313966	0.438123	-0.285533
F159	F	0.668693	-0.115313	-0.823336
F160	F	1.168693	0.384687	-0.323336
F161	F	1.324404	0.192615	-1.074304
F162	F	1.824404	0.692615	-0.574304
H163	H	1.261792	0.829459	-0.739490
H164	H	1.761792	1.329459	-0.239490
H165	H	1.384916	0.235173	-1.372128
H166	H	1.884916	0.735173	-0.872128
H167	H	1.329905	0.715321	-0.836287
H168	H	1.829905	1.215321	-0.336287
F169	F	1.125984	0.521065	-0.547199
F170	F	1.625984	1.021065	-0.047199
F171	F	1.341978	0.386208	-0.853475
F172	F	1.841978	0.886208	-0.353475
H173	H	0.500559	-0.065774	-0.788349
H174	H	1.000559	0.434226	-0.288349
H175	H	1.173886	0.468719	-0.614654
H176	H	1.673886	0.968719	-0.114654
F177	F	1.274521	0.157449	-1.015492
F178	F	1.774521	0.657449	-0.515492
