data_functionalizedCrystal
_audit_creation_method	'MofGen! by Chris Wilmer'
_symmetry_space_group_name_H-M	'P1'
_symmetry_Int_Tables_number	1
_symmetry_cell_setting	triclinic
loop_
_symmetry_equiv_pos_as_xyz
  x,y,z
_cell_length_a	14.853567
_cell_length_b	11.792241
_cell_length_c	13.930277
_cell_angle_alpha	89.995317
_cell_angle_beta	89.995755
_cell_angle_gamma	83.914173
loop_
_atom_site_label
_atom_site_type_symbol
_atom_site_fract_x
_atom_site_fract_y
_atom_site_fract_z
O1	O	1.196945	0.148181	-0.079765
O2	O	0.934554	0.165833	-0.079782
O3	O	1.072117	-0.008203	-0.079766
O4	O	1.059382	0.322217	-0.079780
O5	O	1.072098	-0.008206	0.079896
O6	O	0.934535	0.165829	0.079880
O7	O	1.196926	0.148177	0.079897
Zn8	Zn	1.065728	0.157003	0.105238
Zn9	Zn	1.065753	0.157008	-0.105123
O10	O	1.059363	0.322213	0.079881
C11	C	0.900953	0.165032	0.000047
C12	C	0.800860	0.162635	0.000041
C13	C	0.387884	0.049122	0.000068
C14	C	0.367408	0.255880	0.000058
C15	C	0.461451	0.258134	0.000055
C16	C	0.518715	0.155880	0.000056
C17	C	0.481936	0.051372	0.000062
C18	C	0.498237	0.362640	0.000040
C19	C	0.592285	0.364898	0.000035
C20	C	0.649550	0.262642	0.000044
C21	C	0.612766	0.158131	0.000050
C22	C	0.670030	0.055877	0.000052
C23	C	0.633248	-0.048637	0.000065
C24	C	0.539201	-0.050883	0.000070
C25	C	0.743596	0.264889	0.000039
C26	C	0.764081	0.058127	0.000046
C27	C	1.071308	-0.050491	0.000064
C28	C	1.068913	-0.176489	0.000063
C29	C	1.064511	-0.407174	0.000047
C30	C	1.066957	-0.278804	0.000056
C31	C	1.230527	0.148979	0.000066
C32	C	1.330621	0.151376	0.000066
C33	C	1.060173	0.364501	0.000049
C34	C	1.062567	0.490500	0.000044
N35	N	1.065717	0.156999	0.248804
N36	N	1.065771	0.157003	-0.248689
C37	C	1.004838	0.234041	0.701067
C38	C	1.126693	0.079966	0.701050
C39	C	1.126682	0.079963	0.600554
C40	C	1.065749	0.157000	0.550310
C41	C	1.004827	0.234042	0.600562
C42	C	1.187610	0.002930	0.550295
C43	C	1.187602	0.002925	0.449793
C44	C	1.126664	0.079958	0.399547
C45	C	1.065738	0.157001	0.449805
C46	C	1.004805	0.234039	0.399561
C47	C	0.943875	0.311078	0.449817
C48	C	0.943889	0.311075	0.550316
C49	C	1.126650	0.079961	0.299048
C50	C	1.004794	0.234040	0.299056
H51	H	0.320779	0.339131	0.000048
H52	H	0.451606	0.445889	0.000028
H53	H	0.955226	0.296762	0.741988
H54	H	1.237224	-0.059786	0.591207
N55	N	0.350333	-0.057641	0.000070
N56	N	0.401475	-0.148927	0.000068
H57	H	0.374955	-0.224330	0.000069
H58	H	0.622224	0.449998	0.000025
N59	N	0.822585	-0.046316	0.000038
N60	N	0.906553	-0.044295	0.000025
H61	H	0.947872	-0.118057	0.000019
N62	N	0.501644	-0.157641	0.000066
N63	N	0.552778	-0.248933	0.000066
H64	H	0.526251	-0.324332	0.000061
H65	H	0.773540	0.349982	0.000030
N66	N	0.942564	0.312752	0.247738
N67	N	0.971505	0.383278	0.191655
H68	H	0.927556	0.438871	0.155411
H69	H	0.894266	0.373808	0.408897
N70	N	0.881660	0.389753	0.601666
N71	N	0.881683	0.389741	0.691397
H72	H	0.837736	0.445308	0.727667
N73	N	1.188792	0.001206	0.247676
N74	N	1.186953	-0.103689	0.258914
H75	H	1.230809	-0.159339	0.222613
N76	N	0.691731	-0.153095	0.000059
N77	N	0.688083	-0.222570	-0.067236
H78	H	0.729389	-0.296344	-0.067241
N79	N	1.188946	0.001312	0.752384
N80	N	1.188959	0.001340	0.842114
H81	H	1.232933	-0.054206	0.878374
H82	H	1.237214	-0.059805	0.408881
