data_functionalizedCrystal
_audit_creation_method	'MofGen! by Chris Wilmer'
_symmetry_space_group_name_H-M	'P1'
_symmetry_Int_Tables_number	1
_symmetry_cell_setting	triclinic
loop_
_symmetry_equiv_pos_as_xyz
  x,y,z
_cell_length_a	12.759401
_cell_length_b	12.759400
_cell_length_c	12.759393
_cell_angle_alpha	89.968385
_cell_angle_beta	89.980163
_cell_angle_gamma	90.016209
loop_
_atom_site_label
_atom_site_type_symbol
_atom_site_fract_x
_atom_site_fract_y
_atom_site_fract_z
Zn1	Zn	1.606255	-0.418161	-0.594020
Zn2	Zn	1.606150	-0.593880	-0.418340
Zn3	Zn	1.430557	-0.418220	-0.418355
Zn4	Zn	1.430546	-0.593803	-0.593978
O5	O	1.518377	-0.506016	-0.506173
O6	O	1.753262	-0.441478	-0.570727
O7	O	1.582818	-0.570635	-0.271321
O8	O	1.453913	-0.271191	-0.441682
O9	O	1.753185	-0.570578	-0.441656
O10	O	1.582997	-0.271148	-0.570742
O11	O	1.453811	-0.441579	-0.271332
O12	O	1.283535	-0.441505	-0.441640
O13	O	1.453893	-0.570447	-0.741004
O14	O	1.283526	-0.570504	-0.570669
O15	O	1.582986	-0.441403	-0.741036
O16	O	1.582806	-0.740891	-0.441615
O17	O	1.453791	-0.740834	-0.570655
C18	C	1.245410	-0.506003	-0.506152
C19	C	1.128633	-0.506023	-0.506168
C20	C	1.073794	-0.573296	-0.573248
C21	C	0.964070	-0.573300	-0.573269
C22	C	0.964033	-0.438756	-0.439122
C23	C	1.073755	-0.438747	-0.439107
C24	C	1.518315	-0.778984	-0.506151
C25	C	1.518384	-0.895760	-0.506177
C26	C	1.585637	-0.950617	-0.439060
C27	C	1.585701	-1.060341	-0.439093
C28	C	1.451251	-1.060342	-0.573362
C29	C	1.451193	-0.950620	-0.573334
C30	C	1.652828	-0.895757	-0.371904
C31	C	1.720086	-0.950613	-0.304781
C32	C	1.720150	-1.060338	-0.304813
C33	C	1.652957	-1.115205	-0.371969
C34	C	1.792410	-0.506030	-0.506195
C35	C	1.909187	-0.506036	-0.506204
C36	C	1.518450	-0.505910	-0.780207
C37	C	1.518482	-0.505865	-0.896984
C38	C	1.518468	-0.231983	-0.506218
C39	C	1.518507	-0.115206	-0.506238
C40	C	1.451332	-0.438653	-0.951851
C41	C	1.451356	-0.438620	-1.061575
C42	C	1.585689	-0.573015	-1.061555
C43	C	1.585659	-0.573052	-0.951833
C44	C	1.518364	-0.506046	-0.233206
C45	C	1.518537	-0.505796	-0.116430
H46	H	0.919425	-0.628078	-0.627893
H47	H	1.396675	-0.383891	-1.106243
O48	O	1.650913	-0.638173	-1.115000
C49	C	1.710452	-0.697723	-1.284023
C50	C	1.636548	-0.623862	-1.223632
H51	H	1.698848	-0.686194	-1.371862
H52	H	1.795192	-0.679287	-1.262537
H53	H	1.691976	-0.782434	-1.262368
H54	H	1.654929	-0.539127	-1.245254
H55	H	1.551830	-0.642388	-1.245123
H56	H	1.396545	-1.105024	-0.628036
H57	H	1.774922	-1.104999	-0.250166
H58	H	1.118406	-0.383959	-0.384482
H59	H	1.652780	-0.806414	-0.371867
H60	H	1.640343	-0.627788	-0.907159
H61	H	0.919339	-0.383984	-0.384521
O62	O	1.385772	-0.897488	-0.638569
C63	C	1.252485	-0.909059	-0.771813
C64	C	1.326494	-0.969361	-0.697959
H65	H	1.204556	-0.967142	-0.819865
H66	H	1.197475	-0.857794	-0.723578
H67	H	1.300697	-0.857585	-0.826725
H68	H	1.278367	-1.020892	-0.643033
H69	H	1.381507	-1.020559	-0.746259
O70	O	1.785302	-0.897435	-0.239405
C71	C	1.836327	-0.863923	-0.060722
C72	C	1.762420	-0.924228	-0.134643
H73	H	1.817838	-0.885545	0.023994
H74	H	1.921065	-0.885426	-0.079163
H75	H	1.824746	-0.776083	-0.072279
H76	H	1.773908	-1.012081	-0.123127
H77	H	1.677709	-0.902637	-0.116184
H78	H	1.653023	-1.204550	-0.371998
O79	O	1.385920	-0.373511	-0.898615
C80	C	1.207215	-0.322480	-0.865093
C81	C	1.281179	-0.396332	-0.925425
H82	H	1.122518	-0.340889	-0.886763
H83	H	1.218635	-0.334053	-0.777234
H84	H	1.225750	-0.237764	-0.886674
H85	H	1.262690	-0.481077	-0.903933
H86	H	1.269746	-0.384668	-1.013270
O87	O	1.127056	-0.638525	-0.638547
C88	C	1.160651	-0.689766	-0.817167
C89	C	1.100290	-0.615815	-0.743331
H90	H	1.139016	-0.671446	-0.901899
H91	H	1.248506	-0.678204	-0.805727
H92	H	1.139063	-0.774456	-0.798523
H93	H	1.121790	-0.531097	-0.761929
H94	H	1.012450	-0.627468	-0.754784
