data_functionalizedCrystal
_audit_creation_method	'MofGen! by Chris Wilmer'
_symmetry_space_group_name_H-M	'P1'
_symmetry_Int_Tables_number	1
_symmetry_cell_setting	triclinic
loop_
_symmetry_equiv_pos_as_xyz
  x,y,z
_cell_length_a	14.519709
_cell_length_b	16.992695
_cell_length_c	16.053802
_cell_angle_alpha	92.741074
_cell_angle_beta	87.419624
_cell_angle_gamma	87.174184
loop_
_atom_site_label
_atom_site_type_symbol
_atom_site_fract_x
_atom_site_fract_y
_atom_site_fract_z
O1	O	1.234886	0.099504	-0.069320
O2	O	1.734886	0.599504	0.430680
O3	O	0.967279	0.111608	-0.069346
O4	O	1.467279	0.611608	0.430654
O5	O	1.100010	-0.008588	-0.069327
O6	O	1.600010	0.491412	0.430673
O7	O	1.102156	0.219700	-0.069340
O8	O	1.602156	0.719700	0.430660
O9	O	1.092702	-0.001999	0.069531
O10	O	1.592702	0.498001	0.569531
O11	O	0.959971	0.118197	0.069512
O12	O	1.459971	0.618197	0.569512
O13	O	1.227578	0.106092	0.069537
O14	O	1.727578	0.606092	0.569537
Zn15	Zn	1.092615	0.113191	0.091571
Zn16	Zn	1.592615	0.613191	0.591571
Zn17	Zn	1.102243	0.104510	-0.091380
Zn18	Zn	1.602243	0.604510	0.408620
O19	O	1.094848	0.226288	0.069518
O20	O	1.594848	0.726288	0.569518
C21	C	1.093596	-0.034510	0.000102
C22	C	1.593596	0.465490	0.500102
C23	C	1.085360	-0.121566	0.000101
C24	C	1.585360	0.378434	0.500101
C25	C	0.929225	0.114338	0.000080
C26	C	1.429225	0.614338	0.500080
C27	C	0.826723	0.112647	0.000070
C28	C	1.326723	0.612647	0.500070
C29	C	1.164820	-0.171694	0.000109
C30	C	1.664820	0.328306	0.500109
C31	C	1.157077	-0.253492	0.000101
C32	C	1.657077	0.246508	0.500101
C33	C	1.069873	-0.285160	0.000089
C34	C	1.569873	0.214840	0.500089
C35	C	0.990408	-0.235025	0.000079
C36	C	1.490408	0.264975	0.500079
C37	C	0.998152	-0.153229	0.000081
C38	C	1.498152	0.346771	0.500081
C39	C	1.037777	-0.528803	0.000075
C40	C	1.537777	-0.028803	0.500075
C41	C	1.030038	-0.610605	0.000075
C42	C	1.530038	-0.110605	0.500075
C43	C	1.196708	-0.629067	0.000095
C44	C	1.696708	-0.129067	0.500095
C45	C	1.204444	-0.547269	0.000103
C46	C	1.704444	-0.047269	0.500103
C47	C	1.124979	-0.497141	0.000088
C48	C	1.624979	0.002859	0.500088
N49	N	1.061956	-0.368770	0.000083
N50	N	1.561956	0.131230	0.500083
N51	N	1.132897	-0.413533	0.000088
N52	N	1.632897	0.086467	0.500088
C53	C	0.451379	0.106425	0.000108
C54	C	0.951379	0.606425	0.500108
C55	C	0.555811	0.108153	0.000097
C56	C	1.055811	0.608153	0.500097
C57	C	0.639048	0.109536	0.000088
C58	C	1.139048	0.609536	0.500088
C59	C	0.743487	0.111264	0.000079
C60	C	1.243487	0.611264	0.500079
C61	C	1.265632	0.103362	0.000110
C62	C	1.765632	0.603362	0.500110
C63	C	1.368135	0.105053	0.000114
C64	C	1.868135	0.605053	0.500114
C65	C	1.101262	0.252210	0.000088
C66	C	1.601262	0.752210	0.500088
C67	C	1.109498	0.339266	0.000083
C68	C	1.609498	0.839266	0.500083
N69	N	1.086050	0.119115	0.216431
N70	N	1.586050	0.619115	0.716431
N71	N	1.108814	0.098580	-0.216239
N72	N	1.608814	0.598580	0.283761
C73	C	1.142550	0.067989	0.260133
C74	C	1.642550	0.567989	0.760133
C75	C	1.137968	0.072141	0.347539
C76	C	1.637968	0.572141	0.847539
C77	C	1.076889	0.127422	0.391241
C78	C	1.576889	0.627422	0.891241
C79	C	1.020382	0.178549	0.347533
C80	C	1.520382	0.678549	0.847533
C81	C	1.024961	0.174393	0.260128
C82	C	1.524961	0.674393	0.760128
C83	C	1.056886	0.145552	0.652648
C84	C	1.556886	0.645552	1.152648
C85	C	1.052314	0.149705	0.740059
C86	C	1.552314	0.649705	1.240059
C87	C	1.169899	0.043295	0.740058
C88	C	1.669899	0.543295	1.240058
C89	C	1.174476	0.039147	0.652652
C90	C	1.674476	0.539147	1.152652
C91	C	1.117966	0.090272	0.608952
C92	C	1.617966	0.590272	1.108952
N93	N	1.072205	0.131668	0.480584
N94	N	1.572205	0.631668	0.980584
N95	N	1.122646	0.086022	0.519610
N96	N	1.622646	0.586022	1.019610
H97	H	1.235830	-0.145918	0.000123
H98	H	1.735830	0.354082	0.500123
Cl99	Cl	0.975523	0.219209	0.794993
Cl100	Cl	1.475523	0.719209	1.294993
H101	H	1.221781	-0.294304	0.000109
H102	H	1.721781	0.205696	0.500109
Cl103	Cl	0.898256	-0.090209	0.000067
Cl104	Cl	1.398256	0.409791	0.500067
H105	H	1.192291	0.022977	0.224556
H106	H	1.692291	0.522977	0.724556
Cl107	Cl	0.937876	-0.465796	0.000053
Cl108	Cl	1.437876	0.034204	0.500053
Cl109	Cl	0.985851	0.209824	0.597716
Cl110	Cl	1.485851	0.709824	1.097716
Cl111	Cl	1.314078	-0.507466	0.000090
Cl112	Cl	1.814078	-0.007466	0.500090
Cl113	Cl	1.251263	-0.030348	0.597712
Cl114	Cl	1.751263	0.469652	1.097712
Cl115	Cl	0.880780	-0.274836	0.000054
Cl116	Cl	1.380780	0.225164	0.500054
Cl117	Cl	0.943591	0.248043	0.402471
Cl118	Cl	1.443591	0.748043	0.902471
H119	H	0.978951	0.216024	0.224547
H120	H	1.478951	0.716024	0.724547
Cl121	Cl	1.208997	0.007867	0.402480
Cl122	Cl	1.708997	0.507867	0.902480
H123	H	1.261404	-0.669890	0.000106
H124	H	1.761404	-0.169890	0.500106
Cl125	Cl	0.920402	-0.650414	0.000066
Cl126	Cl	1.420402	-0.150414	0.500066
H127	H	1.215905	0.001671	0.775647
H128	H	1.715905	0.501671	1.275647
