data_functionalizedCrystal
_audit_creation_method	'MofGen! by Chris Wilmer'
_symmetry_space_group_name_H-M	'P1'
_symmetry_Int_Tables_number	1
_symmetry_cell_setting	triclinic
loop_
_symmetry_equiv_pos_as_xyz
  x,y,z
_cell_length_a	19.805407
_cell_length_b	14.908520
_cell_length_c	19.805399
_cell_angle_alpha	86.729391
_cell_angle_beta	90.019573
_cell_angle_gamma	93.320773
loop_
_atom_site_label
_atom_site_type_symbol
_atom_site_fract_x
_atom_site_fract_y
_atom_site_fract_z
Zn1	Zn	1.019204	-0.359181	0.398269
Zn2	Zn	1.352537	-0.025848	0.731603
Zn3	Zn	1.685870	0.307486	1.064936
Zn4	Zn	1.012594	-0.510047	0.291612
Zn5	Zn	1.345928	-0.176714	0.624946
Zn6	Zn	1.679261	0.156620	0.958279
Zn7	Zn	0.906017	-0.359206	0.285095
Zn8	Zn	1.239350	-0.025873	0.618428
Zn9	Zn	1.572684	0.307461	0.951762
Zn10	Zn	0.899460	-0.509999	0.404757
Zn11	Zn	1.232793	-0.176666	0.738090
Zn12	Zn	1.566127	0.156668	1.071424
O13	O	0.959319	-0.434608	0.344934
O14	O	1.292652	-0.101275	0.678267
O15	O	1.625985	0.232058	1.011600
O16	O	1.113043	-0.379203	0.384134
O17	O	1.446376	-0.045870	0.717467
O18	O	1.779710	0.287463	1.050800
O19	O	0.998435	-0.490068	0.196033
O20	O	1.331768	-0.156735	0.529366
O21	O	1.665102	0.176599	0.862699
O22	O	0.926542	-0.232958	0.294665
O23	O	1.259875	0.100376	0.627999
O24	O	1.593208	0.433709	0.961332
O25	O	1.108187	-0.490044	0.305773
O26	O	1.441521	-0.156710	0.639106
O27	O	1.774854	0.176623	0.972440
O28	O	1.009699	-0.232939	0.377814
O29	O	1.343033	0.100394	0.711147
O30	O	1.676366	0.433727	1.044481
O31	O	0.920133	-0.379246	0.191244
O32	O	1.253466	-0.045913	0.524578
O33	O	1.586800	0.287421	0.857911
O34	O	0.810431	-0.379199	0.300956
O35	O	1.143764	-0.045866	0.634289
O36	O	1.477098	0.287467	0.967623
O37	O	0.915366	-0.489962	0.498612
O38	O	1.248699	-0.156629	0.831945
O39	O	1.582032	0.176705	1.165278
O40	O	0.805614	-0.489986	0.388871
O41	O	1.138947	-0.156653	0.722205
O42	O	1.472280	0.176680	1.055538
O43	O	1.003341	-0.379157	0.493845
O44	O	1.336674	-0.045824	0.827179
O45	O	1.670008	0.287510	1.160512
O46	O	0.992077	-0.636286	0.312064
O47	O	1.325410	-0.302952	0.645397
O48	O	1.658743	0.030381	0.978731
O49	O	0.908957	-0.636250	0.395191
O50	O	1.242291	-0.302917	0.728524
O51	O	1.575624	0.030416	1.061858
C52	C	0.783463	-0.434591	0.344911
C53	C	1.116797	-0.101258	0.678244
C54	C	1.450130	0.232076	1.011578
C55	C	0.708231	-0.434605	0.344918
C56	C	1.041564	-0.101272	0.678252
C57	C	1.374898	0.232061	1.011585
C58	C	0.670392	-0.492379	0.390629
C59	C	1.003725	-0.159046	0.723963
C60	C	1.337059	0.174288	1.057296
C61	C	0.599704	-0.492380	0.390639
C62	C	0.933037	-0.159047	0.723972
C63	C	1.266370	0.174286	1.057306
C64	C	0.566855	-0.434612	0.344934
C65	C	0.900188	-0.101279	0.678267
C66	C	1.233522	0.232054	1.011600
C67	C	0.604699	-0.376832	0.299220
C68	C	0.938032	-0.043499	0.632554
C69	C	1.271366	0.289834	0.965887
C70	C	0.675386	-0.376827	0.299214
C71	C	1.008720	-0.043494	0.632548
C72	C	1.342053	0.289840	0.965881
C73	C	0.319625	-0.376852	0.299244
C74	C	0.652958	-0.043519	0.632577
C75	C	0.986291	0.289814	0.965910
C76	C	0.248932	-0.376864	0.299252
C77	C	0.582265	-0.043531	0.632585
C78	C	0.915599	0.289803	0.965918
C79	C	0.243942	-0.492406	0.390668
C80	C	0.577275	-0.159073	0.724001
C81	C	0.910609	0.174261	1.057335
C82	C	0.314629	-0.492400	0.390662
C83	C	0.647963	-0.159067	0.723996
C84	C	0.981296	0.174266	1.057329
C85	C	0.352467	-0.434618	0.344952
C86	C	0.685801	-0.101284	0.678285
C87	C	1.019134	0.232049	1.011618
C88	C	0.429116	-0.434615	0.344943
C89	C	0.762449	-0.101282	0.678276
C90	C	1.095783	0.232051	1.011609
C91	C	0.490208	-0.434618	0.344939
C92	C	0.823541	-0.101285	0.678272
C93	C	1.156874	0.232048	1.011606
C94	C	0.949107	-0.669002	0.355053
C95	C	1.282440	-0.335669	0.688387
C96	C	1.615773	-0.002335	1.021720
C97	C	0.944800	-0.769277	0.359405
C98	C	1.278133	-0.435943	0.692739
C99	C	1.611466	-0.102610	1.026072
C100	C	1.023348	-0.957679	0.281093
C101	C	1.356681	-0.624346	0.614426
C102	C	1.690015	-0.291012	0.947760
C103	C	1.019304	-1.051896	0.285180
C104	C	1.352637	-0.718563	0.618513
C105	C	1.685970	-0.385229	0.951847
C106	C	0.932671	-1.051929	0.371669
C107	C	1.266004	-0.718596	0.705002
C108	C	1.599337	-0.385263	1.038336
C109	C	0.936715	-0.957712	0.367582
C110	C	1.270048	-0.624379	0.700916
C111	C	1.603382	-0.291046	1.034249
C112	C	0.982055	-0.910590	0.322292
C113	C	1.315388	-0.577257	0.655625
C114	C	1.648721	-0.243924	0.988959
C115	C	0.986095	-0.816372	0.318202
C116	C	1.319428	-0.483038	0.651535
C117	C	1.652762	-0.149705	0.984869
C118	C	0.899466	-0.816407	0.404694
C119	C	1.232799	-0.483073	0.738028
C120	C	1.566132	-0.149740	1.071361
C121	C	0.895421	-0.910624	0.408781
C122	C	1.228755	-0.577290	0.742114
C123	C	1.562088	-0.243957	1.075448
C124	C	1.135861	-0.434626	0.344957
C125	C	1.469194	-0.101293	0.678290
C126	C	1.802527	0.232040	1.011623
C127	C	1.211092	-0.434634	0.344967
C128	C	1.544426	-0.101301	0.678300
C129	C	1.877759	0.232033	1.011633
C130	C	0.959359	-0.434551	0.521474
C131	C	1.292693	-0.101218	0.854807
C132	C	1.626026	0.232115	1.188141
C133	C	0.959376	-0.434527	0.596705
C134	C	1.292710	-0.101194	0.930038
C135	C	1.626043	0.232139	1.263371
C136	C	0.969589	-0.199299	0.334789
C137	C	1.302922	0.134034	0.668122
C138	C	1.636256	0.467368	1.001456
C139	C	0.973966	-0.099024	0.330466
C140	C	1.307299	0.234309	0.663799
C141	C	1.640632	0.567642	0.997132
C142	C	0.959320	-0.434600	0.169077
C143	C	1.292654	-0.101266	0.502410
C144	C	1.625987	0.232067	0.835744
C145	C	0.959445	-0.434370	0.093836
C146	C	1.292779	-0.101036	0.427169
C147	C	1.626112	0.232297	0.760502
C148	C	1.005186	-0.376828	0.629568
C149	C	1.338519	-0.043495	0.962901
C150	C	1.671853	0.289839	1.296235
C151	C	1.005194	-0.376802	0.700255
C152	C	1.338528	-0.043469	1.033589
C153	C	1.671861	0.289865	1.366922
C154	C	0.959395	-0.434480	0.738078
C155	C	1.292729	-0.101147	1.071412
C156	C	1.626062	0.232187	1.404745
C157	C	0.913581	-0.492182	0.705210
C158	C	1.246914	-0.158848	1.038544
C159	C	1.580247	0.174485	1.371877
C160	C	0.913570	-0.492203	0.634524
C161	C	1.246903	-0.158869	0.967857
C162	C	1.580237	0.174464	1.301191
C163	C	0.913622	-0.492098	0.990280
C164	C	1.246956	-0.158764	1.323614
C165	C	1.580289	0.174569	1.656947
C166	C	0.913638	-0.492074	1.060971
C167	C	1.246971	-0.158741	1.394305
C168	C	1.580305	0.174593	1.727638
C169	C	1.005247	-0.376697	1.056011
C170	C	1.338580	-0.043363	1.389345
C171	C	1.671914	0.289970	1.722678
C172	C	1.005236	-0.376718	0.985325
C173	C	1.338569	-0.043384	1.318659
C174	C	1.671903	0.289949	1.651992
C175	C	0.959419	-0.434416	0.952463
C176	C	1.292753	-0.101082	1.285796
C177	C	1.626086	0.232251	1.619130
C178	C	0.959410	-0.434442	0.875816
C179	C	1.292744	-0.101109	1.209149
C180	C	1.626077	0.232225	1.542482
C181	C	0.959407	-0.434459	0.814725
C182	C	1.292740	-0.101125	1.148058
C183	C	1.626074	0.232208	1.481391
H184	H	0.568898	-0.539426	0.427861
H185	H	0.902232	-0.206093	0.761194
H186	H	1.235565	0.127240	1.094528
O187	O	0.864229	-0.554276	1.101768
O188	O	1.197562	-0.220942	1.435101
O189	O	1.530896	0.112391	1.768435
H190	H	0.872731	-0.625089	1.091254
H191	H	1.206064	-0.291756	1.424587
H192	H	1.539397	0.041577	1.757920
O193	O	1.063837	-1.102689	0.240741
O194	O	1.397170	-0.769356	0.574074
O195	O	1.730504	-0.436022	0.907408
H196	H	1.096038	-1.054090	0.208560
H197	H	1.429371	-0.720757	0.541893
H198	H	1.762705	-0.387423	0.875226
O199	O	0.360431	-0.314561	0.249924
O200	O	0.693764	0.018772	0.583257
O201	O	1.027098	0.352106	0.916591
H202	H	0.325711	-0.274410	0.218134
H203	H	0.659044	0.058923	0.551467
H204	H	0.992377	0.392256	0.884801
H205	H	0.865840	-0.778057	0.438239
H206	H	1.199173	-0.444723	0.771573
H207	H	1.532506	-0.111390	1.104906
H208	H	0.341371	-0.539444	0.427878
H209	H	0.674704	-0.206111	0.761211
H210	H	1.008038	0.127222	1.094545
H211	H	0.577948	-0.329793	0.262009
H212	H	0.911281	0.003541	0.595342
H213	H	1.244615	0.336874	0.928676
O214	O	0.203133	-0.554722	0.439981
O215	O	0.536466	-0.221389	0.773314
O216	O	0.869800	0.111944	1.106648
H217	H	0.148461	-0.545017	0.432316
H218	H	0.481794	-0.211683	0.765649
H219	H	0.815128	0.121650	1.098983
H220	H	0.876325	-0.539092	0.963533
H221	H	1.209658	-0.205759	1.296866
H222	H	1.542992	0.127575	1.630200
H223	H	0.895762	-1.090312	0.408547
H224	H	1.229095	-0.756979	0.741880
H225	H	1.562428	-0.423646	1.075213
H226	H	0.222189	-0.329817	0.262033
H227	H	0.555523	0.003517	0.595366
H228	H	0.888856	0.336850	0.928699
O229	O	1.034998	-0.765541	0.269361
O230	O	1.368332	-0.432208	0.602694
O231	O	1.701665	-0.098874	0.936027
H232	H	1.063039	-0.814118	0.241406
H233	H	1.396372	-0.480784	0.574739
H234	H	1.729705	-0.147451	0.908073
H235	H	0.876260	-0.539178	0.607768
H236	H	1.209594	-0.205845	0.941101
H237	H	1.542927	0.127489	1.274434
H238	H	0.706194	-0.329777	0.261995
H239	H	1.039528	0.003556	0.595328
H240	H	1.372861	0.336890	0.928662
H241	H	1.060261	-0.919312	0.244211
H242	H	1.393594	-0.585978	0.577545
H243	H	1.726927	-0.252645	0.910878
O244	O	0.846511	-0.961448	0.457619
O245	O	1.179845	-0.628115	0.790953
O246	O	1.513178	-0.294782	1.124286
H247	H	0.850630	-1.034875	0.453535
H248	H	1.183963	-0.701542	0.786869
H249	H	1.517297	-0.368208	1.120202
H250	H	1.042483	-0.329862	0.598777
H251	H	1.375816	0.003471	0.932111
H252	H	1.709150	0.336804	1.265444
O253	O	1.054607	-0.314575	0.735704
O254	O	1.387940	0.018758	1.069037
O255	O	1.721273	0.352091	1.402370
H256	H	1.086458	-0.274482	0.697528
H257	H	1.419792	0.058852	1.030861
H258	H	1.753125	0.392185	1.364195
H259	H	1.042533	-0.329753	0.954533
H260	H	1.375866	0.003580	1.287866
H261	H	1.709199	0.336913	1.621200
H262	H	1.042551	-0.329713	1.082776
H263	H	1.375884	0.003620	1.416109
H264	H	1.709217	0.336953	1.749443
O265	O	0.864176	-0.554386	0.746002
O266	O	1.197510	-0.221052	1.079335
O267	O	1.530843	0.112281	1.412669
H268	H	0.892468	-0.600287	0.780188
H269	H	1.225801	-0.266953	1.113522
H270	H	1.559135	0.066380	1.446855
O271	O	0.705821	-0.554683	0.439929
O272	O	1.039155	-0.221349	0.773262
O273	O	1.372488	0.111984	1.106595
H274	H	0.667631	-0.594848	0.471721
H275	H	1.000965	-0.261515	0.805054
H276	H	1.334298	0.071818	1.138388
