data_functionalizedCrystal
_audit_creation_method	'MofGen! by Chris Wilmer'
_symmetry_space_group_name_H-M	'P1'
_symmetry_Int_Tables_number	1
_symmetry_cell_setting	triclinic
loop_
_symmetry_equiv_pos_as_xyz
  x,y,z
_cell_length_a	17.699083
_cell_length_b	13.330367
_cell_length_c	17.699083
_cell_angle_alpha	89.994461
_cell_angle_beta	96.716985
_cell_angle_gamma	90.001523
loop_
_atom_site_label
_atom_site_type_symbol
_atom_site_fract_x
_atom_site_fract_y
_atom_site_fract_z
O1	O	1.004079	0.083285	-0.095711
O2	O	1.337413	0.416618	0.237623
O3	O	1.670746	0.749952	0.570956
O4	O	0.783701	0.083318	-0.108163
O5	O	1.117034	0.416651	0.225170
O6	O	1.450367	0.749985	0.558504
O7	O	0.900116	0.083292	0.008252
O8	O	1.233450	0.416625	0.341586
O9	O	1.566783	0.749958	0.674919
O10	O	0.887664	0.083311	-0.212126
O11	O	1.220997	0.416645	0.121207
O12	O	1.554330	0.749978	0.454541
O13	O	0.900099	-0.083555	0.008255
O14	O	1.233433	0.249778	0.341588
O15	O	1.566766	0.583111	0.674921
O16	O	0.783684	-0.083529	-0.108161
O17	O	1.117017	0.249804	0.225173
O18	O	1.450351	0.583138	0.558506
O19	O	1.004062	-0.083562	-0.095708
O20	O	1.337396	0.249771	0.237625
O21	O	1.670729	0.583104	0.570959
Cu22	Cu	0.893872	-0.098780	-0.101934
Cu23	Cu	1.227205	0.234553	0.231399
Cu24	Cu	1.560538	0.567886	0.564733
Cu25	Cu	0.893892	0.098536	-0.101937
Cu26	Cu	1.227225	0.431869	0.231396
Cu27	Cu	1.560558	0.765203	0.564730
O28	O	0.887647	-0.083536	-0.212124
O29	O	1.220980	0.249797	0.121210
O30	O	1.554314	0.583131	0.454543
C31	C	0.755495	-0.000101	-0.107716
C32	C	1.088829	0.333232	0.225618
C33	C	1.422162	0.666565	0.558951
C34	C	0.671477	-0.000089	-0.106377
C35	C	1.004811	0.333244	0.226956
C36	C	1.338144	0.666578	0.560290
N37	N	0.893863	-0.237562	-0.101932
N38	N	1.227196	0.095772	0.231402
N39	N	1.560530	0.429105	0.564735
C40	C	0.622856	-0.000083	-0.174710
C41	C	0.956190	0.333250	0.158623
C42	C	1.289523	0.666583	0.491956
C43	C	0.543913	-0.000096	-0.173448
C44	C	0.877246	0.333237	0.159885
C45	C	1.210580	0.666570	0.493218
C46	C	0.513592	-0.000108	-0.103852
C47	C	0.846926	0.333225	0.229482
C48	C	1.180259	0.666559	0.562815
C49	C	0.562219	-0.000117	-0.035513
C50	C	0.895553	0.333216	0.297820
C51	C	1.228886	0.666550	0.631154
C52	C	0.641161	-0.000111	-0.036776
C53	C	0.974495	0.333222	0.296557
C54	C	1.307828	0.666556	0.629891
C55	C	0.243856	-0.000142	-0.030418
C56	C	0.577190	0.333191	0.302915
C57	C	0.910523	0.666525	0.636249
C58	C	0.164908	-0.000145	-0.029160
C59	C	0.498242	0.333188	0.304173
C60	C	0.831575	0.666522	0.637507
C61	C	0.146608	-0.000128	-0.167090
C62	C	0.479942	0.333206	0.166243
C63	C	0.813275	0.666539	0.499577
C64	C	0.225550	-0.000122	-0.168353
C65	C	0.558883	0.333212	0.164980
C66	C	0.892217	0.666545	0.498314
C67	C	0.274170	-0.000136	-0.100015
C68	C	0.607504	0.333198	0.233319
C69	C	0.940837	0.666531	0.566652
C70	C	0.359769	-0.000123	-0.101384
C71	C	0.693103	0.333210	0.231949
C72	C	1.026436	0.666543	0.565282
C73	C	0.427995	-0.000113	-0.102481
C74	C	0.761328	0.333220	0.230852
C75	C	1.094661	0.666553	0.564185
C76	C	0.842341	-0.710173	-0.153466
C77	C	1.175674	-0.376840	0.179868
C78	C	1.509007	-0.043506	0.513201
C79	C	0.945463	-0.710164	-0.050403
C80	C	1.278796	-0.376831	0.282931
C81	C	1.612130	-0.043498	0.616264
C82	C	0.945454	-0.605146	-0.050400
C83	C	1.278788	-0.271813	0.282933
C84	C	1.612121	0.061521	0.616266
C85	C	0.893889	-0.552636	-0.101932
C86	C	1.227222	-0.219303	0.231401
C87	C	1.560556	0.114030	0.564734
C88	C	0.842332	-0.605145	-0.153466
C89	C	1.175665	-0.271811	0.179867
C90	C	1.508999	0.061522	0.513200
C91	C	0.997015	-0.552629	0.001128
C92	C	1.330349	-0.219296	0.334461
C93	C	1.663682	0.114037	0.667794
C94	C	0.997009	-0.447605	0.001132
C95	C	1.330343	-0.114271	0.334465
C96	C	1.663676	0.219062	0.667798
C97	C	0.945440	-0.395093	-0.050397
C98	C	1.278773	-0.061760	0.282936
C99	C	1.612106	0.271574	0.616269
C100	C	0.893880	-0.447608	-0.101933
C101	C	1.227214	-0.114275	0.231400
C102	C	1.560547	0.219059	0.564734
C103	C	0.842315	-0.395098	-0.153465
C104	C	1.175648	-0.061765	0.179868
C105	C	1.508982	0.271568	0.513202
C106	C	0.790751	-0.447612	-0.204998
C107	C	1.124084	-0.114278	0.128336
C108	C	1.457418	0.219055	0.461669
C109	C	0.790762	-0.552633	-0.204995
C110	C	1.124096	-0.219300	0.128338
C111	C	1.457429	0.114033	0.461671
C112	C	0.945429	-0.290071	-0.050400
C113	C	1.278762	0.043262	0.282934
C114	C	1.612095	0.376595	0.616267
C115	C	0.842306	-0.290070	-0.153466
C116	C	1.175640	0.043263	0.179868
C117	C	1.508973	0.376596	0.513201
C118	C	1.032268	-0.000141	-0.096156
C119	C	1.365601	0.333193	0.237178
C120	C	1.698934	0.666526	0.570511
C121	C	1.116286	-0.000146	-0.097494
C122	C	1.449619	0.333187	0.235839
C123	C	1.782953	0.666520	0.569172
C124	C	0.899662	-0.000132	0.036451
C125	C	1.232995	0.333201	0.369784
C126	C	1.566328	0.666535	0.703117
C127	C	0.898323	-0.000132	0.120469
C128	C	1.231656	0.333201	0.453802
C129	C	1.564990	0.666534	0.787135
N130	N	0.893906	0.237317	-0.101934
N131	N	1.227239	0.570651	0.231400
N132	N	1.560573	0.903984	0.564733
C133	C	0.888102	-0.000110	-0.240322
C134	C	1.221435	0.333223	0.093011
C135	C	1.554768	0.666557	0.426345
C136	C	0.889440	-0.000103	-0.324340
C137	C	1.222773	0.333230	0.008993
C138	C	1.556107	0.666563	0.342327
C139	C	0.966656	-0.000144	0.169090
C140	C	1.299990	0.333189	0.502423
C141	C	1.633323	0.666523	0.835756
C142	C	0.965394	-0.000135	0.248033
C143	C	1.298727	0.333198	0.581366
C144	C	1.632061	0.666532	0.914700
C145	C	0.895798	-0.000121	0.278354
C146	C	1.229131	0.333212	0.611687
C147	C	1.562464	0.666545	0.945020
C148	C	0.827459	-0.000107	0.229727
C149	C	1.160792	0.333227	0.563060
C150	C	1.494126	0.666560	0.896393
C151	C	0.828722	-0.000108	0.150785
C152	C	1.162055	0.333225	0.484118
C153	C	1.495389	0.666558	0.817451
C154	C	0.822364	-0.000098	0.548090
C155	C	1.155697	0.333236	0.881423
C156	C	1.489030	0.666569	1.214756
C157	C	0.821106	-0.000099	0.627038
C158	C	1.154439	0.333235	0.960371
C159	C	1.487773	0.666568	1.293704
C160	C	0.959036	-0.000124	0.645338
C161	C	1.292369	0.333209	0.978671
C162	C	1.625703	0.666543	1.312004
C163	C	0.960299	-0.000126	0.566396
C164	C	1.293632	0.333207	0.899729
C165	C	1.626966	0.666541	1.233063
C166	C	0.891961	-0.000106	0.517776
C167	C	1.225294	0.333227	0.851109
C168	C	1.558627	0.666561	1.184442
C169	C	0.893330	-0.000114	0.432177
C170	C	1.226664	0.333219	0.765510
C171	C	1.559997	0.666553	1.098843
C172	C	0.894427	-0.000121	0.363951
C173	C	1.227761	0.333213	0.697285
C174	C	1.561094	0.666546	1.030618
H175	H	0.647537	-0.000073	-0.231384
H176	H	0.980870	0.333260	0.101949
H177	H	1.314204	0.666594	0.435283
F178	F	0.749632	-0.000074	0.496354
F179	F	1.082965	0.333260	0.829688
F180	F	1.416299	0.666593	1.163021
H181	H	0.140225	-0.000156	0.027517
H182	H	0.473558	0.333177	0.360850
H183	H	0.806892	0.666511	0.694184
F184	F	0.529948	-0.000136	0.038557
F185	F	0.863281	0.333198	0.371890
F186	F	1.196614	0.666531	0.705224
F187	F	0.753389	-0.000081	0.261998
F188	F	1.086722	0.333253	0.595332
F189	F	1.420056	0.666586	0.928665
H190	H	0.283434	-0.000154	0.025228
H191	H	0.616767	0.333179	0.358561
H192	H	0.950101	0.666512	0.691894
H193	H	0.250232	-0.000108	-0.225025
H194	H	0.583566	0.333226	0.108308
H195	H	0.916899	0.666559	0.441641
H196	H	0.748782	-0.595396	-0.246952
H197	H	1.082115	-0.262063	0.086381
H198	H	1.415448	0.071271	0.419714
H199	H	0.107012	-0.000122	-0.222734
H200	H	0.440345	0.333212	0.110599
H201	H	0.773678	0.666545	0.443933
F202	F	0.787462	-0.766059	-0.208306
F203	F	1.120796	-0.432725	0.125028
F204	F	1.454129	-0.099392	0.458361
F205	F	0.692907	-0.000121	0.035954
F206	F	1.026241	0.333213	0.369287
F207	F	1.359574	0.666546	0.702620
F208	F	0.787418	-0.234194	-0.208311
F209	F	1.120752	0.099140	0.125022
F210	F	1.454085	0.432473	0.458356
H211	H	0.748769	-0.404846	-0.246959
H212	H	1.082103	-0.071513	0.086375
H213	H	1.415436	0.261821	0.419708
H214	H	0.773078	-0.000099	0.111198
H215	H	1.106411	0.333235	0.444531
H216	H	1.439745	0.666568	0.777864
H217	H	0.987450	-0.752921	-0.008450
H218	H	1.320783	-0.419588	0.324883
H219	H	1.654116	-0.086254	0.658216
F220	F	0.492170	-0.000086	-0.246178
F221	F	0.825503	0.333247	0.087155
F222	F	1.158837	0.666581	0.420488
H223	H	1.014680	-0.000135	0.684934
H224	H	1.348013	0.333198	1.018268
H225	H	1.681347	0.666531	1.351601
H226	H	1.039002	-0.595386	0.043080
H227	H	1.372336	-0.262053	0.376413
H228	H	1.705669	0.071281	0.709747
F229	F	1.051885	-0.391723	0.055977
F230	F	1.385218	-0.058390	0.389311
F231	F	1.718552	0.274943	0.722644
H232	H	0.987414	-0.247320	-0.008446
H233	H	1.320748	0.086013	0.324888
H234	H	1.654081	0.419347	0.658221
H235	H	1.023330	-0.000161	0.144409
H236	H	1.356663	0.333172	0.477742
H237	H	1.689997	0.666506	0.811076
F238	F	1.038124	-0.000149	0.299776
F239	F	1.371457	0.333184	0.633109
F240	F	1.704791	0.666518	0.966443
H241	H	1.016971	-0.000142	0.541714
H242	H	1.350305	0.333191	0.875047
H243	H	1.683638	0.666525	1.208380
F244	F	0.747028	-0.000083	0.659305
F245	F	1.080362	0.333250	0.992638
F246	F	1.413695	0.666584	1.325971
