data_functionalizedCrystal
_audit_creation_method	'MofGen! by Chris Wilmer'
_symmetry_space_group_name_H-M	'P1'
_symmetry_Int_Tables_number	1
_symmetry_cell_setting	triclinic
loop_
_symmetry_equiv_pos_as_xyz
  x,y,z
_cell_length_a	9.065218
_cell_length_b	14.586319
_cell_length_c	9.065218
_cell_angle_alpha	89.998049
_cell_angle_beta	94.984115
_cell_angle_gamma	90.003583
loop_
_atom_site_label
_atom_site_type_symbol
_atom_site_fract_x
_atom_site_fract_y
_atom_site_fract_z
O1	O	1.960400	0.076239	-0.216355
O2	O	2.460400	0.576239	0.283645
O3	O	1.531115	0.076240	-0.234101
O4	O	2.031115	0.576240	0.265899
O5	O	1.754630	0.076237	-0.010586
O6	O	2.254630	0.576237	0.489414
O7	O	1.736884	0.076241	-0.439871
O8	O	2.236884	0.576241	0.060129
O9	O	1.754615	-0.076244	-0.010582
O10	O	2.254615	0.423756	0.489418
O11	O	1.531099	-0.076241	-0.234098
O12	O	2.031099	0.423759	0.265902
O13	O	1.960384	-0.076242	-0.216351
O14	O	2.460384	0.423758	0.283649
Cu15	Cu	1.745740	-0.090164	-0.225224
Cu16	Cu	2.245740	0.409836	0.274776
Cu17	Cu	1.745759	0.090162	-0.225229
Cu18	Cu	2.245759	0.590162	0.274771
O19	O	1.736868	-0.076240	-0.439867
O20	O	2.236868	0.423760	0.060133
C21	C	1.476120	-0.000001	-0.232394
C22	C	1.976120	0.499999	0.267606
C23	C	1.312277	-0.000000	-0.227294
C24	C	1.812277	0.500000	0.272706
N25	N	1.745738	-0.216996	-0.225221
N26	N	2.245738	0.283004	0.274779
C27	C	1.844744	-0.452004	-0.126282
C28	C	2.344744	0.047996	0.373718
C29	C	1.844748	-0.547985	-0.126278
C30	C	2.344748	-0.047985	0.373722
C31	C	1.646756	-0.547992	-0.324164
C32	C	2.146756	-0.047992	0.175836
C33	C	1.646745	-0.452013	-0.324159
C34	C	2.146745	0.047987	0.175841
C35	C	1.745748	-0.404021	-0.225220
C36	C	2.245748	0.095979	0.274780
C37	C	1.745762	-0.595982	-0.225221
C38	C	2.245762	-0.095982	0.274779
C39	C	1.745766	-0.700049	-0.225218
C40	C	2.245766	-0.200049	0.274782
C41	C	1.745743	-0.299947	-0.225221
C42	C	2.245743	0.200053	0.274779
C43	C	2.015378	0.000000	-0.218059
C44	C	2.515378	0.500000	0.281941
C45	C	2.179221	0.000006	-0.223158
C46	C	2.679221	0.500006	0.276842
C47	C	1.752917	-0.000002	0.044403
C48	C	2.252917	0.499998	0.544403
C49	C	1.747817	0.000003	0.208245
C50	C	2.247817	0.500003	0.708245
N51	N	1.745773	0.216994	-0.225221
N52	N	2.245773	0.716994	0.274779
C53	C	1.738582	0.000001	-0.494855
C54	C	2.238582	0.500001	0.005145
C55	C	1.743681	0.000003	-0.658698
C56	C	2.243681	0.500003	-0.158698
H57	H	1.925356	-0.412931	-0.045718
H58	H	2.425356	0.087069	0.454282
O59	O	1.951540	-0.599741	-0.019586
O60	O	2.451540	-0.099741	0.480414
H61	H	2.020388	-0.550242	0.049196
H62	H	2.520388	-0.050242	0.549196
H63	H	1.566152	-0.587077	-0.404720
H64	H	2.066152	-0.087077	0.095280
O65	O	1.539971	-0.400249	-0.430880
O66	O	2.039971	0.099751	0.069120
H67	H	1.471147	-0.449743	-0.499696
H68	H	1.971147	0.050257	0.000304
