data_functionalizedCrystal
_audit_creation_method	'MofGen! by Chris Wilmer'
_symmetry_space_group_name_H-M	'P1'
_symmetry_Int_Tables_number	1
_symmetry_cell_setting	triclinic
loop_
_symmetry_equiv_pos_as_xyz
  x,y,z
_cell_length_a	16.992694
_cell_length_b	27.732048
_cell_length_c	15.455313
_cell_angle_alpha	92.637842
_cell_angle_beta	87.142206
_cell_angle_gamma	86.655439
loop_
_atom_site_label
_atom_site_type_symbol
_atom_site_fract_x
_atom_site_fract_y
_atom_site_fract_z
O1	O	1.042606	0.100467	-0.072038
O2	O	0.814336	0.099342	-0.072063
O3	O	0.935560	0.029815	-0.072033
O4	O	0.921382	0.169994	-0.072068
O5	O	0.928628	0.033773	0.072227
O6	O	0.807404	0.103301	0.072197
O7	O	1.035674	0.104425	0.072223
Cu8	Cu	0.920906	0.104225	0.085382
Cu9	Cu	0.929104	0.099543	-0.085222
O10	O	0.914450	0.173953	0.072193
C11	C	0.781675	0.099876	0.000064
C12	C	0.694684	0.095561	0.000055
C13	C	0.643939	0.137184	0.000046
C14	C	0.562201	0.133129	0.000059
C15	C	0.531209	0.087449	0.000075
C16	C	0.581960	0.045823	0.000087
C17	C	0.663696	0.049880	0.000080
C18	C	0.287814	0.070637	0.000102
C19	C	0.206071	0.066583	0.000106
C20	C	0.186318	0.153889	0.000080
C21	C	0.268057	0.157941	0.000068
C22	C	0.318800	0.116315	0.000084
N23	N	0.447660	0.083302	0.000086
N24	N	0.402347	0.120463	0.000080
C25	C	0.931796	0.013774	0.000100
C26	C	0.930900	-0.039919	0.000107
C27	C	0.996895	-0.375882	0.000069
C28	C	0.993571	-0.577686	0.000057
O29	O	1.053919	-0.606333	0.000026
N30	N	0.921689	-0.599917	0.000050
C31	C	0.850634	-0.571695	0.000040
O32	O	0.789419	-0.595235	0.000025
C33	C	0.853960	-0.369892	0.000046
C34	C	0.925846	-0.347663	0.000062
C35	C	1.068775	-0.353652	0.000084
C36	C	1.069605	-0.303204	0.000092
C37	C	0.998556	-0.274986	0.000085
C38	C	0.926676	-0.297215	0.000070
C39	C	0.782906	-0.341671	0.000030
C40	C	0.783744	-0.291218	0.000030
C41	C	0.855630	-0.268989	0.000046
C42	C	0.856457	-0.218549	0.000071
N43	N	0.928338	-0.196317	0.000078
C44	C	0.999387	-0.224535	0.000085
C45	C	0.848893	-0.677644	0.000038
C46	C	0.848061	-0.728095	0.000038
C47	C	0.990998	-0.734082	0.000054
C48	C	0.991829	-0.683630	0.000060
C49	C	0.920775	-0.655413	0.000046
C50	C	1.001126	-0.118591	0.000102
C51	C	1.001949	-0.068138	0.000114
C52	C	0.859013	-0.062155	0.000094
C53	C	0.858189	-0.112603	0.000087
C54	C	0.929251	-0.140820	0.000088
O55	O	0.796141	-0.189872	0.000092
O56	O	1.060595	-0.200987	0.000081
C57	C	0.996065	-0.426330	0.000062
C58	C	0.924185	-0.448559	0.000047
C59	C	0.853136	-0.420341	0.000039
C60	C	0.923354	-0.499010	0.000047
C61	C	0.994403	-0.527228	0.000054
C62	C	1.066285	-0.504997	0.000061
C63	C	1.067115	-0.454549	0.000069
C64	C	0.781254	-0.442573	0.000032
C65	C	0.780430	-0.493021	0.000025
C66	C	0.851480	-0.521240	0.000033
C67	C	1.068335	0.103892	0.000094
C68	C	1.155327	0.108206	0.000097
C69	C	0.918214	0.189993	0.000058
C70	C	0.919111	0.243687	0.000046
N71	N	0.915146	0.107517	0.205376
N72	N	0.934870	0.096247	-0.205217
C73	C	0.966664	0.077992	0.250783
C74	C	0.962315	0.080486	0.341590
C75	C	0.906451	0.112509	0.386988
C76	C	0.854928	0.142036	0.341575
C77	C	0.859274	0.139538	0.250770
C78	C	0.887693	0.123276	0.658565
C79	C	0.883353	0.125773	0.749377
C80	C	0.990739	0.064222	0.749385
C81	C	0.995083	0.061730	0.658578
C82	C	0.943557	0.091254	0.613173
N83	N	0.902006	0.115061	0.479807
N84	N	0.947999	0.088700	0.520356
H85	H	0.180842	0.029383	0.000119
H86	H	0.791029	-0.654674	0.000027
C87	C	0.702361	-0.517130	-0.000171
C88	C	0.663033	-0.505083	-0.074409
C89	C	0.591122	-0.527286	-0.074634
H90	H	0.670619	-0.506275	0.050071
H91	H	0.712002	-0.551223	-0.000224
H92	H	0.653389	-0.470997	-0.074348
H93	H	0.694751	-0.515939	-0.124663
H94	H	0.600763	-0.561380	-0.074687
H95	H	0.559388	-0.516429	-0.024389
H96	H	0.564433	-0.519119	-0.125007
H97	H	0.723396	-0.419602	0.000024
H98	H	0.293284	0.195138	0.000044
C99	C	1.078263	-0.149250	-0.000069
C100	C	1.085551	-0.180409	-0.074301
C101	C	1.156603	-0.208655	-0.074489
H102	H	1.078573	-0.167724	0.050177
H103	H	1.121210	-0.128797	-0.000105
H104	H	1.042615	-0.200860	-0.074258
H105	H	1.085254	-0.161948	-0.124560
H106	H	1.199550	-0.188202	-0.074524
H107	H	1.156907	-0.227126	-0.024239
H108	H	1.161561	-0.229796	-0.124857
C109	C	1.147622	-0.279042	0.000274
C110	C	1.148731	-0.248231	0.074503
C111	C	1.220595	-0.225973	0.074701
H112	H	1.153408	-0.260825	-0.049974
H113	H	1.189834	-0.303063	0.000321
H114	H	1.106531	-0.224214	0.074448
H115	H	1.142958	-0.266436	0.124763
H116	H	1.262807	-0.249994	0.074748
H117	H	1.226375	-0.207759	0.024449
H118	H	1.221360	-0.205069	0.125068
C119	C	0.803429	0.171679	0.201513
C120	C	0.814515	0.220258	0.223558
C121	C	0.763088	0.249879	0.178192
H122	H	0.750444	0.164865	0.216368
H123	H	0.814020	0.165637	0.140923
H124	H	0.803919	0.226298	0.284135
H125	H	0.867489	0.227088	0.208701
H126	H	0.773679	0.243837	0.117602
H127	H	0.710107	0.243061	0.193051
H128	H	0.770609	0.282844	0.193138
C129	C	1.046636	0.032081	0.798576
C130	C	1.035568	-0.016496	0.776490
C131	C	1.087052	-0.046122	0.821779
H132	H	1.036102	0.038088	0.859170
H133	H	1.099607	0.038925	0.783668
H134	H	0.982609	-0.023338	0.791403
H135	H	1.046108	-0.022519	0.715904
H136	H	1.140023	-0.039278	0.806872
H137	H	1.076513	-0.040111	0.882372
H138	H	1.079554	-0.079085	0.806795
H139	H	1.004264	0.056444	0.378560
C140	C	1.080084	-0.044096	0.000083
C141	C	1.142127	-0.079611	0.000061
C142	C	1.214113	-0.057485	0.000018
H143	H	1.081078	-0.023168	0.050378
H144	H	1.085841	-0.025927	-0.050242
H145	H	1.136372	-0.097772	0.050380
H146	H	1.141158	-0.100541	-0.050231
H147	H	1.219870	-0.039316	-0.050306
H148	H	1.215099	-0.036558	0.050315
H149	H	1.256218	-0.081579	-0.000004
H150	H	0.329120	0.036742	0.000117
H151	H	0.144995	0.187778	0.000068
H152	H	0.837859	0.151851	0.786336
C153	C	1.027225	0.043132	0.201567
C154	C	1.014000	-0.004225	0.223691
C155	C	1.069766	-0.036358	0.178374
H156	H	1.078789	0.050759	0.216409
H157	H	1.022449	0.045828	0.140970
H158	H	1.018784	-0.006920	0.284274
H159	H	0.962448	-0.011867	0.208846
H160	H	1.064990	-0.033662	0.117777
H161	H	1.121326	-0.028727	0.193220
H162	H	1.060796	-0.068494	0.193373
H163	H	0.556720	0.008630	0.000113
H164	H	1.126636	-0.376623	0.000087
H165	H	0.724370	-0.359761	0.000012
C166	C	1.055416	0.026701	0.609412
C167	C	1.016225	-0.005909	0.557560
C168	C	1.071691	-0.038282	0.512351
H169	H	1.085299	0.009436	0.649549
H170	H	1.089738	0.044128	0.573765
H171	H	0.981917	-0.023335	0.593204
H172	H	0.986345	0.011342	0.517406
H173	H	1.106012	-0.020854	0.476704
H174	H	1.101571	-0.055543	0.552495
H175	H	1.045108	-0.060409	0.477158
H176	H	0.705012	0.015986	0.000088
C177	C	1.069960	-0.659590	0.000023
C178	C	1.131999	-0.695108	0.000009
C179	C	1.203988	-0.672984	-0.000041
H180	H	1.070957	-0.638659	0.050313
H181	H	1.075718	-0.641426	-0.050307
H182	H	1.126243	-0.713264	0.050333
H183	H	1.131028	-0.716041	-0.050278
H184	H	1.209746	-0.654820	-0.050370
H185	H	1.204977	-0.652053	0.050251
H186	H	1.246091	-0.697079	-0.000058
H187	H	1.048849	-0.757066	0.000060
H188	H	0.845740	0.147317	0.621603
C189	C	0.769934	-0.752136	-0.000013
C190	C	0.707897	-0.716620	-0.000044
C191	C	0.635913	-0.738747	-0.000109
H192	H	0.764104	-0.770314	0.050278
H193	H	0.769012	-0.773057	-0.050342
H194	H	0.708817	-0.695709	0.050279
H195	H	0.713700	-0.698440	-0.050332
H196	H	0.634992	-0.759667	-0.050438
H197	H	0.630092	-0.756924	0.050183
H198	H	0.593813	-0.714653	-0.000138
C199	C	0.706682	-0.260499	-0.000026
C200	C	0.722787	-0.211558	-0.000040
C201	C	0.651819	-0.183248	-0.000101
H202	H	0.674705	-0.266103	0.050260
H203	H	0.679597	-0.268886	-0.050360
H204	H	0.749860	-0.203175	0.050289
H205	H	0.754752	-0.205940	-0.050323
H206	H	0.624734	-0.191635	-0.050434
H207	H	0.619848	-0.188856	0.050187
H208	H	0.662737	-0.150039	-0.000118
C209	C	0.781825	-0.031574	-0.000056
C210	C	0.742071	-0.044075	-0.074275
C211	C	0.670958	-0.015917	-0.074445
H212	H	0.792514	0.001666	-0.000098
H213	H	0.749856	-0.037241	0.050217
H214	H	0.774033	-0.038405	-0.124535
H215	H	0.731362	-0.077310	-0.074248
H216	H	0.638989	-0.021584	-0.024173
H217	H	0.681654	0.017321	-0.074486
H218	H	0.643973	-0.024399	-0.124798
H219	H	0.799653	-0.130703	0.000098
C220	C	1.145247	-0.430510	0.000035
C221	C	1.207284	-0.466030	0.000016
C222	C	1.279275	-0.443908	-0.000029
H223	H	1.146245	-0.409582	0.050329
H224	H	1.151007	-0.412344	-0.050291
H225	H	1.201525	-0.484188	0.050337
H226	H	1.206311	-0.486961	-0.050274
H227	H	1.285035	-0.425742	-0.050355
H228	H	1.280265	-0.422980	0.050266
H229	H	1.321375	-0.468005	-0.000050
C230	C	0.794355	0.176791	0.391019
C231	C	0.801590	0.172670	0.480261
C232	C	0.745812	0.204684	0.525833
H233	H	0.742787	0.169129	0.376254
H234	H	0.803191	0.208969	0.376169
H235	H	0.792749	0.140498	0.495105
H236	H	0.853146	0.180335	0.495052
H237	H	0.754647	0.236863	0.510983
H238	H	0.694247	0.197020	0.511061
H239	H	0.750717	0.201896	0.586388
H240	H	0.520888	0.167023	0.000050
H241	H	0.669166	0.174382	0.000032
C242	C	1.143410	-0.535669	-0.000114
C243	C	1.150672	-0.566826	-0.074348
C244	C	1.221709	-0.595087	-0.074550
H245	H	1.143717	-0.554145	0.050131
H246	H	1.186370	-0.515226	-0.000154
H247	H	1.107723	-0.587268	-0.074300
H248	H	1.150379	-0.548363	-0.124605
H249	H	1.264669	-0.574644	-0.074591
H250	H	1.222010	-0.613560	-0.024303
H251	H	1.226649	-0.616227	-0.124921
