data_functionalizedCrystal
_audit_creation_method	'MofGen! by Chris Wilmer'
_symmetry_space_group_name_H-M	'P1'
_symmetry_Int_Tables_number	1
_symmetry_cell_setting	triclinic
loop_
_symmetry_equiv_pos_as_xyz
  x,y,z
_cell_length_a	10.540535
_cell_length_b	10.540539
_cell_length_c	14.586319
_cell_angle_alpha	89.998343
_cell_angle_beta	89.998875
_cell_angle_gamma	84.524567
loop_
_atom_site_label
_atom_site_type_symbol
_atom_site_fract_x
_atom_site_fract_y
_atom_site_fract_z
O1	O	1.685889	0.178872	-0.076185
O2	O	1.316475	0.195733	-0.076198
O3	O	1.509610	0.002596	-0.076190
O4	O	1.492754	0.372009	-0.076193
O5	O	1.509596	0.002593	0.076291
O6	O	1.316462	0.195730	0.076283
O7	O	1.685875	0.178869	0.076295
Cu8	Cu	1.501167	0.187299	0.090212
Cu9	Cu	1.501183	0.187303	-0.090114
O10	O	1.492741	0.372006	0.076288
C11	C	1.269165	0.194469	0.000041
C12	C	1.128217	0.190689	0.000036
C13	C	1.508339	-0.044709	0.000048
C14	C	1.504557	-0.185657	0.000043
C15	C	1.091546	0.049675	0.000041
C16	C	0.944946	0.045698	0.000396
C17	C	0.918873	0.255058	0.086951
C18	C	1.065639	0.258058	0.087015
C19	C	1.065538	0.260113	-0.086390
C20	C	0.919192	0.253592	-0.087523
C21	C	1.359640	-0.369081	-0.000304
C22	C	1.363474	-0.222463	0.000040
C23	C	1.572445	-0.247317	0.087120
C24	C	1.567630	-0.393862	0.087193
C25	C	1.570515	-0.394376	-0.086206
C26	C	1.571815	-0.247395	-0.087357
C27	C	1.733185	0.180133	0.000055
C28	C	1.874134	0.183913	0.000053
C29	C	1.494011	0.419311	0.000047
C30	C	1.497793	0.560259	0.000046
N31	N	1.501165	0.187296	0.217044
N32	N	1.501195	0.187296	-0.216946
C33	C	1.586714	0.101804	0.452053
C34	C	1.586718	0.101801	0.548035
C35	C	1.415637	0.272792	0.548037
C36	C	1.415628	0.272788	0.452058
C37	C	1.501174	0.187295	0.404068
C38	C	1.501186	0.187297	0.596029
C39	C	1.501190	0.187294	0.700096
C40	C	1.501170	0.187296	0.299995
H41	H	0.915614	-0.009942	-0.061883
H42	H	1.108003	0.216112	-0.152279
N43	N	1.674028	0.014451	0.403002
N44	N	1.632966	-0.064702	0.349455
H45	H	1.694616	-0.126403	0.314802
H46	H	1.517446	-0.422062	0.152281
H47	H	0.871517	0.356823	0.089937
H48	H	1.522142	-0.206534	-0.151774
H49	H	1.304130	-0.399289	0.061787
H50	H	1.656371	0.032184	0.587101
H51	H	1.133521	-0.004474	-0.062266
H52	H	1.310055	-0.179858	-0.062380
N53	N	0.880112	0.193848	0.168405
N54	N	0.808119	0.254392	0.224595
H55	H	0.780746	0.211159	0.282122
N56	N	1.328249	0.360104	0.597062
N57	N	1.249097	0.319066	0.650625
H58	H	1.187377	0.380731	0.685249
H59	H	1.303914	-0.397679	-0.062748
H60	H	1.345965	0.342406	0.412986
H61	H	1.676053	-0.224965	0.090361
H62	H	1.105804	0.210009	0.152222
N63	N	1.700844	-0.216982	-0.093953
N64	N	1.745534	-0.149015	-0.034075
H65	H	1.836663	-0.127530	-0.038729
N66	N	0.857696	0.380156	-0.094401
N67	N	0.790463	0.411866	-0.162742
H68	H	0.747031	0.501259	-0.167574
H69	H	1.525275	-0.204718	0.151916
N70	N	0.883302	0.188641	-0.168168
N71	N	0.824754	0.091396	-0.161241
H72	H	0.799396	0.045523	-0.218195
H73	H	1.669095	-0.441832	0.091147
H74	H	1.087723	0.363865	-0.087232
N75	N	1.513241	-0.433975	-0.168994
N76	N	1.418118	-0.496121	-0.165430
H77	H	1.377657	-0.524092	-0.223894
N78	N	1.146048	-0.017102	0.078112
N79	N	1.117418	0.021682	0.157110
H80	H	1.155911	-0.025473	0.212250
N81	N	0.909260	-0.023744	0.079017
N82	N	0.934073	0.013975	0.157667
H83	H	0.908874	-0.035068	0.213200
N84	N	1.094520	0.387742	0.091664
N85	N	1.006314	0.475745	0.094858
H86	H	1.026705	0.567333	0.098150
H87	H	1.672419	-0.441604	-0.086788
H88	H	1.309670	-0.180707	0.062560
