data_functionalizedCrystal
_audit_creation_method	'MofGen! by Chris Wilmer'
_symmetry_space_group_name_H-M	'P1'
_symmetry_Int_Tables_number	1
_symmetry_cell_setting	triclinic
loop_
_symmetry_equiv_pos_as_xyz
  x,y,z
_cell_length_a	21.395362
_cell_length_b	19.076808
_cell_length_c	21.395355
_cell_angle_alpha	87.682564
_cell_angle_beta	89.956060
_cell_angle_gamma	92.338508
loop_
_atom_site_label
_atom_site_type_symbol
_atom_site_fract_x
_atom_site_fract_y
_atom_site_fract_z
Zn1	Zn	0.947868	-0.280001	-0.344563
Zn2	Zn	1.447868	0.219999	0.155437
Zn3	Zn	0.943570	-0.397688	-0.235573
Zn4	Zn	1.443570	0.102312	0.264427
Zn5	Zn	0.843081	-0.280034	-0.239763
Zn6	Zn	1.343081	0.219966	0.260237
Zn7	Zn	0.838852	-0.397702	-0.340278
Zn8	Zn	1.338852	0.102298	0.159722
O9	O	0.893343	-0.338856	-0.290044
O10	O	1.393343	0.161144	0.209956
O11	O	1.034976	-0.295593	-0.330146
O12	O	1.534976	0.204407	0.169854
O13	O	0.930212	-0.382088	-0.148451
O14	O	1.430212	0.117912	0.351549
O15	O	0.860550	-0.181533	-0.257213
O16	O	1.360550	0.318467	0.242787
O17	O	1.031819	-0.382056	-0.250071
O18	O	1.531819	0.117944	0.249929
O19	O	0.937536	-0.181508	-0.334209
O20	O	1.437536	0.318492	0.165791
O21	O	0.856383	-0.295648	-0.151529
O22	O	1.356383	0.204352	0.348471
O23	O	0.754842	-0.295662	-0.253057
O24	O	1.254842	0.204338	0.246943
O25	O	0.853341	-0.382081	-0.428524
O26	O	1.353341	0.117919	0.071476
O27	O	0.751734	-0.382113	-0.326904
O28	O	1.251734	0.117887	0.173096
O29	O	0.933435	-0.295607	-0.431673
O30	O	1.433435	0.204393	0.068327
O31	O	0.926111	-0.496186	-0.245916
O32	O	1.426111	0.003814	0.254084
O33	O	0.849174	-0.496197	-0.322841
O34	O	1.349174	0.003803	0.177159
C35	C	0.730554	-0.338893	-0.289970
C36	C	1.230554	0.161107	0.210030
C37	C	0.660911	-0.338926	-0.289953
C38	C	1.160911	0.161074	0.210047
C39	C	0.886734	-0.521731	-0.283472
C40	C	1.386734	-0.021731	0.216528
C41	C	0.883964	-0.599965	-0.280682
C42	C	1.383964	-0.099965	0.219318
C43	C	0.626594	-0.384001	-0.328343
C44	C	1.126594	0.115999	0.171657
C45	C	0.561159	-0.383983	-0.328372
C46	C	1.061159	0.116017	0.171628
C47	C	0.530044	-0.338899	-0.289999
C48	C	1.030044	0.161101	0.210001
C49	C	0.564369	-0.293816	-0.251606
C50	C	1.064369	0.206184	0.248394
C51	C	0.629803	-0.293829	-0.251583
C52	C	1.129803	0.206171	0.248417
C53	C	0.426522	-0.333229	-0.233796
C54	C	0.926522	0.166771	0.266204
C55	C	0.361089	-0.333220	-0.233818
C56	C	0.861089	0.166780	0.266182
C57	C	0.328225	-0.338853	-0.290069
C58	C	0.828225	0.161147	0.209931
C59	C	0.360801	-0.344510	-0.346301
C60	C	0.860801	0.155490	0.153699
C61	C	0.426235	-0.344523	-0.346278
C62	C	0.926235	0.155477	0.153722
C63	C	0.459092	-0.338879	-0.290019
C64	C	0.959092	0.161121	0.209981
C65	C	0.222956	-0.383911	-0.328494
C66	C	0.722956	0.116089	0.171506
C67	C	0.157520	-0.383889	-0.328524
C68	C	0.657520	0.116111	0.171476
C69	C	0.160731	-0.293725	-0.251752
C70	C	0.660731	0.206275	0.248248
C71	C	0.226166	-0.293744	-0.251728
C72	C	0.726166	0.206256	0.248272
C73	C	0.257274	-0.338841	-0.290098
C74	C	0.757274	0.161159	0.209902
C75	C	0.922715	-0.636647	-0.319491
C76	C	1.422715	-0.136647	0.180509
C77	C	0.920110	-0.710157	-0.316870
C78	C	1.420110	-0.210157	0.183130
C79	C	0.878757	-0.746983	-0.275436
C80	C	1.378757	-0.246983	0.224564
C81	C	0.840001	-0.710296	-0.236625
C82	C	1.340001	-0.210296	0.263375
C83	C	0.842604	-0.636788	-0.239250
C84	C	1.342604	-0.136788	0.260750
C85	C	0.866676	-0.966837	-0.263287
C86	C	1.366676	-0.466837	0.236713
C87	C	0.864078	-1.040351	-0.260664
C88	C	1.364078	-0.540351	0.239336
C89	C	0.944186	-1.040206	-0.340910
C90	C	1.444186	-0.540206	0.159090
C91	C	0.946787	-0.966696	-0.343528
C92	C	1.446787	-0.466696	0.156472
C93	C	0.908030	-0.930016	-0.304720
C94	C	1.408030	-0.430016	0.195280
N95	N	0.876094	-0.822122	-0.272755
N96	N	1.376094	-0.322122	0.227245
N97	N	0.910689	-0.854879	-0.307405
N98	N	1.410689	-0.354879	0.192595
C99	C	1.056767	-0.338819	-0.290119
C100	C	1.556767	0.161181	0.209881
C101	C	1.126409	-0.338803	-0.290151
C102	C	1.626409	0.161197	0.209849
C103	C	0.893395	-0.338842	-0.453468
C104	C	1.393395	0.161158	0.046532
C105	C	0.893418	-0.338836	-0.523110
C106	C	1.393418	0.161164	-0.023110
C107	C	0.899994	-0.155267	-0.296656
C108	C	1.399994	0.344733	0.203344
C109	C	0.902829	-0.077033	-0.299473
C110	C	1.402829	0.422967	0.200527
C111	C	0.935121	-0.293807	-0.557464
C112	C	1.435121	0.206193	-0.057464
C113	C	0.935121	-0.293776	-0.622900
C114	C	1.435121	0.206224	-0.122900
C115	C	0.893424	-0.338788	-0.653980
C116	C	1.393424	0.161212	-0.153980
C117	C	0.851713	-0.383820	-0.619618
C118	C	1.351713	0.116180	-0.119618
C119	C	0.851710	-0.383844	-0.554183
C120	C	1.351710	0.116156	-0.054183
C121	C	0.886187	-0.402166	-0.755375
C122	C	1.386187	0.097834	-0.255375
C123	C	0.886194	-0.402143	-0.820809
C124	C	1.386194	0.097857	-0.320809
C125	C	0.893431	-0.338713	-0.855803
C126	C	1.393431	0.161287	-0.355803
C127	C	0.900673	-0.275304	-0.825356
C128	C	1.400673	0.224696	-0.325356
C129	C	0.900670	-0.275328	-0.759921
C130	C	1.400670	0.224672	-0.259921
C131	C	0.893423	-0.338766	-0.724933
C132	C	1.393423	0.161234	-0.224933
C133	C	0.935136	-0.293648	-0.961111
C134	C	1.435136	0.206352	-0.461111
C135	C	0.935132	-0.293616	-1.026549
C136	C	1.435132	0.206384	-0.526549
C137	C	0.851728	-0.383666	-1.023265
C138	C	1.351728	0.116334	-0.523265
C139	C	0.851729	-0.383691	-0.957829
C140	C	1.351729	0.116309	-0.457829
C141	C	0.893436	-0.338683	-0.926756
C142	C	1.393436	0.161317	-0.426756
C143	C	0.893328	-0.338819	-0.127258
C144	C	1.393328	0.161181	0.372742
C145	C	0.893434	-0.338627	-0.057624
C146	C	1.393434	0.161373	0.442376
H147	H	0.651919	-0.420721	-0.359588
H148	H	1.151919	0.079279	0.140412
H149	H	0.334045	-0.349095	-0.392106
H150	H	0.834045	0.150905	0.107894
F151	F	0.985430	-1.079249	-0.382211
F152	F	1.485430	-0.579249	0.117789
H153	H	0.539031	-0.257107	-0.220364
H154	H	1.039031	0.242893	0.279636
F155	F	0.801359	-0.597749	-0.197945
F156	F	1.301359	-0.097749	0.302055
H157	H	0.969082	-0.257156	-0.532168
H158	H	1.469082	0.242844	-0.032168
H159	H	0.806328	-0.740287	-0.202892
H160	H	1.306328	-0.240287	0.297108
F161	F	0.878498	-0.469683	-0.718138
F162	F	1.378498	0.030317	-0.218138
F163	F	0.908374	-0.207846	-0.727519
F164	F	1.408374	0.292154	-0.227519
H165	H	0.453274	-0.328639	-0.187987
H166	H	0.953274	0.171361	0.312013
H167	H	0.657744	-0.257122	-0.220321
H168	H	1.157744	0.242878	0.279679
H169	H	0.817771	-0.420308	-1.048570
H170	H	1.317771	0.079692	-0.548570
F171	F	0.256066	-0.431903	-0.369333
F172	F	0.756066	0.068097	0.130667
H173	H	0.880301	-0.453775	-0.845594
H174	H	1.380301	0.046225	-0.345594
H175	H	0.817762	-0.420466	-0.644928
H176	H	1.317762	0.079534	-0.144928
H177	H	0.951670	-0.740020	-0.348467
H178	H	1.451670	-0.240020	0.151533
F179	F	0.990801	-0.927508	-0.387628
F180	F	1.490801	-0.427508	0.112372
H181	H	0.956393	-0.606668	-0.353228
H182	H	1.456393	-0.106668	0.146772
H183	H	0.830399	-1.070333	-0.226924
H184	H	1.330399	-0.570333	0.273076
H185	H	0.817747	-0.420511	-0.526213
H186	H	1.317747	0.079489	-0.026213
H187	H	0.969079	-0.257104	-0.650876
H188	H	1.469079	0.242896	-0.150876
H189	H	0.334570	-0.328619	-0.188031
H190	H	0.834570	0.171381	0.311969
H191	H	0.835119	-0.936978	-0.231687
H192	H	1.335119	-0.436978	0.268313
H193	H	0.817773	-0.420363	-0.929858
H194	H	1.317773	0.079637	-0.429858
F195	F	0.908377	-0.207793	-0.862594
F196	F	1.408377	0.292207	-0.362594
F197	F	0.524629	-0.431959	-0.369234
F198	F	1.024629	0.068041	0.130766
F199	F	0.979522	-0.245744	-0.928038
F200	F	1.479522	0.254256	-0.428038
H201	H	0.452756	-0.349127	-0.392063
H202	H	0.952756	0.150873	0.107937
F203	F	0.120998	-0.431862	-0.369390
F204	F	0.620998	0.068138	0.130610
H205	H	0.135398	-0.257014	-0.220511
H206	H	0.635398	0.242986	0.279489
F207	F	0.262690	-0.245771	-0.210866
F208	F	0.762690	0.254229	0.289134
F209	F	0.979528	-0.245695	-1.063110
F210	F	1.479528	0.254305	-0.563110
