data_functionalizedCrystal
_audit_creation_method	'MofGen! by Chris Wilmer'
_symmetry_space_group_name_H-M	'P1'
_symmetry_Int_Tables_number	1
_symmetry_cell_setting	triclinic
loop_
_symmetry_equiv_pos_as_xyz
  x,y,z
_cell_length_a	10.654562
_cell_length_b	10.654550
_cell_length_c	22.010155
_cell_angle_alpha	89.981979
_cell_angle_beta	90.003988
_cell_angle_gamma	95.512497
loop_
_atom_site_label
_atom_site_type_symbol
_atom_site_fract_x
_atom_site_fract_y
_atom_site_fract_z
O1	O	1.667823	-0.176502	0.050563
O2	O	1.302347	-0.193291	0.050556
O3	O	1.493488	-0.002158	0.050558
O4	O	1.476682	-0.367635	0.050562
O5	O	1.493489	-0.002097	-0.050493
O6	O	1.302347	-0.193231	-0.050495
O7	O	1.667824	-0.176441	-0.050487
Cu8	Cu	1.485086	-0.184831	-0.059717
Cu9	Cu	1.485085	-0.184902	0.059786
O10	O	1.476683	-0.367575	-0.050489
C11	C	1.255549	-0.192025	0.000030
C12	C	1.116107	-0.188327	0.000027
C13	C	1.050577	-0.186569	-0.055051
C14	C	0.919554	-0.183104	-0.055041
C15	C	0.919604	-0.183160	0.055130
C16	C	1.050625	-0.186616	0.055119
C17	C	1.116059	-0.188279	-0.110143
C18	C	1.050528	-0.186523	-0.165226
C19	C	0.919506	-0.183058	-0.165216
C20	C	0.854014	-0.181350	-0.110123
C21	C	1.714621	-0.177708	0.000041
C22	C	1.854064	-0.181406	0.000048
C23	C	1.492254	0.044670	0.000033
C24	C	1.488563	0.184114	0.000035
N25	N	1.485095	-0.184780	-0.143770
C26	C	1.477916	-0.414403	0.000037
C27	C	1.481608	-0.553847	0.000039
C28	C	1.601103	0.263595	0.000036
C29	C	1.597627	0.394615	0.000040
C30	C	1.369059	0.366662	0.000040
C31	C	1.372537	0.235644	0.000041
C32	C	1.717129	0.212064	0.000030
C33	C	1.829680	0.291546	0.000030
C34	C	1.826203	0.422567	0.000034
C35	C	1.710176	0.474106	0.000039
N36	N	1.485085	-0.184943	0.143839
C37	C	1.408433	-0.107780	0.563615
C38	C	1.408436	-0.107765	0.627223
O39	O	1.343270	-0.042207	0.660112
N40	N	1.485100	-0.184806	0.659046
C41	C	1.561775	-0.261858	0.627258
O42	O	1.626985	-0.327385	0.660166
C43	C	1.561778	-0.261866	0.563651
C44	C	1.485099	-0.184829	0.531832
C45	C	1.331761	-0.030749	0.531796
C46	C	1.331757	-0.030766	0.468192
C47	C	1.408423	-0.107815	0.436409
C48	C	1.485094	-0.184847	0.468229
C49	C	1.638459	-0.338911	0.531865
C50	C	1.638455	-0.338911	0.468254
C51	C	1.561777	-0.261874	0.436434
C52	C	1.561756	-0.261913	0.372842
N53	N	1.485092	-0.184872	0.341019
C54	C	1.408426	-0.107823	0.372802
C55	C	1.561766	-0.261834	0.760836
C56	C	1.561757	-0.261834	0.824441
C57	C	1.408420	-0.107739	0.824402
C58	C	1.408422	-0.107747	0.760795
C59	C	1.485102	-0.184793	0.729013
C60	C	1.408421	-0.107866	0.239231
C61	C	1.408419	-0.107894	0.175622
C62	C	1.561761	-0.261984	0.175667
C63	C	1.561758	-0.261961	0.239270
C64	C	1.485084	-0.184892	0.271051
O65	O	1.626892	-0.327434	0.339912
O66	O	1.343239	-0.042294	0.339886
H67	H	1.103861	-0.187904	-0.210080
H68	H	1.624182	-0.324580	0.850343
H69	H	0.866156	-0.181618	-0.210066
C70	C	1.722815	-0.423643	0.566857
C71	C	1.663151	-0.525297	0.610603
C72	C	1.747516	-0.610031	0.645595
C73	C	1.891546	-0.593112	0.636842
C74	C	1.951218	-0.491453	0.593095
C75	C	1.866853	-0.406719	0.558102
H76	H	1.556525	-0.537826	0.617084
H77	H	1.703343	-0.685286	0.677980
H78	H	1.953998	-0.655837	0.662746
H79	H	2.057844	-0.478924	0.586613
H80	H	1.911026	-0.331465	0.525717
H81	H	1.707355	0.580794	0.000048
H82	H	1.924144	0.249574	0.000042
H83	H	1.624178	-0.324718	0.149778
C84	C	0.847564	-0.181295	0.115728
C85	C	0.770785	-0.070068	0.130882
C86	C	0.698746	-0.068208	0.191481
C87	C	0.703486	-0.177574	0.236925
C88	C	0.780268	-0.288809	0.221772
C89	C	0.852307	-0.290669	0.161173
H90	H	0.767273	0.010899	0.097241
H91	H	0.641907	0.014136	0.202699
H92	H	0.650159	-0.176197	0.281784
H93	H	0.783780	-0.369776	0.255413
H94	H	0.909146	-0.373013	0.149955
H95	H	0.747327	-0.178525	-0.110119
H96	H	1.917847	0.487278	0.000040
H97	H	1.274595	0.408637	0.000043
C98	C	1.248745	0.148202	0.000040
C99	C	1.153989	0.154649	0.052513
C100	C	1.030196	0.067205	0.052516
C101	C	1.001158	-0.026686	0.000046
C102	C	1.095916	-0.033137	-0.052431
C103	C	1.219709	0.054308	-0.052434
H104	H	1.175482	0.224156	0.091358
H105	H	0.960050	0.071980	0.091363
H106	H	0.909518	-0.091418	0.000049
H107	H	1.074422	-0.102644	-0.091276
H108	H	1.289855	0.049532	-0.091281
C109	C	1.722800	-0.423670	0.433293
C110	C	1.866833	-0.406771	0.442040
C111	C	1.951172	-0.491532	0.407080
C112	C	1.891479	-0.593192	0.363372
C113	C	1.747439	-0.610095	0.354622
C114	C	1.663099	-0.525334	0.389583
H115	H	1.911028	-0.331513	0.474397
H116	H	2.057800	-0.479018	0.413557
H117	H	1.953912	-0.655937	0.337492
H118	H	1.703244	-0.685354	0.322265
H119	H	1.556471	-0.537848	0.383106
H120	H	1.222743	-0.191105	-0.110158
H121	H	1.103980	-0.188054	0.099968
C122	C	1.324074	-0.023098	0.274184
C123	C	1.341593	0.120916	0.265401
C124	C	1.257240	0.205676	0.300354
C125	C	1.155368	0.146422	0.344089
C126	C	1.137845	0.002401	0.352873
C127	C	1.222198	-0.082359	0.317921
H128	H	1.417008	0.164786	0.233024
H129	H	1.270212	0.312291	0.293851
H130	H	1.092925	0.209167	0.369963
H131	H	1.062429	-0.041469	0.385250
H132	H	1.209225	-0.188974	0.324424
C133	C	1.324084	-0.022998	0.725796
C134	C	1.341616	0.121019	0.734522
C135	C	1.257276	0.205774	0.699526
C136	C	1.155405	0.146511	0.655805
C137	C	1.137868	0.002486	0.647077
C138	C	1.222208	-0.082268	0.682073
H139	H	1.417031	0.164896	0.766889
H140	H	1.270258	0.312390	0.705987
H141	H	1.092971	0.209251	0.629899
H142	H	1.062453	-0.041390	0.614710
H143	H	1.209226	-0.188885	0.675612
H144	H	1.719973	0.105382	0.000025
H145	H	1.345972	-0.045162	0.149718
H146	H	1.269322	0.031970	0.442291
H147	H	1.269330	0.032000	0.557667
H148	H	1.345993	-0.045001	0.850291
H149	H	1.624178	-0.324709	0.265179
H150	H	1.624203	-0.324587	0.734962
