data_functionalizedCrystal
_audit_creation_method	'MofGen! by Chris Wilmer'
_symmetry_space_group_name_H-M	'P1'
_symmetry_Int_Tables_number	1
_symmetry_cell_setting	triclinic
loop_
_symmetry_equiv_pos_as_xyz
  x,y,z
_cell_length_a	25.639242
_cell_length_b	17.637592
_cell_length_c	17.640968
_cell_angle_alpha	109.664491
_cell_angle_beta	101.235732
_cell_angle_gamma	101.226411
loop_
_atom_site_label
_atom_site_type_symbol
_atom_site_fract_x
_atom_site_fract_y
_atom_site_fract_z
Zn1	Zn	-0.821481	0.234031	-0.399798
Zn2	Zn	-0.777072	0.399779	-0.234048
Zn3	Zn	-0.711877	0.261924	-0.261951
Zn4	Zn	-0.711845	0.371857	-0.371825
O5	O	-0.755569	0.316898	-0.316906
O6	O	-0.888757	0.256030	-0.377841
O7	O	-0.749853	0.404851	-0.122400
O8	O	-0.745015	0.142850	-0.303621
O9	O	-0.856131	0.377805	-0.256065
O10	O	-0.825540	0.122357	-0.404897
O11	O	-0.701954	0.303569	-0.142900
O12	O	-0.638705	0.276495	-0.276497
O13	O	-0.744960	0.330216	-0.490886
O14	O	-0.638682	0.357262	-0.357221
O15	O	-0.825509	0.228955	-0.511437
O16	O	-0.749821	0.511449	-0.228941
O17	O	-0.701899	0.490935	-0.330165
C18	C	-0.619722	0.316876	-0.316851
C19	C	-0.561606	0.316882	-0.316844
C20	C	-0.721055	0.531104	-0.273507
C21	C	-0.706342	0.622736	-0.254969
C22	C	-0.201221	0.359049	-0.358851
C23	C	-0.146618	0.359051	-0.358861
O24	O	-0.118363	0.394873	-0.394548
N25	N	-0.119332	0.316906	-0.316932
C26	C	-0.146654	0.274749	-0.274997
O27	O	-0.118432	0.238901	-0.239335
C28	C	-0.201258	0.274743	-0.274992
C29	C	-0.228539	0.316897	-0.316917
C30	C	-0.228502	0.401199	-0.400773
C31	C	-0.283101	0.401198	-0.400761
C32	C	-0.310419	0.359047	-0.358828
C33	C	-0.283138	0.316896	-0.316906
C34	C	-0.228581	0.232582	-0.233063
C35	C	-0.283188	0.232578	-0.233063
C36	C	-0.310469	0.274733	-0.274988
C37	C	-0.365055	0.274744	-0.274961
N38	N	-0.392341	0.316889	-0.316890
C39	C	-0.365023	0.359040	-0.358823
C40	C	-0.031983	0.274765	-0.275011
C41	C	0.022620	0.274776	-0.275010
C42	C	0.022653	0.359077	-0.358875
C43	C	-0.031951	0.359070	-0.358871
C44	C	-0.059269	0.316910	-0.316940
C45	C	-0.479685	0.359036	-0.358795
C46	C	-0.534288	0.359034	-0.358777
C47	C	-0.534317	0.274730	-0.274916
C48	C	-0.479717	0.274735	-0.274930
C49	C	-0.452403	0.316889	-0.316876
O50	O	-0.393346	0.238937	-0.239295
O51	O	-0.393254	0.394873	-0.394489
C52	C	-0.643692	0.762636	-0.176058
C53	C	-0.657522	0.676532	-0.193484
C54	C	-0.741352	0.655031	-0.299049
C55	C	-0.727530	0.741136	-0.281629
C56	C	-0.678700	0.794932	-0.220134
C57	C	-0.762538	0.773431	-0.325704
C58	C	-0.748715	0.859527	-0.308289
C59	C	-0.699886	0.913329	-0.246798
C60	C	-0.664878	0.881028	-0.202718
C61	C	-0.811366	0.719632	-0.387204
C62	C	-0.846373	0.751928	-0.431279
C63	C	-0.832553	0.838027	-0.413859
C64	C	-0.783724	0.891828	-0.352368
C65	C	-0.867562	0.870327	-0.457939
C66	C	-0.853740	0.956423	-0.440523
C67	C	-0.769902	0.977924	-0.334953
C68	C	0.108055	0.316919	-0.316951
C69	C	0.049942	0.316924	-0.316947
C70	C	-0.790184	0.273359	-0.531907
C71	C	-0.804935	0.254806	-0.623527
C72	C	-0.790210	1.101854	-0.360482
C73	C	-0.804909	1.010220	-0.379028
C74	C	-0.643780	0.457398	-0.871354
C75	C	-0.657653	0.439954	-0.957447
C76	C	-0.741522	0.334520	-0.978835
C77	C	-0.727654	0.351953	-0.892742
C78	C	-0.678783	0.413393	-0.839008
C79	C	-0.762657	0.307948	-0.860396
C80	C	-0.748792	0.325382	-0.774310
C81	C	-0.699923	0.386822	-0.720570
C82	C	-0.664917	0.430828	-0.752922
C83	C	-0.811530	0.246512	-0.914132
C84	C	-0.846533	0.202507	-0.881786
C85	C	-0.832666	0.219937	-0.795699
C86	C	-0.783798	0.281376	-0.741959
C87	C	-0.867672	0.175931	-0.763348
C88	C	-0.853807	0.193366	-0.677262
C89	C	-0.769932	0.298811	-0.655873
C90	C	-0.721128	0.360207	-0.102753
C91	C	-0.706516	0.378529	-0.011180
H92	H	-0.556497	0.393364	-0.392918
C93	C	-0.832075	0.299967	-1.021562
C94	C	-0.826773	0.227345	-1.008760
H95	H	-0.841482	0.288133	-1.079982
H96	H	-0.860377	0.318170	-0.999209
H97	H	-0.797955	0.342846	-0.994187
H98	H	-0.860894	0.184467	-1.036130
H99	H	-0.798469	0.209130	-1.031124
H100	H	-0.886326	0.152484	-0.925547
H101	H	-0.882309	0.157531	-0.650926
H102	H	-0.625112	0.480839	-0.709171
C103	C	-0.926171	0.102394	-0.904809
C104	C	-0.921391	0.108401	-0.822419
H105	H	-0.959334	0.060700	-0.941275
H106	H	-0.927166	0.154931	-0.907683
H107	H	-0.895257	0.087465	-0.921349
H108	H	-0.952304	0.123336	-0.805877
H109	H	-0.920401	0.055853	-0.819541
C110	C	-0.573350	0.545933	-0.927655
C111	C	-0.619172	0.488326	-0.993002
H112	H	-0.549594	0.575792	-0.949607
H113	H	-0.585640	0.584271	-0.887696
H114	H	-0.553735	0.516800	-0.901352
H115	H	-0.638790	0.517460	-1.019300
H116	H	-0.606882	0.449983	-1.032976
H117	H	-0.305429	0.198239	-0.198923
H118	H	-0.603975	0.507409	-0.827603
H119	H	-0.556568	0.240415	-0.240772
H120	H	-0.781109	0.611220	-0.349122
C121	C	-0.485152	0.442366	-0.441689
C122	C	-0.449667	0.405373	-0.404901
H123	H	-0.466617	0.470978	-0.470145
H124	H	-0.517318	0.400094	-0.480537
H125	H	-0.495577	0.481126	-0.399329
H126	H	-0.439244	0.366609	-0.447262
H127	H	-0.417490	0.447650	-0.366050
C128	C	-0.485237	0.191408	-0.192032
C129	C	-0.449726	0.228403	-0.228842
H130	H	-0.466725	0.162796	-0.163588
H131	H	-0.495656	0.233679	-0.153169
H132	H	-0.517408	0.152649	-0.234378
H133	H	-0.417556	0.267168	-0.186495
H134	H	-0.439298	0.186127	-0.267708
H135	H	-0.206267	0.435523	-0.434925
C136	C	-0.277570	0.484513	-0.483666
C137	C	-0.313087	0.447525	-0.446858
H138	H	-0.296082	0.513109	-0.512131
H139	H	-0.245407	0.523278	-0.441323
H140	H	-0.267142	0.442233	-0.522518
H141	H	-0.323512	0.489807	-0.408001
H142	H	-0.345260	0.408757	-0.489206
C143	C	-0.183193	0.123982	-0.244228
C144	C	-0.198581	0.186279	-0.186956
H145	H	-0.164664	0.095410	-0.215752
H146	H	-0.215357	0.085198	-0.286555
H147	H	-0.159115	0.149094	-0.269208
H148	H	-0.222663	0.161166	-0.161981
H149	H	-0.166412	0.225069	-0.144615
H150	H	-0.054160	0.393395	-0.393011
C151	C	-0.876810	0.584593	-0.469640
C152	C	-0.826562	0.624992	-0.406351
H153	H	-0.886188	0.526166	-0.481462
H154	H	-0.905146	0.606906	-0.451511
H155	H	-0.873170	0.593297	-0.518874
H156	H	-0.830203	0.616293	-0.357114
H157	H	-0.798219	0.602671	-0.424477
C158	C	-0.670619	1.012741	-0.289250
C159	C	-0.716228	1.037070	-0.267353
H160	H	-0.637485	1.049260	-0.247521
H161	H	-0.673838	0.956853	-0.293302
H162	H	-0.669597	1.015624	-0.341772
H163	H	-0.717252	1.034182	-0.214833
H164	H	-0.713007	1.092972	-0.263291
C165	C	0.106371	0.396495	-0.396132
C166	C	0.052686	0.405402	-0.404980
H167	H	0.124911	0.425088	-0.424598
H168	H	0.126178	0.419699	-0.338308
H169	H	0.104432	0.338654	-0.419503
H170	H	0.054625	0.463243	-0.381604
H171	H	0.032874	0.382201	-0.462815
C172	C	0.017090	0.191449	-0.192115
C173	C	0.052606	0.228445	-0.228919
H174	H	0.035599	0.162838	-0.163667
H175	H	0.006667	0.233720	-0.153257
H176	H	-0.015080	0.152688	-0.234465
H177	H	0.084774	0.267211	-0.186567
H178	H	0.063036	0.186169	-0.267780
H179	H	-0.054222	0.240435	-0.240860
H180	H	-0.688631	0.983432	-0.232625
H181	H	-0.625117	0.924834	-0.152637
H182	H	-0.603932	0.806442	-0.125978
C183	C	-0.573258	0.706436	-0.087385
C184	C	-0.619036	0.641033	-0.145035
H185	H	-0.549501	0.684518	-0.057476
H186	H	-0.553631	0.732761	-0.116474
H187	H	-0.585598	0.746378	-0.049099
H188	H	-0.606697	0.601094	-0.183325
H189	H	-0.638667	0.614694	-0.115944
H190	H	-0.730127	0.348822	-0.612123
H191	H	-0.907317	0.826514	-0.508015
C192	C	-0.927852	0.739323	-0.533888
C193	C	-0.900045	0.692791	-0.498878
H194	H	-0.960984	0.702813	-0.575625
H195	H	-0.936704	0.780153	-0.491217
H196	H	-0.904726	0.766549	-0.558578
H197	H	-0.923169	0.665570	-0.474183
H198	H	-0.891193	0.651946	-0.541557
C199	C	-0.937991	0.926527	-0.546638
C200	C	-0.892214	0.991927	-0.488981
H201	H	-0.961742	0.948447	-0.576556
H202	H	-0.925652	0.886581	-0.584908
H203	H	-0.957631	0.900209	-0.517547
H204	H	-0.872572	1.018241	-0.518072
H205	H	-0.904553	1.031887	-0.450706
H206	H	-0.688637	0.401019	-0.650473
H207	H	-0.781314	0.284498	-1.022597
