data_functionalizedCrystal
_audit_creation_method	'MofGen! by Chris Wilmer'
_symmetry_space_group_name_H-M	'P1'
_symmetry_Int_Tables_number	1
_symmetry_cell_setting	triclinic
loop_
_symmetry_equiv_pos_as_xyz
  x,y,z
_cell_length_a	12.759401
_cell_length_b	29.839131
_cell_length_c	12.759393
_cell_angle_alpha	89.962110
_cell_angle_beta	89.981504
_cell_angle_gamma	90.041581
loop_
_atom_site_label
_atom_site_type_symbol
_atom_site_fract_x
_atom_site_fract_y
_atom_site_fract_z
Zn1	Zn	1.606060	-0.178825	-0.593935
Zn2	Zn	1.605873	-0.253963	-0.418236
Zn3	Zn	1.430362	-0.178848	-0.418275
Zn4	Zn	1.430269	-0.253929	-0.593877
O5	O	1.518141	-0.216391	-0.506081
O6	O	1.753056	-0.188797	-0.570636
O7	O	1.582551	-0.244024	-0.271220
O8	O	1.453787	-0.115978	-0.441617
O9	O	1.752919	-0.244001	-0.441551
O10	O	1.582871	-0.115961	-0.570674
O11	O	1.453605	-0.188837	-0.271248
O12	O	1.283329	-0.188803	-0.441561
O13	O	1.453628	-0.243942	-0.740906
O14	O	1.283260	-0.243965	-0.570575
O15	O	1.582781	-0.188763	-0.740949
O16	O	1.582461	-0.316826	-0.441495
O17	O	1.453446	-0.316801	-0.570538
C18	C	1.245174	-0.216383	-0.506066
C19	C	1.128397	-0.216390	-0.506085
C20	C	1.073527	-0.245159	-0.573152
C21	C	0.963803	-0.245165	-0.573163
C22	C	0.963829	-0.187632	-0.439032
C23	C	1.073551	-0.187624	-0.439027
C24	C	1.073511	-0.278376	-0.650588
C25	C	0.963787	-0.278382	-0.650600
C26	C	1.517951	-0.333114	-0.506029
C27	C	1.517966	-0.383048	-0.506041
C28	C	1.585441	-0.692692	-0.438986
C29	C	1.585571	-0.880365	-0.439027
O30	O	1.642790	-0.904631	-0.381974
N31	N	1.518359	-0.903833	-0.506160
C32	C	1.451114	-0.880380	-0.573292
O33	O	1.393957	-0.904648	-0.630402
C34	C	1.450991	-0.692708	-0.573256
C35	C	1.518200	-0.669243	-0.506111
C36	C	1.652646	-0.669227	-0.371848
C37	C	1.652609	-0.622311	-0.371834
C38	C	1.585367	-0.598861	-0.438959
C39	C	1.518163	-0.622327	-0.506098
C40	C	1.383752	-0.669256	-0.640393
C41	C	1.383729	-0.622335	-0.640380
C42	C	1.450938	-0.598869	-0.573235
C43	C	1.450884	-0.551962	-0.573209
N44	N	1.518096	-0.528494	-0.506076
C45	C	1.585338	-0.551944	-0.438951
C46	C	1.451183	-0.978911	-0.573305
C47	C	1.451212	-1.025829	-0.573313
C48	C	1.585670	-1.025811	-0.439049
C49	C	1.585635	-0.978892	-0.439036
C50	C	1.518395	-0.955443	-0.506172
C51	C	1.585254	-0.453418	-0.438927
C52	C	1.585208	-0.406498	-0.438916
C53	C	1.450754	-0.406521	-0.573184
C54	C	1.450796	-0.453436	-0.573191
C55	C	1.518054	-0.476884	-0.506059
O56	O	1.393703	-0.527668	-0.630240
O57	O	1.642503	-0.527668	-0.381867
C58	C	1.585479	-0.739608	-0.439000
C59	C	1.518274	-0.763073	-0.506138
C60	C	1.451033	-0.739624	-0.573263
C61	C	1.518304	-0.809991	-0.506146
C62	C	1.585545	-0.833441	-0.439021
C63	C	1.652757	-0.809973	-0.371888
C64	C	1.652720	-0.763058	-0.371875
C65	C	1.383820	-0.763092	-0.640396
C66	C	1.383862	-0.810007	-0.640404
C67	C	1.451104	-0.833457	-0.573279
C68	C	1.792174	-0.216400	-0.506096
C69	C	1.908951	-0.216404	-0.506102
C70	C	1.518215	-0.216346	-0.780114
C71	C	1.518246	-0.216327	-0.896891
C72	C	1.518360	-0.099213	-0.506156
C73	C	1.518454	-0.049279	-0.506188
C74	C	1.585505	-0.187593	-0.951777
C75	C	1.585530	-0.187576	-1.061501
C76	C	1.451034	-0.245032	-1.061444
C77	C	1.451004	-0.245046	-0.951722
C78	C	1.663159	-0.154422	-0.951811
C79	C	1.663184	-0.154406	-1.061535
C80	C	1.518128	-0.216404	-0.233113
C81	C	1.518301	-0.216297	-0.116337
H82	H	0.919160	-0.164212	-0.384437
C83	C	1.600283	-0.926171	-0.297707
C84	C	1.659517	-0.953101	-0.365234
H85	H	1.645900	-0.910253	-0.252140
H86	H	1.560250	-0.905488	-0.337682
H87	H	1.554540	-0.944510	-0.257490
H88	H	1.705255	-0.934761	-0.405457
H89	H	1.699568	-0.973786	-0.325254
H90	H	1.107489	-0.311410	-0.621295
H91	H	1.641428	-0.119630	-0.922064
C92	C	1.250871	-0.664541	-0.773124
C93	C	1.309879	-0.695041	-0.714210
H94	H	1.205269	-0.680460	-0.818703
H95	H	1.210696	-0.646277	-0.727308
H96	H	1.296634	-0.646206	-0.813330
H97	H	1.264117	-0.713374	-0.673998
H98	H	1.350058	-0.713313	-0.760031
C99	C	1.835984	-0.182293	-0.987573
C100	C	1.767457	-0.171252	-0.905848
H101	H	1.900374	-0.192680	-0.959194
H102	H	1.805545	-0.205162	-1.029443
H103	H	1.848520	-0.156519	-1.029496
H104	H	1.754915	-0.197027	-0.863929
H105	H	1.797902	-0.148381	-0.863960
H106	H	1.103329	-0.269097	-0.731998
C107	C	0.999671	-0.250600	-0.823590
C108	C	0.917898	-0.261616	-0.755021
H109	H	0.971337	-0.240251	-0.888053
H110	H	1.041586	-0.227708	-0.793280
H111	H	1.041536	-0.276374	-0.835954
H112	H	0.876037	-0.235842	-0.742651
H113	H	0.875965	-0.284511	-0.785338
C114	C	1.712279	-0.550386	-0.312181
C115	C	1.726494	-0.596521	-0.298032
H116	H	1.757893	-0.534468	-0.266613
H117	H	1.727613	-0.542668	-0.382774
H118	H	1.641691	-0.542734	-0.296735
H119	H	1.797080	-0.604174	-0.313486
H120	H	1.711167	-0.604243	-0.227424
H121	H	1.744545	-0.163724	-1.091311
C122	C	1.318084	-0.301825	-1.050365
C123	C	1.377127	-0.276601	-1.121716
H124	H	1.272453	-0.321312	-1.087576
H125	H	1.363815	-0.319017	-1.007564
H126	H	1.277928	-0.282250	-1.007579
H127	H	1.417289	-0.296176	-1.164498
H128	H	1.331390	-0.259408	-1.164536
H129	H	1.396232	-0.268443	-0.907038
H130	H	1.118222	-0.164195	-0.384422
H131	H	0.933953	-0.313167	-0.628659
C132	C	1.718125	-0.411200	-0.306203
C133	C	1.659094	-0.380706	-0.365110
H134	H	1.763742	-0.395277	-0.260647
H135	H	1.672385	-0.429533	-0.265984
H136	H	1.758295	-0.429467	-0.352033
H137	H	1.618917	-0.362441	-0.319280
H138	H	1.704840	-0.362365	-0.405333
H139	H	1.634107	-0.121348	-1.095591
H140	H	1.707505	-0.829074	-0.317230
H141	H	1.396003	-0.387420	-0.627834
H142	H	1.640025	-0.472503	-0.384264
H143	H	1.707408	-0.688315	-0.317186
C144	C	1.645523	-1.097728	-0.379573
C145	C	1.659664	-1.051593	-0.365343
H146	H	1.691232	-1.113645	-0.334102
H147	H	1.574981	-1.105465	-0.364057
H148	H	1.660785	-1.105363	-0.450212
H149	H	1.644395	-1.043957	-0.294706
H150	H	1.730223	-1.043853	-0.380852
C151	C	1.323970	-0.550422	-0.699999
C152	C	1.309814	-0.596560	-0.714178
H153	H	1.278341	-0.534512	-0.745563
H154	H	1.308619	-0.542765	-0.629403
H155	H	1.394550	-0.542700	-0.715433
H156	H	1.239236	-0.604283	-0.698737
H157	H	1.325158	-0.604221	-0.784790
C158	C	1.318311	-1.021122	-0.706030
C159	C	1.377327	-1.051619	-0.647115
H160	H	1.272705	-1.037044	-0.751601
H161	H	1.278139	-1.002857	-0.660215
H162	H	1.364069	-1.002789	-0.746245
H163	H	1.331570	-1.069950	-0.606894
H164	H	1.417503	-1.069892	-0.692936
H165	H	1.396072	-0.472543	-0.627869
C166	C	1.785630	-0.767767	-0.239171
C167	C	1.726608	-0.737268	-0.298074
H168	H	1.831253	-0.751847	-0.193614
H169	H	1.739886	-0.786098	-0.198952
H170	H	1.825795	-0.786035	-0.285003
H171	H	1.686437	-0.719002	-0.252242
H172	H	1.772358	-0.718930	-0.338296
H173	H	1.396425	-0.959822	-0.627977
C174	C	1.250963	-0.805301	-0.773134
C175	C	1.309981	-0.835797	-0.714219
H176	H	1.205364	-0.821222	-0.818711
H177	H	1.210783	-0.787038	-0.727318
H178	H	1.296720	-0.786964	-0.813341
H179	H	1.264224	-0.854132	-0.674006
H180	H	1.350163	-0.854068	-0.760041
H181	H	1.329065	-0.744003	-0.695059
