data_functionalizedCrystal
_audit_creation_method	'MofGen! by Chris Wilmer'
_symmetry_space_group_name_H-M	'P1'
_symmetry_Int_Tables_number	1
_symmetry_cell_setting	triclinic
loop_
_symmetry_equiv_pos_as_xyz
  x,y,z
_cell_length_a	6.817900
_cell_length_b	16.305597
_cell_length_c	16.306216
_cell_angle_alpha	95.358262
_cell_angle_beta	103.467292
_cell_angle_gamma	103.455834
loop_
_atom_site_label
_atom_site_type_symbol
_atom_site_fract_x
_atom_site_fract_y
_atom_site_fract_z
V1	V	-4.026286	-0.117377	-0.263317
O2	O	-4.013944	0.004961	-0.258007
O3	O	-3.977676	-0.232085	-0.261802
O4	O	-3.977738	-0.115869	-0.378028
O5	O	-4.013882	-0.112059	-0.140976
V6	V	-4.509961	-0.102709	-0.248649
O7	O	-4.287212	-0.149553	-0.295491
O8	O	-4.699232	-0.070533	-0.216474
O9	O	-4.335364	0.012000	-0.250164
O10	O	-4.639699	-0.225047	-0.253959
O11	O	-4.639762	-0.108026	-0.370989
O12	O	-4.335303	-0.104216	-0.133938
C13	C	-3.822630	-0.260040	-0.257722
C14	C	-3.864172	-0.353817	-0.257248
C15	C	-4.015299	-0.694571	-0.255567
C16	C	-3.779577	-0.653729	-0.250961
C17	C	-3.736039	-0.556131	-0.251119
C18	C	-3.940322	-0.525519	-0.256402
C19	C	-4.023265	-0.550690	-0.177798
C20	C	-4.065071	-0.648221	-0.177216
C21	C	-4.153355	-0.673958	-0.338552
C22	C	-4.106524	-0.576449	-0.340007
C23	C	-3.897958	-0.429978	-0.256871
C24	C	-4.057666	-0.790112	-0.255093
C25	C	-3.822708	-0.111793	-0.405978
C26	C	-3.864297	-0.111320	-0.499757
C27	C	-4.015256	-0.109620	-0.840505
C28	C	-4.219668	-0.115216	-0.810071
C29	C	-4.176398	-0.115385	-0.712479
C30	C	-3.940365	-0.110464	-0.671456
C31	C	-3.804763	-0.026793	-0.691455
C32	C	-3.849391	-0.026273	-0.789052
C33	C	-3.928570	-0.187397	-0.814580
C34	C	-3.890003	-0.189048	-0.717267
C35	C	-3.898026	-0.110938	-0.575916
C36	C	-4.057585	-0.109140	-0.936044
C37	C	-4.153752	0.039950	-0.254241
C38	C	-4.091449	0.133727	-0.254721
C39	C	-4.153674	-0.108295	-0.105983
C40	C	-4.091324	-0.108764	-0.012204
H41	H	-3.733747	-0.684349	-0.306903
H42	H	-4.286531	-0.059350	-0.827483
O43	O	-3.646873	-0.016287	-0.814509
H44	H	-3.660001	-0.072383	-0.861552
H45	H	-4.222175	-0.059365	-0.681975
H46	H	-4.258873	-0.556637	-0.348744
O47	O	-4.315702	-0.195104	-0.695675
H48	H	-4.481845	-0.196289	-0.722448
O49	O	-3.568057	-0.510316	-0.171612
H50	H	-3.536322	-0.440368	-0.171452
H51	H	-4.325988	-0.700966	-0.342747
H52	H	-4.346579	-0.175158	-0.844780
O53	O	-3.640400	-0.671326	-0.171638
H54	H	-3.738384	-0.709042	-0.135485
O55	O	-3.727771	-0.183001	-0.840200
H56	H	-3.667553	-0.238115	-0.821681
O57	O	-3.849546	0.050527	-0.648833
H58	H	-3.752736	0.109289	-0.663441
H59	H	-3.669822	-0.539355	-0.307287
O60	O	-3.574649	-0.017987	-0.655021
H61	H	-3.482343	0.041611	-0.670038
O62	O	-4.078498	-0.270687	-0.862244
H63	H	-4.216485	-0.257574	-0.904948
O64	O	-4.023092	-0.270991	-0.701669
H65	H	-4.124687	-0.255822	-0.661453
H66	H	-4.125689	-0.706619	-0.398162
H67	H	-3.721115	-0.190340	-0.689860
H68	H	-3.905752	0.032560	-0.804066
O69	O	-3.933916	-0.663258	-0.094524
H70	H	-3.841282	-0.600938	-0.055328
H71	H	-4.235085	-0.675065	-0.177163
O72	O	-4.027839	-0.556422	-0.417013
H73	H	-3.871120	-0.510312	-0.395845
H74	H	-4.173293	-0.530840	-0.178656
H75	H	-3.905247	-0.514923	-0.115908
