data_functionalizedCrystal
_audit_creation_method	'MofGen! by Chris Wilmer'
_symmetry_space_group_name_H-M	'P1'
_symmetry_Int_Tables_number	1
_symmetry_cell_setting	triclinic
loop_
_symmetry_equiv_pos_as_xyz
  x,y,z
_cell_length_a	13.897448
_cell_length_b	12.759401
_cell_length_c	12.759393
_cell_angle_alpha	89.980326
_cell_angle_beta	89.966603
_cell_angle_gamma	90.016856
loop_
_atom_site_label
_atom_site_type_symbol
_atom_site_fract_x
_atom_site_fract_y
_atom_site_fract_z
Zn1	Zn	-0.383979	1.606233	-0.594003
Zn2	Zn	-0.545309	1.606118	-0.418317
Zn3	Zn	-0.384027	1.430535	-0.418338
Zn4	Zn	-0.545231	1.430515	-0.593955
O5	O	-0.464636	1.518350	-0.506153
O6	O	-0.405392	1.753239	-0.570709
O7	O	-0.523967	1.582788	-0.271299
O8	O	-0.249039	1.453899	-0.441669
O9	O	-0.523920	1.753155	-0.441633
O10	O	-0.249004	1.582983	-0.570729
O11	O	-0.405474	1.453787	-0.271314
O12	O	-0.405399	1.283511	-0.441623
O13	O	-0.523789	1.453863	-0.740982
O14	O	-0.523835	1.283496	-0.570648
O15	O	-0.405317	1.582963	-0.741017
O16	O	-0.680280	1.582768	-0.441587
O17	O	-0.680223	1.453752	-0.570627
C18	C	-0.464614	1.245383	-0.506133
C19	C	-0.464628	1.128606	-0.506149
C20	C	-0.402878	1.073721	-0.439089
C21	C	-0.402900	0.963997	-0.439103
C22	C	-0.526426	0.964053	-0.573246
C23	C	-0.526408	1.073775	-0.573226
C24	C	-0.368327	0.813987	-0.315291
C25	C	-0.306561	0.759098	-0.248240
C26	C	-0.212418	0.794712	-0.232284
C27	C	-0.180022	0.885213	-0.283394
C28	C	-0.241782	0.940096	-0.350453
C29	C	-0.335939	0.904483	-0.366389
C30	C	-0.560971	1.223788	-0.697040
C31	C	-0.622728	1.278673	-0.764105
C32	C	-0.716872	1.243061	-0.780071
C33	C	-0.749265	1.152557	-0.728979
C34	C	-0.687509	1.097672	-0.661915
C35	C	-0.593365	1.133291	-0.645946
C36	C	-0.715251	1.518274	-0.506123
C37	C	-0.822465	1.518337	-0.506145
C38	C	-1.018760	1.518447	-0.506211
C39	C	-0.909527	1.518383	-0.506177
C40	C	-0.213043	1.518456	-0.506207
C41	C	-0.105830	1.518501	-0.506230
C42	C	-0.464539	1.518424	-0.780187
C43	C	-0.464497	1.518455	-0.896963
C44	C	-0.464659	1.792384	-0.506174
C45	C	-0.464669	1.909160	-0.506183
C46	C	-0.402787	1.451309	-0.951833
C47	C	-0.402757	1.451333	-1.061557
C48	C	-0.526151	1.585659	-1.061533
C49	C	-0.526185	1.585629	-0.951810
C50	C	-0.368234	1.327485	-1.211509
C51	C	-0.306509	1.260348	-1.266382
C52	C	-0.212398	1.244249	-1.230795
C53	C	-0.179995	1.295302	-1.140337
C54	C	-0.241715	1.362447	-1.085470
C55	C	-0.335839	1.378526	-1.121055
C56	C	-0.560698	1.709479	-0.801857
C57	C	-0.622414	1.776630	-0.746987
C58	C	-0.716526	1.792739	-0.782572
C59	C	-0.748926	1.741704	-0.873033
C60	C	-0.687210	1.674553	-0.927903
C61	C	-0.593099	1.658442	-0.892311
C62	C	-0.464664	1.518338	-0.233186
C63	C	-0.464434	1.518510	-0.116410
H64	H	-0.103358	0.914197	-0.270404
H65	H	-0.825923	1.123555	-0.741987
H66	H	-0.162129	0.750014	-0.177689
H67	H	-0.352571	1.118362	-0.384473
H68	H	-0.352557	1.396611	-0.907180
H69	H	-0.444989	0.784988	-0.328265
H70	H	-0.596021	1.818196	-0.673336
H71	H	-0.215331	1.404018	-1.011824
H72	H	-0.576724	0.919396	-0.627859
H73	H	-0.215402	1.013773	-0.392075
H74	H	-0.332947	0.685412	-0.206626
H75	H	-0.713598	1.633000	-1.001563
H76	H	-0.713890	1.023975	-0.620316
H77	H	-0.576374	1.640350	-1.106202
H78	H	-0.484313	1.252797	-0.684037
H79	H	-0.103356	1.282198	-1.111377
H80	H	-0.767148	1.287750	-0.834695
H81	H	-0.596337	1.352350	-0.805728
H82	H	-0.162141	1.189584	-1.275481
H83	H	-0.332901	1.218780	-1.340033
H84	H	-0.484074	1.696338	-0.772854
H85	H	-0.444870	1.340574	-1.240484
H86	H	-0.825558	1.754826	-0.902011
H87	H	-0.766771	1.847429	-0.737892
