data_functionalizedCrystal
_audit_creation_method	'MofGen! by Chris Wilmer'
_symmetry_space_group_name_H-M	'P1'
_symmetry_Int_Tables_number	1
_symmetry_cell_setting	triclinic
loop_
_symmetry_equiv_pos_as_xyz
  x,y,z
_cell_length_a	21.295419
_cell_length_b	17.640280
_cell_length_c	17.639306
_cell_angle_alpha	87.821350
_cell_angle_beta	78.772373
_cell_angle_gamma	78.814807
loop_
_atom_site_label
_atom_site_type_symbol
_atom_site_fract_x
_atom_site_fract_y
_atom_site_fract_z
Zn1	Zn	1.084290	-0.388790	-0.368405
Zn2	Zn	1.075987	-0.490117	-0.215775
Zn3	Zn	0.954464	-0.363187	-0.241417
Zn4	Zn	0.995327	-0.515760	-0.342725
O5	O	1.027517	-0.439464	-0.292080
O6	O	1.171278	-0.402214	-0.348174
O7	O	1.039290	-0.451833	-0.112902
O8	O	0.958059	-0.260325	-0.279740
O9	O	1.165177	-0.476659	-0.236037
O10	O	1.053442	-0.279136	-0.373038
O11	O	0.950008	-0.358578	-0.131741
O12	O	0.871795	-0.383443	-0.254840
O13	O	1.027704	-0.520364	-0.452406
O14	O	0.901817	-0.495538	-0.329271
O15	O	1.093065	-0.427080	-0.471272
O16	O	1.078913	-0.599777	-0.211137
O17	O	1.019653	-0.618617	-0.304407
C18	C	1.052836	-0.636752	-0.252219
C19	C	1.063731	-0.721157	-0.235192
C20	C	0.863966	-0.439496	-0.292052
C21	C	0.794004	-0.439531	-0.292054
C22	C	0.945066	-1.047883	-0.421712
C23	C	0.955299	-1.127190	-0.405688
C24	C	1.017076	-1.107526	-0.308664
C25	C	1.006851	-1.028216	-0.324683
C26	C	0.970844	-0.998401	-0.381207
C27	C	1.032629	-0.978735	-0.284177
C28	C	1.022401	-0.899431	-0.300192
C29	C	0.986395	-0.869609	-0.356712
C30	C	0.960617	-0.919098	-0.397221
C31	C	1.068631	-1.008551	-0.227650
C32	C	1.094410	-0.959069	-0.187144
C33	C	1.084186	-0.879765	-0.203163
C34	C	1.048180	-0.849943	-0.259682
C35	C	1.109965	-0.830276	-0.162653
C36	C	1.099737	-0.750973	-0.178668
C37	C	1.037952	-0.770639	-0.275697
C38	C	0.764361	-0.400863	-0.350502
C39	C	0.698616	-0.400843	-0.350510
C40	C	0.662521	-0.439507	-0.292073
C41	C	0.692170	-0.478177	-0.233615
C42	C	0.757912	-0.478189	-0.233605
N43	N	0.566654	-0.504750	-0.272729
N44	N	0.504203	-0.504737	-0.272743
C45	C	0.464444	-0.439471	-0.292098
N46	N	0.489498	-0.374220	-0.311454
N47	N	0.551956	-0.374235	-0.311443
C48	C	0.591234	-0.439498	-0.292077
C49	C	0.363513	-0.400777	-0.350558
C50	C	0.297766	-0.400755	-0.350560
C51	C	0.291323	-0.478097	-0.233667
C52	C	0.357067	-0.478111	-0.233663
C53	C	0.393159	-0.439454	-0.292112
C54	C	1.191707	-0.439432	-0.292110
C55	C	1.261675	-0.439418	-0.292122
C56	C	1.065869	-0.479438	-0.490165
C57	C	1.082213	-0.496473	-0.574577
C58	C	1.002119	-0.241408	-0.332114
C59	C	0.991296	-0.157009	-0.349174
C60	C	0.903566	-0.309768	-0.901257
C61	C	0.918939	-0.325791	-0.980572
C62	C	1.011899	-0.422887	-0.960937
C63	C	0.996536	-0.406870	-0.881619
C64	C	0.942368	-0.350310	-0.851786
C65	C	1.035337	-0.447412	-0.832148
C66	C	1.019972	-0.431399	-0.752837
C67	C	0.965806	-0.374843	-0.722997
C68	C	0.927003	-0.334297	-0.772475
C69	C	1.089502	-0.503975	-0.861982
C70	C	1.128304	-0.544517	-0.812511
C71	C	1.112942	-0.528500	-0.733199
C72	C	1.058776	-0.471945	-0.703359
C73	C	1.151745	-0.569046	-0.683722
C74	C	1.136380	-0.553033	-0.604411
C75	C	1.043411	-0.455931	-0.624048
C76	C	0.989343	-0.399590	-0.094777
C77	C	0.973094	-0.382341	-0.010409
H78	H	1.008638	-0.746364	-0.321731
Cl79	Cl	0.408887	-0.352173	-0.424030
Cl80	Cl	0.795178	-0.526803	-0.160119
H81	H	0.273632	-0.369262	-0.398155
H82	H	1.120728	-0.710683	-0.145683
H83	H	0.662776	-0.509657	-0.186035
H84	H	1.056001	-0.468941	-0.985238
Cl85	Cl	0.245950	-0.526697	-0.160199
H86	H	0.381203	-0.509603	-0.186070
Cl87	Cl	1.108819	-0.524104	-0.961690
H88	H	0.999307	-0.409867	-0.599759
Cl89	Cl	0.946485	-0.354716	-0.623290
H90	H	0.882900	-0.288233	-0.748185
Cl91	Cl	1.185158	-0.604004	-0.542213
H92	H	0.978063	-0.805034	-0.369745
H93	H	0.931302	-0.894823	-0.443255
Cl94	Cl	0.809730	-0.352262	-0.423980
H95	H	0.915752	-1.023608	-0.467745
H96	H	0.859463	-0.263704	-0.876967
Cl97	Cl	1.196396	-0.615621	-0.850023
H98	H	0.887340	-0.292770	-1.020851
H99	H	1.046390	-1.131813	-0.262640
Cl100	Cl	0.922879	-1.189393	-0.456607
H101	H	0.674476	-0.369350	-0.398105
H102	H	1.195844	-0.615103	-0.708023
Cl103	Cl	1.139675	-0.996559	-0.116090
Cl104	Cl	1.081517	-1.108254	-0.207545
H105	H	1.139275	-0.854563	-0.116626
