data_functionalizedCrystal
_audit_creation_method	'MofGen! by Chris Wilmer'
_symmetry_space_group_name_H-M	'P1'
_symmetry_Int_Tables_number	1
_symmetry_cell_setting	triclinic
loop_
_symmetry_equiv_pos_as_xyz
  x,y,z
_cell_length_a	9.065218
_cell_length_b	17.038272
_cell_length_c	8.140239
_cell_angle_alpha	89.996147
_cell_angle_beta	89.997198
_cell_angle_gamma	88.063721
loop_
_atom_site_label
_atom_site_type_symbol
_atom_site_fract_x
_atom_site_fract_y
_atom_site_fract_z
O1	O	1.971908	0.114742	-0.136620
O2	O	1.543567	0.124153	-0.136623
O3	O	1.755192	0.005614	-0.136608
O4	O	1.760283	0.233281	-0.136634
O5	O	1.755179	0.005612	0.136619
O6	O	1.543555	0.124152	0.136605
O7	O	1.971895	0.114740	0.136607
Zn8	Zn	1.757723	0.119446	0.179986
Zn9	Zn	1.757740	0.119448	-0.180002
O10	O	1.760271	0.233280	0.136593
C11	C	1.488484	0.123248	-0.000009
C12	C	1.324369	0.120544	-0.000010
C13	C	1.750555	-0.023549	0.000005
C14	C	1.736739	-0.110441	0.000005
C15	C	1.863587	-0.159639	0.000007
C16	C	1.850596	-0.241284	-0.000009
C17	C	1.710756	-0.273728	-0.000015
C18	C	1.583899	-0.224524	-0.000022
C19	C	1.596891	-0.142881	-0.000019
C20	C	1.664859	-0.519818	-0.000038
C21	C	1.651876	-0.601467	-0.000037
C22	C	1.918575	-0.618221	-0.000026
C23	C	1.931554	-0.536576	-0.000012
C24	C	1.804697	-0.487379	-0.000028
C25	C	1.697475	-0.357182	-0.000026
C26	C	1.817980	-0.403927	-0.000029
C27	C	2.026979	0.115646	-0.000010
C28	C	2.191093	0.118350	-0.000020
C29	C	1.764908	0.262442	-0.000024
C30	C	1.778724	0.349335	-0.000034
N31	N	1.757722	0.119444	0.425669
N32	N	1.757751	0.119443	-0.425685
H33	H	1.977459	-0.133230	0.000022
N34	N	1.987408	-0.294350	0.000009
H35	H	2.047984	-0.283799	-0.101265
H36	H	2.047832	-0.283782	0.101373
H37	H	2.045426	-0.510166	-0.000007
H38	H	2.021854	-0.658286	-0.000016
N39	N	1.433067	-0.259510	-0.000017
H40	H	1.377035	-0.241636	-0.101304
H41	H	1.444202	-0.318689	0.000051
H42	H	1.537996	-0.627879	-0.000015
N43	N	1.528037	-0.466763	-0.000051
H44	H	1.527471	-0.432515	0.101228
H45	H	1.527572	-0.432567	-0.101410
N46	N	1.460078	-0.089813	-0.000031
H47	H	1.369518	-0.122753	-0.000034
H48	H	1.459650	-0.055575	0.101256
N49	N	1.968805	-0.368939	-0.000008
H50	H	1.980152	-0.335432	-0.101286
H51	H	1.980014	-0.335484	0.101351
N52	N	1.546655	-0.392182	-0.000014
H53	H	1.490615	-0.374319	0.101276
H54	H	1.490734	-0.374299	-0.101362
