data_functionalizedCrystal
_audit_creation_method	'MofGen! by Chris Wilmer'
_symmetry_space_group_name_H-M	'P1'
_symmetry_Int_Tables_number	1
_symmetry_cell_setting	triclinic
loop_
_symmetry_equiv_pos_as_xyz
  x,y,z
_cell_length_a	16.098691
_cell_length_b	14.519709
_cell_length_c	14.519709
_cell_angle_alpha	96.319855
_cell_angle_beta	93.050352
_cell_angle_gamma	86.949594
loop_
_atom_site_label
_atom_site_type_symbol
_atom_site_fract_x
_atom_site_fract_y
_atom_site_fract_z
O1	O	-0.069138	-1.220196	0.117209
O2	O	0.264195	-0.886862	0.450542
O3	O	0.597528	-0.553529	0.783875
O4	O	-0.069166	-0.951717	0.131444
O5	O	0.264167	-0.618384	0.464777
O6	O	0.597501	-0.285051	0.798110
O7	O	-0.069144	-1.093075	-0.009912
O8	O	0.264189	-0.759742	0.323421
O9	O	0.597523	-0.426409	0.656755
O10	O	-0.069160	-1.078838	0.258564
O11	O	0.264173	-0.745505	0.591897
O12	O	0.597506	-0.412171	0.925231
O13	O	0.069366	-1.100419	-0.002539
O14	O	0.402699	-0.767086	0.330795
O15	O	0.736033	-0.433752	0.664128
O16	O	0.069344	-0.959061	0.138817
O17	O	0.402677	-0.625728	0.472150
O18	O	0.736011	-0.292394	0.805484
O19	O	0.069372	-1.227539	0.124582
O20	O	0.402705	-0.894206	0.457915
O21	O	0.736038	-0.560873	0.791249
Zn22	Zn	0.091349	-1.094466	0.132870
Zn23	Zn	0.424683	-0.761133	0.466203
Zn24	Zn	0.758016	-0.427799	0.799537
Zn25	Zn	-0.091144	-1.084791	0.123155
Zn26	Zn	0.242190	-0.751457	0.456489
Zn27	Zn	0.575523	-0.418124	0.789822
O28	O	0.069350	-1.086181	0.265937
O29	O	0.402683	-0.752848	0.599271
O30	O	0.736016	-0.419515	0.932604
C31	C	0.000085	-0.921029	0.134467
C32	C	0.333419	-0.587696	0.467800
C33	C	0.666752	-0.254363	0.801133
C34	C	0.000075	-0.818647	0.132478
C35	C	0.333408	-0.485314	0.465811
C36	C	0.666742	-0.151981	0.799145
N37	N	0.215896	-1.101076	0.139499
N38	N	0.549229	-0.767743	0.472833
N39	N	0.882562	-0.434409	0.806166
C40	C	0.000110	-0.443753	0.125160
C41	C	0.333444	-0.110420	0.458494
C42	C	0.666777	0.222913	0.791827
C43	C	0.000100	-0.548061	0.127192
C44	C	0.333434	-0.214728	0.460526
C45	C	0.666767	0.118606	0.793859
C46	C	0.000092	-0.631197	0.128819
C47	C	0.333425	-0.297864	0.462152
C48	C	0.666759	0.035470	0.795485
C49	C	0.000083	-0.735511	0.130851
C50	C	0.333417	-0.402178	0.464185
C51	C	0.666750	-0.068845	0.797518
C52	C	0.259502	-1.047385	0.085762
C53	C	0.592836	-0.714052	0.419095
C54	C	0.926169	-0.380719	0.752428
C55	C	0.346690	-1.052032	0.090410
C56	C	0.680023	-0.718699	0.423743
C57	C	1.013356	-0.385366	0.757077
C58	C	0.390268	-1.110376	0.148792
C59	C	0.723602	-0.777042	0.482125
C60	C	1.056935	-0.443709	0.815459
C61	C	0.346656	-1.164068	0.202536
C62	C	0.679989	-0.830735	0.535869
C63	C	1.013322	-0.497402	0.869203
C64	C	0.259470	-1.159416	0.197892
C65	C	0.592804	-0.826083	0.531225
C66	C	0.926137	-0.492749	0.864559
C67	C	0.653512	-1.127221	0.165623
C68	C	0.986845	-0.793888	0.498957
C69	C	1.320178	-0.460555	0.832290
C70	C	0.740703	-1.131872	0.170262
C71	C	1.074037	-0.798539	0.503595
C72	C	1.407370	-0.465205	0.836928
C73	C	0.740731	-1.019834	0.058136
C74	C	1.074064	-0.686501	0.391470
C75	C	1.407398	-0.353167	0.724803
C76	C	0.653544	-1.015191	0.053493
C77	C	0.986877	-0.681858	0.386826
C78	C	1.320211	-0.348524	0.720160
C79	C	0.609939	-1.068880	0.107241
C80	C	0.943272	-0.735547	0.440574
C81	C	1.276605	-0.402213	0.773907
C82	C	0.479388	-1.115129	0.153543
C83	C	0.812721	-0.781796	0.486876
C84	C	1.146054	-0.448463	0.820209
C85	C	0.520821	-1.064121	0.102494
C86	C	0.854154	-0.730787	0.435828
C87	C	1.187488	-0.397454	0.769161
N88	N	0.784310	-1.078181	0.116524
N89	N	1.117643	-0.744848	0.449857
N90	N	1.450977	-0.411515	0.783190
C91	C	0.000111	-1.096084	-0.040585
C92	C	0.333445	-0.762750	0.292748
C93	C	0.666778	-0.429417	0.626082
C94	C	0.000111	-1.094095	-0.142966
C95	C	0.333445	-0.760762	0.190367
C96	C	0.666778	-0.427429	0.523700
C97	C	0.000116	-0.258227	0.121559
C98	C	0.333450	0.075106	0.454892
C99	C	0.666783	0.408439	0.788225
C100	C	0.000115	-0.360609	0.123547
C101	C	0.333448	-0.027275	0.456880
C102	C	0.666782	0.306058	0.790213
C103	C	0.000089	-1.086775	-0.517863
C104	C	0.333422	-0.753441	-0.184530
C105	C	0.666756	-0.420108	0.148803
C106	C	0.000096	-1.088808	-0.413555
C107	C	0.333429	-0.755474	-0.080222
C108	C	0.666762	-0.422141	0.253112
C109	C	0.000101	-1.090435	-0.330418
C110	C	0.333434	-0.757102	0.002915
C111	C	0.666768	-0.423768	0.336249
C112	C	0.000106	-1.092468	-0.226103
C113	C	0.333439	-0.759135	0.107230
C114	C	0.666773	-0.425802	0.440563
C115	C	0.000093	-1.083173	0.296610
C116	C	0.333426	-0.749840	0.629944
C117	C	0.666759	-0.416506	0.963277
C118	C	0.000087	-1.085161	0.398991
C119	C	0.333420	-0.751828	0.732325
C120	C	0.666754	-0.418494	1.065658
H121	H	0.382190	-1.008312	0.046650
H122	H	0.715523	-0.674978	0.379984
H123	H	1.048857	-0.341645	0.713317
H124	H	0.223967	-1.203134	0.241654
H125	H	0.557300	-0.869801	0.574987
H126	H	0.890633	-0.536467	0.908321
C127	C	0.373481	-1.201955	0.358541
C128	C	0.706814	-0.868622	0.691875
C129	C	1.040147	-0.535289	1.025208
C130	C	0.394555	-1.228202	0.266711
C131	C	0.727889	-0.894868	0.600045
C132	C	1.061222	-0.561535	0.933378
H133	H	0.403055	-1.241549	0.398158
H134	H	0.736389	-0.908216	0.731492
H135	H	1.069722	-0.574882	1.064825
H136	H	0.315322	-1.206870	0.363461
H137	H	0.648656	-0.873537	0.696795
H138	H	0.981989	-0.540204	1.030128
H139	H	0.387786	-1.139649	0.376286
H140	H	0.721120	-0.806315	0.709620
H141	H	1.054453	-0.472982	1.042953
H142	H	0.380244	-1.290506	0.248964
H143	H	0.713577	-0.957173	0.582297
H144	H	1.046911	-0.623840	0.915631
H145	H	0.452727	-1.223295	0.261788
H146	H	0.786060	-0.889962	0.595121
H147	H	1.119394	-0.556629	0.928454
C148	C	0.662332	-0.904903	-0.056862
C149	C	0.995666	-0.571570	0.276471
C150	C	1.328999	-0.238237	0.609805
C151	C	0.605645	-0.951052	-0.010677
C152	C	0.938978	-0.617719	0.322656
C153	C	1.272311	-0.284386	0.655989
H154	H	0.632759	-0.865305	-0.096475
H155	H	0.966093	-0.531972	0.236858
H156	H	1.299426	-0.198638	0.570191
H157	H	0.696332	-0.949096	-0.092746
H158	H	1.029666	-0.615762	0.240587
H159	H	1.362999	-0.282429	0.573921
H160	H	0.696342	-0.868999	-0.012683
H161	H	1.029675	-0.535665	0.320650
H162	H	1.363009	-0.202332	0.653983
H163	H	0.571639	-0.986963	-0.054856
H164	H	0.904972	-0.653630	0.278477
H165	H	1.238306	-0.320296	0.611811
H166	H	0.571630	-0.906854	0.025209
H167	H	0.904964	-0.573521	0.358542
H168	H	1.238297	-0.240187	0.691876
H169	H	0.776244	-0.976122	0.014380
H170	H	1.109577	-0.642789	0.347713
H171	H	1.442910	-0.309455	0.681046
H172	H	0.485335	-1.016614	0.054964
H173	H	0.818669	-0.683280	0.388297
H174	H	1.152002	-0.349947	0.721631
C175	C	0.555435	-1.246014	0.166455
C176	C	0.888768	-0.912680	0.499788
C177	C	1.222102	-0.579347	0.833121
C178	C	0.605580	-1.186231	0.224699
C179	C	0.938913	-0.852897	0.558033
C180	C	1.272246	-0.519564	0.891366
H181	H	0.525836	-1.282438	0.202931
H182	H	0.859169	-0.949104	0.536264
H183	H	1.192503	-0.615771	0.869597
H184	H	0.589440	-1.285555	0.125920
H185	H	0.922774	-0.952221	0.459253
H186	H	1.256107	-0.618888	0.792587
H187	H	0.517010	-1.210589	0.131023
H188	H	0.850344	-0.877256	0.464357
H189	H	1.183677	-0.543922	0.797690
H190	H	0.644009	-1.221656	0.260126
H191	H	0.977342	-0.888322	0.593459
H192	H	1.310675	-0.554989	0.926793
H193	H	0.571571	-1.146685	0.265250
H194	H	0.904904	-0.813352	0.598584
H195	H	1.238238	-0.480019	0.931917
H196	H	0.224027	-0.999879	0.038218
H197	H	0.557360	-0.666545	0.371551
H198	H	0.890693	-0.333212	0.704884
C199	C	0.731923	-1.242147	0.280640
C200	C	1.065257	-0.908814	0.613973
C201	C	1.398590	-0.575481	0.947306
C202	C	0.788607	-1.196007	0.234442
C203	C	1.121941	-0.862673	0.567775
C204	C	1.455274	-0.529340	0.901108
H205	H	0.761499	-1.281736	0.320260
H206	H	1.094833	-0.948403	0.653594
H207	H	1.428166	-0.615069	0.986927
H208	H	0.697914	-1.278053	0.236476
H209	H	1.031247	-0.944719	0.569810
H210	H	1.364580	-0.611386	0.903143
H211	H	0.697923	-1.197943	0.316526
H212	H	1.031257	-0.864609	0.649859
H213	H	1.364590	-0.531276	0.983193
H214	H	0.822604	-1.240211	0.198549
H215	H	1.155937	-0.906878	0.531883
H216	H	1.489270	-0.573545	0.865216
H217	H	0.822631	-1.160099	0.278611
H218	H	1.155965	-0.826766	0.611944
H219	H	1.489298	-0.493433	0.945278
H220	H	0.514879	-1.162636	0.201075
H221	H	0.848213	-0.829303	0.534408
H222	H	1.181546	-0.495969	0.867741
