data_functionalizedCrystal
_audit_creation_method	'MofGen! by Chris Wilmer'
_symmetry_space_group_name_H-M	'P1'
_symmetry_Int_Tables_number	1
_symmetry_cell_setting	triclinic
loop_
_symmetry_equiv_pos_as_xyz
  x,y,z
_cell_length_a	10.489741
_cell_length_b	10.723024
_cell_length_c	9.798715
_cell_angle_alpha	90.001978
_cell_angle_beta	89.998999
_cell_angle_gamma	95.496478
loop_
_atom_site_label
_atom_site_type_symbol
_atom_site_fract_x
_atom_site_fract_y
_atom_site_fract_z
O1	O	1.693940	-0.176060	-0.113403
O2	O	1.322734	-0.192587	-0.113424
O3	O	1.516899	-0.002753	-0.113408
O4	O	1.499774	-0.365895	-0.113419
O5	O	1.516885	-0.002752	0.113574
O6	O	1.322719	-0.192586	0.113558
O7	O	1.693925	-0.176060	0.113579
Zn8	Zn	1.508320	-0.184323	0.149607
Zn9	Zn	1.508339	-0.184324	-0.149452
O10	O	1.499760	-0.365894	0.113563
C11	C	1.275196	-0.191338	0.000065
C12	C	1.133569	-0.187604	0.000057
N13	N	1.508316	-0.184322	0.353707
C14	C	1.515646	0.043748	0.000082
C15	C	1.511917	0.182305	0.000077
C16	C	1.065506	-0.066818	0.000073
C17	C	0.973349	-0.123876	-0.111840
C18	C	0.973369	-0.123905	0.111947
C19	C	1.043278	-0.244712	-0.111949
C20	C	1.043307	-0.244723	0.111939
C21	C	0.951178	-0.301869	-0.000002
C22	C	1.741464	-0.177308	0.000088
C23	C	1.883091	-0.181043	0.000087
C24	C	1.501013	-0.412395	0.000071
C25	C	1.504742	-0.550951	0.000067
C26	C	1.620562	0.257221	0.000081
C27	C	1.616711	0.400426	0.000076
N28	N	1.508353	-0.184315	-0.353551
C29	C	1.589841	-0.104264	0.421490
C30	C	1.589861	-0.104260	0.578653
H31	H	0.942374	-0.072769	-0.206453
O32	O	1.381531	0.363789	0.000074
H33	H	1.298926	0.421198	0.000080
O34	O	0.932376	-0.056197	0.237288
H35	H	0.978608	0.041343	0.237045
H36	H	1.438530	-0.252855	0.412026
H37	H	1.709719	0.464802	0.000085
O38	O	1.415887	-0.275120	0.569265
H39	H	1.316223	-0.258569	0.596644
H40	H	1.074079	-0.295779	-0.206669
O41	O	1.384927	0.237773	0.000076
H42	H	1.329909	0.206226	-0.092444
O43	O	1.131307	0.064748	-0.000016
H44	H	1.103444	0.114595	-0.093040
H45	H	1.659619	-0.035722	0.363174
H46	H	1.074314	-0.295789	0.206556
O47	O	0.885633	-0.433536	-0.000059
H48	H	0.913645	-0.483361	-0.093043
O49	O	1.747559	0.201765	0.000082
H50	H	1.754632	0.143109	0.092601
O51	O	1.682321	-0.013460	0.655850
H52	H	1.667822	-0.027699	0.767177
