data_functionalizedCrystal
_audit_creation_method	'MofGen! by Chris Wilmer'
_symmetry_space_group_name_H-M	'P1'
_symmetry_Int_Tables_number	1
_symmetry_cell_setting	triclinic
loop_
_symmetry_equiv_pos_as_xyz
  x,y,z
_cell_length_a	21.395362
_cell_length_b	21.395361
_cell_length_c	21.395355
_cell_angle_alpha	90.021511
_cell_angle_beta	90.043940
_cell_angle_gamma	90.046585
loop_
_atom_site_label
_atom_site_type_symbol
_atom_site_fract_x
_atom_site_fract_y
_atom_site_fract_z
Zn1	Zn	0.957859	-0.249246	0.354573
Zn2	Zn	1.457859	0.250754	0.854573
Zn3	Zn	0.957762	-0.354005	0.249790
Zn4	Zn	1.457762	0.145995	0.749790
Zn5	Zn	0.853074	-0.249275	0.249774
Zn6	Zn	1.353074	0.250725	0.749774
Zn7	Zn	0.853044	-0.354018	0.354494
Zn8	Zn	1.353044	0.145982	0.854494
O9	O	0.905435	-0.301636	0.302158
O10	O	1.405435	0.198364	0.802158
O11	O	1.045524	-0.263125	0.340712
O12	O	1.545524	0.236875	0.840712
O13	O	0.943847	-0.340119	0.162110
O14	O	1.443847	0.159881	0.662110
O15	O	0.867028	-0.161593	0.263702
O16	O	1.367028	0.338407	0.763702
O17	O	1.045453	-0.340091	0.263729
O18	O	1.545453	0.159909	0.763729
O19	O	0.944013	-0.161572	0.340697
O20	O	1.444013	0.338428	0.840697
O21	O	0.866934	-0.263174	0.162098
O22	O	1.366934	0.236826	0.662098
O23	O	0.765392	-0.263187	0.263626
O24	O	1.265392	0.236813	0.763626
O25	O	0.866976	-0.340113	0.442183
O26	O	1.366976	0.159887	0.942183
O27	O	0.765370	-0.340141	0.340564
O28	O	1.265370	0.159859	0.840564
O29	O	0.943983	-0.263137	0.442240
O30	O	1.443983	0.236863	0.942240
O31	O	0.943817	-0.441685	0.263653
O32	O	1.443817	0.058315	0.763653
O33	O	0.866881	-0.441695	0.340579
O34	O	1.366881	0.058305	0.840579
C35	C	0.742647	-0.301669	0.302085
C36	C	1.242647	0.198331	0.802085
C37	C	0.673006	-0.301698	0.302069
C38	C	1.173006	0.198302	0.802069
C39	C	0.905352	-0.464424	0.302123
C40	C	1.405352	0.035576	0.802123
C41	C	0.905374	-0.534065	0.302129
C42	C	1.405374	-0.034065	0.802129
C43	C	0.640297	-0.341822	0.342070
C44	C	1.140297	0.158178	0.842070
C45	C	0.574862	-0.341806	0.342098
C46	C	1.074862	0.158194	0.842098
C47	C	0.542138	-0.301674	0.302113
C48	C	1.042138	0.198326	0.802113
C49	C	0.574854	-0.261543	0.262109
C50	C	1.074854	0.238457	0.762109
C51	C	0.640288	-0.261555	0.262087
C52	C	1.140288	0.238445	0.762087
C53	C	0.438413	-0.296627	0.245708
C54	C	0.938413	0.203373	0.745708
C55	C	0.372980	-0.296619	0.245730
C56	C	0.872980	0.203381	0.745730
C57	C	0.340317	-0.301633	0.302182
C58	C	0.840317	0.198367	0.802182
C59	C	0.373095	-0.306668	0.358616
C60	C	0.873095	0.193332	0.858616
C61	C	0.438529	-0.306681	0.358594
C62	C	0.938529	0.193319	0.858594
C63	C	0.471185	-0.301656	0.302133
C64	C	0.971185	0.198344	0.802133
C65	C	0.236656	-0.341742	0.342218
C66	C	0.736656	0.158258	0.842218
C67	C	0.171219	-0.341723	0.342247
C68	C	0.671219	0.158277	0.842247
C69	C	0.171213	-0.261462	0.262252
C70	C	0.671213	0.238538	0.762252
C71	C	0.236648	-0.261479	0.262229
C72	C	0.736648	0.238521	0.762229
C73	C	0.269366	-0.301622	0.302211
C74	C	0.769366	0.198378	0.802211
C75	C	0.945470	-0.566752	0.262114
C76	C	1.445470	-0.066752	0.762114
C77	C	0.945499	-0.632188	0.262128
C78	C	1.445499	-0.132188	0.762128
C79	C	0.905421	-0.664933	0.302150
C80	C	1.405421	-0.164933	0.802150
C81	C	0.865322	-0.632238	0.342172
C82	C	1.365322	-0.132238	0.842172
C83	C	0.865299	-0.566804	0.342162
C84	C	1.365299	-0.066804	0.842162
C85	C	0.849006	-0.768664	0.307041
C86	C	1.349006	-0.268664	0.807041
C87	C	0.849029	-0.834097	0.307047
C88	C	1.349029	-0.334097	0.807047
C89	C	0.905494	-0.866754	0.302187
C90	C	1.405494	-0.366754	0.802187
C91	C	0.961939	-0.833970	0.297307
C92	C	1.461939	-0.333970	0.797307
C93	C	0.961915	-0.768536	0.297296
C94	C	1.461915	-0.268536	0.797296
C95	C	0.905443	-0.735886	0.302167
C96	C	1.405443	-0.235886	0.802167
C97	C	0.945625	-0.970394	0.262186
C98	C	1.445625	-0.470394	0.762186
C99	C	0.945655	-1.035830	0.262204
C100	C	1.445655	-0.535830	0.762204
C101	C	0.865473	-1.035879	0.342245
C102	C	1.365473	-0.535879	0.842245
C103	C	0.865448	-0.970444	0.342230
C104	C	1.365448	-0.470444	0.842230
C105	C	0.905524	-0.937705	0.302197
C106	C	1.405524	-0.437705	0.802197
C107	C	1.068858	-0.301603	0.302231
C108	C	1.568858	0.198397	0.802231
C109	C	1.138499	-0.301589	0.302262
C110	C	1.638499	0.198411	0.802262
C111	C	0.905487	-0.301623	0.465581
C112	C	1.405487	0.198377	0.965581
C113	C	0.905509	-0.301618	0.535222
C114	C	1.405509	0.198382	1.035222
C115	C	0.905535	-0.138213	0.302206
C116	C	1.405535	0.361787	0.802206
C117	C	0.905578	-0.068571	0.302227
C118	C	1.405578	0.431429	0.802227
C119	C	0.905419	-0.301603	0.139370
C120	C	1.405419	0.198397	0.639370
C121	C	0.905518	-0.301432	0.069729
C122	C	1.405518	0.198568	0.569729
C123	C	0.945605	-0.261535	0.567966
C124	C	1.445605	0.238465	1.067966
C125	C	0.945604	-0.261508	0.633402
C126	C	1.445604	0.238492	1.133402
C127	C	0.905514	-0.301575	0.666091
C128	C	1.405514	0.198425	1.166091
C129	C	0.865410	-0.341661	0.633339
C130	C	1.365410	0.158339	1.133339
C131	C	0.865407	-0.341682	0.567904
C132	C	1.365407	0.158318	1.067904
C133	C	0.900538	-0.357992	0.769752
C134	C	1.400538	0.142008	1.269752
C135	C	0.900545	-0.357972	0.835185
C136	C	1.400545	0.142028	1.335185
C137	C	0.905518	-0.301509	0.867911
C138	C	1.405518	0.198491	1.367911
C139	C	0.910497	-0.245065	0.835197
C140	C	1.410497	0.254935	1.335197
C141	C	0.910495	-0.245086	0.769763
C142	C	1.410495	0.254914	1.269763
C143	C	0.905512	-0.301556	0.737043
C144	C	1.405512	0.198444	1.237043
C145	C	0.945615	-0.261393	0.971608
C146	C	1.445615	0.238607	1.471608
C147	C	0.945610	-0.261365	1.037045
C148	C	1.445610	0.238635	1.537045
C149	C	0.865419	-0.341524	1.036980
C150	C	1.365419	0.158476	1.536980
C151	C	0.865421	-0.341547	0.971545
C152	C	1.365421	0.158453	1.471545
C153	C	0.905522	-0.301482	0.938863
C154	C	1.405522	0.198518	1.438863
H155	H	0.666932	-0.374509	0.374627
H156	H	1.166932	0.125491	0.874627
N157	N	0.988862	-0.218126	1.072355
N158	N	1.488862	0.281874	1.572355
H159	H	1.017881	-0.243572	1.099527
H160	H	1.517881	0.256428	1.599527
H161	H	0.963377	-0.189088	1.099447
H162	H	1.463377	0.310912	1.599447
H163	H	1.007918	-0.860558	0.293349
H164	H	1.507918	-0.360558	0.793349
H165	H	0.346297	-0.292523	0.199778
H166	H	0.846297	0.207477	0.699778
N167	N	0.539575	-0.385093	0.385237
N168	N	1.039575	0.114907	0.885237
H169	H	0.493158	-0.378995	0.379181
H170	H	0.993158	0.121005	0.879181
H171	H	0.551067	-0.375418	0.430001
H172	H	1.051067	0.124582	0.930001
N173	N	0.135931	-0.218172	0.219125
N174	N	0.635931	0.281828	0.719125
H175	H	0.108840	-0.189169	0.244651
H176	H	0.608840	0.310831	0.744651
H177	H	0.108759	-0.243629	0.190058
H178	H	0.608759	0.256371	0.690058
H179	H	0.263296	-0.374426	0.374776
H180	H	0.763296	0.125574	0.874776
H181	H	0.978265	-0.228767	0.944997
H182	H	1.478265	0.271233	1.444997
N183	N	0.988848	-0.218308	0.532726
N184	N	1.488848	0.281692	1.032726
H185	H	0.963398	-0.189285	0.505565
H186	H	1.463398	0.310715	1.005565
H187	H	1.017863	-0.243807	0.505630
H188	H	1.517863	0.256193	1.005630
H189	H	0.548206	-0.228866	0.229554
H190	H	1.048206	0.271134	0.729554
N191	N	0.822172	-0.384736	1.072228
N192	N	1.322172	0.115264	1.572228
H193	H	0.828255	-0.378639	1.118650
H194	H	1.328255	0.121361	1.618650
H195	H	0.831894	-0.429486	1.060797
H196	H	1.331894	0.070514	1.560797
H197	H	0.914547	-0.199128	0.743130
H198	H	1.414547	0.300872	1.243130
N199	N	0.895174	-0.418846	0.870467
N200	N	1.395174	0.081154	1.370467
H201	H	0.933341	-0.424710	0.897640
H202	H	1.433341	0.075290	1.397640
H203	H	0.891995	-0.454580	0.839768
H204	H	1.391995	0.045420	1.339768
N205	N	0.675571	-0.218273	0.218945
N206	N	1.175571	0.281727	0.718945
H207	H	0.644914	-0.192843	0.193621
H208	H	1.144914	0.307157	0.693621
H209	H	0.702664	-0.243736	0.189891
H210	H	1.202664	0.256264	0.689891
H211	H	0.832647	-0.540189	0.374747
H212	H	1.332647	-0.040189	0.874747
N213	N	0.822150	-0.384915	0.532592
N214	N	1.322150	0.115085	1.032592
H215	H	0.831847	-0.429677	0.543985
H216	H	1.331847	0.070323	1.043985
H217	H	0.828246	-0.378799	0.486190
H218	H	1.328246	0.121201	0.986190
H219	H	1.007873	-0.741844	0.293325
H220	H	1.507873	-0.241844	0.793325
H221	H	0.832691	-0.658904	0.374760
H222	H	1.332691	-0.158904	0.874760
N223	N	0.788099	-0.733446	0.312273
N224	N	1.288099	-0.233446	0.812273
H225	H	0.796647	-0.687020	0.311526
H226	H	1.296647	-0.187020	0.811526
H227	H	0.766785	-0.744884	0.352793
H228	H	1.266785	-0.244884	0.852793
H229	H	0.978254	-0.228864	0.660067
H230	H	1.478254	0.271136	1.160067
H231	H	0.465002	-0.292541	0.199734
H232	H	0.965002	0.207459	0.699734
N233	N	0.473884	-0.312110	0.419455
N234	N	0.973884	0.187890	0.919455
H235	H	0.443268	-0.315285	0.455224
H236	H	0.943268	0.184715	0.955224
H237	H	0.501077	-0.273948	0.425332
H238	H	1.001077	0.226052	0.925332
H239	H	0.832774	-0.374190	0.944885
H240	H	1.332774	0.125810	1.444885
N241	N	0.988701	-0.531441	0.218947
N242	N	1.488701	-0.031441	0.718947
H243	H	1.014110	-0.562082	0.193603
H244	H	1.514110	-0.062082	0.693603
H245	H	1.017673	-0.504250	0.244490
H246	H	1.517673	-0.004250	0.744490
N247	N	0.988748	-0.667454	0.218969
N248	N	1.488748	-0.167454	0.718969
H249	H	1.014132	-0.636785	0.193609
H250	H	1.514132	-0.136785	0.693609
H251	H	0.963263	-0.694648	0.189950
H252	H	1.463263	-0.194648	0.689950
H253	H	0.978259	-0.943737	0.229590
H254	H	1.478259	-0.443737	0.729590
N255	N	0.915867	-0.184160	0.870485
N256	N	1.415867	0.315840	1.370485
H257	H	0.915111	-0.192709	0.916901
H258	H	1.415111	0.307291	1.416901
H259	H	0.879653	-0.156158	0.859020
H260	H	1.379653	0.343842	1.359020
N261	N	0.337877	-0.312081	0.419510
N262	N	0.837877	0.187919	0.919510
H263	H	0.291451	-0.311306	0.410964
H264	H	0.791451	0.188694	0.910964
H265	H	0.349385	-0.275892	0.447585
H266	H	0.849385	0.224108	0.947585
H267	H	0.144589	-0.374395	0.374824
H268	H	0.644589	0.125605	0.874824
H269	H	0.978310	-1.062443	0.229621
H270	H	1.478310	-0.562443	0.729621
N271	N	0.822249	-1.071188	0.385417
N272	N	1.322249	-0.571188	0.885417
H273	H	0.828349	-1.117601	0.379355
H274	H	1.328349	-0.617601	0.879355
H275	H	0.777502	-1.059810	0.375609
H276	H	1.277502	-0.559810	0.875609
H277	H	0.896321	-0.403959	0.743111
H278	H	1.396321	0.096041	1.243111
N279	N	0.271932	-0.218199	0.219088
N280	N	0.771932	0.281801	0.719088
H281	H	0.241274	-0.192770	0.193763
H282	H	0.741274	0.307230	0.693763
H283	H	0.299027	-0.243659	0.190034
H284	H	0.799027	0.256341	0.690034
H285	H	0.832766	-0.374282	0.659958
H286	H	1.332766	0.125718	1.159958
H287	H	0.803068	-0.860785	0.311015
H288	H	1.303068	-0.360785	0.811015
N289	N	0.822197	-0.935183	0.385384
N290	N	1.322197	-0.435183	0.885384
H291	H	0.796810	-0.965855	0.410740
H292	H	1.296810	-0.465855	0.910740
H293	H	0.793205	-0.908083	0.359836
H294	H	1.293205	-0.408083	0.859836
