data_functionalizedCrystal
_audit_creation_method	'MofGen! by Chris Wilmer'
_symmetry_space_group_name_H-M	'P1'
_symmetry_Int_Tables_number	1
_symmetry_cell_setting	triclinic
loop_
_symmetry_equiv_pos_as_xyz
  x,y,z
_cell_length_a	12.478026
_cell_length_b	20.875641
_cell_length_c	20.875641
_cell_angle_alpha	60.088404
_cell_angle_beta	95.289876
_cell_angle_gamma	60.596379
loop_
_atom_site_label
_atom_site_type_symbol
_atom_site_fract_x
_atom_site_fract_y
_atom_site_fract_z
Zr1	Zr	-0.140977	0.653797	0.658298
O2	O	-0.328447	0.795811	0.546630
O3	O	-0.078007	0.517702	0.689319
O4	O	-0.311329	0.652127	0.681055
O5	O	0.082666	0.660639	0.565066
O6	O	-0.304083	0.644077	0.790744
O7	O	-0.095125	0.661386	0.554894
O8	O	0.113287	0.403614	0.805528
O9	O	-0.334703	0.901102	0.550282
O10	O	-0.052389	0.565480	0.788289
O11	O	0.074887	0.570930	0.714020
O12	O	-0.199819	0.729199	0.704290
O13	O	-0.072543	0.734650	0.630021
Zr14	Zr	0.154136	0.639767	0.849463
Zr15	Zr	-0.129420	0.640958	0.833240
Zr16	Zr	0.142580	0.652606	0.674521
Zr17	Zr	-0.150956	0.821723	0.664123
Zr18	Zr	0.164115	0.471841	0.843637
O19	O	0.091166	0.775863	0.818441
O20	O	-0.312014	0.777556	0.795375
O21	O	0.074734	0.794118	0.569696
O22	O	0.341606	0.497753	0.961131
O23	O	-0.061575	0.499446	0.938064
O24	O	0.325174	0.516009	0.712386
O25	O	-0.069507	0.632925	0.942695
O26	O	0.324488	0.641438	0.826706
O27	O	0.317242	0.649488	0.717016
O28	O	0.108284	0.632179	0.952866
O29	O	-0.325517	0.890896	0.689338
O30	O	0.338677	0.402668	0.818423
O31	O	0.347863	0.392463	0.957478
O32	O	0.122473	0.393409	0.944583
O33	O	-0.109314	0.900155	0.563177
O34	O	-0.100128	0.889950	0.702233
O35	O	0.212978	0.564366	0.803471
O36	O	0.085702	0.558915	0.877740
O37	O	-0.061728	0.722634	0.793741
O38	O	0.065548	0.728085	0.719472
C39	C	0.019062	0.436732	0.746593
C40	C	0.023298	0.365443	0.744120
C41	C	-0.041149	0.329106	0.781724
C42	C	-0.037155	0.262118	0.779403
C43	C	0.031278	0.231472	0.739473
C44	C	0.095733	0.267811	0.701869
C45	C	0.091747	0.334794	0.704195
C46	C	0.050330	0.031443	0.728363
C47	C	0.054308	-0.035542	0.726037
C48	C	-0.078578	-0.041232	0.803573
C49	C	-0.082565	0.025756	0.805891
C50	C	-0.018104	0.062086	0.768291
N51	N	0.035358	0.163001	0.737097
N52	N	-0.022176	0.130551	0.770672
C53	C	-0.348106	0.648272	0.733588
C54	C	-0.468484	0.648777	0.726701
C55	C	0.361266	0.645293	0.774173
C56	C	0.481643	0.644788	0.781060
C57	C	-0.007876	0.662842	0.535055
C58	C	-0.012782	0.668292	0.460787
C59	C	-0.005902	0.856832	0.761167
C60	C	-0.010139	0.928121	0.763640
C61	C	0.061863	0.585396	0.469740
C62	C	0.057250	0.590522	0.399955
C63	C	-0.022017	0.678547	0.321218
C64	C	-0.096664	0.761450	0.312266
C65	C	-0.092043	0.756322	0.382051
C66	C	-0.044084	0.703047	0.107807
C67	C	-0.048704	0.708169	0.038020
C68	C	0.105213	0.537241	0.125715
C69	C	0.109821	0.532121	0.195496
C70	C	0.035180	0.615023	0.186539
N71	N	-0.026738	0.683790	0.249885
N72	N	0.039909	0.609780	0.257872
C73	C	0.021035	0.630723	0.972706
C74	C	0.025941	0.625272	1.046974
C75	C	0.033517	0.420673	0.965419
C76	C	0.042660	0.343933	1.037214
C77	C	0.373748	0.435243	0.766886
C78	C	0.498361	0.363448	0.771300
C79	C	0.388203	0.419183	0.985711
C80	C	0.517723	0.341938	1.064393
C81	C	-0.375044	0.874381	0.522049
C82	C	-0.504564	0.951626	0.443368
C83	C	-0.020358	0.872892	0.542341
C84	C	-0.029500	0.949632	0.470547
C85	C	-0.360588	0.858322	0.740875
C86	C	-0.485202	0.930116	0.736461
C87	C	-0.025141	0.311322	1.024236
C88	C	-0.016578	0.239227	1.091686
C89	C	0.059794	0.199739	1.172114
C90	C	0.127596	0.232357	1.185091
C91	C	0.119025	0.304455	1.117641
C92	C	0.628975	0.326306	0.820066
C93	C	0.746073	0.258857	0.824211
C94	C	0.732554	0.228547	0.779594
C95	C	0.601926	0.265696	0.730822
C96	C	0.484831	0.333149	0.726673
C97	C	0.512111	0.302817	1.140117
C98	C	0.633797	0.230246	1.214053
C99	C	0.761095	0.196793	1.212263
C100	C	0.766704	0.235921	1.136530
C101	C	0.645019	0.308495	1.062596
C102	C	-0.498952	0.990755	0.367644
C103	C	-0.620639	1.063347	0.293708
C104	C	-0.747937	1.096804	0.295499
C105	C	-0.753546	1.057672	0.371232
C106	C	-0.631860	0.985086	0.445165
C107	C	0.038288	0.982250	0.483524
C108	C	0.029693	1.054363	0.416073
C109	C	-0.046683	1.093853	0.335645
C110	C	-0.114480	1.061232	0.322668
C111	C	-0.105892	0.989125	0.390119
C112	C	-0.471639	0.960405	0.781088
C113	C	-0.588714	1.027853	0.776957
C114	C	-0.719352	1.065017	0.728194
C115	C	-0.732912	1.034722	0.683566
C116	C	-0.615837	0.967270	0.687702
H117	H	-0.089631	0.232532	0.810023
C118	C	-0.630781	0.933974	0.638593
N119	N	-0.642048	0.908901	0.601598
H120	H	-0.395311	0.963519	0.366170
H121	H	0.852425	0.228617	0.863929
C122	C	-0.535211	0.653909	0.656706
N123	N	-0.585471	0.657774	0.603986
C124	C	0.122304	0.938828	0.571990
N125	N	0.185581	0.906132	0.638621
C126	C	0.104292	1.090225	0.430366
N127	N	0.160484	1.117232	0.441133
H128	H	-0.096881	0.354058	0.814235
H129	H	-0.053665	1.152567	0.280729
H130	H	-0.161091	0.962570	0.379541
H131	H	-0.814670	1.119941	0.724833
C132	C	0.651215	0.351519	0.979301
N133	N	0.655893	0.383922	0.916565
C134	C	-0.198468	1.104669	0.234191
N135	N	-0.261715	1.137381	0.167548
H136	H	0.378484	0.363381	0.686965
C137	C	0.627597	0.187210	1.297350
N138	N	0.622923	0.154796	1.360086
H139	H	-0.087347	0.343472	0.958752
C140	C	-0.327948	0.919531	0.834739
N141	N	-0.219722	0.888744	0.875156
C142	C	0.211613	0.188904	1.273569
N143	N	0.274903	0.156167	1.340214
H144	H	-0.857207	1.084922	0.372680
C145	C	0.906746	0.199104	1.134574
N146	N	1.012230	0.171366	1.133103
H147	H	-0.577647	1.052512	0.813298
C148	C	0.139342	0.499329	0.409809
N149	N	0.201171	0.430638	0.417234
C150	C	-0.157841	0.059458	0.849821
N151	N	-0.214542	0.084843	0.882908
C152	C	0.171009	0.234099	0.657945
N153	N	0.227704	0.208711	0.624857
C154	C	0.121292	0.071367	0.687032
N155	N	0.174763	0.101428	0.655912
C156	C	-0.876622	1.075577	0.629962
N157	N	-0.984867	1.106342	0.589596
C158	C	0.069220	0.120423	1.246304
N159	N	0.076320	0.060679	1.302180
H160	H	0.590940	0.241007	0.694497
H161	H	-0.131058	-0.070819	0.834186
C162	C	-0.614439	1.106378	0.210412
N163	N	-0.609764	1.138787	0.147675
H164	H	0.110033	-0.060489	0.693517
H165	H	0.144222	0.364381	0.673572
C166	C	0.372095	0.339607	1.142107
N167	N	0.266638	0.367317	1.143613
C168	C	-0.451622	0.639642	0.851058
N169	N	-0.401349	0.635764	0.903783
C170	C	0.197022	0.435287	0.282107
N171	N	0.262699	0.362350	0.347342
H172	H	-0.636445	0.953228	0.506821
H173	H	0.827912	0.173622	0.782980
C174	C	0.149064	0.488561	0.556350
N175	N	0.214751	0.415621	0.621584
C176	C	-0.183864	0.858279	0.225651
N177	N	-0.249551	0.931212	0.160412
C178	C	-0.126217	0.794244	0.097942
N179	N	-0.188091	0.862938	0.090512
H180	H	0.165983	0.469746	0.132998
C181	C	-0.174162	0.847515	0.372198
N182	N	-0.236015	0.916205	0.364775
H183	H	-0.113258	0.779853	-0.026094
H184	H	0.174246	0.330998	1.128219
C185	C	-0.091157	0.203353	1.077394
N186	N	-0.147326	0.176333	1.066627
H187	H	0.860169	0.137698	1.272470
H188	H	0.640009	0.350977	0.856399
H189	H	-0.847012	1.155908	0.235292
