data_functionalizedCrystal
_audit_creation_method	'MofGen! by Chris Wilmer'
_symmetry_space_group_name_H-M	'P1'
_symmetry_Int_Tables_number	1
_symmetry_cell_setting	triclinic
loop_
_symmetry_equiv_pos_as_xyz
  x,y,z
_cell_length_a	10.654555
_cell_length_b	8.965430
_cell_length_c	10.654551
_cell_angle_alpha	90.006102
_cell_angle_beta	95.513798
_cell_angle_gamma	89.999470
loop_
_atom_site_label
_atom_site_type_symbol
_atom_site_fract_x
_atom_site_fract_y
_atom_site_fract_z
O1	O	-1.667835	0.123942	0.176435
O2	O	-1.302358	0.123965	0.193234
O3	O	-1.493499	0.123950	0.002096
O4	O	-1.476694	0.123957	0.367574
O5	O	-1.493488	-0.124129	0.002078
O6	O	-1.302347	-0.124114	0.193216
O7	O	-1.667825	-0.124136	0.176417
Cu8	Cu	-1.485085	-0.146777	0.184815
Cu9	Cu	-1.485098	0.146605	0.184836
O10	O	-1.476684	-0.124122	0.367555
C11	C	-1.255554	-0.000072	0.191990
C12	C	-1.116112	-0.000063	0.188296
N13	N	-1.485085	-0.353126	0.184799
C14	C	-0.919572	0.135157	0.183104
C15	C	-1.050594	0.135164	0.186568
C16	C	-1.050601	-0.135306	0.186548
C17	C	-0.919582	-0.135311	0.183075
C18	C	-1.572790	-0.549803	0.095708
C19	C	-1.599156	-0.450325	0.209067
C20	C	-1.458775	-0.450396	0.071449
C21	C	-1.511531	-0.549757	0.298259
C22	C	-1.371099	-0.549836	0.160567
C23	C	-1.397418	-0.450403	0.274008
C24	C	-0.714628	-0.000091	0.177662
C25	C	-0.854070	-0.000075	0.181360
C26	C	-1.492259	-0.000087	-0.044711
C27	C	-1.488567	-0.000080	-0.184155
N28	N	-1.485107	0.352954	0.184842
C29	C	-1.486839	0.135149	-0.249649
C30	C	-1.483359	0.135151	-0.380669
C31	C	-1.483339	-0.135318	-0.380691
C32	C	-1.486810	-0.135318	-0.249671
C33	C	-1.477923	-0.000081	0.414362
C34	C	-1.481616	-0.000079	0.553806
H35	H	-0.866236	0.245275	0.181706
H36	H	-1.436511	-0.406748	-0.024428
F37	F	-1.120301	0.279096	0.188419
F38	F	-1.120334	-0.279225	0.188383
F39	F	-1.725157	-0.393160	0.235877
H40	H	-0.866250	-0.245439	0.181654
F41	F	-1.669784	-0.606854	-0.002681
H42	H	-1.323256	-0.407035	0.349450
H43	H	-1.488210	-0.245445	-0.196344
F44	F	-1.488704	0.279082	-0.179925
H45	H	-1.481950	0.245268	-0.433988
F46	F	-1.481469	-0.279240	-0.450429
F47	F	-1.540782	-0.606561	0.423605
H48	H	-1.274724	-0.593579	0.140008
