data_functionalizedCrystal
_audit_creation_method	'MofGen! by Chris Wilmer'
_symmetry_space_group_name_H-M	'P1'
_symmetry_Int_Tables_number	1
_symmetry_cell_setting	triclinic
loop_
_symmetry_equiv_pos_as_xyz
  x,y,z
_cell_length_a	12.759401
_cell_length_b	12.645330
_cell_length_c	12.759393
_cell_angle_alpha	89.969952
_cell_angle_beta	89.981504
_cell_angle_gamma	90.017853
loop_
_atom_site_label
_atom_site_type_symbol
_atom_site_fract_x
_atom_site_fract_y
_atom_site_fract_z
Zn1	Zn	1.606234	-0.421972	-0.593992
Zn2	Zn	1.606119	-0.599276	-0.418317
Zn3	Zn	1.430536	-0.422028	-0.418332
Zn4	Zn	1.430515	-0.599195	-0.593959
O5	O	1.518351	-0.510618	-0.506150
O6	O	1.753239	-0.445503	-0.570697
O7	O	1.582788	-0.575821	-0.271298
O8	O	1.453899	-0.273673	-0.441654
O9	O	1.753155	-0.575767	-0.441629
O10	O	1.582983	-0.273632	-0.570711
O11	O	1.453788	-0.445598	-0.271309
O12	O	1.283512	-0.445518	-0.441621
O13	O	1.453864	-0.575628	-0.740984
O14	O	1.283497	-0.575682	-0.570653
O15	O	1.582964	-0.445424	-0.741009
O16	O	1.582768	-0.747613	-0.441596
O17	O	1.453753	-0.747553	-0.570639
C18	C	1.245383	-0.510598	-0.506136
C19	C	1.128607	-0.510615	-0.506155
C20	C	1.518274	-0.786048	-0.506135
C21	C	1.518337	-0.903878	-0.506164
C22	C	1.073764	-0.578500	-0.573231
C23	C	0.964040	-0.578514	-0.573242
C24	C	0.964011	-0.442755	-0.439092
C25	C	1.073733	-0.442737	-0.439087
C26	C	1.073781	-0.656883	-0.650678
C27	C	0.964056	-0.656896	-0.650689
C28	C	1.437509	-1.071448	-0.587595
C29	C	1.437095	-0.948888	-0.587334
C30	C	1.488364	-0.948482	-0.395443
C31	C	1.487871	-1.071080	-0.395937
C32	C	1.629634	-1.070964	-0.534556
C33	C	1.628952	-0.948357	-0.536977
C34	C	1.792384	-0.510638	-0.506165
C35	C	1.909161	-0.510647	-0.506171
C36	C	1.518424	-0.510511	-0.780183
C37	C	1.518456	-0.510465	-0.896960
C38	C	1.518456	-0.234112	-0.506188
C39	C	1.518501	-0.116282	-0.506204
C40	C	1.585687	-0.442661	-0.951837
C41	C	1.585712	-0.442623	-1.061561
C42	C	1.451271	-0.578202	-1.061522
C43	C	1.451242	-0.578234	-0.951800
C44	C	1.663309	-0.364389	-0.951860
C45	C	1.663334	-0.364351	-1.061584
C46	C	1.518338	-0.510648	-0.233183
C47	C	1.518510	-0.510395	-0.116407
H48	H	1.118381	-0.387451	-0.384474
H49	H	1.456089	-1.100852	-0.669964
H50	H	1.396492	-0.633443	-0.907124
N51	N	1.626763	-0.266490	-1.104239
N52	N	1.536334	-0.234699	-1.083600
H53	H	1.510483	-0.165584	-1.113702
H54	H	1.396546	-0.633374	-1.106186
N55	N	0.921387	-0.620140	-0.747717
N56	N	0.863504	-0.679210	-0.800788
H57	H	0.833363	-0.653244	-0.869308
H58	H	0.919319	-0.387489	-0.384489
N59	N	1.635985	-0.261402	-0.914536
N60	N	1.616750	-0.188817	-0.978219
H61	H	1.597444	-0.116086	-0.951860
N62	N	1.760245	-0.401314	-0.909170
N63	N	1.832863	-0.428937	-0.968955
H64	H	1.901324	-0.455019	-0.938805
N65	N	0.926680	-0.759869	-0.623175
N66	N	0.990326	-0.832404	-0.603773
H67	H	0.963931	-0.905126	-0.584341
N68	N	1.111169	-0.629421	-0.752803
N69	N	1.047531	-0.610079	-0.824759
H70	H	1.073936	-0.590684	-0.896885
H71	H	1.744703	-0.386340	-1.091363
N72	N	1.334803	-1.110225	-0.564331
N73	N	1.320998	-1.170736	-0.488068
H74	H	1.248463	-1.198126	-0.471634
H75	H	1.107791	-0.734832	-0.621395
N76	N	1.460623	-0.911060	-0.690329
N77	N	1.477462	-0.975204	-0.762908
H78	H	1.494075	-0.948493	-0.835655
H79	H	1.354706	-0.919656	-0.568550
N80	N	1.385957	-1.107067	-0.365797
N81	N	1.315689	-1.041639	-0.344547
H82	H	1.243710	-1.067049	-0.323260
N83	N	1.558650	-1.108307	-0.317265
N84	N	1.634869	-1.164972	-0.342388
H85	H	1.684852	-1.191257	-0.286820
N86	N	1.708645	-0.909943	-0.468015
N87	N	1.761932	-0.973532	-0.415235
H88	H	1.818215	-0.946407	-0.366522
N89	N	1.560029	-0.911911	-0.317295
N90	N	1.634169	-0.852421	-0.342392
H91	H	1.684785	-0.826591	-0.287203
H92	H	1.407972	-0.917873	-0.370989
N93	N	1.705336	-1.107315	-0.460185
N94	N	1.694939	-1.085348	-0.365246
H95	H	1.748397	-1.111022	-0.312717
H96	H	1.656976	-1.101800	-0.613922
H97	H	1.651556	-0.919199	-0.618463
