data_functionalizedCrystal
_audit_creation_method	'MofGen! by Chris Wilmer'
_symmetry_space_group_name_H-M	'P1'
_symmetry_Int_Tables_number	1
_symmetry_cell_setting	triclinic
loop_
_symmetry_equiv_pos_as_xyz
  x,y,z
_cell_length_a	14.044220
_cell_length_b	14.044202
_cell_length_c	12.503572
_cell_angle_alpha	93.856143
_cell_angle_beta	93.847148
_cell_angle_gamma	86.809210
loop_
_atom_site_label
_atom_site_type_symbol
_atom_site_fract_x
_atom_site_fract_y
_atom_site_fract_z
O1	O	1.272126	-0.235213	-0.089243
O2	O	1.522126	0.014787	0.160757
O3	O	1.772126	0.264787	0.410757
O4	O	2.022126	0.514787	0.660757
O5	O	0.995453	-0.226909	-0.089269
O6	O	1.245453	0.023091	0.160731
O7	O	1.495453	0.273091	0.410731
O8	O	1.745453	0.523091	0.660731
O9	O	1.129634	-0.092723	-0.089228
O10	O	1.379634	0.157277	0.160772
O11	O	1.629634	0.407277	0.410772
O12	O	1.879634	0.657277	0.660772
O13	O	1.137945	-0.369399	-0.089285
O14	O	1.387945	-0.119399	0.160715
O15	O	1.637945	0.130601	0.410715
O16	O	1.887945	0.380601	0.660715
O17	O	1.139729	-0.082619	0.089417
O18	O	1.389729	0.167381	0.339417
O19	O	1.639729	0.417381	0.589417
O20	O	1.889729	0.667381	0.839417
O21	O	1.005548	-0.216804	0.089376
O22	O	1.255548	0.033196	0.339376
O23	O	1.505548	0.283196	0.589376
O24	O	1.755548	0.533196	0.839376
O25	O	1.282221	-0.225109	0.089402
O26	O	1.532221	0.024891	0.339402
O27	O	1.782221	0.274891	0.589402
O28	O	2.032221	0.524891	0.839402
Cu29	Cu	1.144806	-0.220034	0.105700
Cu30	Cu	1.394806	0.029966	0.355700
Cu31	Cu	1.644806	0.279966	0.605700
Cu32	Cu	1.894806	0.529966	0.855700
Cu33	Cu	1.132868	-0.231984	-0.105568
Cu34	Cu	1.382868	0.018016	0.144432
Cu35	Cu	1.632868	0.268016	0.394432
Cu36	Cu	1.882868	0.518016	0.644432
O37	O	1.148040	-0.359294	0.089360
O38	O	1.398040	-0.109294	0.339360
O39	O	1.648040	0.140706	0.589360
O40	O	1.898040	0.390706	0.839360
C41	C	0.964878	-0.218221	0.000050
C42	C	1.214878	0.031779	0.250050
C43	C	1.464878	0.281779	0.500050
C44	C	1.714878	0.531779	0.750050
C45	C	0.858735	-0.207377	0.000042
C46	C	1.108735	0.042623	0.250042
C47	C	1.358735	0.292623	0.500042
C48	C	1.608735	0.542623	0.750042
C49	C	0.664398	-0.187549	0.000067
C50	C	0.914398	0.062451	0.250067
C51	C	1.164398	0.312451	0.500067
C52	C	1.414398	0.562451	0.750067
C53	C	0.613270	-0.264465	0.000056
C54	C	0.863270	-0.014465	0.250056
C55	C	1.113270	0.235535	0.500056
C56	C	1.363270	0.485535	0.750056
C57	C	0.505134	-0.253432	0.000070
C58	C	0.755134	-0.003432	0.250070
C59	C	1.005134	0.246568	0.500070
C60	C	1.255134	0.496568	0.750070
C61	C	0.772543	-0.198580	0.000053
C62	C	1.022543	0.051420	0.250053
C63	C	1.272543	0.301420	0.500053
C64	C	1.522543	0.551420	0.750053
C65	C	1.131045	-0.052049	0.000100
C66	C	1.381045	0.197951	0.250100
C67	C	1.631045	0.447951	0.500100
C68	C	1.881045	0.697951	0.750100
C69	C	1.120197	0.054095	0.000114
C70	C	1.370197	0.304095	0.250114
C71	C	1.620197	0.554095	0.500114
C72	C	1.870197	0.804095	0.750114
C73	C	1.177294	0.299552	0.000092
C74	C	1.427294	0.549552	0.250092
C75	C	1.677294	0.799552	0.500092
C76	C	1.927294	1.049552	0.750092
C77	C	1.100378	0.248427	0.000089
C78	C	1.350378	0.498427	0.250089
C79	C	1.600378	0.748427	0.500089
C80	C	1.850378	0.998427	0.750089
C81	C	1.111408	0.140291	0.000103
C82	C	1.361408	0.390291	0.250103
C83	C	1.611408	0.640291	0.500103
C84	C	1.861408	0.890291	0.750103
C85	C	1.166266	0.407698	0.000078
C86	C	1.416266	0.657698	0.250078
C87	C	1.666266	0.907698	0.500078
C88	C	1.916266	1.157698	0.750078
C89	C	1.312796	-0.233797	0.000080
C90	C	1.562796	0.016203	0.250080
C91	C	1.812796	0.266203	0.500080
C92	C	2.062796	0.516203	0.750080
C93	C	1.418939	-0.244641	0.000081
C94	C	1.668939	0.005359	0.250081
C95	C	1.918939	0.255359	0.500081
C96	C	2.168939	0.505359	0.750081
C97	C	1.146628	0.600032	0.000045
C98	C	1.396628	0.850032	0.250045
C99	C	1.646628	1.100032	0.500045
C100	C	1.896628	1.350032	0.750045
C101	C	1.157471	0.493890	0.000067
C102	C	1.407471	0.743890	0.250067
C103	C	1.657471	0.993890	0.500067
C104	C	1.907471	1.243890	0.750067
N105	N	1.124471	-0.240382	-0.254163
N106	N	1.374471	0.009618	-0.004163
N107	N	1.624471	0.259618	0.245837
N108	N	1.874471	0.509618	0.495837
C109	C	1.112111	-0.252735	-0.473282
C110	C	1.362111	-0.002735	-0.223282
C111	C	1.612111	0.247265	0.026718
C112	C	1.862111	0.497265	0.276718
C113	C	1.165567	-0.199279	-0.526593
C114	C	1.415567	0.050721	-0.276593
C115	C	1.665567	0.300721	-0.026593
C116	C	1.915567	0.550721	0.223407
C117	C	1.158690	-0.206152	-0.648518
C118	C	1.408690	0.043848	-0.398518
C119	C	1.658690	0.293848	-0.148518
C120	C	1.908690	0.543848	0.101482
C121	C	1.118987	-0.245863	-0.351346
C122	C	1.368987	0.004137	-0.101346
C123	C	1.618987	0.254137	0.148654
C124	C	1.868987	0.504137	0.398654
N125	N	1.153210	-0.211629	0.254295
N126	N	1.403210	0.038371	0.504295
N127	N	1.653210	0.288371	0.754295
N128	N	1.903210	0.538371	1.004295
H129	H	0.626960	-0.113420	0.000088
H130	H	0.876960	0.136580	0.250088
H131	H	1.126960	0.386580	0.500088
H132	H	1.376960	0.636580	0.750088
H133	H	1.251422	0.262112	0.000108
H134	H	1.501422	0.512112	0.250108
H135	H	1.751422	0.762112	0.500108
H136	H	2.001422	1.012112	0.750108
H137	H	0.650710	-0.338600	0.000035
H138	H	0.900710	-0.088600	0.250035
H139	H	1.150710	0.161400	0.500035
H140	H	1.400710	0.411400	0.750035
H141	H	1.216496	-0.148350	-0.480664
H142	H	1.466496	0.101650	-0.230664
H143	H	1.716496	0.351650	0.019336
H144	H	1.966496	0.601650	0.269336
H145	H	1.061184	-0.303659	-0.519205
H146	H	1.311184	-0.053659	-0.269205
H147	H	1.561184	0.196341	-0.019205
H148	H	1.811184	0.446341	0.230795
H149	H	1.026245	0.285869	0.000078
H150	H	1.276245	0.535869	0.250078
H151	H	1.526245	0.785869	0.500078
H152	H	1.776245	1.035869	0.750078
