data_functionalizedCrystal
_audit_creation_method	'MofGen! by Chris Wilmer'
_symmetry_space_group_name_H-M	'P1'
_symmetry_Int_Tables_number	1
_symmetry_cell_setting	triclinic
loop_
_symmetry_equiv_pos_as_xyz
  x,y,z
_cell_length_a	6.817900
_cell_length_b	12.840933
_cell_length_c	9.582874
_cell_angle_alpha	82.969377
_cell_angle_beta	68.035181
_cell_angle_gamma	88.345099
loop_
_atom_site_label
_atom_site_type_symbol
_atom_site_fract_x
_atom_site_fract_y
_atom_site_fract_z
V1	V	-3.940476	0.284421	0.210582
O2	O	-3.887004	0.320281	-0.006492
O3	O	-3.933582	0.242780	0.414060
O4	O	-3.835739	0.426577	0.208934
O5	O	-3.985524	0.135211	0.200054
V6	V	-4.426026	0.271396	0.184429
O7	O	-4.197289	0.312991	0.267950
O8	O	-4.619411	0.242826	0.127062
O9	O	-4.209714	0.313037	-0.019048
O10	O	-4.596895	0.235536	0.401503
O11	O	-4.498376	0.420606	0.194958
O12	O	-4.307557	0.129240	0.186077
C13	C	-3.790503	0.228050	0.463613
C14	C	-3.865777	0.194951	0.629969
C15	C	-4.082739	0.183130	0.715779
C16	C	-4.153497	0.152045	0.872093
C17	C	-4.007288	0.132774	0.942592
C18	C	-3.790307	0.144601	0.856772
C19	C	-3.719553	0.175692	0.700463
C20	C	-3.665705	0.462501	0.201949
C21	C	-3.661551	0.580634	0.201946
C22	C	-4.140932	0.093310	0.193059
C23	C	-4.123936	-0.024822	0.193058
V24	V	-3.923427	0.770583	0.210592
O25	O	-3.957855	0.923829	0.200061
O26	O	-3.828837	0.623718	0.208946
O27	O	-3.914993	0.772570	0.414067
O28	O	-3.871103	0.773946	-0.006480
V29	V	-4.407032	0.813093	0.184448
O30	O	-4.182178	0.743942	0.267965
O31	O	-4.597686	0.862418	0.127084
O32	O	-4.278808	0.948710	0.186090
O33	O	-4.489794	0.665762	0.194981
O34	O	-4.576547	0.815645	0.401523
O35	O	-4.192653	0.799858	-0.019031
C36	C	-4.016138	0.327763	-0.068594
C37	C	-3.920100	0.360868	-0.234949
C38	C	-3.771462	0.770508	0.463610
C39	C	-3.845401	0.775274	0.629963
C40	C	-4.000115	0.784955	-0.068588
C41	C	-3.905451	0.779153	-0.234944
C42	C	-4.048124	0.372692	-0.320757
C43	C	-3.957909	0.403782	-0.477070
C44	C	-3.739670	0.423054	-0.547569
C45	C	-3.611638	0.411226	-0.461750
C46	C	-3.701852	0.380129	-0.305442
H47	H	-3.671280	0.128906	0.914196
H48	H	-4.225830	0.357005	-0.263378
H49	H	-4.201819	0.198809	0.658399
H50	H	-4.062191	0.413410	-0.546923
H51	H	-3.597585	0.370514	-0.235585
H52	H	-4.330179	0.142418	0.941946
O53	O	-3.508711	0.187067	0.617325
C54	C	-3.394863	0.163411	0.713089
H55	H	-3.496131	0.110679	0.818979
H56	H	-3.352703	0.239207	0.747065
C57	C	-3.066279	0.171177	0.498702
C58	C	-3.190652	0.106404	0.628752
H59	H	-2.940307	0.136017	0.446679
H60	H	-3.142978	0.187118	0.434183
H61	H	-3.031168	0.234336	0.527035
H62	H	-3.225783	0.043252	0.600417
H63	H	-3.113954	0.090450	0.693264
H64	H	-4.064928	0.107458	1.069870
H65	H	-3.666239	0.448374	-0.674847
H66	H	-3.433940	0.426921	-0.519174
