data_functionalizedCrystal
_audit_creation_method	'MofGen! by Chris Wilmer'
_symmetry_space_group_name_H-M	'P1'
_symmetry_Int_Tables_number	1
_symmetry_cell_setting	triclinic
loop_
_symmetry_equiv_pos_as_xyz
  x,y,z
_cell_length_a	16.625546
_cell_length_b	15.297475
_cell_length_c	15.299447
_cell_angle_alpha	110.792231
_cell_angle_beta	80.294948
_cell_angle_gamma	99.675296
loop_
_atom_site_label
_atom_site_type_symbol
_atom_site_fract_x
_atom_site_fract_y
_atom_site_fract_z
Zn1	Zn	-0.435987	-1.512814	-0.771470
Zn2	Zn	0.064013	-1.012814	-0.271470
Zn3	Zn	-0.590707	-1.485775	-0.615925
Zn4	Zn	-0.090707	-0.985775	-0.115925
Zn5	Zn	-0.435969	-1.330368	-0.589098
Zn6	Zn	0.064031	-0.830368	-0.089098
Zn7	Zn	-0.550850	-1.357248	-0.744541
Zn8	Zn	-0.050850	-0.857248	-0.244541
O9	O	-0.503379	-1.421551	-0.680258
O10	O	-0.003379	-0.921551	-0.180258
O11	O	-0.473199	-1.639370	-0.773334
O12	O	0.026801	-1.139370	-0.273334
O13	O	-0.586854	-1.442594	-0.482217
O14	O	-0.086854	-0.942594	0.017783
O15	O	-0.323143	-1.354636	-0.613332
O16	O	0.176857	-0.854636	-0.113332
O17	O	-0.586871	-1.619505	-0.659056
O18	O	-0.086871	-1.119505	-0.159056
O19	O	-0.323156	-1.488679	-0.747320
O20	O	0.176844	-0.988679	-0.247320
O21	O	-0.473169	-1.328418	-0.462507
O22	O	0.026831	-0.828418	0.037493
O23	O	-0.434521	-1.203791	-0.587220
O24	O	0.065479	-0.703791	-0.087220
O25	O	-0.518940	-1.400450	-0.878262
O26	O	-0.018940	-0.900450	-0.378262
O27	O	-0.518923	-1.223540	-0.701423
O28	O	-0.018923	-0.723540	-0.201423
O29	O	-0.434551	-1.514743	-0.898047
O30	O	0.065449	-1.014743	-0.398047
O31	O	-0.698249	-1.468659	-0.632944
O32	O	-0.198249	-0.968659	-0.132944
O33	O	-0.668966	-1.374231	-0.727437
O34	O	-0.168966	-0.874231	-0.227437
C35	C	-0.472395	-1.179921	-0.638489
C36	C	0.027605	-0.679921	-0.138489
C37	C	-0.459157	-1.076554	-0.620642
C38	C	0.040843	-0.576554	-0.120642
C39	C	-0.712863	-1.421457	-0.680204
C40	C	-0.212863	-0.921457	-0.180204
C41	C	-0.802488	-1.421506	-0.680227
C42	C	-0.302488	-0.921506	-0.180227
C43	C	-0.472302	-1.463611	-0.922844
C44	C	0.027698	-0.963611	-0.422844
C45	C	-0.459059	-1.481535	-1.026220
C46	C	0.040941	-0.981535	-0.526220
C47	C	-1.130672	-1.421685	-0.680352
C48	C	-0.630672	-0.921685	-0.180352
C49	C	-1.039361	-1.421633	-0.680319
C50	C	-0.539361	-0.921633	-0.180319
C51	C	-0.966583	-1.421595	-0.680289
C52	C	-0.466583	-0.921595	-0.180289
C53	C	-0.875266	-1.421544	-0.680257
C54	C	-0.375266	-0.921544	-0.180257
C55	C	-0.293077	-1.421675	-0.680337
C56	C	0.206923	-0.921675	-0.180337
C57	C	-0.203458	-1.421728	-0.680371
C58	C	0.296542	-0.921728	-0.180371
C59	C	-0.534483	-1.664125	-0.722191
C60	C	-0.034483	-1.164125	-0.222191
C61	C	-0.547739	-1.767496	-0.740061
C62	C	-0.047739	-1.267496	-0.240061
C63	C	-0.598000	-0.826347	-0.807817
C64	C	-0.098000	-0.326347	-0.307817
C65	C	-0.610444	-0.923465	-0.824582
C66	C	-0.110444	-0.423465	-0.324582
C67	C	-0.572623	-0.961742	-0.773599
C68	C	-0.072623	-0.461742	-0.273599
C69	C	-0.522356	-0.902892	-0.705846
C70	C	-0.022356	-0.402892	-0.205846
C71	C	-0.509916	-0.805763	-0.689074
C72	C	-0.009916	-0.305763	-0.189074
C73	C	-0.484539	-0.941158	-0.654856
C74	C	0.015461	-0.441158	-0.154856
C75	C	-0.434272	-0.882308	-0.587104
C76	C	0.065728	-0.382308	-0.087104
C77	C	-0.421834	-0.785190	-0.570335
C78	C	0.078166	-0.285190	-0.070335
C79	C	-0.459654	-0.746912	-0.621318
C80	C	0.040346	-0.246912	-0.121318
C81	C	-0.496980	-1.038287	-0.671629
C82	C	0.003020	-0.538287	-0.171629
C83	C	-0.408896	-1.017703	-0.552886
C84	C	0.091104	-0.517703	-0.052886
C85	C	-0.396451	-0.920585	-0.536120
C86	C	0.103549	-0.420585	-0.036120
C87	C	-0.597478	-1.294034	-1.276416
C88	C	-0.097478	-0.794034	-0.776416
C89	C	-0.609916	-1.277185	-1.179288
C90	C	-0.109916	-0.777185	-0.679288
C91	C	-0.572203	-1.328271	-1.141016
C92	C	-0.072203	-0.828271	-0.641016
C93	C	-0.522050	-1.396209	-1.199882
C94	C	-0.022050	-0.896209	-0.699882
C95	C	-0.509606	-1.413054	-1.297019
C96	C	-0.009606	-0.913054	-0.797019
C97	C	-0.484331	-1.447291	-1.161619
C98	C	0.015669	-0.947291	-0.661619
C99	C	-0.434178	-1.515229	-1.220485
C100	C	0.065822	-1.015229	-0.720485
C101	C	-0.421737	-1.532072	-1.317612
C102	C	0.078263	-1.032072	-0.817612
C103	C	-0.459450	-1.480986	-1.355884
C104	C	0.040550	-0.980986	-0.855884
C105	C	-0.496774	-1.430446	-1.064482
C106	C	0.003226	-0.930446	-0.564482
C107	C	-0.408902	-1.549466	-1.085085
C108	C	0.091098	-1.049466	-0.585085
C109	C	-0.396465	-1.566315	-1.182213
C110	C	0.103535	-1.066315	-0.682213
C111	C	-0.534283	-1.379709	-0.438625
C112	C	-0.034283	-0.879709	0.061375
C113	C	-0.547322	-1.361965	-0.335281
C114	C	-0.047322	-0.861965	0.164719
H115	H	-0.537907	-1.086194	-0.726794
H116	H	-0.037907	-0.586194	-0.226794
Cl117	Cl	-0.358648	-0.711207	-0.485152
Cl118	Cl	0.141352	-0.211207	0.014848
H119	H	-0.628176	-1.252444	-1.307586
H120	H	-0.128176	-0.752444	-0.807586
H121	H	-0.651374	-0.971374	-0.879744
H122	H	-0.151374	-0.471374	-0.379744
H123	H	-0.628794	-0.795171	-0.849314
H124	H	-0.128794	-0.295171	-0.349314
Cl125	Cl	-0.361493	-1.613697	-1.036980
Cl126	Cl	0.138507	-1.113697	-0.536980
H127	H	-0.355524	-0.872656	-0.480955
H128	H	0.144476	-0.372656	0.019045
Cl129	Cl	-0.443822	-1.502170	-1.477994
Cl130	Cl	0.056178	-1.002170	-0.977994
H131	H	-0.380893	-1.587385	-1.365538
H132	H	0.119107	-1.087385	-0.865538
H133	H	-0.537603	-1.375124	-1.016561
H134	H	-0.037603	-0.875124	-0.516561
H135	H	-0.582333	-1.314549	-1.061930
H136	H	-0.082333	-0.814549	-0.561930
Cl137	Cl	-0.361351	-1.065814	-0.488784
Cl138	Cl	0.138649	-0.565814	0.011216
Cl139	Cl	-0.444007	-0.624818	-0.600250
Cl140	Cl	0.055993	-0.124818	-0.100250
Cl141	Cl	-0.333417	-1.651719	-1.256226
Cl142	Cl	0.166583	-1.151719	-0.756226
H143	H	-0.582758	-1.040820	-0.787254
H144	H	-0.082758	-0.540820	-0.287254
Cl145	Cl	-0.672959	-1.191778	-1.105292
Cl146	Cl	-0.172959	-0.691778	-0.605292
