data_functionalizedCrystal
_audit_creation_method	'MofGen! by Chris Wilmer'
_symmetry_space_group_name_H-M	'P1'
_symmetry_Int_Tables_number	1
_symmetry_cell_setting	triclinic
loop_
_symmetry_equiv_pos_as_xyz
  x,y,z
_cell_length_a	13.339071
_cell_length_b	15.995292
_cell_length_c	11.804365
_cell_angle_alpha	101.831146
_cell_angle_beta	74.875833
_cell_angle_gamma	99.548947
loop_
_atom_site_label
_atom_site_type_symbol
_atom_site_fract_x
_atom_site_fract_y
_atom_site_fract_z
O1	O	1.362615	0.407593	-0.099018
O2	O	1.068103	0.352498	-0.099020
O3	O	1.223441	0.260032	-0.099021
O4	O	1.207277	0.500059	-0.099017
O5	O	1.182546	0.284341	0.099035
O6	O	1.027208	0.376807	0.099036
O7	O	1.321721	0.431902	0.099038
Cu8	Cu	1.170730	0.406574	0.117121
Cu9	Cu	1.219093	0.377826	-0.117103
O10	O	1.166383	0.524368	0.099039
C11	C	1.009968	0.355346	0.000008
C12	C	0.897674	0.327605	0.000007
C13	C	0.856997	0.241098	0.000010
C14	C	0.751492	0.215031	0.000003
C15	C	0.686652	0.275469	0.000003
C16	C	0.727327	0.361979	0.000009
C17	C	0.832844	0.388048	0.000006
C18	C	0.662499	0.422419	-0.000001
C19	C	0.703174	0.508929	0.000004
C20	C	0.808680	0.534994	0.000003
C21	C	0.873521	0.474555	0.000003
C22	C	0.556982	0.396351	0.000002
C23	C	0.532828	0.543301	-0.000002
C24	C	0.638333	0.569368	0.000004
C25	C	1.202336	0.240837	0.000004
C26	C	1.200366	0.147425	-0.000005
C27	C	1.193114	-0.191996	0.000006
C28	C	1.305141	-0.142582	0.000449
C29	C	1.307365	-0.045466	-0.000001
C30	C	1.196712	-0.023605	0.000002
C31	C	1.164010	-0.079610	-0.113095
C32	C	1.162679	-0.176725	-0.113185
C33	C	1.113885	-0.149471	0.112042
C34	C	1.117732	-0.051830	0.113532
C35	C	1.198741	0.071561	-0.000005
C36	C	1.191083	-0.287164	0.000005
C37	C	1.379855	0.429054	0.000008
C38	C	1.492152	0.456793	0.000001
C39	C	1.187488	0.543562	0.000011
C40	C	1.189460	0.636973	0.000012
N41	N	1.136722	0.426795	0.281862
N42	N	1.253109	0.357600	-0.281844
C43	C	1.334775	0.309026	0.655810
C44	C	1.360502	0.293725	0.531148
C45	C	1.304559	0.326991	0.468820
C46	C	1.222886	0.375561	0.531167
C47	C	1.197163	0.390869	0.655841
C48	C	1.166946	0.408834	0.468851
C49	C	1.085273	0.457404	0.531198
C50	C	1.059553	0.472709	0.655860
C51	C	1.115496	0.439443	0.718187
C52	C	1.192669	0.393526	0.344177
C53	C	1.055056	0.475369	0.344209
C54	C	1.029330	0.490670	0.468870
H55	H	0.718383	0.144594	-0.000003
Cl56	Cl	1.405104	0.267220	0.734165
H57	H	0.993058	0.512265	0.706622
Cl58	Cl	0.859817	0.643746	-0.000014
Cl59	Cl	0.554015	0.242698	-0.000002
Cl60	Cl	0.451323	0.619285	-0.000008
Cl61	Cl	1.250941	-0.050633	-0.243047
H62	H	1.368293	-0.026770	-0.081215
Cl63	Cl	1.295338	0.332468	0.265815
Cl64	Cl	1.039639	-0.060410	-0.119596
H65	H	0.909800	0.191897	0.000002
H66	H	1.426999	0.254182	0.480390
Cl67	Cl	1.140713	-0.164334	0.244390
H68	H	1.094548	0.451898	0.819697
Cl69	Cl	0.505860	0.287600	-0.000002
Cl70	Cl	1.349270	0.015019	0.125183
Cl71	Cl	1.336898	0.307752	0.312100
Cl72	Cl	1.006188	0.507307	-0.000117
Cl73	Cl	0.689481	0.678120	0.000006
Cl74	Cl	1.154065	0.007335	0.242714
Cl75	Cl	0.984727	0.517195	0.265862
H76	H	1.331610	-0.150584	0.081556
Cl77	Cl	1.249573	-0.220226	-0.243708
Cl78	Cl	1.397207	-0.187246	-0.124069
Cl79	Cl	1.037401	-0.229653	-0.121117
H80	H	1.031199	-0.182541	0.112806
Cl81	Cl	0.990854	-0.028608	0.124083
Cl82	Cl	0.926659	0.551728	0.547261
