data_functionalizedCrystal
_audit_creation_method	'MofGen! by Chris Wilmer'
_symmetry_space_group_name_H-M	'P1'
_symmetry_Int_Tables_number	1
_symmetry_cell_setting	triclinic
loop_
_symmetry_equiv_pos_as_xyz
  x,y,z
_cell_length_a	25.639242
_cell_length_b	25.639240
_cell_length_c	12.759387
_cell_angle_alpha	89.968599
_cell_angle_beta	89.968335
_cell_angle_gamma	90.027587
loop_
_atom_site_label
_atom_site_type_symbol
_atom_site_fract_x
_atom_site_fract_y
_atom_site_fract_z
Zn1	Zn	0.799298	-0.208186	-0.594313
Zn2	Zn	0.799217	-0.295631	-0.418632
Zn3	Zn	0.711860	-0.208205	-0.418616
Zn4	Zn	0.711830	-0.295585	-0.594237
O5	O	0.755551	-0.251902	-0.506449
O6	O	0.872453	-0.219797	-0.571047
O7	O	0.787608	-0.284061	-0.271609
O8	O	0.723505	-0.135037	-0.441948
O9	O	0.872393	-0.284043	-0.441975
O10	O	0.787746	-0.135023	-0.571032
O11	O	0.723427	-0.219830	-0.271597
O12	O	0.638691	-0.219785	-0.441874
O13	O	0.723454	-0.283964	-0.741268
O14	O	0.638669	-0.283982	-0.570902
O15	O	0.787717	-0.219752	-0.741324
O16	O	0.787579	-0.368790	-0.441901
O17	O	0.723375	-0.368756	-0.570917
C18	C	0.619709	-0.251881	-0.506378
C19	C	0.561595	-0.251885	-0.506373
C20	C	0.201229	-0.285385	-0.573571
C21	C	0.146625	-0.285388	-0.573587
O22	O	0.118386	-0.313846	-0.630661
N23	N	0.119312	-0.251916	-0.506518
C24	C	0.146607	-0.218434	-0.439435
O25	O	0.118362	-0.189963	-0.382390
C26	C	0.201210	-0.218429	-0.439425
C27	C	0.228520	-0.251907	-0.506491
C28	C	0.228539	-0.318861	-0.640632
C29	C	0.283139	-0.318858	-0.640614
C30	C	0.310430	-0.285380	-0.573534
C31	C	0.283120	-0.251905	-0.506473
C32	C	0.228504	-0.184945	-0.372348
C33	C	0.283111	-0.184942	-0.372344
C34	C	0.310421	-0.218421	-0.439410
C35	C	0.365012	-0.218424	-0.439375
N36	N	0.392324	-0.251897	-0.506444
C37	C	0.365033	-0.285375	-0.573524
C38	C	0.031936	-0.218448	-0.439464
C39	C	-0.022666	-0.218455	-0.439468
C40	C	-0.022645	-0.285409	-0.573622
C41	C	0.031959	-0.285404	-0.573611
C42	C	0.059249	-0.251920	-0.506533
C43	C	0.479698	-0.285367	-0.573480
C44	C	0.534304	-0.285363	-0.573452
C45	C	0.534278	-0.218408	-0.439303
C46	C	0.479677	-0.218413	-0.439326
C47	C	0.452389	-0.251895	-0.506423
O48	O	0.393286	-0.189980	-0.382333
O49	O	0.393285	-0.313836	-0.630569
C50	C	0.755479	-0.387744	-0.506425
C51	C	0.755496	-0.445858	-0.506450
C52	C	0.788998	-0.696993	-0.573732
C53	C	0.788983	-0.642389	-0.573724
O54	O	0.817407	-0.614102	-0.630895
N55	N	0.755553	-0.615132	-0.506463
C56	C	0.722141	-0.642483	-0.439198
O57	O	0.693706	-0.614285	-0.381986
C58	C	0.722160	-0.697086	-0.439202
C59	C	0.755588	-0.724340	-0.506475
C60	C	0.822424	-0.724247	-0.640999
C61	C	0.822439	-0.778847	-0.641008
C62	C	0.789028	-0.806194	-0.573750
C63	C	0.755603	-0.778940	-0.506484
C64	C	0.688751	-0.724436	-0.371932
C65	C	0.688773	-0.779043	-0.371941
C66	C	0.722201	-0.806296	-0.439214
C67	C	0.722207	-0.860888	-0.439235
N68	N	0.755636	-0.888144	-0.506496
C69	C	0.789047	-0.860797	-0.573754
C70	C	0.722105	-0.527812	-0.439195
C71	C	0.722083	-0.473210	-0.439196
C72	C	0.788926	-0.473120	-0.573721
C73	C	0.788944	-0.527723	-0.573724
C74	C	0.755534	-0.555069	-0.506456
C75	C	0.789075	-0.975462	-0.573768
C76	C	0.789086	-1.030068	-0.573775
C77	C	0.722246	-1.030153	-0.439246
C78	C	0.722233	-0.975553	-0.439243
C79	C	0.755652	-0.948209	-0.506508
O80	O	0.693798	-0.889209	-0.382091
O81	O	0.817482	-0.889002	-0.630947
C82	C	0.891924	-0.251923	-0.506522
C83	C	0.950038	-0.251932	-0.506552
C84	C	0.755591	-0.251850	-0.780483
C85	C	0.755608	-0.251829	-0.897260
C86	C	0.755638	-0.115529	-0.506497
C87	C	0.755675	-0.057415	-0.506517
C88	C	0.822529	-0.184969	-0.897338
C89	C	0.855997	-0.151531	-0.952238
C90	C	0.856010	-0.151512	-1.061960
C91	C	0.822550	-0.184933	-1.116784
C92	C	0.789082	-0.218371	-1.061884
C93	C	0.789074	-0.218388	-0.952160
C94	C	0.722159	-0.285227	-1.061806
C95	C	0.722148	-0.285250	-0.952084
C96	C	0.688699	-0.318648	-1.116630
C97	C	0.655233	-0.352089	-1.061730
C98	C	0.655222	-0.352107	-0.952002
C99	C	0.688680	-0.318687	-0.897184
C100	C	0.755542	-0.251915	-0.233482
C101	C	0.755627	-0.251789	-0.116706
H102	H	0.457440	-0.191154	-0.384714
H103	H	0.627990	-0.379295	-1.106377
H104	H	0.816306	-1.052255	-0.628563
H105	H	0.883259	-0.124281	-1.106659
C106	C	0.656025	-0.522408	-0.306235
C107	C	0.685370	-0.557868	-0.365261
H108	H	0.633345	-0.540962	-0.260598
H109	H	0.678809	-0.501107	-0.266096
H110	H	0.636013	-0.501112	-0.351984
H111	H	0.705385	-0.579162	-0.319513
H112	H	0.662583	-0.579178	-0.405404
H113	H	0.822559	-0.184910	-1.206125
C114	C	0.881531	-0.063011	-0.918498
C115	C	0.892775	-0.114798	-0.891970
H116	H	0.904234	-0.040333	-0.881287
H117	H	0.886330	-0.058217	-0.991692
H118	H	0.846404	-0.055359	-0.900490
H119	H	0.927901	-0.122451	-0.909986
H120	H	0.887980	-0.119594	-0.818760
H121	H	0.816289	-0.953205	-0.628540
C122	C	0.702002	-0.368366	-1.273788
C123	C	0.688711	-0.318629	-1.237238
H124	H	0.702007	-0.368356	-1.348247
H125	H	0.735730	-0.377415	-1.248988
H126	H	0.677278	-0.393057	-1.248929
H127	H	0.713438	-0.293939	-1.262090
H128	H	0.654979	-0.309575	-1.262049
H129	H	0.627962	-0.379331	-0.907309
C130	C	0.485219	-0.351549	-0.706080
C131	C	0.449709	-0.322171	-0.647231
H132	H	0.466704	-0.374273	-0.751603
H133	H	0.506539	-0.328789	-0.746333
H134	H	0.506492	-0.371517	-0.660211
H135	H	0.428438	-0.302200	-0.693099
H136	H	0.428380	-0.344933	-0.606975
H137	H	0.661531	-0.702253	-0.317152
H138	H	0.556508	-0.191152	-0.384685
H139	H	0.054153	-0.191182	-0.384833
H140	H	0.661566	-0.801305	-0.317160
C141	C	-0.039411	-0.310981	-0.751449
C142	C	-0.052648	-0.322207	-0.647367
H143	H	-0.057933	-0.333700	-0.796970
H144	H	-0.048340	-0.275864	-0.766936
H145	H	-0.002983	-0.315773	-0.761030
H146	H	-0.089076	-0.317411	-0.637784
H147	H	-0.043723	-0.357332	-0.631875
C148	C	0.847887	-0.795572	-0.818964
C149	C	0.859195	-0.808796	-0.714942
H150	H	0.870585	-0.814056	-0.864604
H151	H	0.812765	-0.804556	-0.834275
H152	H	0.852650	-0.759136	-0.828562
H153	H	0.854427	-0.845232	-0.705342
H154	H	0.894325	-0.799816	-0.699626
C155	C	0.595756	-0.292710	-0.714737
C156	C	0.564323	-0.322162	-0.647180
H157	H	0.614288	-0.315428	-0.760247
H158	H	0.574478	-0.269958	-0.755003
H159	H	0.619825	-0.272775	-0.674772
H160	H	0.540251	-0.342093	-0.687145
H161	H	0.585603	-0.344923	-0.606910
C162	C	0.277659	-0.385032	-0.773226
C163	C	0.313153	-0.355653	-0.714347
H164	H	0.296187	-0.407745	-0.818754
H165	H	0.256341	-0.405005	-0.727384
H166	H	0.256382	-0.362267	-0.813484
H167	H	0.334427	-0.378417	-0.674083
H168	H	0.334480	-0.335678	-0.760195
C169	C	0.738400	-0.332048	-0.740048
C170	C	0.688674	-0.318703	-0.776576
H171	H	0.738397	-0.332052	-0.665589
H172	H	0.747410	-0.365785	-0.764852
H173	H	0.763115	-0.307349	-0.764917
H174	H	0.663959	-0.343404	-0.751713
H175	H	0.679657	-0.284961	-0.751761
H176	H	0.206324	-0.346122	-0.695262
C177	C	0.829632	-0.662803	-0.782345
C178	C	0.859150	-0.694192	-0.714941
H179	H	0.852306	-0.644250	-0.827996
H180	H	0.806850	-0.684113	-0.822469
H181	H	0.809728	-0.638752	-0.742278
H182	H	0.879052	-0.718246	-0.755008
H183	H	0.881942	-0.672880	-0.674813
C184	C	0.772787	-0.171654	-0.740131
C185	C	0.822517	-0.184990	-0.776730
H186	H	0.772780	-0.171669	-0.665673
H187	H	0.763780	-0.137911	-0.764960
H188	H	0.748074	-0.196346	-0.764929
H189	H	0.847229	-0.160296	-0.751939
H190	H	0.831530	-0.218738	-0.751891
H191	H	0.695042	-1.052429	-0.384489
C192	C	0.093338	-0.355740	-0.587966
C193	C	0.061974	-0.322201	-0.647338
H194	H	0.111864	-0.378459	-0.633488
H195	H	0.117409	-0.335802	-0.548032
H196	H	0.072011	-0.375712	-0.542125
H197	H	0.083302	-0.302226	-0.693175
H198	H	0.037901	-0.342141	-0.687291
C199	C	-0.017189	-0.152275	-0.306866
C200	C	-0.052681	-0.181658	-0.365741
H201	H	-0.035719	-0.129554	-0.261357
H202	H	0.004082	-0.175032	-0.266597
H203	H	0.004135	-0.132305	-0.352719
H204	H	-0.074002	-0.201631	-0.319888
H205	H	-0.073961	-0.158898	-0.406012
H206	H	0.206278	-0.157685	-0.317733
C207	C	0.277601	-0.118762	-0.239737
C208	C	0.313107	-0.148140	-0.298597
H209	H	0.296120	-0.096047	-0.194203
H210	H	0.256332	-0.098791	-0.285589
H211	H	0.256277	-0.141527	-0.199486
H212	H	0.334429	-0.125376	-0.338855
H213	H	0.334385	-0.168113	-0.252739
H214	H	0.816162	-0.549909	-0.628509
C215	C	0.818580	-0.389371	-0.633423
C216	C	0.825656	-0.443053	-0.647646
H217	H	0.841257	-0.370810	-0.679055
H218	H	0.783447	-0.380451	-0.648728
H219	H	0.826245	-0.380447	-0.562841
H220	H	0.817987	-0.451978	-0.718226
H221	H	0.860796	-0.451977	-0.632348
H222	H	0.695008	-0.953362	-0.384474
C223	C	0.651730	-0.411870	-0.424435
C224	C	0.685333	-0.443257	-0.365258
H225	H	0.629041	-0.393383	-0.378783
H226	H	0.671625	-0.387766	-0.464473
H227	H	0.631730	-0.433178	-0.470172
H228	H	0.705336	-0.421948	-0.319526
H229	H	0.665436	-0.467363	-0.325202
