data_functionalizedCrystal
_audit_creation_method	'MofGen! by Chris Wilmer'
_symmetry_space_group_name_H-M	'P1'
_symmetry_Int_Tables_number	1
_symmetry_cell_setting	triclinic
loop_
_symmetry_equiv_pos_as_xyz
  x,y,z
_cell_length_a	21.295420
_cell_length_b	21.295417
_cell_length_c	10.686551
_cell_angle_alpha	85.588773
_cell_angle_beta	85.602548
_cell_angle_gamma	90.025484
loop_
_atom_site_label
_atom_site_type_symbol
_atom_site_fract_x
_atom_site_fract_y
_atom_site_fract_z
Zn1	Zn	0.989670	-0.223330	-0.713467
Zn2	Zn	0.981496	-0.336692	-0.502439
Zn3	Zn	0.876317	-0.231432	-0.502474
Zn4	Zn	0.884361	-0.328560	-0.713385
O5	O	0.932961	-0.280003	-0.607941
O6	O	1.076676	-0.238380	-0.685494
O7	O	0.960756	-0.329523	-0.325860
O8	O	0.891408	-0.142266	-0.530512
O9	O	1.070671	-0.321667	-0.530452
O10	O	0.974688	-0.136313	-0.685528
O11	O	0.883481	-0.252189	-0.325886
O12	O	0.789294	-0.244304	-0.530432
O13	O	0.905119	-0.307807	-0.889979
O14	O	0.795204	-0.315663	-0.685388
O15	O	0.982489	-0.230494	-0.890040
O16	O	0.968557	-0.423705	-0.530372
O17	O	0.897192	-0.417730	-0.685353
C18	C	0.769408	-0.279981	-0.607906
C19	C	0.699441	-0.279985	-0.607920
C20	C	0.203116	-0.236725	-0.688822
C21	C	0.268858	-0.236720	-0.688822
C22	C	0.298603	-0.280021	-0.607971
C23	C	0.262601	-0.323341	-0.527137
C24	C	0.196860	-0.323349	-0.527148
N25	N	0.397563	-0.289004	-0.497478
N26	N	0.460015	-0.288993	-0.497471
C27	C	0.496676	-0.280002	-0.607933
N28	N	0.468528	-0.271010	-0.718406
N29	N	0.406071	-0.271018	-0.718412
C30	C	0.369888	-0.280018	-0.607950
C31	C	0.603957	-0.236683	-0.688769
C32	C	0.669700	-0.236683	-0.688771
C33	C	0.663441	-0.323301	-0.527074
C34	C	0.597699	-0.323304	-0.527084
C35	C	0.567961	-0.279992	-0.607929
C36	C	0.932879	-0.443558	-0.607877
C37	C	0.932902	-0.513525	-0.607892
C38	C	0.976246	-0.543233	-0.688667
C39	C	0.976269	-0.608974	-0.688698
C40	C	0.932955	-0.645006	-0.607932
C41	C	0.889604	-0.615291	-0.527152
C42	C	0.889577	-0.549550	-0.527132
N43	N	0.923968	-0.752503	-0.497497
N44	N	0.923997	-0.814953	-0.497519
C45	C	0.933031	-0.843079	-0.607989
N46	N	0.942047	-0.806394	-0.718438
N47	N	0.942021	-0.743938	-0.718414
C48	C	0.932978	-0.716291	-0.607945
C49	C	0.976402	-0.944070	-0.688804
C50	C	0.976421	-1.009813	-0.688837
C51	C	0.889758	-1.016128	-0.527280
C52	C	0.889736	-0.950387	-0.527258
C53	C	0.933061	-0.914362	-0.608018
C54	C	1.097153	-0.280027	-0.607978
C55	C	1.167122	-0.280037	-0.607993
C56	C	0.945613	-0.267340	-0.937076
C57	C	0.951004	-0.261943	-1.077333
C58	C	0.933062	-0.115810	-0.608033
C59	C	0.933106	-0.045840	-0.608072
C60	C	0.920395	-0.292572	-0.280087
C61	C	0.915126	-0.297792	-0.139830
H62	H	0.699006	-0.201415	-0.754600
N63	N	0.868968	-0.343907	-1.068567
H64	H	0.824867	-0.333249	-1.091435
H65	H	0.879634	-0.388002	-1.091431
N66	N	0.997165	-0.215820	-1.148584
H67	H	0.994606	-0.218373	-1.242041
H68	H	0.986522	-0.171734	-1.125636
N69	N	0.571878	-0.189979	-0.775980
H70	H	0.524769	-0.196552	-0.763717
H71	H	0.582636	-0.145754	-0.756505
N72	N	0.171044	-0.190020	-0.776037
H73	H	0.123935	-0.196596	-0.763784
H74	H	0.181798	-0.145795	-0.756558
H75	H	1.011560	-0.633166	-0.754489
H76	H	0.286823	-0.358599	-0.461311
N77	N	0.307692	-0.190005	-0.776005
H78	H	0.278877	-0.162569	-0.827222
H79	H	0.333001	-0.162808	-0.724729
H80	H	0.854487	-1.045465	-0.461527
N81	N	0.158033	-0.370064	-0.439964
H82	H	0.186849	-0.397497	-0.388745
H83	H	0.128520	-0.346641	-0.381663
N84	N	1.023123	-0.905215	-0.775928
H85	H	0.999750	-0.875699	-0.834344
H86	H	1.050329	-0.879938	-0.724611
H87	H	0.854336	-0.644632	-0.461395
H88	H	0.854445	-0.926197	-0.461478
H89	H	0.687659	-0.358562	-0.461254
H90	H	0.568392	-0.358570	-0.461259
H91	H	0.854281	-0.525362	-0.461355
H92	H	1.011522	-0.513903	-0.754429
H93	H	1.011716	-1.033999	-0.754619
