data_functionalizedCrystal
_audit_creation_method	'MofGen! by Chris Wilmer'
_symmetry_space_group_name_H-M	'P1'
_symmetry_Int_Tables_number	1
_symmetry_cell_setting	triclinic
loop_
_symmetry_equiv_pos_as_xyz
  x,y,z
_cell_length_a	14.044191
_cell_length_b	9.065218
_cell_length_c	12.503572
_cell_angle_alpha	93.577298
_cell_angle_beta	86.162165
_cell_angle_gamma	89.103831
loop_
_atom_site_label
_atom_site_type_symbol
_atom_site_fract_x
_atom_site_fract_y
_atom_site_fract_z
O1	O	-1.266161	-0.348307	0.089260
O2	O	-0.932828	-0.014974	0.422594
O3	O	-0.599494	0.318359	0.755927
O4	O	-0.990082	-0.335446	0.089274
O5	O	-0.656749	-0.002113	0.422607
O6	O	-0.323415	0.331220	0.755941
O7	O	-1.133828	-0.127867	0.089265
O8	O	-0.800495	0.205466	0.422598
O9	O	-0.467161	0.538799	0.755931
O10	O	-1.122415	-0.555886	0.089270
O11	O	-0.789082	-0.222553	0.422603
O12	O	-0.455748	0.110780	0.755936
O13	O	-1.123018	-0.143507	-0.089377
O14	O	-0.789684	0.189827	0.243957
O15	O	-0.456351	0.523160	0.577290
O16	O	-0.979272	-0.351086	-0.089367
O17	O	-0.645938	-0.017752	0.243966
O18	O	-0.312605	0.315581	0.577300
O19	O	-1.255351	-0.363947	-0.089381
O20	O	-0.922017	-0.030614	0.243952
O21	O	-0.588684	0.302720	0.577286
Cu22	Cu	-1.116324	-0.358944	-0.105685
Cu23	Cu	-0.782991	-0.025611	0.227648
Cu24	Cu	-0.449657	0.307722	0.560981
Cu25	Cu	-1.129109	-0.340449	0.105578
Cu26	Cu	-0.795775	-0.007116	0.438912
Cu27	Cu	-0.462442	0.326218	0.772245
O28	O	-1.111605	-0.571526	-0.089372
O29	O	-0.778271	-0.238193	0.243962
O30	O	-0.444938	0.095141	0.577295
C31	C	-0.949314	-0.337640	-0.000045
C32	C	-0.615981	-0.004307	0.333289
C33	C	-0.282647	0.329027	0.666622
C34	C	-0.843944	-0.320858	-0.000039
C35	C	-0.510611	0.012475	0.333294
C36	C	-0.177278	0.345808	0.666627
C37	C	-1.296119	-0.361753	-0.000060
C38	C	-0.962785	-0.028420	0.333273
C39	C	-0.629452	0.304914	0.666607
C40	C	-1.401489	-0.378534	-0.000058
C41	C	-1.068155	-0.045201	0.333275
C42	C	-0.734822	0.288133	0.666608
C43	C	-0.594416	-0.409195	-0.000049
C44	C	-0.261082	-0.075862	0.333284
C45	C	0.072251	0.257471	0.666618
C46	C	-0.651023	-0.290204	-0.000049
C47	C	-0.317690	0.043130	0.333285
C48	C	0.015644	0.376463	0.666618
C49	C	-0.758374	-0.307264	-0.000043
C50	C	-0.425041	0.026069	0.333290
C51	C	-0.091708	0.359403	0.666623
C52	C	-0.487055	-0.392137	-0.000054
C53	C	-0.153721	-0.058804	0.333279
C54	C	0.179612	0.274529	0.666613
C55	C	-1.127326	-0.080579	-0.000054
C56	C	-0.793993	0.252755	0.333279
C57	C	-0.460659	0.586088	0.666612
C58	C	-1.124047	0.083628	-0.000049
C59	C	-0.790713	0.416962	0.333284
C60	C	-0.457380	0.750295	0.666618
C61	C	-1.118107	-0.618814	-0.000050
C62	C	-0.784773	-0.285481	0.333283
C63	C	-0.451440	0.047852	0.666616
C64	C	-1.121387	-0.783021	-0.000049
C65	C	-0.788053	-0.449687	0.333285
C66	C	-0.454720	-0.116354	0.666618
N67	N	-1.107339	-0.371953	-0.254277
N68	N	-0.774006	-0.038620	0.079056
N69	N	-0.440672	0.294714	0.412390
C70	C	-1.094122	-0.391102	-0.473392
C71	C	-0.760789	-0.057768	-0.140058
C72	C	-0.427455	0.275565	0.193275
C73	C	-1.151315	-0.308285	-0.526722
C74	C	-0.817982	0.025048	-0.193389
C75	C	-0.484648	0.358381	0.139944
C76	C	-1.143961	-0.318940	-0.648645
C77	C	-0.810627	0.014393	-0.315312
C78	C	-0.477294	0.347727	0.018022
C79	C	-1.101475	-0.380449	-0.351458
C80	C	-0.768142	-0.047115	-0.018124
C81	C	-0.434808	0.286218	0.315209
N82	N	-1.138101	-0.327430	0.254170
N83	N	-0.804768	0.005904	0.587504
N84	N	-0.471434	0.339237	0.920837
H85	H	-0.618868	-0.175512	0.000026
H86	H	-0.285534	0.157821	0.333359
H87	H	0.047799	0.491155	0.666692
O88	O	-1.029208	-0.485208	-0.528316
O89	O	-0.695874	-0.151875	-0.194983
O90	O	-0.362541	0.181458	0.138350
C91	C	-1.036220	-0.475014	-0.639585
C92	C	-0.702886	-0.141681	-0.306252
C93	C	-0.369553	0.191653	0.027082
H94	H	-1.110236	-0.430907	-0.654798
H95	H	-0.776902	-0.097574	-0.321464
H96	H	-0.443569	0.235759	0.011869
H97	H	-1.024209	-0.589175	-0.682421
H98	H	-0.690876	-0.255842	-0.349088
H99	H	-0.357542	0.077492	-0.015755
H100	H	-0.979885	-0.396720	-0.671510
H101	H	-0.646552	-0.063386	-0.338177
H102	H	-0.313218	0.269947	-0.004844
O103	O	-0.632832	-0.545958	0.000153
O104	O	-0.299498	-0.212625	0.333486
O105	O	0.033835	0.120708	0.666820
C106	C	-0.695121	-0.554762	0.092665
C107	C	-0.361788	-0.221429	0.425998
C108	C	-0.028455	0.111904	0.759332
H109	H	-0.674865	-0.468898	0.157322
H110	H	-0.341532	-0.135565	0.490655
H111	H	-0.008198	0.197769	0.823989
H112	H	-0.689270	-0.669920	0.123732
H113	H	-0.355937	-0.336586	0.457065
H114	H	-0.022604	-0.003253	0.790398
H115	H	-0.771595	-0.532590	0.071751
H116	H	-0.438262	-0.199257	0.405084
H117	H	-0.104929	0.134076	0.738417
H118	H	-1.205803	-0.229383	-0.480813
H119	H	-0.872470	0.103950	-0.147480
H120	H	-0.539137	0.437284	0.185854
