data_functionalizedCrystal
_audit_creation_method	'MofGen! by Chris Wilmer'
_symmetry_space_group_name_H-M	'P1'
_symmetry_Int_Tables_number	1
_symmetry_cell_setting	triclinic
loop_
_symmetry_equiv_pos_as_xyz
  x,y,z
_cell_length_a	6.817900
_cell_length_b	14.125469
_cell_length_c	10.943881
_cell_angle_alpha	94.576393
_cell_angle_beta	108.843448
_cell_angle_gamma	100.398878
loop_
_atom_site_label
_atom_site_type_symbol
_atom_site_fract_x
_atom_site_fract_y
_atom_site_fract_z
V1	V	-4.072509	-0.133087	-0.402054
O2	O	-4.075334	0.006423	-0.394913
O3	O	-4.008150	-0.263916	-0.398811
O4	O	-4.051161	-0.131027	-0.577629
O5	O	-4.032025	-0.127385	-0.214858
V6	V	-4.554700	-0.116401	-0.379724
O7	O	-4.336690	-0.169688	-0.451037
O8	O	-4.740716	-0.079800	-0.330740
O9	O	-4.395853	0.014428	-0.382967
O10	O	-4.669272	-0.255911	-0.386864
O11	O	-4.712581	-0.122103	-0.566920
O12	O	-4.352841	-0.118461	-0.204149
C13	C	-3.848393	-0.295809	-0.392341
C14	C	-3.877238	-0.402763	-0.390859
C15	C	-3.930121	-0.598589	-0.388166
C16	C	-4.116455	-0.650911	-0.393616
C17	C	-4.145882	-0.759875	-0.392117
C18	C	-3.900687	-0.489615	-0.389664
C19	C	-3.903257	-0.126296	-0.620439
C20	C	-3.966981	-0.125477	-0.763969
C21	C	-4.194958	-0.130008	-0.854835
C22	C	-4.108249	-0.047307	-0.920882
C23	C	-4.167192	-0.206662	-0.953655
C24	C	-3.879406	-0.042722	-0.828111
C25	C	-3.938400	-0.202149	-0.860893
C26	C	-3.851527	-0.119425	-0.926891
C27	C	-4.218951	0.046316	-0.389433
C28	C	-4.169344	0.153270	-0.390923
C29	C	-4.164086	-0.123195	-0.161332
C30	C	-4.079601	-0.124009	-0.017800
H31	H	-3.792707	-0.635627	-0.382373
H32	H	-4.339450	-0.134389	-0.822950
O33	O	-4.204192	0.039406	-0.956383
H34	H	-4.205765	0.081600	-0.866818
O35	O	-3.717541	0.049132	-0.756149
H36	H	-3.671253	0.047803	-0.649411
O37	O	-3.659791	-0.113457	-0.968806
H38	H	-3.541275	-0.045372	-0.917775
O39	O	-4.298519	-0.601868	-0.401286
H40	H	-4.252385	-0.546052	-0.313843
O41	O	-3.842552	-0.288879	-0.825380
H42	H	-3.961726	-0.356829	-0.876167
H43	H	-4.289507	-0.275934	-1.008142
