data_functionalizedCrystal
_audit_creation_method	'MofGen! by Chris Wilmer'
_symmetry_space_group_name_H-M	'P1'
_symmetry_Int_Tables_number	1
_symmetry_cell_setting	triclinic
loop_
_symmetry_equiv_pos_as_xyz
  x,y,z
_cell_length_a	6.817900
_cell_length_b	17.078472
_cell_length_c	17.110486
_cell_angle_alpha	96.906237
_cell_angle_beta	99.060439
_cell_angle_gamma	99.306020
loop_
_atom_site_label
_atom_site_type_symbol
_atom_site_fract_x
_atom_site_fract_y
_atom_site_fract_z
V1	V	-3.956140	-0.109531	-0.246641
O2	O	-3.966417	0.005507	-0.242028
O3	O	-3.887540	-0.217416	-0.244875
O4	O	-3.886337	-0.107740	-0.354245
O5	O	-3.967628	-0.104929	-0.131900
V6	V	-4.445159	-0.095784	-0.232927
O7	O	-4.205343	-0.139687	-0.276724
O8	O	-4.646153	-0.065628	-0.202843
O9	O	-4.290553	0.012101	-0.234692
O10	O	-4.552278	-0.210821	-0.237540
O11	O	-4.551068	-0.100386	-0.347667
O12	O	-4.291755	-0.097575	-0.125322
C13	C	-3.728319	-0.243719	-0.240964
C14	C	-3.753374	-0.331915	-0.240238
C15	C	-3.945689	-0.377387	-0.243841
C16	C	-3.969221	-0.460257	-0.243163
C17	C	-3.800433	-0.497653	-0.238877
C18	C	-3.608103	-0.452176	-0.235276
C19	C	-3.584576	-0.369308	-0.235960
C20	C	-3.851439	-0.745059	-0.236415
C21	C	-3.874982	-0.827933	-0.235730
C22	C	-4.236099	-0.836009	-0.243618
C23	C	-4.212553	-0.753139	-0.244296
C24	C	-4.020228	-0.707669	-0.240700
N25	N	-3.824481	-0.582359	-0.238182
N26	N	-3.996184	-0.622965	-0.241401
C27	C	-3.726784	-0.103815	-0.380475
C28	C	-3.750863	-0.103064	-0.468442
C29	C	-3.942720	-0.106671	-0.513797
C30	C	-3.965333	-0.105965	-0.596451
C31	C	-3.796087	-0.101658	-0.633749
C32	C	-3.604213	-0.098048	-0.588387
C33	C	-3.581601	-0.098749	-0.505734
C34	C	-3.855325	-0.099340	-0.883106
C35	C	-3.877954	-0.098642	-0.965765
C36	C	-4.239072	-0.106558	-0.973823
C37	C	-4.216445	-0.107262	-0.891169
C38	C	-4.024573	-0.103649	-0.845814
C39	C	-3.819197	-0.100939	-0.718235
C40	C	-4.001463	-0.104362	-0.761329
C41	C	-4.113115	0.038400	-0.238601
C42	C	-4.067297	0.126595	-0.239332
C43	C	-4.114650	-0.101502	-0.099088
C44	C	-4.069811	-0.102249	-0.011120
H45	H	-3.427975	-0.332286	-0.233029
H46	H	-3.694838	-0.708047	-0.233482
Cl47	Cl	-4.214220	-0.109776	-0.714438
Cl48	Cl	-4.155505	-0.112092	-0.466918
Cl49	Cl	-3.395912	-0.499189	-0.229892
Cl50	Cl	-3.340397	-0.094207	-0.448715
Cl51	Cl	-4.429224	-0.112680	-0.844287
H52	H	-4.125822	-0.497277	-0.246098
Cl53	Cl	-4.206539	-0.110510	-0.653468
H54	H	-4.395287	-0.109498	-1.010760
Cl55	Cl	-3.665169	-0.093227	-1.012653
H56	H	-3.699104	-0.096426	-0.846191
H57	H	-3.737529	-0.858381	-0.232258
H58	H	-3.466410	-0.094537	-0.618761
H59	H	-3.681401	-0.097435	-0.748612
H60	H	-4.350004	-0.722698	-0.247792
Cl61	Cl	-4.157895	-0.330383	-0.249227
H62	H	-4.392684	-0.873039	-0.246546
