data_functionalizedCrystal
_audit_creation_method	'MofGen! by Chris Wilmer'
_symmetry_space_group_name_H-M	'P1'
_symmetry_Int_Tables_number	1
_symmetry_cell_setting	triclinic
loop_
_symmetry_equiv_pos_as_xyz
  x,y,z
_cell_length_a	13.032831
_cell_length_b	12.594516
_cell_length_c	12.594510
_cell_angle_alpha	90.033997
_cell_angle_beta	97.193202
_cell_angle_gamma	82.816889
loop_
_atom_site_label
_atom_site_type_symbol
_atom_site_fract_x
_atom_site_fract_y
_atom_site_fract_z
Zn1	Zn	1.597768	-0.630598	0.808168
Zn2	Zn	2.097768	-0.130598	1.308168
Zn3	Zn	1.597674	-0.808615	0.630179
Zn4	Zn	2.097674	-0.308615	1.130179
Zn5	Zn	1.423002	-0.608026	0.607631
Zn6	Zn	1.923002	-0.108026	1.107631
Zn7	Zn	1.422997	-0.785897	0.785554
Zn8	Zn	1.922997	-0.285897	1.285554
O9	O	1.510360	-0.708284	0.707883
O10	O	2.010360	-0.208284	1.207883
O11	O	1.743998	-0.673166	0.803458
O12	O	2.243998	-0.173166	1.303458
O13	O	1.574467	-0.782068	0.478237
O14	O	2.074467	-0.282068	0.978237
O15	O	1.446227	-0.462080	0.634261
O16	O	1.946227	0.037920	1.134261
O17	O	1.743930	-0.803954	0.672690
O18	O	2.243930	-0.303954	1.172690
O19	O	1.574626	-0.478663	0.781594
O20	O	2.074626	0.021337	1.281594
O21	O	1.446136	-0.634696	0.461671
O22	O	1.946136	-0.134696	0.961671
O23	O	1.276758	-0.612668	0.612333
O24	O	1.776758	-0.112668	1.112333
O25	O	1.446218	-0.765236	0.937505
O26	O	1.946218	-0.265236	1.437505
O27	O	1.276755	-0.743349	0.743052
O28	O	1.776755	-0.243349	1.243052
O29	O	1.574621	-0.651138	0.954119
O30	O	2.074621	-0.151138	1.454119
O31	O	1.574462	-0.954542	0.650762
O32	O	2.074462	-0.454542	1.150762
O33	O	1.446127	-0.937851	0.764915
O34	O	1.946127	-0.437851	1.264915
C35	C	1.238837	-0.673095	0.672792
C36	C	1.738837	-0.173095	1.172792
C37	C	1.122679	-0.658066	0.657806
C38	C	1.622679	-0.158066	1.157806
C39	C	1.070917	-0.716128	0.715705
C40	C	1.570917	-0.216128	1.215705
C41	C	0.950861	-0.700597	0.700217
C42	C	1.450861	-0.200597	1.200217
C43	C	1.510312	-0.984819	0.707858
C44	C	2.010312	-0.484819	1.207858
C45	C	1.510387	-1.103134	0.707896
C46	C	2.010387	-0.603134	1.207896
C47	C	1.580269	-1.181437	0.645894
C48	C	2.080269	-0.681437	1.145894
C49	C	1.605807	-1.255431	0.746341
C50	C	2.105807	-0.755431	1.246341
C51	C	1.484979	-1.239956	0.607527
C52	C	1.984979	-0.739956	1.107527
C53	C	1.535974	-1.175576	0.808400
C54	C	2.035974	-0.675576	1.308400
C55	C	1.415101	-1.160089	0.669515
C56	C	1.915101	-0.660089	1.169515
C57	C	1.440603	-1.234046	0.770025
C58	C	1.940603	-0.734046	1.270025
C59	C	1.782944	-0.743612	0.743111
C60	C	2.282944	-0.243612	1.243111
C61	C	1.899102	-0.758667	0.758124
C62	C	2.399102	-0.258667	1.258124
C63	C	1.510429	-0.708170	0.985513
C64	C	2.010429	-0.208170	1.485513
C65	C	1.510459	-0.708122	1.103822
C66	C	2.010459	-0.208122	1.603822
C67	C	1.510437	-0.430673	0.707935
C68	C	2.010437	0.069327	1.207935
C69	C	1.510470	-0.312372	0.707957
C70	C	2.010470	0.187628	1.207957
C71	C	1.510352	-0.708329	0.431341
C72	C	2.010352	-0.208329	0.931341
C73	C	1.510525	-0.708104	0.313058
C74	C	2.010525	-0.208104	0.813058
C75	C	1.580318	-0.646061	1.182115
C76	C	2.080318	-0.146061	1.682115
C77	C	1.485002	-0.607663	1.240598
C78	C	1.985002	-0.107663	1.740598
C79	C	1.605831	-0.746453	1.256145
C80	C	2.105831	-0.246453	1.756145
C81	C	1.415091	-0.669666	1.160741
C82	C	1.915091	-0.169666	1.660741
C83	C	1.535985	-0.808510	1.176290
C84	C	2.035985	-0.308510	1.676290
C85	C	1.440603	-0.770140	1.234733
C86	C	1.940603	-0.270140	1.734733
H87	H	0.906299	-0.639381	0.639181
H88	H	1.406299	-0.139381	1.139181
F89	F	1.363332	-0.838708	1.265070
F90	F	1.863332	-0.338708	1.765070
H91	H	1.115483	-0.777332	0.776744
H92	H	1.615483	-0.277332	1.276744
H93	H	1.639376	-1.158048	0.593516
H94	H	2.139376	-0.658048	1.093516
F95	F	0.957342	-0.838662	0.837922
F96	F	1.457342	-0.338662	1.337922
F97	F	1.064433	-0.578056	0.578031
F98	F	1.564433	-0.078056	1.078031
H99	H	1.686424	-1.296905	0.778835
H100	H	2.186424	-0.796905	1.278835
H101	H	1.334441	-0.637141	1.119369
H102	H	1.834441	-0.137141	1.619369
H103	H	1.557582	-0.893397	1.147919
H104	H	2.057582	-0.393397	1.647919
F105	F	1.456810	-0.496687	1.277663
F106	F	1.956810	0.003313	1.777663
F107	F	1.564242	-1.138661	0.919424
F108	F	2.064242	-0.638661	1.419424
H109	H	1.381542	-1.257244	0.822553
H110	H	1.881542	-0.757244	1.322553
H111	H	1.334508	-1.118595	0.636995
H112	H	1.834508	-0.618595	1.136995
F113	F	1.657404	-0.577404	1.151512
F114	F	2.157404	-0.077404	1.651512
F115	F	1.456845	-1.277067	0.496551
F116	F	1.956845	-0.777067	0.996551
F117	F	1.711216	-0.788840	1.310388
F118	F	2.211216	-0.288840	1.810388
