data_functionalizedCrystal
_audit_creation_method	'MofGen! by Chris Wilmer'
_symmetry_space_group_name_H-M	'P1'
_symmetry_Int_Tables_number	1
_symmetry_cell_setting	triclinic
loop_
_symmetry_equiv_pos_as_xyz
  x,y,z
_cell_length_a	19.288840
_cell_length_b	19.288865
_cell_length_c	17.766277
_cell_angle_alpha	89.988397
_cell_angle_beta	89.983415
_cell_angle_gamma	83.131131
loop_
_atom_site_label
_atom_site_type_symbol
_atom_site_fract_x
_atom_site_fract_y
_atom_site_fract_z
O1	O	-0.921364	-0.086566	0.062729
O2	O	-0.588031	0.246767	0.396062
O3	O	-0.254697	0.580101	0.729395
O4	O	-0.719101	-0.098273	0.062704
O5	O	-0.385768	0.235061	0.396037
O6	O	-0.052434	0.568394	0.729370
O7	O	-0.826077	0.008711	0.062702
O8	O	-0.492744	0.342045	0.396035
O9	O	-0.159410	0.675378	0.729369
O10	O	-0.814388	-0.193550	0.062730
O11	O	-0.481055	0.139783	0.396064
O12	O	-0.147721	0.473116	0.729397
O13	O	-0.826058	0.008717	-0.062487
O14	O	-0.492725	0.342050	0.270847
O15	O	-0.159392	0.675384	0.604180
O16	O	-0.719082	-0.098267	-0.062485
O17	O	-0.385749	0.235066	0.270848
O18	O	-0.052416	0.568399	0.604182
O19	O	-0.921345	-0.086560	-0.062460
O20	O	-0.588012	0.246773	0.270873
O21	O	-0.254679	0.580106	0.604207
Cu22	Cu	-0.820212	-0.092413	-0.073903
Cu23	Cu	-0.486879	0.240920	0.259430
Cu24	Cu	-0.153545	0.574253	0.592763
Cu25	Cu	-0.820234	-0.092420	0.074147
Cu26	Cu	-0.486901	0.240913	0.407480
Cu27	Cu	-0.153568	0.574247	0.740813
O28	O	-0.814369	-0.193545	-0.062458
O29	O	-0.481036	0.139789	0.270875
O30	O	-0.147703	0.473122	0.604208
C31	C	-0.693215	-0.097896	0.000106
C32	C	-0.359882	0.235437	0.333439
C33	C	-0.026548	0.568770	0.666773
C34	C	-0.616110	-0.096774	0.000096
C35	C	-0.282777	0.236559	0.333429
C36	C	0.050556	0.569892	0.666762
N37	N	-0.820202	-0.092409	-0.178034
N38	N	-0.486868	0.240925	0.155300
N39	N	-0.153535	0.574258	0.488633
C40	C	-0.825692	0.034591	0.000105
C41	C	-0.492358	0.367924	0.333439
C42	C	-0.159025	0.701257	0.666772
C43	C	-0.824563	0.111694	0.000099
C44	C	-0.491229	0.445027	0.333432
C45	C	-0.157896	0.778361	0.666765
C46	C	-0.947232	-0.086937	0.000139
C47	C	-0.613898	0.246396	0.333473
C48	C	-0.280565	0.579730	0.666806
C49	C	-1.024336	-0.088059	0.000154
C50	C	-0.691003	0.245274	0.333488
C51	C	-0.357669	0.578608	0.666821
C52	C	-0.579917	-0.096238	0.068338
C53	C	-0.246584	0.237095	0.401671
C54	C	0.086750	0.570428	0.735004
C55	C	-0.507470	-0.095176	0.068347
C56	C	-0.174137	0.238157	0.401680
C57	C	0.159196	0.571491	0.735014
C58	C	-0.471221	-0.094636	0.000110
C59	C	-0.137888	0.238697	0.333443
C60	C	0.195445	0.572030	0.666777
C61	C	-0.507423	-0.095176	-0.068141
C62	C	-0.174089	0.238157	0.265192
C63	C	0.159244	0.571490	0.598526
C64	C	-0.579867	-0.096245	-0.068148
C65	C	-0.246534	0.237088	0.265185
C66	C	0.086799	0.570421	0.598518
C67	C	-0.361886	-0.052256	-0.052164
C68	C	-0.028552	0.281077	0.281169
C69	C	0.304781	0.614410	0.614502
C70	C	-0.289443	-0.051183	-0.052155
C71	C	0.043890	0.282150	0.281179
C72	C	0.377224	0.615484	0.614512
C73	C	-0.247778	-0.091342	0.000129
C74	C	0.085556	0.241991	0.333462
C75	C	0.418889	0.575325	0.666796
C76	C	-0.278565	-0.132566	0.052416
C77	C	0.054768	0.200767	0.385749
C78	C	0.388102	0.534101	0.719082
C79	C	-0.351010	-0.133635	0.052408
C80	C	-0.017676	0.199698	0.385742
C81	C	0.315657	0.533032	0.719075
C82	C	-0.392667	-0.093477	0.000110
C83	C	-0.059334	0.239856	0.333443
C84	C	0.273999	0.573189	0.666777
C85	C	-0.133029	-0.089655	0.068386
C86	C	0.200304	0.243678	0.401719
C87	C	0.533638	0.577011	0.735052
C88	C	-0.060580	-0.088598	0.068392
C89	C	0.272753	0.244736	0.401725
C90	C	0.606087	0.578069	0.735059
C91	C	-0.060535	-0.088591	-0.068098
C92	C	0.272798	0.244742	0.265235
C93	C	0.606132	0.578076	0.598569
C94	C	-0.132982	-0.089656	-0.068102
C95	C	0.200352	0.243678	0.265231
C96	C	0.533685	0.577011	0.598564
C97	C	-0.169225	-0.090185	0.000142
C98	C	0.164109	0.243149	0.333475
C99	C	0.497442	0.576482	0.666808
C100	C	-0.814755	-0.219424	0.000140
C101	C	-0.481422	0.113909	0.333473
C102	C	-0.148088	0.447243	0.666807
C103	C	-0.815884	-0.296527	0.000152
C104	C	-0.482551	0.036806	0.333485
C105	C	-0.149217	0.370139	0.666818
C106	C	-0.887331	0.156396	0.000103
C107	C	-0.553998	0.489729	0.333436
C108	C	-0.220665	0.823063	0.666769
C109	C	-0.886270	0.228843	0.000114
C110	C	-0.552937	0.562176	0.333448
C111	C	-0.219604	0.895510	0.666781
C112	C	-0.822438	0.256585	0.000107
C113	C	-0.489104	0.589918	0.333440
C114	C	-0.155771	0.923251	0.666774
C115	C	-0.759661	0.211873	0.000107
C116	C	-0.426327	0.545206	0.333441
C117	C	-0.092994	0.878540	0.666774
C118	C	-0.760723	0.139428	0.000103
C119	C	-0.427390	0.472761	0.333436
C120	C	-0.094056	0.806094	0.666770
C121	C	-0.772251	0.364870	-0.043750
C122	C	-0.438918	0.698203	0.289583
C123	C	-0.105584	1.031536	0.622917
C124	C	-0.771191	0.437314	-0.043750
C125	C	-0.437858	0.770647	0.289583
C126	C	-0.104524	1.103981	0.622916
C127	C	-0.819158	0.480030	0.000123
C128	C	-0.485825	0.813363	0.333457
C129	C	-0.152491	1.146697	0.666790
C130	C	-0.868196	0.450295	0.043988
C131	C	-0.534863	0.783628	0.377321
C132	C	-0.201530	1.116961	0.710655
C133	C	-0.869259	0.377849	0.043984
C134	C	-0.535926	0.711182	0.377317
C135	C	-0.202592	1.044516	0.710650
C136	C	-0.821278	0.335139	0.000112
C137	C	-0.487945	0.668472	0.333445
C138	C	-0.154612	1.001805	0.666779
C139	C	-0.880781	0.603288	0.000141
C140	C	-0.547447	0.936621	0.333475
C141	C	-0.214114	1.269955	0.666808
C142	C	-0.879717	0.675736	0.000158
C143	C	-0.546384	1.009069	0.333491
C144	C	-0.213051	1.342403	0.666824
C145	C	-0.753106	0.658764	0.000143
C146	C	-0.419772	0.992098	0.333476
C147	C	-0.086439	1.325431	0.666810
C148	C	-0.754171	0.586318	0.000134
C149	C	-0.420838	0.919651	0.333467
C150	C	-0.087504	1.252985	0.666801
C151	C	-0.818010	0.558584	0.000130
C152	C	-0.484677	0.891918	0.333463
C153	C	-0.151344	1.225251	0.666796
C154	C	-0.867586	-0.045059	-0.217421
C155	C	-0.534253	0.288274	0.115912
C156	C	-0.200919	0.621608	0.449245
C157	C	-0.867590	-0.045056	-0.296223
C158	C	-0.534257	0.288278	0.037110
C159	C	-0.200923	0.621611	0.370444
C160	C	-0.820216	-0.092414	-0.335634
C161	C	-0.486883	0.240919	-0.002301
C162	C	-0.153550	0.574253	0.331033
C163	C	-0.772823	-0.139767	-0.296237
C164	C	-0.439490	0.193566	0.037096
C165	C	-0.106157	0.526900	0.370430
C166	C	-0.772816	-0.139764	-0.217437
C167	C	-0.439483	0.193569	0.115897
C168	C	-0.106149	0.526902	0.449230
C169	C	-0.810917	-0.155703	-0.460464
C170	C	-0.477584	0.177631	-0.127131
C171	C	-0.144251	0.510964	0.206203
C172	C	-0.810930	-0.155706	-0.539263
C173	C	-0.477596	0.177627	-0.205929
C174	C	-0.144263	0.510960	0.127404
C175	C	-0.820235	-0.092422	-0.578680
C176	C	-0.486901	0.240911	-0.245347
C177	C	-0.153568	0.574244	0.087986
C178	C	-0.829543	-0.029132	-0.539290
C179	C	-0.496209	0.304201	-0.205956
C180	C	-0.162876	0.637535	0.127377
C181	C	-0.829535	-0.029129	-0.460489
C182	C	-0.496202	0.304204	-0.127156
C183	C	-0.162869	0.637537	0.206177
C184	C	-0.820219	-0.092422	-0.421080
C185	C	-0.486885	0.240911	-0.087746
C186	C	-0.153552	0.574245	0.245587
C187	C	-0.867626	-0.045065	-0.703514
C188	C	-0.534293	0.288268	-0.370181
C189	C	-0.200959	0.621601	-0.036847
C190	C	-0.867625	-0.045061	-0.782317
C191	C	-0.534292	0.288272	-0.448984
C192	C	-0.200959	0.621605	-0.115651
C193	C	-0.772862	-0.139779	-0.782330
C194	C	-0.439528	0.193555	-0.448996
C195	C	-0.106195	0.526888	-0.115663
C196	C	-0.772859	-0.139777	-0.703528
C197	C	-0.439526	0.193556	-0.370195
C198	C	-0.106193	0.526890	-0.036861
C199	C	-0.820245	-0.092421	-0.664125
C200	C	-0.486912	0.240912	-0.330791
C201	C	-0.153578	0.574246	0.002542
N202	N	-0.820250	-0.092419	0.178277
N203	N	-0.486917	0.240914	0.511610
N204	N	-0.153584	0.574247	0.844944
H205	H	-0.609422	-0.096669	0.123907
H206	H	-0.276088	0.236664	0.457241
H207	H	0.057245	0.569998	0.790574
H208	H	-0.477996	-0.094741	0.123920
H209	H	-0.144662	0.238593	0.457253
H210	H	0.188671	0.571926	0.790586
H211	H	-0.837120	0.022400	-0.571382
H212	H	-0.503786	0.355733	-0.238048
H213	H	-0.170453	0.689066	0.095285
H214	H	-0.701132	0.681351	0.000141
H215	H	-0.367798	1.014684	0.333474
H216	H	-0.034465	1.348017	0.666807
H217	H	-0.906168	-0.006498	-0.185341
H218	H	-0.572835	0.326836	0.147992
H219	H	-0.239502	0.660169	0.481325
H220	H	-0.703058	0.549920	0.000127
H221	H	-0.369724	0.883254	0.333460
H222	H	-0.036391	1.216587	0.666793
Br223	Br	-0.392791	-0.189580	0.123362
Br224	Br	-0.059458	0.143753	0.456696
Br225	Br	0.273876	0.477087	0.790029
Br226	Br	-0.708552	-0.204042	-0.650067
Br227	Br	-0.375218	0.129291	-0.316734
Br228	Br	-0.041885	0.462625	0.016600
Br229	Br	-0.418425	0.002248	-0.123130
Br230	Br	-0.085091	0.335581	0.210203
Br231	Br	0.248242	0.668914	0.543536
H232	H	-0.907256	0.485073	0.079715
H233	H	-0.573922	0.818406	0.413048
H234	H	-0.240589	1.151740	0.746381
H235	H	-0.734250	-0.178326	-0.328329
H236	H	-0.400916	0.155007	0.005004
H237	H	-0.067583	0.488341	0.338337
Br238	Br	-0.458229	-0.094451	-0.160749
Br239	Br	-0.124896	0.238882	0.172584
Br240	Br	0.208438	0.572215	0.505917
Br241	Br	-0.222028	-0.187074	0.123376
Br242	Br	0.111305	0.146260	0.456709
Br243	Br	0.444639	0.479593	0.790043
Br244	Br	-0.182220	-0.090378	0.161000
Br245	Br	0.151114	0.242955	0.494333
Br246	Br	0.484447	0.576288	0.827667
H247	H	-0.930833	0.712132	0.000165
H248	H	-0.597500	1.045466	0.333499
H249	H	-0.264167	1.378799	0.666832
H250	H	-0.837112	0.022404	-0.428420
H251	H	-0.503779	0.355737	-0.095087
H252	H	-0.170446	0.689070	0.238246
Br253	Br	-0.704644	0.477663	-0.103285
Br254	Br	-0.371311	0.810996	0.230048
Br255	Br	-0.037978	1.144330	0.563382
Br256	Br	-0.798358	-0.241598	-0.406977
Br257	Br	-0.465024	0.091736	-0.073643
Br258	Br	-0.131691	0.425069	0.259690
Br259	Br	-0.935804	0.337494	0.103515
Br260	Br	-0.602471	0.670828	0.436848
Br261	Br	-0.269138	1.004161	0.770181
H262	H	-0.031112	-0.088165	0.123965
H263	H	0.302221	0.245168	0.457299
H264	H	0.635554	0.578501	0.790632
Br265	Br	-0.798305	-0.241598	-0.592714
Br266	Br	-0.464972	0.091735	-0.259380
Br267	Br	-0.131639	0.425068	0.073953
H268	H	-0.932763	0.580706	0.000141
H269	H	-0.599429	0.914039	0.333475
H270	H	-0.266096	1.247373	0.666808
H271	H	-0.733189	0.330095	-0.079481
H272	H	-0.399855	0.663428	0.253852
H273	H	-0.066522	0.996762	0.587185
H274	H	-0.937386	0.265246	0.000121
H275	H	-0.604053	0.598580	0.333454
H276	H	-0.270719	0.931913	0.666787
Br277	Br	-0.931932	0.019205	-0.650036
Br278	Br	-0.598599	0.352538	-0.316703
Br279	Br	-0.265265	0.685871	0.016630
H280	H	-0.707687	0.234465	0.000103
H281	H	-0.374354	0.567798	0.333436
H282	H	-0.041021	0.901132	0.666769
Br283	Br	-0.708503	-0.204029	-0.163977
Br284	Br	-0.375170	0.129305	0.169356
Br285	Br	-0.041837	0.462638	0.502690
H286	H	-0.709608	0.103030	0.000099
H287	H	-0.376274	0.436364	0.333433
H288	H	-0.042941	0.769697	0.666766
H289	H	-0.031021	-0.088156	-0.123658
H290	H	0.302312	0.245178	0.209675
H291	H	0.635645	0.578511	0.543009
Br292	Br	-0.931902	0.019211	-0.349687
Br293	Br	-0.598568	0.352544	-0.016354
Br294	Br	-0.265235	0.685877	0.316979
Br295	Br	-0.931931	0.019210	-0.835776
Br296	Br	-0.598598	0.352543	-0.502443
Br297	Br	-0.265265	0.685876	-0.169110
H298	H	-0.609335	-0.096683	-0.123721
H299	H	-0.276002	0.236651	0.209612
H300	H	0.057331	0.569984	0.542946
Br301	Br	-0.182105	-0.090381	-0.160722
Br302	Br	0.151228	0.242952	0.172611
Br303	Br	0.484562	0.576285	0.505945
Br304	Br	-0.247665	0.004745	-0.123128
Br305	Br	0.085668	0.338079	0.210205
Br306	Br	0.419002	0.671412	0.543538
H307	H	-0.734287	-0.178336	-0.814418
H308	H	-0.400953	0.154997	-0.481084
H309	H	-0.067620	0.488331	-0.147751
H310	H	-0.939314	0.133820	0.000102
H311	H	-0.605981	0.467154	0.333435
H312	H	-0.272647	0.800487	0.666768
