data_functionalizedCrystal
_audit_creation_method	'MofGen! by Chris Wilmer'
_symmetry_space_group_name_H-M	'P1'
_symmetry_Int_Tables_number	1
_symmetry_cell_setting	triclinic
loop_
_symmetry_equiv_pos_as_xyz
  x,y,z
_cell_length_a	6.817900
_cell_length_b	14.858565
_cell_length_c	16.305550
_cell_angle_alpha	95.065908
_cell_angle_beta	103.455250
_cell_angle_gamma	104.523916
loop_
_atom_site_label
_atom_site_type_symbol
_atom_site_fract_x
_atom_site_fract_y
_atom_site_fract_z
V1	V	-4.031556	-0.129456	-0.263268
O2	O	-4.013619	0.005413	-0.258014
O3	O	-3.988195	-0.255912	-0.261700
O4	O	-3.982895	-0.127819	-0.377982
O5	O	-4.018955	-0.123567	-0.140928
V6	V	-4.514565	-0.113282	-0.248607
O7	O	-4.293942	-0.164934	-0.295429
O8	O	-4.702376	-0.077803	-0.216446
O9	O	-4.334720	0.013174	-0.250175
O10	O	-4.649899	-0.248151	-0.253860
O11	O	-4.644563	-0.119171	-0.370947
O12	O	-4.340020	-0.114919	-0.133893
C13	C	-3.834429	-0.286728	-0.257607
C14	C	-3.880261	-0.390110	-0.257090
C15	C	-4.048011	-0.768675	-0.255208
C16	C	-4.001329	-0.663347	-0.255731
C17	C	-3.964137	-0.579396	-0.256148
C18	C	-3.917454	-0.474061	-0.256673
C19	C	-3.827668	-0.123331	-0.405935
C20	C	-3.869199	-0.122830	-0.499716
C21	C	-4.020207	-0.120886	-0.840458
C22	C	-3.783922	-0.115115	-0.799519
C23	C	-3.740766	-0.116022	-0.702026
C24	C	-3.945289	-0.121850	-0.671412
C25	C	-4.116090	-0.213696	-0.722206
C26	C	-4.157932	-0.213177	-0.819755
C27	C	-4.071461	-0.035544	-0.794459
C28	C	-4.023502	-0.034817	-0.696615
C29	C	-3.902961	-0.122398	-0.575875
C30	C	-4.062543	-0.120344	-0.935996
C31	C	-4.151827	0.043986	-0.254265
C32	C	-4.085234	0.147367	-0.254788
C33	C	-4.158588	-0.119409	-0.105935
C34	C	-4.096296	-0.119906	-0.012154
H35	H	-3.611559	-0.049985	-0.666881
H36	H	-3.741347	-0.176430	-0.831143
C37	C	-4.044795	-0.301003	-0.699662
C38	C	-4.001060	-0.320028	-0.606756
C39	C	-3.929751	-0.407332	-0.584213
C40	C	-3.902177	-0.475610	-0.654575
C41	C	-3.945912	-0.456587	-0.747488
C42	C	-4.017221	-0.369283	-0.770031
H43	H	-4.021472	-0.269483	-0.554664
H44	H	-3.897376	-0.421414	-0.515433
H45	H	-3.849390	-0.540238	-0.637888
H46	H	-3.925500	-0.507133	-0.799580
H47	H	-4.049596	-0.355202	-0.838811
C48	C	-3.944088	0.058474	-0.812322
C49	C	-3.791902	0.058953	-0.868920
C50	C	-3.664490	0.152966	-0.886776
C51	C	-3.689264	0.246500	-0.848035
C52	C	-3.841457	0.246023	-0.791433
C53	C	-3.968869	0.152011	-0.773577
H54	H	-3.773557	-0.010288	-0.897602
H55	H	-3.551827	0.153318	-0.928677
H56	H	-3.594946	0.316094	-0.861253
H57	H	-3.859802	0.315265	-0.762751
H58	H	-4.081533	0.151659	-0.731676
H59	H	-3.675062	-0.048766	-0.811761
H60	H	-3.899668	0.033118	-0.662112
H61	H	-4.170743	-0.033674	-0.675265
H62	H	-3.676884	-0.178044	-0.685845
C63	C	-4.112675	-0.300451	-0.860961
C64	C	-4.237038	-0.399710	-0.852823
C65	C	-4.191773	-0.486986	-0.894023
C66	C	-4.022145	-0.475004	-0.943361
C67	C	-3.897771	-0.375742	-0.951501
C68	C	-3.943036	-0.288465	-0.910301
H69	H	-4.362616	-0.408584	-0.816298
H70	H	-4.283843	-0.560467	-0.887997
H71	H	-3.988637	-0.539612	-0.973860
H72	H	-3.772193	-0.366868	-0.988026
H73	H	-3.850966	-0.214984	-0.916328
H74	H	-4.332098	-0.221232	-0.847761
H75	H	-4.269557	-0.221282	-0.703307
H76	H	-4.243666	-0.038955	-0.821281
