data_functionalizedCrystal
_audit_creation_method	'MofGen! by Chris Wilmer'
_symmetry_space_group_name_H-M	'P1'
_symmetry_Int_Tables_number	1
_symmetry_cell_setting	triclinic
loop_
_symmetry_equiv_pos_as_xyz
  x,y,z
_cell_length_a	17.038272
_cell_length_b	15.944551
_cell_length_c	14.421503
_cell_angle_alpha	89.988176
_cell_angle_beta	90.004327
_cell_angle_gamma	87.305147
loop_
_atom_site_label
_atom_site_type_symbol
_atom_site_fract_x
_atom_site_fract_y
_atom_site_fract_z
O1	O	0.100827	1.121728	-0.077203
O2	O	0.113259	0.878066	-0.077186
O3	O	-0.006773	0.998449	-0.077187
O4	O	0.220859	1.001345	-0.077202
O5	O	-0.006755	0.998429	0.077036
O6	O	0.113277	0.878046	0.077038
O7	O	0.100845	1.121708	0.077020
Cu8	Cu	0.107062	0.999875	0.091111
Cu9	Cu	0.107041	0.999899	-0.091276
O10	O	0.220877	1.001325	0.077022
C11	C	-0.035893	0.995805	-0.000075
C12	C	-0.122688	0.987945	-0.000075
C13	C	0.101352	1.153049	-0.000096
C14	C	0.102899	1.246405	-0.000109
C15	C	0.112752	0.846725	-0.000072
C16	C	0.111205	0.753369	-0.000065
C17	C	-0.172781	1.060103	-0.000079
C18	C	-0.254334	1.052713	-0.000087
C19	C	-0.285792	0.973165	-0.000085
C20	C	-0.235693	0.901002	-0.000083
C21	C	-0.154142	0.908393	-0.000082
C22	C	-0.531558	0.947056	-0.000096
C23	C	-0.613115	0.939671	-0.000094
C24	C	-0.631751	1.091383	-0.000100
C25	C	-0.550197	1.098766	-0.000093
C26	C	-0.500105	1.026603	-0.000097
C27	C	-0.369152	0.965610	-0.000090
C28	C	-0.416747	1.034159	-0.000098
C29	C	0.249997	1.003970	-0.000092
C30	C	0.336792	1.011829	-0.000099
N31	N	0.107077	0.999865	0.219392
C32	C	0.180999	1.466838	-0.000093
C33	C	0.144723	1.525279	-0.076130
C34	C	0.105698	1.417331	-0.000096
C35	C	0.144723	1.525236	0.075922
C36	C	0.108408	1.582437	-0.000079
C37	C	0.069402	1.474542	-0.076196
C38	C	0.069412	1.474493	0.075925
C39	C	0.033082	1.532912	-0.000131
C40	C	0.104140	1.322218	-0.000106
C41	C	0.109961	1.677549	-0.000075
N42	N	0.107021	0.999916	-0.219558
C43	C	0.162555	0.944187	0.469046
C44	C	0.177734	1.021171	0.530842
C45	C	0.107058	0.999884	0.408553
C46	C	0.091897	0.922921	0.530851
C47	C	0.107042	0.999895	0.591275
C48	C	0.122272	1.076908	0.468989
C49	C	0.036405	0.978606	0.468992
C50	C	0.051554	1.055642	0.530760
C51	C	0.107069	0.999876	0.303292
C52	C	0.107030	0.999912	0.696534
H53	H	-0.295117	1.111472	-0.000089
O54	O	0.076503	0.845333	0.563378
C55	C	-0.010057	0.762430	0.653821
C56	C	0.007286	0.850347	0.617069
H57	H	-0.066027	0.766452	0.697221
H58	H	0.041125	0.737608	0.698503
H59	H	-0.018132	0.718128	0.592881
H60	H	0.015346	0.894713	0.677951
H61	H	-0.043904	0.875100	0.572359
O62	O	-0.519682	1.176060	-0.000260
C63	C	-0.510709	1.308024	-0.080126
C64	C	-0.545302	1.220507	-0.080071
H65	H	-0.531422	1.343991	-0.144637
H66	H	-0.443814	1.300967	-0.080180
H67	H	-0.531327	1.343929	-0.015555
H68	H	-0.524744	1.184555	-0.144631
H69	H	-0.612193	1.227624	-0.079969
O70	O	-0.142356	1.137441	-0.000125
C71	C	-0.169456	1.287137	-0.000089
C72	C	-0.204014	1.199602	-0.000053
H73	H	-0.219290	1.337417	-0.000011
H74	H	-0.131775	1.294451	-0.064647
H75	H	-0.131711	1.294341	0.064437
H76	H	-0.241794	1.192337	-0.064536
H77	H	-0.241650	1.192326	0.064548
O78	O	-0.680442	1.161452	-0.000270
C79	C	-0.783368	1.241141	-0.080154
C80	C	-0.728257	1.161759	-0.080083
H81	H	-0.822051	1.241406	-0.144666
H82	H	-0.746914	1.299294	-0.080217
H83	H	-0.821976	1.241460	-0.015584
H84	H	-0.689638	1.161358	-0.144642
H85	H	-0.764757	1.103641	-0.079971
H86	H	-0.023318	0.960576	0.441804
H87	H	-0.638725	0.874891	-0.000077
H88	H	-0.490782	0.888296	-0.000098
H89	H	0.176566	1.547676	-0.140416
O90	O	0.031484	1.447859	-0.152948
C91	C	-0.012551	1.329388	-0.239035
C92	C	0.030419	1.359493	-0.152086
H93	H	-0.013440	1.257943	-0.238357
H94	H	0.019326	1.350687	-0.303790
H95	H	-0.075405	1.357262	-0.239297
H96	H	0.093274	1.331633	-0.151734
H97	H	-0.001518	1.338205	-0.087370
O98	O	0.137528	1.154626	0.436736
C99	C	0.096760	1.301347	0.432322
C100	C	0.079370	1.213388	0.468912
H101	H	0.049759	1.348884	0.458338
H102	H	0.096627	1.300728	0.353274
H103	H	0.156811	1.319556	0.458321
H104	H	0.019318	1.195125	0.442982
H105	H	0.079555	1.214055	0.547958
O106	O	-0.004541	1.111846	0.562779
C107	C	-0.142259	1.153694	0.566321
C108	C	-0.078813	1.089993	0.529977
H109	H	-0.202324	1.136038	0.539831
H110	H	-0.129259	1.219259	0.540736
H111	H	-0.142164	1.152912	0.645366
H112	H	-0.078874	1.090699	0.450934
H113	H	-0.091836	1.024457	0.555632
H114	H	0.037598	1.452080	0.140216
H115	H	-0.391130	1.098927	-0.000120
H116	H	-0.261313	0.836233	-0.000087
H117	H	-0.113356	0.849634	-0.000078
O118	O	-0.399582	0.888275	-0.000125
C119	C	-0.372502	0.738576	-0.000056
C120	C	-0.337933	0.826105	-0.000034
H121	H	-0.322676	0.688288	0.000037
H122	H	-0.410189	0.731281	-0.064617
H123	H	-0.410245	0.731364	0.064468
H124	H	-0.300155	0.833377	-0.064514
H125	H	-0.300291	0.833360	0.064569
O126	O	0.255575	1.432457	-0.000349
C127	C	0.379497	1.419304	-0.080785
C128	C	0.295059	1.458282	-0.080615
H129	H	0.411450	1.440183	-0.145663
H130	H	0.377669	1.347924	-0.080184
H131	H	0.411901	1.440997	-0.016586
H132	H	0.262607	1.436655	-0.144803
H133	H	0.296944	1.529657	-0.081167
H134	H	0.209524	0.897141	0.441949
O135	O	-0.041510	1.567246	-0.000294
C136	C	-0.137571	1.656606	-0.079898
C137	C	-0.053073	1.617794	-0.079810
H138	H	-0.146951	1.697468	-0.144189
H139	H	-0.147356	1.696685	-0.015100
H140	H	-0.180984	1.604340	-0.080495
H141	H	-0.009607	1.670005	-0.079246
H142	H	-0.043354	1.577694	-0.144603
O143	O	0.182844	1.551795	0.152587
C144	C	0.303921	1.548195	0.239166
C145	C	0.260832	1.518044	0.152323
H146	H	0.366988	1.520935	0.238971
H147	H	0.272499	1.526351	0.304002
H148	H	0.304187	1.619680	0.238784
H149	H	0.260555	1.446563	0.152615
H150	H	0.292268	1.539951	0.087526
H151	H	0.237476	1.039179	0.558009
