data_functionalizedCrystal
_audit_creation_method	'MofGen! by Chris Wilmer'
_symmetry_space_group_name_H-M	'P1'
_symmetry_Int_Tables_number	1
_symmetry_cell_setting	triclinic
loop_
_symmetry_equiv_pos_as_xyz
  x,y,z
_cell_length_a	17.077404
_cell_length_b	16.625546
_cell_length_c	17.077396
_cell_angle_alpha	89.969785
_cell_angle_beta	89.980499
_cell_angle_gamma	90.022693
loop_
_atom_site_label
_atom_site_type_symbol
_atom_site_fract_x
_atom_site_fract_y
_atom_site_fract_z
Zn1	Zn	1.200057	-0.320997	-0.443833
Zn2	Zn	1.199965	-0.455839	-0.312563
Zn3	Zn	1.068789	-0.321025	-0.312581
Zn4	Zn	1.068758	-0.455792	-0.443787
O5	O	1.134392	-0.388413	-0.378191
O6	O	1.309892	-0.338892	-0.426432
O7	O	1.182539	-0.437988	-0.202719
O8	O	1.086253	-0.208189	-0.330019
O9	O	1.309824	-0.437960	-0.329988
O10	O	1.182695	-0.208168	-0.426449
O11	O	1.086164	-0.338940	-0.202732
O12	O	0.958938	-0.338894	-0.329974
O13	O	1.086200	-0.437879	-0.553640
O14	O	0.958915	-0.437906	-0.426370
O15	O	1.182665	-0.338846	-0.553674
O16	O	1.182509	-0.568666	-0.329943
O17	O	1.086111	-0.568630	-0.426353
C18	C	0.930444	-0.388399	-0.378169
C19	C	0.843194	-0.388412	-0.378179
C20	C	0.802213	-0.440045	-0.428292
C21	C	0.720232	-0.440047	-0.428304
C22	C	0.679235	-0.388419	-0.378199
C23	C	0.720222	-0.336780	-0.328084
C24	C	0.802201	-0.336774	-0.328076
C25	C	0.549352	-0.336795	-0.328103
C26	C	0.467368	-0.336801	-0.328110
C27	C	0.467383	-0.440068	-0.428331
C28	C	0.549362	-0.440063	-0.428323
C29	C	0.590344	-0.388425	-0.378207
C30	C	1.134318	-0.597904	-0.378158
C31	C	1.134358	-0.687525	-0.378170
C32	C	1.134495	-1.015701	-0.378252
C33	C	1.134454	-0.924392	-0.378232
C34	C	1.134426	-0.851616	-0.378211
C35	C	1.134386	-0.760302	-0.378191
C36	C	1.339136	-0.388428	-0.378213
C37	C	1.426386	-0.388435	-0.378223
C38	C	1.134440	-0.388354	-0.582936
C39	C	1.134460	-0.388329	-0.670185
C40	C	1.134488	-0.178104	-0.378241
C41	C	1.134529	-0.088483	-0.378263
C42	C	1.184691	-0.336758	-0.711195
C43	C	1.184700	-0.336731	-0.793175
C44	C	1.134482	-0.388280	-0.834145
C45	C	1.084245	-0.439853	-0.793130
C46	C	1.084233	-0.439875	-0.711151
C47	C	1.084277	-0.439804	-0.964000
C48	C	1.084291	-0.439783	-1.045985
C49	C	1.184745	-0.336660	-1.046024
C50	C	1.184732	-0.336682	-0.964045
C51	C	1.134496	-0.388257	-0.923036
C52	C	1.134390	-0.388414	-0.174243
C53	C	1.134522	-0.388212	-0.086994
H54	H	0.835567	-0.294725	-0.287273
H55	H	1.225587	-0.294783	-0.677843
H56	H	1.225605	-0.294739	-0.826561
H57	H	0.434012	-0.482112	-0.469140
H58	H	0.582740	-0.482108	-0.469119
H59	H	1.225647	-0.294665	-1.079418
H60	H	1.225629	-0.294711	-0.930690
C61	C	1.029679	-0.495776	-1.090327
C62	C	0.985662	-0.540928	-1.036869
C63	C	0.935338	-0.592510	-1.077688
H64	H	1.059606	-0.530975	-1.122305
H65	H	0.995459	-0.464933	-1.122293
H66	H	1.019877	-0.571769	-1.004916
H67	H	0.955718	-0.505750	-1.004889
H68	H	0.901118	-0.561667	-1.109654
H69	H	0.965272	-0.627703	-1.109665
H70	H	0.905461	-0.623146	-1.041423
C71	C	1.029871	-0.495848	-0.919366
C72	C	1.074298	-0.547521	-0.872285
C73	C	1.024214	-0.599153	-0.831145
H74	H	0.999945	-0.526630	-0.955409
H75	H	0.995691	-0.465033	-0.887339
H76	H	1.108464	-0.578332	-0.904309
H77	H	1.104222	-0.516761	-0.836227
H78	H	0.990034	-0.568339	-0.799118
H79	H	0.994291	-0.629930	-0.867194
H80	H	1.054350	-0.634215	-0.799190
C81	C	1.029804	-0.496009	-0.666659
C82	C	1.046884	-0.575781	-0.686567
C83	C	0.996768	-0.627515	-0.645588
H84	H	0.977038	-0.484315	-0.680048
H85	H	1.037000	-0.488691	-0.611962
H86	H	1.039681	-0.583095	-0.741252
H87	H	1.099641	-0.587500	-0.673177
H88	H	1.003963	-0.620197	-0.590890
H89	H	0.944005	-0.615814	-0.658980
H90	H	1.008354	-0.681646	-0.659084
H91	H	0.835587	-0.482090	-0.469091
C92	C	0.422769	-0.280668	-0.273859
C93	C	0.375743	-0.229074	-0.318428
C94	C	0.334647	-0.177347	-0.268486
H95	H	0.458838	-0.249833	-0.244010
H96	H	0.390709	-0.311417	-0.239601
H97	H	0.407800	-0.198328	-0.352672
H98	H	0.339659	-0.259887	-0.348275
H99	H	0.302587	-0.208096	-0.234228
H100	H	0.370722	-0.146517	-0.238640
H101	H	0.302729	-0.142339	-0.298719
H102	H	0.686869	-0.482093	-0.469111
H103	H	1.043354	-0.481822	-0.826494
C104	C	0.593707	-0.280707	-0.273598
C105	C	0.540259	-0.235514	-0.229700
C106	C	0.581089	-0.183853	-0.179471
H107	H	0.625718	-0.245538	-0.303589
H108	H	0.625641	-0.311495	-0.239300
H109	H	0.508338	-0.204728	-0.263994
H110	H	0.508245	-0.270661	-0.199693
H111	H	0.613023	-0.214640	-0.145173
H112	H	0.613100	-0.148689	-0.209469
H113	H	0.544831	-0.153188	-0.149675
H114	H	0.686836	-0.294739	-0.287291
