data_functionalizedCrystal
_audit_creation_method	'MofGen! by Chris Wilmer'
_symmetry_space_group_name_H-M	'P1'
_symmetry_Int_Tables_number	1
_symmetry_cell_setting	triclinic
loop_
_symmetry_equiv_pos_as_xyz
  x,y,z
_cell_length_a	15.944499
_cell_length_b	15.944493
_cell_length_c	7.540329
_cell_angle_alpha	90.002283
_cell_angle_beta	89.994450
_cell_angle_gamma	83.476327
loop_
_atom_site_label
_atom_site_type_symbol
_atom_site_fract_x
_atom_site_fract_y
_atom_site_fract_z
O1	O	1.114527	0.108127	-0.147565
O2	O	0.869969	0.121529	-0.147543
O3	O	0.998952	-0.007451	-0.147569
O4	O	0.985544	0.237107	-0.147539
O5	O	0.998944	-0.007453	0.147396
O6	O	0.869961	0.121527	0.147422
O7	O	1.114519	0.108125	0.147400
Cu8	Cu	0.992239	0.114826	0.174344
Cu9	Cu	0.992248	0.114828	-0.174487
O10	O	0.985536	0.237106	0.147426
C11	C	0.838670	0.120979	-0.000058
C12	C	0.745422	0.119334	-0.000050
C13	C	0.453871	0.194269	-0.000067
C14	C	0.514912	0.155317	-0.145508
C15	C	0.409787	0.113358	-0.000092
C16	C	0.514890	0.155293	0.145304
C17	C	0.574695	0.116299	-0.000068
C18	C	0.469600	0.074384	-0.145653
C19	C	0.469572	0.074372	0.145290
C20	C	0.530595	0.035361	-0.000187
C21	C	0.314787	0.111666	-0.000107
C22	C	0.669694	0.117984	-0.000066
C23	C	0.998400	-0.038747	-0.000094
C24	C	0.996757	-0.131995	-0.000117
C25	C	1.072679	-0.367769	-0.000090
C26	C	1.031741	-0.418329	-0.145519
C27	C	0.993713	-0.302716	-0.000095
C28	C	1.031715	-0.418307	0.145294
C29	C	0.990778	-0.467625	-0.000066
C30	C	0.952796	-0.352047	-0.145643
C31	C	0.952781	-0.352021	0.145300
C32	C	0.911785	-0.402548	-0.000164
C33	C	0.995405	-0.207716	-0.000113
C34	C	0.989079	-0.562622	-0.000060
C35	C	1.145818	0.108675	-0.000089
C36	C	1.239066	0.110320	-0.000108
C37	C	0.986088	0.268401	-0.000052
C38	C	0.987731	0.361650	-0.000042
N39	N	0.992239	0.114824	0.419692
N40	N	0.992255	0.114823	-0.419835
H41	H	0.534955	0.189528	0.268259
H42	H	1.065077	-0.447244	0.268235
H43	H	1.140699	-0.352153	-0.000243
Br44	Br	0.436326	0.017386	-0.350813
H45	H	0.535006	0.189542	-0.268452
H46	H	0.449459	0.040177	0.268244
Br47	Br	0.897258	-0.303718	0.350247
H48	H	0.563787	-0.031847	-0.000273
H49	H	0.843713	-0.418002	-0.000237
H50	H	0.919469	-0.323221	-0.268723
Br51	Br	0.398292	0.306183	-0.000276
Br52	Br	1.087326	-0.466585	-0.350455
