data_functionalizedCrystal
_audit_creation_method	'MofGen! by Chris Wilmer'
_symmetry_space_group_name_H-M	'P1'
_symmetry_Int_Tables_number	1
_symmetry_cell_setting	triclinic
loop_
_symmetry_equiv_pos_as_xyz
  x,y,z
_cell_length_a	19.121321
_cell_length_b	21.295418
_cell_length_c	19.120904
_cell_angle_alpha	87.589843
_cell_angle_beta	85.036248
_cell_angle_gamma	87.592065
loop_
_atom_site_label
_atom_site_type_symbol
_atom_site_fract_x
_atom_site_fract_y
_atom_site_fract_z
Zn1	Zn	1.058635	-0.304489	0.351904
Zn2	Zn	1.558635	0.195511	0.851904
Zn3	Zn	1.063568	-0.405448	0.234241
Zn4	Zn	1.563568	0.094552	0.734241
Zn5	Zn	0.946000	-0.295901	0.239279
Zn6	Zn	1.446000	0.204099	0.739279
Zn7	Zn	0.940939	-0.405422	0.356885
Zn8	Zn	1.440939	0.094578	0.856885
O9	O	1.002286	-0.352815	0.295577
O10	O	1.502286	0.147185	0.795577
O11	O	1.157749	-0.321486	0.332103
O12	O	1.657749	0.178514	0.832103
O13	O	1.052155	-0.387333	0.136448
O14	O	1.552155	0.112667	0.636448
O15	O	0.960995	-0.208954	0.254243
O16	O	1.460995	0.291046	0.754243
O17	O	1.161373	-0.395660	0.245656
O18	O	1.661373	0.104340	0.745656
O19	O	1.043747	-0.215264	0.336988
O20	O	1.543747	0.284736	0.836988
O21	O	0.965778	-0.306849	0.140150
O22	O	1.465778	0.193151	0.640150
O23	O	0.846870	-0.306824	0.259072
O24	O	1.346870	0.193176	0.759072
O25	O	0.952369	-0.395617	0.454685
O26	O	1.452369	0.104383	0.954685
O27	O	0.843152	-0.387289	0.345477
O28	O	1.343152	0.112711	0.845477
O29	O	1.038840	-0.321462	0.451026
O30	O	1.538840	0.178538	0.951026
O31	O	1.047248	-0.493531	0.250486
O32	O	1.547248	0.006469	0.750486
O33	O	0.957153	-0.493512	0.340592
O34	O	1.457153	0.006488	0.840592
C35	C	0.819481	-0.346122	0.303362
C36	C	1.319481	0.153878	0.803362
C37	C	0.741276	-0.343275	0.306709
C38	C	1.241276	0.156725	0.806709
C39	C	0.298867	-0.325189	0.327934
C40	C	0.798867	0.174811	0.827934
C41	C	0.372349	-0.327876	0.324785
C42	C	0.872349	0.172124	0.824785
C43	C	0.410972	-0.367768	0.278130
C44	C	0.910972	0.132232	0.778130
C45	C	0.376108	-0.404981	0.234626
C46	C	0.876108	0.095019	0.734626
C47	C	0.302627	-0.402297	0.237779
C48	C	0.802627	0.097703	0.737779
C49	C	0.632931	-0.377804	0.266358
C50	C	1.132931	0.122196	0.766358
C51	C	0.706417	-0.380484	0.263207
C52	C	1.206417	0.119516	0.763207
C53	C	0.702654	-0.303379	0.353368
C54	C	1.202654	0.196621	0.853368
C55	C	0.629172	-0.300695	0.356514
C56	C	1.129172	0.199305	0.856514
C57	C	0.594314	-0.337911	0.313012
C58	C	1.094314	0.162089	0.813012
C59	C	0.486082	-0.370514	0.274909
C60	C	0.986082	0.129486	0.774909
C61	C	0.519204	-0.335168	0.316238
C62	C	1.019204	0.164832	0.816238
C63	C	1.002205	-0.516362	0.295547
C64	C	1.502205	-0.016362	0.795547
C65	C	1.002233	-0.586332	0.295555
C66	C	1.502233	-0.086332	0.795555
C67	C	1.049362	-1.085792	0.248765
C68	C	1.549362	-0.585792	0.748765
C69	C	1.049336	-1.020048	0.248750
C70	C	1.549336	-0.520048	0.748750
C71	C	1.002383	-0.987180	0.295622
C72	C	1.502383	-0.487180	0.795622
C73	C	0.955439	-1.020060	0.342501
C74	C	1.455439	-0.520060	0.842501
C75	C	0.955462	-1.085802	0.342511
C76	C	1.455462	-0.585802	0.842511
N77	N	0.994283	-0.885981	0.357425
N78	N	1.494283	-0.385981	0.857425
N79	N	0.994266	-0.823529	0.357414
N80	N	1.494266	-0.323529	0.857414
C81	C	1.002311	-0.789101	0.295596
C82	C	1.502311	-0.289101	0.795596
N83	N	1.010387	-0.819486	0.233788
N84	N	1.510387	-0.319486	0.733788
N85	N	1.010408	-0.881944	0.233799
N86	N	1.510408	-0.381944	0.733799
C87	C	1.002353	-0.915893	0.295617
C88	C	1.502353	-0.415893	0.795617
C89	C	1.049219	-0.684941	0.248699
C90	C	1.549219	-0.184941	0.748699
C91	C	1.049188	-0.619196	0.248683
C92	C	1.549188	-0.119196	0.748683
C93	C	0.955295	-0.619209	0.342441
C94	C	1.455295	-0.119209	0.842441
C95	C	0.955323	-0.684953	0.342451
C96	C	1.455323	-0.184953	0.842451
C97	C	1.002288	-0.717815	0.295581
C98	C	1.502288	-0.217815	0.795581
C99	C	1.185804	-0.359534	0.287762
C100	C	1.685804	0.140466	0.787762
C101	C	1.264008	-0.362397	0.284432
C102	C	1.764008	0.137603	0.784432
C103	C	0.994490	-0.359494	0.479099
C104	C	1.494490	0.140506	0.979099
C105	C	0.991168	-0.362341	0.557305
C106	C	1.491168	0.137659	1.057305
C107	C	1.002385	-0.188630	0.295622
C108	C	1.502385	0.311370	0.795622
C109	C	1.002428	-0.118664	0.295641
C110	C	1.502428	0.381336	0.795641
C111	C	1.010091	-0.346118	0.112768
C112	C	1.510091	0.153882	0.612768
C113	C	1.013550	-0.343099	0.034556
C114	C	1.513550	0.156901	0.534556
C115	C	1.034626	-0.325071	0.592142
C116	C	1.534626	0.174929	1.092142
C117	C	1.031496	-0.327743	0.665625
C118	C	1.531496	0.172257	1.165625
C119	C	0.984911	-0.367688	0.704270
C120	C	1.484911	0.132312	1.204270
C121	C	0.941449	-0.404959	0.669427
C122	C	1.441449	0.095041	1.169427
C123	C	0.944576	-0.402283	0.595946
C124	C	1.444576	0.097717	1.095946
C125	C	0.973214	-0.377695	0.926232
C126	C	1.473214	0.122305	1.426232
C127	C	0.970092	-0.380369	0.999719
C128	C	1.470092	0.119631	1.499719
C129	C	1.060139	-0.303151	0.995912
C130	C	1.560139	0.196849	1.495912
C131	C	1.063264	-0.300482	0.922429
C132	C	1.563264	0.199518	1.422429
C133	C	1.019799	-0.337751	0.887593
C134	C	1.519799	0.162249	1.387593
C135	C	0.981712	-0.370421	0.779381
C136	C	1.481712	0.129579	1.279381
C137	C	1.022995	-0.335014	0.812483
C138	C	1.522995	0.164986	1.312483
H139	H	0.597730	-0.268213	0.394508
H140	H	1.097730	0.231787	0.894508
H141	H	1.087461	-0.711699	0.210534
H142	H	1.587461	-0.211699	0.710534
H143	H	1.101200	-0.267957	0.890969
H144	H	1.601200	0.232043	1.390969
H145	H	0.400728	-0.297578	0.360212
H146	H	0.900728	0.202422	0.860212
H147	H	1.087406	-0.592430	0.210507
H148	H	1.587406	-0.092430	0.710507
H149	H	1.087557	-0.993278	0.210577
H150	H	1.587557	-0.493278	0.710577
H151	H	0.917105	-0.711719	0.380624
H152	H	1.417105	-0.211719	0.880624
H153	H	0.274245	-0.432598	0.202356
H154	H	0.774245	0.067402	0.702356
H155	H	1.095524	-0.272809	1.024283
H156	H	1.595524	0.227191	1.524283
O157	O	1.073735	-0.291629	0.699547
O158	O	1.573735	0.208371	1.199547
C159	C	1.117357	-0.330674	0.740105
C160	C	1.617357	0.169326	1.240105
H161	H	1.092048	-0.377872	0.752151
H162	H	1.592048	0.122128	1.252151
H163	H	1.170704	-0.338465	0.709576
H164	H	1.670704	0.161535	1.209576
C165	C	1.158216	-0.241076	0.794580
C166	C	1.658216	0.258924	1.294580
C167	C	1.127128	-0.299043	0.809381
C168	C	1.627128	0.200957	1.309381
H169	H	1.164247	-0.221564	0.837312
H170	H	1.664247	0.278436	1.337312
H171	H	1.128830	-0.214770	0.767254
H172	H	1.628830	0.285230	1.267254
H173	H	1.202669	-0.247577	0.769138
H174	H	1.702669	0.252423	1.269138
H175	H	1.082673	-0.292541	0.834815
H176	H	1.582673	0.207459	1.334815
H177	H	1.156508	-0.325348	0.836713
H178	H	1.656508	0.174652	1.336713
H179	H	0.932155	-0.412898	1.031182
H180	H	1.432155	0.087102	1.531182
H181	H	0.917062	-0.592449	0.380602
H182	H	1.417062	-0.092449	0.880602
H183	H	0.731043	-0.273081	0.388785
H184	H	1.231043	0.226919	0.888785
H185	H	0.737862	-0.412972	0.225213
H186	H	1.237862	0.087028	0.725213
O187	O	0.930959	-0.413950	0.892509
O188	O	1.430959	0.086050	1.392509
C189	C	0.889157	-0.449763	0.942378
C190	C	1.389157	0.050237	1.442378
H191	H	0.915756	-0.454918	0.993526
H192	H	1.415756	0.045082	1.493526
H193	H	0.835411	-0.425026	0.952485
H194	H	1.335411	0.074974	1.452485
C195	C	0.847495	-0.509003	0.851286
C196	C	1.347495	-0.009003	1.351286
C197	C	0.880168	-0.515340	0.914105
C198	C	1.380168	-0.015340	1.414105
H199	H	0.841948	-0.549453	0.833846
H200	H	1.341948	-0.049453	1.333846
H201	H	0.875656	-0.484874	0.817688
H202	H	1.375656	0.015126	1.317688
H203	H	0.802711	-0.488387	0.859717
H204	H	1.302711	0.011613	1.359717
H205	H	0.924955	-0.535949	0.905672
H206	H	1.424955	-0.035949	1.405672
H207	H	0.852015	-0.539474	0.947702
H208	H	1.352015	-0.039474	1.447702
H209	H	0.604559	-0.408106	0.230934
H210	H	1.104559	0.091894	0.730934
H211	H	0.903516	-0.437481	0.700898
H212	H	1.403516	0.062519	1.200898
H213	H	0.267426	-0.292700	0.365922
H214	H	0.767426	0.207300	0.865922
O215	O	0.902444	-0.438586	0.562126
O216	O	1.402444	0.061414	1.062126
C217	C	0.917012	-0.502539	0.579423
C218	C	1.417012	-0.002539	1.079423
H219	H	0.972357	-0.508505	0.597239
H220	H	1.472357	-0.008505	1.097239
H221	H	0.877462	-0.519169	0.623669
H222	H	1.377462	-0.019169	1.123669
C223	C	0.843615	-0.534543	0.492596
C224	C	1.343615	-0.034543	0.992596
C225	C	0.911593	-0.541872	0.514473
C226	C	1.411593	-0.041872	1.014473
H227	H	0.840269	-0.558807	0.452534
H228	H	1.340269	-0.058807	0.952534
H229	H	0.833798	-0.491458	0.480945
H230	H	1.333798	0.008542	0.980945
H231	H	0.810665	-0.548402	0.529474
H232	H	1.310665	-0.048402	1.029474
H233	H	0.944541	-0.528007	0.477599
H234	H	1.444541	-0.028007	0.977599
H235	H	0.921416	-0.584957	0.526117
H236	H	1.421416	-0.084957	1.026117
H237	H	0.407560	-0.437466	0.196641
H238	H	0.907560	0.062534	0.696641
O239	O	1.079897	-0.286214	0.554714
O240	O	1.579897	0.213786	1.054714
C241	C	1.117593	-0.253903	0.601223
C242	C	1.617593	0.246097	1.101223
H243	H	1.086546	-0.252576	0.654829
H244	H	1.586546	0.247424	1.154829
H245	H	1.170683	-0.279195	0.606760
H246	H	1.670683	0.220805	1.106760
C247	C	1.167127	-0.187864	0.506296
C248	C	1.667127	0.312136	1.006296
C249	C	1.128992	-0.186230	0.572133
C250	C	1.628992	0.313770	1.072133
H251	H	1.174162	-0.146122	0.488351
H252	H	1.674162	0.353878	0.988351
H253	H	1.141733	-0.209634	0.474961
H254	H	1.641733	0.290366	0.974961
H255	H	1.211365	-0.208944	0.510919
H256	H	1.711365	0.291056	1.010919
H257	H	1.084752	-0.165158	0.567508
H258	H	1.584752	0.334842	1.067508
H259	H	1.154379	-0.164455	0.603467
H260	H	1.654379	0.335545	1.103467
H261	H	0.917208	-0.993295	0.380665
H262	H	1.417208	-0.493295	0.880665
H263	H	1.060921	-0.302488	0.781016
H264	H	1.560921	0.197512	1.281016
H265	H	0.487755	-0.302689	0.354227
H266	H	0.987755	0.197311	0.854227
H267	H	0.517537	-0.402993	0.236919
H268	H	1.017537	0.097007	0.736919
O269	O	1.095003	-1.117613	0.203165
O270	O	1.595003	-0.617613	0.703165
C271	C	1.136435	-1.074496	0.161799
C272	C	1.636435	-0.574496	0.661799
H273	H	1.107707	-1.026511	0.160561
H274	H	1.607707	-0.526511	0.660561
H275	H	1.188751	-1.070350	0.185336
H276	H	1.688751	-0.570350	0.685336
C277	C	1.185114	-1.156755	0.088011
C278	C	1.685114	-0.656755	0.588011
C279	C	1.149827	-1.097820	0.086486
C280	C	1.649827	-0.597820	0.586486
H281	H	1.193379	-1.171142	0.041555
H282	H	1.693379	-0.671142	0.541555
H283	H	1.157203	-1.185804	0.115882
H284	H	1.657203	-0.685804	0.615882
H285	H	1.228707	-1.153292	0.107629
H286	H	1.728707	-0.653292	0.607629
H287	H	1.106232	-1.101285	0.066877
H288	H	1.606232	-0.601285	0.566877
H289	H	1.177731	-1.068771	0.058610
H290	H	1.677731	-0.568771	0.558610
H291	H	0.917243	-1.112567	0.380685
H292	H	1.417243	-0.612567	0.880685
H293	H	0.943786	-0.402948	0.810854
H294	H	1.443786	0.097052	1.310854
