data_functionalizedCrystal
_audit_creation_method	'MofGen! by Chris Wilmer'
_symmetry_space_group_name_H-M	'P1'
_symmetry_Int_Tables_number	1
_symmetry_cell_setting	triclinic
loop_
_symmetry_equiv_pos_as_xyz
  x,y,z
_cell_length_a	6.817900
_cell_length_b	8.749629
_cell_length_c	9.108908
_cell_angle_alpha	98.510290
_cell_angle_beta	111.764889
_cell_angle_gamma	105.181975
loop_
_atom_site_label
_atom_site_type_symbol
_atom_site_fract_x
_atom_site_fract_y
_atom_site_fract_z
V1	V	-4.161098	-0.287363	-0.505093
O2	O	-4.138699	-0.057033	-0.497651
O3	O	-4.118770	-0.501658	-0.499550
O4	O	-4.168059	-0.314027	-0.726335
O5	O	-4.089069	-0.245964	-0.269295
V6	V	-4.636766	-0.256140	-0.477144
O7	O	-4.439588	-0.355852	-0.566403
O8	O	-4.808473	-0.187650	-0.415834
O9	O	-4.455887	-0.041844	-0.482688
O10	O	-4.776562	-0.486469	-0.484586
O11	O	-4.826192	-0.297538	-0.712942
O12	O	-4.406598	-0.229475	-0.255902
C13	C	-3.963457	-0.552928	-0.491042
C14	C	-4.010505	-0.728317	-0.487984
C15	C	-4.026328	-0.313583	-0.780328
C16	C	-4.113343	-0.336801	-0.961181
C17	C	-4.274542	0.009418	-0.491190
C18	C	-4.206735	0.184805	-0.494259
C19	C	-4.211670	-0.229923	-0.201901
C20	C	-4.103892	-0.206696	-0.021046
H21	H	-4.338757	-0.755394	-0.501985
O22	O	-3.852792	-0.799408	-0.478843
C23	C	-3.660878	-0.683412	-0.473578
H24	H	-3.710435	-0.583418	-0.529647
H25	H	-3.586501	-0.747543	-0.546348
H26	H	-3.530514	-0.625477	-0.340487
H27	H	-4.029216	-0.077549	-0.933942
O28	O	-4.202798	-0.490872	-1.065174
C29	C	-4.428319	-0.520751	-1.172591
H30	H	-4.497332	-0.436339	-1.114344
H31	H	-4.533048	-0.654604	-1.196617
H32	H	-4.436941	-0.495473	-1.293671
