data_functionalizedCrystal
_audit_creation_method	'MofGen! by Chris Wilmer'
_symmetry_space_group_name_H-M	'P1'
_symmetry_Int_Tables_number	1
_symmetry_cell_setting	triclinic
loop_
_symmetry_equiv_pos_as_xyz
  x,y,z
_cell_length_a	10.723023
_cell_length_b	10.723024
_cell_length_c	14.048226
_cell_angle_alpha	89.994758
_cell_angle_beta	89.993700
_cell_angle_gamma	84.467709
loop_
_atom_site_label
_atom_site_type_symbol
_atom_site_fract_x
_atom_site_fract_y
_atom_site_fract_z
O1	O	1.657192	0.175025	-0.079155
O2	O	2.157192	0.675025	0.420845
O3	O	1.294040	0.191780	-0.079158
O4	O	1.794040	0.691780	0.420842
O5	O	1.483993	0.001826	-0.079153
O6	O	1.983993	0.501826	0.420847
O7	O	1.467239	0.364979	-0.079160
O8	O	1.967239	0.864979	0.420840
O9	O	1.483970	0.001815	0.079168
O10	O	1.983970	0.501815	0.579168
O11	O	1.294017	0.191768	0.079164
O12	O	1.794017	0.691768	0.579164
O13	O	1.657169	0.175014	0.079166
O14	O	2.157169	0.675014	0.579166
Zn15	Zn	1.475589	0.183389	0.104302
Zn16	Zn	1.975589	0.683389	0.604302
Zn17	Zn	1.475620	0.183404	-0.104293
Zn18	Zn	1.975620	0.683404	0.395707
O19	O	1.467216	0.364967	0.079161
O20	O	1.967216	0.864967	0.579161
C21	C	1.247529	0.190555	0.000003
C22	C	1.747529	0.690555	0.500003
C23	C	1.108974	0.186908	0.000002
C24	C	1.608974	0.686908	0.500002
C25	C	0.903994	0.181506	0.082014
C26	C	1.403994	0.681506	0.582014
C27	C	1.047197	0.185276	0.082016
C28	C	1.547197	0.685276	0.582016
C29	C	1.482762	-0.044679	0.000007
C30	C	1.982762	0.455321	0.500007
C31	C	1.479114	-0.183233	0.000003
C32	C	1.979114	0.316767	0.500003
C33	C	1.585402	-0.258216	0.000003
C34	C	2.085402	0.241784	0.500003
C35	C	1.581634	-0.401420	-0.000001
C36	C	2.081634	0.098580	0.499999
C37	C	1.703680	0.176239	0.000003
C38	C	2.203680	0.676239	0.500003
C39	C	1.842235	0.179886	-0.000002
C40	C	2.342235	0.679886	0.499998
C41	C	1.468447	0.411473	-0.000000
C42	C	1.968447	0.911473	0.500000
C43	C	1.472095	0.550027	-0.000003
C44	C	1.972095	1.050027	0.499997
N45	N	1.475578	0.183378	0.246662
N46	N	1.975578	0.683378	0.746662
N47	N	1.475641	0.183405	-0.246654
N48	N	1.975641	0.683405	0.253346
C49	C	1.559716	0.099302	0.296483
C50	C	2.059716	0.599302	0.796483
C51	C	1.559724	0.099301	0.396140
C52	C	2.059724	0.599301	0.896140
C53	C	1.475600	0.183384	0.445976
C54	C	1.975600	0.683384	0.945976
C55	C	1.391452	0.267464	0.396149
C56	C	1.891452	0.767464	0.896149
C57	C	1.391439	0.267458	0.296493
C58	C	1.891439	0.767458	0.796493
C59	C	1.391489	0.267473	0.603863
C60	C	1.891489	0.767473	1.103863
C61	C	1.391503	0.267482	0.703526
C62	C	1.891503	0.767482	1.203526
C63	C	1.559774	0.099317	0.703510
C64	C	2.059774	0.599317	1.203510
C65	C	1.559760	0.099311	0.603854
C66	C	2.059760	0.599311	1.103854
C67	C	1.475614	0.183393	0.554034
C68	C	1.975614	0.683393	1.054034
H69	H	0.895376	0.181297	-0.070216
H70	H	1.395376	0.681297	0.429784
H71	H	1.679188	-0.216394	0.000009
H72	H	2.179188	0.283606	0.500009
H73	H	1.672625	-0.465852	0.000003
H74	H	2.172625	0.034148	0.500003
H75	H	1.628287	0.030855	0.744080
H76	H	2.128287	0.530855	1.244080
H77	H	1.381099	-0.385548	0.000004
H78	H	1.881099	0.114452	0.500004
H79	H	1.100310	0.186663	0.152233
H80	H	1.600310	0.686663	0.652233
H81	H	1.385328	-0.225055	-0.000004
H82	H	1.885328	0.274945	0.499996
H83	H	1.628225	0.030838	0.255913
H84	H	2.128225	0.530838	0.755913
H85	H	0.850851	0.180109	0.152228
H86	H	1.350851	0.680109	0.652228
H87	H	1.628235	0.030840	0.436703
H88	H	2.128235	0.530840	0.936703
H89	H	1.055871	0.185511	-0.070218
H90	H	1.555871	0.685511	0.429782
H91	H	1.322999	0.335949	0.744097
H92	H	1.822999	0.835949	1.244097
H93	H	1.628266	0.030851	0.563278
H94	H	2.128266	0.530851	1.063278
H95	H	1.322964	0.335938	0.563303
H96	H	1.822964	0.835938	1.063303
H97	H	1.322950	0.335921	0.436731
H98	H	1.822950	0.835921	0.936731
H99	H	1.322924	0.335919	0.255930
H100	H	1.822924	0.835919	0.755930
