data_functionalizedCrystal
_audit_creation_method	'MofGen! by Chris Wilmer'
_symmetry_space_group_name_H-M	'P1'
_symmetry_Int_Tables_number	1
_symmetry_cell_setting	triclinic
loop_
_symmetry_equiv_pos_as_xyz
  x,y,z
_cell_length_a	13.339070
_cell_length_b	9.616153
_cell_length_c	13.339070
_cell_angle_alpha	89.995659
_cell_angle_beta	64.370706
_cell_angle_gamma	90.001952
loop_
_atom_site_label
_atom_site_type_symbol
_atom_site_fract_x
_atom_site_fract_y
_atom_site_fract_z
O1	O	1.496804	0.115682	-0.550529
O2	O	1.181995	0.115676	-0.478269
O3	O	1.303269	0.115674	-0.356994
O4	O	1.375529	0.115684	-0.671803
O5	O	1.303259	-0.115617	-0.356980
O6	O	1.181985	-0.115616	-0.478255
O7	O	1.496794	-0.115609	-0.550515
Zn8	Zn	1.339388	-0.152335	-0.514383
Zn9	Zn	1.339401	0.152401	-0.514401
O10	O	1.375519	-0.115608	-0.671790
C11	C	1.140874	0.000029	-0.466056
C12	C	1.018360	0.000027	-0.429672
C13	C	0.732973	0.000057	-0.712571
C14	C	0.848081	0.000064	-0.746759
C15	C	0.890657	0.000054	-0.667490
C16	C	0.818112	0.000039	-0.554028
C17	C	0.702992	0.000043	-0.519837
C18	C	0.860676	0.000040	-0.474756
C19	C	0.788132	0.000024	-0.361294
C20	C	0.673023	0.000027	-0.327109
C21	C	0.630448	0.000037	-0.406377
C22	C	0.975796	0.000036	-0.508947
C23	C	0.945816	0.000021	-0.316213
C24	C	0.830707	0.000014	-0.282025
N25	N	1.339387	-0.360310	-0.514372
C26	C	1.404678	-0.580637	-0.449897
C27	C	1.404344	-0.419470	-0.449492
C28	C	1.217795	-0.418844	-0.457189
C29	C	1.218157	-0.580061	-0.456711
C30	C	1.394771	-0.580180	-0.636069
C31	C	1.397150	-0.418951	-0.636020
C32	C	1.537914	0.000040	-0.562728
C33	C	1.660428	0.000052	-0.599111
C34	C	1.291058	0.000030	-0.315872
C35	C	1.254675	0.000035	-0.193358
N36	N	1.339408	0.360376	-0.514405
C37	C	1.387730	0.000039	-0.712912
C38	C	1.424114	0.000044	-0.835426
C39	C	1.537574	0.000040	0.092030
C40	C	1.571761	0.000027	-0.023079
C41	C	1.492492	0.000030	-0.065654
C42	C	1.379030	0.000044	0.006890
C43	C	1.344839	0.000045	0.122010
C44	C	1.299758	0.000035	-0.035674
C45	C	1.186296	0.000049	0.036871
C46	C	1.152111	0.000051	0.151979
C47	C	1.231380	0.000049	0.194555
C48	C	1.333949	0.000033	-0.150794
C49	C	1.141215	0.000039	-0.120813
C50	C	1.107028	0.000051	-0.005705
H51	H	0.984385	0.000063	-0.695333
C52	C	1.525046	-0.366004	-0.501925
C53	C	1.604175	-0.404922	-0.449835
C54	C	1.724885	-0.351471	-0.502272
C55	C	1.766465	-0.259102	-0.606798
C56	C	1.687334	-0.220180	-0.658894
C57	C	1.566625	-0.273631	-0.606457
H58	H	1.573397	-0.473303	-0.372453
H59	H	1.783462	-0.380285	-0.463706
H60	H	1.855821	-0.219535	-0.645615
H61	H	1.718113	-0.151799	-0.736276
H62	H	1.508048	-0.244817	-0.645023
H63	H	1.034852	0.000043	-0.601328
H64	H	1.494245	-0.619395	-0.488547
H65	H	1.076667	0.000034	-0.155477
H66	H	0.980479	0.000019	-0.251665
C67	C	1.352854	-0.635366	-0.329553
C68	C	1.251629	-0.733292	-0.289696
C69	C	1.199799	-0.788019	-0.169352
C70	C	1.249195	-0.744820	-0.088865
C71	C	1.350426	-0.646889	-0.128720
C72	C	1.402256	-0.592162	-0.249065
H73	H	1.215058	-0.765275	-0.349279
H74	H	1.124861	-0.860514	-0.139849
H75	H	1.210828	-0.785332	0.000221
H76	H	1.386997	-0.614906	-0.069138
H77	H	1.477194	-0.519667	-0.278568
H78	H	1.664142	0.000014	-0.082137
H79	H	1.426331	0.000022	-0.209849
H80	H	0.907140	0.000088	-0.839139
C81	C	1.340412	-0.364574	-0.707263
C82	C	1.240187	-0.265528	-0.655996
C83	C	1.183434	-0.211159	-0.727232
C84	C	1.226907	-0.255834	-0.849734
C85	C	1.327137	-0.354885	-0.901007
C86	C	1.383890	-0.409255	-0.829772
H87	H	1.208002	-0.232452	-0.565307
H88	H	1.109237	-0.137835	-0.689275
H89	H	1.184895	-0.215587	-0.902467
H90	H	1.359323	-0.387961	-0.991696
H91	H	1.458088	-0.482579	-0.867728
H92	H	1.365633	-0.380919	-0.359867
C93	C	1.158892	-0.630893	-0.335518
C94	C	1.204149	-0.589924	-0.251219
C95	C	1.144886	-0.640745	-0.130021
C96	C	1.040365	-0.732536	-0.093123
C97	C	0.995102	-0.773510	-0.177424
C98	C	1.054366	-0.722689	-0.298621
H99	H	1.281526	-0.521970	-0.278531
H100	H	1.178393	-0.610413	-0.067617
H101	H	0.996495	-0.770157	-0.003406
H102	H	0.917725	-0.841464	-0.150112
H103	H	1.020858	-0.753021	-0.361026
H104	H	1.347552	-0.618333	-0.684454
H105	H	1.166467	-0.619084	-0.500237
H106	H	1.520335	0.000019	-0.159382
H107	H	1.602102	0.000026	0.126707
H108	H	0.698296	0.000077	-0.777099
H109	H	1.203550	0.000064	0.288284
H110	H	1.059723	0.000052	0.211043
C111	C	1.158198	-0.364338	-0.337088
C112	C	1.219632	-0.266795	-0.290759
C113	C	1.160042	-0.212293	-0.170657
C114	C	1.039019	-0.255333	-0.096883
C115	C	0.977578	-0.352882	-0.143211
C116	C	1.037168	-0.407384	-0.263313
H117	H	1.309227	-0.234929	-0.345372
H118	H	1.205526	-0.140081	-0.136363
H119	H	0.994907	-0.214988	-0.007976
H120	H	0.887983	-0.384748	-0.088598
H121	H	0.991684	-0.479596	-0.297607
C122	C	1.518208	-0.367269	-0.693649
C123	C	1.557140	-0.279390	-0.800395
C124	C	1.678198	-0.227700	-0.858024
C125	C	1.760324	-0.263889	-0.808906
C126	C	1.721394	-0.351774	-0.702154
C127	C	1.600336	-0.403464	-0.644526
H128	H	1.496343	-0.252596	-0.836761
H129	H	1.707016	-0.162642	-0.937049
H130	H	1.849939	-0.225626	-0.851566
H131	H	1.782191	-0.378568	-0.665789
H132	H	1.571518	-0.468521	-0.565501
H133	H	0.536718	0.000031	-0.378547
C134	C	1.148774	-0.367075	-0.517132
C135	C	1.042933	-0.280439	-0.453479
C136	C	0.973916	-0.228668	-0.513424
C137	C	1.010739	-0.263532	-0.637023
C138	C	1.116585	-0.350173	-0.700684
C139	C	1.185603	-0.401945	-0.640738
H140	H	1.015670	-0.254626	-0.361977
H141	H	0.895561	-0.164531	-0.466297
H142	H	0.959648	-0.225208	-0.681398
H143	H	1.143848	-0.375986	-0.792185
H144	H	1.263957	-0.466082	-0.687865
C145	C	1.514345	-0.635080	-0.699574
C146	C	1.563247	-0.734609	-0.641759
C147	C	1.682822	-0.789513	-0.705251
C148	C	1.753494	-0.744887	-0.826558
C149	C	1.704593	-0.645353	-0.884379
C150	C	1.585018	-0.590449	-0.820887
H151	H	1.510931	-0.767648	-0.551955
H152	H	1.719021	-0.863195	-0.662447
H153	H	1.842010	-0.785531	-0.873558
H154	H	1.756909	-0.612314	-0.974183
H155	H	1.548819	-0.516766	-0.863691
H156	H	1.014645	0.000061	0.053377
H157	H	0.771625	0.000013	-0.189642
H158	H	0.613959	0.000030	-0.234721
