data_functionalizedCrystal
_audit_creation_method	'MofGen! by Chris Wilmer'
_symmetry_space_group_name_H-M	'P1'
_symmetry_Int_Tables_number	1
_symmetry_cell_setting	triclinic
loop_
_symmetry_equiv_pos_as_xyz
  x,y,z
_cell_length_a	18.101398
_cell_length_b	18.101397
_cell_length_c	16.625539
_cell_angle_alpha	89.968146
_cell_angle_beta	89.988670
_cell_angle_gamma	90.016023
loop_
_atom_site_label
_atom_site_type_symbol
_atom_site_fract_x
_atom_site_fract_y
_atom_site_fract_z
Zn1	Zn	1.132187	-0.294916	-0.455691
Zn2	Zn	1.132103	-0.418765	-0.320850
Zn3	Zn	1.008343	-0.294932	-0.320893
Zn4	Zn	1.008320	-0.418711	-0.455661
O5	O	1.070238	-0.356831	-0.388274
O6	O	1.235809	-0.311361	-0.437798
O7	O	1.115660	-0.402368	-0.208023
O8	O	1.024816	-0.191297	-0.338805
O9	O	1.235747	-0.402352	-0.338731
O10	O	1.115804	-0.191285	-0.437840
O11	O	1.024734	-0.311389	-0.208055
O12	O	0.904707	-0.311336	-0.338776
O13	O	1.024777	-0.402260	-0.568497
O14	O	0.904690	-0.402275	-0.437790
O15	O	1.115782	-0.311308	-0.568519
O16	O	1.115638	-0.522391	-0.338702
O17	O	1.024695	-0.522351	-0.437748
C18	C	0.877828	-0.356802	-0.388285
C19	C	0.795514	-0.356807	-0.388309
C20	C	0.496423	-0.356851	-0.388275
C21	C	0.527762	-0.414344	-0.450264
C22	C	0.613380	-0.414164	-0.450519
C23	C	0.644805	-0.356830	-0.388292
C24	C	0.613737	-0.278827	-0.411517
C25	C	0.528092	-0.279173	-0.411957
C26	C	0.527971	-0.376673	-0.302912
C27	C	0.613622	-0.378384	-0.303368
C28	C	0.728665	-0.356813	-0.388300
C29	C	0.412563	-0.356862	-0.388269
C30	C	1.070175	-0.549242	-0.388234
C31	C	1.070215	-0.631556	-0.388245
C32	C	1.070310	-0.930647	-0.388318
C33	C	1.127369	-0.899316	-0.325835
C34	C	1.127567	-0.813697	-0.325996
C35	C	1.070263	-0.782264	-0.388281
C36	C	1.091421	-0.813271	-0.473267
C37	C	1.091863	-0.898916	-0.472927
C38	C	0.991941	-0.899150	-0.366551
C39	C	0.992328	-0.813501	-0.364654
C40	C	1.070235	-0.698405	-0.388265
C41	C	1.070340	-1.014506	-0.388340
C42	C	1.263400	-0.356861	-0.388263
C43	C	1.345714	-0.356874	-0.388258
C44	C	1.070286	-0.356776	-0.598583
C45	C	1.070307	-0.356752	-0.688204
C46	C	1.070322	-0.163669	-0.388330
C47	C	1.070358	-0.081355	-0.388355
C48	C	1.070341	-0.356670	-1.016380
C49	C	1.070329	-0.356695	-0.925071
C50	C	1.070324	-0.356712	-0.852295
C51	C	1.070312	-0.356736	-0.760980
C52	C	1.070233	-0.356833	-0.178783
C53	C	1.070356	-0.356648	-0.089162
H54	H	0.506251	-0.401396	-0.513147
H55	H	0.976374	-0.793242	-0.302111
H56	H	0.634386	-0.472007	-0.435962
H57	H	0.635200	-0.261712	-0.473243
H58	H	0.633882	-0.401049	-0.513768
H59	H	1.148064	-0.791768	-0.492019
H60	H	1.185103	-0.920788	-0.340070
H61	H	0.635013	-0.339549	-0.254700
H62	H	0.972693	-0.920810	-0.305654
H63	H	1.185618	-0.793158	-0.340397
H64	H	0.507157	-0.472376	-0.435870
H65	H	1.051133	-0.792908	-0.521074
H66	H	0.506368	-0.432579	-0.281806
H67	H	0.633936	-0.435783	-0.285851
H68	H	0.947527	-0.792111	-0.406832
H69	H	1.149147	-0.918839	-0.491367
H70	H	0.508129	-0.262361	-0.474362
H71	H	1.052124	-0.919639	-0.521086
H72	H	0.507704	-0.334795	-0.256724
H73	H	0.507361	-0.234801	-0.368878
H74	H	0.634092	-0.234829	-0.367775
H75	H	0.949427	-0.919412	-0.412061
H76	H	1.114329	-0.792736	-0.262980
H77	H	1.114292	-0.919959	-0.262629
