data_functionalizedCrystal
_audit_creation_method	'MofGen! by Chris Wilmer'
_symmetry_space_group_name_H-M	'P1'
_symmetry_Int_Tables_number	1
_symmetry_cell_setting	triclinic
loop_
_symmetry_equiv_pos_as_xyz
  x,y,z
_cell_length_a	25.993477
_cell_length_b	25.993440
_cell_length_c	25.993511
_cell_angle_alpha	89.997443
_cell_angle_beta	59.999599
_cell_angle_gamma	60.000225
loop_
_atom_site_label
_atom_site_type_symbol
_atom_site_fract_x
_atom_site_fract_y
_atom_site_fract_z
O1	O	-0.368213	-0.438492	0.015296
O2	O	-0.262868	-0.363679	-0.015237
O3	O	-0.368211	-0.363678	0.090105
O4	O	-0.262870	-0.438493	-0.090047
O5	O	-0.453771	-0.278116	0.090098
O6	O	-0.348428	-0.278116	-0.015244
O7	O	-0.453773	-0.352930	0.015289
Zn8	Zn	-0.414685	-0.301938	0.000021
Zn9	Zn	-0.301956	-0.414670	0.000030
O10	O	-0.348430	-0.352931	-0.090053
C11	C	-0.255140	-0.184159	-0.022170
C12	C	-0.291259	-0.116297	-0.017795
C13	C	-0.285806	-0.215406	-0.022610
C14	C	-0.161975	-0.277322	-0.022178
C15	C	-0.098482	-0.309070	-0.017811
C16	C	-0.192783	-0.308428	-0.022618
C17	C	-0.255134	-0.277323	-0.022181
C18	C	-0.291245	-0.309071	-0.017818
C19	C	-0.192790	-0.215406	-0.022607
C20	C	-0.565858	-0.528804	0.037067
C21	C	-0.535192	-0.590717	0.037507
C22	C	-0.659017	-0.528805	0.037067
C23	C	-0.628210	-0.590718	0.037507
C24	C	-0.565862	-0.621963	0.037074
C25	C	-0.628206	-0.497702	0.037500
C26	C	-0.558536	-0.435437	0.029500
C27	C	-0.524438	-0.405911	0.024727
C28	C	-0.460698	-0.437742	0.022335
C29	C	-0.423722	-0.405733	0.017156
C30	C	-0.431049	-0.499100	0.024723
C31	C	-0.465147	-0.528624	0.029499
C32	C	-0.528887	-0.496792	0.031885
C33	C	-0.464938	-0.722647	0.029522
C34	C	-0.430643	-0.786268	0.024755
C35	C	-0.460083	-0.818177	0.022364
C36	C	-0.422899	-0.887160	0.017192
C37	C	-0.523824	-0.786471	0.024744
C38	C	-0.558119	-0.722852	0.029514
C39	C	-0.528673	-0.690943	0.031900
C40	C	-0.752140	-0.435439	0.029500
C41	C	-0.810984	-0.405917	0.024718
C42	C	-0.840501	-0.437750	0.022326
C43	C	-0.904307	-0.405741	0.017147
C44	C	-0.811179	-0.499105	0.024711
C45	C	-0.752335	-0.528630	0.029490
C46	C	-0.722818	-0.496794	0.031885
C47	C	-0.150798	-0.528801	-0.471156
C48	C	-0.088450	-0.590714	-0.502257
C49	C	-0.150797	-0.528801	-0.377997
C50	C	-0.088450	-0.590714	-0.409239
C51	C	-0.057641	-0.621959	-0.471152
C52	C	-0.181465	-0.497698	-0.409244
C53	C	-0.251724	-0.435433	-0.470919
C54	C	-0.286021	-0.405907	-0.500245
C55	C	-0.256583	-0.437739	-0.561592
C56	C	-0.293769	-0.405729	-0.593391
C57	C	-0.192843	-0.499097	-0.593623
C58	C	-0.158546	-0.528620	-0.564300
C59	C	-0.187989	-0.496788	-0.502947
C60	C	0.035482	-0.722644	-0.564516
C61	C	0.094331	-0.786265	-0.594038
C62	C	0.123846	-0.818174	-0.562204
C63	C	0.187651	-0.887157	-0.594210
C64	C	0.094522	-0.786467	-0.500846
C65	C	0.035679	-0.722848	-0.471326
C66	C	0.006159	-0.690939	-0.503161
C67	C	-0.251722	-0.435434	-0.277314
C68	C	-0.286024	-0.405912	-0.213691
C69	C	-0.256586	-0.437745	-0.181780
C70	C	-0.293771	-0.405736	-0.112797
C71	C	-0.192851	-0.499100	-0.213482
C72	C	-0.158549	-0.528625	-0.277103
C73	C	-0.187988	-0.496790	-0.309017
O74	O	0.074799	-0.352933	0.015296
O75	O	-0.074834	-0.278112	-0.015227
O76	O	-0.074827	-0.278129	0.090111
O77	O	0.074792	-0.352916	-0.090042
O78	O	-0.074821	-0.363697	0.090101
O79	O	-0.074828	-0.363680	-0.015237
O80	O	0.074804	-0.438501	0.015286
Zn81	Zn	-0.000011	-0.414676	0.000022
Zn82	Zn	-0.000018	-0.301937	0.000036
O83	O	0.074798	-0.438484	-0.090053
O84	O	-0.453797	0.090090	0.015329
O85	O	-0.348446	-0.090067	-0.015215
O86	O	-0.453786	0.015260	0.090132
O87	O	-0.348456	-0.015238	-0.090018
O88	O	-0.368223	0.015262	0.090135
O89	O	-0.262883	-0.090066	-0.015212
O90	O	-0.368234	0.090091	0.015332
Zn91	Zn	-0.301974	0.000012	0.000061
Zn92	Zn	-0.414706	0.000011	0.000057
O93	O	-0.262894	-0.015237	-0.090015
O94	O	0.358159	-1.090060	-0.636255
O95	O	0.208538	-0.909908	-0.561449
O96	O	0.208533	-1.015248	-0.561443
O97	O	0.358163	-0.984720	-0.636261
O98	O	0.208531	-1.015246	-0.647007
O99	O	0.208536	-0.909906	-0.647013
O100	O	0.358157	-1.090058	-0.721819
Zn101	Zn	0.283346	-0.999981	-0.698001
Zn102	Zn	0.283349	-0.999984	-0.585267
O103	O	0.358161	-0.984718	-0.721825
O104	O	-0.368211	-0.363678	-0.721856
O105	O	-0.262873	-0.438489	-0.647037
O106	O	-0.368214	-0.438490	-0.647036
O107	O	-0.262869	-0.363677	-0.721856
O108	O	-0.453776	-0.352927	-0.561477
O109	O	-0.348435	-0.352926	-0.561477
O110	O	-0.453773	-0.278115	-0.636296
Zn111	Zn	-0.414689	-0.301935	-0.585302
Zn112	Zn	-0.301957	-0.414669	-0.698031
O113	O	-0.348431	-0.278114	-0.636297
C114	C	-0.554665	-0.184168	0.277344
C115	C	-0.618155	-0.116309	0.309086
C116	C	-0.523856	-0.215413	0.308450
C117	C	-0.461509	-0.277326	0.184190
C118	C	-0.425395	-0.309072	0.116330
C119	C	-0.430841	-0.308430	0.215437
C120	C	-0.461509	-0.277326	0.277350
C121	C	-0.425395	-0.309072	0.309098
C122	C	-0.523856	-0.215413	0.215431
C123	C	-0.255129	-0.277364	0.277343
C124	C	-0.291241	-0.309116	0.309081
C125	C	-0.285802	-0.215451	0.308451
C126	C	-0.161970	-0.277352	0.184193
C127	C	-0.098475	-0.309090	0.116334
C128	C	-0.192784	-0.215439	0.215442
C129	C	-0.255135	-0.184200	0.277354
C130	C	-0.291254	-0.116341	0.309104
C131	C	-0.192778	-0.308461	0.215431
C132	C	-0.461509	0.022179	0.277376
C133	C	-0.425391	0.017805	0.309121
C134	C	-0.523855	0.022608	0.308478
C135	C	-0.461516	0.022193	0.184220
C136	C	-0.425407	0.017836	0.116362
C137	C	-0.523862	0.022623	0.215463
C138	C	-0.554667	0.022178	0.277374
C139	C	-0.618156	0.017803	0.309117
C140	C	-0.430845	0.022624	0.215465
C141	C	0.434157	-0.621914	-0.471151
C142	C	0.464824	-0.590664	-0.502248
C143	C	0.340992	-0.528763	-0.377990
C144	C	0.371800	-0.497654	-0.409228
C145	C	0.434151	-0.528751	-0.471140
C146	C	0.371806	-0.590675	-0.409240
C147	C	0.441481	-0.722605	-0.470920
C148	C	0.475581	-0.786226	-0.500249
C149	C	0.539325	-0.818128	-0.561594
C150	C	0.576303	-0.887111	-0.593396
C151	C	0.568974	-0.786415	-0.593622
C152	C	0.534874	-0.722797	-0.564296
C153	C	0.471130	-0.690894	-0.502945
C154	C	0.535079	-0.528981	-0.564498
C155	C	0.569375	-0.499651	-0.594017
C156	C	0.539932	-0.438304	-0.562180
C157	C	0.577116	-0.406501	-0.594182
C158	C	0.476188	-0.406276	-0.500823
C159	C	0.441892	-0.435604	-0.471307
C160	C	0.471341	-0.496956	-0.503145
C161	C	0.247865	-0.529018	-0.277312
C162	C	0.189017	-0.499702	-0.213689
C163	C	0.159497	-0.438355	-0.181776
C164	C	0.095687	-0.406565	-0.112794
C165	C	0.188820	-0.406318	-0.213474
C166	C	0.247668	-0.435631	-0.277094
C167	C	0.277188	-0.496981	-0.309011
O168	O	-0.368251	0.090052	0.352965
O169	O	-0.262886	-0.090103	0.278147
O170	O	-0.368247	0.015230	0.278157
O171	O	-0.262891	-0.015281	0.352955
O172	O	-0.453793	0.015212	0.363724
O173	O	-0.348433	-0.090121	0.363714
O174	O	-0.453798	0.090034	0.438532
Zn175	Zn	-0.414698	-0.000047	0.414708
Zn176	Zn	-0.301986	-0.000023	0.301971
O177	O	-0.348438	-0.015299	0.438522
C178	C	-0.057691	-0.036940	-0.471113
C179	C	-0.088504	-0.037371	-0.502216
C180	C	-0.150841	-0.036956	-0.377958
C181	C	-0.181513	-0.037387	-0.409202
C182	C	-0.150850	-0.036942	-0.471114
C183	C	-0.088495	-0.037386	-0.409201
C184	C	0.035435	-0.029379	-0.470869
C185	C	0.094283	-0.024602	-0.500191
C186	C	0.123792	-0.022198	-0.561537
C187	C	0.187596	-0.017015	-0.593332
C188	C	0.094465	-0.024577	-0.593570
C189	C	0.035623	-0.029356	-0.564250
C190	C	0.006108	-0.031755	-0.502900
C191	C	-0.158177	-0.029367	-0.564478
C192	C	-0.192276	-0.024591	-0.594003
C193	C	-0.256015	-0.022203	-0.562172
C194	C	-0.292993	-0.017021	-0.594180
C195	C	-0.285660	-0.024596	-0.500816
C196	C	-0.251561	-0.029374	-0.471294
C197	C	-0.187822	-0.031757	-0.503125
C198	C	-0.158150	-0.029412	-0.277275
C199	C	-0.192247	-0.024643	-0.213652
C200	C	-0.255986	-0.022255	-0.181744
C201	C	-0.292954	-0.017089	-0.112763
C202	C	-0.285640	-0.024631	-0.213449
C203	C	-0.251549	-0.029397	-0.277069
C204	C	-0.187804	-0.031788	-0.308979
H205	H	-0.167005	-0.190318	-0.023308
C206	C	0.639489	-0.534882	-0.661505
C207	C	0.707536	-0.597374	-0.675933
C208	C	0.777650	-0.632600	-0.743422
C209	C	0.779718	-0.605334	-0.796483
C210	C	0.711668	-0.542838	-0.782057
C211	C	0.641554	-0.507612	-0.714568
H212	H	0.706007	-0.617561	-0.636653
H213	H	0.828024	-0.678864	-0.754102
H214	H	0.831620	-0.631411	-0.846443
H215	H	0.713197	-0.522651	-0.821337
H216	H	0.591180	-0.461348	-0.703889
H217	H	-0.167001	-0.190350	0.190358
C218	C	-0.088057	-0.031998	-0.599498
C219	C	-0.019894	-0.085616	-0.661946
C220	C	0.050223	-0.088242	-0.696964
C221	C	0.052177	-0.037249	-0.669535
C222	C	-0.015989	0.016373	-0.607084
C223	C	-0.086106	0.018999	-0.572065
H224	H	-0.021337	-0.123367	-0.682253
H225	H	0.100684	-0.127937	-0.743195
H226	H	0.104081	-0.039193	-0.695458
H227	H	-0.014546	0.054125	-0.586776
H228	H	-0.136567	0.058694	-0.525834
H229	H	-0.834854	-0.355960	0.022778
H230	H	0.118202	-0.812072	-0.643997
C231	C	-0.663046	-0.428979	0.038443
C232	C	-0.618880	-0.412082	-0.015501
C233	C	-0.653722	-0.343363	-0.014558
C234	C	-0.732730	-0.291540	0.040329
C235	C	-0.776901	-0.308436	0.094277
C236	C	-0.742058	-0.377156	0.093334
H237	H	-0.560390	-0.450445	-0.056135
H238	H	-0.621024	-0.330856	-0.054494
H239	H	-0.758523	-0.240670	0.041028
H240	H	-0.835391	-0.270073	0.134911
H241	H	-0.774757	-0.389663	0.133270
C242	C	-0.249283	-0.038344	-0.375324
C243	C	-0.320112	0.015589	-0.365569
C244	C	-0.387878	0.014630	-0.331695
C245	C	-0.384815	-0.040261	-0.307577
C246	C	-0.313984	-0.094198	-0.317332
C247	C	-0.246218	-0.093239	-0.351205
H248	H	-0.322382	0.056226	-0.383423
H249	H	-0.440312	0.054558	-0.324474
H250	H	-0.434980	-0.040971	-0.282502
H251	H	-0.311714	-0.134835	-0.299478
H252	H	-0.193783	-0.133167	-0.358427
C253	C	-0.160464	-0.534122	-0.178379
C254	C	-0.082988	-0.556671	-0.201420
C255	C	-0.050602	-0.591688	-0.166316
C256	C	-0.095692	-0.604157	-0.108172
C257	C	-0.173172	-0.581608	-0.085128
C258	C	-0.205558	-0.546590	-0.120232
H259	H	-0.049606	-0.547441	-0.244465
H260	H	0.006754	-0.608381	-0.183375
H261	H	-0.071718	-0.630079	-0.082186
H262	H	-0.206555	-0.590837	-0.042083
H263	H	-0.262914	-0.529897	-0.103173
C264	C	0.336968	-0.428932	-0.375341
C265	C	0.309264	-0.377103	-0.402524
C266	C	0.274436	-0.308385	-0.368641
C267	C	0.267312	-0.291496	-0.307575
C268	C	0.295017	-0.343327	-0.280389
C269	C	0.329845	-0.412045	-0.314273
H270	H	0.314537	-0.389604	-0.447731
H271	H	0.253927	-0.270017	-0.388765
H272	H	0.241531	-0.240627	-0.282493
H273	H	0.289744	-0.330826	-0.235182
H274	H	0.350354	-0.450413	-0.294148
C275	C	-0.558698	0.023572	0.181575
C276	C	-0.565829	-0.030366	0.171813
C277	C	-0.600663	-0.029419	0.137926
C278	C	-0.628366	0.025467	0.113801
C279	C	-0.621236	0.079410	0.123561
C280	C	-0.586402	0.078462	0.157449
H281	H	-0.545320	-0.071000	0.189673
H282	H	-0.605940	-0.069351	0.130701
H283	H	-0.654152	0.026169	0.088715
H284	H	-0.641744	0.120043	0.105702
H285	H	-0.581125	0.118394	0.164674
H286	H	0.451435	-0.812040	-0.474168
H287	H	-0.380675	0.023327	0.190383
H288	H	-0.168092	-0.022715	-0.187845
C289	C	-0.353581	-0.181564	0.377171
C290	C	-0.424414	-0.171792	0.394058
C291	C	-0.492190	-0.137903	0.462775
C292	C	-0.489133	-0.113786	0.514606
C293	C	-0.418296	-0.123558	0.497721
C294	C	-0.350520	-0.157447	0.429003
H295	H	-0.426680	-0.189645	0.355688
H296	H	-0.544628	-0.130670	0.475274
H297	H	-0.539305	-0.088700	0.565474
H298	H	-0.416030	-0.105705	0.536090
H299	H	-0.298082	-0.164680	0.416504
C300	C	-0.843647	-0.534127	0.022082
C301	C	-0.924023	-0.506697	0.073073
C302	C	-0.956495	-0.541716	0.070447
C303	C	-0.908591	-0.604165	0.016830
C304	C	-0.828210	-0.631599	-0.034165
C305	C	-0.795738	-0.596580	-0.031539
H306	H	-0.959489	-0.460465	0.112767
H307	H	-1.015999	-0.521407	0.108197
H308	H	-0.932629	-0.630088	0.014886
H309	H	-0.792744	-0.677831	-0.073859
H310	H	-0.736234	-0.616889	-0.069289
C311	C	0.371356	-0.687509	-0.403437
C312	C	0.369397	-0.658133	-0.350484
C313	C	0.299275	-0.623038	-0.282998
C314	C	0.231113	-0.617320	-0.268467
C315	C	0.233069	-0.646697	-0.321422
C316	C	0.303191	-0.681791	-0.388907
H317	H	0.419858	-0.662365	-0.361240
H318	H	0.297827	-0.601291	-0.243798
H319	H	0.179204	-0.591341	-0.218510
H320	H	0.182609	-0.642465	-0.310666
H321	H	0.304639	-0.703538	-0.428108
H322	H	-0.166993	-0.359330	0.190344
C323	C	-0.558690	0.023543	0.377198
C324	C	-0.586395	0.078418	0.429035
C325	C	-0.621232	0.079352	0.497751
C326	C	-0.628365	0.025410	0.514631
C327	C	-0.600659	-0.029469	0.462793
C328	C	-0.565822	-0.030403	0.394076
H329	H	-0.581116	0.118352	0.416540
H330	H	-0.641741	0.119977	0.536125
H331	H	-0.654153	0.026102	0.565499
H332	H	-0.605938	-0.069403	0.475287
H333	H	-0.545313	-0.071029	0.355702
C334	C	0.532622	-0.624537	-0.570959
C335	C	0.603452	-0.685585	-0.587824
C336	C	0.671256	-0.719454	-0.656528
C337	C	0.668230	-0.692275	-0.708367
C338	C	0.597398	-0.631223	-0.691504
C339	C	0.529594	-0.597354	-0.622800
H340	H	0.605694	-0.705708	-0.549448
H341	H	0.723691	-0.764649	-0.669010
H342	H	0.718423	-0.717346	-0.759226
H343	H	0.595156	-0.611100	-0.729880
H344	H	0.477159	-0.552160	-0.610318
H345	H	-0.548578	-0.355957	0.022776
C346	C	-0.628233	-0.687964	0.032137
C347	C	-0.627642	-0.711158	-0.022795
C348	C	-0.697757	-0.676266	-0.020170
C349	C	-0.768463	-0.618179	0.037386
C350	C	-0.769057	-0.594982	0.092322
C351	C	-0.698942	-0.629875	0.089697
H352	H	-0.575298	-0.754160	-0.065405
H353	H	-0.697317	-0.693438	-0.060837
H354	H	-0.820367	-0.592350	0.039329
H355	H	-0.821400	-0.551981	0.134932
H356	H	-0.699381	-0.612703	0.130364
H357	H	-0.335972	-0.190321	-0.023318
C358	C	-0.558682	-0.181533	0.181533
C359	C	-0.514493	-0.171784	0.120458
C360	C	-0.549314	-0.137908	0.086558
C361	C	-0.628323	-0.113780	0.113733
C362	C	-0.672516	-0.123528	0.174812
C363	C	-0.637696	-0.157404	0.208712
H364	H	-0.456002	-0.189645	0.100338
H365	H	-0.516599	-0.130692	0.041343
H366	H	-0.654099	-0.088703	0.088638
H367	H	-0.731008	-0.105667	0.194932
H368	H	-0.670411	-0.164620	0.253927
C369	C	-0.157950	-0.377154	-0.023573
C370	C	-0.150826	-0.394061	0.030366
C371	C	-0.115997	-0.462784	0.029410
C372	C	-0.088293	-0.514601	-0.025483
C373	C	-0.095417	-0.497695	-0.079426
C374	C	-0.130246	-0.428971	-0.078471
H375	H	-0.171334	-0.355702	0.071005
H376	H	-0.110724	-0.475299	0.069343
H377	H	-0.062511	-0.565474	-0.026191
H378	H	-0.074909	-0.536053	-0.120065
H379	H	-0.135519	-0.416457	-0.118403
C380	C	-0.467414	-0.624606	0.038453
C381	C	-0.396590	-0.685676	-0.015481
C382	C	-0.328814	-0.719564	-0.014538
C383	C	-0.331863	-0.692381	0.040340
C384	C	-0.402690	-0.631308	0.094279
C385	C	-0.470466	-0.597420	0.093335
H386	H	-0.394330	-0.705801	-0.056109
H387	H	-0.276383	-0.764774	-0.054467
H388	H	-0.281691	-0.717467	0.041039
H389	H	-0.404950	-0.611182	0.134906
H390	H	-0.522897	-0.552209	0.133264
H391	H	-0.653996	-0.615803	0.038204
H392	H	0.346035	-0.615773	-0.384157
C393	C	0.156761	-0.534942	-0.178826
C394	C	0.125030	-0.557535	-0.202041
C395	C	0.092774	-0.592776	-0.167174
C396	C	0.092249	-0.605426	-0.109094
C397	C	0.123982	-0.582833	-0.085877
C398	C	0.156237	-0.547591	-0.120743
H399	H	0.125417	-0.548171	-0.245038
H400	H	0.069283	-0.609501	-0.184362
H401	H	0.068371	-0.631514	-0.083284
H402	H	0.123594	-0.592196	-0.042879
H403	H	0.179728	-0.530867	-0.103556
H404	H	-0.275699	-0.409508	-0.420964
H405	H	0.271894	-0.578970	-0.303297
H406	H	0.620882	-0.812400	-0.643577
C407	C	0.443800	-0.338790	-0.465800
C408	C	0.420244	-0.285838	-0.493228
C409	C	0.387852	-0.218353	-0.458202
C410	C	0.379016	-0.203818	-0.395747
C411	C	0.402573	-0.256771	-0.368315
C412	C	0.434965	-0.324257	-0.403342
H413	H	0.426784	-0.296596	-0.539464
H414	H	0.370414	-0.179154	-0.478509
H415	H	0.355038	-0.153861	-0.369819
H416	H	0.396033	-0.246014	-0.322080
H417	H	0.452403	-0.363456	-0.383034
H418	H	-0.379142	-0.525016	0.022774
C419	C	0.156350	-0.338831	-0.178370
C420	C	0.075974	-0.285889	-0.148989
C421	C	0.043500	-0.218402	-0.113884
C422	C	0.091401	-0.203857	-0.108160
C423	C	0.171781	-0.256801	-0.137541
C424	C	0.204256	-0.324288	-0.172646
H425	H	0.040511	-0.296654	-0.153226
H426	H	-0.016003	-0.179209	-0.092134
H427	H	0.067362	-0.153899	-0.082173
H428	H	0.207245	-0.246036	-0.133305
H429	H	0.263759	-0.363481	-0.194397
H430	H	-0.380665	-0.359297	0.190349
H431	H	0.559013	-0.696976	-0.590376
C432	C	0.126538	-0.021982	-0.464957
C433	C	0.078476	0.031630	-0.402462
C434	C	0.110736	0.034249	-0.367230
C435	C	0.191059	-0.016745	-0.394492
C436	C	0.239126	-0.070361	-0.456990
C437	C	0.206866	-0.072979	-0.492222
H438	H	0.019012	0.069383	-0.382278
H439	H	0.075153	0.073939	-0.320965
H440	H	0.214940	-0.014807	-0.368410
H441	H	0.298590	-0.108113	-0.477173
H442	H	0.242449	-0.112670	-0.538487
H443	H	-0.337917	-0.355955	-0.187884
H444	H	-0.549645	-0.190326	0.359321
H445	H	-0.106244	-0.031362	-0.303254
C446	C	-0.053665	-0.038342	-0.375306
C447	C	-0.046546	0.015599	-0.365518
C448	C	-0.011720	0.014641	-0.331620
C449	C	0.015987	-0.040257	-0.307509
C450	C	0.008869	-0.094202	-0.317295
C451	C	-0.025957	-0.093244	-0.351194
H452	H	-0.067057	0.056241	-0.383368
H453	H	-0.006451	0.054574	-0.324375
H454	H	0.041767	-0.040966	-0.282415
H455	H	0.029380	-0.134844	-0.299446
H456	H	-0.031226	-0.133178	-0.358438
C457	C	0.126926	-0.021928	-0.661054
C458	C	0.158813	-0.076847	-0.715494
C459	C	0.191270	-0.074200	-0.782977
C460	C	0.191842	-0.016633	-0.796021
C461	C	0.159954	0.038290	-0.741579
C462	C	0.127496	0.035643	-0.674096
H463	H	0.158391	-0.119465	-0.705840
H464	H	0.214876	-0.114858	-0.823278
H465	H	0.215869	-0.014673	-0.845976
H466	H	0.160376	0.080908	-0.751233
H467	H	0.103891	0.076301	-0.633795
C468	C	-0.159666	-0.021957	-0.661491
C469	C	-0.082125	-0.076881	-0.715825
C470	C	-0.049520	-0.074247	-0.783313
C471	C	-0.094457	-0.016690	-0.796467
C472	C	-0.172003	0.038238	-0.742130
C473	C	-0.204607	0.035604	-0.674642
H474	H	-0.048856	-0.119492	-0.706090
H475	H	0.007884	-0.114909	-0.823537
H476	H	-0.070321	-0.014740	-0.846425
H477	H	-0.205271	0.080849	-0.751866
H478	H	-0.262012	0.076266	-0.634419
C479	C	-0.355781	-0.021967	-0.465799
C480	C	-0.426396	0.035594	-0.453320
C481	C	-0.496514	0.038221	-0.418301
C482	C	-0.496016	-0.016712	-0.395760
C483	C	-0.425398	-0.074277	-0.408238
C484	C	-0.355280	-0.076904	-0.443258
H485	H	-0.426767	0.076262	-0.470007
H486	H	-0.548791	0.080835	-0.409064
H487	H	-0.547922	-0.014767	-0.369837
H488	H	-0.425027	-0.114945	-0.391552
H489	H	-0.303004	-0.119517	-0.452495
C490	C	-0.053613	-0.624612	-0.375354
C491	C	-0.097785	-0.634388	-0.314293
C492	C	-0.062948	-0.668288	-0.280412
C493	C	0.016061	-0.692413	-0.307591
C494	C	0.060238	-0.682637	-0.368655
C495	C	0.025401	-0.648737	-0.402537
H496	H	-0.156277	-0.616529	-0.294170
H497	H	-0.095651	-0.675525	-0.235208
H498	H	0.041849	-0.717508	-0.282510
H499	H	0.118729	-0.700496	-0.388778
H500	H	0.058104	-0.641501	-0.447740
C501	C	-0.360531	-0.821142	0.022136
C502	C	-0.361130	-0.797931	0.077066
C503	C	-0.291017	-0.832810	0.074446
C504	C	-0.220306	-0.890900	0.016896
C505	C	-0.219705	-0.914114	-0.038038
C506	C	-0.289817	-0.879235	-0.035418
H507	H	-0.413476	-0.754926	0.119671
H508	H	-0.291463	-0.815625	0.115112
H509	H	-0.168405	-0.916719	0.014957
H510	H	-0.167358	-0.957118	-0.080643
H511	H	-0.289372	-0.896420	-0.076084
H512	H	-0.610439	-0.409512	0.031447
H513	H	0.011738	-0.031283	-0.590330
H514	H	-0.728113	-0.409511	0.031453
H515	H	0.559056	-0.578933	-0.590430
H516	H	-0.337546	-0.022682	-0.187463
H517	H	0.389992	-0.409525	-0.421351
H518	H	-0.441004	-0.578582	0.031441
H519	H	0.271542	-0.409543	-0.302902
H520	H	-0.275698	-0.031327	-0.421339
H521	H	-0.062719	-0.038065	-0.553085
H522	H	0.011411	-0.031339	-0.420916
H523	H	-0.275698	-0.031329	-0.302881
H524	H	-0.440960	-0.696668	0.031469
H525	H	-0.547792	-0.812461	0.022797
H526	H	-0.728460	-0.578589	0.031430
H527	H	-0.062660	-0.615792	-0.553131
H528	H	-0.231633	-0.446826	-0.384164
H529	H	-0.275695	-0.409508	-0.303297
H530	H	-0.337915	-0.355950	-0.474162
H531	H	-0.168876	-0.525012	-0.643580
C532	C	-0.088436	-0.596111	-0.599525
C533	C	-0.089041	-0.650444	-0.622122
C534	C	-0.018931	-0.717936	-0.657346
C535	C	0.051783	-0.731093	-0.669973
C536	C	0.052390	-0.676758	-0.647376
C537	C	-0.017719	-0.609267	-0.612152
H538	H	-0.141390	-0.640706	-0.612775
H539	H	-0.019381	-0.758158	-0.674074
H540	H	0.103683	-0.781054	-0.696048
H541	H	0.104740	-0.686497	-0.656723
H542	H	-0.017269	-0.569044	-0.595424
H543	H	0.011453	-0.696665	-0.590443
C544	C	0.126991	-0.821572	-0.465825
C545	C	0.127567	-0.879710	-0.453348
C546	C	0.160032	-0.914810	-0.418325
C547	C	0.191922	-0.891772	-0.395779
C548	C	0.191347	-0.833630	-0.408256
C549	C	0.158881	-0.798530	-0.443279
H550	H	0.103960	-0.896768	-0.470038
H551	H	0.160458	-0.957851	-0.409089
H552	H	0.215954	-0.917755	-0.369853
H553	H	0.214954	-0.816572	-0.391566
H554	H	0.158456	-0.755489	-0.452515
H555	H	0.011810	-0.697032	-0.421371
H556	H	-0.106654	-0.578584	-0.302913
