data_functionalizedCrystal
_audit_creation_method	'MofGen! by Chris Wilmer'
_symmetry_space_group_name_H-M	'P1'
_symmetry_Int_Tables_number	1
_symmetry_cell_setting	triclinic
loop_
_symmetry_equiv_pos_as_xyz
  x,y,z
_cell_length_a	16.974800
_cell_length_b	12.837942
_cell_length_c	16.053802
_cell_angle_alpha	92.838962
_cell_angle_beta	91.074188
_cell_angle_gamma	89.097746
loop_
_atom_site_label
_atom_site_type_symbol
_atom_site_fract_x
_atom_site_fract_y
_atom_site_fract_z
O1	O	1.059003	0.132168	0.002153
O2	O	0.830734	0.148040	-0.013279
O3	O	0.939807	-0.010813	-0.005900
O4	O	0.949930	0.291020	-0.005226
O5	O	0.933800	-0.002105	0.132553
O6	O	0.824727	0.156747	0.125174
O7	O	1.052997	0.140875	0.140605
Zn8	Zn	0.937909	0.150194	0.154872
Zn9	Zn	0.945822	0.138721	-0.027545
O10	O	0.943924	0.299728	0.133227
C11	C	0.798310	0.151630	0.053959
C12	C	0.710646	0.149344	0.048033
C13	C	0.666191	0.153014	0.120721
C14	C	0.583822	0.150849	0.115155
C15	C	0.545908	0.145022	0.036901
C16	C	0.590368	0.141349	-0.035793
C17	C	0.672737	0.143506	-0.030227
C18	C	0.299914	0.138055	0.012159
C19	C	0.217540	0.135901	0.006598
C20	C	0.210999	0.145399	0.157548
C21	C	0.293369	0.147562	0.163107
C22	C	0.337822	0.143884	0.090413
N23	N	0.461713	0.142813	0.031210
N24	N	0.422016	0.146086	0.096105
C25	C	0.933384	-0.045089	0.063095
C26	C	0.923184	-0.160194	0.062404
C27	C	1.045801	-0.400816	0.070675
C28	C	1.036221	-0.508968	0.070026
C29	C	0.894447	-0.484653	0.060451
C30	C	0.904026	-0.376501	0.061100
C31	C	0.979706	-0.334587	0.066214
C32	C	0.989284	-0.226432	0.066868
C33	C	0.847510	-0.202119	0.057287
C34	C	0.837931	-0.310272	0.056638
C35	C	1.085421	0.137285	0.073366
C36	C	1.173085	0.139571	0.079286
C37	C	0.950347	0.334004	0.064230
C38	C	0.960547	0.449109	0.064916
N39	N	0.932513	0.158023	0.279367
N40	N	0.951223	0.130884	-0.152040
C41	C	0.978945	0.090455	0.326202
C42	C	0.975179	0.095942	0.413354
C43	C	0.924985	0.169002	0.453670
C44	C	0.878549	0.236572	0.406829
C45	C	0.882311	0.231080	0.319678
C46	C	0.908549	0.192963	0.713968
C47	C	0.904792	0.198452	0.801125
C48	C	1.001421	0.057819	0.807644
C49	C	1.005182	0.052338	0.720492
C50	C	0.958743	0.119905	0.673658
N51	N	0.921136	0.174614	0.542753
N52	N	0.962588	0.114287	0.584576
H53	H	0.186673	0.131158	-0.057130
H54	H	1.012986	0.040922	0.451487
H55	H	0.776315	-0.344414	0.052472
H56	H	1.046054	-0.007153	0.687669
H57	H	0.870737	0.247980	0.675842
H58	H	0.863916	0.257950	0.833945
H59	H	1.039229	0.002808	0.845784
H60	H	0.844501	0.286100	0.281545
H61	H	1.090043	-0.562890	0.073657
H62	H	0.837676	0.296056	0.439658
H63	H	0.324232	0.152303	0.226831
H64	H	0.547631	0.153821	0.174346
H65	H	0.697054	0.157768	0.184445
H66	H	0.832832	-0.518800	0.056279
H67	H	0.174796	0.148393	0.216731
H68	H	0.793691	-0.148183	0.053661
H69	H	0.559493	0.136597	-0.099510
H70	H	0.336098	0.135056	-0.047033
H71	H	1.019821	0.030967	0.293383
H72	H	0.708931	0.140520	-0.089417
H73	H	1.107422	-0.366688	0.074847
H74	H	1.050906	-0.192307	0.071035
