data_functionalizedCrystal
_audit_creation_method	'MofGen! by Chris Wilmer'
_symmetry_space_group_name_H-M	'P1'
_symmetry_Int_Tables_number	1
_symmetry_cell_setting	triclinic
loop_
_symmetry_equiv_pos_as_xyz
  x,y,z
_cell_length_a	20.453700
_cell_length_b	17.110477
_cell_length_c	11.102315
_cell_angle_alpha	84.813817
_cell_angle_beta	108.606275
_cell_angle_gamma	80.939702
loop_
_atom_site_label
_atom_site_type_symbol
_atom_site_fract_x
_atom_site_fract_y
_atom_site_fract_z
V1	V	1.354455	-0.109487	0.396094
O2	O	1.357628	0.005257	0.388723
O3	O	1.330931	-0.217090	0.393223
O4	O	1.346963	-0.107804	0.568918
O5	O	1.341486	-0.104785	0.211811
V6	V	1.515502	-0.095762	0.374072
O7	O	1.441820	-0.139593	0.444401
O8	O	1.578202	-0.065655	0.325765
O9	O	1.464623	0.011841	0.376943
O10	O	1.551460	-0.210506	0.381443
O11	O	1.567603	-0.100464	0.558355
O12	O	1.448591	-0.097444	0.201248
V13	V	1.687788	-0.109487	0.396094
O14	O	1.690962	0.005257	0.388723
O15	O	1.664264	-0.217090	0.393223
O16	O	1.680296	-0.107804	0.568918
O17	O	1.674819	-0.104785	0.211811
V18	V	1.848835	-0.095762	0.374072
O19	O	1.775153	-0.139593	0.444401
O20	O	1.911536	-0.065655	0.325765
O21	O	1.797956	0.011841	0.376943
O22	O	1.884793	-0.210506	0.381443
O23	O	1.900936	-0.100464	0.558355
O24	O	1.781924	-0.097444	0.201248
V25	V	2.021121	-0.109487	0.396094
O26	O	2.024295	0.005257	0.388723
O27	O	1.997598	-0.217090	0.393223
O28	O	2.013630	-0.107804	0.568918
O29	O	2.008152	-0.104785	0.211811
V30	V	2.182168	-0.095762	0.374072
O31	O	2.108486	-0.139593	0.444401
O32	O	2.244869	-0.065655	0.325765
O33	O	2.131289	0.011841	0.376943
O34	O	2.218127	-0.210506	0.381443
O35	O	2.234269	-0.100464	0.558355
O36	O	2.115258	-0.097444	0.201248
C37	C	1.277187	-0.243321	0.386932
C38	C	1.285107	-0.331288	0.385737
C39	C	1.349573	-0.376645	0.391508
C40	C	1.357012	-0.459300	0.390393
C41	C	1.299983	-0.496595	0.383496
C42	C	1.235513	-0.451232	0.377728
C43	C	1.228076	-0.368579	0.378853
C44	C	1.319400	-0.745950	0.379791
C45	C	1.326841	-0.828608	0.378662
C46	C	1.448340	-0.836671	0.391329
C47	C	1.440896	-0.754016	0.392446
C48	C	1.376428	-0.708661	0.386685
C49	C	1.307585	-0.581081	0.382351
C50	C	1.368829	-0.624178	0.387839
C51	C	1.297637	-0.103916	0.611048
C52	C	1.318558	-0.103252	0.752331
C53	C	1.406147	0.038068	0.383230
C54	C	1.391306	0.126034	0.384434
C55	C	1.385697	-0.101335	0.159111
C56	C	1.357856	-0.101995	0.017827
C57	C	1.610521	-0.243321	0.386932
C58	C	1.618441	-0.331288	0.385737
C59	C	1.440082	-0.111160	0.765289
C60	C	1.510671	-0.114805	0.838143
C61	C	1.530323	-0.114180	0.970890
C62	C	1.479381	-0.109909	1.030786
C63	C	1.408792	-0.106264	0.957933
C64	C	1.389146	-0.106891	0.825183
C65	C	1.287268	-0.098350	0.944973
C66	C	1.267615	-0.098980	0.812227
C67	C	1.236326	-0.094078	1.004869
C68	C	1.165737	-0.090439	0.932017
C69	C	1.146086	-0.091065	0.799262
C70	C	1.197027	-0.095336	0.739374
C71	C	1.630970	-0.103916	0.611048
C72	C	1.651891	-0.103252	0.752331
C73	C	1.739480	0.038068	0.383230
C74	C	1.724640	0.126034	0.384434
C75	C	1.719030	-0.101335	0.159111
C76	C	1.691190	-0.101995	0.017827
C77	C	1.943854	-0.243321	0.386932
C78	C	1.951774	-0.331288	0.385737
C79	C	1.964304	-0.103916	0.611048
C80	C	1.985224	-0.103252	0.752331
C81	C	2.072813	0.038068	0.383230
C82	C	2.057973	0.126034	0.384434
C83	C	2.052364	-0.101335	0.159111
C84	C	2.024523	-0.101995	0.017827
C85	C	1.682913	-0.376633	0.391519
C86	C	1.690368	-0.459289	0.390416
C87	C	1.633347	-0.496599	0.383520
C88	C	1.568870	-0.451248	0.377741
C89	C	1.561418	-0.368594	0.378854
C90	C	1.775163	0.171379	0.378655
C91	C	1.761224	0.254035	0.379765
C92	C	1.696763	0.291344	0.386663
C93	C	1.646235	0.245994	0.392439
C94	C	1.660173	0.163340	0.391319
C95	C	2.016247	-0.376633	0.391519
C96	C	2.023701	-0.459289	0.390416
C97	C	1.966680	-0.496599	0.383520
C98	C	1.902203	-0.451248	0.377741
C99	C	1.894751	-0.368594	0.378854
C100	C	2.108497	0.171379	0.378655
C101	C	2.094557	0.254035	0.379765
C102	C	2.030096	0.291344	0.386663
C103	C	1.979568	0.245994	0.392439
C104	C	1.993506	0.163340	0.391319
C105	C	1.670743	-0.248187	0.788442
C106	C	1.689996	-0.320339	0.872870
C107	C	1.709653	-0.319711	1.005617
C108	C	1.710059	-0.246923	1.053937
C109	C	1.690806	-0.174771	0.969509
C110	C	1.671148	-0.175407	0.836761
C111	C	1.671959	-0.029839	0.933400
C112	C	1.652297	-0.030464	0.800652
C113	C	1.672365	0.042949	0.981720
C114	C	1.653108	0.115104	0.897291
C115	C	1.633449	0.114473	0.764536
C116	C	1.633045	0.041688	0.716224
C117	C	2.004077	-0.248187	0.788442
C118	C	2.023329	-0.320339	0.872870
C119	C	2.042986	-0.319711	1.005617
C120	C	2.043392	-0.246923	1.053937
C121	C	2.024140	-0.174771	0.969509
C122	C	2.004481	-0.175407	0.836761
C123	C	2.005292	-0.029839	0.933400
C124	C	1.985630	-0.030464	0.800652
C125	C	2.005698	0.042949	0.981720
C126	C	1.986441	0.115104	0.897291
C127	C	1.966783	0.114473	0.764536
C128	C	1.966378	0.041688	0.716224
H129	H	1.409506	-0.496227	0.395095
N130	N	2.064597	-0.246251	1.197114
H131	H	2.024313	-0.214958	1.217610
H132	H	2.106966	-0.220354	1.226301
H133	H	1.986779	0.174361	0.936645
H134	H	2.076205	-0.496203	0.395118
N135	N	1.502415	-0.713804	0.399913
H136	H	1.489536	-0.672005	0.321529
H137	H	1.544354	-0.755142	0.403450
N138	N	1.069949	-0.087127	0.720694
H139	H	1.053210	-0.134566	0.753238
H140	H	1.065279	-0.088144	0.627530
H141	H	1.827655	0.141013	0.373039
H142	H	1.280402	-0.858974	0.373076
N143	N	2.077759	-0.336412	0.398972
H144	H	2.089887	-0.309983	0.478857
H145	H	2.064833	-0.294653	0.320525
H146	H	1.685422	0.358646	0.387573
H147	H	1.951111	0.173228	0.695801
N148	N	2.149065	0.302934	0.373563
H149	H	2.128937	0.345092	0.294607
H150	H	2.191999	0.266692	0.369093
N151	N	1.815730	0.302936	0.373556
H152	H	1.858682	0.266752	0.369037
H153	H	1.829369	0.329716	0.452891
N154	N	1.500568	-0.109183	1.173949
H155	H	1.553012	-0.112122	1.211008
H156	H	1.487815	-0.156746	1.215603
N157	N	1.974721	-0.585745	0.382293
H158	H	1.928817	-0.602506	0.377042
H159	H	2.012907	-0.614860	0.463653
H160	H	1.842248	-0.331679	0.374139
H161	H	2.018756	0.358646	0.387573
N162	N	1.174000	-0.491452	0.370278
H163	H	1.133638	-0.467610	0.288565
H164	H	1.158718	-0.482982	0.446898
H165	H	1.266906	-0.709031	0.375092
H166	H	1.508915	-0.331679	0.374139
H167	H	1.175583	-0.331651	0.374158
H168	H	1.855780	-0.481638	0.372127
H169	H	1.593750	0.276383	0.398054
H170	H	1.619029	0.126425	0.396037
N171	N	2.178026	0.131149	0.371217
H172	H	2.207909	0.172427	0.367720
H173	H	2.169390	0.104717	0.291334
N174	N	1.910046	0.286235	0.399892
H175	H	1.884776	0.328038	0.321508
H176	H	1.918693	0.312611	0.479830
H177	H	1.952363	0.126425	0.396037
N178	N	1.649513	-0.248861	0.645262
H179	H	1.652169	-0.305917	0.627462
H180	H	1.682398	-0.223217	0.610652
H181	H	1.689665	-0.379602	0.833513
H182	H	1.742872	-0.496203	0.395118
N183	N	1.730425	-0.397530	1.096688
H184	H	1.727189	-0.443736	1.045941
H185	H	1.697671	-0.397733	1.148156
H186	H	1.653445	0.174361	0.936645
H187	H	2.058663	-0.378464	1.074360
N188	N	1.731268	-0.246244	1.197113
H189	H	1.743406	-0.302996	1.243266
H190	H	1.690963	-0.214915	1.217498
N191	N	1.982854	-0.248878	0.645267
H192	H	2.023130	-0.280177	0.624757
H193	H	1.970700	-0.192106	0.599193
H194	H	1.688377	0.043455	1.089811
H195	H	1.587801	-0.117147	1.030207
N196	N	2.022896	-0.398844	0.820756
H197	H	2.007522	-0.388297	0.723850
H198	H	1.989127	-0.427689	0.847447
N199	N	1.612691	0.192295	0.673478
H200	H	1.615933	0.238495	0.724237
H201	H	1.562803	0.197886	0.613218
H202	H	1.415262	-0.593809	0.393460
N203	N	1.641395	-0.585746	0.382303
H204	H	1.606829	-0.596392	0.300403
H205	H	1.631871	-0.611716	0.458734
N206	N	1.611756	0.041014	0.573039
H207	H	1.614393	-0.016042	0.555242
H208	H	1.644607	0.066659	0.538332
N209	N	1.945089	0.041014	0.573039
H210	H	1.947726	-0.016042	0.555242
H211	H	1.977940	0.066659	0.538332
H212	H	2.021710	0.043455	1.089811
N213	N	1.110792	-0.085832	0.996602
H214	H	1.109824	-0.036113	1.039112
H215	H	1.122677	-0.134710	1.063606
N216	N	1.411082	-0.336420	0.398951
H217	H	1.426426	-0.344883	0.322391
H218	H	1.451402	-0.360274	0.480713
N219	N	1.517838	-0.885569	0.397343
H220	H	1.513888	-0.943582	0.395517
H221	H	1.555648	-0.880618	0.479387
H222	H	1.261153	-0.611455	0.376732
H223	H	1.552144	-0.118280	0.789360
N224	N	1.418888	-0.111849	0.622117
H225	H	1.461868	-0.115111	0.595228
H226	H	1.383874	-0.061162	0.575414
N227	N	1.175828	-0.096010	0.596197
H228	H	1.201358	-0.146994	0.579033
H229	H	1.188543	-0.048399	0.554589
H230	H	1.729349	-0.346266	0.397126
N231	N	1.257534	-0.093371	1.148039
H232	H	1.292537	-0.144046	1.194852
H233	H	1.214525	-0.090071	1.174840
N234	N	1.507367	-0.491490	0.370269
H235	H	1.521876	-0.550729	0.370425
H236	H	1.467036	-0.467597	0.288542
