data_functionalizedCrystal
_audit_creation_method	'MofGen! by Chris Wilmer'
_symmetry_space_group_name_H-M	'P1'
_symmetry_Int_Tables_number	1
_symmetry_cell_setting	triclinic
loop_
_symmetry_equiv_pos_as_xyz
  x,y,z
_cell_length_a	23.096457
_cell_length_b	20.016444
_cell_length_c	20.016444
_cell_angle_alpha	90.002955
_cell_angle_beta	59.999727
_cell_angle_gamma	60.003316
loop_
_atom_site_label
_atom_site_type_symbol
_atom_site_fract_x
_atom_site_fract_y
_atom_site_fract_z
Zr1	Zr	0.633768	0.643594	-0.087664
O2	O	0.754556	0.536919	-0.194340
O3	O	0.512981	0.676293	-0.054964
O4	O	0.633774	0.676289	-0.194342
O5	O	0.633758	0.536929	0.054983
O6	O	0.633778	0.786229	-0.194342
O7	O	0.633762	0.536923	-0.054962
O8	O	0.417701	0.786236	0.054979
O9	O	0.849835	0.536922	-0.194338
O10	O	0.562666	0.772288	-0.041016
O11	O	0.562659	0.690246	0.041034
O12	O	0.704877	0.690241	-0.123065
O13	O	0.704871	0.608199	-0.041014
Zr14	Zr	0.633768	0.818945	0.087685
Zr15	Zr	0.633775	0.818935	-0.087665
Zr16	Zr	0.633761	0.643603	0.087685
Zr17	Zr	0.785727	0.643598	-0.087662
Zr18	Zr	0.481809	0.818940	0.087682
O19	O	0.754556	0.786246	0.054985
O20	O	0.754566	0.786232	-0.194340
O21	O	0.754545	0.536933	0.054985
O22	O	0.512981	0.925619	0.194360
O23	O	0.512991	0.925606	-0.054965
O24	O	0.512970	0.676306	0.194360
O25	O	0.633778	0.925609	-0.054963
O26	O	0.633762	0.786249	0.194362
O27	O	0.633758	0.676310	0.194363
O28	O	0.633774	0.925615	0.054983
O29	O	0.849841	0.676295	-0.194338
O30	O	0.417696	0.786243	0.194359
O31	O	0.417701	0.925616	0.194358
O32	O	0.417707	0.925609	0.054979
O33	O	0.849829	0.536930	-0.054958
O34	O	0.849835	0.676303	-0.054958
O35	O	0.562659	0.772297	0.123085
O36	O	0.562666	0.854340	0.041034
O37	O	0.704877	0.772293	-0.041014
O38	O	0.704871	0.690250	0.041037
C39	C	0.443690	0.731264	0.000007
C40	C	0.379179	0.731262	0.000006
C41	C	-0.028852	0.670714	-0.060559
C42	C	0.031767	0.670706	-0.060559
C43	C	0.009589	0.731275	0.000010
C44	C	-0.073216	0.791844	0.060595
C45	C	-0.133833	0.791844	0.060597
N46	N	0.065693	0.803101	0.018348
N47	N	0.123280	0.803097	0.018341
C48	C	0.192219	0.731276	0.000007
N49	N	0.201406	0.659455	-0.018335
N50	N	0.143816	0.659459	-0.018332
C51	C	0.075311	0.731281	0.000014
C52	C	0.340744	0.670701	-0.060570
C53	C	0.401362	0.670693	-0.060564
C54	C	0.296376	0.791837	0.060586
C55	C	0.235761	0.791838	0.060583
C56	C	0.257950	0.731270	0.000001
C57	C	0.633759	0.511944	0.000011
C58	C	0.633756	0.437507	0.000011
C59	C	0.559532	0.309067	0.042841
C60	C	0.559536	0.239122	0.042843
C61	C	0.708010	0.153473	-0.042822
C62	C	0.708005	0.223417	-0.042818
C63	C	0.633764	0.301214	0.000011
C64	C	0.633772	0.161324	0.000010
C65	C	0.633776	0.085487	0.000012
C66	C	0.633760	0.377057	0.000010
C67	C	0.823846	0.731275	0.000014
C68	C	0.888357	0.731277	0.000015
C69	C	0.633777	0.731258	-0.219326
C70	C	0.633780	0.731254	-0.293766
C71	C	0.633777	0.950595	0.000010
C72	C	0.633780	1.025032	0.000010
C73	C	0.708004	0.688440	-0.507851
C74	C	0.708000	0.688447	-0.577792
C75	C	0.559527	0.774104	-0.492121
C76	C	0.559531	0.774101	-0.422181
C77	C	0.633772	0.731265	-0.430049
C78	C	0.633764	0.731274	-0.569930
C79	C	0.633760	0.731281	-0.645763
C80	C	0.633777	0.731258	-0.354212
C81	C	0.633759	0.731281	0.219346
C82	C	0.633756	0.731285	0.293787
C83	C	0.443699	0.950589	0.000007
C84	C	0.379191	1.025024	0.000005
C85	C	0.443681	0.731275	0.219343
C86	C	0.379167	0.731277	0.293782
C87	C	0.443690	0.950601	0.219342
C88	C	0.379179	1.025040	0.293782
C89	C	0.823846	0.511938	-0.219322
C90	C	0.888357	0.437499	-0.293761
C91	C	0.823837	0.511949	0.000014
C92	C	0.888345	0.437514	0.000015
C93	C	0.823855	0.731263	-0.219322
C94	C	0.888369	0.731261	-0.293762
C95	C	0.348898	1.017150	-0.042832
C96	C	0.288294	1.087083	-0.042850
C97	C	0.257982	1.164890	-0.000024
C98	C	0.288281	1.172762	0.042814
C99	C	0.348887	1.102830	0.042827
C100	C	0.348871	0.774108	0.371577
C101	C	0.288262	0.774107	0.441527
C102	C	0.257946	0.731279	0.433681
C103	C	0.288248	0.688443	0.355879
C104	C	0.348860	0.688440	0.285930
C105	C	0.348888	1.102830	0.285910
C106	C	0.288282	1.172780	0.355847
C107	C	0.257964	1.164938	0.433655
C108	C	0.288261	1.087140	0.441526
C109	C	0.348870	1.017192	0.371589
C110	C	0.918656	0.359709	-0.285889
C111	C	0.979281	0.289758	-0.355826
C112	C	1.009602	0.297600	-0.433634
C113	C	0.979301	0.375399	-0.441505
C114	C	0.918681	0.445347	-0.371569
C115	C	0.918645	0.445389	0.042845
C116	C	0.979265	0.375456	0.042844
C117	C	1.009580	0.297649	0.000016
C118	C	0.979277	0.289776	-0.042820
C119	C	0.918663	0.359708	-0.042822
C120	C	0.918666	0.774097	-0.285890
C121	C	0.979275	0.774111	-0.355827
C122	C	1.009591	0.731284	-0.433635
C123	C	0.979289	0.688447	-0.441505
C124	C	0.918676	0.688438	-0.371569
H125	H	0.358812	0.621382	-0.109899
H126	H	0.208612	1.221901	0.490595
Br127	Br	0.877517	0.349043	-0.180301
H128	H	0.263620	1.236120	0.349424
Br129	Br	0.808748	0.630329	-0.683380
Br130	Br	0.458776	0.832230	-0.481449
H131	H	0.499089	0.245524	0.077720
Br132	Br	0.144141	0.588509	-0.142773
H133	H	0.893992	0.808972	-0.222540
Br134	Br	0.458777	0.414647	0.100968
Br135	Br	-0.246201	0.874042	0.142813
Br136	Br	0.247149	0.832247	0.547106
Br137	Br	0.389966	0.630310	0.180354
Br138	Br	0.389996	0.832243	0.382247
H139	H	0.768454	0.090123	-0.077692
Br140	Br	0.808759	0.630311	-0.518530
H141	H	0.263567	1.080767	0.504887
Br142	Br	1.020448	0.630319	-0.547109
Br143	Br	0.458780	0.832225	-0.316585
H144	H	1.058946	0.731297	-0.490575
H145	H	0.208631	1.221826	-0.000040
Br146	Br	0.247096	0.630324	0.345245
H147	H	0.894015	0.653552	-0.377990
Br148	Br	0.390026	0.911564	-0.100962
H149	H	0.263632	1.080657	-0.077734
Br150	Br	0.808756	0.212759	-0.100941
Br151	Br	0.513730	0.588485	-0.142771
Br152	Br	-0.103317	0.874040	0.142801
H153	H	0.263591	1.236122	0.077681
H154	H	1.003927	0.381882	0.077729
H155	H	0.208592	0.731289	0.490645
H156	H	0.373564	1.109230	0.222560
Br157	Br	0.389969	0.911622	0.382288
Br158	Br	0.389989	1.113532	0.100974
Br159	Br	1.020390	0.832248	-0.345126
H160	H	0.278317	0.841150	0.109906
Br161	Br	0.001264	0.588510	-0.142772
Br162	Br	0.877519	0.550975	0.100973
Br163	Br	1.091844	0.202748	0.000028
H164	H	1.003942	0.226419	-0.349402
H165	H	1.058962	0.240637	-0.490574
Br166	Br	1.020458	0.386027	-0.547109
H167	H	1.003969	0.226417	-0.077689
Br168	Br	0.877564	0.550917	-0.382268
H169	H	0.168346	0.841158	0.109906
Br170	Br	0.877545	0.349007	-0.100951
