data_functionalizedCrystal
_audit_creation_method	'MofGen! by Chris Wilmer'
_symmetry_space_group_name_H-M	'P1'
_symmetry_Int_Tables_number	1
_symmetry_cell_setting	triclinic
loop_
_symmetry_equiv_pos_as_xyz
  x,y,z
_cell_length_a	14.519709
_cell_length_b	8.559649
_cell_length_c	7.088929
_cell_angle_alpha	95.344185
_cell_angle_beta	83.779193
_cell_angle_gamma	76.729405
loop_
_atom_site_label
_atom_site_type_symbol
_atom_site_fract_x
_atom_site_fract_y
_atom_site_fract_z
O1	O	-1.198225	-0.225782	-0.158735
O2	O	-0.927974	-0.250449	-0.158792
O3	O	-1.086909	-0.005581	-0.158756
O4	O	-1.039290	-0.470650	-0.158770
O5	O	-1.108154	0.027217	0.159224
O6	O	-0.949219	-0.217651	0.159188
O7	O	-1.219470	-0.192984	0.159245
Cu8	Cu	-1.086285	-0.202323	0.188251
Cu9	Cu	-1.061160	-0.241111	-0.187797
O10	O	-1.060535	-0.437852	0.159210
C11	C	-1.101140	0.070337	0.000231
C12	C	-1.111881	0.247686	0.000223
C13	C	-0.904319	-0.232902	0.000190
C14	C	-0.802183	-0.229460	0.000168
C15	C	-1.243125	-0.210532	0.000259
C16	C	-1.345260	-0.213975	0.000268
C17	C	-0.428203	-0.216772	0.000256
C18	C	-0.532257	-0.220295	0.000231
C19	C	-0.615190	-0.223116	0.000210
C20	C	-0.719250	-0.226640	0.000189
C21	C	-1.046304	-0.513771	0.000218
C22	C	-1.035562	-0.691121	0.000214
N23	N	-1.103963	-0.175040	0.452743
N24	N	-1.043489	-0.268380	-0.452289
H25	H	-1.185445	0.330985	0.000254
H26	H	-0.962005	0.225592	0.000204
H27	H	-0.980816	-0.365107	0.466050
H28	H	-1.166646	-0.078319	0.534413
