data_functionalizedCrystal
_audit_creation_method	'MofGen! by Chris Wilmer'
_symmetry_space_group_name_H-M	'P1'
_symmetry_Int_Tables_number	1
_symmetry_cell_setting	triclinic
loop_
_symmetry_equiv_pos_as_xyz
  x,y,z
_cell_length_a	19.805407
_cell_length_b	19.805405
_cell_length_c	19.805382
_cell_angle_alpha	89.900407
_cell_angle_beta	89.928521
_cell_angle_gamma	90.024042
loop_
_atom_site_label
_atom_site_type_symbol
_atom_site_fract_x
_atom_site_fract_y
_atom_site_fract_z
Zn1	Zn	1.035093	-0.269040	-0.382693
Zn2	Zn	1.368426	0.064294	-0.049360
Zn3	Zn	1.701760	0.397627	0.283973
Zn4	Zn	1.034901	-0.382372	-0.269507
Zn5	Zn	1.368234	-0.049039	0.063827
Zn6	Zn	1.701568	0.284294	0.397160
Zn7	Zn	0.921801	-0.269197	-0.269521
Zn8	Zn	1.255135	0.064136	0.063812
Zn9	Zn	1.588468	0.397469	0.397146
Zn10	Zn	0.921870	-0.382187	-0.382657
Zn11	Zn	1.255204	-0.048854	-0.049324
Zn12	Zn	1.588537	0.284480	0.284009
O13	O	0.978416	-0.325699	-0.326095
O14	O	1.311750	0.007634	0.007239
O15	O	1.645083	0.340968	0.340572
O16	O	1.129784	-0.284085	-0.367688
O17	O	1.463117	0.049248	-0.034355
O18	O	1.796451	0.382581	0.298979
O19	O	1.019789	-0.367503	-0.174792
O20	O	1.353122	-0.034170	0.158542
O21	O	1.686456	0.299164	0.491875
O22	O	0.936881	-0.174460	-0.284555
O23	O	1.270215	0.158874	0.048779
O24	O	1.603548	0.492207	0.382112
O25	O	1.129643	-0.367350	-0.284530
O26	O	1.462976	-0.034017	0.048803
O27	O	1.796310	0.299316	0.382136
O28	O	1.020116	-0.174344	-0.367702
O29	O	1.353449	0.158989	-0.034369
O30	O	1.686783	0.492323	0.298965
O31	O	0.936695	-0.284354	-0.174802
O32	O	1.270029	0.048980	0.158531
O33	O	1.603362	0.382313	0.491864
O34	O	0.827094	-0.284174	-0.284520
O35	O	1.160427	0.049159	0.048814
O36	O	1.493761	0.382493	0.382147
O37	O	0.936999	-0.367034	-0.477379
O38	O	1.270332	-0.033701	-0.144046
O39	O	1.603665	0.299633	0.189288
O40	O	0.827145	-0.367187	-0.367640
O41	O	1.160478	-0.033854	-0.034307
O42	O	1.493811	0.299480	0.299026
O43	O	1.020183	-0.283905	-0.477405
O44	O	1.353516	0.049428	-0.144072
O45	O	1.686849	0.382761	0.189261
O46	O	1.019856	-0.477064	-0.284495
O47	O	1.353189	-0.143731	0.048838
O48	O	1.686522	0.189602	0.382171
O49	O	0.936813	-0.476928	-0.367626
O50	O	1.270146	-0.143595	-0.034293
O51	O	1.603479	0.189739	0.299040
C52	C	0.802560	-0.325678	-0.326078
C53	C	1.135894	0.007655	0.007255
C54	C	1.469227	0.340989	0.340589
C55	C	0.727328	-0.325685	-0.326087
C56	C	1.060662	0.007648	0.007246
C57	C	1.393995	0.340982	0.340580
C58	C	0.692058	-0.282406	-0.369453
C59	C	1.025392	0.050928	-0.036120
C60	C	1.358725	0.384261	0.297213
C61	C	0.621370	-0.282409	-0.369456
C62	C	0.954703	0.050924	-0.036123
C63	C	1.288037	0.384258	0.297211
C64	C	0.585953	-0.325696	-0.326095
C65	C	0.919286	0.007637	0.007238
C66	C	1.252620	0.340971	0.340571
C67	C	0.621228	-0.368978	-0.282724
C68	C	0.954561	-0.035644	0.050609
C69	C	1.287895	0.297689	0.383942
C70	C	0.691915	-0.368970	-0.282719
C71	C	1.025248	-0.035637	0.050614
C72	C	1.358582	0.297697	0.383948
C73	C	0.336155	-0.369008	-0.282745
C74	C	0.669488	-0.035675	0.050588
C75	C	1.002821	0.297659	0.383921
C76	C	0.265462	-0.369014	-0.282756
C77	C	0.598796	-0.035680	0.050578
C78	C	0.932129	0.297653	0.383911
C79	C	0.265610	-0.282447	-0.369482
C80	C	0.598943	0.050886	-0.036149
C81	C	0.932276	0.384220	0.297185
C82	C	0.336297	-0.282440	-0.369477
C83	C	0.669630	0.050894	-0.036143
C84	C	1.002963	0.384227	0.297190
C85	C	0.371565	-0.325718	-0.326104
C86	C	0.704899	0.007615	0.007230
C87	C	1.038232	0.340949	0.340563
C88	C	0.448214	-0.325713	-0.326100
C89	C	0.781547	0.007620	0.007233
C90	C	1.114881	0.340954	0.340566
C91	C	0.509306	-0.325705	-0.326101
C92	C	0.842639	0.007628	0.007232
C93	C	1.175972	0.340961	0.340565
C94	C	0.978339	-0.501555	-0.326070
C95	C	1.311673	-0.168222	0.007263
C96	C	1.645006	0.165112	0.340597
C97	C	0.978368	-0.576787	-0.326082
C98	C	1.311702	-0.243454	0.007251
C99	C	1.645035	0.089880	0.340584
C100	C	1.021683	-0.612013	-0.369411
C101	C	1.355016	-0.278679	-0.036078
C102	C	1.688350	0.054654	0.297256
C103	C	1.021707	-0.682701	-0.369423
C104	C	1.355041	-0.349368	-0.036090
C105	C	1.688374	-0.016034	0.297243
C106	C	0.978420	-0.718163	-0.326104
C107	C	1.311753	-0.384829	0.007230
C108	C	1.645087	-0.051496	0.340563
C109	C	0.935100	-0.682932	-0.282773
C110	C	1.268434	-0.349599	0.050560
C111	C	1.601767	-0.016265	0.383894
C112	C	0.935073	-0.612245	-0.282764
C113	C	1.268406	-0.278912	0.050569
C114	C	1.601740	0.054422	0.383902
C115	C	0.935209	-0.968005	-0.282808
C116	C	1.268543	-0.634672	0.050526
C117	C	1.601876	-0.301339	0.383859
C118	C	0.935241	-1.038697	-0.282818
C119	C	1.268575	-0.705364	0.050515
C120	C	1.601908	-0.372031	0.383848
C121	C	1.021843	-1.038461	-0.369467
C122	C	1.355177	-0.705128	-0.036134
C123	C	1.688510	-0.371795	0.297200
C124	C	1.021816	-0.967774	-0.369458
C125	C	1.355149	-0.634441	-0.036125
C126	C	1.688483	-0.301108	0.297208
C127	C	0.978494	-0.932550	-0.326130
C128	C	1.311828	-0.599217	0.007203
C129	C	1.645161	-0.265883	0.340536
C130	C	0.978468	-0.855902	-0.326118
C131	C	1.311801	-0.522568	0.007215
C132	C	1.645134	-0.189235	0.340548
C133	C	0.978450	-0.794810	-0.326112
C134	C	1.311783	-0.461476	0.007222
C135	C	1.645116	-0.128143	0.340555
C136	C	1.154959	-0.325721	-0.326111
C137	C	1.488292	0.007613	0.007222
C138	C	1.821626	0.340946	0.340555
C139	C	1.230191	-0.325730	-0.326119
C140	C	1.563524	0.007603	0.007215
C141	C	1.896858	0.340937	0.340548
C142	C	0.978620	-0.325432	-0.502638
C143	C	1.311953	0.007902	-0.169305
C144	C	1.645287	0.341235	0.164029
C145	C	0.978707	-0.325317	-0.577870
C146	C	1.312040	0.008016	-0.244537
C147	C	1.645373	0.341349	0.088797
C148	C	0.978512	-0.149156	-0.326134
C149	C	1.311846	0.184177	0.007199
C150	C	1.645179	0.517510	0.340533
C151	C	0.978553	-0.073924	-0.326151
C152	C	1.311887	0.259409	0.007183
C153	C	1.645220	0.592742	0.340516
C154	C	0.978253	-0.325917	-0.150238
C155	C	1.311586	0.007417	0.183095
C156	C	1.644919	0.340750	0.516429
C157	C	0.978297	-0.325840	-0.075006
C158	C	1.311631	0.007493	0.258327
C159	C	1.644964	0.340827	0.591660
C160	C	1.021673	-0.281763	0.386578
C161	C	1.355006	0.051571	0.719912
C162	C	1.688339	0.384904	1.053245
C163	C	1.021613	-0.281834	0.315890
C164	C	1.354946	0.051499	0.649223
C165	C	1.688279	0.384833	0.982557
C166	C	0.978589	-0.325464	0.280755
C167	C	1.311923	0.007869	0.614088
C168	C	1.645256	0.341202	0.947421
C169	C	0.935618	-0.369021	0.316311
C170	C	1.268952	-0.035688	0.649645
C171	C	1.602285	0.297645	0.982978
C172	C	0.935676	-0.368946	0.386998
C173	C	1.269009	-0.035613	0.720332
C174	C	1.602342	0.297721	1.053665
C175	C	0.935386	-0.369326	0.031239
C176	C	1.268720	-0.035992	0.364572
C177	C	1.602053	0.297341	0.697905
C178	C	0.935334	-0.369399	-0.039453
C179	C	1.268667	-0.036066	0.293880
C180	C	1.602001	0.297268	0.627213
C181	C	1.021323	-0.282214	-0.039870
C182	C	1.354657	0.051120	0.293464
C183	C	1.687990	0.384453	0.626797
C184	C	1.021381	-0.282138	0.030817
C185	C	1.354714	0.051195	0.364151
C186	C	1.688047	0.384528	0.697484
C187	C	0.978407	-0.325692	0.066368
C188	C	1.311741	0.007641	0.399701
C189	C	1.645074	0.340974	0.733034
C190	C	0.978472	-0.325613	0.143016
C191	C	1.311806	0.007720	0.476349
C192	C	1.645139	0.341053	0.809683
C193	C	0.978528	-0.325547	0.204108
C194	C	1.311861	0.007786	0.537441
C195	C	1.645194	0.341120	0.870774
H196	H	0.236628	-0.404265	-0.247444
H197	H	0.569961	-0.070931	0.085890
H198	H	0.903294	0.262402	0.419223
Br199	Br	0.573163	-0.427720	-0.223872
Br200	Br	0.906496	-0.094386	0.109462
Br201	Br	1.239829	0.238947	0.442795
Br202	Br	1.079645	-0.223102	-0.088120
Br203	Br	1.412978	0.110231	0.245213
Br204	Br	1.746311	0.443564	0.578546
Br205	Br	0.739783	-0.427708	-0.223861
Br206	Br	1.073116	-0.094375	0.109472
Br207	Br	1.406449	0.238959	0.442805
Br208	Br	1.079775	-0.222927	0.078498
Br209	Br	1.413109	0.110406	0.411831
Br210	Br	1.746442	0.443739	0.745164
Br211	Br	0.877064	-0.428433	0.079477
Br212	Br	1.210397	-0.095100	0.412810
Br213	Br	1.543731	0.238233	0.746144
Br214	Br	0.876407	-0.920210	-0.224014
Br215	Br	1.209740	-0.586876	0.109319
Br216	Br	1.543074	-0.253543	0.442653
Br217	Br	1.080439	-0.563893	-0.428200
Br218	Br	1.413772	-0.230560	-0.094867
Br219	Br	1.747106	0.102773	0.238466
H220	H	1.056984	-0.711379	-0.404701
H221	H	1.390317	-0.378045	-0.071367
H222	H	1.723651	-0.044712	0.261966
Br223	Br	0.876942	-0.428617	-0.087137
Br224	Br	1.210275	-0.095283	0.246196
Br225	Br	1.543609	0.238050	0.579530
Br226	Br	0.877224	-0.428231	0.268628
Br227	Br	1.210558	-0.094897	0.601962
Br228	Br	1.543891	0.238436	0.935295
H229	H	0.364862	-0.404249	-0.247429
H230	H	0.698195	-0.070915	0.085905
H231	H	1.031529	0.262418	0.419238
Br232	Br	0.877358	-0.428054	0.435248
Br233	Br	1.210691	-0.094721	0.768581
Br234	Br	1.544024	0.238612	1.101915
Br235	Br	1.080070	-0.222552	0.434255
Br236	Br	1.413404	0.110782	0.767588
Br237	Br	1.746737	0.444115	1.100922
H238	H	0.720890	-0.247158	-0.404764
H239	H	1.054223	0.086175	-0.071431
H240	H	1.387557	0.419509	0.261902
H241	H	1.057116	-1.067150	-0.404749
H242	H	1.390449	-0.733816	-0.071415
H243	H	1.723783	-0.400483	0.261918
Br244	Br	0.573506	-0.223670	-0.428313
Br245	Br	0.906839	0.109663	-0.094980
Br246	Br	1.240172	0.442996	0.238354
H247	H	0.365130	-0.247193	-0.404788
H248	H	0.698463	0.086140	-0.071454
H249	H	1.031796	0.419474	0.261879
H250	H	1.057067	-0.938904	-0.404731
H251	H	1.390400	-0.605570	-0.071398
H252	H	1.723734	-0.272237	0.261936
Br253	Br	0.876491	-1.086824	-0.224022
Br254	Br	1.209824	-0.753490	0.109311
Br255	Br	1.543157	-0.420157	0.442645
Br256	Br	0.876343	-0.731058	-0.223989
Br257	Br	1.209677	-0.397724	0.109344
Br258	Br	1.543010	-0.064391	0.442677
H259	H	0.236885	-0.247205	-0.404796
H260	H	0.570218	0.086128	-0.071463
H261	H	0.903552	0.419462	0.261870
H262	H	0.899801	-0.583565	-0.247483
H263	H	1.233134	-0.250232	0.085851
H264	H	1.566468	0.083102	0.419184
H265	H	1.056602	-0.246369	0.286947
H266	H	1.389935	0.086965	0.620280
H267	H	1.723268	0.420298	0.953614
