data_functionalizedCrystal
_audit_creation_method	'MofGen! by Chris Wilmer'
_symmetry_space_group_name_H-M	'P1'
_symmetry_Int_Tables_number	1
_symmetry_cell_setting	triclinic
loop_
_symmetry_equiv_pos_as_xyz
  x,y,z
_cell_length_a	6.817900
_cell_length_b	9.514072
_cell_length_c	16.255661
_cell_angle_alpha	91.323020
_cell_angle_beta	103.488922
_cell_angle_gamma	118.843421
loop_
_atom_site_label
_atom_site_type_symbol
_atom_site_fract_x
_atom_site_fract_y
_atom_site_fract_z
V1	V	-4.111881	-0.223505	-0.264538
O2	O	-4.010606	0.009405	-0.258820
O3	O	-4.146651	-0.441889	-0.263385
O4	O	-4.062356	-0.220653	-0.379613
O5	O	-4.095485	-0.213362	-0.141788
V6	V	-4.584878	-0.195577	-0.249776
O7	O	-4.396230	-0.284767	-0.296919
O8	O	-4.750727	-0.134315	-0.217395
O9	O	-4.326902	0.022807	-0.250929
O10	O	-4.803550	-0.428487	-0.255494
O11	O	-4.718672	-0.205720	-0.372527
O12	O	-4.411196	-0.198429	-0.134702
C13	C	-4.011921	-0.495108	-0.259381
C14	C	-4.121629	-0.673643	-0.259205
C15	C	-3.904393	-0.212897	-0.407640
C16	C	-3.945735	-0.212010	-0.501719
C17	C	-3.852254	-0.201415	-0.724506
C18	C	-4.060779	-0.338160	-0.794390
C19	C	-4.021486	-0.210347	-0.673962
C20	C	-3.886655	-0.072037	-0.771711
C21	C	-4.094639	-0.208733	-0.840341
C22	C	-4.229538	-0.347214	-0.742617
C23	C	-4.055307	-0.080971	-0.719922
C24	C	-4.263983	-0.217754	-0.789787
C25	C	-3.979340	-0.211278	-0.578116
C26	C	-4.136807	-0.207815	-0.936187
C27	C	-4.124977	0.076017	-0.254931
C28	C	-3.994508	0.254551	-0.255112
C29	C	-4.232504	-0.206190	-0.106670
C30	C	-4.170397	-0.207069	-0.012590
H31	H	-3.801719	-0.670327	-0.251700
O32	O	-3.644483	-0.193601	-0.690413
C33	C	-3.681941	-0.331836	-0.651365
H34	H	-3.854086	-0.384434	-0.634132
H35	H	-3.688708	-0.426961	-0.697664
C36	C	-3.269746	-0.218683	-0.590613
C37	C	-3.481168	-0.283277	-0.569441
H38	H	-3.145896	-0.188733	-0.540081
H39	H	-3.244507	-0.125554	-0.616923
H40	H	-3.275418	-0.297965	-0.629197
H41	H	-3.475504	-0.203988	-0.530867
H42	H	-3.506401	-0.376392	-0.543123
O43	O	-4.351543	-0.763389	-0.263151
C44	C	-4.375498	-0.838804	-0.189617
H45	H	-4.214435	-0.849302	-0.161341
H46	H	-4.394676	-0.762818	-0.140152
C47	C	-4.791147	-0.996753	-0.249040
C48	C	-4.593335	-1.009659	-0.214314
H49	H	-4.925524	-1.102141	-0.264272
H50	H	-4.775011	-0.945941	-0.298580
H51	H	-4.807097	-0.933425	-0.207813
H52	H	-4.577372	-1.072968	-0.255544
H53	H	-4.609474	-1.060486	-0.164782
O54	O	-4.063658	-0.467742	-0.833006
C55	C	-3.846889	-0.458722	-0.799542
H56	H	-3.707338	-0.327285	-0.771595
H57	H	-3.859469	-0.537590	-0.747065
C58	C	-3.953017	-0.681314	-0.905956
C59	C	-3.781614	-0.519879	-0.871636
H60	H	-3.912754	-0.719045	-0.950424
H61	H	-4.099063	-0.687396	-0.928499
H62	H	-3.963484	-0.747017	-0.862217
H63	H	-3.771170	-0.454176	-0.915372
H64	H	-3.635564	-0.513787	-0.849101
H65	H	-4.374118	-0.463635	-0.729497
H66	H	-4.438502	-0.224699	-0.818154
O67	O	-4.051532	0.048929	-0.681240
C68	C	-3.869969	0.193701	-0.695564
H69	H	-3.732739	0.169129	-0.710241
H70	H	-3.943457	0.239378	-0.752156
C71	C	-3.926293	0.353513	-0.596909
C72	C	-3.757735	0.323336	-0.614929
H73	H	-3.857067	0.433482	-0.547172
H74	H	-4.048622	0.255978	-0.587261
H75	H	-3.987519	0.391568	-0.644075
H76	H	-3.696534	0.285263	-0.567767
H77	H	-3.635393	0.420868	-0.624567
O78	O	-3.713927	0.066674	-0.787392
C79	C	-3.497789	0.074715	-0.754038
H80	H	-3.510467	-0.003235	-0.701127
H81	H	-3.451080	0.027743	-0.807329
C82	C	-3.292091	0.347987	-0.782079
C83	C	-3.307657	0.252258	-0.717087
H84	H	-3.174805	0.457504	-0.759289
H85	H	-3.437707	0.342569	-0.804553
H86	H	-3.253176	0.308825	-0.826483
H87	H	-3.346600	0.291408	-0.672690
H88	H	-3.162043	0.257687	-0.694604
