data_functionalizedCrystal
_audit_creation_method	'MofGen! by Chris Wilmer'
_symmetry_space_group_name_H-M	'P1'
_symmetry_Int_Tables_number	1
_symmetry_cell_setting	triclinic
loop_
_symmetry_equiv_pos_as_xyz
  x,y,z
_cell_length_a	14.853567
_cell_length_b	27.731996
_cell_length_c	13.330367
_cell_angle_alpha	89.989375
_cell_angle_beta	89.995418
_cell_angle_gamma	83.128159
loop_
_atom_site_label
_atom_site_type_symbol
_atom_site_fract_x
_atom_site_fract_y
_atom_site_fract_z
O1	O	1.195320	0.063108	-0.083368
O2	O	1.695320	0.563108	0.416632
O3	O	0.932736	0.070626	-0.083387
O4	O	1.432736	0.570626	0.416613
O5	O	1.072208	-0.003493	-0.083355
O6	O	1.572208	0.496507	0.416645
O7	O	1.055848	0.137227	-0.083400
O8	O	1.555848	0.637227	0.416600
O9	O	1.072188	-0.003495	0.083492
O10	O	1.572188	0.496505	0.583492
O11	O	0.932716	0.070624	0.083460
O12	O	1.432716	0.570624	0.583460
O13	O	1.195300	0.063106	0.083479
O14	O	1.695300	0.563106	0.583479
Cu15	Cu	1.064006	0.066865	0.098704
Cu16	Cu	1.564006	0.566865	0.598704
Cu17	Cu	1.064030	0.066867	-0.098612
Cu18	Cu	1.564030	0.566867	0.401388
O19	O	1.055828	0.137226	0.083447
O20	O	1.555828	0.637226	0.583447
C21	C	0.899143	0.070284	0.000035
C22	C	1.399143	0.570284	0.500035
C23	C	0.799076	0.069264	0.000028
C24	C	1.299076	0.569264	0.500028
C25	C	1.071862	-0.021503	0.000072
C26	C	1.571862	0.478497	0.500072
C27	C	1.070849	-0.075164	0.000082
C28	C	1.570849	0.424836	0.500082
C29	C	0.387345	0.020920	0.000066
C30	C	0.887345	0.520920	0.500066
C31	C	0.364601	0.108976	0.000037
C32	C	0.864601	0.608976	0.500037
C33	C	0.458619	0.109935	0.000034
C34	C	0.958619	0.609935	0.500034
C35	C	0.517005	0.066387	0.000045
C36	C	1.017005	0.566387	0.500045
C37	C	0.481372	0.021879	0.000060
C38	C	0.981372	0.521879	0.500060
C39	C	0.494259	0.154443	0.000009
C40	C	0.994259	0.654443	0.500009
C41	C	0.588282	0.155404	0.000004
C42	C	1.088282	0.655404	0.500004
C43	C	0.646669	0.111855	0.000023
C44	C	1.146669	0.611855	0.500023
C45	C	0.611031	0.067345	0.000039
C46	C	1.111031	0.567345	0.500039
C47	C	0.669417	0.023797	0.000050
C48	C	1.169417	0.523797	0.500050
C49	C	0.633781	-0.020714	0.000073
C50	C	1.133781	0.479286	0.500073
C51	C	0.539760	-0.021670	0.000078
C52	C	1.039760	0.478330	0.500078
C53	C	0.740691	0.112812	0.000017
C54	C	1.240691	0.612812	0.500017
C55	C	0.763444	0.024755	0.000043
C56	C	1.263444	0.524755	0.500043
C57	C	1.064492	-0.407909	-0.090916
C58	C	1.564492	0.092091	0.409084
C59	C	1.060648	-0.609585	-0.090934
C60	C	1.560648	-0.109585	0.409066
O61	O	1.060122	-0.635658	-0.168283
O62	O	1.560122	-0.135658	0.331717
N63	N	1.060160	-0.634806	0.000014
N64	N	1.560160	-0.134806	0.500014
C65	C	1.060626	-0.609603	0.090972
C66	C	1.560626	-0.109603	0.590972
O67	O	1.060114	-0.635682	0.168328
O68	O	1.560114	-0.135682	0.668328
C69	C	1.064464	-0.407928	0.090989
C70	C	1.564464	0.092072	0.590989
C71	C	1.064961	-0.382711	0.000036
C72	C	1.564961	0.117289	0.500036
C73	C	1.064988	-0.382692	-0.181862
C74	C	1.564988	0.117308	0.318138
C75	C	1.065954	-0.332276	-0.181856
C76	C	1.565954	0.167724	0.318144
C77	C	1.066424	-0.307078	-0.090905
C78	C	1.566424	0.192922	0.409095
C79	C	1.065927	-0.332295	0.000041
C80	C	1.565927	0.167705	0.500041
C81	C	1.064924	-0.382726	0.181946
C82	C	1.564924	0.117274	0.681946
C83	C	1.065881	-0.332304	0.181943
C84	C	1.565881	0.167696	0.681943
C85	C	1.066379	-0.307087	0.090989
C86	C	1.566379	0.192913	0.590989
C87	C	1.067362	-0.256681	0.090998
C88	C	1.567362	0.243319	0.590998
N89	N	1.067851	-0.231461	0.000050
N90	N	1.567851	0.268539	0.500050
C91	C	1.067381	-0.256659	-0.090901
C92	C	1.567381	0.243341	0.409099
C93	C	1.058614	-0.715486	0.090957
C94	C	1.558614	-0.215486	0.590957
C95	C	1.057656	-0.765905	0.090953
C96	C	1.557656	-0.265905	0.590953
C97	C	1.057676	-0.765883	-0.090953
C98	C	1.557676	-0.265883	0.409047
C99	C	1.058640	-0.715464	-0.090948
C100	C	1.558640	-0.215464	0.409052
C101	C	1.059102	-0.690266	0.000009
C102	C	1.559102	-0.190266	0.500009
C103	C	1.069410	-0.150783	-0.090883
C104	C	1.569410	0.349217	0.409117
C105	C	1.070380	-0.100363	-0.090869
C106	C	1.570380	0.399637	0.409131
C107	C	1.070355	-0.100388	0.091036
C108	C	1.570355	0.399612	0.591036
C109	C	1.069390	-0.150804	0.091023
C110	C	1.569390	0.349196	0.591023
C111	C	1.068915	-0.176000	0.000056
C112	C	1.568915	0.324000	0.500056
O113	O	1.067879	-0.230577	0.168306
O114	O	1.567879	0.269423	0.668306
O115	O	1.067874	-0.230571	-0.168246
O116	O	1.567874	0.269429	0.331754
C117	C	1.063526	-0.458325	-0.090921
C118	C	1.563526	0.041675	0.409079
C119	C	1.063030	-0.483542	0.000025
C120	C	1.563030	0.016458	0.500025
C121	C	1.063499	-0.458344	0.090976
C122	C	1.563499	0.041656	0.590976
C123	C	1.062072	-0.533961	0.000021
C124	C	1.562072	-0.033961	0.500021
C125	C	1.061602	-0.559159	-0.090931
C126	C	1.561602	-0.059159	0.409069
C127	C	1.062091	-0.533939	-0.181878
C128	C	1.562091	-0.033939	0.318122
C129	C	1.063057	-0.483524	-0.181873
C130	C	1.563057	0.016476	0.318127
C131	C	1.063011	-0.483564	0.181924
C132	C	1.563011	0.016436	0.681924
C133	C	1.062046	-0.533980	0.181911
C134	C	1.562046	-0.033980	0.681911
C135	C	1.061576	-0.559178	0.090959
C136	C	1.561576	-0.059178	0.590959
C137	C	1.228893	0.063448	0.000055
C138	C	1.728893	0.563448	0.500055
C139	C	1.328960	0.064469	0.000055
C140	C	1.828960	0.564469	0.500055
C141	C	1.056174	0.155235	0.000018
C142	C	1.556174	0.655235	0.500018
C143	C	1.057187	0.208896	0.000002
C144	C	1.557187	0.708896	0.500002
N145	N	1.063996	0.066863	0.237486
N146	N	1.563996	0.566863	0.737486
N147	N	1.064047	0.066865	-0.237393
N148	N	1.564047	0.566865	0.262607
C149	C	1.002269	0.099674	0.710095
C150	C	1.502269	0.599674	1.210095
C151	C	1.125815	0.034056	0.710091
C152	C	1.625815	0.534056	1.210091
C153	C	1.125805	0.034055	0.605072
C154	C	1.625805	0.534055	1.105072
C155	C	1.064027	0.066864	0.552560
C156	C	1.564027	0.566864	1.052560
C157	C	1.002259	0.099675	0.605066
C158	C	1.502259	0.599675	1.105066
C159	C	1.187577	0.001248	0.552558
C160	C	1.687577	0.501248	1.052558
C161	C	1.187570	0.001246	0.447533
C162	C	1.687570	0.501246	0.947533
C163	C	1.125787	0.034053	0.395019
C164	C	1.625787	0.534053	0.895019
C165	C	1.064016	0.066864	0.447532
C166	C	1.564016	0.566864	0.947532
C167	C	1.002239	0.099674	0.395020
C168	C	1.502239	0.599674	0.895020
C169	C	0.940463	0.132483	0.447531
C170	C	1.440463	0.632483	0.947531
C171	C	0.940476	0.132482	0.552553
C172	C	1.440476	0.632482	1.052553
C173	C	1.125774	0.034054	0.289998
C174	C	1.625774	0.534054	0.789998
C175	C	1.002228	0.099674	0.289992
C176	C	1.502228	0.599674	0.789992
H177	H	0.810976	-0.010708	0.000056
H178	H	1.310976	0.489292	0.500056
Cl179	Cl	1.057080	-0.797570	-0.205292
Cl180	Cl	1.557080	-0.297570	0.294708
Cl181	Cl	1.059262	-0.683768	-0.205294
Cl182	Cl	1.559262	-0.183768	0.294706
Cl183	Cl	1.203435	-0.007186	0.223991
Cl184	Cl	1.703435	0.492814	0.723991
Cl185	Cl	0.862824	0.173727	0.618568
Cl186	Cl	1.362824	0.673727	1.118568
H187	H	0.681331	-0.056170	0.000075
H188	H	1.181331	0.443830	0.500075
H189	H	1.063461	-0.462996	-0.255936
H190	H	1.563461	0.037004	0.244064
H191	H	0.510736	-0.057908	0.000121
H192	H	1.010736	0.442092	0.500121
Cl193	Cl	1.071008	-0.068665	-0.205220
Cl194	Cl	1.571008	0.431335	0.294780
H195	H	0.951918	0.126390	0.247243
H196	H	1.451918	0.626390	0.747243
Cl197	Cl	1.066463	-0.300629	0.296297
Cl198	Cl	1.566463	0.199371	0.796297
Cl199	Cl	0.342549	-0.035033	0.000100
Cl200	Cl	0.842549	0.464967	0.500100
Cl201	Cl	0.291203	0.163719	0.000010
Cl202	Cl	0.791203	0.663719	0.500010
Cl203	Cl	1.066571	-0.300582	-0.296205
Cl204	Cl	1.566571	0.199418	0.203795
H205	H	1.061713	-0.554465	-0.255934
H206	H	1.561713	-0.054465	0.244066
H207	H	1.237870	-0.025470	0.404786
H208	H	1.737870	0.474530	0.904786
H209	H	0.890166	0.159199	0.404763
H210	H	1.390166	0.659199	0.904763
Cl211	Cl	0.420858	0.209185	-0.000022
Cl212	Cl	0.920858	0.709185	0.499978
Cl213	Cl	1.063594	-0.451893	0.296275
Cl214	Cl	1.563594	0.048107	0.796275
Cl215	Cl	0.924608	0.140917	0.776102
Cl216	Cl	1.424608	0.640917	1.276102
H217	H	1.058994	-0.694975	0.165030
H218	H	1.558994	-0.194975	0.665030
Cl219	Cl	1.203481	-0.007185	0.776103
Cl220	Cl	1.703481	0.492815	1.276103
Cl221	Cl	0.633073	0.211359	-0.000021
Cl222	Cl	1.133073	0.711359	0.499979
H223	H	0.769701	0.149052	0.000000
H224	H	1.269701	0.649052	0.500000
Cl225	Cl	1.068814	-0.182449	-0.205244
Cl226	Cl	1.568814	0.317551	0.294756
Cl227	Cl	1.057048	-0.797601	0.205299
Cl228	Cl	1.557048	-0.297601	0.705299
Cl229	Cl	1.064400	-0.414361	-0.296217
Cl230	Cl	1.564400	0.085639	0.203783
Cl231	Cl	1.068782	-0.182508	0.205366
Cl232	Cl	1.568782	0.317492	0.705366
Cl233	Cl	1.064293	-0.414415	0.296296
Cl234	Cl	1.564293	0.085585	0.796296
Cl235	Cl	1.070945	-0.068701	0.205369
Cl236	Cl	1.570945	0.431299	0.705369
Cl237	Cl	1.061425	-0.565675	0.296265
Cl238	Cl	1.561425	-0.065675	0.796265
Cl239	Cl	1.265244	-0.039993	0.618570
Cl240	Cl	1.765244	0.460007	1.118570
