data_functionalizedCrystal
_audit_creation_method	'MofGen! by Chris Wilmer'
_symmetry_space_group_name_H-M	'P1'
_symmetry_Int_Tables_number	1
_symmetry_cell_setting	triclinic
loop_
_symmetry_equiv_pos_as_xyz
  x,y,z
_cell_length_a	14.908742
_cell_length_b	14.908579
_cell_length_c	14.908694
_cell_angle_alpha	83.252790
_cell_angle_beta	90.175515
_cell_angle_gamma	90.161388
loop_
_atom_site_label
_atom_site_type_symbol
_atom_site_fract_x
_atom_site_fract_y
_atom_site_fract_z
Zn1	Zn	1.378664	0.465032	-0.457200
Zn2	Zn	1.362201	0.606781	-0.315475
Zn3	Zn	1.220576	0.447716	-0.314500
Zn4	Zn	1.220534	0.607730	-0.474534
O5	O	1.295494	0.531815	-0.390427
O6	O	1.501929	0.490684	-0.431554
O7	O	1.336542	0.578037	-0.189059
O8	O	1.248454	0.323725	-0.325768
O9	O	1.489834	0.594826	-0.327429
O10	O	1.364601	0.336446	-0.430608
O11	O	1.232490	0.461173	-0.188343
O12	O	1.095122	0.462093	-0.342575
O13	O	1.248383	0.596444	-0.598521
O14	O	1.095091	0.579654	-0.460151
O15	O	1.364561	0.491604	-0.585786
O16	O	1.336501	0.733195	-0.344237
O17	O	1.232419	0.733892	-0.461096
C18	C	1.062579	0.519099	-0.403139
C19	C	0.962937	0.513682	-0.408600
C20	C	1.282695	0.766291	-0.404672
C21	C	1.277303	0.866608	-0.410791
C22	C	0.828789	0.451933	-0.470598
C23	C	0.922412	0.457015	-0.465471
C24	C	0.909832	0.565272	-0.356854
C25	C	0.816209	0.560190	-0.361980
C26	C	0.775690	0.503517	-0.418853
C27	C	0.682065	0.498431	-0.423975
C28	C	0.669487	0.606692	-0.315363
C29	C	0.763110	0.611774	-0.310236
C30	C	1.375674	1.054338	-0.300691
C31	C	1.370611	1.148594	-0.306438
C32	C	1.262118	1.149378	-0.428035
C33	C	1.267182	1.055122	-0.422288
C34	C	1.323961	1.007605	-0.358614
C35	C	1.329019	0.913347	-0.352863
C36	C	1.220531	0.914133	-0.474464
C37	C	1.215468	1.008389	-0.480210
C38	C	1.529318	0.544581	-0.377667
C39	C	1.628960	0.550021	-0.372229
C40	C	1.308304	0.546062	-0.625814
C41	C	1.313762	0.552133	-0.726121
C42	C	1.308363	1.296425	-0.376158
C43	C	1.313834	1.196117	-0.370107
C44	C	1.215650	0.441852	-0.913867
C45	C	1.220776	0.447554	-1.008115
C46	C	1.329135	0.569240	-1.008867
C47	C	1.324009	0.563539	-0.914619
C48	C	1.267266	0.499842	-0.867122
C49	C	1.262145	0.494137	-0.772872
C50	C	1.370499	0.615827	-0.773627
C51	C	1.375625	0.621529	-0.867875
C52	C	1.282789	0.517561	-0.155950
C53	C	1.277518	0.511245	-0.055618
H54	H	0.649077	0.452281	-0.470280
H55	H	1.215898	1.188084	-0.479882
O56	O	1.170199	0.868873	-0.530774
C57	C	1.119018	0.931031	-0.588217
H58	H	1.110332	0.995834	-0.555519
H59	H	1.154978	0.946932	-0.655609
C60	C	1.036934	0.810318	-0.644261
C61	C	1.026259	0.889908	-0.604097
H62	H	0.979717	0.784951	-0.654060
H63	H	1.071417	0.768440	-0.605563
H64	H	1.066903	0.823580	-0.700416
H65	H	0.996300	0.876643	-0.547938
H66	H	0.991768	0.931782	-0.642786
H67	H	0.795798	0.405778	-0.516897
H68	H	1.412531	0.663044	-0.735557
H69	H	1.169243	1.047091	-0.532055
O70	O	1.420990	1.193885	-0.250201
C71	C	1.512634	1.176832	-0.263751
H72	H	1.520003	1.110586	-0.294185
H73	H	1.542475	1.234291	-0.311755
C74	C	1.553426	1.251436	-0.135213
C75	C	1.562477	1.170068	-0.172585
H76	H	1.584174	1.247268	-0.078979
H77	H	1.491684	1.262929	-0.126086
H78	H	1.578293	1.299310	-0.175225
H79	H	1.537601	1.122198	-0.132578
H80	H	1.624216	1.158567	-0.181703
O81	O	0.973859	0.406814	-0.515766
C82	C	0.918016	0.355726	-0.567078
H83	H	0.849434	0.346683	-0.533580
H84	H	0.909993	0.392489	-0.638121
C85	C	1.044730	0.273583	-0.613555
C86	C	0.960499	0.262469	-0.572408
H87	H	1.070936	0.216059	-0.616846
H88	H	1.082354	0.308004	-0.578987
H89	H	1.038033	0.304221	-0.672753
H90	H	0.967198	0.231842	-0.513207
H91	H	0.922877	0.228041	-0.606965
H92	H	1.215945	0.442268	-0.734201
O93	O	0.949345	0.620246	-0.301630
C94	C	1.043364	0.613687	-0.308227
H95	H	1.061553	0.546575	-0.332970
H96	H	1.069631	0.671638	-0.358002
C97	C	1.063676	0.701326	-0.184381
C98	C	1.086015	0.618894	-0.214763
H99	H	1.089987	0.704542	-0.126730
H100	H	1.000333	0.705748	-0.179938
H101	H	1.085566	0.749610	-0.225868
H102	H	1.064116	0.570613	-0.173282
H103	H	1.149356	0.614465	-0.219196
O104	O	1.430761	0.683476	-0.913880
C105	C	1.475240	0.733418	-0.852406
H106	H	1.434697	0.730479	-0.787415
H107	H	1.544583	0.703471	-0.836664
C108	C	1.534718	0.836008	-0.974136
C109	C	1.484918	0.832404	-0.894316
H110	H	1.540692	0.897066	-0.999988
H111	H	1.504755	0.802359	-1.015553
H112	H	1.592499	0.811046	-0.961006
H113	H	1.427135	0.857354	-0.907449
H114	H	1.514872	0.866059	-0.852902
O115	O	0.802578	0.666879	-0.255115
C116	C	0.856339	0.731309	-0.306980
H117	H	0.875824	0.704493	-0.372730
H118	H	0.817154	0.796839	-0.322820
C119	C	0.917747	0.782324	-0.172666
C120	C	0.941684	0.749386	-0.253417
H121	H	0.970390	0.793479	-0.139625
H122	H	0.881525	0.738919	-0.137722
H123	H	0.885091	0.836930	-0.185877
H124	H	0.974329	0.694776	-0.240205
H125	H	0.977913	0.792783	-0.288357
O126	O	0.618039	0.656837	-0.265003
C127	C	0.673882	0.707960	-0.213726
H128	H	0.742466	0.674431	-0.204767
H129	H	0.681901	0.779089	-0.250281
C130	C	0.547170	0.754196	-0.131440
C131	C	0.631403	0.713010	-0.120430
H132	H	0.520965	0.757316	-0.073893
H133	H	0.509546	0.719756	-0.165989
H134	H	0.553864	0.813466	-0.161906
H135	H	0.624706	0.653738	-0.089976
H136	H	0.669024	0.747441	-0.085875
O137	O	1.160459	0.379956	-0.867865
C138	C	1.116020	0.329974	-0.929332
H139	H	1.114550	0.370831	-0.998930
H140	H	1.153140	0.263831	-0.933401
C141	C	1.021125	0.259356	-0.811482
C142	C	1.019313	0.309540	-0.896962
H143	H	0.961473	0.246747	-0.791513
H144	H	1.051067	0.293026	-0.770069
H145	H	1.052063	0.204242	-0.814884
H146	H	0.988385	0.364657	-0.893556
H147	H	0.989364	0.275878	-0.938373
O148	O	1.170536	0.391348	-1.053574
C149	C	1.112809	0.442871	-1.114383
H150	H	1.101848	0.511931	-1.090598
H151	H	1.144239	0.451809	-1.184490
C152	C	1.035563	0.308970	-1.147446
C153	C	1.022094	0.393787	-1.118229
H154	H	0.979606	0.278692	-1.149823
H155	H	1.074456	0.274257	-1.106481
H156	H	1.061757	0.316431	-1.205866
H157	H	0.995911	0.386325	-1.059806
H158	H	0.983193	0.428498	-1.159184
H159	H	1.375248	0.874659	-0.301014
H160	H	1.421900	1.015648	-0.248839
H161	H	1.375320	0.621111	-1.047557
