data_functionalizedCrystal
_audit_creation_method	'MofGen! by Chris Wilmer'
_symmetry_space_group_name_H-M	'P1'
_symmetry_Int_Tables_number	1
_symmetry_cell_setting	triclinic
loop_
_symmetry_equiv_pos_as_xyz
  x,y,z
_cell_length_a	12.827892
_cell_length_b	12.759395
_cell_length_c	12.827885
_cell_angle_alpha	89.980613
_cell_angle_beta	89.970214
_cell_angle_gamma	90.016153
loop_
_atom_site_label
_atom_site_type_symbol
_atom_site_fract_x
_atom_site_fract_y
_atom_site_fract_z
Zn1	Zn	-0.415961	1.606247	-0.590852
Zn2	Zn	0.084039	2.106247	-0.090852
Zn3	Zn	-0.590739	1.606140	-0.416112
Zn4	Zn	-0.090739	2.106140	0.083888
Zn5	Zn	-0.416014	1.430550	-0.416125
Zn6	Zn	0.083986	1.930550	0.083875
Zn7	Zn	-0.590663	1.430535	-0.590812
Zn8	Zn	-0.090663	1.930535	-0.090812
O9	O	-0.503344	1.518368	-0.503475
O10	O	-0.003344	2.018368	-0.003475
O11	O	-0.439155	1.753254	-0.567684
O12	O	0.060845	2.253254	-0.067684
O13	O	-0.567615	1.582809	-0.269878
O14	O	-0.067615	2.082809	0.230122
O15	O	-0.269771	1.453907	-0.439325
O16	O	0.230229	1.953907	0.060675
O17	O	-0.567563	1.753175	-0.439303
O18	O	-0.067563	2.253175	0.060697
O19	O	-0.269732	1.582991	-0.567696
O20	O	0.230268	2.082991	-0.067696
O21	O	-0.439246	1.453804	-0.269887
O22	O	0.060754	1.953804	0.230113
O23	O	-0.439173	1.283527	-0.439286
O24	O	0.060827	1.783527	0.060714
O25	O	-0.567435	1.453882	-0.737053
O26	O	-0.067435	1.953882	-0.237053
O27	O	-0.567486	1.283516	-0.567628
O28	O	-0.067486	1.783516	-0.067628
O29	O	-0.439082	1.582976	-0.737083
O30	O	0.060918	2.082976	-0.237083
O31	O	-0.736965	1.582795	-0.439264
O32	O	-0.236965	2.082795	0.060736
O33	O	-0.736909	1.453779	-0.567615
O34	O	-0.236909	1.953779	-0.067615
C35	C	-0.503328	1.245400	-0.503455
C36	C	-0.003328	1.745400	-0.003455
C37	C	-0.503346	1.128624	-0.503471
C38	C	-0.003346	1.628624	-0.003471
C39	C	-0.369874	0.909270	-0.637404
C40	C	0.130126	1.409270	-0.137404
C41	C	-0.303115	0.964177	-0.704341
C42	C	0.196885	1.464177	-0.204341
C43	C	-0.303097	1.073899	-0.704323
C44	C	0.196903	1.573899	-0.204323
C45	C	-0.369847	1.128716	-0.637363
C46	C	0.130153	1.628716	-0.137363
C47	C	-0.436606	1.073809	-0.570426
C48	C	0.063394	1.573809	-0.070426
C49	C	-0.436614	0.964085	-0.570449
C50	C	0.063386	1.464085	-0.070449
C51	C	-0.570105	1.073717	-0.436534
C52	C	-0.070105	1.573717	0.063466
C53	C	-0.570119	0.963995	-0.436545
C54	C	-0.070119	1.463995	0.063455
C55	C	-0.636855	1.128534	-0.369574
C56	C	-0.136855	1.628534	0.130426
C57	C	-0.703609	1.073627	-0.302630
C58	C	-0.203609	1.573627	0.197370
C59	C	-0.703624	0.963899	-0.302650
C60	C	-0.203624	1.463899	0.197350
C61	C	-0.636877	0.909088	-0.369608
C62	C	-0.136877	1.409088	0.130392
C63	C	-0.774854	1.518302	-0.503457
C64	C	-0.274854	2.018302	-0.003457
C65	C	-0.891007	1.518370	-0.503484
C66	C	-0.391007	2.018370	-0.003484
C67	C	-0.942785	1.582287	-0.440042
C68	C	-0.442785	2.082287	0.059958
C69	C	-1.062835	1.582359	-0.440069
C70	C	-0.562835	2.082359	0.059931
C71	C	-0.230774	1.518463	-0.503517
C72	C	0.269226	2.018463	-0.003517
C73	C	-0.114621	1.518503	-0.503534
C74	C	0.385379	2.018503	-0.003534
C75	C	-0.503244	1.518439	-0.776046
C76	C	-0.003244	2.018439	-0.276046
C77	C	-0.503201	1.518470	-0.892199
C78	C	-0.003201	2.018470	-0.392199
C79	C	-0.503362	1.792401	-0.503496
C80	C	-0.003362	2.292401	-0.003496
C81	C	-0.503369	1.909178	-0.503505
C82	C	-0.003369	2.409178	-0.003505
C83	C	-0.439676	1.582357	-0.943998
C84	C	0.060324	2.082357	-0.443998
C85	C	-0.439630	1.582390	-1.064049
C86	C	0.060370	2.082390	-0.564049
C87	C	-0.503369	1.518357	-0.231965
C88	C	-0.003369	2.018357	0.268035
C89	C	-0.503117	1.518530	-0.115813
C90	C	-0.003117	2.018530	0.384187
H91	H	-0.248738	1.118604	-0.758830
H92	H	0.251262	1.618604	-0.258830
H93	H	-1.070101	1.463774	-0.557848
H94	H	-0.570101	1.963774	-0.057848
H95	H	-0.557547	1.463792	-0.936728
H96	H	-0.057547	1.963792	-0.436728
O97	O	-0.367675	1.654777	-0.885021
O98	O	0.132325	2.154777	-0.385021
H99	H	-0.321128	1.701576	-0.941226
H100	H	0.178872	2.201576	-0.441226
O101	O	-0.369843	1.247059	-0.637345
O102	O	0.130157	1.747059	-0.137345
H103	H	-0.348632	1.275951	-0.558555
H104	H	0.151368	1.775951	-0.058555
H105	H	-0.636842	1.217875	-0.369570
H106	H	-0.136842	1.717875	0.130430
H107	H	-0.757957	1.118268	-0.248122
H108	H	-0.257957	1.618268	0.251878
O109	O	-0.775623	0.904677	-0.230448
O110	O	-0.275623	1.404677	0.269552
H111	H	-0.822023	0.961232	-0.183883
H112	H	-0.322023	1.461232	0.316117
O113	O	-0.636893	0.790745	-0.369623
O114	O	-0.136893	1.290745	0.130377
H115	H	-0.658117	0.761853	-0.448411
H116	H	-0.158117	1.261853	0.051589
O117	O	-0.883792	1.654731	-0.368086
O118	O	-0.383792	2.154731	0.131914
H119	H	-0.798757	1.643313	-0.379363
H120	H	-0.298757	2.143313	0.120637
H121	H	-0.935555	1.463706	-0.557822
H122	H	-0.435555	1.963706	-0.057822
O123	O	-1.121803	1.654870	-0.368134
O124	O	-0.621803	2.154870	0.131866
H125	H	-1.206841	1.643562	-0.379457
H126	H	-0.706841	2.143562	0.120543
H127	H	-0.385247	1.637089	-1.108595
H128	H	0.114753	2.137089	-0.608595
O129	O	-0.575148	1.446046	-1.056831
O130	O	-0.075148	1.946046	-0.556831
H131	H	-0.657183	1.464008	-1.077699
H132	H	-0.157183	1.964008	-0.577699
O133	O	-0.369890	0.790928	-0.637416
O134	O	0.130110	1.290928	-0.137416
H135	H	-0.312266	0.762034	-0.695223
H136	H	0.187734	1.262034	-0.195223
H137	H	-0.248771	0.919533	-0.758861
H138	H	0.251229	1.419533	-0.258861
