data_functionalizedCrystal
_audit_creation_method	'MofGen! by Chris Wilmer'
_symmetry_space_group_name_H-M	'P1'
_symmetry_Int_Tables_number	1
_symmetry_cell_setting	triclinic
loop_
_symmetry_equiv_pos_as_xyz
  x,y,z
_cell_length_a	17.038272
_cell_length_b	23.532407
_cell_length_c	16.098538
_cell_angle_alpha	92.700973
_cell_angle_beta	87.069734
_cell_angle_gamma	86.980117
loop_
_atom_site_label
_atom_site_type_symbol
_atom_site_fract_x
_atom_site_fract_y
_atom_site_fract_z
O1	O	1.039966	0.121251	-0.069166
O2	O	0.812351	0.119288	-0.069191
O3	O	0.933021	0.037699	-0.069163
O4	O	0.919295	0.202840	-0.069195
O5	O	0.925973	0.042445	0.069349
O6	O	0.805302	0.124034	0.069321
O7	O	1.032917	0.125997	0.069345
Zn8	Zn	0.917990	0.125769	0.091324
Zn9	Zn	0.927278	0.119516	-0.091170
O10	O	0.912247	0.207586	0.069317
C11	C	0.779712	0.119875	0.000062
C12	C	0.692959	0.114548	0.000054
C13	C	0.642483	0.163453	0.000045
C14	C	0.560969	0.158445	0.000057
C15	C	0.529932	0.104532	0.000072
C16	C	0.580415	0.055624	0.000084
C17	C	0.661927	0.060632	0.000077
C18	C	0.284304	0.086837	0.000098
C19	C	0.202786	0.081832	0.000102
C20	C	0.183345	0.184654	0.000077
C21	C	0.264860	0.189657	0.000066
C22	C	0.315335	0.140750	0.000081
C23	C	0.446612	0.099411	0.000083
C24	C	0.398653	0.145871	0.000077
C25	C	0.929147	0.018838	0.000095
C26	C	0.928096	-0.044434	0.000101
C27	C	0.992917	-0.440131	0.000063
C28	C	0.991941	-0.499583	0.000056
O29	O	1.052030	-0.533169	0.000032
N30	N	0.920202	-0.525981	0.000049
C31	C	0.849435	-0.492924	0.000040
O32	O	0.788325	-0.520836	0.000033
C33	C	0.850412	-0.433473	0.000041
C34	C	0.922155	-0.407078	0.000056
C35	C	1.064654	-0.413736	0.000077
C36	C	1.065630	-0.354288	0.000085
C37	C	0.994868	-0.321236	0.000079
C38	C	0.923131	-0.347631	0.000064
C39	C	0.779646	-0.400418	0.000026
C40	C	0.780629	-0.340963	0.000025
C41	C	0.852372	-0.314569	0.000041
C42	C	0.853344	-0.255130	0.000066
N43	N	0.925083	-0.228732	0.000073
C44	C	0.995845	-0.261785	0.000079
C45	C	0.847388	-0.617774	0.000038
C46	C	0.846410	-0.677223	0.000043
C47	C	0.988917	-0.683878	0.000058
C48	C	0.989894	-0.624428	0.000058
C49	C	0.919127	-0.591376	0.000045
C50	C	0.997889	-0.136940	0.000097
C51	C	0.998858	-0.077487	0.000108
C52	C	0.856352	-0.070837	0.000089
C53	C	0.855382	-0.130285	0.000082
C54	C	0.926157	-0.163336	0.000083
O55	O	0.793287	-0.221508	0.000086
O56	O	1.056945	-0.233865	0.000076
C57	C	1.065556	0.125410	0.000090
C58	C	1.152310	0.130737	0.000093
C59	C	0.916121	0.226447	0.000057
C60	C	0.917172	0.289719	0.000045
N61	N	0.911658	0.130036	0.215872
N62	N	0.933616	0.115244	-0.215718
C63	C	0.962894	0.095421	0.259469
C64	C	0.958471	0.098412	0.346657
C65	C	0.902816	0.136022	0.390246
C66	C	0.851574	0.170639	0.346643
C67	C	0.855994	0.167644	0.259457
C68	C	0.886795	0.146867	0.653493
C69	C	0.882380	0.149860	0.740685
C70	C	0.989277	0.077632	0.740693
C71	C	0.993694	0.074644	0.653505
C72	C	0.942450	0.109258	0.609909
C73	C	0.898295	0.139081	0.479366
C74	C	0.946968	0.106195	0.520791
H75	H	0.325392	0.047013	0.000112
C76	C	1.008186	0.064826	0.472849
H77	H	1.038069	0.044635	0.511298
H78	H	1.042276	0.085730	0.438823
H79	H	0.981976	0.038584	0.438853
H80	H	0.519874	0.198268	0.000049
H81	H	0.789757	-0.590866	0.000034
C82	C	0.412473	0.040109	0.000090
H83	H	0.454207	0.011697	0.000095
H84	H	0.383527	0.034367	-0.048209
H85	H	0.378630	0.037674	0.048401
C86	C	1.024120	0.054056	0.211524
H87	H	1.019422	0.057234	0.153355
H88	H	1.015212	0.016136	0.225825
H89	H	1.075505	0.063286	0.225808
H90	H	0.667745	0.207354	0.000032
H91	H	0.290124	0.233559	0.000043
C92	C	0.767492	-0.706251	0.000033
H93	H	0.725493	-0.678046	0.000024
H94	H	0.761685	-0.727657	0.048330
H95	H	0.766607	-0.730950	-0.048280
C96	C	0.127822	0.238447	0.000070
H97	H	0.074830	0.227746	0.000084
H98	H	0.139636	0.258739	-0.048235
H99	H	0.134738	0.262044	0.048375
H100	H	1.057282	-0.055999	0.000123
H101	H	1.122281	-0.440642	0.000080
H102	H	0.177520	0.037928	0.000114
H103	H	1.039013	0.044019	0.618016
H104	H	1.048313	-0.602941	0.000070
H105	H	0.852981	0.169705	0.514864
C106	C	1.045634	0.039553	0.788645
H107	H	1.079415	0.016728	0.750198
H108	H	1.015981	0.015650	0.822669
H109	H	1.076288	0.062791	0.822644
H110	H	0.555138	0.011727	0.000108
C111	C	0.717451	0.006837	0.000079
H112	H	0.687294	-0.025989	0.000080
H113	H	0.747205	0.008307	0.048377
H114	H	0.752101	0.005000	-0.048233
H115	H	0.837057	0.180488	0.776172
C116	C	0.432787	0.205172	0.000058
H117	H	0.391053	0.233585	0.000056
H118	H	0.466634	0.207602	-0.048246
H119	H	0.461729	0.210919	0.048364
H120	H	1.055521	-0.163843	0.000094
H121	H	1.124051	-0.332803	0.000094
C122	C	1.066757	-0.720241	0.000059
H123	H	1.109626	-0.696010	0.000071
H124	H	1.071790	-0.745221	-0.048244
H125	H	1.066876	-0.741921	0.048366
C126	C	0.776467	-0.159321	0.000063
H127	H	0.734465	-0.131119	0.000055
H128	H	0.770658	-0.180732	0.048355
H129	H	0.775589	-0.184017	-0.048255
C130	C	0.700727	-0.429439	0.000001
H131	H	0.658732	-0.401233	-0.000013
H132	H	0.694912	-0.450845	0.048299
H133	H	0.699844	-0.454139	-0.048311
H134	H	0.723001	-0.314056	0.000013
C135	C	0.830435	0.184946	0.605548
H136	H	0.796664	0.207778	0.643998
H137	H	0.799783	0.161713	0.571549
H138	H	0.860091	0.208853	0.571526
H139	H	0.798739	-0.043915	0.000087
C140	C	0.790356	0.212009	0.394589
H141	H	0.795067	0.208840	0.452759
H142	H	0.738969	0.202789	0.380313
H143	H	0.799277	0.249929	0.380283
H144	H	1.000191	0.070225	0.382153
H145	H	0.814271	0.195831	0.223961
