data_functionalizedCrystal
_audit_creation_method	'MofGen! by Chris Wilmer'
_symmetry_space_group_name_H-M	'P1'
_symmetry_Int_Tables_number	1
_symmetry_cell_setting	triclinic
loop_
_symmetry_equiv_pos_as_xyz
  x,y,z
_cell_length_a	19.288865
_cell_length_b	19.288865
_cell_length_c	18.366186
_cell_angle_alpha	89.993214
_cell_angle_beta	90.004920
_cell_angle_gamma	96.863753
loop_
_atom_site_label
_atom_site_type_symbol
_atom_site_fract_x
_atom_site_fract_y
_atom_site_fract_z
O1	O	0.921351	-0.086644	0.060533
O2	O	1.254684	0.246689	0.393866
O3	O	1.588017	0.580022	0.727200
O4	O	0.719090	-0.098333	0.060541
O5	O	1.052423	0.235000	0.393874
O6	O	1.385757	0.568334	0.727208
O7	O	0.826065	0.008642	0.060522
O8	O	1.159398	0.341975	0.393856
O9	O	1.492731	0.675308	0.727189
O10	O	0.814376	-0.193619	0.060552
O11	O	1.147709	0.139714	0.393885
O12	O	1.481043	0.473048	0.727218
O13	O	0.826051	0.008638	-0.060577
O14	O	1.159384	0.341971	0.272756
O15	O	1.492717	0.675305	0.606090
O16	O	0.719076	-0.098337	-0.060558
O17	O	1.052409	0.234997	0.272775
O18	O	1.385743	0.568330	0.606108
O19	O	0.921337	-0.086648	-0.060566
O20	O	1.254670	0.246685	0.272767
O21	O	1.588003	0.580019	0.606100
Zn22	Zn	0.820204	-0.092493	-0.079789
Zn23	Zn	1.153538	0.240840	0.253544
Zn24	Zn	1.486871	0.574174	0.586877
Zn25	Zn	0.820222	-0.092488	0.079764
Zn26	Zn	1.153556	0.240845	0.413098
Zn27	Zn	1.486889	0.574179	0.746431
O28	O	0.814362	-0.193623	-0.060548
O29	O	1.147695	0.139711	0.272786
O30	O	1.481029	0.473044	0.606119
C31	C	0.693207	-0.097959	-0.000008
C32	C	1.026540	0.235375	0.333326
C33	C	1.359873	0.568708	0.666659
C34	C	0.616103	-0.096830	-0.000005
C35	C	0.949436	0.236504	0.333328
C36	C	1.282770	0.569837	0.666661
N37	N	0.820197	-0.092496	-0.188681
N38	N	1.153530	0.240838	0.144653
N39	N	1.486864	0.574171	0.477986
C40	C	0.947220	-0.087022	-0.000016
C41	C	1.280553	0.246311	0.333318
C42	C	1.613887	0.579645	0.666651
C43	C	1.024324	-0.088151	-0.000013
C44	C	1.357657	0.245182	0.333320
C45	C	1.690990	0.578516	0.666653
C46	C	0.825682	0.034516	-0.000029
C47	C	1.159015	0.367850	0.333304
C48	C	1.492348	0.701183	0.666637
C49	C	0.824553	0.111620	-0.000036
C50	C	1.157886	0.444953	0.333298
C51	C	1.491219	0.778287	0.666631
C52	C	1.069020	-0.025383	-0.000016
C53	C	1.402353	0.307950	0.333317
C54	C	1.735687	0.641283	0.666651
C55	C	1.141467	-0.026444	-0.000020
C56	C	1.474800	0.306889	0.333313
C57	C	1.808134	0.640223	0.666646
C58	C	1.169215	-0.090276	-0.000007
C59	C	1.502548	0.243057	0.333326
C60	C	1.835881	0.576391	0.666660
C61	C	1.124508	-0.153052	-0.000008
C62	C	1.457842	0.180281	0.333325
C63	C	1.791175	0.513614	0.666658
C64	C	1.052063	-0.151990	-0.000012
C65	C	1.385396	0.181344	0.333322
C66	C	1.718730	0.514677	0.666655
C67	C	1.277496	-0.140454	0.042431
C68	C	1.610830	0.192879	0.375764
C69	C	1.944163	0.526212	0.709098
C70	C	1.349941	-0.141514	0.042439
C71	C	1.683274	0.191819	0.375772
C72	C	2.016607	0.525153	0.709105
C73	C	1.392660	-0.093556	-0.000000
C74	C	1.725993	0.239778	0.333333
C75	C	2.059327	0.573111	0.666666
C76	C	1.362928	-0.044526	-0.042438
C77	C	1.696261	0.288808	0.290896
C78	C	2.029594	0.622141	0.624229
C79	C	1.290482	-0.043463	-0.042441
C80	C	1.623816	0.289870	0.290892
C81	C	1.957149	0.623203	0.624226
C82	C	1.247769	-0.091435	-0.000004
C83	C	1.581102	0.241898	0.333329
C84	C	1.914435	0.575231	0.666663
C85	C	1.515912	-0.031934	-0.000009
C86	C	1.849246	0.301400	0.333325
C87	C	2.182579	0.634733	0.666658
C88	C	1.588361	-0.032997	-0.000017
C89	C	1.921694	0.300336	0.333316
C90	C	2.255027	0.633670	0.666649
C91	C	1.571400	-0.159607	0.000002
C92	C	1.904734	0.173726	0.333335
C93	C	2.238067	0.507060	0.666669
C94	C	1.498954	-0.158542	0.000003
C95	C	1.832287	0.174791	0.333337
C96	C	2.165621	0.508125	0.666670
C97	C	1.471215	-0.094703	0.000001
C98	C	1.804548	0.238630	0.333335
C99	C	2.137881	0.571963	0.666668
C100	C	0.814745	-0.219497	0.000006
C101	C	1.148078	0.113836	0.333339
C102	C	1.481412	0.447169	0.666673
C103	C	0.815874	-0.296601	0.000017
C104	C	1.149207	0.036733	0.333350
C105	C	1.482541	0.370066	0.666684
C106	C	0.887320	0.156316	-0.000042
C107	C	1.220654	0.489650	0.333292
C108	C	1.553987	0.822983	0.666625
C109	C	0.886260	0.228763	-0.000030
C110	C	1.219593	0.562097	0.333303
C111	C	1.552926	0.895430	0.666636
C112	C	0.822428	0.256511	-0.000027
C113	C	1.155761	0.589844	0.333306
C114	C	1.489094	0.923178	0.666639
C115	C	0.759651	0.211805	-0.000017
C116	C	1.092985	0.545138	0.333316
C117	C	1.426318	0.878471	0.666650
C118	C	0.760714	0.139359	-0.000021
C119	C	1.094047	0.472693	0.333312
C120	C	1.427381	0.806026	0.666645
C121	C	0.772243	0.364797	-0.042444
C122	C	1.105577	0.698130	0.290890
C123	C	1.438910	1.031464	0.624223
C124	C	0.771183	0.437241	-0.042444
C125	C	1.104517	0.770575	0.290889
C126	C	1.437850	1.103908	0.624223
C127	C	0.819148	0.479956	-0.000011
C128	C	1.152481	0.813290	0.333323
C129	C	1.485815	1.146623	0.666656
C130	C	0.868184	0.450220	0.042413
C131	C	1.201518	0.783553	0.375747
C132	C	1.534851	1.116886	0.709080
C133	C	0.869247	0.377774	0.042409
C134	C	1.202580	0.711108	0.375742
C135	C	1.535913	1.044441	0.709076
C136	C	0.821268	0.335065	-0.000022
C137	C	1.154602	0.668398	0.333311
C138	C	1.487935	1.001732	0.666645
C139	C	0.880770	0.603209	-0.000003
C140	C	1.214103	0.936542	0.333330
C141	C	1.547437	1.269875	0.666663
C142	C	0.879707	0.675657	0.000013
C143	C	1.213040	1.008990	0.333346
C144	C	1.546373	1.342323	0.666679
C145	C	0.753097	0.658697	0.000019
C146	C	1.086430	0.992030	0.333352
C147	C	1.419763	1.325363	0.666685
C148	C	0.754162	0.586250	0.000010
C149	C	1.087495	0.919583	0.333343
C150	C	1.420828	1.252917	0.666677
C151	C	0.818000	0.558511	-0.000005
C152	C	1.151334	0.891844	0.333329
C153	C	1.484667	1.225177	0.666662
C154	C	0.862228	-0.134494	-0.773225
C155	C	1.195561	0.198840	-0.439892
C156	C	1.528895	0.532173	-0.106559
C157	C	0.862221	-0.134500	-0.696998
C158	C	1.195554	0.198833	-0.363664
C159	C	1.528887	0.532166	-0.030331
C160	C	0.820229	-0.092480	-0.658892
C161	C	1.153562	0.240853	-0.325559
C162	C	1.486896	0.574186	0.007775
C163	C	0.778228	-0.050464	-0.697020
C164	C	1.111561	0.282870	-0.363687
C165	C	1.444894	0.616203	-0.030354
C166	C	0.778231	-0.050463	-0.773247
C167	C	1.111564	0.282870	-0.439913
C168	C	1.444898	0.616203	-0.106580
C169	C	0.818502	-0.029856	-0.538135
C170	C	1.151835	0.303478	-0.204801
C171	C	1.485169	0.636811	0.128532
C172	C	0.818504	-0.029855	-0.461910
C173	C	1.151837	0.303479	-0.128576
C174	C	1.485171	0.636812	0.204757
C175	C	0.820215	-0.092482	-0.423784
C176	C	1.153548	0.240851	-0.090451
C177	C	1.486882	0.574185	0.242882
C178	C	0.821939	-0.155112	-0.461893
C179	C	1.155272	0.178222	-0.128560
C180	C	1.488606	0.511555	0.204773
C181	C	0.821942	-0.155111	-0.538120
C182	C	1.155276	0.178222	-0.204786
C183	C	1.488609	0.511556	0.128547
C184	C	0.820221	-0.092476	-0.576237
C185	C	1.153554	0.240857	-0.242904
C186	C	1.486887	0.574190	0.090430
C187	C	0.862202	-0.134507	-0.303010
C188	C	1.195535	0.198826	0.030323
C189	C	1.528869	0.532160	0.363656
C190	C	0.862190	-0.134515	-0.226781
C191	C	1.195523	0.198818	0.106552
C192	C	1.528857	0.532151	0.439886
C193	C	0.778201	-0.050472	-0.226805
C194	C	1.111534	0.282861	0.106528
C195	C	1.444868	0.616194	0.439862
C196	C	0.778209	-0.050470	-0.303033
C197	C	1.111543	0.282863	0.030301
C198	C	1.444876	0.616196	0.363634
C199	C	0.820214	-0.092487	-0.341131
C200	C	1.153547	0.240847	-0.007798
C201	C	1.486880	0.574180	0.325536
N202	N	0.820235	-0.092480	0.188655
N203	N	1.153569	0.240854	0.521989
N204	N	1.486902	0.574187	0.855322
H205	H	1.046440	0.026599	-0.000020
H206	H	1.379773	0.359932	0.333313
H207	H	1.713106	0.693266	0.666646
H208	H	0.701123	0.681288	0.000025
H209	H	1.034457	1.014621	0.333358
H210	H	1.367790	1.347954	0.666691
Cl211	Cl	0.915027	-0.187311	-0.649066
Cl212	Cl	1.248360	0.146023	-0.315733
Cl213	Cl	1.581694	0.479356	0.017600
Cl214	Cl	1.442761	-0.237455	0.000015
Cl215	Cl	1.776094	0.095878	0.333348
Cl216	Cl	2.109428	0.429212	0.666681
Cl217	Cl	0.914970	-0.187354	-0.178859
Cl218	Cl	1.248303	0.145980	0.154474
Cl219	Cl	1.581637	0.479313	0.487808
H220	H	1.374144	-0.181432	0.076999
H221	H	1.707477	0.151901	0.410333
H222	H	2.040810	0.485235	0.743666
Cl223	Cl	0.725436	0.002359	-0.821170
Cl224	Cl	1.058770	0.335693	-0.487837
Cl225	Cl	1.392103	0.669026	-0.154504
H226	H	1.177866	0.024671	-0.000020
H227	H	1.511199	0.358004	0.333313
H228	H	1.844532	0.691337	0.666647
H229	H	0.817105	0.021142	-0.430887
H230	H	1.150438	0.354476	-0.097554
H231	H	1.483772	0.687809	0.235780
H232	H	1.266277	-0.003543	-0.076996
H233	H	1.599610	0.329791	0.256337
H234	H	1.932944	0.663124	0.589670
Cl235	Cl	0.824094	-0.233848	-0.413973
Cl236	Cl	1.157427	0.099485	-0.080640
Cl237	Cl	1.490760	0.432818	0.252693
Cl238	Cl	0.675249	0.530057	0.000014
Cl239	Cl	1.008582	0.863391	0.333347
Cl240	Cl	1.341915	1.196724	0.666681
H241	H	0.733183	0.330023	-0.077002
H242	H	1.066516	0.663357	0.256332
H243	H	1.399850	0.996690	0.589665
H244	H	0.823344	-0.206106	-0.569145
H245	H	1.156677	0.127227	-0.235812
H246	H	1.490011	0.460560	0.097522
H247	H	0.731252	0.461447	-0.076984
H248	H	1.064586	0.794780	0.256349
H249	H	1.397919	1.128113	0.589683
Cl250	Cl	1.416625	0.015775	-0.095786
Cl251	Cl	1.749958	0.349109	0.237547
Cl252	Cl	2.083292	0.682442	0.570881
Cl253	Cl	0.915003	-0.187329	-0.350908
Cl254	Cl	1.248337	0.146004	-0.017575
Cl255	Cl	1.581670	0.479338	0.315758
H256	H	0.932751	0.580622	-0.000012
H257	H	1.266085	0.913956	0.333322
H258	H	1.599418	1.247289	0.666655
H259	H	1.015670	-0.203105	-0.000010
H260	H	1.349004	0.130229	0.333323
H261	H	1.682337	0.463562	0.666657
H262	H	1.147105	-0.205025	0.000001
H263	H	1.480438	0.128308	0.333334
H264	H	1.813772	0.461642	0.666667
H265	H	1.493326	0.020048	-0.000013
H266	H	1.826659	0.353381	0.333320
H267	H	2.159993	0.686714	0.666653
H268	H	0.744006	-0.016263	-0.195780
H269	H	1.077340	0.317070	0.137553
H270	H	1.410673	0.650404	0.470887
Cl271	Cl	1.644552	0.045919	-0.000029
Cl272	Cl	1.977885	0.379252	0.333304
Cl273	Cl	2.311219	0.712586	0.666638
H274	H	0.707679	0.234401	-0.000013
H275	H	1.041012	0.567735	0.333320
H276	H	1.374346	0.901068	0.666654
Cl277	Cl	1.223798	-0.200755	0.095783
Cl278	Cl	1.557131	0.132578	0.429116
Cl279	Cl	1.890465	0.465912	0.762450
H280	H	0.817102	0.021146	-0.569170
H281	H	1.150435	0.354479	-0.235836
H282	H	1.483769	0.687812	0.097497
H283	H	0.744036	-0.016252	-0.665990
H284	H	1.077370	0.317081	-0.332656
H285	H	1.410703	0.650414	0.000677
Cl286	Cl	0.915027	-0.187320	-0.821116
Cl287	Cl	1.248361	0.146014	-0.487783
Cl288	Cl	1.581694	0.479347	-0.154450
Cl289	Cl	0.725418	0.002354	-0.350957
Cl290	Cl	1.058752	0.335687	-0.017623
Cl291	Cl	1.392085	0.669020	0.315710
H292	H	0.709599	0.102967	-0.000017
H293	H	1.042932	0.436300	0.333317
H294	H	1.376266	0.769633	0.666650
H295	H	0.937375	0.265162	-0.000032
H296	H	1.270708	0.598495	0.333301
H297	H	1.604041	0.931829	0.666634
H298	H	1.593991	-0.211580	0.000008
H299	H	1.927325	0.121753	0.333341
H300	H	2.260658	0.455086	0.666675
Cl301	Cl	0.958623	0.731848	0.000010
Cl302	Cl	1.291956	1.065182	0.333343
Cl303	Cl	1.625289	1.398515	0.666677
H304	H	0.939303	0.133736	-0.000051
H305	H	1.272636	0.467069	0.333282
H306	H	1.605969	0.800403	0.666616
Cl307	Cl	0.930885	0.340392	0.095744
Cl308	Cl	1.264218	0.673725	0.429078
Cl309	Cl	1.597551	1.007059	0.762411
H310	H	0.907241	0.484997	0.076967
H311	H	1.240575	0.818330	0.410300
H312	H	1.573908	1.151664	0.743633
