data_functionalizedCrystal
_audit_creation_method	'MofGen! by Chris Wilmer'
_symmetry_space_group_name_H-M	'P1'
_symmetry_Int_Tables_number	1
_symmetry_cell_setting	triclinic
loop_
_symmetry_equiv_pos_as_xyz
  x,y,z
_cell_length_a	14.628931
_cell_length_b	14.628931
_cell_length_c	14.628931
_cell_angle_alpha	60.000028
_cell_angle_beta	89.999882
_cell_angle_gamma	59.999864
loop_
_atom_site_label
_atom_site_type_symbol
_atom_site_fract_x
_atom_site_fract_y
_atom_site_fract_z
Zr1	Zr	0.880616	1.000580	-0.119964
O2	O	0.734655	1.191286	-0.265925
O3	O	0.925361	0.809874	-0.075219
O4	O	0.925361	1.000580	-0.265925
O5	O	0.734655	1.000581	0.075212
O6	O	1.075793	1.000580	-0.265925
O7	O	0.734655	1.000580	-0.075219
O8	O	1.075793	0.659443	0.075212
O9	O	0.734655	1.341718	-0.265925
O10	O	1.056710	0.888315	-0.056137
O11	O	0.944444	0.888315	0.056129
O12	O	0.944444	1.112846	-0.168402
O13	O	0.832178	1.112846	-0.056137
Zr14	Zr	1.120537	1.000581	0.119956
Zr15	Zr	1.120537	1.000580	-0.119965
Zr16	Zr	0.880615	1.000581	0.119957
Zr17	Zr	0.880615	1.240502	-0.119965
Zr18	Zr	1.120537	0.760659	0.119957
O19	O	1.075792	1.191287	0.075211
O20	O	1.075792	1.191286	-0.265926
O21	O	0.734654	1.191287	0.075212
O22	O	1.266498	0.809875	0.265917
O23	O	1.266498	0.809874	-0.075220
O24	O	0.925360	0.809875	0.265918
O25	O	1.266498	1.000580	-0.075221
O26	O	1.075792	1.000581	0.265917
O27	O	0.925360	1.000581	0.265917
O28	O	1.266498	1.000581	0.075211
O29	O	0.925360	1.341718	-0.265926
O30	O	1.075793	0.659443	0.265918
O31	O	1.266498	0.659443	0.265917
O32	O	1.266499	0.659443	0.075212
O33	O	0.734654	1.341719	-0.075220
O34	O	0.925360	1.341719	-0.075221
O35	O	1.056709	0.888315	0.168394
O36	O	1.168975	0.888315	0.056129
O37	O	1.056709	1.112846	-0.056137
O38	O	0.944443	1.112847	0.056129
C39	C	1.000577	0.700475	-0.000004
C40	C	1.000577	0.598622	-0.000003
C41	C	0.921818	0.631972	-0.078763
C42	C	0.921816	0.526703	-0.078764
C43	C	0.700471	1.000581	-0.000004
C44	C	0.598618	1.000581	-0.000003
C45	C	0.553209	1.000580	-0.078763
C46	C	0.447939	1.000580	-0.078764
C47	C	1.300682	1.000581	-0.000005
C48	C	1.402535	1.000581	-0.000005
C49	C	1.000577	1.000580	-0.300109
C50	C	1.000577	1.000579	-0.401962
C51	C	1.000576	1.300686	-0.000005
C52	C	1.000576	1.402540	-0.000005
C53	C	0.944886	1.111962	-0.503062
C54	C	0.944884	1.111964	-0.608334
C55	C	1.000576	1.000581	0.300101
C56	C	1.000576	1.000582	0.401953
C57	C	1.300682	0.700475	-0.000004
C58	C	1.402535	0.598622	-0.000004
C59	C	1.000577	0.700476	0.300101
C60	C	1.000577	0.598623	0.401954
C61	C	1.300682	0.700476	0.300101
C62	C	1.402535	0.598623	0.401953
C63	C	0.700471	1.300686	-0.300109
C64	C	0.598618	1.402538	-0.401962
C65	C	0.700471	1.300686	-0.000004
C66	C	0.598617	1.402540	-0.000004
C67	C	1.000576	1.300686	-0.300110
C68	C	1.000576	1.402538	-0.401963
C69	C	1.392253	0.553212	-0.055695
C70	C	1.497523	0.447941	-0.055697
C71	C	1.056268	0.553214	0.503055
C72	C	1.056269	0.447943	0.608326
C73	C	1.503636	0.553213	0.391671
C74	C	1.608907	0.447943	0.496940
H75	H	0.854385	0.555081	-0.146191
H76	H	1.305517	0.592275	-0.103378
Br77	Br	1.135754	0.382852	0.752881
H78	H	0.897198	1.207323	-0.695064
Br79	Br	0.921113	0.467603	0.453488
Br80	Br	1.753462	0.382851	0.482547
H81	H	0.952894	0.559569	0.393334
H82	H	1.512259	0.592274	0.304936
H83	H	1.488894	0.408886	-0.103372
Br84	Br	1.454069	0.467603	0.612437
Br85	Br	0.865423	1.270907	-0.517445
H86	H	0.441575	1.000588	0.067424
H87	H	0.559564	1.000574	0.067428
H88	H	1.489272	0.559568	0.047670
H89	H	1.103942	0.592277	0.511675
H90	H	1.607255	0.441574	0.047685
H91	H	0.854394	0.738457	-0.146193
H92	H	1.393915	0.559569	0.488690
H93	H	1.068004	0.374152	0.067431
Br94	Br	1.080042	0.841629	-0.453495
Br95	Br	1.112976	0.421141	0.112380
Br96	Br	0.618304	1.000565	-0.191147
H97	H	0.408885	1.000587	-0.146197
H98	H	1.048259	0.905222	-0.393341
