data_functionalizedCrystal
_audit_creation_method	'MofGen! by Chris Wilmer'
_symmetry_space_group_name_H-M	'P1'
_symmetry_Int_Tables_number	1
_symmetry_cell_setting	triclinic
loop_
_symmetry_equiv_pos_as_xyz
  x,y,z
_cell_length_a	12.759395
_cell_length_b	12.645330
_cell_length_c	12.759387
_cell_angle_alpha	90.029414
_cell_angle_beta	90.020509
_cell_angle_gamma	90.019229
loop_
_atom_site_label
_atom_site_type_symbol
_atom_site_fract_x
_atom_site_fract_y
_atom_site_fract_z
Zn1	Zn	1.606247	-0.421940	0.594015
Zn2	Zn	1.606128	-0.599242	0.418340
Zn3	Zn	1.430545	-0.421998	0.418352
Zn4	Zn	1.430528	-0.599167	0.593979
O5	O	1.518362	-0.510587	0.506172
O6	O	1.753252	-0.445467	0.570722
O7	O	1.582794	-0.575786	0.271320
O8	O	1.453909	-0.273643	0.441674
O9	O	1.753165	-0.575730	0.441654
O10	O	1.582996	-0.273600	0.570733
O11	O	1.453794	-0.445565	0.271329
O12	O	1.283522	-0.445492	0.441639
O13	O	1.453880	-0.575601	0.741005
O14	O	1.283509	-0.575657	0.570672
O15	O	1.582980	-0.445394	0.741032
O16	O	1.582778	-0.747579	0.441619
O17	O	1.453765	-0.747524	0.570660
C18	C	1.245395	-0.510574	0.506153
C19	C	1.128618	-0.510594	0.506171
C20	C	1.128644	-0.646354	0.640315
C21	C	1.073796	-0.714242	0.707390
C22	C	0.964074	-0.714255	0.707403
C23	C	0.909198	-0.646370	0.640335
C24	C	0.964046	-0.578482	0.573260
C25	C	1.073770	-0.578478	0.573253
C26	C	0.964020	-0.442718	0.439123
C27	C	1.073742	-0.442709	0.439103
C28	C	0.909144	-0.374833	0.372056
C29	C	0.963992	-0.306948	0.304974
C30	C	1.073720	-0.306939	0.304963
C31	C	1.128590	-0.374820	0.372028
C32	C	1.518285	-0.786016	0.506157
C33	C	1.518349	-0.903846	0.506186
C34	C	1.437522	-1.071420	0.587616
C35	C	1.437108	-0.948860	0.587354
C36	C	1.488373	-0.948450	0.395464
C37	C	1.487880	-1.071049	0.395958
C38	C	1.629646	-1.070930	0.534579
C39	C	1.628964	-0.948323	0.537001
C40	C	1.792395	-0.510600	0.506190
C41	C	1.909172	-0.510606	0.506198
C42	C	1.518441	-0.510483	0.780205
C43	C	1.518475	-0.510438	0.896982
C44	C	1.518468	-0.234081	0.506209
C45	C	1.518513	-0.116251	0.506225
C46	C	1.518344	-0.510614	0.233204
C47	C	1.518513	-0.510359	0.116428
C48	C	1.652916	-0.374862	0.897029
C49	C	1.720151	-0.307058	0.951914
C50	C	1.720176	-0.307019	1.061636
C51	C	1.652958	-0.374790	1.116475
C52	C	1.585723	-0.442594	1.061591
C53	C	1.585707	-0.442627	0.951867
C54	C	1.451278	-0.578163	1.061543
C55	C	1.451256	-0.578209	0.951822
C56	C	1.384059	-0.645934	1.116383
C57	C	1.316828	-0.713745	1.061498
C58	C	1.316806	-0.713781	0.951770
C59	C	1.384021	-0.646013	0.896937
H60	H	0.819803	-0.374843	0.372076
H61	H	1.354719	-0.919629	0.568570
N62	N	1.244340	-0.786823	1.120660
H63	H	1.260614	-0.862580	1.101569
H64	H	1.169305	-0.770267	1.101535
N65	N	0.904905	-0.787480	0.779737
H66	H	0.859412	-0.744464	0.828503
H67	H	0.956376	-0.830469	0.822153
N68	N	1.329068	-1.112346	0.563050
H69	H	1.280760	-1.050843	0.548404
H70	H	1.301700	-1.153829	0.624882
N71	N	1.380275	-1.109070	0.364138
H72	H	1.333607	-1.046190	0.349924
H73	H	1.349244	-1.152907	0.422550
H74	H	1.544310	-1.100709	0.333248
N75	N	1.792693	-0.233897	1.120845
H76	H	1.750025	-0.184753	1.166373
H77	H	1.835258	-0.191038	1.069399
H78	H	1.384081	-0.645893	1.205724
N79	N	0.790856	-0.646384	0.640350
H80	H	0.764415	-0.593084	0.587686
H81	H	0.764551	-0.627023	0.712495
N82	N	1.244272	-0.786899	0.892575
H83	H	1.201694	-0.829816	0.943969
H84	H	1.286993	-0.835988	0.847045
H85	H	0.919303	-0.251676	0.250379
N86	N	1.132875	-0.233704	0.232628
H87	H	1.081459	-0.190703	0.190151
H88	H	1.178368	-0.276781	0.183920
N89	N	1.709574	-1.109329	0.456059
H90	H	1.712264	-1.189143	0.457293
H91	H	1.780771	-1.079888	0.474714
H92	H	1.118488	-0.769511	0.761996
N93	N	1.652893	-0.374871	0.778688
H94	H	1.580825	-0.355371	0.752259
H95	H	1.672206	-0.447612	0.752306
N96	N	1.246931	-0.374821	0.372017
H97	H	1.273396	-0.355429	0.444123
H98	H	1.273272	-0.321524	0.319304
N99	N	1.383981	-0.646062	0.778595
H100	H	1.456034	-0.665570	0.752162
H101	H	1.364652	-0.573330	0.752262
H102	H	1.455863	-0.918699	0.669454
N103	N	1.462121	-1.110372	0.696727
H104	H	1.526002	-1.157460	0.694462
H105	H	1.400439	-1.151730	0.724655
H106	H	1.545493	-0.919295	0.333165
H107	H	1.407980	-0.917843	0.371009
H108	H	1.692484	-0.917676	0.482037
N109	N	1.652955	-0.374723	1.234817
H110	H	1.705738	-0.321477	1.261265
H111	H	1.672201	-0.447468	1.261177
H112	H	1.656990	-1.101767	0.613945
H113	H	1.651570	-0.919166	0.618486
N114	N	1.792668	-0.233993	0.892758
H115	H	1.750005	-0.184873	0.847221
H116	H	1.841298	-0.277203	0.847308
N117	N	1.246985	-0.646354	0.640286
H118	H	1.273426	-0.699660	0.692945
H119	H	1.273366	-0.573621	0.659693
