data_functionalizedCrystal
_audit_creation_method	'MofGen! by Chris Wilmer'
_symmetry_space_group_name_H-M	'P1'
_symmetry_Int_Tables_number	1
_symmetry_cell_setting	triclinic
loop_
_symmetry_equiv_pos_as_xyz
  x,y,z
_cell_length_a	10.686220
_cell_length_b	16.120484
_cell_length_c	10.686551
_cell_angle_alpha	88.707809
_cell_angle_beta	90.308082
_cell_angle_gamma	97.070967
loop_
_atom_site_label
_atom_site_type_symbol
_atom_site_fract_x
_atom_site_fract_y
_atom_site_fract_z
Zn1	Zn	1.957921	-0.203137	-0.579045
Zn2	Zn	1.931025	-0.353948	-0.381655
Zn3	Zn	1.730532	-0.224452	-0.387111
Zn4	Zn	1.737575	-0.352260	-0.607294
O5	O	1.839263	-0.283449	-0.488776
O6	O	2.130476	-0.214929	-0.538756
O7	O	1.890226	-0.346397	-0.207623
O8	O	1.769004	-0.105021	-0.403033
O9	O	2.110716	-0.325729	-0.393734
O10	O	1.936065	-0.089361	-0.544046
O11	O	1.742924	-0.251257	-0.211631
O12	O	1.555343	-0.249619	-0.430424
O13	O	1.781008	-0.322851	-0.778303
O14	O	1.560518	-0.343519	-0.592192
O15	O	1.942895	-0.213292	-0.757549
O16	O	1.897056	-0.470327	-0.421125
O17	O	1.754928	-0.469087	-0.586902
C18	C	1.512264	-0.298700	-0.514966
C19	C	1.372373	-0.305242	-0.526202
C20	C	1.823874	-0.499938	-0.506511
C21	C	1.817409	-0.592545	-0.514131
C22	C	1.805615	-0.762098	-0.528067
C23	C	1.873138	-0.803948	-0.449488
C24	C	1.866576	-0.898293	-0.457242
C25	C	1.812176	-0.667744	-0.520315
C26	C	2.167539	-0.268140	-0.462485
C27	C	2.307431	-0.261616	-0.451281
C28	C	1.865737	-0.265505	-0.814505
C29	C	1.877019	-0.257859	-0.953311
C30	C	1.854749	-0.066112	-0.470997
C31	C	1.861348	0.026504	-0.463420
C32	C	1.812969	-0.301259	-0.164304
C33	C	1.801948	-0.308660	-0.025460
H34	H	1.320945	-0.347606	-0.598938
O35	O	1.730939	-0.803957	-0.615316
C36	C	1.805660	-0.846426	-0.694370
H37	H	1.896632	-0.857275	-0.643808
H38	H	1.751562	-0.909168	-0.720091
H39	H	1.829205	-0.807180	-0.783134
O40	O	1.368893	-0.211194	-0.364442
C41	C	1.434970	-0.259489	-0.281494
H42	H	1.453631	-0.319357	-0.329007
H43	H	1.528514	-0.222174	-0.254721
H44	H	1.376200	-0.275986	-0.193684
H45	H	1.935874	-0.768923	-0.376390
O46	O	1.714949	-0.367602	-0.972679
C47	C	1.647397	-0.413287	-1.067624
H48	H	1.706210	-0.408697	-1.156756
H49	H	1.626271	-0.481623	-1.036287
H50	H	1.555088	-0.386485	-1.086605
O51	O	1.963892	-0.199008	-1.006505
C52	C	1.956214	-0.204224	-1.137902
H53	H	1.858565	-0.235083	-1.165609
H54	H	1.973183	-0.138707	-1.181775
H55	H	2.030685	-0.243096	-1.172574
