data_functionalizedCrystal
_audit_creation_method	'MofGen! by Chris Wilmer'
_symmetry_space_group_name_H-M	'P1'
_symmetry_Int_Tables_number	1
_symmetry_cell_setting	triclinic
loop_
_symmetry_equiv_pos_as_xyz
  x,y,z
_cell_length_a	11.169417
_cell_length_b	18.215399
_cell_length_c	11.169416
_cell_angle_alpha	89.975965
_cell_angle_beta	90.011219
_cell_angle_gamma	89.986667
loop_
_atom_site_label
_atom_site_type_symbol
_atom_site_fract_x
_atom_site_fract_y
_atom_site_fract_z
Zn1	Zn	1.834885	-0.416080	-0.477763
Zn2	Zn	2.334885	0.083920	0.022237
Zn3	Zn	1.834798	-0.293027	-0.678479
Zn4	Zn	2.334798	0.206973	-0.178479
Zn5	Zn	1.634194	-0.293035	-0.477812
Zn6	Zn	2.134194	0.206965	0.022188
Zn7	Zn	1.634179	-0.416059	-0.678406
Zn8	Zn	2.134179	0.083941	-0.178406
O9	O	1.734514	-0.354550	-0.578115
O10	O	2.234514	0.145450	-0.078115
O11	O	2.002823	-0.399762	-0.504399
O12	O	2.502823	0.100238	-0.004399
O13	O	1.808157	-0.190044	-0.651912
O14	O	2.308157	0.309956	-0.151912
O15	O	1.660859	-0.309368	-0.309856
O16	O	2.160859	0.190632	0.190144
O17	O	2.002759	-0.309356	-0.651864
O18	O	2.502759	0.190644	-0.151864
O19	O	1.808306	-0.399769	-0.309820
O20	O	2.308306	0.100231	0.190180
O21	O	1.660774	-0.190049	-0.504482
O22	O	2.160774	0.309951	-0.004482
O23	O	1.466242	-0.309349	-0.504411
O24	O	1.966242	0.190651	-0.004411
O25	O	1.660833	-0.519046	-0.651739
O26	O	2.160833	-0.019046	-0.151739
O27	O	1.466231	-0.399735	-0.651786
O28	O	1.966231	0.100265	-0.151786
O29	O	1.808292	-0.519061	-0.504327
O30	O	2.308292	-0.019061	-0.004327
O31	O	1.808142	-0.309336	-0.846419
O32	O	2.308142	0.190664	-0.346419
O33	O	1.660748	-0.399727	-0.846365
O34	O	2.160748	0.100273	-0.346365
C35	C	1.422689	-0.354541	-0.578097
C36	C	1.922689	0.145459	-0.078097
C37	C	1.289289	-0.354554	-0.578118
C38	C	1.789289	0.145446	-0.078118
C39	C	1.734571	-0.546503	-0.578019
C40	C	2.234571	-0.046503	-0.078019
C41	C	1.734595	-0.628302	-0.577978
C42	C	2.234595	-0.128302	-0.077978
C43	C	1.657918	-0.816500	-0.501160
C44	C	2.157918	-0.316500	-0.001160
C45	C	1.657938	-0.893359	-0.501136
C46	C	2.157938	-0.393359	-0.001136
C47	C	1.811415	-0.893342	-0.654653
C48	C	2.311415	-0.393342	-0.154653
C49	C	1.811388	-0.816485	-0.654683
C50	C	2.311388	-0.316485	-0.154683
C51	C	1.734641	-0.778066	-0.577929
C52	C	2.234641	-0.278066	-0.077929
C53	C	1.734689	-0.931782	-0.577876
C54	C	2.234689	-0.431782	-0.077876
C55	C	1.734712	-1.015116	-0.577850
C56	C	2.234712	-0.515116	-0.077850
C57	C	1.734615	-0.694727	-0.577956
C58	C	2.234615	-0.194727	-0.077956
C59	C	2.047556	-0.354560	-0.578134
C60	C	2.547556	0.145440	-0.078134
C61	C	2.180956	-0.354564	-0.578142
C62	C	2.680956	0.145436	-0.078142
C63	C	1.734466	-0.354545	-0.889940
C64	C	2.234466	0.145455	-0.389940
C65	C	1.734556	-0.354567	-1.023340
C66	C	2.234556	0.145433	-0.523340
C67	C	1.734527	-0.163344	-0.578124
C68	C	2.234527	0.336656	-0.078124
C69	C	1.734735	-0.081545	-0.577827
C70	C	2.234735	0.418455	-0.077827
C71	C	1.734594	-0.354572	-0.265073
C72	C	2.234594	0.145428	0.234927
C73	C	1.734629	-0.354581	-0.131673
C74	C	2.234629	0.145419	0.368327
H75	H	1.595425	-0.785221	-0.438662
H76	H	2.095425	-0.285221	0.061338
H77	H	1.873868	-0.785191	-0.717202
H78	H	2.373868	-0.285191	-0.217202
H79	H	1.873901	-0.924632	-0.717143
H80	H	2.373901	-0.424632	-0.217143
C81	C	1.573544	-0.935633	-0.416676
C82	C	2.073544	-0.435633	0.083324
N83	N	1.509975	-0.967473	-0.353056
N84	N	2.009975	-0.467473	0.146944
