data_functionalizedCrystal
_audit_creation_method	'MofGen! by Chris Wilmer'
_symmetry_space_group_name_H-M	'P1'
_symmetry_Int_Tables_number	1
_symmetry_cell_setting	triclinic
loop_
_symmetry_equiv_pos_as_xyz
  x,y,z
_cell_length_a	14.971486
_cell_length_b	9.065218
_cell_length_c	13.448316
_cell_angle_alpha	89.995277
_cell_angle_beta	89.998199
_cell_angle_gamma	84.315007
loop_
_atom_site_label
_atom_site_type_symbol
_atom_site_fract_x
_atom_site_fract_y
_atom_site_fract_z
O1	O	1.188380	0.192261	-0.082573
O2	O	0.928152	0.215285	-0.082600
O3	O	1.063645	-0.010978	-0.082584
O4	O	1.052887	0.418525	-0.082589
O5	O	1.063628	-0.010992	0.082800
O6	O	0.928134	0.215271	0.082784
O7	O	1.188363	0.192248	0.082811
Cu8	Cu	1.058247	0.203758	0.097898
Cu9	Cu	1.058268	0.203775	-0.097687
O10	O	1.052870	0.418511	0.082795
C11	C	0.894811	0.214248	0.000089
C12	C	0.795491	0.211163	0.000078
C13	C	0.739256	0.344086	0.000078
C14	C	0.645935	0.341178	0.000093
C15	C	0.608850	0.205345	0.000101
C16	C	0.665092	0.072412	0.000104
C17	C	0.758411	0.075321	0.000096
C18	C	0.470584	0.066357	0.000118
C19	C	0.377259	0.063446	0.000124
C20	C	0.358108	0.332214	0.000115
C21	C	0.451427	0.335123	0.000107
C22	C	0.507663	0.202189	0.000108
C23	C	1.062602	-0.065951	0.000106
C24	C	1.059511	-0.229731	0.000101
C25	C	1.221704	0.193284	0.000120
C26	C	1.321024	0.196370	0.000124
C27	C	1.053912	0.473483	0.000102
C28	C	1.057004	0.637264	0.000101
N29	N	1.058239	0.203746	0.235462
N30	N	1.058283	0.203775	-0.235252
C31	C	1.118255	0.103597	0.287510
C32	C	1.118260	0.103596	0.391613
C33	C	1.058254	0.203751	0.443667
C34	C	0.998232	0.303904	0.391612
C35	C	0.998223	0.303897	0.287511
C36	C	0.998257	0.303914	0.608592
C37	C	0.998267	0.303924	0.712701
C38	C	1.118294	0.103613	0.712694
C39	C	1.118285	0.103606	0.608593
C40	C	1.058264	0.203761	0.556546
H41	H	0.804197	-0.032919	0.000096
C42	C	1.183283	-0.005304	0.448168
C43	C	1.134925	-0.095789	0.507926
C44	C	1.194798	-0.196144	0.560025
H45	H	1.220969	0.047699	0.488850
H46	H	1.219007	-0.065028	0.402283
H47	H	1.099217	-0.036073	0.553805
H48	H	1.097243	-0.148825	0.467269
H49	H	1.230521	-0.255867	0.514140
H50	H	1.232480	-0.143129	0.600701
H51	H	1.161996	-0.257559	0.600570
H52	H	0.949403	0.385479	0.755078
C53	C	1.183418	-0.005367	0.769067
C54	C	1.167766	-0.150388	0.743736
C55	C	1.227751	-0.250807	0.795639
H56	H	1.174895	0.008763	0.838537
H57	H	1.243254	0.010743	0.751972
H58	H	1.107945	-0.166492	0.760837
H59	H	1.176296	-0.164565	0.674275
H60	H	1.287587	-0.234697	0.778543
H61	H	1.219223	-0.236664	0.865106
H62	H	1.217145	-0.349214	0.778452
C63	C	1.183445	-0.005311	0.231179
C64	C	1.235988	-0.093044	0.299047
C65	C	1.296042	-0.193405	0.247194
H66	H	1.221188	0.047684	0.190554
H67	H	1.150792	-0.066898	0.190601
H68	H	1.268638	-0.031465	0.339607
H69	H	1.198270	-0.146072	0.339673
H70	H	1.263389	-0.254992	0.206617
H71	H	1.333778	-0.140397	0.206572
H72	H	1.331693	-0.252953	0.293235
C73	C	0.491735	0.482562	-0.000126
C74	C	0.544720	0.492085	-0.085237
C75	C	0.581852	0.627896	-0.085497
H76	H	0.527810	0.489446	0.057471
H77	H	0.444898	0.561351	-0.000182
H78	H	0.591550	0.413318	-0.085171
H79	H	0.508665	0.485227	-0.142848
H80	H	0.535016	0.706685	-0.085553
H81	H	0.617923	0.634768	-0.027896
H82	H	0.617800	0.634381	-0.143248
H83	H	0.949351	0.385446	0.245135
H84	H	1.167151	0.022060	0.566211
H85	H	0.949378	0.385467	0.566219
C86	C	0.932977	0.412705	0.447945
C87	C	0.880396	0.500379	0.380078
C88	C	0.820264	0.600611	0.431933
H89	H	0.965543	0.474356	0.488549
H90	H	0.895273	0.359564	0.488543
H91	H	0.918095	0.553517	0.339498
H92	H	0.847811	0.438770	0.339472
H93	H	0.782560	0.547470	0.472531
H94	H	0.852838	0.662252	0.472535
H95	H	0.784576	0.660101	0.385894
C96	C	0.779391	0.491674	-0.000087
C97	C	0.750887	0.572062	-0.085158
C98	C	0.787828	0.708038	-0.085334
H99	H	0.843022	0.474588	-0.000144
H100	H	0.760138	0.546486	0.057558
H101	H	0.770145	0.517263	-0.142788
H102	H	0.687262	0.589188	-0.085119
H103	H	0.768575	0.762850	-0.027690
H104	H	0.851457	0.690937	-0.085389
H105	H	0.768487	0.762604	-0.143049
H106	H	0.312316	0.440454	0.000118
C107	C	0.336821	-0.083879	0.000098
C108	C	0.243060	-0.057967	0.000077
C109	C	0.205778	-0.193647	0.000043
H110	H	0.355949	-0.138720	0.057762
H111	H	0.355995	-0.138646	-0.057592
H112	H	0.223894	-0.003223	0.057760
H113	H	0.223906	-0.003148	-0.057583
H114	H	0.224952	-0.248414	-0.057647
H115	H	0.224913	-0.248478	0.057708
H116	H	0.142158	-0.176084	0.000019
C117	C	0.531684	-0.077927	0.000320
C118	C	0.585808	-0.084143	0.085413
C119	C	0.642095	-0.217039	0.085634
H120	H	0.568566	-0.082513	-0.057289
H121	H	0.496264	-0.159283	0.000376
H122	H	0.621225	-0.002810	0.085349
H123	H	0.548951	-0.079583	0.143037
H124	H	0.606674	-0.298395	0.085690
H125	H	0.678970	-0.221613	0.028021
H126	H	0.678819	-0.221281	0.143373
H127	H	0.634890	-0.038186	0.000125
H128	H	0.600152	0.449418	0.000092
