data_functionalizedCrystal
_audit_creation_method	'MofGen! by Chris Wilmer'
_symmetry_space_group_name_H-M	'P1'
_symmetry_Int_Tables_number	1
_symmetry_cell_setting	triclinic
loop_
_symmetry_equiv_pos_as_xyz
  x,y,z
_cell_length_a	19.288840
_cell_length_b	18.366186
_cell_length_c	19.288864
_cell_angle_alpha	89.973735
_cell_angle_beta	96.868870
_cell_angle_gamma	90.012747
loop_
_atom_site_label
_atom_site_type_symbol
_atom_site_fract_x
_atom_site_fract_y
_atom_site_fract_z
O1	O	0.921360	0.060706	-0.086564
O2	O	1.171360	0.310706	0.163436
O3	O	1.421360	0.560706	0.413436
O4	O	1.671360	0.810706	0.663436
O5	O	0.719097	0.060685	-0.098271
O6	O	0.969097	0.310685	0.151729
O7	O	1.219097	0.560685	0.401729
O8	O	1.469097	0.810685	0.651729
O9	O	0.826073	0.060651	0.008713
O10	O	1.076073	0.310651	0.258713
O11	O	1.326073	0.560651	0.508713
O12	O	1.576073	0.810651	0.758713
O13	O	0.814384	0.060740	-0.193549
O14	O	1.064384	0.310740	0.056451
O15	O	1.314384	0.560740	0.306451
O16	O	1.564384	0.810740	0.556451
O17	O	0.826062	-0.060448	0.008715
O18	O	1.076062	0.189552	0.258715
O19	O	1.326062	0.439552	0.508715
O20	O	1.576062	0.689552	0.758715
O21	O	0.719086	-0.060414	-0.098269
O22	O	0.969086	0.189586	0.151731
O23	O	1.219086	0.439586	0.401731
O24	O	1.469086	0.689586	0.651731
O25	O	0.921349	-0.060394	-0.086562
O26	O	1.171349	0.189606	0.163438
O27	O	1.421349	0.439606	0.413438
O28	O	1.671349	0.689606	0.663438
Zn29	Zn	0.820216	-0.079631	-0.092415
Zn30	Zn	1.070216	0.170369	0.157585
Zn31	Zn	1.320216	0.420369	0.407585
Zn32	Zn	1.570216	0.670369	0.657585
Zn33	Zn	0.820231	0.079923	-0.092418
Zn34	Zn	1.070231	0.329923	0.157582
Zn35	Zn	1.320231	0.579923	0.407582
Zn36	Zn	1.570231	0.829923	0.657582
O37	O	0.814373	-0.060359	-0.193546
O38	O	1.064373	0.189641	0.056454
O39	O	1.314373	0.439641	0.306454
O40	O	1.564373	0.689641	0.556454
C41	C	0.693215	0.000132	-0.097896
C42	C	0.943215	0.250132	0.152104
C43	C	1.193215	0.500132	0.402104
C44	C	1.443215	0.750132	0.652104
C45	C	0.616110	0.000122	-0.096774
C46	C	0.866110	0.250122	0.153226
C47	C	1.116110	0.500122	0.403226
C48	C	1.366110	0.750122	0.653226
N49	N	0.820211	-0.188522	-0.092412
N50	N	1.070211	0.061478	0.157588
N51	N	1.320211	0.311478	0.407588
N52	N	1.570211	0.561478	0.657588
C53	C	0.867611	-0.773088	-0.045056
C54	C	1.117611	-0.523088	0.204944
C55	C	1.367611	-0.273088	0.454944
C56	C	1.617611	-0.023088	0.704944
C57	C	0.867612	-0.696860	-0.045057
C58	C	1.117612	-0.446860	0.204943
C59	C	1.367612	-0.196860	0.454943
C60	C	1.617612	0.053140	0.704943
C61	C	0.820231	-0.658733	-0.092412
C62	C	1.070231	-0.408733	0.157588
C63	C	1.320231	-0.158733	0.407588
C64	C	1.570231	0.091267	0.657588
C65	C	0.772857	-0.696841	-0.139781
C66	C	1.022857	-0.446841	0.110219
C67	C	1.272857	-0.196841	0.360219
C68	C	1.522857	0.053159	0.610219
C69	C	0.772863	-0.773068	-0.139782
C70	C	1.022863	-0.523068	0.110218
C71	C	1.272863	-0.273068	0.360218
C72	C	1.522863	-0.023068	0.610218
C73	C	0.756938	-0.537983	-0.101687
C74	C	1.006938	-0.287983	0.148313
C75	C	1.256938	-0.037983	0.398313
C76	C	1.506938	0.212017	0.648313
C77	C	0.756931	-0.461758	-0.101681
C78	C	1.006931	-0.211758	0.148319
C79	C	1.256931	0.038242	0.398319
C80	C	1.506931	0.288242	0.648319
C81	C	0.820215	-0.423626	-0.092411
C82	C	1.070215	-0.173626	0.157589
C83	C	1.320215	0.076374	0.407589
C84	C	1.570215	0.326374	0.657589
C85	C	0.883507	-0.461728	-0.083132
C86	C	1.133507	-0.211728	0.166868
C87	C	1.383507	0.038272	0.416868
C88	C	1.633507	0.288272	0.666868
C89	C	0.883513	-0.537954	-0.083134
C90	C	1.133513	-0.287954	0.166866
C91	C	1.383513	-0.037954	0.416866
C92	C	1.633513	0.212046	0.666866
C93	C	0.820220	-0.576079	-0.092416
C94	C	1.070220	-0.326079	0.157584
C95	C	1.320220	-0.076079	0.407584
C96	C	1.570220	0.173921	0.657584
C97	C	0.867590	-0.302872	-0.045050
C98	C	1.117590	-0.052872	0.204950
C99	C	1.367590	0.197128	0.454950
C100	C	1.617590	0.447128	0.704950
C101	C	0.867591	-0.226643	-0.045056
C102	C	1.117591	0.023357	0.204944
C103	C	1.367591	0.273357	0.454944
C104	C	1.617591	0.523357	0.704944
C105	C	0.772831	-0.226626	-0.139776
C106	C	1.022831	0.023374	0.110224
C107	C	1.272831	0.273374	0.360224
C108	C	1.522831	0.523374	0.610224
C109	C	0.772835	-0.302854	-0.139773
C110	C	1.022835	-0.052854	0.110227
C111	C	1.272835	0.197146	0.360227
C112	C	1.522835	0.447146	0.610227
C113	C	0.820214	-0.340972	-0.092406
C114	C	1.070214	-0.090972	0.157594
C115	C	1.320214	0.159028	0.407594
C116	C	1.570214	0.409028	0.657594
C117	C	0.579913	0.066135	-0.096237
C118	C	0.829913	0.316135	0.153763
C119	C	1.079913	0.566135	0.403763
C120	C	1.329913	0.816135	0.653763
C121	C	0.507466	0.066143	-0.095175
C122	C	0.757466	0.316143	0.154825
C123	C	1.007466	0.566143	0.404825
C124	C	1.257466	0.816143	0.654825
C125	C	0.471221	0.000135	-0.094636
C126	C	0.721221	0.250135	0.155364
C127	C	0.971221	0.500135	0.405364
C128	C	1.221221	0.750135	0.655364
C129	C	0.507427	-0.065886	-0.095178
C130	C	0.757427	0.184114	0.154822
C131	C	1.007427	0.434114	0.404822
C132	C	1.257427	0.684114	0.654822
C133	C	0.579871	-0.065893	-0.096247
C134	C	0.829871	0.184107	0.153753
C135	C	1.079871	0.434107	0.403753
C136	C	1.329871	0.684107	0.653753
C137	C	0.361889	-0.050445	-0.052257
C138	C	0.611889	0.199555	0.197743
C139	C	0.861889	0.449555	0.447743
C140	C	1.111889	0.699555	0.697743
C141	C	0.289446	-0.050435	-0.051184
C142	C	0.539446	0.199565	0.198816
C143	C	0.789446	0.449565	0.448816
C144	C	1.039446	0.699565	0.698816
C145	C	0.247778	0.000153	-0.091342
C146	C	0.497778	0.250153	0.158658
C147	C	0.747778	0.500153	0.408658
C148	C	0.997778	0.750153	0.658658
C149	C	0.278562	0.050744	-0.132565
C150	C	0.528562	0.300744	0.117435
C151	C	0.778562	0.550744	0.367435
C152	C	1.028562	0.800744	0.617435
C153	C	0.351006	0.050737	-0.133634
C154	C	0.601006	0.300737	0.116366
C155	C	0.851006	0.550737	0.366366
C156	C	1.101006	0.800737	0.616366
C157	C	0.392667	0.000135	-0.093477
C158	C	0.642667	0.250135	0.156523
C159	C	0.892667	0.500135	0.406523
C160	C	1.142667	0.750135	0.656523
C161	C	0.133025	0.066179	-0.089654
C162	C	0.383025	0.316179	0.160346
C163	C	0.633025	0.566179	0.410346
C164	C	0.883025	0.816179	0.660346
C165	C	0.060576	0.066185	-0.088596
C166	C	0.310576	0.316185	0.161404
C167	C	0.560576	0.566185	0.411404
C168	C	0.810576	0.816185	0.661404
C169	C	0.060539	-0.065847	-0.088593
C170	C	0.310539	0.184153	0.161407
C171	C	0.560539	0.434153	0.411407
C172	C	0.810539	0.684153	0.661407
C173	C	0.132986	-0.065851	-0.089657
C174	C	0.382986	0.184149	0.160343
C175	C	0.632986	0.434149	0.410343
C176	C	0.882986	0.684149	0.660343
C177	C	0.169225	0.000164	-0.090185
C178	C	0.419225	0.250164	0.159815
C179	C	0.669225	0.500164	0.409815
C180	C	0.919225	0.750164	0.659815
C181	C	0.947232	0.000161	-0.086937
C182	C	1.197232	0.250161	0.163063
C183	C	1.447232	0.500161	0.413063
C184	C	1.697232	0.750161	0.663063
C185	C	1.024336	0.000176	-0.088059
C186	C	1.274336	0.250176	0.161941
C187	C	1.524336	0.500176	0.411941
C188	C	1.774336	0.750176	0.661941
N189	N	0.820241	0.188814	-0.092415
N190	N	1.070241	0.438814	0.157585
N191	N	1.320241	0.688814	0.407585
N192	N	1.570241	0.938814	0.657585
C193	C	0.814755	0.000202	-0.219424
C194	C	1.064755	0.250202	0.030576
C195	C	1.314755	0.500202	0.280576
C196	C	1.564755	0.750202	0.530576
C197	C	0.815884	0.000237	-0.296527
C198	C	1.065884	0.250237	-0.046527
C199	C	1.315884	0.500237	0.203473
C200	C	1.565884	0.750237	0.453473
C201	C	0.753115	0.000216	-0.341229
C202	C	1.003115	0.250216	-0.091229
C203	C	1.253115	0.500216	0.158771
C204	C	1.503115	0.750216	0.408771
C205	C	0.754176	0.000199	-0.413676
C206	C	1.004176	0.250199	-0.163676
C207	C	1.254176	0.500199	0.086324
C208	C	1.504176	0.750199	0.336324
C209	C	0.818009	0.000189	-0.441418
C210	C	1.068009	0.250189	-0.191418
C211	C	1.318009	0.500189	0.058582
C212	C	1.568009	0.750189	0.308582
C213	C	0.880786	0.000215	-0.396706
C214	C	1.130786	0.250215	-0.146706
C215	C	1.380786	0.500215	0.103294
C216	C	1.630786	0.750215	0.353294
C217	C	0.879723	0.000238	-0.324261
C218	C	1.129723	0.250238	-0.074261
C219	C	1.379723	0.500238	0.175739
C220	C	1.629723	0.750238	0.425739
C221	C	0.868184	-0.042271	-0.549663
C222	C	1.118184	0.207729	-0.299663
C223	C	1.368184	0.457729	-0.049663
C224	C	1.618184	0.707729	0.200337
C225	C	0.869244	-0.042299	-0.622107
C226	C	1.119244	0.207701	-0.372107
C227	C	1.369244	0.457701	-0.122107
C228	C	1.619244	0.707701	0.127893
C229	C	0.821289	0.000120	-0.664863
C230	C	1.071289	0.250120	-0.414863
C231	C	1.321289	0.500120	-0.164863
C232	C	1.571289	0.750120	0.085137
C233	C	0.772261	0.042557	-0.635168
C234	C	1.022261	0.292557	-0.385168
C235	C	1.272261	0.542557	-0.135168
C236	C	1.522261	0.792557	0.114832
C237	C	0.771199	0.042580	-0.562723
C238	C	1.021199	0.292580	-0.312723
C239	C	1.271199	0.542580	-0.062723
C240	C	1.521199	0.792580	0.187277
C241	C	0.819168	0.000164	-0.519972
C242	C	1.069168	0.250164	-0.269972
C243	C	1.319168	0.500164	-0.019972
C244	C	1.569168	0.750164	0.230028
C245	C	0.759666	0.000082	-0.788121
C246	C	1.009666	0.250082	-0.538121
C247	C	1.259666	0.500082	-0.288121
C248	C	1.509666	0.750082	-0.038121
C249	C	0.760729	0.000070	-0.860569
C250	C	1.010729	0.250070	-0.610569
C251	C	1.260729	0.500070	-0.360569
C252	C	1.510729	0.750070	-0.110569
C253	C	0.887341	0.000078	-0.843598
C254	C	1.137341	0.250078	-0.593598
C255	C	1.387341	0.500078	-0.343598
C256	C	1.637341	0.750078	-0.093598
C257	C	0.886276	0.000097	-0.771151
C258	C	1.136276	0.250097	-0.521151
C259	C	1.386276	0.500097	-0.271151
C260	C	1.636276	0.750097	-0.021151
C261	C	0.822436	0.000096	-0.743418
C262	C	1.072436	0.250096	-0.493418
C263	C	1.322436	0.500096	-0.243418
C264	C	1.572436	0.750096	0.006582
C265	C	0.825692	0.000091	0.034591
C266	C	1.075692	0.250091	0.284591
C267	C	1.325692	0.500091	0.534591
C268	C	1.575692	0.750091	0.784591
C269	C	0.824563	0.000061	0.111694
C270	C	1.074563	0.250061	0.361694
C271	C	1.324563	0.500061	0.611694
C272	C	1.574563	0.750061	0.861694
H273	H	0.906191	-0.804122	-0.006488
H274	H	1.156191	-0.554122	0.243512
H275	H	1.406191	-0.304122	0.493512
H276	H	1.656191	-0.054122	0.743512
H277	H	0.609343	-0.119650	-0.096685
H278	H	0.859343	0.130350	0.153315
H279	H	1.109343	0.380350	0.403315
H280	H	1.359343	0.630350	0.653315
F281	F	0.719024	0.087747	-0.531121
F282	F	0.969024	0.337747	-0.281121
F283	F	1.219024	0.587747	-0.031121
F284	F	1.469024	0.837747	0.218879
H285	H	0.906188	-0.665834	-0.006490
H286	H	1.156188	-0.415834	0.243510
H287	H	1.406188	-0.165834	0.493510
H288	H	1.656188	0.084166	0.743510
H289	H	0.031105	0.119943	-0.088163
H290	H	0.281105	0.369943	0.161837
H291	H	0.531105	0.619943	0.411837
H292	H	0.781105	0.869943	0.661837
F293	F	0.918015	-0.186094	0.005349
F294	F	1.168015	0.063906	0.255349
F295	F	1.418015	0.313906	0.505349
F296	F	1.668015	0.563906	0.755349
H297	H	0.935039	-0.430683	-0.075589
H298	H	1.185039	-0.180683	0.174411
H299	H	1.435039	0.069317	0.424411
H300	H	1.685039	0.319317	0.674411
H301	H	0.935047	-0.568974	-0.075581
H302	H	1.185047	-0.318974	0.174419
H303	H	1.435047	-0.068974	0.424419
H304	H	1.685047	0.181026	0.674419
F305	F	0.918017	-0.343442	0.005359
F306	F	1.168017	-0.093442	0.255359
F307	F	1.418017	0.156558	0.505359
F308	F	1.668017	0.406558	0.755359
H309	H	0.264388	-0.091626	-0.017615
H310	H	0.514388	0.158374	0.232385
H311	H	0.764388	0.408374	0.482385
H312	H	1.014388	0.658374	0.732385
H313	H	0.734255	-0.195584	-0.178336
H314	H	0.984255	0.054416	0.071664
H315	H	1.234255	0.304416	0.321664
H316	H	1.484255	0.554416	0.571664
H317	H	0.376068	0.091928	-0.167200
H318	H	0.626068	0.341928	0.082800
H319	H	0.876068	0.591928	0.332800
H320	H	1.126068	0.841928	0.582800
H321	H	0.701132	0.000221	-0.318654
H322	H	0.951132	0.250221	-0.068654
H323	H	1.201132	0.500221	0.181346
H324	H	1.451132	0.750221	0.431346
H325	H	0.734259	-0.333876	-0.178335
H326	H	0.984259	-0.083876	0.071665
H327	H	1.234259	0.166124	0.321665
H328	H	1.484259	0.416124	0.571665
H329	H	0.733207	0.077093	-0.669980
H330	H	0.983207	0.327093	-0.419980
H331	H	1.233207	0.577093	-0.169980
H332	H	1.483207	0.827093	0.080020
F333	F	0.691723	0.000084	-0.758603
F334	F	0.941723	0.250084	-0.508603
F335	F	1.191723	0.500084	-0.258603
F336	F	1.441723	0.750084	-0.008603
H337	H	0.709613	0.000058	-0.896966
H338	H	0.959613	0.250058	-0.646966
H339	H	1.209613	0.500058	-0.396966
H340	H	1.459613	0.750058	-0.146966
F341	F	0.687366	0.000175	-0.461260
F342	F	0.937366	0.250175	-0.211260
F343	F	1.187366	0.500175	0.038740
F344	F	1.437366	0.750175	0.288740
F345	F	0.021969	-0.136098	-0.088025
F346	F	0.271969	0.113902	0.161975
F347	F	0.521969	0.363902	0.411975
F348	F	0.771969	0.613902	0.661975
H349	H	0.162531	0.119933	-0.090091
H350	H	0.412531	0.369933	0.159909
H351	H	0.662531	0.619933	0.409909
H352	H	0.912531	0.869933	0.659909
H353	H	0.909163	-0.076856	-0.646279
H354	H	1.159163	0.173144	-0.396279
H355	H	1.409163	0.423144	-0.146279
H356	H	1.659163	0.673144	0.103721
F357	F	0.171511	-0.136112	-0.090226
F358	F	0.421511	0.113888	0.159774
F359	F	0.671511	0.363888	0.409774
F360	F	0.921511	0.613888	0.659774
H361	H	0.395810	-0.091643	-0.019554
H362	H	0.645810	0.158357	0.230446
H363	H	0.895810	0.408357	0.480446
H364	H	1.145810	0.658357	0.730446
F365	F	0.955277	0.000074	-0.873118
F366	F	1.205277	0.250074	-0.623118
F367	F	1.455277	0.500074	-0.373118
F368	F	1.705277	0.750074	-0.123118
H369	H	0.734288	-0.804088	-0.178349
H370	H	0.984288	-0.554088	0.071651
H371	H	1.234288	-0.304088	0.321651
H372	H	1.484288	-0.054088	0.571651
H373	H	0.907242	-0.076812	-0.514855
H374	H	1.157242	0.173188	-0.264855
H375	H	1.407242	0.423188	-0.014855
H376	H	1.657242	0.673188	0.235145
H377	H	0.937389	0.000110	-0.734754
H378	H	1.187389	0.250110	-0.484754
H379	H	1.437389	0.500110	-0.234754
H380	H	1.687389	0.750110	0.015246
H381	H	0.705395	-0.430741	-0.109228
H382	H	0.955395	-0.180741	0.140772
H383	H	1.205395	0.069259	0.390772
H384	H	1.455395	0.319259	0.640772
F385	F	0.689578	-0.578559	-0.111558
F386	F	0.939578	-0.328559	0.138442
F387	F	1.189578	-0.078559	0.388442
F388	F	1.439578	0.171441	0.638442
F389	F	0.722433	-0.656264	-0.190181
F390	F	0.972433	-0.406264	0.059819
F391	F	1.222433	-0.156264	0.309819
F392	F	1.472433	0.093736	0.559819
F393	F	0.468851	-0.136137	-0.094609
F394	F	0.718851	0.113863	0.155391
F395	F	0.968851	0.363863	0.405391
F396	F	1.218851	0.613863	0.655391
H397	H	0.932759	0.000220	-0.419298
H398	H	1.182759	0.250220	-0.169298
H399	H	1.432759	0.500220	0.080702
H400	H	1.682759	0.750220	0.330702
H401	H	0.930839	0.000256	-0.287864
H402	H	1.180839	0.250256	-0.037864
H403	H	1.430839	0.500256	0.212136
H404	H	1.680839	0.750256	0.462136
H405	H	0.609414	0.119890	-0.096666
H406	H	0.859414	0.369890	0.153334
H407	H	1.109414	0.619890	0.403334
H408	H	1.359414	0.869890	0.653334
F409	F	0.468934	0.136406	-0.094602
F410	F	0.718934	0.386406	0.155398
F411	F	0.968934	0.636406	0.405398
F412	F	1.218934	0.886406	0.655398
H413	H	0.244636	0.091935	-0.165268
H414	H	0.494636	0.341935	0.084732
H415	H	0.744636	0.591935	0.334732
H416	H	0.994636	0.841935	0.584732
