data_functionalizedCrystal
_audit_creation_method	'MofGen! by Chris Wilmer'
_symmetry_space_group_name_H-M	'P1'
_symmetry_Int_Tables_number	1
_symmetry_cell_setting	triclinic
loop_
_symmetry_equiv_pos_as_xyz
  x,y,z
_cell_length_a	17.640112
_cell_length_b	16.625546
_cell_length_c	17.640968
_cell_angle_alpha	78.766516
_cell_angle_beta	92.139080
_cell_angle_gamma	101.247770
loop_
_atom_site_label
_atom_site_type_symbol
_atom_site_fract_x
_atom_site_fract_y
_atom_site_fract_z
Zn1	Zn	1.247778	-0.023167	-0.195079
Zn2	Zn	1.222008	-0.189521	-0.068091
Zn3	Zn	1.095110	-0.075617	-0.093723
Zn4	Zn	1.120749	-0.178908	-0.220673
O5	O	1.171411	-0.116803	-0.144392
O6	O	1.350629	-0.027726	-0.156795
O7	O	1.183660	-0.200804	0.034783
O8	O	1.115417	0.044187	-0.107184
O9	O	1.331696	-0.149946	-0.063498
O10	O	1.227581	0.082722	-0.181650
O11	O	1.090428	-0.117119	0.015951
O12	O	0.992242	-0.106828	-0.132002
O13	O	1.159114	-0.131856	-0.323552
O14	O	1.011078	-0.182715	-0.225272
O15	O	1.252442	-0.017434	-0.304748
O16	O	1.208521	-0.300961	-0.088315
O17	O	1.134126	-0.293163	-0.200417
C18	C	0.974106	-0.149311	-0.184196
C19	C	0.889701	-0.163234	-0.201243
C20	C	0.563039	-0.011024	-0.014898
C21	C	0.483730	-0.024119	-0.030926
C22	C	0.503365	-0.103324	-0.127880
C23	C	0.582678	-0.090232	-0.111863
C24	C	0.612508	-0.044082	-0.055370
C25	C	0.632147	-0.123289	-0.152335
C26	C	0.711452	-0.110201	-0.136316
C27	C	0.741288	-0.064056	-0.079824
C28	C	0.691813	-0.030994	-0.039351
C29	C	0.602314	-0.169444	-0.208823
C30	C	0.651783	-0.202502	-0.249296
C31	C	0.731091	-0.189409	-0.233281
C32	C	0.760927	-0.143264	-0.176789
C33	C	0.780566	-0.222471	-0.273754
C34	C	0.859871	-0.209383	-0.257735
C35	C	0.840232	-0.130176	-0.160770
C36	C	1.171333	-0.326314	-0.144374
C37	C	1.171374	-0.415926	-0.144378
C38	C	1.171522	-0.744060	-0.144431
C39	C	1.171479	-0.652763	-0.144419
C40	C	1.171448	-0.579996	-0.144404
C41	C	1.171406	-0.488693	-0.144393
C42	C	1.369487	-0.084169	-0.104432
C43	C	1.453895	-0.070262	-0.087404
C44	C	1.211513	-0.067611	-0.342476
C45	C	1.228602	-0.046647	-0.426888
C46	C	1.171514	0.093533	-0.144422
C47	C	1.171558	0.183166	-0.144434
C48	C	1.041880	-0.275571	-0.753453
C49	C	1.057954	-0.255860	-0.832768
C50	C	1.155128	-0.136723	-0.813179
C51	C	1.139059	-0.156422	-0.733861
C52	C	1.082435	-0.225847	-0.704005
C53	C	1.179615	-0.106698	-0.684413
C54	C	1.163551	-0.126397	-0.605102
C55	C	1.106931	-0.195821	-0.575239
C56	C	1.066371	-0.245547	-0.624694
C57	C	1.236243	-0.037276	-0.714270
C58	C	1.276798	0.012448	-0.664822
C59	C	1.260730	-0.007248	-0.585510
C60	C	1.204111	-0.076672	-0.555647
C61	C	1.301290	0.042478	-0.536055
C62	C	1.285226	0.022778	-0.456744
C63	C	1.188046	-0.096371	-0.476336
C64	C	1.131509	-0.165740	0.052931
C65	C	1.114568	-0.186451	0.137372
H66	H	0.716104	0.006601	0.006640
H67	H	0.479066	-0.140902	-0.173874
H68	H	1.024924	-0.296357	-0.873027
C69	C	1.004113	-0.321939	-0.591842
H70	H	0.982268	-0.348744	-0.632647
H71	H	0.964764	-0.304262	-0.567568
H72	H	1.026917	-0.359956	-0.555046
H73	H	0.537739	-0.180099	-0.221864
H74	H	1.141919	-0.152888	-0.452030
H75	H	0.627484	-0.240080	-0.295290
H76	H	1.093855	-0.211862	-0.510658
H77	H	0.756265	-0.260053	-0.319745
H78	H	0.443455	0.002811	0.002031
C79	C	1.253916	-0.015602	-0.801510
H80	H	1.293454	0.032859	-0.812208
H81	H	1.208554	-0.005270	-0.829346
H82	H	1.270659	-0.061025	-0.816794
H83	H	1.322904	0.068973	-0.689141
C84	C	0.979622	-0.351963	-0.720601
H85	H	0.957777	-0.378768	-0.761406
H86	H	0.940272	-0.334286	-0.696327
H87	H	1.002426	-0.389981	-0.683805
H88	H	0.900151	-0.236301	-0.290693
H89	H	1.318249	0.063269	-0.416482
C90	C	0.595859	0.039754	0.047233
H91	H	0.555040	0.057571	0.069045
H92	H	0.632702	0.087169	0.024366
H93	H	0.620075	0.005837	0.086627
H94	H	1.347399	0.098999	-0.560375
C95	C	0.873055	-0.079406	-0.098634
H96	H	0.927372	-0.076344	-0.094896
H97	H	0.849712	-0.105940	-0.050214
H98	H	0.862342	-0.024604	-0.112471
H99	H	0.805864	-0.053403	-0.066781
H100	H	1.201233	-0.080199	-0.837498
