data_functionalizedCrystal
_audit_creation_method	'MofGen! by Chris Wilmer'
_symmetry_space_group_name_H-M	'P1'
_symmetry_Int_Tables_number	1
_symmetry_cell_setting	triclinic
loop_
_symmetry_equiv_pos_as_xyz
  x,y,z
_cell_length_a	27.440280
_cell_length_b	14.809374
_cell_length_c	14.809374
_cell_angle_alpha	61.589507
_cell_angle_beta	98.947344
_cell_angle_gamma	55.123895
loop_
_atom_site_label
_atom_site_type_symbol
_atom_site_fract_x
_atom_site_fract_y
_atom_site_fract_z
Zr1	Zr	0.343966	1.187594	-0.307065
O2	O	0.231881	1.413982	-0.488681
O3	O	0.393586	0.961219	-0.226663
O4	O	0.355563	1.187592	-0.453026
O5	O	0.282539	1.187607	-0.111887
O6	O	0.435766	1.187574	-0.453029
O7	O	0.269904	1.187610	-0.262318
O8	O	0.503783	0.782635	-0.048107
O9	O	0.214521	1.592546	-0.516809
O10	O	0.456166	1.054312	-0.222249
O11	O	0.405741	1.054323	-0.109982
O12	O	0.360973	1.320848	-0.376495
O13	O	0.310547	1.320859	-0.264228
Zr14	Zr	0.492031	1.187562	-0.067149
Zr15	Zr	0.471881	1.187566	-0.307070
Zr16	Zr	0.364116	1.187590	-0.067145
Zr17	Zr	0.316280	1.472383	-0.351926
Zr18	Zr	0.519717	0.902773	-0.022289
O19	O	0.442410	1.413937	-0.147551
O20	O	0.413759	1.413943	-0.488687
O21	O	0.260532	1.413976	-0.147545
O22	O	0.604116	0.961173	0.114466
O23	O	0.575465	0.961180	-0.226669
O24	O	0.422238	0.961213	0.114472
O25	O	0.553458	1.187549	-0.262328
O26	O	0.480434	1.187564	0.078811
O27	O	0.400231	1.187582	0.078814
O28	O	0.566092	1.187546	-0.111897
O29	O	0.316197	1.592524	-0.516812
O30	O	0.519800	0.782632	0.142598
O31	O	0.621475	0.782610	0.142594
O32	O	0.605458	0.782613	-0.048110
O33	O	0.230538	1.592543	-0.326104
O34	O	0.332214	1.592521	-0.326108
O35	O	0.475024	1.054308	0.002281
O36	O	0.525450	1.054297	-0.109986
O37	O	0.430256	1.320833	-0.264232
O38	O	0.379830	1.320844	-0.151965
C39	C	0.452629	0.831351	-0.130993
C40	C	0.464383	0.710451	-0.111949
C41	C	0.411929	0.750048	-0.196942
C42	C	0.424075	0.625094	-0.177261
C43	C	0.257996	1.187613	-0.187102
C44	C	0.203693	1.187624	-0.187100
C45	C	-0.139958	1.187545	-0.269977
C46	C	-0.190975	1.187534	-0.269976
O47	O	-0.223262	1.187478	-0.340425
N48	N	-0.209533	1.187536	-0.187104
C49	C	-0.177065	1.187532	-0.104219
O50	O	-0.197534	1.187531	-0.033729
C51	C	-0.126046	1.187532	-0.104215
C52	C	-0.107496	1.187547	-0.187101
C53	C	-0.121408	1.187558	-0.352856
C54	C	-0.070396	1.187572	-0.352858
C55	C	-0.037934	1.187573	-0.269982
C56	C	-0.056484	1.187560	-0.187104
C57	C	-0.093575	1.187518	-0.021324
C58	C	-0.042552	1.187517	-0.021326
C59	C	-0.024003	1.187531	-0.104213
C60	C	0.026990	1.187575	-0.104230
N61	N	0.045548	1.187574	-0.187102
C62	C	0.013086	1.187573	-0.269978
C63	C	-0.284210	1.187530	-0.104233
C64	C	-0.335233	1.187541	-0.104242
C65	C	-0.349138	1.187540	-0.269998
C66	C	-0.298118	1.187540	-0.269994
C67	C	-0.265652	1.187528	-0.187105
C68	C	0.120216	1.187603	-0.269977
C69	C	0.171231	1.187623	-0.269976
C70	C	0.185135	1.187616	-0.104216
C71	C	0.134121	1.187604	-0.104222
C72	C	0.101664	1.187592	-0.187107
O73	O	0.059309	1.187625	-0.033814
O74	O	0.033570	1.187554	-0.340444
C75	C	0.578000	1.187543	-0.187113
C76	C	0.632304	1.187531	-0.187115
C77	C	0.392793	1.187583	-0.487211
C78	C	0.384239	1.187585	-0.589063
C79	C	0.383367	1.543805	-0.243221
C80	C	0.371614	1.664705	-0.262266
C81	C	0.422416	1.187577	-0.634474
C82	C	0.413576	1.187579	-0.739743
C83	C	0.443203	1.187573	0.112996
C84	C	0.451758	1.187571	0.214849
C85	C	0.612631	0.831316	-0.130999
C86	C	0.678688	0.710404	-0.111956
C87	C	0.477835	0.831345	0.169110
C88	C	0.498142	0.710443	0.290007
C89	C	0.637837	0.831311	0.169105
C90	C	0.712448	0.710397	0.290000
C91	C	0.198160	1.543845	-0.543319
C92	C	0.123549	1.664759	-0.664214
C93	C	0.223365	1.543840	-0.243216
C94	C	0.157309	1.664752	-0.262259
C95	C	0.358162	1.543810	-0.543325
C96	C	0.337854	1.664713	-0.664222
C97	C	0.673543	0.653631	-0.161624
C98	C	0.735602	0.540037	-0.143756
C99	C	0.802807	0.483211	-0.076212
C100	C	0.807950	0.539996	-0.026545
C101	C	0.745890	0.653595	-0.044421
C102	C	0.543845	0.653659	0.405392
C103	C	0.562924	0.540074	0.518994
C104	C	0.536302	0.483269	0.517210
C105	C	0.490594	0.540065	0.401812
C106	C	0.471512	0.653655	0.288212
C107	C	0.773813	0.653609	0.288171
C108	C	0.843920	0.540013	0.401753
C109	C	0.852662	0.483200	0.517164
C110	C	0.791289	0.539999	0.518989
C111	C	0.721183	0.653601	0.405407
C112	C	0.062183	1.721561	-0.662388
C113	C	-0.007928	1.835192	-0.775976
C114	C	-0.016670	1.892011	-0.891387
C115	C	0.044703	1.835204	-0.893211
C116	C	0.114811	1.721583	-0.779626
C117	C	0.162452	1.721537	-0.212603
C118	C	0.100388	1.835163	-0.230502
C119	C	0.033182	1.891992	-0.298049
C120	C	0.028040	1.835202	-0.347712
C121	C	0.090102	1.721587	-0.329820
C122	C	0.364488	1.721482	-0.662396
C123	C	0.345421	1.835067	-0.775980
C124	C	0.299715	1.891889	-0.891390
C125	C	0.273082	1.835108	-0.893211
C126	C	0.292154	1.721517	-0.779627
H127	H	0.477980	0.498683	-0.089919
H128	H	0.345012	1.187586	-0.628114
O129	O	0.300207	0.832143	-0.377966
H130	H	0.301867	0.904015	-0.375267
H131	H	0.284191	1.984382	-0.983868
O132	O	0.764396	0.714887	0.163701
H133	H	0.797634	0.619528	0.168985
H134	H	-0.147833	1.187552	-0.420343
O135	O	0.263422	1.660294	-0.781596
H136	H	0.202228	1.755681	-0.843087
O137	O	0.612237	0.478810	0.643448
H138	H	0.585739	0.574180	0.638148
O139	O	0.413794	1.660203	-0.537931
H140	H	0.384033	1.682023	-0.494955
H141	H	0.671221	0.699823	0.406914
O142	O	0.035271	1.896482	-1.017692
H143	H	-0.023790	1.985016	-1.096355
H144	H	0.468922	0.493797	0.400379
H145	H	0.367112	1.881286	-0.774473
H146	H	0.374346	1.187579	-0.778791
H147	H	0.893885	0.493779	0.400246
O148	O	0.191234	1.187648	-0.359385
H149	H	0.251304	1.083634	-0.303156
O150	O	0.556900	0.360727	0.639745
H151	H	0.593163	0.330776	0.720277
O152	O	0.180992	1.660364	-0.781619
H153	H	0.231215	1.571831	-0.683258
O154	O	-0.092294	2.014576	-1.013891
H155	H	-0.114995	1.970985	-1.006957
H156	H	0.798418	0.493725	0.612971
O157	O	0.880439	0.478687	0.046318
H158	H	0.922725	0.390143	0.050411
H159	H	0.069288	1.675305	-0.568424
H160	H	0.565527	0.699897	0.406868
H161	H	0.461649	1.187560	-0.595414
O162	O	0.234930	1.660276	-0.139769
H163	H	0.228065	1.718886	-0.108274
O164	O	0.601059	0.714925	-0.234491
H165	H	0.607916	0.656363	-0.266034
H166	H	0.909751	0.390698	0.609641
O167	O	0.223777	1.896414	-1.017694
H168	H	0.214986	1.984953	-1.096361
O169	O	0.422333	0.714685	0.163794
H170	H	0.407079	0.656008	0.181666
O171	O	0.503733	1.187547	-0.733428
H172	H	0.502521	1.187552	-0.658864
H173	H	0.104589	1.881382	-0.190053
H174	H	-0.026687	1.881491	-0.402710
O175	O	-0.033748	2.014492	-0.317300
H176	H	-0.018869	2.044398	-0.271394
H177	H	0.518284	0.584043	-0.024614
O178	O	-0.007539	1.187507	0.068080
H179	H	0.053195	1.083473	0.132255
O180	O	-0.074115	1.896423	-0.773991
H181	H	-0.056249	1.837790	-0.674649
O182	O	0.084554	1.660328	-0.383366
H183	H	0.027395	1.718930	-0.433327
O184	O	0.085204	1.187612	-0.359384
H185	H	0.106675	1.187640	-0.417018
O186	O	0.730049	0.478796	-0.197324
H187	H	0.713160	0.427030	-0.155281
O188	O	0.340527	0.917484	-0.312637
H189	H	0.342190	0.989353	-0.309936
H190	H	-0.055294	1.187577	-0.420348
H191	H	0.750091	0.699806	-0.003966
O192	O	-0.278109	1.187551	-0.359387
H193	H	-0.254077	1.083518	-0.338921
O194	O	-0.384151	1.187528	-0.359386
H195	H	-0.422738	1.187509	-0.345447
O196	O	-0.355236	1.187519	-0.014841
H197	H	-0.324081	1.187504	0.042793
H198	H	-0.108670	1.187505	0.046170
O199	O	-0.249200	1.187538	-0.014838
H200	H	-0.270685	1.187551	0.042774
H201	H	0.119011	1.187615	-0.036741
H202	H	0.211571	1.187624	-0.036743
O203	O	0.869737	0.360678	-0.056937
H204	H	0.889359	0.404270	-0.100489
