data_functionalizedCrystal
_audit_creation_method	'MofGen! by Chris Wilmer'
_symmetry_space_group_name_H-M	'P1'
_symmetry_Int_Tables_number	1
_symmetry_cell_setting	triclinic
loop_
_symmetry_equiv_pos_as_xyz
  x,y,z
_cell_length_a	12.759401
_cell_length_b	16.625546
_cell_length_c	16.625548
_cell_angle_alpha	90.011514
_cell_angle_beta	90.002963
_cell_angle_gamma	90.023993
loop_
_atom_site_label
_atom_site_type_symbol
_atom_site_fract_x
_atom_site_fract_y
_atom_site_fract_z
Zn1	Zn	1.606023	-0.321118	0.455859
Zn2	Zn	1.856023	-0.071118	0.705859
Zn3	Zn	2.106023	0.178882	0.955859
Zn4	Zn	2.356023	0.428882	1.205859
Zn5	Zn	1.605946	-0.455916	0.321021
Zn6	Zn	1.855946	-0.205916	0.571021
Zn7	Zn	2.105946	0.044084	0.821021
Zn8	Zn	2.355946	0.294084	1.071021
Zn9	Zn	1.430377	-0.321105	0.321044
Zn10	Zn	1.680377	-0.071105	0.571044
Zn11	Zn	1.930377	0.178895	0.821044
Zn12	Zn	2.180377	0.428895	1.071044
Zn13	Zn	1.430290	-0.455916	0.455815
Zn14	Zn	1.680290	-0.205916	0.705815
Zn15	Zn	1.930290	0.044084	0.955815
Zn16	Zn	2.180290	0.294084	1.205815
O17	O	1.518159	-0.388514	0.388435
O18	O	1.768159	-0.138514	0.638435
O19	O	2.018159	0.111486	0.888435
O20	O	2.268159	0.361486	1.138435
O21	O	1.753034	-0.339005	0.437981
O22	O	2.003034	-0.089005	0.687981
O23	O	2.253034	0.160995	0.937981
O24	O	2.503034	0.410995	1.187981
O25	O	1.582660	-0.438028	0.208192
O26	O	1.832660	-0.188028	0.458192
O27	O	2.082660	0.061972	0.708192
O28	O	2.332660	0.311972	0.958192
O29	O	1.453746	-0.208274	0.338955
O30	O	1.703746	0.041726	0.588955
O31	O	1.953746	0.291726	0.838955
O32	O	2.203746	0.541726	1.088955
O33	O	1.752977	-0.438041	0.338917
O34	O	2.002977	-0.188041	0.588917
O35	O	2.252977	0.061959	0.838917
O36	O	2.502977	0.311959	1.088917
O37	O	1.582792	-0.208284	0.438003
O38	O	1.832792	0.041716	0.688003
O39	O	2.082792	0.291716	0.938003
O40	O	2.332792	0.541716	1.188003
O41	O	1.453671	-0.338983	0.208208
O42	O	1.703671	-0.088983	0.458208
O43	O	1.953671	0.161017	0.708208
O44	O	2.203671	0.411017	0.958208
O45	O	1.283345	-0.338982	0.338913
O46	O	1.533345	-0.088982	0.588913
O47	O	1.783345	0.161018	0.838913
O48	O	2.033345	0.411018	1.088913
O49	O	1.453597	-0.438039	0.568653
O50	O	1.703597	-0.188039	0.818653
O51	O	1.953597	0.061961	1.068653
O52	O	2.203597	0.311961	1.318653
O53	O	1.283281	-0.438027	0.437929
O54	O	1.533281	-0.188027	0.687929
O55	O	1.783281	0.061973	0.937929
O56	O	2.033281	0.311973	1.187929
O57	O	1.582708	-0.339004	0.568685
O58	O	1.832708	-0.089004	0.818685
O59	O	2.082708	0.160996	1.068685
O60	O	2.332708	0.410996	1.318685
O61	O	1.582576	-0.568749	0.338874
O62	O	1.832576	-0.318749	0.588874
O63	O	2.082576	-0.068749	0.838874
O64	O	2.332576	0.181251	1.088874
O65	O	1.453522	-0.568748	0.437907
O66	O	1.703522	-0.318748	0.687907
O67	O	1.953522	-0.068748	0.937907
O68	O	2.203522	0.181252	1.187907
C69	C	1.245192	-0.388504	0.388419
C70	C	1.495192	-0.138504	0.638419
C71	C	1.745192	0.111496	0.888419
C72	C	1.995192	0.361496	1.138419
C73	C	1.128415	-0.388519	0.388431
C74	C	1.378415	-0.138519	0.638431
C75	C	1.628415	0.111481	0.888431
C76	C	1.878415	0.361481	1.138431
C77	C	1.073547	-0.440170	0.439908
C78	C	1.323547	-0.190170	0.689908
C79	C	1.573547	0.059830	0.939908
C80	C	1.823547	0.309830	1.189908
C81	C	0.963823	-0.440173	0.439924
C82	C	1.213823	-0.190173	0.689924
C83	C	1.463823	0.059827	0.939924
C84	C	1.713823	0.309827	1.189924
C85	C	0.963844	-0.336872	0.336980
C86	C	1.213844	-0.086872	0.586980
C87	C	1.463844	0.163128	0.836980
C88	C	1.713844	0.413128	1.086980
C89	C	1.073566	-0.336865	0.336968
C90	C	1.323566	-0.086865	0.586968
C91	C	1.573566	0.163135	0.836968
C92	C	1.823566	0.413135	1.086968
C93	C	1.518060	-0.598005	0.388401
C94	C	1.768060	-0.348005	0.638401
C95	C	2.018060	-0.098005	0.888401
C96	C	2.268060	0.151995	1.138401
C97	C	1.518113	-0.687626	0.388414
C98	C	1.768113	-0.437626	0.638414
C99	C	2.018113	-0.187626	0.888414
C100	C	2.268113	0.062374	1.138414
C101	C	1.518296	-1.015801	0.388498
C102	C	1.768296	-0.765801	0.638498
C103	C	2.018296	-0.515801	0.888498
C104	C	2.268296	-0.265801	1.138498
C105	C	1.518242	-0.924493	0.388476
C106	C	1.768242	-0.674493	0.638476
C107	C	2.018242	-0.424493	0.888476
C108	C	2.268242	-0.174493	1.138476
C109	C	1.518204	-0.851716	0.388455
C110	C	1.768204	-0.601716	0.638455
C111	C	2.018204	-0.351716	0.888455
C112	C	2.268204	-0.101716	1.138455
C113	C	1.518151	-0.760402	0.388435
C114	C	1.768151	-0.510402	0.638435
C115	C	2.018151	-0.260402	0.888435
C116	C	2.268151	-0.010402	1.138435
C117	C	1.792192	-0.388524	0.388451
C118	C	2.042192	-0.138524	0.638451
C119	C	2.292192	0.111476	0.888451
C120	C	2.542192	0.361476	1.138451
C121	C	1.908969	-0.388529	0.388458
C122	C	2.158969	-0.138529	0.638458
C123	C	2.408969	0.111471	0.888458
C124	C	2.658969	0.361471	1.138458
C125	C	1.518152	-0.388523	0.598744
C126	C	1.768152	-0.138523	0.848744
C127	C	2.018152	0.111477	1.098744
C128	C	2.268152	0.361477	1.348744
C129	C	1.518148	-0.388527	0.688365
C130	C	1.768148	-0.138527	0.938365
C131	C	2.018148	0.111473	1.188365
C132	C	2.268148	0.361473	1.438365
C133	C	1.518287	-0.178205	0.388486
C134	C	1.768287	0.071795	0.638486
C135	C	2.018287	0.321795	0.888486
C136	C	2.268287	0.571795	1.138486
C137	C	1.518342	-0.088584	0.388508
C138	C	1.768342	0.161416	0.638508
C139	C	2.018342	0.411416	0.888508
C140	C	2.268342	0.661416	1.138508
C141	C	1.518145	-0.388531	0.761147
C142	C	1.768145	-0.138531	1.011147
C143	C	2.018145	0.111469	1.261147
C144	C	2.268145	0.361469	1.511147
C145	C	1.518144	-0.388528	0.852456
C146	C	1.768144	-0.138528	1.102456
C147	C	2.018144	0.111472	1.352456
C148	C	2.268144	0.361472	1.602456
C149	C	1.518149	-0.388521	0.925232
C150	C	1.768149	-0.138521	1.175232
C151	C	2.018149	0.111479	1.425232
C152	C	2.268149	0.361479	1.675232
C153	C	1.518149	-0.388519	1.016546
C154	C	1.768149	-0.138519	1.266546
C155	C	2.018149	0.111481	1.516546
C156	C	2.268149	0.361481	1.766546
C157	C	1.518156	-0.388521	1.178944
C158	C	1.768156	-0.138521	1.428944
C159	C	2.018156	0.111479	1.678944
C160	C	2.268156	0.361479	1.928944
C161	C	1.518154	-0.388512	1.089323
C162	C	1.768154	-0.138512	1.339323
C163	C	2.018154	0.111488	1.589323
C164	C	2.268154	0.361488	1.839323
H165	H	1.118202	-0.482228	0.481814
H166	H	1.368202	-0.232228	0.731814
H167	H	1.618202	0.017772	0.981814
H168	H	1.868202	0.267772	1.231814
H169	H	0.919173	-0.294819	0.295079
H170	H	1.169173	-0.044819	0.545079
H171	H	1.419173	0.205181	0.795079
H172	H	1.669173	0.455181	1.045079
H173	H	0.919155	-0.482231	0.481842
H174	H	1.169155	-0.232231	0.731842
H175	H	1.419155	0.017769	0.981842
H176	H	1.669155	0.267769	1.231842
H177	H	1.118241	-0.294800	0.295050
H178	H	1.368241	-0.044800	0.545050
H179	H	1.618241	0.205200	0.795050
H180	H	1.868241	0.455200	1.045050
