data_functionalizedCrystal
_audit_creation_method	'MofGen! by Chris Wilmer'
_symmetry_space_group_name_H-M	'P1'
_symmetry_Int_Tables_number	1
_symmetry_cell_setting	triclinic
loop_
_symmetry_equiv_pos_as_xyz
  x,y,z
_cell_length_a	16.956995
_cell_length_b	13.339070
_cell_length_c	15.455313
_cell_angle_alpha	93.394339
_cell_angle_beta	87.515363
_cell_angle_gamma	95.841883
loop_
_atom_site_label
_atom_site_type_symbol
_atom_site_fract_x
_atom_site_fract_y
_atom_site_fract_z
O1	O	1.069617	0.036530	-0.072190
O2	O	0.845174	0.071400	-0.072179
O3	O	0.931637	-0.091144	-0.072180
O4	O	0.983155	0.199074	-0.072188
O5	O	0.926684	-0.081885	0.072082
O6	O	0.840222	0.080659	0.072084
O7	O	1.064665	0.045789	0.072072
Cu8	Cu	0.951991	0.064070	0.085250
Cu9	Cu	0.957848	0.053120	-0.085357
O10	O	0.978202	0.208334	0.072074
C11	C	0.813385	0.077815	-0.000046
C12	C	0.726039	0.083123	-0.000041
C13	C	0.920458	-0.123477	-0.000050
C14	C	0.894519	-0.233610	-0.000052
C15	C	0.235525	0.122830	-0.000075
C16	C	0.317595	0.117835	-0.000074
C17	C	0.347939	0.024075	-0.000065
C18	C	0.296208	-0.064696	-0.000065
C19	C	0.214140	-0.059701	-0.000072
C20	C	0.592240	-0.000652	-0.000049
C21	C	0.674314	-0.005641	-0.000039
C22	C	0.695696	0.176890	-0.000050
C23	C	0.613625	0.181878	-0.000051
C24	C	0.561901	0.093107	-0.000056
N25	N	0.431827	0.018967	-0.000061
N26	N	0.478015	0.098215	-0.000066
C27	C	1.096211	-0.615268	-0.000062
C28	C	1.120585	-0.511793	-0.000055
C29	C	1.064070	-0.442242	-0.000055
C30	C	0.983178	-0.476176	-0.000061
C31	C	0.958802	-0.579661	-0.000061
C32	C	0.926661	-0.406635	-0.000053
C33	C	0.845769	-0.440569	-0.000059
C34	C	0.821397	-0.544045	-0.000060
C35	C	0.877911	-0.613595	-0.000060
C36	C	0.951037	-0.303150	-0.000053
C37	C	0.813628	-0.267544	-0.000052
C38	C	0.789254	-0.371019	-0.000059
C39	C	1.096454	0.039374	-0.000063
C40	C	1.183801	0.034065	-0.000073
C41	C	0.989381	0.240665	-0.000058
C42	C	1.015320	0.350798	-0.000062
N43	N	0.947878	0.071770	0.205246
N44	N	0.961966	0.045411	-0.205352
C45	C	0.984633	0.002738	0.250639
C46	C	0.981531	0.008570	0.341447
C47	C	0.941678	0.083439	0.386860
C48	C	0.904918	0.152475	0.341460
C49	C	0.908016	0.146638	0.250654
C50	C	0.928303	0.108609	0.658442
C51	C	0.925211	0.114443	0.749254
C52	C	1.001823	-0.029464	0.749235
C53	C	1.004920	-0.035291	0.658427
C54	C	0.968157	0.033741	0.613035
N55	N	0.938509	0.089405	0.479680
N56	N	0.971322	0.027771	0.520216
H57	H	0.210826	0.199180	-0.000076
H58	H	1.186447	-0.484171	-0.000049
O59	O	0.742815	-0.576968	-0.000212
C60	C	0.709539	-0.545621	-0.074915
H61	H	0.758232	-0.530944	-0.127138
H62	H	0.680269	-0.473369	-0.058023
C63	C	0.587143	-0.646832	-0.044651
C64	C	0.646949	-0.628814	-0.108795
H65	H	0.548533	-0.698146	-0.065548
H66	H	0.609561	-0.667948	0.005679
H67	H	0.562762	-0.586615	-0.030580
H68	H	0.671336	-0.689026	-0.122857
H69	H	0.624534	-0.607710	-0.159129
H70	H	1.083921	-0.357989	-0.000049
H71	H	0.723390	-0.398663	-0.000063
O72	O	1.043634	-0.108113	0.614450
C73	C	1.075428	-0.167778	0.673988
H74	H	1.040870	-0.162082	0.738729
H75	H	1.140400	-0.139726	0.683623
C76	C	1.111519	-0.285541	0.559041
C77	C	1.069069	-0.278550	0.638554
H78	H	1.107600	-0.353869	0.537183
H79	H	1.090101	-0.245341	0.518928
H80	H	1.165658	-0.262158	0.567081
H81	H	1.014930	-0.301921	0.630511
H82	H	1.090478	-0.318756	0.678665
H83	H	0.767609	-0.210914	-0.000047
O84	O	1.023350	-0.070081	0.206663
C85	C	1.055142	-0.129744	0.266206
H86	H	1.020582	-0.124043	0.330945
H87	H	1.120113	-0.101694	0.275842
C88	C	1.091233	-0.247514	0.151264
C89	C	1.048782	-0.240518	0.230776
H90	H	1.087314	-0.315843	0.129409
H91	H	1.069818	-0.207316	0.111148
H92	H	1.145372	-0.224132	0.159305
H93	H	0.994642	-0.263887	0.222732
H94	H	1.070188	-0.280722	0.270890
O95	O	0.325582	-0.155828	0.000056
C96	C	0.296463	-0.205319	0.074781
H97	H	0.239060	-0.174140	0.099684
H98	H	0.342333	-0.192122	0.127103
C99	C	0.350739	-0.357621	0.021503
C100	C	0.280232	-0.319332	0.052085
H101	H	0.340730	-0.427950	0.007506
H102	H	0.370360	-0.324277	-0.028839
H103	H	0.388957	-0.346614	0.065110
H104	H	0.242019	-0.330327	0.008475
H105	H	0.260604	-0.352680	0.102420
O106	O	0.886422	0.187201	0.793236
C107	C	0.854649	0.246891	0.733701
H108	H	0.846970	0.202085	0.668974
H109	H	0.896713	0.317960	0.724030
C110	C	0.782926	0.331647	0.848667
C111	C	0.773488	0.276612	0.769171
H112	H	0.732863	0.349985	0.870547
H113	H	0.804334	0.291436	0.888778
H114	H	0.817982	0.390865	0.840597
H115	H	0.738440	0.217390	0.777244
H116	H	0.752072	0.316815	0.729062
O117	O	0.542089	-0.086960	-0.000160
C118	C	0.558204	-0.148492	-0.074877
H119	H	0.621688	-0.127759	-0.099784
H120	H	0.515297	-0.136403	-0.127201
C121	C	0.470042	-0.285508	-0.021577
C122	C	0.548016	-0.260049	-0.052163
H123	H	0.463754	-0.354322	-0.007568
H124	H	0.459182	-0.244052	0.028760
H125	H	0.434295	-0.275426	-0.065186
H126	H	0.583761	-0.270119	-0.008551
H127	H	0.558882	-0.301509	-0.102493
O128	O	0.892723	0.175705	0.614265
C129	C	0.950010	0.230149	0.561739
H130	H	1.002987	0.184628	0.548111
H131	H	0.970384	0.305357	0.596733
C132	C	0.848432	0.305427	0.492237
C133	C	0.913498	0.249513	0.475493
H134	H	0.825910	0.317377	0.439039
H135	H	0.809837	0.268750	0.527627
H136	H	0.865420	0.368094	0.521401
H137	H	0.896507	0.186843	0.446340
H138	H	0.952090	0.286180	0.440096
O139	O	0.872301	0.213805	0.206690
C140	C	0.836446	0.281125	0.266243
H141	H	0.866590	0.283750	0.330962
H142	H	0.770816	0.254313	0.275924
C143	C	0.808193	0.384110	0.151301
C144	C	0.845220	0.387340	0.230789
H145	H	0.813601	0.449628	0.129432
H146	H	0.832346	0.338754	0.111179
H147	H	0.753504	0.361762	0.159380
H148	H	0.899910	0.409675	0.222708
H149	H	0.821076	0.432703	0.270910
H150	H	0.588926	0.258227	-0.000061
O151	O	0.367727	0.204160	-0.000033
C152	C	0.323347	0.287984	-0.000058
H153	H	0.260772	0.266541	0.027251
H154	H	0.320288	0.312136	-0.069268
C155	C	0.440387	0.402228	0.022977
C156	C	0.363532	0.375893	0.056525
H157	H	0.465176	0.456456	0.057876
H158	H	0.470288	0.345755	0.022990
H159	H	0.437827	0.422348	-0.034698
H160	H	0.366094	0.355761	0.114194
H161	H	0.333633	0.432365	0.056523
H162	H	0.872465	0.213433	0.378441
H163	H	0.737817	0.249163	-0.000047
H164	H	0.699016	-0.081996	-0.000036
H165	H	1.016900	-0.275532	-0.000048
H166	H	0.172026	-0.131982	-0.000072
H167	H	1.031753	-0.085668	0.786201
H168	H	1.142216	-0.671903	-0.000056
H169	H	0.858070	-0.697855	-0.000069
H170	H	1.011460	-0.047642	0.378406
