data_functionalizedCrystal
_audit_creation_method	'MofGen! by Chris Wilmer'
_symmetry_space_group_name_H-M	'P1'
_symmetry_Int_Tables_number	1
_symmetry_cell_setting	triclinic
loop_
_symmetry_equiv_pos_as_xyz
  x,y,z
_cell_length_a	10.868271
_cell_length_b	10.654550
_cell_length_c	10.654551
_cell_angle_alpha	95.514868
_cell_angle_beta	90.002302
_cell_angle_gamma	89.992168
loop_
_atom_site_label
_atom_site_type_symbol
_atom_site_fract_x
_atom_site_fract_y
_atom_site_fract_z
O1	O	0.102415	-1.667842	0.176399
O2	O	0.102395	-1.302363	0.193205
O3	O	0.102406	-1.493505	0.002063
O4	O	0.102404	-1.476700	0.367542
O5	O	-0.102239	-1.493489	0.002056
O6	O	-0.102250	-1.302347	0.193198
O7	O	-0.102230	-1.667826	0.176392
Zn8	Zn	-0.134732	-1.485084	0.184794
Zn9	Zn	0.134897	-1.485105	0.184804
O10	O	-0.102241	-1.476684	0.367534
C11	C	0.000070	-1.255557	0.191968
C12	C	0.000062	-1.116114	0.188276
N13	N	-0.318746	-1.485079	0.184786
C14	C	0.000086	-1.492263	-0.044739
C15	C	0.000094	-1.488570	-0.184182
C16	C	-0.569752	-1.485098	0.184801
C17	C	-0.430074	-1.485083	0.184796
N18	N	0.318911	-1.485120	0.184801
C19	C	0.000098	-1.714632	0.177629
C20	C	0.000114	-1.854075	0.181321
C21	C	0.000079	-1.036629	0.300817
C22	C	0.000101	-0.905608	0.297341
C23	C	0.000093	-0.933570	0.068771
C24	C	0.000063	-1.064589	0.072249
C25	C	0.000079	-1.088154	0.416844
C26	C	0.000098	-1.008667	0.529395
C27	C	0.000119	-0.877647	0.525918
C28	C	0.000122	-0.826112	0.409891
C29	C	0.111644	-1.486847	-0.249690
C30	C	0.111638	-1.483366	-0.380710
C31	C	-0.111477	-1.483339	-0.380704
C32	C	-0.111470	-1.486810	-0.249685
C33	C	0.223208	-1.488607	-0.184187
C34	C	0.334767	-1.486885	-0.249695
C35	C	0.334761	-1.483404	-0.380715
C36	C	0.223196	-1.481646	-0.446227
C37	C	0.000081	-1.477926	0.414336
C38	C	0.000081	-1.481619	0.553779
H39	H	0.000067	-1.194836	0.419687
N40	N	0.000126	-0.791885	0.647285
H41	H	-0.075730	-0.736885	0.650915
H42	H	0.000164	-0.844472	0.721260
H43	H	0.000120	-0.719425	0.407069
N44	N	0.223228	-1.492350	-0.042873
H45	H	0.179435	-1.415462	-0.001806
H46	H	0.179455	-1.570944	-0.020921
H47	H	0.425598	-1.488304	-0.196345
H48	H	-0.202307	-1.481908	-0.434054
H49	H	0.223201	-1.478794	-0.552911
H50	H	0.000115	-0.891600	-0.025693
N51	N	0.455076	-1.481616	-0.451383
H52	H	0.525746	-1.483285	-0.390005
H53	H	0.459875	-1.557922	-0.515220
H54	H	-0.202303	-1.488186	-0.196344
H55	H	0.000052	-1.129308	-0.019392
N56	N	0.000081	-1.064242	0.654533
H57	H	0.000066	-1.159303	0.639661
H58	H	0.075949	-1.035258	0.703832
