data_functionalizedCrystal
_audit_creation_method	'MofGen! by Chris Wilmer'
_symmetry_space_group_name_H-M	'P1'
_symmetry_Int_Tables_number	1
_symmetry_cell_setting	triclinic
loop_
_symmetry_equiv_pos_as_xyz
  x,y,z
_cell_length_a	17.699083
_cell_length_b	15.944551
_cell_length_c	16.776229
_cell_angle_alpha	89.992397
_cell_angle_beta	89.998886
_cell_angle_gamma	83.390877
loop_
_atom_site_label
_atom_site_type_symbol
_atom_site_fract_x
_atom_site_fract_y
_atom_site_fract_z
O1	O	1.004260	0.106222	-0.066178
O2	O	1.504260	0.606222	0.433822
O3	O	0.783905	0.120042	-0.066204
O4	O	1.283905	0.620042	0.433796
O5	O	0.900100	-0.009156	-0.066183
O6	O	1.400100	0.490844	0.433817
O7	O	0.888065	0.235419	-0.066199
O8	O	1.388065	0.735419	0.433801
O9	O	0.900084	-0.009164	0.066393
O10	O	1.400084	0.490836	0.566393
O11	O	0.783890	0.120034	0.066372
O12	O	1.283890	0.620034	0.566372
O13	O	1.004244	0.106214	0.066398
O14	O	1.504244	0.606214	0.566398
Zn15	Zn	0.894065	0.113123	0.087435
Zn16	Zn	1.394065	0.613123	0.587435
Zn17	Zn	0.894085	0.113133	-0.087241
Zn18	Zn	1.394085	0.613133	0.412759
O19	O	0.888050	0.235411	0.066377
O20	O	1.388050	0.735411	0.566377
C21	C	0.755700	0.119542	0.000080
C22	C	1.255700	0.619542	0.500080
C23	C	0.671679	0.118057	0.000071
C24	C	1.171679	0.618057	0.500071
C25	C	0.899593	-0.040453	0.000105
C26	C	1.399593	0.459547	0.500105
C27	C	0.898095	-0.133696	0.000105
C28	C	1.398095	0.366304	0.500105
C29	C	0.623187	0.193893	0.000066
C30	C	1.123187	0.693893	0.500066
C31	C	0.544242	0.192492	0.000076
C32	C	1.044242	0.692492	0.500076
C33	C	0.513789	0.115254	0.000086
C34	C	1.013789	0.615254	0.500086
C35	C	0.562287	0.039412	0.000093
C36	C	1.062287	0.539412	0.500093
C37	C	0.641231	0.040814	0.000088
C38	C	1.141231	0.540814	0.500088
C39	C	0.243914	0.033758	0.000113
C40	C	0.743914	0.533758	0.500113
C41	C	0.164964	0.032362	0.000115
C42	C	0.664964	0.532362	0.500115
C43	C	0.146925	0.185436	0.000101
C44	C	0.646925	0.685436	0.500101
C45	C	0.225869	0.186837	0.000096
C46	C	0.725869	0.686837	0.500096
C47	C	0.274360	0.110996	0.000108
C48	C	0.774360	0.610996	0.500108
C49	C	0.359962	0.112516	0.000098
C50	C	0.859962	0.612516	0.500098
C51	C	0.428189	0.113733	0.000090
C52	C	0.928189	0.613733	0.500090
C53	C	0.822492	-0.348393	0.000085
C54	C	1.322492	0.151607	0.500085
C55	C	0.857592	-0.409488	0.065458
C56	C	1.357592	0.090512	0.565458
C57	C	0.895385	-0.304416	0.000099
C58	C	1.395385	0.195584	0.500099
C59	C	0.857624	-0.409464	-0.065252
C60	C	1.357624	0.090536	0.434748
C61	C	0.892762	-0.469323	0.000089
C62	C	1.392762	0.030677	0.500089
C63	C	0.930505	-0.364283	0.065525
C64	C	1.430505	0.135717	0.565525
C65	C	0.930527	-0.364252	-0.065244
C66	C	1.430527	0.135748	0.434756
C67	C	0.965680	-0.425329	0.000145
C68	C	1.465680	0.074671	0.500145
C69	C	0.896894	-0.209417	0.000105
C70	C	1.396894	0.290583	0.500105
C71	C	0.891259	-0.564321	0.000089
C72	C	1.391259	-0.064321	0.500089
C73	C	1.032450	0.106713	0.000112
C74	C	1.532450	0.606713	0.500112
C75	C	1.116471	0.108199	0.000116
C76	C	1.616471	0.608199	0.500116
C77	C	0.888557	0.266708	0.000087
C78	C	1.388557	0.766708	0.500087
C79	C	0.890055	0.359951	0.000082
C80	C	1.390055	0.859951	0.500082
N81	N	0.894056	0.113115	0.206646
N82	N	1.394056	0.613115	0.706646
N83	N	0.894099	0.113134	-0.206452
N84	N	1.394099	0.613134	0.293548
C85	C	0.945523	0.055930	0.248372
C86	C	1.445523	0.555930	0.748372
C87	C	0.945527	0.055929	0.331824
C88	C	1.445527	0.555929	0.831824
C89	C	0.894068	0.113118	0.373549
C90	C	1.394068	0.613118	0.873549
C91	C	0.842595	0.170306	0.331816
C92	C	1.342595	0.670306	0.831816
C93	C	0.842588	0.170302	0.248366
C94	C	1.342588	0.670302	0.748366
C95	C	0.842623	0.170323	0.668364
C96	C	1.342623	0.670323	1.168364
C97	C	0.842636	0.170324	0.751820
C98	C	1.342636	0.670324	1.251820
C99	C	0.945562	0.055949	0.751822
C100	C	1.445562	0.555949	1.251822
C101	C	0.945555	0.055945	0.668372
C102	C	1.445555	0.555945	1.168372
C103	C	0.894080	0.113130	0.626647
C104	C	1.394080	0.613130	1.126647
C105	C	0.894075	0.113129	0.536158
C106	C	1.394075	0.613129	1.036158
C107	C	0.894076	0.113124	0.464036
C108	C	1.394076	0.613124	0.964036
H109	H	0.647975	0.256789	0.000058
H110	H	1.147975	0.756789	0.500058
C111	C	0.694572	-0.042612	0.000091
C112	C	1.194572	0.457388	0.500091
N113	N	0.734747	-0.105451	0.000095
N114	N	1.234747	0.394549	0.500095
H115	H	0.987473	0.009384	0.785804
H116	H	1.487473	0.509384	1.285804
H117	H	0.826790	-0.429473	-0.120524
H118	H	1.326790	0.070527	0.379476
H119	H	0.800692	0.216868	0.365793
H120	H	1.300692	0.716868	0.865793
C121	C	0.297244	-0.049671	0.000120
C122	C	0.797244	0.450329	0.500120
N123	N	0.337415	-0.112513	0.000124
N124	N	0.837415	0.387487	0.500124
H125	H	0.800712	0.216886	0.634398
H126	H	1.300712	0.716886	1.134398
H127	H	1.026238	-0.458615	0.000189
H128	H	1.526238	0.041385	0.500189
C129	C	0.786018	0.233234	0.797715
C130	C	1.286018	0.733234	1.297715
N131	N	0.743376	0.280615	0.832283
N132	N	1.243376	0.780615	1.332283
C133	C	0.972151	-0.337136	-0.139902
C134	C	1.472151	0.162864	0.360098
N135	N	1.003496	-0.316710	-0.196141
N136	N	1.503496	0.183290	0.303859
C137	C	1.002162	-0.006969	0.622480
C138	C	1.502162	0.493031	1.122480
N139	N	1.044798	-0.054360	0.587915
N140	N	1.544798	0.445640	1.087915
H141	H	0.537486	-0.023476	0.000112
H142	H	1.037486	0.476524	0.500112
H143	H	0.761987	-0.314958	0.000143
H144	H	1.261987	0.185042	0.500143
H145	H	0.826754	-0.429535	0.120718
H146	H	1.326754	0.070465	0.620718
C147	C	0.490904	0.275918	0.000085
C148	C	0.990904	0.775918	0.500085
N149	N	0.450730	0.338758	0.000098
N150	N	0.950730	0.838758	0.500098
C151	C	0.785977	0.233217	0.202467
C152	C	1.285977	0.733217	0.702467
N153	N	0.743336	0.280607	0.167897
N154	N	1.243336	0.780607	0.667897
C155	C	1.002133	-0.006984	0.202483
C156	C	1.502133	0.493016	0.702483
N157	N	1.044771	-0.054376	0.167922
N158	N	1.544771	0.445624	0.667922
H159	H	0.250659	0.249732	0.000085
H160	H	0.750659	0.749732	0.500085
C161	C	0.093578	0.268864	0.000099
C162	C	0.593578	0.768864	0.500099
N163	N	0.053398	0.331700	0.000097
N164	N	0.553398	0.831700	0.500097
C165	C	0.131468	-0.052610	0.000135
C166	C	0.631468	0.447390	0.500135
N167	N	0.106239	-0.116607	0.000152
N168	N	0.606239	0.383393	0.500152
H169	H	0.987435	0.009364	0.365798
H170	H	1.487435	0.509364	0.865798
H171	H	0.961304	-0.344360	0.120853
H172	H	1.461304	0.155640	0.620853
