data_functionalizedCrystal
_audit_creation_method	'MofGen! by Chris Wilmer'
_symmetry_space_group_name_H-M	'P1'
_symmetry_Int_Tables_number	1
_symmetry_cell_setting	triclinic
loop_
_symmetry_equiv_pos_as_xyz
  x,y,z
_cell_length_a	18.101398
_cell_length_b	18.101397
_cell_length_c	13.032268
_cell_angle_alpha	97.143420
_cell_angle_beta	97.156841
_cell_angle_gamma	90.018196
loop_
_atom_site_label
_atom_site_type_symbol
_atom_site_fract_x
_atom_site_fract_y
_atom_site_fract_z
Zn1	Zn	1.078969	-0.348033	-0.590978
Zn2	Zn	1.094621	-0.456163	-0.416229
Zn3	Zn	0.970860	-0.332336	-0.416239
Zn4	Zn	0.955109	-0.471824	-0.590894
O5	O	1.024890	-0.402089	-0.503585
O6	O	1.184675	-0.362391	-0.567828
O7	O	1.091346	-0.426613	-0.270004
O8	O	0.985242	-0.230789	-0.439458
O9	O	1.196175	-0.441834	-0.439441
O10	O	1.064669	-0.242321	-0.567838
O11	O	1.000419	-0.335638	-0.270011
O12	O	0.865140	-0.350824	-0.439377
O13	O	0.958397	-0.468527	-0.737132
O14	O	0.853568	-0.453306	-0.567695
O15	O	1.049396	-0.377578	-0.737194
O16	O	1.076073	-0.561870	-0.439359
O17	O	0.973574	-0.573376	-0.567685
C18	C	0.832484	-0.402062	-0.503528
C19	C	0.750170	-0.402071	-0.503529
C20	C	0.599457	-0.402090	-0.503576
C21	C	0.575348	-0.337541	-0.422976
C22	C	0.489706	-0.337349	-0.423241
C23	C	0.451071	-0.402109	-0.503620
C24	C	0.472281	-0.391192	-0.613871
C25	C	0.557970	-0.390724	-0.613379
C26	C	0.570450	-0.477791	-0.474897
C27	C	0.485015	-0.477162	-0.472495
C28	C	0.367208	-0.402121	-0.503652
C29	C	0.683319	-0.402076	-0.503551
C30	C	1.024831	-0.594495	-0.503534
C31	C	1.024870	-0.676810	-0.503548
C32	C	1.024956	-0.975910	-0.503643
C33	C	1.089305	-0.937295	-0.422688
C34	C	1.089484	-0.851695	-0.422898
C35	C	1.024914	-0.827523	-0.503595
C36	C	1.036153	-0.868437	-0.613742
C37	C	1.036634	-0.954042	-0.613301
C38	C	0.949130	-0.941876	-0.475405
C39	C	0.949738	-0.856005	-0.472946
C40	C	1.024888	-0.743661	-0.503574
C41	C	1.024983	-1.059772	-0.503671
C42	C	1.218046	-0.402116	-0.503643
C43	C	1.300358	-0.402128	-0.503667
C44	C	1.000394	-0.426550	-0.776138
C45	C	0.989955	-0.436974	-0.892284
C46	C	1.024967	-0.208934	-0.503659
C47	C	1.025000	-0.126622	-0.503690
C48	C	1.030326	-0.396622	-0.944096
C49	C	1.019538	-0.407395	-1.064138
C50	C	1.049333	-0.377669	-0.232093
C51	C	1.059915	-0.367037	-0.115948
H52	H	0.458739	-0.527009	-0.526880
O53	O	0.975408	-0.848845	-0.695803
H54	H	0.936471	-0.809643	-0.658863
H55	H	0.446391	-0.437206	-0.675587
H56	H	1.102463	-0.324507	-1.071440
O57	O	1.082132	-0.954857	-0.314058
H58	H	1.132853	-0.983756	-0.283967
H59	H	0.947401	-0.479492	-0.936797
H60	H	0.476009	-0.342995	-0.341505
O61	O	1.086688	-0.340293	-0.885140
H62	H	1.114616	-0.312369	-0.941354
H63	H	0.976981	-0.449915	-1.108647
O64	O	1.081693	-0.814187	-0.314718
H65	H	1.131034	-0.777611	-0.285759
O66	O	0.612364	-0.344761	-0.314349
H67	H	0.648345	-0.394430	-0.316640
O68	O	1.163581	-0.967921	-0.447161
H69	H	1.164031	-1.028816	-0.443163
O70	O	0.601634	-0.263377	-0.447858
H71	H	0.631793	-0.272289	-0.517383
H72	H	0.467518	-0.281061	-0.442282
O73	O	0.581575	-0.317826	-0.645467
H74	H	0.531801	-0.283238	-0.661186
H75	H	0.573129	-0.436249	-0.675512
H76	H	1.090606	-0.849119	-0.638065
O77	O	0.933047	-0.961148	-0.370849
H78	H	0.978926	-0.995203	-0.337842
H79	H	0.599132	-0.489705	-0.395844
O80	O	0.440965	-0.319184	-0.646553
H81	H	0.410287	-0.291068	-0.584458
O82	O	0.467732	-0.488323	-0.365019
H83	H	0.435099	-0.440621	-0.333892
H84	H	1.091765	-0.976115	-0.637220
O85	O	0.590326	-0.541336	-0.552638
H86	H	0.620716	-0.519158	-0.611420
O87	O	0.938261	-0.819511	-0.365579
H88	H	0.985893	-0.781242	-0.334168
O89	O	1.164149	-0.826700	-0.447647
H90	H	1.200266	-0.875778	-0.459524
H91	H	0.991276	-0.980379	-0.675698
O92	O	0.883871	-0.834183	-0.545320
H93	H	0.889276	-0.858813	-0.626343
O94	O	0.885758	-0.975875	-0.553348
H95	H	0.908112	-1.016798	-0.611938
