data_functionalizedCrystal
_audit_creation_method	'MofGen! by Chris Wilmer'
_symmetry_space_group_name_H-M	'P1'
_symmetry_Int_Tables_number	1
_symmetry_cell_setting	triclinic
loop_
_symmetry_equiv_pos_as_xyz
  x,y,z
_cell_length_a	16.959455
_cell_length_b	16.959454
_cell_length_c	16.959447
_cell_angle_alpha	89.981934
_cell_angle_beta	90.018890
_cell_angle_gamma	89.997445
loop_
_atom_site_label
_atom_site_type_symbol
_atom_site_fract_x
_atom_site_fract_y
_atom_site_fract_z
Zn1	Zn	-1.208497	-0.314723	-0.446986
Zn2	Zn	-0.708497	0.185277	0.053014
Zn3	Zn	-1.208450	-0.446907	-0.314827
Zn4	Zn	-0.708450	0.053093	0.185173
Zn5	Zn	-1.076318	-0.314743	-0.314820
Zn6	Zn	-0.576318	0.185257	0.185180
Zn7	Zn	-1.076327	-0.446860	-0.446963
Zn8	Zn	-0.576327	0.053140	0.053037
O9	O	-1.142398	-0.380808	-0.380899
O10	O	-0.642398	0.119192	0.119101
O11	O	-1.319102	-0.332269	-0.429468
O12	O	-0.819102	0.167731	0.070532
O13	O	-1.190898	-0.429404	-0.204216
O14	O	-0.690898	0.070596	0.295784
O15	O	-1.093868	-0.204130	-0.332359
O16	O	-0.593868	0.295870	0.167641
O17	O	-1.319067	-0.429384	-0.332371
O18	O	-0.819067	0.070616	0.167629
O19	O	-1.190979	-0.204115	-0.429461
O20	O	-0.690979	0.295885	0.070539
O21	O	-1.093822	-0.332303	-0.204210
O22	O	-0.593822	0.167697	0.295790
O23	O	-0.965709	-0.332258	-0.332336
O24	O	-0.465709	0.167742	0.167664
O25	O	-1.093884	-0.429304	-0.557577
O26	O	-0.593884	0.070696	-0.057577
O27	O	-0.965715	-0.429323	-0.429421
O28	O	-0.465715	0.070677	0.070579
O29	O	-1.190988	-0.332223	-0.557594
O30	O	-0.690988	0.167777	-0.057594
O31	O	-1.190907	-0.557512	-0.332349
O32	O	-0.690907	-0.057512	0.167651
O33	O	-1.093838	-0.557477	-0.429428
O34	O	-0.593838	-0.057477	0.070572
C35	C	-0.937032	-0.380788	-0.380876
C36	C	-0.437032	0.119212	0.119124
C37	C	-0.849175	-0.380799	-0.380885
C38	C	-0.349175	0.119201	0.119115
C39	C	-0.807881	-0.431289	-0.330259
C40	C	-0.307881	0.068711	0.169741
C41	C	-0.807916	-0.330313	-0.431516
C42	C	-0.307916	0.169687	0.068484
C43	C	-0.725370	-0.330318	-0.431524
C44	C	-0.225370	0.169682	0.068476
C45	C	-0.684076	-0.380809	-0.380898
C46	C	-0.184076	0.119191	0.119102
C47	C	-0.725328	-0.431294	-0.330263
C48	C	-0.225328	0.068706	0.169737
C49	C	-0.684112	-0.279828	-0.482151
C50	C	-0.184112	0.220172	0.017849
C51	C	-0.601561	-0.279830	-0.482161
C52	C	-0.101561	0.220170	0.017839
C53	C	-0.560265	-0.330325	-0.431538
C54	C	-0.060265	0.169675	0.068462
C55	C	-0.601522	-0.380814	-0.380902
C56	C	-0.101522	0.119186	0.119098
C57	C	-0.560228	-0.431304	-0.330276
C58	C	-0.060228	0.068696	0.169724
C59	C	-0.601484	-0.481797	-0.279644
C60	C	-0.101484	0.018203	0.220356
C61	C	-0.684032	-0.481790	-0.279640
C62	C	-0.184032	0.018210	0.220360
C63	C	-0.477717	-0.330333	-0.431541
C64	C	0.022283	0.169667	0.068459
C65	C	-0.477675	-0.431309	-0.330281
C66	C	0.022325	0.068691	0.169719
C67	C	-1.142390	-0.586175	-0.380904
C68	C	-0.642390	-0.086175	0.119096
C69	C	-1.142458	-0.674031	-0.380932
C70	C	-0.642458	-0.174031	0.119068
C71	C	-1.142442	-0.380756	-0.587067
C72	C	-0.642442	0.119244	-0.087067
C73	C	-1.142461	-0.380733	-0.674924
C74	C	-0.642461	0.119267	-0.174924
C75	C	-0.348566	-0.380826	-0.380918
C76	C	0.151434	0.119174	0.119082
C77	C	-0.436423	-0.380824	-0.380915
C78	C	0.063577	0.119176	0.119085
C79	C	-1.142428	-0.174640	-0.380912
C80	C	-0.642428	0.325360	0.119088
C81	C	-1.142441	-0.086784	-0.380917
C82	C	-0.642441	0.413216	0.119083
C83	C	-1.192996	0.284680	-0.330386
C84	C	-0.692996	0.784680	0.169614
C85	C	-1.091917	0.284704	-0.431475
C86	C	-0.591917	0.784704	0.068525
C87	C	-1.091914	0.202158	-0.431474
C88	C	-0.591914	0.702158	0.068526
C89	C	-1.142451	0.160869	-0.380927
C90	C	-0.642451	0.660869	0.119073
C91	C	-1.192993	0.202127	-0.330381
C92	C	-0.692993	0.702127	0.169619
C93	C	-1.041367	0.160894	-0.482013
C94	C	-0.541367	0.660894	0.017987
C95	C	-1.041361	0.078343	-0.482013
C96	C	-0.541361	0.578343	0.017987
C97	C	-1.091904	0.037053	-0.431470
C98	C	-0.591904	0.537053	0.068530
C99	C	-1.142448	0.078316	-0.380922
C100	C	-0.642448	0.578316	0.119078
C101	C	-1.192986	0.037027	-0.330376
C102	C	-0.692986	0.537027	0.169624
C103	C	-1.243534	0.078289	-0.279832
C104	C	-0.743534	0.578289	0.220168
C105	C	-1.243535	0.160837	-0.279838
C106	C	-0.743535	0.660837	0.220162
C107	C	-1.091903	-0.045495	-0.431464
C108	C	-0.591903	0.454505	0.068536
C109	C	-1.192982	-0.045526	-0.330371
C110	C	-0.692982	0.454474	0.169629
C111	C	-1.091913	-0.431269	-0.716191
C112	C	-0.591913	0.068731	-0.216191
C113	C	-1.193022	-0.330172	-0.716211
C114	C	-0.693022	0.169828	-0.216211
C115	C	-1.193039	-0.330146	-0.798757
C116	C	-0.693039	0.169854	-0.298757
C117	C	-1.142491	-0.380681	-0.840024
C118	C	-0.642491	0.119319	-0.340024
C119	C	-1.091926	-0.431243	-0.798744
C120	C	-0.591926	0.068757	-0.298744
C121	C	-1.243597	-0.279579	-0.840042
C122	C	-0.743597	0.220421	-0.340042
C123	C	-1.243614	-0.279551	-0.922593
C124	C	-0.743614	0.220449	-0.422593
C125	C	-1.193070	-0.330091	-0.963861
C126	C	-0.693070	0.169909	-0.463861
C127	C	-1.142504	-0.380655	-0.922577
C128	C	-0.642504	0.119345	-0.422577
C129	C	-1.091956	-0.431191	-0.963844
C130	C	-0.591956	0.068809	-0.463844
C131	C	-1.041394	-0.481760	-0.922561
C132	C	-0.541394	0.018240	-0.422561
C133	C	-1.041382	-0.481783	-0.840012
C134	C	-0.541382	0.018217	-0.340012
C135	C	-1.193082	-0.330068	-1.046410
C136	C	-0.693082	0.169932	-0.546410
C137	C	-1.091969	-0.431165	-1.046397
C138	C	-0.591969	0.068835	-0.546397
C139	C	-1.142399	-0.380804	-0.175533
C140	C	-0.642399	0.119196	0.324467
C141	C	-1.142534	-0.380603	-0.087677
C142	C	-0.642534	0.119397	0.412323
H143	H	-0.841542	-0.289202	-0.472730
H144	H	-0.341542	0.210798	0.027270
H145	H	-1.050809	-0.472321	-1.079991
H146	H	-0.550809	0.027679	-0.579991
H147	H	-1.234140	-0.079137	-0.289213
H148	H	-0.734140	0.420863	0.210787
H149	H	-0.444131	-0.289217	-0.472760
H150	H	0.055869	0.210783	0.027240
H151	H	-1.284787	-0.238376	-0.956199
H152	H	-0.784787	0.261624	-0.456199
H153	H	-1.000233	-0.522902	-0.956171
H154	H	-0.500233	-0.022902	-0.456171
H155	H	-1.234155	0.318277	-0.289236
H156	H	-0.734155	0.818277	0.210764
H157	H	-1.284679	0.044661	-0.238673
H158	H	-0.784679	0.544661	0.261327
H159	H	-1.000216	-0.522953	-0.806393
H160	H	-0.500216	-0.022953	-0.306393
H161	H	-1.050749	-0.472443	-0.682575
H162	H	-0.550749	0.027557	-0.182575
H163	H	-0.841475	-0.472402	-0.289037
H164	H	-0.341475	0.027598	0.210963
H165	H	-1.050750	-0.079086	-0.472619
H166	H	-0.550750	0.420914	0.027381
H167	H	-0.717740	-0.238718	-0.523366
H168	H	-0.217740	0.261282	-0.023366
H169	H	-0.567978	-0.238717	-0.523390
H170	H	-0.067978	0.261283	-0.023390
H171	H	-1.234173	-0.289024	-0.682607
H172	H	-0.734173	0.210976	-0.182607
H173	H	-1.000217	0.194514	-0.523163
H174	H	-0.500217	0.694514	-0.023163
H175	H	-1.284689	0.194437	-0.238686
H176	H	-0.784689	0.694437	0.261314
H177	H	-1.234243	-0.288889	-1.080019
H178	H	-0.734243	0.211111	-0.580019
H179	H	-0.444059	-0.472429	-0.289058
H180	H	0.055941	0.027571	0.210942
H181	H	-1.284747	-0.238433	-0.806437
H182	H	-0.784747	0.261567	-0.306437
H183	H	-1.000201	0.044755	-0.523168
H184	H	-0.500201	0.544755	-0.023168
H185	H	-0.567851	-0.522904	-0.238421
H186	H	-0.067851	-0.022904	0.261579
H187	H	-1.050766	0.318323	-0.472625
H188	H	-0.550766	0.818323	0.027375
H189	H	-0.717630	-0.522897	-0.238417
H190	H	-0.217630	-0.022897	0.261583
