data_functionalizedCrystal
_audit_creation_method	'MofGen! by Chris Wilmer'
_symmetry_space_group_name_H-M	'P1'
_symmetry_Int_Tables_number	1
_symmetry_cell_setting	triclinic
loop_
_symmetry_equiv_pos_as_xyz
  x,y,z
_cell_length_a	19.288864
_cell_length_b	13.330367
_cell_length_c	19.288857
_cell_angle_alpha	89.993197
_cell_angle_beta	96.865323
_cell_angle_gamma	90.021397
loop_
_atom_site_label
_atom_site_type_symbol
_atom_site_fract_x
_atom_site_fract_y
_atom_site_fract_z
O1	O	0.921349	0.083750	-0.086648
O2	O	0.719088	0.083682	-0.098336
O3	O	0.826066	0.083706	0.008639
O4	O	0.814371	0.083726	-0.193623
O5	O	0.826050	-0.083141	0.008641
O6	O	0.719073	-0.083165	-0.098334
O7	O	0.921334	-0.083097	-0.086645
Cu8	Cu	0.820202	-0.098366	-0.092489
Cu9	Cu	0.820220	0.098950	-0.092492
O10	O	0.814356	-0.083121	-0.193620
C11	C	0.693204	0.000250	-0.097959
C12	C	0.616100	0.000223	-0.096830
N13	N	0.820194	-0.237147	-0.092487
C14	C	0.571402	0.000245	-0.159598
C15	C	0.498955	0.000256	-0.158537
C16	C	0.471210	0.000265	-0.094705
C17	C	0.515917	0.000238	-0.031929
C18	C	0.588363	0.000217	-0.032991
C19	C	0.362954	0.058748	-0.044527
C20	C	0.290510	0.058775	-0.043467
C21	C	0.247764	0.000326	-0.091425
C22	C	0.277470	-0.058138	-0.140456
C23	C	0.349915	-0.058159	-0.141518
C24	C	0.392656	0.000287	-0.093546
C25	C	0.124510	0.000358	-0.153048
C26	C	0.052062	0.000363	-0.151984
C27	C	0.069026	0.000354	-0.025374
C28	C	0.141472	0.000340	-0.026439
C29	C	0.169210	0.000346	-0.090278
C30	C	0.772848	-0.709781	-0.139842
C31	C	0.867610	-0.709727	-0.045137
C32	C	0.867603	-0.604709	-0.045134
C33	C	0.820218	-0.552222	-0.092488
C34	C	0.772840	-0.604753	-0.139843
C35	C	0.914984	-0.552170	0.002215
C36	C	0.914978	-0.447146	0.002219
C37	C	0.867589	-0.394656	-0.045132
C38	C	0.820210	-0.447194	-0.092488
C39	C	0.772825	-0.394706	-0.139842
C40	C	0.725441	-0.447242	-0.187195
C41	C	0.725451	-0.552263	-0.187193
C42	C	0.867579	-0.289635	-0.045134
C43	C	0.772817	-0.289678	-0.139842
C44	C	0.947218	0.000337	-0.087022
C45	C	1.024321	0.000370	-0.088151
C46	C	0.825683	0.000281	0.034516
C47	C	0.824556	0.000278	0.111620
N48	N	0.820233	0.237732	-0.092489
C49	C	0.814739	0.000306	-0.219498
C50	C	0.815866	0.000316	-0.296602
C51	C	0.824038	0.091226	0.147830
C52	C	0.822970	0.091233	0.220276
C53	C	0.822432	0.000287	0.256511
C54	C	0.822946	-0.090673	0.220293
C55	C	0.824008	-0.090678	0.147847
C56	C	0.861427	-0.069370	0.376744
C57	C	0.860370	-0.069362	0.449189
C58	C	0.819155	0.000297	0.479957
C59	C	0.779006	0.069965	0.438273
C60	C	0.780067	0.069960	0.365828
C61	C	0.821281	0.000282	0.335066
C62	C	0.817477	0.091260	0.594721
C63	C	0.816404	0.091263	0.667168
C64	C	0.816388	-0.090647	0.667184
C65	C	0.817454	-0.090647	0.594738
C66	C	0.818002	0.000309	0.558511
H67	H	0.593981	0.000252	-0.211581
H68	H	0.462555	0.000271	-0.209652
H69	H	0.493322	0.000259	0.020044
H70	H	0.397753	0.106351	-0.005471
C71	C	0.818031	-0.190699	0.554907
N72	N	0.818464	-0.266063	0.524907
C73	C	0.967103	-0.609912	0.054300
N74	N	1.006360	-0.653409	0.093534
C75	C	0.637533	0.000199	0.036062
N76	N	0.674569	0.000189	0.088074
H77	H	0.953559	-0.404378	0.040777
H78	H	0.734227	-0.246949	-0.178401
C79	C	0.906774	-0.146002	0.342907
N80	N	0.940928	-0.203719	0.317422
C81	C	0.919698	-0.231851	0.006952
N82	N	0.958955	-0.188329	0.046187
C83	C	0.824635	0.191281	0.107983
N84	N	0.825082	0.266643	0.077970
H85	H	0.893064	-0.126086	0.483123
H86	H	0.822544	0.165297	0.249763
H87	H	0.747375	0.126684	0.331891
C88	C	0.720724	-0.767570	-0.191924
N89	N	0.681463	-0.811098	-0.231152
H90	H	0.745444	0.126688	0.463323
H91	H	0.906193	-0.752466	-0.006586
H92	H	0.686863	-0.404494	-0.225754
C93	C	0.815797	-0.190689	0.707039
N94	N	0.815351	-0.266044	0.737062
C95	C	0.822354	-0.190715	0.260153
N96	N	0.821905	-0.266069	0.290176
H97	H	0.374099	-0.105766	-0.181438
H98	H	0.686874	-0.595044	-0.225748
C99	C	0.230455	-0.122442	-0.193213
N100	N	0.195040	-0.170873	-0.232948
H101	H	0.817919	0.165321	0.565223
C102	C	0.824581	-0.190733	0.108016
N103	N	0.825015	-0.266096	0.078015
C104	C	0.815870	0.191319	0.707002
N105	N	0.815482	0.266683	0.737008
H106	H	0.147095	0.000349	-0.205029
H107	H	0.046436	0.000424	0.026600
C108	C	0.002893	0.000372	-0.221038
N109	N	-0.034142	0.000377	-0.273051
H110	H	0.177867	0.000327	0.024674
H111	H	0.266329	0.106384	-0.003546
