data_functionalizedCrystal
_audit_creation_method	'MofGen! by Chris Wilmer'
_symmetry_space_group_name_H-M	'P1'
_symmetry_Int_Tables_number	1
_symmetry_cell_setting	triclinic
loop_
_symmetry_equiv_pos_as_xyz
  x,y,z
_cell_length_a	18.215407
_cell_length_b	12.594516
_cell_length_c	18.215407
_cell_angle_alpha	90.007506
_cell_angle_beta	90.009037
_cell_angle_gamma	90.016501
loop_
_atom_site_label
_atom_site_type_symbol
_atom_site_fract_x
_atom_site_fract_y
_atom_site_fract_z
Zn1	Zn	1.125039	-0.423894	0.416146
Zn2	Zn	1.124989	-0.601846	0.293092
Zn3	Zn	1.001994	-0.423883	0.293093
Zn4	Zn	1.001956	-0.601832	0.416117
O5	O	1.063495	-0.512864	0.354612
O6	O	1.228016	-0.447510	0.399834
O7	O	1.108669	-0.578240	0.190108
O8	O	1.018353	-0.274939	0.309429
O9	O	1.227980	-0.578250	0.309427
O10	O	1.108753	-0.274947	0.399835
O11	O	1.018305	-0.447492	0.190109
O12	O	0.899005	-0.447478	0.309401
O13	O	1.018288	-0.578227	0.519105
O14	O	0.898977	-0.578216	0.399786
O15	O	1.108716	-0.447496	0.519126
O16	O	1.108632	-0.750790	0.309399
O17	O	1.018240	-0.750780	0.399785
C18	C	0.872288	-0.512845	0.354591
C19	C	0.790489	-0.512863	0.354599
C20	C	0.602300	-0.581046	0.401603
C21	C	0.525441	-0.581049	0.401613
C22	C	0.525441	-0.444701	0.307636
C23	C	0.602298	-0.444693	0.307631
C24	C	0.640726	-0.512871	0.354614
C25	C	0.487010	-0.512883	0.354628
C26	C	0.403676	-0.512886	0.354637
C27	C	0.724065	-0.512867	0.354605
C28	C	1.063446	-0.789405	0.354605
C29	C	1.063493	-0.907710	0.354626
C30	C	1.014324	-0.976996	0.403752
C31	C	0.996407	-1.047830	0.336599
C32	C	1.081477	-1.047675	0.421790
C33	C	1.045541	-0.976986	0.287438
C34	C	1.130641	-0.976824	0.372674
C35	C	1.112750	-1.047626	0.305475
C36	C	1.255448	-0.512883	0.354633
C37	C	1.337246	-0.512891	0.354643
C38	C	1.063503	-0.512861	0.546565
C39	C	1.063507	-0.512860	0.628364
C40	C	1.063563	-0.235243	0.354635
C41	C	1.063592	-0.116937	0.354645
C42	C	1.110572	-0.444797	0.893433
C43	C	1.110578	-0.444797	0.816575
C44	C	1.016420	-0.580940	0.816542
C45	C	1.016419	-0.580945	0.893400
C46	C	1.063494	-0.512868	0.931843
C47	C	1.063500	-0.512862	0.778127
C48	C	1.063505	-0.512862	0.694793
C49	C	1.063490	-0.512869	1.015182
C50	C	1.063483	-0.512885	1.163405
C51	C	1.063487	-0.512870	1.081607
H52	H	0.633586	-0.636558	0.439862
H53	H	0.494158	-0.636562	0.439877
H54	H	0.633586	-0.389171	0.269366
H55	H	0.972669	-0.945982	0.445236
N56	N	0.921247	-1.089134	0.316373
H57	H	0.884101	-1.063448	0.353501
H58	H	0.922025	-1.169315	0.316047
H59	H	1.030305	-0.946064	0.230630
H60	H	0.494144	-0.389194	0.269383
H61	H	1.154373	-1.078444	0.263890
N62	N	1.205783	-0.935481	0.392914
H63	H	1.202023	-0.890198	0.438524
H64	H	1.225802	-0.891395	0.351153
H65	H	1.096647	-1.078726	0.478583
H66	H	0.978081	-0.636382	0.924674
H67	H	0.978092	-0.636365	0.785232
N68	N	1.161347	-0.371371	0.934892
H69	H	1.213925	-0.387903	0.921524
H70	H	1.154142	-0.381727	0.989397
N71	N	1.161357	-0.371383	0.775146
H72	H	1.191178	-0.328261	0.811165
H73	H	1.131413	-0.322125	0.743255
