data_functionalizedCrystal
_audit_creation_method	'MofGen! by Chris Wilmer'
_symmetry_space_group_name_H-M	'P1'
_symmetry_Int_Tables_number	1
_symmetry_cell_setting	triclinic
loop_
_symmetry_equiv_pos_as_xyz
  x,y,z
_cell_length_a	9.065215
_cell_length_b	19.188924
_cell_length_c	8.140239
_cell_angle_alpha	89.994791
_cell_angle_beta	89.997013
_cell_angle_gamma	84.078331
loop_
_atom_site_label
_atom_site_type_symbol
_atom_site_fract_x
_atom_site_fract_y
_atom_site_fract_z
O1	O	1.956846	0.102360	-0.136603
O2	O	2.456846	0.602360	0.363397
O3	O	1.527268	0.110759	-0.136611
O4	O	2.027268	0.610759	0.363389
O5	O	1.754459	0.004999	-0.136588
O6	O	2.254459	0.504999	0.363412
O7	O	1.729655	0.208119	-0.136627
O8	O	2.229655	0.708119	0.363373
O9	O	1.754443	0.004999	0.136639
O10	O	2.254443	0.504999	0.636639
O11	O	1.527252	0.110758	0.136616
O12	O	2.027252	0.610758	0.636616
O13	O	1.956830	0.102359	0.136624
O14	O	2.456830	0.602359	0.636624
Zn15	Zn	1.742038	0.106559	0.180000
Zn16	Zn	2.242038	0.606559	0.680000
Zn17	Zn	1.742060	0.106559	-0.179988
Zn18	Zn	2.242060	0.606559	0.320012
O19	O	1.729639	0.208118	0.136600
O20	O	2.229639	0.708118	0.636600
C21	C	1.472302	0.109952	0.000001
C22	C	1.972302	0.609952	0.500001
C23	C	1.308542	0.107540	-0.000001
C24	C	1.808542	0.607540	0.499999
C25	C	1.753649	-0.021018	0.000027
C26	C	2.253649	0.478982	0.500027
C27	C	1.751243	-0.098542	0.000032
C28	C	2.251243	0.401458	0.500032
C29	C	1.750129	-0.134949	-0.148905
C30	C	2.250129	0.365051	0.351095
C31	C	1.747847	-0.207789	-0.148917
C32	C	2.247847	0.292211	0.351083
C33	C	1.746710	-0.244221	0.000015
C34	C	2.246710	0.255779	0.500015
C35	C	1.747816	-0.207805	0.148971
C36	C	2.247816	0.292195	0.648971
C37	C	1.750082	-0.134965	0.148979
C38	C	2.250082	0.365035	0.648979
N39	N	1.827094	-0.363260	0.110863
N40	N	2.327094	0.136740	0.610863
N41	N	1.824944	-0.432455	0.110845
N42	N	2.324944	0.067545	0.610845
C43	C	1.739876	-0.463683	-0.000001
C44	C	2.239876	0.036317	0.499999
N45	N	1.657059	-0.423103	-0.110854
N46	N	2.157059	0.076897	0.389146
N47	N	1.659216	-0.353902	-0.110840
N48	N	2.159216	0.146098	0.389160
C49	C	1.744251	-0.323204	0.000023
C50	C	2.244251	0.176796	0.500023
C51	C	1.736286	-0.579073	-0.148961
C52	C	2.236286	-0.079073	0.351039
C53	C	1.733995	-0.651914	-0.148968
C54	C	2.233995	-0.151914	0.351032
C55	C	1.733978	-0.651928	0.148925
C56	C	2.233978	-0.151928	0.648925
C57	C	1.736254	-0.579088	0.148927
C58	C	2.236254	-0.079088	0.648927
C59	C	1.737415	-0.542665	-0.000020
C60	C	2.237415	-0.042665	0.499980
C61	C	2.011796	0.103166	0.000007
C62	C	2.511796	0.603166	0.500007
C63	C	2.175556	0.105578	-0.000001
C64	C	2.675556	0.605578	0.499999
C65	C	1.730449	0.234136	-0.000018
C66	C	2.230449	0.734136	0.499982
C67	C	1.732855	0.311659	-0.000034
C68	C	2.232855	0.811659	0.499966
N69	N	1.742035	0.106558	0.425683
N70	N	2.242035	0.606558	0.925683
N71	N	1.742062	0.106558	0.574329
N72	N	2.242062	0.606558	1.074329
H73	H	1.751070	-0.105297	-0.270190
H74	H	2.251070	0.394703	0.229810
H75	H	1.733080	-0.681555	-0.270255
H76	H	2.233080	-0.181555	0.229745
H77	H	1.750984	-0.105322	0.270265
H78	H	2.250984	0.394678	0.770265
O79	O	1.746649	-0.247072	-0.309560
O80	O	2.246649	0.252928	0.190440
H81	H	1.747843	-0.209507	-0.413129
H82	H	2.247843	0.290493	0.086871
H83	H	1.746885	-0.237472	0.270233
H84	H	2.246885	0.262528	0.770233
O85	O	1.737513	-0.539784	-0.309608
O86	O	2.237513	-0.039784	0.190392
H87	H	1.739296	-0.483017	-0.284582
H88	H	2.239296	0.016983	0.215418
H89	H	1.733040	-0.681590	0.270189
H90	H	2.233040	-0.181590	0.770189
O91	O	1.737493	-0.539814	0.309566
O92	O	2.237493	-0.039814	0.809566
H93	H	1.736337	-0.577383	0.413130
H94	H	2.236337	-0.077383	0.913130
