data_functionalizedCrystal
_audit_creation_method	'MofGen! by Chris Wilmer'
_symmetry_space_group_name_H-M	'P1'
_symmetry_Int_Tables_number	1
_symmetry_cell_setting	triclinic
loop_
_symmetry_equiv_pos_as_xyz
  x,y,z
_cell_length_a	18.050591
_cell_length_b	21.295412
_cell_length_c	18.050588
_cell_angle_alpha	89.974935
_cell_angle_beta	90.025567
_cell_angle_gamma	89.970494
loop_
_atom_site_label
_atom_site_type_symbol
_atom_site_fract_x
_atom_site_fract_y
_atom_site_fract_z
Zn1	Zn	1.135349	-0.356037	-0.295757
Zn2	Zn	1.635349	0.143963	0.204243
Zn3	Zn	1.135238	-0.250772	-0.419949
Zn4	Zn	1.635238	0.249228	0.080051
Zn5	Zn	1.011149	-0.250771	-0.295768
Zn6	Zn	1.511149	0.249229	0.204232
Zn7	Zn	1.011113	-0.355993	-0.419901
Zn8	Zn	1.511113	0.144007	0.080099
O9	O	1.073212	-0.303393	-0.357844
O10	O	1.573212	0.196607	0.142156
O11	O	1.239258	-0.342092	-0.312247
O12	O	1.739258	0.157908	0.187753
O13	O	1.118746	-0.162683	-0.403501
O14	O	1.618746	0.337317	0.096499
O15	O	1.027686	-0.264752	-0.191842
O16	O	1.527686	0.235248	0.308158
O17	O	1.239177	-0.264755	-0.403490
O18	O	1.739177	0.235245	0.096510
O19	O	1.118935	-0.342090	-0.191834
O20	O	1.618935	0.157910	0.308166
O21	O	1.027579	-0.162681	-0.312266
O22	O	1.527579	0.337319	0.187734
O23	O	0.907220	-0.264710	-0.312220
O24	O	1.407220	0.235290	0.187780
O25	O	1.027624	-0.444088	-0.403408
O26	O	1.527624	0.055912	0.096592
O27	O	0.907193	-0.342016	-0.403419
O28	O	1.407193	0.157984	0.096581
O29	O	1.118900	-0.444120	-0.312200
O30	O	1.618900	0.055880	0.187800
O31	O	1.118711	-0.264712	-0.523867
O32	O	1.618711	0.235288	-0.023867
O33	O	1.027517	-0.342018	-0.523832
O34	O	1.527517	0.157982	-0.023832
C35	C	0.880260	-0.303358	-0.357816
C36	C	1.380260	0.196642	0.142184
C37	C	0.797714	-0.303358	-0.357822
C38	C	1.297714	0.196642	0.142178
C39	C	0.598256	-0.261416	-0.308170
C40	C	1.098256	0.238584	0.191830
C41	C	0.548832	-0.245926	-0.375908
C42	C	1.048832	0.254074	0.124092
C43	C	0.646584	-0.303387	-0.357845
C44	C	1.146584	0.196613	0.142155
C45	C	0.548926	-0.318875	-0.290131
C46	C	1.048926	0.181125	0.209869
C47	C	0.500599	-0.303413	-0.357861
C48	C	1.000599	0.196587	0.142139
C49	C	0.598247	-0.287867	-0.425618
C50	C	1.098247	0.212133	0.074382
C51	C	0.598345	-0.360843	-0.339796
C52	C	1.098345	0.139157	0.160204
C53	C	0.548943	-0.345375	-0.407579
C54	C	1.048943	0.154625	0.092421
C55	C	0.730682	-0.303370	-0.357835
C56	C	1.230682	0.196630	0.142165
C57	C	0.416502	-0.303430	-0.357878
C58	C	0.916502	0.196570	0.142122
C59	C	1.073270	-0.467583	-0.357798
C60	C	1.573270	0.032417	0.142202
C61	C	1.073295	-0.537552	-0.357778
C62	C	1.573295	-0.037552	0.142222
C63	C	1.025837	-0.570408	-0.310267
C64	C	1.525837	-0.070408	0.189733
C65	C	1.025834	-0.636150	-0.310253
C66	C	1.525834	-0.136150	0.189747
C67	C	1.073303	-0.669034	-0.357743
C68	C	1.573303	-0.169034	0.142257
C69	C	1.120764	-0.636170	-0.405263
C70	C	1.620764	-0.136170	0.094737
C71	C	1.120760	-0.570429	-0.405281
C72	C	1.620760	-0.070429	0.094719
N73	N	1.138313	-0.772279	-0.363419
N74	N	1.638313	-0.272279	0.136581
N75	N	1.138315	-0.834730	-0.363398
N76	N	1.638315	-0.334730	0.136602
C77	C	1.073317	-0.867109	-0.357693
C78	C	1.573317	-0.367109	0.142307
N79	N	1.008315	-0.834677	-0.351996
N80	N	1.508315	-0.334677	0.148004
N81	N	1.008314	-0.772220	-0.352013
N82	N	1.508314	-0.272220	0.147987
C83	C	1.073312	-0.740320	-0.357729
C84	C	1.573312	-0.240320	0.142271
C85	C	1.025852	-0.971251	-0.310164
C86	C	1.525852	-0.471251	0.189836
C87	C	1.025848	-1.036994	-0.310156
C88	C	1.525848	-0.536994	0.189844
C89	C	1.120785	-1.037013	-0.405162
C90	C	1.620785	-0.537013	0.094838
C91	C	1.120782	-0.971270	-0.405175
C92	C	1.620782	-0.471270	0.094825
C93	C	1.073316	-0.938393	-0.357672
C94	C	1.573316	-0.438393	0.142328
C95	C	1.266918	-0.303428	-0.357872
C96	C	1.766918	0.196572	0.142128
C97	C	1.349463	-0.303443	-0.357884
C98	C	1.849463	0.196557	0.142116
C99	C	1.073118	-0.303374	-0.550796
C100	C	1.573118	0.196626	-0.050796
C101	C	1.073146	-0.303387	-0.633342
C102	C	1.573146	0.196613	-0.133342
C103	C	1.073197	-0.139841	-0.357836
C104	C	1.573197	0.360159	0.142164
C105	C	1.073316	-0.069874	-0.357647
C106	C	1.573316	0.430126	0.142353
C107	C	1.023632	-0.345426	-0.882175
C108	C	1.523632	0.154574	-0.382175
C109	C	1.091351	-0.360879	-0.832710
C110	C	1.591351	0.139121	-0.332710
C111	C	1.073300	-0.303422	-0.930462
C112	C	1.573300	0.196578	-0.430462
C113	C	1.005508	-0.287981	-0.832846
C114	C	1.505508	0.212019	-0.332846
C115	C	1.073220	-0.303407	-0.784477
C116	C	1.573220	0.196593	-0.284477
C117	C	1.141055	-0.318906	-0.882084
C118	C	1.641055	0.181094	-0.382084
C119	C	1.055166	-0.245981	-0.882224
C120	C	1.555166	0.254019	-0.382224
C121	C	1.122932	-0.261412	-0.832781
C122	C	1.622932	0.238588	-0.332781
C123	C	1.073344	-0.303433	-1.014560
C124	C	1.573344	0.196567	-0.514560
C125	C	1.073183	-0.303396	-0.700381
C126	C	1.573183	0.196604	-0.200381
C127	C	1.073327	-0.303426	-0.164138
C128	C	1.573327	0.196574	0.335862
C129	C	1.073376	-0.303440	-0.081592
C130	C	1.573376	0.196560	0.418408
H131	H	0.619822	-0.274724	-0.482906
H132	H	1.119822	0.225276	0.017094
H133	H	0.527086	-0.197348	-0.391186
H134	H	1.027086	0.302652	0.108814
C135	C	1.112030	-0.426490	-0.803323
C136	C	1.612030	0.073510	-0.303323
H137	H	1.076721	-0.456293	-0.820231
H138	H	1.576721	0.043707	-0.320231
H139	H	1.159819	-0.437744	-0.820906
H140	H	1.659819	0.062256	-0.320906
H141	H	1.112290	-0.425912	-0.750698
H142	H	1.612290	0.074088	-0.250698
C143	C	0.519867	-0.393335	-0.464399
C144	C	1.019867	0.106665	0.035601
H145	H	0.536846	-0.382239	-0.512462
H146	H	1.036846	0.117761	-0.012462
H147	H	0.537569	-0.434018	-0.451983
H148	H	1.037569	0.065982	0.048017
H149	H	0.467241	-0.393326	-0.463815
H150	H	0.967241	0.106674	0.036185
H151	H	0.987202	-0.944481	-0.271485
H152	H	1.487202	-0.444481	0.228515
C153	C	0.973633	-0.672300	-0.257984
C154	C	1.473633	-0.172300	0.242016
H155	H	0.945368	-0.643303	-0.229693
H156	H	1.445368	-0.143303	0.270307
H157	H	0.941258	-0.697931	-0.286375
H158	H	1.441258	-0.197931	0.213625
H159	H	1.002075	-0.697959	-0.225624
H160	H	1.502075	-0.197959	0.274376
H161	H	1.159436	-1.063786	-0.443828
H162	H	1.659436	-0.563786	0.056172
C163	C	0.627754	-0.426445	-0.319129
C164	C	1.127754	0.073555	0.180871
H165	H	0.610898	-0.437380	-0.270971
H166	H	1.110898	0.062620	0.229029
H167	H	0.610136	-0.456377	-0.353929
H168	H	1.110136	0.043623	0.146071
H169	H	0.680378	-0.426047	-0.319718
H170	H	1.180378	0.073953	0.180282
C171	C	1.034459	-0.180388	-0.911635
C172	C	1.534459	0.319612	-0.411635
H173	H	0.986280	-0.169484	-0.894809
H174	H	1.486280	0.330516	-0.394809
H175	H	1.069219	-0.150437	-0.893989
H176	H	1.569219	0.349563	-0.393989
H177	H	1.035083	-0.180783	-0.964258
H178	H	1.535083	0.319217	-0.464258
H179	H	1.198369	-0.332015	-0.903624
H180	H	1.698369	0.167985	-0.403624
H181	H	0.527222	-0.331942	-0.232867
H182	H	1.027222	0.168058	0.267133
H183	H	0.987184	-0.543643	-0.271589
H184	H	1.487184	-0.043643	0.228411
H185	H	1.159414	-0.662948	-0.443930
H186	H	1.659414	-0.162948	0.056070
C187	C	1.172971	-0.534286	-0.457541
C188	C	1.672971	-0.034286	0.042459
H189	H	1.201245	-0.563283	-0.485821
H190	H	1.701245	-0.063283	0.014179
H191	H	1.144543	-0.508620	-0.489899
H192	H	1.644543	-0.008620	0.010101
H193	H	1.205349	-0.508661	-0.429137
H194	H	1.705349	-0.008661	0.070863
H195	H	0.987196	-1.063745	-0.271469
H196	H	1.487196	-0.563745	0.228531
H197	H	1.159429	-0.944519	-0.443862
H198	H	1.659429	-0.444519	0.056138
H199	H	0.981716	-0.380981	-0.903861
H200	H	1.481716	0.119019	-0.403861
C201	C	1.179687	-0.213422	-0.803651
C202	C	1.679687	0.286578	-0.303651
H203	H	1.154943	-0.182622	-0.774722
H204	H	1.654943	0.317378	-0.274722
H205	H	1.215472	-0.234362	-0.773968
H206	H	1.715472	0.265638	-0.273968
H207	H	1.203653	-0.193668	-0.844294
H208	H	1.703653	0.306332	-0.344294
C209	C	0.627516	-0.213419	-0.251486
C210	C	1.127516	0.286581	0.248514
H211	H	0.610561	-0.172624	-0.264440
H212	H	1.110561	0.327376	0.235560
H213	H	0.609904	-0.224011	-0.203499
H214	H	1.109904	0.275989	0.296501
H215	H	0.680142	-0.214004	-0.251562
H216	H	1.180142	0.285996	0.248438
C217	C	0.928113	-0.270358	-0.803599
C218	C	1.428113	0.229642	-0.303599
H219	H	0.892917	-0.300254	-0.820513
H220	H	1.392917	0.199746	-0.320513
H221	H	0.928771	-0.270112	-0.750978
H222	H	1.428771	0.229888	-0.250978
H223	H	0.914898	-0.229844	-0.821271
H224	H	1.414898	0.270156	-0.321271
