data_functionalizedCrystal
_audit_creation_method	'MofGen! by Chris Wilmer'
_symmetry_space_group_name_H-M	'P1'
_symmetry_Int_Tables_number	1
_symmetry_cell_setting	triclinic
loop_
_symmetry_equiv_pos_as_xyz
  x,y,z
_cell_length_a	19.121102
_cell_length_b	29.839131
_cell_length_c	29.839126
_cell_angle_alpha	89.978002
_cell_angle_beta	87.535664
_cell_angle_gamma	87.595578
loop_
_atom_site_label
_atom_site_type_symbol
_atom_site_fract_x
_atom_site_fract_y
_atom_site_fract_z
Zn1	Zn	1.073683	-0.208247	-0.283269
Zn2	Zn	1.573683	0.291753	0.216731
Zn3	Zn	1.073548	-0.283361	-0.208135
Zn4	Zn	1.573548	0.216639	0.291865
Zn5	Zn	0.956219	-0.205039	-0.204950
Zn6	Zn	1.456219	0.294961	0.295050
Zn7	Zn	0.956166	-0.280138	-0.280037
Zn8	Zn	1.456166	0.219862	0.219963
O9	O	1.014904	-0.244196	-0.244098
O10	O	1.514904	0.255804	0.255902
O11	O	1.171948	-0.220902	-0.275987
O12	O	1.671948	0.279098	0.224013
O13	O	1.057951	-0.272977	-0.144844
O14	O	1.557951	0.227023	0.355156
O15	O	0.971880	-0.142599	-0.215358
O16	O	1.471880	0.357401	0.284642
O17	O	1.171850	-0.276088	-0.220787
O18	O	1.671850	0.223912	0.279213
O19	O	1.058179	-0.144956	-0.272899
O20	O	1.558179	0.355044	0.227101
O21	O	0.971750	-0.215434	-0.142504
O22	O	1.471750	0.284566	0.357496
O23	O	0.857929	-0.212309	-0.212225
O24	O	1.357929	0.287691	0.287775
O25	O	0.971789	-0.270596	-0.343334
O26	O	1.471789	0.229404	0.156666
O27	O	0.857889	-0.267485	-0.267391
O28	O	1.357889	0.232515	0.232609
O29	O	1.058128	-0.217778	-0.345708
O30	O	1.558128	0.282222	0.154292
O31	O	1.057899	-0.345798	-0.217654
O32	O	1.557899	0.154202	0.282346
O33	O	0.971658	-0.343431	-0.270480
O34	O	1.471658	0.156569	0.229520
C35	C	0.832425	-0.239199	-0.239112
C36	C	1.332425	0.260801	0.260888
C37	C	0.754360	-0.237073	-0.236990
C38	C	1.254360	0.262927	0.263010
C39	C	0.717683	-0.264844	-0.264670
C40	C	1.217683	0.235156	0.235330
C41	C	0.644332	-0.262839	-0.262678
C42	C	1.144332	0.237161	0.237322
C43	C	0.607660	-0.233066	-0.233004
C44	C	1.107660	0.266934	0.266996
C45	C	0.644343	-0.205292	-0.205323
C46	C	1.144343	0.294708	0.294677
C47	C	0.717692	-0.207294	-0.207317
C48	C	1.217692	0.292706	0.292683
C49	C	0.386193	-0.225579	-0.225549
C50	C	0.886193	0.274421	0.274451
C51	C	0.312838	-0.223579	-0.223556
C52	C	0.812838	0.276421	0.276444
C53	C	0.312833	-0.281127	-0.280912
C54	C	0.812833	0.218873	0.219088
C55	C	0.386183	-0.283128	-0.282902
C56	C	0.886183	0.216872	0.217098
C57	C	0.422860	-0.255353	-0.255223
C58	C	0.922860	0.244647	0.244777
C59	C	0.532684	-0.231018	-0.230966
C60	C	1.032684	0.268982	0.269034
C61	C	0.497834	-0.257399	-0.257263
C62	C	0.997834	0.242601	0.242737
C63	C	1.014777	-0.360915	-0.244072
C64	C	1.514777	0.139085	0.255928
C65	C	1.014787	-0.410850	-0.244078
C66	C	1.514787	0.089150	0.255922
C67	C	1.059891	-0.721719	-0.216635
C68	C	1.559891	-0.221719	0.283365
C69	C	1.059978	-0.909394	-0.216655
C70	C	1.559978	-0.409394	0.283345
O71	O	1.098226	-0.934699	-0.193303
O72	O	1.598226	-0.434699	0.306697
N73	N	1.015050	-0.931642	-0.244136
N74	N	1.515050	-0.431642	0.255864
C75	C	0.970100	-0.906968	-0.271615
C76	C	1.470100	-0.406968	0.228385
O77	O	0.931893	-0.930198	-0.294993
O78	O	1.431893	-0.430198	0.205007
C79	C	0.970017	-0.719294	-0.271597
C80	C	1.470017	-0.219294	0.228403
C81	C	1.014943	-0.697048	-0.244112
C82	C	1.514943	-0.197048	0.255888
C83	C	1.104814	-0.699473	-0.189152
C84	C	1.604814	-0.199473	0.310848
C85	C	1.104789	-0.652557	-0.189146
C86	C	1.604789	-0.152557	0.310854
C87	C	1.059841	-0.627887	-0.216622
C88	C	1.559841	-0.127887	0.283378
C89	C	1.014919	-0.650132	-0.244105
C90	C	1.514919	-0.150132	0.255895
C91	C	0.925072	-0.694621	-0.299079
C92	C	1.425072	-0.194621	0.200921
C93	C	0.925056	-0.647699	-0.299073
C94	C	1.425056	-0.147699	0.200927
C95	C	0.969982	-0.625454	-0.271587
C96	C	1.469982	-0.125454	0.228413
C97	C	0.969946	-0.578546	-0.271575
C98	C	1.469946	-0.078546	0.228425
N99	N	1.014874	-0.556298	-0.244095
N100	N	1.514874	-0.056298	0.255905
C101	C	1.059822	-0.580968	-0.216618
C102	C	1.559822	-0.080968	0.283382
C103	C	0.970146	-1.005500	-0.271622
C104	C	1.470146	-0.505500	0.228378
C105	C	0.970165	-1.052418	-0.271626
C106	C	1.470165	-0.552418	0.228374
C107	C	1.060044	-1.054841	-0.216666
C108	C	1.560044	-0.554841	0.283334
C109	C	1.060020	-1.007922	-0.216660
C110	C	1.560020	-0.507922	0.283340
C111	C	1.015074	-0.983252	-0.244141
C112	C	1.515074	-0.483252	0.255859
C113	C	1.059766	-0.482441	-0.216607
C114	C	1.559766	0.017559	0.283393
C115	C	1.059735	-0.435521	-0.216601
C116	C	1.559735	0.064479	0.283399
C117	C	0.969859	-0.433102	-0.271562
C118	C	1.469859	0.066898	0.228438
C119	C	0.969887	-0.480018	-0.271566
C120	C	1.469887	0.019982	0.228434
C121	C	1.014846	-0.504687	-0.244087
C122	C	1.514846	-0.004687	0.255913
O123	O	0.931723	-0.553213	-0.294919
O124	O	1.431723	-0.053213	0.205081
O125	O	1.098034	-0.557731	-0.193251
O126	O	1.598034	-0.057731	0.306749
C127	C	1.059916	-0.768635	-0.216642
C128	C	1.559916	-0.268635	0.283358
C129	C	1.014993	-0.790881	-0.244125
C130	C	1.514993	-0.290881	0.255875
C131	C	0.970045	-0.766210	-0.271601
C132	C	1.470045	-0.266210	0.228399
C133	C	1.015013	-0.837799	-0.244129
C134	C	1.515013	-0.337799	0.255871
C135	C	1.059960	-0.862470	-0.216652
C136	C	1.559960	-0.362470	0.283348
C137	C	1.104888	-0.840222	-0.189172
C138	C	1.604888	-0.340222	0.310828
C139	C	1.104864	-0.793306	-0.189165
C140	C	1.604864	-0.293306	0.310835
C141	C	0.925117	-0.788458	-0.299082
C142	C	1.425117	-0.288458	0.200918
C143	C	0.925145	-0.835374	-0.299086
C144	C	1.425145	-0.335374	0.200914
C145	C	0.970093	-0.860045	-0.271609
C146	C	1.470093	-0.360045	0.228391
C147	C	1.198096	-0.249213	-0.249103
C148	C	1.698096	0.250787	0.250897
C149	C	1.276161	-0.251351	-0.251236
C150	C	1.776161	0.248649	0.248764
C151	C	1.014967	-0.244185	-0.361278
C152	C	1.514967	0.255815	0.138722
C153	C	1.014994	-0.244180	-0.411213
C154	C	1.514994	0.255820	0.088787
C155	C	1.015051	-0.127022	-0.244134
C156	C	1.515051	0.372978	0.255866
C157	C	1.015113	-0.077089	-0.244149
C158	C	1.515113	0.422911	0.255851
C159	C	1.059869	-0.274083	-0.769021
C160	C	1.559869	0.225917	-0.269021
C161	C	1.059871	-0.274114	-0.581348
C162	C	1.559871	0.225886	-0.081348
O163	O	1.098018	-0.299609	-0.558122
O164	O	1.598018	0.200391	-0.058122
N165	N	1.014991	-0.244159	-0.556658
N166	N	1.514991	0.255841	-0.056658
C167	C	0.970104	-0.214195	-0.578889
C168	C	1.470104	0.285805	-0.078889
O169	O	0.931926	-0.188720	-0.553582
O170	O	1.431926	0.311280	-0.053582
C171	C	0.970100	-0.214166	-0.766561
C172	C	1.470100	0.285834	-0.266561
C173	C	1.014988	-0.244121	-0.791249
C174	C	1.514988	0.255879	-0.291249
C175	C	1.104753	-0.304035	-0.793710
C176	C	1.604753	0.195965	-0.293710
C177	C	1.104755	-0.304026	-0.840625
C178	C	1.604755	0.195974	-0.340625
C179	C	1.059873	-0.274063	-0.862853
C180	C	1.559873	0.225937	-0.362853
C181	C	1.014990	-0.244111	-0.838165
C182	C	1.514990	0.255889	-0.338165
C183	C	0.925211	-0.184205	-0.788791
C184	C	1.425211	0.315795	-0.288791
C185	C	0.925212	-0.184201	-0.835712
C186	C	1.425212	0.315799	-0.335712
C187	C	0.970100	-0.214156	-0.860400
C188	C	1.470100	0.285844	-0.360400
C189	C	0.970110	-0.214139	-0.907308
C190	C	1.470110	0.285861	-0.407308
N191	N	1.014990	-0.244095	-0.931998
N192	N	1.514990	0.255905	-0.431998
C193	C	1.059871	-0.274057	-0.909770
C194	C	1.559871	0.225943	-0.409770
C195	C	0.970111	-0.214212	-0.480358
C196	C	1.470111	0.285788	0.019642
C197	C	0.970112	-0.214218	-0.433440
C198	C	1.470112	0.285782	0.066560
C199	C	1.059878	-0.274138	-0.435903
C200	C	1.559878	0.225862	0.064097
C201	C	1.059879	-0.274129	-0.482822
C202	C	1.559879	0.225871	0.017178
C203	C	1.014990	-0.244167	-0.505049
C204	C	1.514990	0.255833	-0.005049
C205	C	1.059873	-0.274034	-1.008296
C206	C	1.559873	0.225966	-0.508296
C207	C	1.059873	-0.274020	-1.055216
C208	C	1.559873	0.225980	-0.555216
C209	C	0.970105	-0.214102	-1.052749
C210	C	1.470105	0.285898	-0.552749
C211	C	0.970107	-0.214114	-1.005833
C212	C	1.470107	0.285886	-0.505833
C213	C	1.014993	-0.244083	-0.983608
C214	C	1.514993	0.255917	-0.483608
O215	O	0.931977	-0.188661	-0.930563
O216	O	1.431977	0.311339	-0.430563
O217	O	1.098033	-0.299535	-0.935085
O218	O	1.598033	0.200465	-0.435085
C219	C	1.059867	-0.274093	-0.722106
C220	C	1.559867	0.225907	-0.222106
C221	C	1.014984	-0.244140	-0.697418
C222	C	1.514984	0.255860	-0.197418
C223	C	0.970102	-0.214178	-0.719645
C224	C	1.470102	0.285822	-0.219645
C225	C	1.014986	-0.244147	-0.650500
C226	C	1.514986	0.255853	-0.150500
C227	C	1.059867	-0.274109	-0.628273
C228	C	1.559867	0.225891	-0.128273
C229	C	1.104747	-0.304065	-0.652963
C230	C	1.604747	0.195935	-0.152963
C231	C	1.104749	-0.304055	-0.699878
C232	C	1.604749	0.195945	-0.199878
C233	C	0.925223	-0.184222	-0.694955
C234	C	1.425223	0.315778	-0.194955
C235	C	0.925225	-0.184234	-0.648040
C236	C	1.425225	0.315766	-0.148040
C237	C	0.970106	-0.214197	-0.625812
C238	C	1.470106	0.285803	-0.125812
C239	C	1.014882	-0.244176	-0.127375
C240	C	1.514882	0.255824	0.372625
C241	C	1.014991	-0.244058	-0.077443
C242	C	1.514991	0.255942	0.422557
H243	H	1.096377	-0.502521	-0.194231
H244	H	1.596377	-0.002521	0.305769
N245	N	1.105914	-0.985208	-0.188581
N246	N	1.605914	-0.485208	0.311419
N247	N	1.146036	-1.007246	-0.164049
N248	N	1.646036	-0.507246	0.335951
H249	H	1.178451	-0.991207	-0.144217
H250	H	1.678451	-0.491207	0.355783
H251	H	0.614472	-0.285454	-0.285218
H252	H	1.114472	0.214546	0.214782
H253	H	0.888673	-0.159837	-0.627942
H254	H	1.388673	0.340163	-0.127942
N255	N	0.879378	-0.153606	-0.717647
N256	N	1.379378	0.346394	-0.217647
N257	N	0.884093	-0.112283	-0.712535
N258	N	1.384093	0.387717	-0.212535
H259	H	0.851715	-0.090656	-0.728559
H260	H	1.351715	0.409344	-0.228559
H261	H	0.527696	-0.281638	-0.281426
H262	H	1.027696	0.218362	0.218574
H263	H	1.096428	-0.298435	-0.990206
H264	H	1.596428	0.201565	-0.490206
H265	H	0.747554	-0.184678	-0.184779
H266	H	1.247554	0.315322	0.315221
N267	N	1.150617	-0.334642	-0.771019
N268	N	1.650617	0.165358	-0.271019
N269	N	1.215425	-0.333428	-0.778058
N270	N	1.715425	0.166572	-0.278058
H271	H	1.247825	-0.355045	-0.762037
H272	H	1.747825	0.144955	-0.262037
N273	N	0.423647	-0.197205	-0.197277
N274	N	0.923647	0.302795	0.302723
N275	N	0.415496	-0.155533	-0.200109
N276	N	0.915496	0.344467	0.299891
H277	H	0.441950	-0.135493	-0.180139
H278	H	0.941950	0.364507	0.319861
H279	H	0.502817	-0.206777	-0.206804
H280	H	1.002817	0.293223	0.293196
N281	N	0.879131	-0.622501	-0.327138
N282	N	1.379131	-0.122501	0.172862
N283	N	0.834369	-0.595137	-0.310084
N284	N	1.334369	-0.095137	0.189916
H285	H	0.801932	-0.577341	-0.329903
H286	H	1.301932	-0.077341	0.170097
N287	N	0.606875	-0.174878	-0.175016
N288	N	1.106875	0.325122	0.324984
N289	N	0.541385	-0.173094	-0.173239
N290	N	1.041385	0.326906	0.326761
H291	H	0.514923	-0.151614	-0.151834
H292	H	1.014923	0.348386	0.348166
H293	H	1.096319	-0.417410	-0.194217
H294	H	1.596319	0.082590	0.305783
H295	H	1.141374	-0.634448	-0.166766
H296	H	1.641374	-0.134448	0.333234
N297	N	1.150739	-0.724662	-0.161083
N298	N	1.650739	-0.224662	0.338917
N299	N	1.190843	-0.704786	-0.136550
N300	N	1.690843	-0.204786	0.363450
H301	H	1.223278	-0.722572	-0.116722
H302	H	1.723278	-0.222572	0.383278
H303	H	0.888658	-0.159802	-0.853806
H304	H	1.388658	0.340198	-0.353806
H305	H	0.416037	-0.307374	-0.307065
H306	H	0.916037	0.192626	0.192935
N307	N	1.105951	-1.080053	-0.188600
N308	N	1.605951	-0.580053	0.311400
N309	N	1.105956	-1.121944	-0.188611
N310	N	1.605956	-0.621944	0.311389
H311	H	1.138378	-1.139752	-0.168792
H312	H	1.638378	-0.639752	0.331208
H313	H	0.933261	-0.413008	-0.293932
H314	H	1.433261	0.086992	0.206068
H315	H	0.933575	-1.070526	-0.294003
H316	H	1.433575	-0.570526	0.205997
H317	H	0.747536	-0.289090	-0.288833
H318	H	1.247536	0.210910	0.211167
N319	N	0.924227	-0.980311	-0.299699
N320	N	1.424227	-0.480311	0.200301
N321	N	0.884119	-1.000186	-0.324230
N322	N	1.384119	-0.500186	0.175770
H323	H	0.851687	-0.982398	-0.344059
H324	H	1.351687	-0.482398	0.155941
H325	H	0.282963	-0.303739	-0.303448
H326	H	0.782963	0.196261	0.196552
H327	H	0.888485	-0.712725	-0.321459
H328	H	1.388485	-0.212725	0.178541
H329	H	0.282982	-0.199329	-0.199394
H330	H	0.782982	0.300671	0.300606
N331	N	0.924276	-0.183617	-0.408218
N332	N	1.424276	0.316383	0.091782
N333	N	0.949019	-0.155669	-0.382726
N334	N	1.449019	0.344331	0.117274
H335	H	0.916644	-0.134057	-0.364913
H336	H	1.416644	0.365943	0.135087
N337	N	0.879194	-0.763260	-0.327143
N338	N	1.379194	-0.263260	0.172857
N339	N	0.834433	-0.735895	-0.310089
N340	N	1.334433	-0.235895	0.189911
H341	H	0.801995	-0.718099	-0.329907
H342	H	1.301995	-0.218099	0.170093
H343	H	0.933307	-0.498131	-0.293949
H344	H	1.433307	0.001869	0.206051
H345	H	0.933555	-0.189812	-0.498451
H346	H	1.433555	0.310188	0.001549
H347	H	1.141447	-0.775197	-0.166784
H348	H	1.641447	-0.275197	0.333216
H349	H	1.141485	-0.860317	-0.166798
H350	H	1.641485	-0.360317	0.333202
N351	N	0.879240	-0.858087	-0.327163
N352	N	1.379240	-0.358087	0.172837
N353	N	0.839115	-0.836048	-0.351692
N354	N	1.339115	-0.336048	0.148308
H355	H	0.806698	-0.852088	-0.371523
H356	H	1.306698	-0.352088	0.128477
H357	H	1.096429	-0.298413	-1.075315
H358	H	1.596429	0.201587	-0.575315
N359	N	1.105727	-0.304722	-0.508047
N360	N	1.605727	0.195278	-0.008047
N361	N	1.150498	-0.290137	-0.535466
N362	N	1.650498	0.209863	-0.035466
H363	H	1.182879	-0.311744	-0.553281
H364	H	1.682879	0.188256	-0.053281
N365	N	1.150605	-0.334631	-0.865833
N366	N	1.650605	0.165369	-0.365833
N367	N	1.190666	-0.361381	-0.845973
N368	N	1.690666	0.138619	-0.345973
H369	H	1.223047	-0.383000	-0.863773
H370	H	1.723047	0.117000	-0.363773
N371	N	1.105737	-0.304738	-0.413196
N372	N	1.605737	0.195262	0.086804
N373	N	1.150512	-0.290160	-0.388255
N374	N	1.650512	0.209840	0.111745
H375	H	1.182898	-0.311771	-0.372216
H376	H	1.682898	0.188229	0.127784
N377	N	0.879351	-0.153605	-0.763587
N378	N	1.379351	0.346395	-0.263587
N379	N	0.839280	-0.126862	-0.783447
N380	N	1.339280	0.373138	-0.283447
H381	H	0.806886	-0.105250	-0.765648
H382	H	1.306886	0.394750	-0.265648
H383	H	0.933565	-0.189717	-0.985731
H384	H	1.433565	0.310283	-0.485731
H385	H	0.933565	-0.189706	-1.070855
H386	H	1.433565	0.310294	-0.570855
N387	N	1.150587	-0.334662	-0.725092
N388	N	1.650587	0.165338	-0.225092
N389	N	1.125844	-0.362612	-0.750582
N390	N	1.625844	0.137388	-0.250582
H391	H	1.158218	-0.384231	-0.768387
H392	H	1.658218	0.115769	-0.268387
N393	N	1.150595	-0.334664	-0.630246
N394	N	1.650595	0.165336	-0.130246
N395	N	1.150583	-0.334662	-0.588355
N396	N	1.650583	0.165338	-0.088355
H397	H	1.182960	-0.356271	-0.572309
H398	H	1.682960	0.143729	-0.072309
