data_functionalizedCrystal
_audit_creation_method	'MofGen! by Chris Wilmer'
_symmetry_space_group_name_H-M	'P1'
_symmetry_Int_Tables_number	1
_symmetry_cell_setting	triclinic
loop_
_symmetry_equiv_pos_as_xyz
  x,y,z
_cell_length_a	23.532355
_cell_length_b	23.532407
_cell_length_c	22.610064
_cell_angle_alpha	90.002995
_cell_angle_beta	90.008169
_cell_angle_gamma	82.838088
loop_
_atom_site_label
_atom_site_type_symbol
_atom_site_fract_x
_atom_site_fract_y
_atom_site_fract_z
O1	O	0.755287	0.068988	0.049110
O2	O	1.255287	0.568988	0.549110
O3	O	0.589420	0.079022	0.049130
O4	O	1.089420	0.579022	0.549130
O5	O	0.677355	-0.008928	0.049108
O6	O	1.177355	0.491072	0.549108
O7	O	0.667352	0.156937	0.049131
O8	O	1.167352	0.656937	0.549131
O9	O	0.677330	-0.008918	-0.049261
O10	O	1.177330	0.491082	0.450739
O11	O	0.589395	0.079032	-0.049239
O12	O	1.089395	0.579032	0.450761
O13	O	0.755263	0.068998	-0.049259
O14	O	1.255263	0.568998	0.450741
Zn15	Zn	0.672325	0.074016	-0.064868
Zn16	Zn	1.172325	0.574016	0.435132
Zn17	Zn	0.672357	0.074003	0.064738
Zn18	Zn	1.172357	0.574003	0.564738
O19	O	0.667327	0.156947	-0.049238
O20	O	1.167327	0.656947	0.450762
C21	C	0.568191	0.078776	-0.000052
C22	C	1.068191	0.578776	0.499948
C23	C	0.504972	0.078022	-0.000045
C24	C	1.004972	0.578022	0.499955
C25	C	0.112945	0.073289	-0.053692
C26	C	0.612945	0.573289	0.446308
C27	C	0.053545	0.072572	-0.053694
C28	C	0.553545	0.572572	0.446306
O29	O	0.022815	0.072186	-0.099296
O30	O	0.522815	0.572186	0.400704
N31	N	0.023850	0.072211	-0.000074
N32	N	0.523850	0.572211	0.499926
C33	C	0.053559	0.072561	0.053553
C34	C	0.553559	0.572561	0.553553
O35	O	0.022847	0.072187	0.099162
O36	O	0.522847	0.572187	0.599162
C37	C	0.112958	0.073274	0.053555
C38	C	0.612958	0.573274	0.553555
C39	C	0.142649	0.073641	-0.000069
C40	C	0.642649	0.573641	0.499931
C41	C	0.142636	0.073656	-0.107312
C42	C	0.642636	0.573656	0.392688
C43	C	0.202031	0.074374	-0.107309
C44	C	0.702031	0.574374	0.392691
C45	C	0.231735	0.074726	-0.053687
C46	C	0.731735	0.574726	0.446313
C47	C	0.202044	0.074360	-0.000067
C48	C	0.702044	0.574360	0.499933
C49	C	0.142665	0.073621	0.107181
C50	C	0.642665	0.573621	0.607181
C51	C	0.202068	0.074334	0.107178
C52	C	0.702068	0.574334	0.607178
C53	C	0.231759	0.074701	0.053554
C54	C	0.731759	0.574701	0.553554
C55	C	0.291143	0.075431	0.053558
C56	C	0.791143	0.575431	0.553558
N57	N	0.320838	0.075792	-0.000062
N58	N	0.820838	0.575792	0.499938
C59	C	0.291134	0.075440	-0.053685
C60	C	0.791134	0.575440	0.446315
C61	C	-0.071183	0.071062	0.053545
C62	C	0.428817	0.571062	0.553545
C63	C	-0.130581	0.070353	0.053544
C64	C	0.369419	0.570353	0.553544
C65	C	-0.130590	0.070363	-0.053703
C66	C	0.369410	0.570363	0.446297
C67	C	-0.071191	0.071076	-0.053702
C68	C	0.428809	0.571076	0.446298
C69	C	-0.041488	0.071423	-0.000075
C70	C	0.458512	0.571423	0.499925
C71	C	0.415868	0.076949	-0.053675
C72	C	0.915868	0.576949	0.446325
C73	C	0.475268	0.077670	-0.053668
C74	C	0.975268	0.577670	0.446332
C75	C	0.475273	0.077657	0.053579
C76	C	0.975273	0.577657	0.553579
C77	C	0.415877	0.076939	0.053572
C78	C	0.915877	0.576939	0.553572
C79	C	0.386177	0.076583	-0.000060
C80	C	0.886177	0.576583	0.499940
O81	O	0.321911	0.075814	0.099137
O82	O	0.821911	0.575814	0.599137
O83	O	0.321854	0.075806	-0.099286
O84	O	0.821854	0.575806	0.400714
C85	C	0.677088	-0.030139	-0.000078
C86	C	1.177088	0.469861	0.499922
C87	C	0.676322	-0.093356	-0.000082
C88	C	1.176322	0.406644	0.499918
C89	C	0.723557	-0.492468	-0.000055
C90	C	1.223557	0.007532	0.499945
C91	C	0.722845	-0.551868	-0.000051
C92	C	1.222845	-0.051868	0.499949
O93	O	0.766632	-0.588620	-0.000034
O94	O	1.266632	-0.088620	0.499966
N95	N	0.670568	-0.574484	-0.000045
N96	N	1.170568	-0.074484	0.499955
C97	C	0.618998	-0.537697	-0.000038
C98	C	1.118998	-0.037697	0.499962
O99	O	0.574467	-0.562388	-0.000032
O100	O	1.074467	-0.062388	0.499968
C101	C	0.619710	-0.478298	-0.000038
C102	C	1.119710	0.021702	0.499962
C103	C	0.671991	-0.455685	-0.000050
C104	C	1.171991	0.044315	0.499950
C105	C	0.775834	-0.469854	-0.000066
C106	C	1.275834	0.030146	0.499934
C107	C	0.776545	-0.410458	-0.000072
C108	C	1.276545	0.089542	0.499928
C109	C	0.724979	-0.373676	-0.000067
C110	C	1.224979	0.126324	0.499933
C111	C	0.672703	-0.396289	-0.000055
C112	C	1.172703	0.103711	0.499945
C113	C	0.568141	-0.441512	-0.000027
C114	C	1.068141	0.058488	0.499973
C115	C	0.568858	-0.382110	-0.000026
C116	C	1.068858	0.117890	0.499974
C117	C	0.621139	-0.359497	-0.000038
C118	C	1.121139	0.140503	0.499962
C119	C	0.621848	-0.300110	-0.000056
C120	C	1.121848	0.199890	0.499944
N121	N	0.674126	-0.277494	-0.000061
N122	N	1.174126	0.222506	0.499939
C123	C	0.725691	-0.314277	-0.000067
C124	C	1.225691	0.185723	0.499933
C125	C	0.617507	-0.662439	-0.000036
C126	C	1.117507	-0.162439	0.499964
C127	C	0.616794	-0.721837	-0.000040
C128	C	1.116794	-0.221837	0.499960
C129	C	0.720642	-0.736004	-0.000052
C130	C	1.220642	-0.236004	0.499948
C131	C	0.721354	-0.676605	-0.000052
C132	C	1.221354	-0.176605	0.499948
C133	C	0.669784	-0.639823	-0.000042
C134	C	1.169784	-0.139823	0.499958
C135	C	0.727181	-0.189540	-0.000079
C136	C	1.227181	0.310460	0.499921
C137	C	0.727888	-0.130138	-0.000087
C138	C	1.227888	0.369862	0.499913
C139	C	0.624041	-0.115977	-0.000072
C140	C	1.124041	0.384023	0.499928
C141	C	0.623334	-0.175373	-0.000067
C142	C	1.123334	0.324627	0.499933
C143	C	0.674909	-0.212154	-0.000069
C144	C	1.174909	0.287846	0.499931
O145	O	0.578084	-0.263323	-0.000070
O146	O	1.078084	0.236677	0.499930
O147	O	0.770216	-0.289577	-0.000065
O148	O	1.270216	0.210423	0.499935
C149	C	0.776491	0.069244	-0.000076
C150	C	1.276491	0.569244	0.499924
C151	C	0.839710	0.069998	-0.000079
C152	C	1.339710	0.569998	0.499921
C153	C	0.667594	0.178158	-0.000050
C154	C	1.167594	0.678158	0.499950
C155	C	0.668360	0.241375	-0.000042
C156	C	1.168360	0.741375	0.499958
N157	N	0.672307	0.074025	-0.153320
N158	N	1.172307	0.574025	0.346680
C159	C	0.637998	0.039639	-0.438162
C160	C	1.137998	0.539639	0.061838
C161	C	0.637993	0.039642	-0.376242
C162	C	1.137993	0.539642	0.123758
O163	O	0.608799	0.010408	-0.344218
O164	O	1.108799	0.510408	0.155782
N165	N	0.672330	0.074007	-0.345272
N166	N	1.172330	0.574007	0.154728
C167	C	0.706680	0.108367	-0.376226
C168	C	1.206680	0.608367	0.123774
O169	O	0.735887	0.137597	-0.344198
O170	O	1.235887	0.637597	0.155802
C171	C	0.706688	0.108361	-0.438144
C172	C	1.206688	0.608361	0.061856
C173	C	0.672344	0.073998	-0.469111
C174	C	1.172344	0.573998	0.030889
C175	C	0.603657	0.005279	-0.469129
C176	C	1.103657	0.505279	0.030871
C177	C	0.603662	0.005277	-0.531044
C178	C	1.103662	0.505277	-0.031044
C179	C	0.638008	0.039636	-0.561993
C180	C	1.138008	0.539636	-0.061993
C181	C	0.672349	0.073996	-0.531027
C182	C	1.172349	0.573996	-0.031027
C183	C	0.741041	0.142717	-0.469097
C184	C	1.241041	0.642717	0.030903
C185	C	0.741046	0.142708	-0.531020
C186	C	1.241046	0.642708	-0.031020
C187	C	0.706702	0.108345	-0.561986
C188	C	1.206702	0.608345	-0.061986
C189	C	0.706699	0.108353	-0.623891
C190	C	1.206699	0.608353	-0.123891
N191	N	0.672362	0.073988	-0.654861
N192	N	1.172362	0.573988	-0.154861
C193	C	0.638016	0.039629	-0.623912
C194	C	1.138016	0.539629	-0.123912
C195	C	0.706661	0.108377	-0.246192
C196	C	1.206661	0.608377	0.253808
C197	C	0.706650	0.108386	-0.184274
C198	C	1.206650	0.608386	0.315726
C199	C	0.637964	0.039660	-0.184295
C200	C	1.137964	0.539660	0.315705
C201	C	0.637972	0.039654	-0.246214
C202	C	1.137972	0.539654	0.253786
C203	C	0.672324	0.074012	-0.277162
C204	C	1.172324	0.574012	0.222838
C205	C	0.638028	0.039628	-0.753939
C206	C	1.138028	0.539628	-0.253939
C207	C	0.638034	0.039631	-0.815860
C208	C	1.138034	0.539631	-0.315860
C209	C	0.706723	0.108355	-0.815834
C210	C	1.206723	0.608355	-0.315834
C211	C	0.706715	0.108354	-0.753919
C212	C	1.206715	0.608354	-0.253919
C213	C	0.672366	0.073987	-0.722973
C214	C	1.172366	0.573987	-0.222973
O215	O	0.735880	0.137570	-0.655954
O216	O	1.235880	0.637570	-0.155954
O217	O	0.608820	0.010399	-0.655947
O218	O	1.108820	0.510399	-0.155947
N219	N	0.672380	0.073990	0.153191
N220	N	1.172380	0.573990	0.653191
H221	H	0.118501	0.073321	0.150848
H222	H	0.618501	0.573321	0.650848
C223	C	0.600239	0.001826	-0.719908
C224	C	1.100239	0.501826	-0.219908
N225	N	0.571773	-0.026644	-0.694275
N226	N	1.071773	0.473356	-0.194275
C227	C	0.565883	-0.032528	-0.565099
C228	C	1.065883	0.467472	-0.065099
N229	N	0.537427	-0.061005	-0.590746
N230	N	1.037427	0.438995	-0.090746
H231	H	0.582057	-0.086018	-0.000070
H232	H	1.082057	0.413982	0.499930
C233	C	0.744439	0.146189	-0.280229
C234	C	1.244439	0.646189	0.219771
N235	N	0.772891	0.174672	-0.305863
N236	N	1.272891	0.674672	0.194137
H237	H	0.609998	0.011684	-0.159085
H238	H	1.109998	0.511684	0.340915
H239	H	0.762629	-0.765963	-0.000054
H240	H	1.262629	-0.265963	0.499946
H241	H	0.574222	-0.740243	-0.000040
H242	H	1.074222	-0.240243	0.499960
C243	C	0.565822	-0.200248	-0.000058
C244	C	1.065822	0.299752	0.499942
N245	N	0.522504	-0.218980	-0.000045
N246	N	1.022504	0.281020	0.499955
H247	H	0.499468	0.077946	0.097237
H248	H	0.999468	0.577946	0.597237
H249	H	0.525569	-0.459912	-0.000013
H250	H	1.025569	0.040088	0.499987
C251	C	0.512126	-0.341652	-0.000017
C252	C	1.012126	0.158348	0.499983
N253	N	0.469396	-0.311181	-0.000012
N254	N	0.969396	0.188819	0.499988
C255	C	0.778866	-0.651737	-0.000060
C256	C	1.278866	-0.151737	0.499940
N257	N	0.822187	-0.633009	-0.000063
N258	N	1.322187	-0.133009	0.499937
C259	C	-0.038536	0.071474	-0.112692
C260	C	0.461464	0.571474	0.387308
N261	N	-0.013943	0.071772	-0.157126
N262	N	0.486057	0.571772	0.342874
H263	H	0.391692	0.076664	-0.097348
H264	H	0.891692	0.576664	0.402652
H265	H	0.226201	0.074670	-0.150976
H266	H	0.726201	0.574670	0.349024
C267	C	0.109970	0.073276	-0.166306
C268	C	0.609970	0.573276	0.333694
N269	N	0.085369	0.072997	-0.210745
N270	N	0.585369	0.572997	0.289255
C271	C	0.560773	-0.621983	-0.000032
C272	C	1.060773	-0.121983	0.499968
N273	N	0.518041	-0.591515	-0.000029
N274	N	1.018041	-0.091515	0.499971
C275	C	0.600252	0.001828	-0.849920
C276	C	1.100252	0.501828	-0.349920
N277	N	0.571796	-0.026646	-0.875571
N278	N	1.071796	0.473354	-0.375571
C279	C	0.744503	0.146145	-0.849890
C280	C	1.244503	0.646145	-0.349890
N281	N	0.772963	0.174606	-0.875543
N282	N	1.272963	0.674606	-0.375543
H283	H	0.734610	0.136375	-0.159067
H284	H	1.234610	0.636375	0.340933
C285	C	-0.163275	0.069969	-0.112690
C286	C	0.336725	0.569969	0.387310
N287	N	-0.187895	0.069672	-0.157116
N288	N	0.312105	0.569672	0.342884
H289	H	0.769021	0.170685	-0.556214
H290	H	1.269021	0.670685	-0.056214
C291	C	0.785403	-0.105268	-0.000099
C292	C	1.285403	0.394732	0.499901
N293	N	0.828723	-0.086538	-0.000106
N294	N	1.328723	0.413462	0.499894
H295	H	0.499440	0.077971	-0.097337
H296	H	0.999440	0.577971	0.402663
H297	H	-0.154752	0.070063	0.097211
H298	H	0.345248	0.570063	0.597211
H299	H	0.769008	0.170698	-0.443894
H300	H	1.269008	0.670698	0.056106
H301	H	0.575689	-0.022703	-0.443936
H302	H	1.075689	0.477297	0.056064
H303	H	0.819117	-0.392053	-0.000079
H304	H	1.319117	0.107947	0.499921
H305	H	0.610006	0.011673	-0.271423
H306	H	1.110006	0.511673	0.228577
C307	C	0.744491	0.146159	-0.719854
C308	C	1.244491	0.646159	-0.219854
N309	N	0.772949	0.174629	-0.694201
N310	N	1.272949	0.674629	-0.194201
C311	C	0.783916	-0.229991	-0.000086
C312	C	1.283916	0.270009	0.499914
N313	N	0.826649	-0.260458	-0.000097
N314	N	1.326649	0.239542	0.499903
C315	C	-0.038515	0.071451	0.112542
C316	C	0.461485	0.571451	0.612542
N317	N	-0.013913	0.071744	0.156979
N318	N	0.486087	0.571744	0.656979
H319	H	0.391700	0.076650	0.097238
H320	H	0.891700	0.576650	0.597238
C321	C	0.832565	-0.510307	-0.000079
C322	C	1.332565	-0.010307	0.499921
N323	N	0.875299	-0.540772	-0.000094
N324	N	1.375299	-0.040772	0.499906
C325	C	0.234738	0.074718	0.166173
C326	C	0.734738	0.574718	0.666173
N327	N	0.259344	0.075009	0.210608
N328	N	0.759344	0.575009	0.710608
