data_functionalizedCrystal
_audit_creation_method	'MofGen! by Chris Wilmer'
_symmetry_space_group_name_H-M	'P1'
_symmetry_Int_Tables_number	1
_symmetry_cell_setting	triclinic
loop_
_symmetry_equiv_pos_as_xyz
  x,y,z
_cell_length_a	18.215407
_cell_length_b	19.121611
_cell_length_c	19.120904
_cell_angle_alpha	94.953252
_cell_angle_beta	87.574329
_cell_angle_gamma	92.404447
loop_
_atom_site_label
_atom_site_type_symbol
_atom_site_fract_x
_atom_site_fract_y
_atom_site_fract_z
Zn1	Zn	1.119946	0.297135	0.409745
Zn2	Zn	1.453279	0.630468	0.743079
Zn3	Zn	1.786612	0.963801	1.076412
Zn4	Zn	1.129903	0.409774	0.297105
Zn5	Zn	1.463237	0.743107	0.630439
Zn6	Zn	1.796570	1.076441	0.963772
Zn7	Zn	1.001921	0.292131	0.292103
Zn8	Zn	1.335254	0.625464	0.625437
Zn9	Zn	1.668587	0.958798	0.958770
Zn10	Zn	1.001850	0.414749	0.414732
Zn11	Zn	1.335184	0.748082	0.748065
Zn12	Zn	1.668517	1.081415	1.081399
O13	O	1.063405	0.353447	0.353421
O14	O	1.396738	0.686781	0.686755
O15	O	1.730072	1.020114	1.020088
O16	O	1.224251	0.312089	0.394810
O17	O	1.557584	0.645422	0.728143
O18	O	1.890918	0.978755	1.061477
O19	O	1.117123	0.389993	0.197981
O20	O	1.450456	0.723326	0.531314
O21	O	1.783789	1.056659	0.864648
O22	O	1.013439	0.194339	0.303528
O23	O	1.346772	0.527672	0.636862
O24	O	1.680106	0.861006	0.970195
O25	O	1.231567	0.394844	0.312054
O26	O	1.564900	0.728178	0.645387
O27	O	1.898233	1.061511	0.978721
O28	O	1.100151	0.198015	0.389960
O29	O	1.433485	0.531348	0.723293
O30	O	1.766818	0.864682	1.056626
O31	O	1.023095	0.303561	0.194306
O32	O	1.356428	0.636894	0.527639
O33	O	1.689761	0.970227	0.860973
O34	O	0.898927	0.308384	0.308364
O35	O	1.232260	0.641718	0.641697
O36	O	1.565593	0.975051	0.975030
O37	O	1.013319	0.403323	0.512531
O38	O	1.346652	0.736656	0.845865
O39	O	1.679986	1.069990	1.179198
O40	O	0.898875	0.398471	0.398458
O41	O	1.232208	0.731804	0.731792
O42	O	1.565542	1.065138	1.065125
O43	O	1.100083	0.316912	0.508868
O44	O	1.433417	0.650246	0.842201
O45	O	1.766750	0.983579	1.175534
O46	O	1.117055	0.508890	0.316889
O47	O	1.450388	0.842223	0.650222
O48	O	1.783721	1.175557	0.983556
O49	O	1.022975	0.512545	0.403309
O50	O	1.356308	0.845878	0.736642
O51	O	1.689641	1.179211	1.069975
C52	C	0.872198	0.353425	0.353410
C53	C	1.205531	0.686758	0.686743
C54	C	1.538865	1.020092	1.020076
C55	C	0.790399	0.353433	0.353422
C56	C	1.123732	0.686767	0.686755
C57	C	1.457066	1.020100	1.020089
C58	C	0.525340	0.400426	0.400275
C59	C	0.858674	0.733760	0.733609
C60	C	1.192007	1.067093	1.066942
C61	C	0.602199	0.400420	0.400272
C62	C	0.935532	0.733754	0.733605
C63	C	1.268866	1.067087	1.066938
C64	C	0.602211	0.306484	0.306581
C65	C	0.935544	0.639817	0.639914
C66	C	1.268878	0.973151	0.973247
C67	C	0.525354	0.306494	0.306582
C68	C	0.858687	0.639828	0.639915
C69	C	1.192021	0.973161	0.973248
C70	C	0.486920	0.353465	0.353433
C71	C	0.820254	0.686798	0.686766
C72	C	1.153587	1.020131	1.020099
C73	C	0.640636	0.353448	0.353428
C74	C	0.973969	0.686782	0.686762
C75	C	1.307303	1.020115	1.020095
C76	C	0.723970	0.353441	0.353424
C77	C	1.057303	0.686775	0.686757
C78	C	1.390636	1.020108	1.020091
C79	C	0.403582	0.353473	0.353436
C80	C	0.736915	0.686806	0.686770
C81	C	1.070248	1.020139	1.020103
C82	C	1.071107	0.536246	0.361198
C83	C	1.404440	0.869580	0.694531
C84	C	1.737773	1.202913	1.027865
C85	C	1.074468	0.614450	0.364549
C86	C	1.407801	0.947783	0.697882
C87	C	1.741135	1.281116	1.031215
C88	C	1.030945	0.649337	0.321093
C89	C	1.364278	0.982671	0.654427
C90	C	1.697611	1.316004	0.987760
C91	C	1.034110	0.722818	0.324244
C92	C	1.367444	1.056151	0.657578
C93	C	1.700777	1.389484	0.990911
C94	C	1.080796	0.761409	0.370855
C95	C	1.414129	1.094743	0.704188
C96	C	1.747462	1.428076	1.037521
C97	C	1.124324	0.726517	0.414312
C98	C	1.457657	1.059850	0.747645
C99	C	1.790991	1.393183	1.080978
C100	C	1.121162	0.653038	0.411157
C101	C	1.454495	0.986371	0.744490
C102	C	1.787828	1.319704	1.077823
C103	C	1.092603	0.983362	0.382631
C104	C	1.425937	1.316695	0.715964
C105	C	1.759270	1.650028	1.049298
C106	C	1.095761	1.056846	0.385784
C107	C	1.429094	1.390179	0.719118
C108	C	1.762427	1.723513	1.052451
C109	C	1.005548	1.053142	0.295715
C110	C	1.338881	1.386475	0.629049
C111	C	1.672214	1.719809	0.962382
C112	C	1.002386	0.979661	0.292567
C113	C	1.335720	1.312995	0.625901
C114	C	1.669053	1.646328	0.959234
C115	C	1.045917	0.944775	0.336022
C116	C	1.379251	1.278109	0.669355
C117	C	1.712584	1.611442	1.002688
C118	C	1.084031	0.836518	0.374078
C119	C	1.417364	1.169852	0.707412
C120	C	1.750698	1.503185	1.040745
C121	C	1.042686	0.869667	0.332794
C122	C	1.376019	1.203001	0.666128
C123	C	1.709352	1.536334	0.999461
C124	C	1.255358	0.353470	0.353434
C125	C	1.588692	0.686803	0.686767
C126	C	1.922025	1.020136	1.020100
C127	C	1.337157	0.353479	0.353439
C128	C	1.670491	0.686813	0.686772
C129	C	2.003824	1.020146	1.020106
C130	C	1.055583	0.361231	0.536943
C131	C	1.388916	0.694564	0.870277
C132	C	1.722249	1.027897	1.203610
C133	C	1.052249	0.364548	0.615149
C134	C	1.385582	0.697881	0.948483
C135	C	1.718916	1.031214	1.281816
C136	C	1.055650	1.169935	0.345635
C137	C	1.388983	1.503268	0.678968
C138	C	1.722317	1.836602	1.012301
C139	C	1.052237	1.091734	0.342329
C140	C	1.385571	1.425067	0.675662
C141	C	1.718904	1.758400	1.008996
C142	C	1.071237	0.345643	0.170612
C143	C	1.404570	0.678976	0.503945
C144	C	1.737904	1.012310	0.837278
C145	C	1.074705	0.342128	0.092398
C146	C	1.408038	0.675461	0.425731
C147	C	1.741371	1.008795	0.759064
C148	C	1.095854	0.321119	0.649984
C149	C	1.429187	0.654452	0.983318
C150	C	1.762521	0.987785	1.316651
C151	C	1.092713	0.324233	0.723467
C152	C	1.426046	0.657566	1.056800
C153	C	1.759380	0.990899	1.390134
C154	C	1.045970	0.370779	0.762114
C155	C	1.379303	0.704113	1.095447
C156	C	1.712637	1.037446	1.428780
C157	C	1.002360	0.414210	0.727273
C158	C	1.335693	0.747543	1.060607
C159	C	1.669027	1.080877	1.393940
C160	C	1.005498	0.411092	0.653792
C161	C	1.338831	0.744426	0.987125
C162	C	1.672165	1.077759	1.320458
C163	C	1.034232	0.382441	0.984076
C164	C	1.367566	0.715774	1.317409
C165	C	1.700899	1.049108	1.650742
C166	C	1.031100	0.385557	1.057562
C167	C	1.364433	0.718890	1.390896
C168	C	1.697766	1.052224	1.724229
C169	C	1.121452	0.295578	1.053751
C170	C	1.454785	0.628911	1.387084
C171	C	1.788118	0.962245	1.720418
C172	C	1.124589	0.292467	0.980268
C173	C	1.457922	0.625801	1.313602
C174	C	1.791255	0.959134	1.646935
C175	C	1.080976	0.335895	0.945434
C176	C	1.414309	0.669229	1.278768
C177	C	1.747643	1.002562	1.612101
C178	C	1.042760	0.373965	0.837225
C179	C	1.376093	0.707298	1.170558
C180	C	1.709427	1.040632	1.503892
C181	C	1.084183	0.332706	0.870324
C182	C	1.417516	0.666039	1.203658
C183	C	1.750849	0.999372	1.536991
H184	H	0.998670	0.751220	0.288857
H185	H	1.332004	1.084553	0.622190
H186	H	1.665337	1.417886	0.955524
H187	H	0.964371	0.948241	0.254614
H188	H	1.297705	1.281575	0.587947
H189	H	1.631038	1.614908	0.921280
O190	O	0.992334	0.828050	0.282519
O191	O	1.325667	1.161384	0.615852
O192	O	1.659001	1.494717	0.949186
H193	H	0.952084	0.795927	0.312546
H194	H	1.285417	1.129260	0.645879
H195	H	1.618751	1.462593	0.979213
O196	O	1.139747	0.277392	0.761038
O197	O	1.473080	0.610725	1.094372
O198	O	1.806414	0.944058	1.427705
H199	H	1.177076	0.310309	0.795863
H200	H	1.510409	0.643642	1.129197
H201	H	1.843743	0.976976	1.462530
H202	H	0.964298	0.452107	0.758745
H203	H	1.297632	0.785440	1.092078
H204	H	1.630965	1.118774	1.425412
O205	O	1.139571	0.945737	0.429480
O206	O	1.472904	1.279070	0.762813
O207	O	1.806238	1.612404	1.096146
H208	H	1.172566	0.984919	0.462417
H209	H	1.505900	1.318252	0.795750
H210	H	1.839233	1.651586	1.129084
O211	O	0.958457	0.457923	0.616213
O212	O	1.291791	0.791257	0.949547
O213	O	1.625124	1.124590	1.282880
H214	H	0.925427	0.490815	0.655430
H215	H	1.258760	0.824148	0.988764
H216	H	1.592094	1.157482	1.322097
O217	O	0.643664	0.255825	0.256050
O218	O	0.976997	0.589158	0.589383
O219	O	1.310331	0.922491	0.922716
H220	H	0.626055	0.201141	0.265849
H221	H	0.959388	0.534474	0.599183
H222	H	1.292722	0.867807	0.932516
H223	H	1.133920	0.283217	0.618524
H224	H	1.467253	0.616551	0.951857
H225	H	1.800586	0.949884	1.285190
O226	O	0.643640	0.451064	0.450802
O227	O	0.976973	0.784397	0.784135
O228	O	1.310307	1.117731	1.117468
H229	H	0.631737	0.505754	0.441008
H230	H	0.965070	0.839087	0.774341
H231	H	1.298403	1.172421	1.107674
O232	O	0.483906	0.255838	0.256059
O233	O	0.817240	0.589171	0.589392
O234	O	1.150573	0.922505	0.922726
H235	H	0.523541	0.223167	0.223488
H236	H	0.856875	0.556500	0.556821
H237	H	1.190208	0.889834	0.890155
O238	O	0.483888	0.451137	0.450752
O239	O	0.817221	0.784470	0.784085
O240	O	1.150555	1.117803	1.117419
H241	H	0.523521	0.483813	0.483302
H242	H	0.856855	0.817146	0.816635
H243	H	1.190188	1.150479	1.149968
O244	O	0.980669	0.435755	1.099244
O245	O	1.314002	0.769089	1.432577
O246	O	1.647336	1.102422	1.765910
H247	H	0.985820	0.430629	1.156192
H248	H	1.319153	0.763962	1.489525
H249	H	1.652487	1.097295	1.822859
O250	O	0.980596	0.607714	0.270816
O251	O	1.313929	0.941047	0.604149
O252	O	1.647263	1.274380	0.937482
H253	H	0.950871	0.644321	0.241122
H254	H	1.284204	0.977654	0.574455
H255	H	1.617537	1.310987	0.907789
H256	H	0.970108	1.081554	0.260337
H257	H	1.303441	1.414888	0.593670
H258	H	1.636774	1.748221	0.927003
H259	H	1.133767	1.088266	0.423753
H260	H	1.467101	1.421600	0.757087
H261	H	1.800434	1.754933	1.090420
O262	O	1.175007	0.242266	0.938585
O263	O	1.508341	0.575600	1.271918
O264	O	1.841674	0.908933	1.605251
H265	H	1.204800	0.212588	0.975154
H266	H	1.538133	0.545921	1.308487
H267	H	1.871467	0.879254	1.641820
O268	O	1.174673	0.768136	0.464593
O269	O	1.508006	1.101469	0.797926
O270	O	1.841340	1.434802	1.131259
H271	H	1.169553	0.825093	0.459495
H272	H	1.502886	1.158426	0.792828
H273	H	1.836219	1.491759	1.126161
O274	O	1.168108	0.615403	0.458022
O275	O	1.501441	0.948736	0.791355
O276	O	1.834775	1.282070	1.124688
H277	H	1.201101	0.654581	0.490966
H278	H	1.534434	0.987915	0.824299
H279	H	1.867767	1.321248	1.157633
H280	H	1.122041	0.867948	0.412030
H281	H	1.455374	1.201281	0.745363
H282	H	1.788708	1.534615	1.078697
H283	H	0.998731	0.417814	0.955723
H284	H	1.332064	0.751147	1.289057
H285	H	1.665398	1.084480	1.622390
H286	H	1.156958	0.260221	1.082121
H287	H	1.490291	0.593554	1.415454
H288	H	1.823624	0.926887	1.748787
O289	O	1.134604	0.282509	0.828644
O290	O	1.467937	0.615842	1.161977
O291	O	1.801270	0.949176	1.495311
H292	H	1.101594	0.245292	0.793636
H293	H	1.434928	0.578625	1.126969
H294	H	1.768261	0.911958	1.460302
O295	O	0.992343	0.424166	0.878910
O296	O	1.325676	0.757499	1.212243
O297	O	1.659009	1.090833	1.545577
H298	H	1.025356	0.461386	0.913912
H299	H	1.358689	0.794719	1.247246
H300	H	1.692022	1.128053	1.580579
