data_functionalizedCrystal
_audit_creation_method	'MofGen! by Chris Wilmer'
_symmetry_space_group_name_H-M	'P1'
_symmetry_Int_Tables_number	1
_symmetry_cell_setting	triclinic
loop_
_symmetry_equiv_pos_as_xyz
  x,y,z
_cell_length_a	13.032831
_cell_length_b	19.121063
_cell_length_c	13.032268
_cell_angle_alpha	80.752502
_cell_angle_beta	89.113023
_cell_angle_gamma	85.565596
loop_
_atom_site_label
_atom_site_type_symbol
_atom_site_fract_x
_atom_site_fract_y
_atom_site_fract_z
Zn1	Zn	1.465022	-0.473659	0.806576
Zn2	Zn	1.965022	0.026341	1.306576
Zn3	Zn	1.479383	-0.578156	0.640274
Zn4	Zn	1.979383	-0.078156	1.140274
Zn5	Zn	1.316950	-0.444360	0.611224
Zn6	Zn	1.816950	0.055640	1.111224
Zn7	Zn	1.285899	-0.574364	0.790193
Zn8	Zn	1.785899	-0.074364	1.290193
O9	O	1.386814	-0.517635	0.712067
O10	O	1.886814	-0.017635	1.212067
O11	O	1.609870	-0.501370	0.803529
O12	O	2.109870	-0.001370	1.303529
O13	O	1.476841	-0.549733	0.491924
O14	O	1.976841	-0.049733	0.991924
O15	O	1.343577	-0.350107	0.631836
O16	O	1.843577	0.149893	1.131836
O17	O	1.620421	-0.578143	0.681348
O18	O	2.120421	-0.078143	1.181348
O19	O	1.452365	-0.371633	0.775360
O20	O	1.952365	0.128367	1.275360
O21	O	1.357502	-0.451434	0.470581
O22	O	1.857502	0.048566	0.970581
O23	O	1.169889	-0.447756	0.615951
O24	O	1.669889	0.052244	1.115951
O25	O	1.290655	-0.571680	0.936863
O26	O	1.790655	-0.071680	1.436863
O27	O	1.147076	-0.543270	0.747439
O28	O	1.647076	-0.043270	1.247439
O29	O	1.422256	-0.497693	0.948899
O30	O	1.922256	0.002307	1.448899
O31	O	1.446733	-0.675793	0.665463
O32	O	1.946733	-0.175793	1.165463
O33	O	1.304581	-0.673007	0.775608
O34	O	1.804581	-0.173007	1.275608
C35	C	1.121419	-0.491923	0.676766
C36	C	1.621419	0.008077	1.176766
C37	C	1.007877	-0.480942	0.661690
C38	C	1.507877	0.019058	1.161690
C39	C	0.946005	-0.523366	0.719935
C40	C	1.446005	-0.023366	1.219935
C41	C	0.828653	-0.512018	0.704355
C42	C	1.328653	-0.012018	1.204355
C43	C	1.373870	-0.699851	0.721936
C44	C	1.873870	-0.199851	1.221936
C45	C	1.368422	-0.777815	0.726206
C46	C	1.868422	-0.277815	1.226206
C47	C	1.439917	-0.815879	0.670926
C48	C	1.939917	-0.315879	1.170926
C49	C	1.434798	-0.889136	0.674948
C50	C	1.934798	-0.389136	1.174948
C51	C	1.358179	-0.924327	0.734244
C52	C	1.858179	-0.424327	1.234244
C53	C	1.286681	-0.886258	0.789530
C54	C	1.786681	-0.386258	1.289530
C55	C	1.291805	-0.813003	0.785514
C56	C	1.791805	-0.313003	1.285514
C57	C	1.339006	-1.145437	0.749244
C58	C	1.839006	-0.645437	1.249244
C59	C	1.333886	-1.218697	0.753254
C60	C	1.833886	-0.718697	1.253254
C61	C	1.482005	-1.221570	0.638672
C62	C	1.982005	-0.721570	1.138672
C63	C	1.487118	-1.148313	0.634656
C64	C	1.987118	-0.648313	1.134656
C65	C	1.415624	-1.110251	0.689946
C66	C	1.915624	-0.610251	1.189946
C67	C	1.352943	-0.999207	0.738354
C68	C	1.852943	-0.499207	1.238354
C69	C	1.420865	-1.035374	0.685842
C70	C	1.920865	-0.535374	1.185842
C71	C	1.653245	-0.543448	0.747506
C72	C	2.153245	-0.043448	1.247506
C73	C	1.766782	-0.554448	0.762608
C74	C	2.266782	-0.054448	1.262608
C75	C	1.351390	-0.537532	0.981395
C76	C	1.851390	-0.037532	1.481395
C77	C	1.336295	-0.546011	1.096167
C78	C	1.836295	-0.046011	1.596167
C79	C	1.399833	-0.334712	0.702185
C80	C	1.899833	0.165288	1.202185
C81	C	1.405381	-0.256761	0.697974
C82	C	1.905381	0.243239	1.197974
C83	C	1.422162	-0.497771	0.443791
C84	C	1.922162	0.002229	0.943791
C85	C	1.437469	-0.489113	0.329036
C86	C	1.937469	0.010887	0.829036
C87	C	1.394678	-0.513183	1.153291
C88	C	1.894678	-0.013183	1.653291
C89	C	1.379078	-0.521945	1.271914
C90	C	1.879078	-0.021945	1.771914
H91	H	1.502304	-0.787232	0.622636
H92	H	2.002304	-0.287232	1.122636
H93	H	1.274755	-0.580597	1.135080
H94	H	1.774755	-0.080597	1.635080
H95	H	1.317533	-0.556535	1.310822
H96	H	1.817533	-0.056535	1.810822
N97	N	0.965353	-0.424845	0.584646
N98	N	1.465353	0.075155	1.084646
N99	N	0.989376	-0.423494	0.491157
N100	N	1.489376	0.076506	0.991157
H101	H	0.959345	-0.383874	0.436741
H102	H	1.459345	0.116126	0.936741
H103	H	1.290558	-1.027867	0.786631
H104	H	1.790558	-0.527867	1.286631
H105	H	0.979912	-0.568086	0.781340
H106	H	1.479912	-0.068086	1.281340
H107	H	1.499002	-0.454514	1.290127
H108	H	1.999002	0.045486	1.790127
H109	H	1.493016	-0.920125	0.629933
H110	H	1.993016	-0.420125	1.129933
H111	H	0.794751	-0.467290	0.642953
H112	H	1.294751	0.032710	1.142953
H113	H	1.233587	-0.782012	0.830529
H114	H	1.733587	-0.282012	1.330529
H115	H	1.549508	-1.119663	0.586372
H116	H	2.049508	-0.619663	1.086372
N117	N	0.809317	-0.610552	0.839641
N118	N	1.309317	-0.110552	1.339641
N119	N	0.904585	-0.619694	0.852190
N120	N	1.404585	-0.119694	1.352190
H121	H	0.934627	-0.659318	0.906592
H122	H	1.434627	-0.159318	1.406592
N123	N	1.208430	-0.922214	0.850106
N124	N	1.708430	-0.422214	1.350106
N125	N	1.203864	-0.987620	0.853686
N126	N	1.703864	-0.487620	1.353686
H127	H	1.148597	-1.013014	0.896468
H128	H	1.648597	-0.513014	1.396468
N129	N	1.555021	-1.260450	0.582188
N130	N	2.055021	-0.760450	1.082188
N131	N	1.524928	-1.293025	0.513827
N132	N	2.024928	-0.793025	1.013827
H133	H	1.576498	-1.320485	0.473933
H134	H	2.076498	-0.820485	0.973933
N135	N	1.255603	-1.254632	0.813823
N136	N	1.755603	-0.754632	1.313823
N137	N	1.191771	-1.220640	0.863178
N138	N	1.691771	-0.720640	1.363178
H139	H	1.136483	-1.246018	0.905949
H140	H	1.636483	-0.746018	1.405949
N141	N	1.265971	-1.106575	0.805725
N142	N	1.765971	-0.606575	1.305725
N143	N	1.197566	-1.138006	0.858660
N144	N	1.697566	-0.638006	1.358660
H145	H	1.145979	-1.110557	0.898553
H146	H	1.645979	-0.610557	1.398553
H147	H	1.483252	-1.006720	0.637567
H148	H	1.983252	-0.506720	1.137567
H149	H	1.456208	-0.478588	1.114376
H150	H	1.956208	0.021412	1.614376
