data_functionalizedCrystal
_audit_creation_method	'MofGen! by Chris Wilmer'
_symmetry_space_group_name_H-M	'P1'
_symmetry_Int_Tables_number	1
_symmetry_cell_setting	triclinic
loop_
_symmetry_equiv_pos_as_xyz
  x,y,z
_cell_length_a	10.967819
_cell_length_b	9.482944
_cell_length_c	10.967953
_cell_angle_alpha	88.380820
_cell_angle_beta	87.248599
_cell_angle_gamma	112.345149
loop_
_atom_site_label
_atom_site_type_symbol
_atom_site_fract_x
_atom_site_fract_y
_atom_site_fract_z
O1	O	1.728857	0.492325	0.246304
O2	O	1.351845	0.397128	0.249273
O3	O	1.555659	0.492320	0.073104
O4	O	1.525043	0.397133	0.422474
O5	O	1.520450	0.250476	0.038099
O6	O	1.316636	0.155284	0.214269
O7	O	1.693649	0.250481	0.211299
Cu8	Cu	1.501927	0.180800	0.209588
Cu9	Cu	1.543566	0.466809	0.250985
O10	O	1.489835	0.155288	0.387469
C11	C	1.286089	0.264860	0.228909
C12	C	1.142613	0.231055	0.220367
N13	N	1.472651	-0.020361	0.180471
C14	C	0.948605	0.306352	0.225879
C15	C	1.096895	0.341285	0.234698
C16	C	1.534921	-0.092472	0.242396
C17	C	1.510573	-0.259918	0.218159
C18	C	1.759405	0.382752	0.231664
C19	C	1.902882	0.416566	0.240208
C20	C	1.538488	0.382747	0.010745
C21	C	1.539764	0.416557	-0.122914
N22	N	1.572853	0.667974	0.280092
C23	C	1.523403	0.341273	-0.338784
C24	C	1.522089	0.306333	-0.200640
C25	C	1.507006	0.264865	0.449828
C26	C	1.505731	0.231064	0.583489
H27	H	1.167529	0.461510	0.253503
C28	C	1.048245	0.070859	0.195236
C29	C	0.919932	0.068068	0.191434
C30	C	0.832971	-0.079468	0.168265
H31	H	1.050348	0.001270	0.258337
H32	H	1.074184	0.042272	0.118977
H33	H	0.894000	0.096636	0.267683
H34	H	0.917787	0.137625	0.128333
H35	H	0.858910	-0.108056	0.092006
H36	H	0.835086	-0.149045	0.231369
H37	H	0.745904	-0.081379	0.165671
C38	C	0.997176	0.576747	0.265455
C39	C	1.058203	0.572424	0.373952
C40	C	1.145084	0.719953	0.397241
H41	H	0.949417	0.641505	0.273389
H42	H	1.062494	0.614989	0.199722
H43	H	0.992895	0.534204	0.439670
H44	H	1.105986	0.507696	0.366045
H45	H	1.210402	0.758195	0.331508
H46	H	1.097316	0.784699	0.405170
H47	H	1.186511	0.717038	0.470851
C48	C	1.629924	-0.009772	0.337184
C49	C	1.585804	-0.086438	0.451608
C50	C	1.673298	-0.010314	0.538955
H51	H	1.633718	0.091743	0.341064
H52	H	1.715415	-0.007668	0.314946
H53	H	1.500337	-0.088525	0.473841
H54	H	1.582018	-0.187948	0.447768
H55	H	1.758788	-0.008211	0.516716
H56	H	1.677085	0.091198	0.542823
H57	H	1.643382	-0.062329	0.616598
C58	C	1.377527	-0.103602	0.085945
C59	C	1.372028	-0.253256	0.080922
C60	C	1.284399	-0.329983	-0.006131
H61	H	1.407275	-0.052114	0.008106
H62	H	1.292050	-0.105644	0.108157
H63	H	1.457487	-0.251206	0.058703
H64	H	1.342265	-0.304785	0.158739
H65	H	1.198922	-0.332026	0.016081
H66	H	1.314155	-0.278483	-0.083964
H67	H	1.280647	-0.431535	-0.009544
H68	H	1.439235	-0.322138	0.147193
C69	C	1.500649	0.145935	-0.153267
C70	C	1.484626	0.051039	-0.251749
C71	C	1.464885	-0.096722	-0.208156
H72	H	1.423767	0.107514	-0.099144
H73	H	1.575031	0.148496	-0.111028
H74	H	1.410251	0.048472	-0.293969
H75	H	1.561496	0.089411	-0.305882
H76	H	1.539267	-0.094162	-0.165917
H77	H	1.388004	-0.135128	-0.154032
H78	H	1.454023	-0.161124	-0.274969
H79	H	0.877966	0.186131	0.207088
C80	C	1.544585	0.501465	-0.386476
C81	C	1.434788	0.497114	-0.448699
C82	C	1.454238	0.644654	-0.492641
H83	H	1.621386	0.539833	-0.440704
H84	H	1.555435	0.566132	-0.319837
H85	H	1.423952	0.432471	-0.515330
H86	H	1.357973	0.458775	-0.394497
H87	H	1.465089	0.709321	-0.426002
H88	H	1.531042	0.683010	-0.546864
H89	H	1.379740	0.641724	-0.534855
H90	H	1.644198	-0.269804	0.351053
H91	H	1.555873	0.536788	-0.158633
H92	H	1.489636	0.110846	-0.380786
