data_functionalizedCrystal
_audit_creation_method	'MofGen! by Chris Wilmer'
_symmetry_space_group_name_H-M	'P1'
_symmetry_Int_Tables_number	1
_symmetry_cell_setting	triclinic
loop_
_symmetry_equiv_pos_as_xyz
  x,y,z
_cell_length_a	31.640172
_cell_length_b	27.440280
_cell_length_c	27.440280
_cell_angle_alpha	59.998298
_cell_angle_beta	89.998503
_cell_angle_gamma	59.999776
loop_
_atom_site_label
_atom_site_type_symbol
_atom_site_fract_x
_atom_site_fract_y
_atom_site_fract_z
Zr1	Zr	0.407231	0.533346	-0.063968
O2	O	0.339747	0.635021	-0.141781
O3	O	0.427911	0.431680	-0.040115
O4	O	0.427913	0.533349	-0.141786
O5	O	0.339751	0.533347	0.040091
O6	O	0.497470	0.533341	-0.141790
O7	O	0.339744	0.533352	-0.040110
O8	O	0.497465	0.351474	0.040082
O9	O	0.339756	0.715213	-0.141780
O10	O	0.488649	0.473487	-0.029944
O11	O	0.436745	0.473489	0.029912
O12	O	0.436748	0.593191	-0.089793
O13	O	0.384844	0.593193	-0.029937
Zr14	Zr	0.518177	0.533324	0.063938
Zr15	Zr	0.518165	0.533333	-0.063973
Zr16	Zr	0.407242	0.533337	0.063943
Zr17	Zr	0.407246	0.661244	-0.063967
Zr18	Zr	0.518162	0.405426	0.063936
O19	O	0.497497	0.634990	0.040085
O20	O	0.497481	0.635002	-0.141788
O21	O	0.339763	0.635008	0.040092
O22	O	0.585661	0.431649	0.141751
O23	O	0.585645	0.431662	-0.040122
O24	O	0.427927	0.431667	0.141758
O25	O	0.585656	0.533323	-0.040121
O26	O	0.497494	0.533321	0.141756
O27	O	0.427938	0.533329	0.141759
O28	O	0.585663	0.533318	0.040080
O29	O	0.427934	0.715203	-0.141784
O30	O	0.497474	0.351467	0.141754
O31	O	0.585652	0.351456	0.141750
O32	O	0.585643	0.351463	0.040077
O33	O	0.339765	0.715206	-0.040108
O34	O	0.427943	0.715196	-0.040112
O35	O	0.488660	0.473479	0.089762
O36	O	0.540563	0.473477	0.029907
O37	O	0.488663	0.593181	-0.029942
O38	O	0.436759	0.593183	0.029913
C39	C	0.462686	0.373354	-0.000017
C40	C	0.462680	0.319058	-0.000018
C41	C	0.489812	-0.017685	-0.031254
C42	C	0.489816	-0.068708	-0.031252
O43	O	0.512874	-0.095115	-0.057806
N44	N	0.462723	-0.094224	-0.000010
C45	C	0.435627	-0.068717	0.031239
O46	O	0.412582	-0.095105	0.057814
C47	C	0.435625	-0.017698	0.031240
C48	C	0.462717	0.007820	-0.000010
C49	C	0.516901	0.007832	-0.062500
C50	C	0.516895	0.058854	-0.062503
C51	C	0.489800	0.084358	-0.031259
C52	C	0.462711	0.058841	-0.000012
C53	C	0.408533	0.007804	0.062491
C54	C	0.408534	0.058827	0.062490
C55	C	0.435625	0.084344	0.031241
C56	C	0.435610	0.135367	0.031230
N57	N	0.462704	0.160882	-0.000013
C58	C	0.489799	0.135378	-0.031257
C59	C	0.435632	-0.175862	0.031234
C60	C	0.435630	-0.226877	0.031229
C61	C	0.489821	-0.226866	-0.031261
C62	C	0.489820	-0.175847	-0.031259
C63	C	0.462726	-0.150347	-0.000009
C64	C	0.489785	0.242526	-0.031260
C65	C	0.489775	0.293554	-0.031262
C66	C	0.435587	0.293536	0.031230
C67	C	0.435594	0.242515	0.031230
C68	C	0.462697	0.217010	-0.000017
O69	O	0.412566	0.161804	0.057772
O70	O	0.512845	0.161766	-0.057821
C71	C	0.323942	0.533351	-0.000009
C72	C	0.276848	0.533357	-0.000007
C73	C	-0.015162	0.533326	-0.044197
C74	C	-0.192148	0.533317	-0.044202
O75	O	-0.215024	0.533289	-0.081763
N76	N	-0.214275	0.533315	-0.000019
C77	C	-0.192150	0.533311	0.044170
O78	O	-0.215029	0.533302	0.081754
C79	C	-0.015163	0.533315	0.044177
C80	C	0.006959	0.533324	-0.000012
C81	C	0.006960	0.533333	-0.088382
C82	C	0.051203	0.533339	-0.088383
C83	C	0.073323	0.533337	-0.044198
C84	C	0.051201	0.533329	-0.000013
C85	C	0.006963	0.533306	0.088368
C86	C	0.051214	0.533305	0.088366
C87	C	0.073335	0.533314	0.044177
C88	C	0.117564	0.533333	0.044172
N89	N	0.139691	0.533335	-0.000011
C90	C	0.117570	0.533337	-0.044196
C91	C	-0.285072	0.533311	0.044163
C92	C	-0.329319	0.533311	0.044161
C93	C	-0.329313	0.533315	-0.044210
C94	C	-0.285067	0.533320	-0.044210
C95	C	-0.262945	0.533312	-0.000020
C96	C	0.210482	0.533350	-0.044194
C97	C	0.254727	0.533359	-0.044191
C98	C	0.254719	0.533351	0.044182
C99	C	0.210476	0.533346	0.044178
C100	C	0.188360	0.533343	-0.000012
O101	O	0.140471	0.533354	0.081718
O102	O	0.140463	0.533331	-0.081766
C103	C	-0.059404	0.533320	-0.044197
C104	C	-0.081526	0.533312	-0.000012
C105	C	-0.059405	0.533310	0.044173
C106	C	-0.125773	0.533312	-0.000014
C107	C	-0.147894	0.533314	-0.044199
C108	C	-0.125767	0.533316	-0.088381
C109	C	-0.081524	0.533322	-0.088382
C110	C	-0.081532	0.533308	0.088356
C111	C	-0.125775	0.533303	0.088352
C112	C	-0.147895	0.533305	0.044167
C113	C	0.601466	0.533318	-0.000022
C114	C	0.648560	0.533313	-0.000024
C115	C	0.462690	0.533346	-0.160013
C116	C	0.462685	0.533350	-0.214314
C117	C	0.462722	0.693315	-0.000013
C118	C	0.462728	0.747611	-0.000013
C119	C	0.424382	0.533330	-0.449000
C120	C	0.424380	0.533331	-0.397980
O121	O	0.391801	0.533312	-0.371578
N122	N	0.462697	0.533332	-0.372469
C123	C	0.501022	0.533324	-0.397976
O124	O	0.533614	0.533324	-0.371592
C125	C	0.501026	0.533318	-0.448992
C126	C	0.462703	0.533324	-0.474505
C127	C	0.386063	0.533336	-0.474512
C128	C	0.386065	0.533335	-0.525528
C129	C	0.424386	0.533329	-0.551033
C130	C	0.462705	0.533324	-0.525521
C131	C	0.539353	0.533305	-0.474496
C132	C	0.539354	0.533298	-0.525516
C133	C	0.501031	0.533304	-0.551028
C134	C	0.501029	0.533318	-0.602043
N135	N	0.462712	0.533317	-0.627554
C136	C	0.424390	0.533323	-0.602049
C137	C	0.501011	0.533336	-0.290838
C138	C	0.501005	0.533348	-0.239825
C139	C	0.424363	0.533354	-0.239832
C140	C	0.424367	0.533347	-0.290848
C141	C	0.462694	0.533336	-0.316349
C142	C	0.424397	0.533323	-0.709189
C143	C	0.424401	0.533326	-0.760211
C144	C	0.501045	0.533316	-0.760198
C145	C	0.501039	0.533317	-0.709182
C146	C	0.462713	0.533318	-0.683677
O147	O	0.533592	0.533334	-0.628476
O148	O	0.391808	0.533314	-0.628436
C149	C	0.462718	0.533324	0.159982
C150	C	0.462723	0.533320	0.214284
C151	C	0.601448	0.373338	-0.000023
C152	C	0.648536	0.319036	-0.000026
C153	C	0.462700	0.373343	0.159980
C154	C	0.462699	0.319043	0.214281
C155	C	0.601462	0.373327	0.159974
C156	C	0.648555	0.319021	0.214273
C157	C	0.323946	0.693343	-0.160004
C158	C	0.276853	0.747648	-0.214303
C159	C	0.323960	0.693332	-0.000007
C160	C	0.276872	0.747633	-0.000004
C161	C	0.462708	0.693327	-0.160011
C162	C	0.462709	0.747626	-0.214312
C163	C	0.643551	0.293541	-0.031274
C164	C	0.687791	0.242526	-0.031289
C165	C	0.737016	0.217004	-0.000052
C166	C	0.742001	0.242504	0.031197
C167	C	0.697761	0.293522	0.031208
C168	C	0.489797	0.293538	0.271028
C169	C	0.489793	0.242525	0.322055
C170	C	0.462695	0.217014	0.316333
C171	C	0.435594	0.242525	0.259580
C172	C	0.435594	0.293540	0.208555
C173	C	0.697768	0.293518	0.208528
C174	C	0.742021	0.242500	0.259543
C175	C	0.737060	0.216982	0.316301
C176	C	0.687842	0.242490	0.322045
C177	C	0.643590	0.293511	0.271031
C178	C	0.227640	0.773158	-0.208558
C179	C	0.183387	0.824192	-0.259573
C180	C	0.188348	0.849713	-0.316332
C181	C	0.237566	0.824201	-0.322075
C182	C	0.281818	0.773171	-0.271061
C183	C	0.281857	0.773134	0.031239
C184	C	0.237617	0.824163	0.031239
C185	C	0.188392	0.849687	0.000000
C186	C	0.183407	0.824184	-0.031247
C187	C	0.227647	0.773160	-0.031250
C188	C	0.489813	0.773121	-0.208571
C189	C	0.489824	0.824134	-0.259587
C190	C	0.462729	0.849656	-0.316344
C191	C	0.435624	0.824157	-0.322084
C192	C	0.435616	0.773140	-0.271068
H193	H	0.511855	0.221765	-0.056703
H194	H	0.152373	0.891235	0.000008
H195	H	0.413543	0.752388	-0.275751
H196	H	-0.011042	0.533298	0.124351
C197	C	0.139668	0.905835	-0.372442
H198	H	0.109649	0.917362	-0.360886
H199	H	0.139658	0.945647	-0.395530
H200	H	0.139659	0.889107	-0.395519
C201	C	0.796150	0.214419	0.065561
H202	H	0.821779	0.180378	0.061082
H203	H	0.800045	0.251034	0.050142
H204	H	0.800035	0.194502	0.106669
C205	C	0.519611	0.214467	0.384475
H206	H	0.535757	0.236961	0.380570
H207	H	0.496232	0.222833	0.405684
H208	H	0.545251	0.166295	0.405676
H209	H	0.462699	0.175474	0.357886
C210	C	0.519635	-0.254938	-0.065618
H211	H	0.515760	-0.288985	-0.061134
H212	H	0.506261	-0.218319	-0.106723
H213	H	0.555283	-0.274846	-0.050180
C214	C	0.589409	0.321610	-0.065642
H215	H	0.592783	0.299120	-0.084257
H216	H	0.571019	0.313249	-0.038678
H217	H	0.571026	0.369783	-0.095207
H218	H	0.413563	0.844944	-0.368303
H219	H	0.683722	0.221770	-0.056736
C220	C	0.129258	0.852261	-0.065602
H221	H	0.103629	0.886295	-0.061115
H222	H	0.125365	0.872170	-0.106707
H223	H	0.125371	0.815635	-0.050164
C224	C	0.243017	0.852272	-0.384511
H225	H	0.209611	0.886310	-0.414066
H226	H	0.261405	0.872175	-0.388999
H227	H	0.261391	0.815645	-0.388992
C228	C	0.703236	0.321581	0.146100
H229	H	0.738886	0.299084	0.149994
H230	H	0.687101	0.313221	0.124896
H231	H	0.687102	0.369752	0.124901
C232	C	0.405791	0.321590	0.065604
H233	H	0.409677	0.355624	0.061132
H234	H	0.370144	0.341492	0.050187
H235	H	0.419184	0.284953	0.106709
C236	C	0.279062	0.533365	-0.092798
H237	H	0.308579	0.533374	-0.086476
H238	H	0.289146	0.493392	-0.090967
H239	H	0.254473	0.573344	-0.130941
H240	H	0.773035	0.175462	-0.000065
C241	C	0.703249	0.321563	0.065583
H242	H	0.669854	0.355607	0.061115
H243	H	0.721639	0.284929	0.106683
H244	H	0.721635	0.341466	0.050146
H245	H	0.511878	0.752349	-0.162361
H246	H	0.413531	0.221746	0.254930
C247	C	0.222175	0.745095	-0.146129
H248	H	0.255575	0.711045	-0.116564
H249	H	0.203797	0.781722	-0.141653
H250	H	0.203784	0.725196	-0.141655
H251	H	0.413529	0.314300	0.162351
C252	C	0.543199	0.533303	-0.788254
H253	H	0.566022	0.533303	-0.765758
H254	H	0.562119	0.493326	-0.788166
H255	H	0.527461	0.573278	-0.828148
H256	H	0.511864	0.314303	0.275699
C257	C	0.405830	-0.254941	0.065603
H258	H	0.389698	-0.232444	0.084214
H259	H	0.380190	-0.246586	0.038645
H260	H	0.429225	-0.303111	0.095173
C261	C	0.796155	0.214443	0.253214
H262	H	0.792768	0.236941	0.212104
H263	H	0.814551	0.222804	0.271809
H264	H	0.814539	0.166272	0.271818
C265	C	0.785740	0.160855	0.372411
H266	H	0.815759	0.149319	0.360856
H267	H	0.785754	0.177567	0.395498
H268	H	0.785745	0.121042	0.395491
C269	C	0.075542	0.533305	0.136973
H270	H	0.056025	0.533306	0.163284
H271	H	0.110138	0.493335	0.158798
H272	H	0.075461	0.573288	0.118820
C273	C	0.222157	0.745106	-0.065611
H274	H	0.186503	0.767613	-0.084207
H275	H	0.238288	0.753460	-0.095180
H276	H	0.238283	0.696936	-0.038638
C277	C	0.335950	0.745108	-0.277388
H278	H	0.332562	0.767613	-0.318498
H279	H	0.354352	0.753456	-0.258786
H280	H	0.354329	0.696938	-0.258792
C281	C	0.336000	0.745067	0.065601
H282	H	0.361639	0.711021	0.061133
H283	H	0.339884	0.781693	0.050169
H284	H	0.339883	0.725162	0.106707
H285	H	0.603519	0.314270	0.275717
C286	C	0.543167	0.533336	-0.318891
H287	H	0.565982	0.533343	-0.296391
H288	H	0.562098	0.493362	-0.318805
H289	H	0.527427	0.573314	-0.358784
H290	H	0.683810	0.221706	0.368265
H291	H	0.393162	0.533352	-0.311617
C292	C	0.129253	0.852240	-0.253245
H293	H	0.132640	0.829721	-0.212134
H294	H	0.110865	0.900406	-0.271838
H295	H	0.110861	0.843881	-0.271850
H296	H	0.241686	0.844919	0.056686
C297	C	0.519634	0.852182	-0.253263
H298	H	0.535760	0.829683	-0.212153
H299	H	0.545279	0.843817	-0.271859
H300	H	0.496246	0.900354	-0.271866
C301	C	-0.150103	0.533317	-0.136984
H302	H	-0.130595	0.533325	-0.163305
H303	H	-0.150028	0.493342	-0.118831
H304	H	-0.184699	0.573295	-0.158807
C305	C	0.519578	0.321621	-0.065635
H306	H	0.515692	0.355666	-0.061168
H307	H	0.555224	0.284996	-0.050208
H308	H	0.506193	0.341527	-0.106740
C309	C	0.546702	0.086910	-0.096871
H310	H	0.562842	0.064402	-0.115471
H311	H	0.523319	0.135078	-0.126438
H312	H	0.572346	0.078540	-0.069900
C313	C	0.462737	0.905778	-0.372457
H314	H	0.482757	0.917308	-0.360903
H315	H	0.477240	0.889064	-0.395544
H316	H	0.428216	0.945594	-0.395534
C317	C	0.581512	0.533289	-0.446440
H318	H	0.604336	0.533275	-0.468938
H319	H	0.565783	0.573261	-0.446523
H320	H	0.600438	0.493309	-0.406548
H321	H	0.511880	-0.155074	-0.056705
C322	C	0.546705	-0.020211	-0.096876
H323	H	0.562832	0.002304	-0.115486
H324	H	0.572349	-0.068379	-0.069919
H325	H	0.523313	-0.011838	-0.126446
H326	H	0.413564	-0.155099	0.056678
H327	H	0.386473	-0.012964	0.087939
H328	H	0.413528	0.221746	0.056668
C329	C	0.378728	0.086877	0.096863
H330	H	0.362592	0.064373	0.115468
H331	H	0.402111	0.078519	0.126427
H332	H	0.353081	0.135047	0.069893
H333	H	0.192481	0.533347	-0.080177
H334	H	0.069213	0.533344	-0.124364
C335	C	0.279059	0.533343	0.092784
H336	H	0.308581	0.533339	0.086455
H337	H	0.254479	0.573311	0.090961
H338	H	0.289147	0.493359	0.130924
C339	C	-0.017368	0.533341	-0.136993
H340	H	0.002148	0.533351	-0.163306
H341	H	-0.017299	0.493371	-0.118855
H342	H	-0.051963	0.573323	-0.158821
H343	H	-0.347332	0.533318	-0.080188
C344	C	-0.353652	0.533309	0.092765
H345	H	-0.334133	0.533301	0.119081
H346	H	-0.388246	0.573281	0.074620
H347	H	-0.353574	0.493328	0.114591
C348	C	-0.260733	0.533320	-0.092813
H349	H	-0.280247	0.533316	-0.119123
H350	H	-0.260802	0.573290	-0.114638
H351	H	-0.226139	0.493338	-0.074659
H352	H	-0.267063	0.533305	0.080150
H353	H	0.532241	0.533322	-0.688414
H354	H	-0.063516	0.533329	-0.124365
C355	C	0.186136	0.533348	0.092778
H356	H	0.205649	0.533348	0.119093
H357	H	0.151540	0.573319	0.074629
H358	H	0.186216	0.493366	0.114607
H359	H	-0.063525	0.533305	0.124337
C360	C	-0.150107	0.533296	0.136961
H361	H	-0.179628	0.533297	0.130636
H362	H	-0.125518	0.493321	0.175100
H363	H	-0.160193	0.573274	0.135127
C364	C	0.382250	0.533322	-0.788266
H365	H	0.359432	0.533315	-0.765762
H366	H	0.363321	0.573292	-0.828158
H367	H	0.397996	0.493340	-0.788174
H368	H	0.393189	0.533323	-0.688428
H369	H	0.354857	0.533338	-0.453749
C370	C	0.343909	0.533345	-0.553587
H371	H	0.321090	0.533345	-0.531082
H372	H	0.324983	0.573319	-0.593477
H373	H	0.359645	0.493367	-0.553499
H374	H	0.393161	0.533357	-0.219056
H375	H	0.532206	0.533353	-0.219062
H376	H	0.570566	0.533286	-0.546275
