data_functionalizedCrystal
_audit_creation_method	'MofGen! by Chris Wilmer'
_symmetry_space_group_name_H-M	'P1'
_symmetry_Int_Tables_number	1
_symmetry_cell_setting	triclinic
loop_
_symmetry_equiv_pos_as_xyz
  x,y,z
_cell_length_a	12.811457
_cell_length_b	17.019294
_cell_length_c	11.892095
_cell_angle_alpha	90.016651
_cell_angle_beta	91.498327
_cell_angle_gamma	84.088711
loop_
_atom_site_label
_atom_site_type_symbol
_atom_site_fract_x
_atom_site_fract_y
_atom_site_fract_z
O1	O	1.389788	0.108268	0.037936
O2	O	1.086481	0.118111	0.005881
O3	O	1.245809	-0.000980	0.033814
O4	O	1.230460	0.227358	0.010003
O5	O	1.232524	0.008934	0.219494
O6	O	1.073197	0.128025	0.191561
O7	O	1.376504	0.118182	0.223616
Zn8	Zn	1.222741	0.124677	0.237069
Zn9	Zn	1.240244	0.111615	-0.007572
O10	O	1.217176	0.237272	0.195683
C11	C	1.041015	0.122212	0.094824
C12	C	0.925331	0.119654	0.083213
C13	C	0.693465	0.125642	0.263847
C14	C	0.584770	0.123238	0.252943
C15	C	0.599243	0.112438	0.050503
C16	C	0.707939	0.114841	0.061407
C17	C	0.755045	0.121445	0.168082
C18	C	0.863742	0.123854	0.178985
C19	C	0.878214	0.113048	-0.023454
C20	C	0.769519	0.110644	-0.034358
C21	C	1.238323	-0.025267	0.129413
C22	C	1.235796	-0.112405	0.137633
C23	C	1.241852	-0.158742	0.040282
C24	C	1.239471	-0.240616	0.048008
C25	C	1.231040	-0.276152	0.153088
C26	C	1.224980	-0.229809	0.250446
C27	C	1.227354	-0.147935	0.242718
C28	C	1.223503	-0.523087	0.181484
C29	C	1.221133	-0.604967	0.189206
C30	C	1.235622	-0.615768	-0.013234
C31	C	1.238001	-0.533893	-0.020952
C32	C	1.231936	-0.487556	0.076406
C33	C	1.228609	-0.359841	0.160988
C34	C	1.234359	-0.403868	0.068504
C35	C	1.421970	0.114080	0.134670
C36	C	1.537654	0.116638	0.146274
C37	C	1.224662	0.261559	0.100081
C38	C	1.227190	0.348696	0.091854
N39	N	1.210803	0.133591	0.404031
N40	N	1.252190	0.102695	-0.174533
C41	C	1.335257	0.040621	0.662493
C42	C	1.326920	0.046857	0.779372
C43	C	1.185789	0.152297	0.754673
C44	C	1.194125	0.146061	0.637793
C45	C	1.268863	0.090221	0.591708
C46	C	1.277204	0.083989	0.474826
C47	C	1.136068	0.189424	0.450128
C48	C	1.127731	0.195661	0.567008
H49	H	0.731150	0.105264	-0.121210
H50	H	1.338062	0.038524	0.437305
O51	O	1.216741	-0.264196	0.352604
C52	C	1.211929	-0.205740	0.436875
H53	H	1.182791	-0.146001	0.398026
H54	H	1.155650	-0.221077	0.504277
H55	H	1.293454	-0.202871	0.476466
H56	H	1.222408	-0.110207	0.321990
O57	O	1.242393	-0.369254	-0.033526
C58	C	1.154038	-0.314140	-0.054087
H59	H	1.118060	-0.294485	0.029295
H60	H	1.179034	-0.260672	-0.100108
H61	H	1.093578	-0.342693	-0.108076
H62	H	0.928364	0.109635	-0.101433
H63	H	0.731818	0.131029	0.350705
H64	H	0.560872	0.107048	-0.036346
H65	H	1.248723	-0.129815	-0.045285
H66	H	1.221749	-0.388785	0.246545
H67	H	0.534634	0.126660	0.330924
H68	H	1.214262	-0.633897	0.274778
O69	O	1.407883	-0.013681	0.617902
C70	C	1.464722	-0.056106	0.705445
H71	H	1.416057	-0.052941	0.784517
H72	H	1.482695	-0.120436	0.679351
H73	H	1.541375	-0.029250	0.723255
H74	H	1.066878	0.241123	0.604544
O75	O	1.391269	-0.001399	0.848178
C76	C	1.330379	-0.046700	0.914835
H77	H	1.250710	-0.050654	0.871409
H78	H	1.372458	-0.108620	0.926512
H79	H	1.318733	-0.017461	1.000484
H80	H	1.244407	-0.278341	-0.031266
H81	H	1.124932	0.197755	0.792211
O82	O	1.245948	-0.499454	-0.123124
C83	C	1.159608	-0.514743	-0.192740
H84	H	1.091760	-0.528389	-0.138310
H85	H	1.134143	-0.460685	-0.247187
H86	H	1.183102	-0.567516	-0.249017
O87	O	0.909481	0.130126	0.282644
C88	C	0.889928	0.065009	0.349330
H89	H	0.872274	0.013788	0.292534
H90	H	0.961965	0.046271	0.405021
H91	H	0.819738	0.082312	0.404356
O92	O	1.241308	-0.660803	-0.107784
C93	C	1.150234	-0.700396	-0.119365
H94	H	1.083846	-0.666987	-0.071263
H95	H	1.126345	-0.703391	-0.212162
H96	H	1.166866	-0.762823	-0.084038
O97	O	1.071624	0.237530	0.381204
C98	C	1.095030	0.220073	0.268160
H99	H	1.134764	0.157180	0.262178
H100	H	1.019340	0.225726	0.214886
H101	H	1.149908	0.263196	0.236004
O102	O	1.217680	-0.478205	0.276174
C103	C	1.209723	-0.527130	0.370571
H104	H	1.243085	-0.590038	0.350053
H105	H	1.255902	-0.504248	0.444741
H106	H	1.123751	-0.526665	0.393253
