data_functionalizedCrystal
_audit_creation_method	'MofGen! by Chris Wilmer'
_symmetry_space_group_name_H-M	'P1'
_symmetry_Int_Tables_number	1
_symmetry_cell_setting	triclinic
loop_
_symmetry_equiv_pos_as_xyz
  x,y,z
_cell_length_a	14.971486
_cell_length_b	22.010155
_cell_length_c	14.971486
_cell_angle_alpha	89.995312
_cell_angle_beta	96.385871
_cell_angle_gamma	90.010751
loop_
_atom_site_label
_atom_site_type_symbol
_atom_site_fract_x
_atom_site_fract_y
_atom_site_fract_z
O1	O	1.186959	0.050456	-0.116561
O2	O	0.926559	0.050472	-0.130519
O3	O	1.063739	0.050459	0.006660
O4	O	1.049780	0.050469	-0.253740
O5	O	1.063697	-0.050591	0.006660
O6	O	0.926518	-0.050578	-0.130519
O7	O	1.186918	-0.050595	-0.116560
Cu8	Cu	1.056714	-0.059813	-0.123540
Cu9	Cu	1.056763	0.059691	-0.123540
O10	O	1.049739	-0.050582	-0.253740
C11	C	0.893214	-0.000051	-0.129895
C12	C	0.793917	-0.000045	-0.128024
N13	N	1.056686	-0.143866	-0.123539
C14	C	0.736691	-0.000043	-0.208614
C15	C	0.643392	-0.000052	-0.206850
C16	C	0.607320	-0.000059	-0.124497
C17	C	0.664552	-0.000063	-0.043902
C18	C	0.757850	-0.000058	-0.045666
C19	C	0.470090	-0.000071	-0.040231
C20	C	0.376786	-0.000075	-0.038466
C21	C	0.355632	-0.000065	-0.201415
C22	C	0.448930	-0.000060	-0.203179
C23	C	0.506156	-0.000063	-0.122584
C24	C	1.111069	-0.563647	-0.177870
C25	C	1.111080	-0.627254	-0.177867
O26	O	1.157286	-0.660147	-0.224055
N27	N	1.056781	-0.659073	-0.123530
C28	C	1.002474	-0.627280	-0.069184
O29	O	0.956290	-0.660185	-0.022965
C30	C	1.002469	-0.563674	-0.069182
C31	C	1.056765	-0.531859	-0.123530
C32	C	1.165362	-0.531831	-0.232212
C33	C	1.165350	-0.468228	-0.232216
C34	C	1.111045	-0.436440	-0.177876
C35	C	1.056753	-0.468256	-0.123533
C36	C	0.948168	-0.531883	-0.014832
C37	C	0.948168	-0.468272	-0.014835
C38	C	1.002464	-0.436457	-0.069182
C39	C	1.002437	-0.372864	-0.069197
N40	N	1.056736	-0.341046	-0.123535
C41	C	1.111040	-0.372834	-0.177874
C42	C	1.002490	-0.760858	-0.069191
C43	C	1.002490	-0.824463	-0.069197
C44	C	1.111097	-0.824433	-0.177880
C45	C	1.111092	-0.760827	-0.177878
C46	C	1.056789	-0.729040	-0.123529
C47	C	1.111010	-0.239262	-0.177877
C48	C	1.110991	-0.175654	-0.177879
C49	C	1.002387	-0.175690	-0.069193
C50	C	1.002403	-0.239293	-0.069195
C51	C	1.056722	-0.271078	-0.123540
O52	O	0.956257	-0.339931	-0.023030
O53	O	1.157226	-0.339921	-0.224077
C54	C	1.220263	-0.000070	-0.117185
C55	C	1.319561	-0.000073	-0.119056
C56	C	1.063094	-0.000066	0.039985
C57	C	1.061223	-0.000065	0.139282
N58	N	1.056798	0.143743	-0.123534
C59	C	1.050383	-0.000055	-0.287065
C60	C	1.052254	-0.000052	-0.386362
C61	C	1.141812	-0.000071	0.196507
C62	C	1.140049	-0.000065	0.289807
C63	C	1.057696	-0.000057	0.325879
C64	C	0.977101	-0.000050	0.268646
C65	C	0.978865	-0.000052	0.175349
C66	C	0.973430	-0.000047	0.463109
C67	C	0.971665	-0.000047	0.556413
C68	C	1.134614	-0.000060	0.577567
C69	C	1.136378	-0.000062	0.484269
C70	C	1.055782	-0.000056	0.427043
H71	H	0.766054	-0.000037	-0.275675
H72	H	0.958179	-0.265198	-0.024952
Cl73	Cl	1.245348	-0.000086	0.151169
H74	H	1.155242	-0.265134	-0.222130
Cl75	Cl	1.233598	-0.428242	-0.300556
H76	H	0.903955	-0.557776	0.029425
Cl77	Cl	0.877548	-0.000042	0.103407
Cl78	Cl	1.241366	-0.000073	0.361744
H79	H	0.904606	-0.000050	0.585780
H80	H	0.309033	-0.000065	-0.267039
Cl81	Cl	0.571455	-0.000045	-0.308168
Cl82	Cl	1.239909	-0.000068	0.438922
H83	H	0.804443	-0.000059	0.019958
H84	H	0.958171	-0.149796	-0.024954
H85	H	0.903948	-0.442394	0.029425
Cl86	Cl	1.179371	-0.864407	-0.246188
Cl87	Cl	0.873570	-0.000033	0.313995
H88	H	1.200238	-0.000063	0.624165
H89	H	0.478296	-0.000049	-0.270239
H90	H	0.907800	-0.000041	0.416517
Cl91	Cl	0.619204	-0.000075	0.059629
Cl92	Cl	0.331439	-0.000104	0.065065
Cl93	Cl	1.179248	-0.135661	-0.246213
H94	H	0.516682	-0.000074	0.025399
H95	H	1.209588	-0.557706	-0.276462
H96	H	1.155304	-0.734927	-0.222133
Cl97	Cl	0.934215	-0.864452	-0.000885
H98	H	0.958262	-0.734981	-0.024937
