data_functionalizedCrystal
_audit_creation_method	'MofGen! by Chris Wilmer'
_symmetry_space_group_name_H-M	'P1'
_symmetry_Int_Tables_number	1
_symmetry_cell_setting	triclinic
loop_
_symmetry_equiv_pos_as_xyz
  x,y,z
_cell_length_a	8.559649
_cell_length_b	19.188930
_cell_length_c	7.681481
_cell_angle_alpha	84.272277
_cell_angle_beta	94.913240
_cell_angle_gamma	76.461723
loop_
_atom_site_label
_atom_site_type_symbol
_atom_site_fract_x
_atom_site_fract_y
_atom_site_fract_z
O1	O	2.105137	-0.016273	-0.146396
O2	O	1.639679	0.019799	-0.146415
O3	O	1.885844	-0.100597	-0.146371
O4	O	1.858973	0.104122	-0.146440
O5	O	1.916143	-0.115446	0.146493
O6	O	1.669978	0.004950	0.146449
O7	O	2.135436	-0.031122	0.146467
Zn8	Zn	1.907518	-0.015443	0.192956
Zn9	Zn	1.867598	0.004120	-0.192904
O10	O	1.889272	0.089274	0.146423
C11	C	1.595280	0.015108	0.000015
C12	C	1.417842	0.023245	0.000010
C13	C	1.900124	-0.133987	0.000066
C14	C	1.897514	-0.211356	0.000081
C15	C	2.041954	-0.263833	0.000095
C16	C	2.039498	-0.336527	0.000067
C17	C	1.892597	-0.356742	0.000060
C18	C	1.748137	-0.304254	0.000036
C19	C	1.750595	-0.231561	0.000047
N20	N	1.790620	-0.463929	0.099722
N21	N	1.788294	-0.532986	0.099716
C22	C	1.885180	-0.575761	0.000024
N23	N	1.984505	-0.546875	-0.099639
N24	N	1.986836	-0.477813	-0.099625
C25	C	1.889914	-0.435564	0.000047
C26	C	2.026966	-0.707062	0.000005
C27	C	2.024502	-0.779757	-0.000034
C28	C	1.733139	-0.747483	-0.000048
C29	C	1.735605	-0.674790	-0.000026
C30	C	1.882524	-0.654585	0.000008
C31	C	2.179835	-0.026431	0.000033
C32	C	2.357272	-0.034568	0.000027
C33	C	1.874991	0.122664	-0.000018
C34	C	1.877600	0.200033	-0.000044
N35	N	1.934774	-0.028796	0.456295
N36	N	1.840354	0.017467	-0.456243
H37	H	1.333944	0.078971	-0.000019
C38	C	1.711595	0.080399	0.443702
C39	C	1.559148	0.075315	0.488479
C40	C	1.440498	0.133282	0.396350
H41	H	1.714329	0.079006	0.320716
H42	H	1.731774	0.124566	0.473849
H43	H	1.538973	0.031160	0.458321
H44	H	1.556361	0.076717	0.611450
H45	H	1.460677	0.177449	0.426496
H46	H	1.443247	0.131884	0.273368
H47	H	1.337051	0.129844	0.426730
H48	H	2.031176	-0.076016	0.531518
H49	H	2.161586	-0.247387	0.000117
C50	C	1.469002	-0.108869	-0.000310
C51	C	1.424767	-0.138395	-0.150993
C52	C	1.527680	-0.206837	-0.151376
H53	H	1.460422	-0.139461	0.101706
H54	H	1.577409	-0.104673	-0.000405
H55	H	1.316388	-0.142595	-0.150882
H56	H	1.433356	-0.107824	-0.253033
H57	H	1.636087	-0.202641	-0.151471
H58	H	1.519092	-0.237422	-0.049354
H59	H	1.497691	-0.226876	-0.253620
C60	C	2.196509	-0.393412	0.000178
C61	C	2.325701	-0.360160	0.000250
C62	C	2.470364	-0.412538	0.000377
H63	H	2.191277	-0.417286	-0.101922
H64	H	2.212248	-0.427620	0.102347
H65	H	2.309965	-0.325964	-0.101908
H66	H	2.330985	-0.336289	0.102343
H67	H	2.486104	-0.446746	0.102546
H68	H	2.465116	-0.436409	-0.101725
H69	H	2.558040	-0.389985	0.000442
C70	C	2.186474	-0.685138	-0.000354
C71	C	2.258143	-0.704883	-0.151057
C72	C	2.405070	-0.684690	-0.151465
H73	H	2.256684	-0.708853	0.101648
H74	H	2.167306	-0.634325	-0.000436
H75	H	2.277318	-0.755687	-0.150958
H76	H	2.187979	-0.681171	-0.253083
H77	H	2.385901	-0.633877	-0.151548
H78	H	2.475266	-0.708406	-0.049457
H79	H	2.453708	-0.698078	-0.253722
C80	C	1.578793	-0.617762	-0.000384
C81	C	1.556082	-0.567446	-0.151073
C82	C	1.411626	-0.514907	-0.151481
H83	H	1.584092	-0.593839	0.101628
H84	H	1.490895	-0.640180	-0.000488
H85	H	1.643958	-0.545030	-0.150953
H86	H	1.550753	-0.591347	-0.253109
H87	H	1.323728	-0.537325	-0.151585
H88	H	1.416939	-0.490989	-0.049463
H89	H	1.396191	-0.480765	-0.253729
H90	H	1.628528	-0.320718	0.000026
H91	H	1.632971	-0.188832	0.000036
H92	H	2.142127	-0.822484	-0.000033
H93	H	1.613528	-0.763941	-0.000062
