data_functionalizedCrystal
_audit_creation_method	'MofGen! by Chris Wilmer'
_symmetry_space_group_name_H-M	'P1'
_symmetry_Int_Tables_number	1
_symmetry_cell_setting	triclinic
loop_
_symmetry_equiv_pos_as_xyz
  x,y,z
_cell_length_a	16.992701
_cell_length_b	16.109311
_cell_length_c	14.586319
_cell_angle_alpha	90.005100
_cell_angle_beta	90.003612
_cell_angle_gamma	87.066438
loop_
_atom_site_label
_atom_site_type_symbol
_atom_site_fract_x
_atom_site_fract_y
_atom_site_fract_z
O1	O	1.040352	0.176278	0.076252
O2	O	0.812067	0.174346	0.076252
O3	O	0.932476	0.054699	0.076243
O4	O	0.919942	0.295924	0.076261
O5	O	0.932468	0.054697	-0.076238
O6	O	0.812058	0.174343	-0.076229
O7	O	1.040343	0.176275	-0.076229
Cu8	Cu	0.926200	0.175309	-0.090152
Cu9	Cu	0.926210	0.175312	0.090174
O10	O	0.919934	0.295921	-0.076220
C11	C	0.782850	0.171857	0.000011
C12	C	0.695808	0.164434	0.000011
C13	C	0.206859	0.114561	0.000011
C14	C	0.288644	0.121542	0.000006
C15	C	0.320170	0.200149	0.000016
C16	C	0.269906	0.271780	0.000022
C17	C	0.188123	0.264798	0.000020
C18	C	0.563761	0.229084	0.000015
C19	C	0.645550	0.236060	0.000020
C20	C	0.664283	0.085821	0.000002
C21	C	0.582497	0.078846	0.000006
C22	C	0.532240	0.150477	0.000007
N23	N	0.403767	0.207286	0.000014
N24	N	0.448645	0.143339	0.000003
C25	C	0.931963	0.023689	0.000002
C26	C	0.930436	-0.068707	0.000001
C27	C	1.069559	0.178764	0.000013
C28	C	1.156602	0.186187	0.000019
N29	N	0.926199	0.175307	-0.216984
C30	C	0.920447	0.326931	0.000023
C31	C	0.921973	0.419328	0.000030
C32	C	0.926933	0.718731	0.083131
C33	C	0.925495	0.631915	0.083136
C34	C	0.925475	0.631896	-0.083106
C35	C	0.926906	0.718711	-0.083111
C36	C	0.927639	0.762126	0.000010
C37	C	0.924771	0.588495	0.000021
C38	C	0.923212	0.494365	0.000026
C39	C	0.929196	0.856262	0.000005
C40	C	0.979534	0.122348	-0.451994
C41	C	0.979536	0.122346	-0.547975
C42	C	0.872877	0.228269	-0.547977
C43	C	0.872871	0.228266	-0.451997
C44	C	0.926204	0.175307	-0.404008
C45	C	0.926212	0.175308	-0.595969
C46	C	0.926214	0.175306	-0.700036
C47	C	0.926201	0.175307	-0.299935
N48	N	0.926217	0.175308	0.217006
H49	H	0.556835	0.014837	-0.000002
C50	C	1.038192	0.064087	-0.399206
C51	C	1.038193	0.064079	-0.293632
C52	C	1.096852	0.005814	-0.240847
C53	C	1.155509	-0.052443	-0.293636
C54	C	1.155511	-0.052438	-0.399216
C55	C	1.096852	0.005827	-0.452001
H56	H	0.994769	0.107207	-0.254549
H57	H	1.096850	0.005811	-0.162690
H58	H	1.198932	-0.095574	-0.254562
H59	H	1.198934	-0.095566	-0.438299
H60	H	1.096853	0.005830	-0.530158
H61	H	1.022961	0.079220	-0.587043
H62	H	0.705210	0.027504	0.000000
C63	C	0.814218	0.286530	-0.600765
C64	C	0.814263	0.286589	-0.706338
C65	C	0.755604	0.344854	-0.759123
C66	C	0.696901	0.403060	-0.706334
C67	C	0.696854	0.403004	-0.600755
C68	C	0.755513	0.344739	-0.547970
H69	H	0.857720	0.243499	-0.745421
H70	H	0.755639	0.344895	-0.837280
H71	H	0.653478	0.446191	-0.745409
H72	H	0.653397	0.446093	-0.561672
H73	H	0.755478	0.344697	-0.469813
H74	H	0.181198	0.050551	0.000008
H75	H	0.329561	0.063216	-0.000005
C76	C	0.924678	0.584136	-0.174536
C77	C	0.923109	0.488642	-0.174537
C78	C	0.922315	0.440885	-0.265969
C79	C	0.923090	0.488620	-0.357401
C80	C	0.924660	0.584119	-0.357404
C81	C	0.925454	0.631877	-0.265972
H82	H	0.922535	0.453301	-0.106850
H83	H	0.921153	0.370190	-0.265966
H84	H	0.922503	0.453267	-0.425085
H85	H	0.925234	0.619461	-0.425091
H86	H	0.926616	0.702572	-0.265975
C87	C	0.927731	0.766490	0.174561
C88	C	0.926949	0.718753	0.265992
C89	C	0.927744	0.766508	0.357426
C90	C	0.929322	0.862001	0.357428
C91	C	0.930104	0.909744	0.265994
C92	C	0.929308	0.861988	0.174560
H93	H	0.925781	0.648058	0.265994
H94	H	0.927165	0.731166	0.425112
H95	H	0.929911	0.897353	0.425113
H96	H	0.931271	0.980439	0.265993
H97	H	0.929887	0.897331	0.106875
C98	C	0.924724	0.584179	0.174570
C99	C	0.855696	0.529419	0.197447
C100	C	0.854924	0.481683	0.288885
C101	C	0.923180	0.488706	0.357445
C102	C	0.992212	0.543469	0.334569
C103	C	0.992984	0.591205	0.243132
H104	H	0.805165	0.524218	0.146694
H105	H	0.803821	0.441144	0.305818
H106	H	0.922608	0.453369	0.425132
H107	H	1.042744	0.548670	0.385323
H108	H	1.044087	0.631744	0.226198
C109	C	0.680237	0.322529	0.000040
C110	C	0.733898	0.347987	-0.079122
C111	C	0.768589	0.434450	-0.079092
C112	C	0.749620	0.495455	0.000099
C113	C	0.695957	0.469999	0.079267
C114	C	0.661266	0.383536	0.079237
H115	H	0.747942	0.302826	-0.137749
H116	H	0.808314	0.453294	-0.137697
H117	H	0.775301	0.559460	0.000121
H118	H	0.681913	0.515159	0.137894
H119	H	0.621541	0.364692	0.137843
C120	C	0.927686	0.766451	-0.174551
C121	C	0.859438	0.759424	-0.243120
C122	C	0.860215	0.807164	-0.334555
C123	C	0.929240	0.861930	-0.357421
C124	C	0.997494	0.868959	-0.288850
C125	C	0.996717	0.821219	-0.197415
H126	H	0.808336	0.718881	-0.226195
H127	H	0.809689	0.801960	-0.385315
H128	H	0.929816	0.897270	-0.425106
H129	H	1.048595	0.909503	-0.305775
H130	H	1.047243	0.826423	-0.146655
H131	H	0.522851	0.287411	0.000021
H132	H	0.295581	0.335783	0.000024
H133	H	0.147203	0.323124	0.000024
H134	H	0.829440	0.271392	-0.412924
