data_functionalizedCrystal
_audit_creation_method	'MofGen! by Chris Wilmer'
_symmetry_space_group_name_H-M	'P1'
_symmetry_Int_Tables_number	1
_symmetry_cell_setting	triclinic
loop_
_symmetry_equiv_pos_as_xyz
  x,y,z
_cell_length_a	13.032831
_cell_length_b	19.121063
_cell_length_c	19.121605
_cell_angle_alpha	89.924837
_cell_angle_beta	99.909847
_cell_angle_gamma	85.565596
loop_
_atom_site_label
_atom_site_type_symbol
_atom_site_fract_x
_atom_site_fract_y
_atom_site_fract_z
Zn1	Zn	1.607510	-0.393549	0.550851
Zn2	Zn	2.107510	0.106451	1.050851
Zn3	Zn	1.592493	-0.514563	0.437275
Zn4	Zn	2.092493	-0.014563	0.937275
Zn5	Zn	1.424928	-0.383652	0.417436
Zn6	Zn	1.924928	0.116348	0.917436
Zn7	Zn	1.425493	-0.495881	0.539663
Zn8	Zn	1.925493	0.004119	1.039663
O9	O	1.512606	-0.446911	0.486306
O10	O	2.012606	0.053089	0.986306
O11	O	1.751820	-0.421562	0.548770
O12	O	2.251820	0.078438	1.048770
O13	O	1.563744	-0.500875	0.335959
O14	O	2.063744	-0.000875	0.835959
O15	O	1.455196	-0.287352	0.431513
O16	O	1.955196	0.212648	0.931513
O17	O	1.740786	-0.510471	0.465327
O18	O	2.240786	-0.010471	0.965327
O19	O	1.589339	-0.294623	0.529532
O20	O	2.089339	0.205377	1.029532
O21	O	1.440634	-0.404695	0.321383
O22	O	1.940634	0.095305	0.821383
O23	O	1.278702	-0.386579	0.420664
O24	O	1.778702	0.113421	0.920664
O25	O	1.456160	-0.478630	0.639831
O26	O	1.956160	0.021370	1.139831
O27	O	1.279117	-0.469033	0.510464
O28	O	1.779117	0.030967	1.010464
O29	O	1.589887	-0.403446	0.648051
O30	O	2.089887	0.096554	1.148051
O31	O	1.564292	-0.609698	0.454478
O32	O	2.064292	-0.109698	0.954478
O33	O	1.441598	-0.595972	0.529701
O34	O	1.941598	-0.095972	1.029701
C35	C	1.240975	-0.424706	0.462197
C36	C	1.740975	0.075294	0.962197
C37	C	1.124770	-0.415222	0.451901
C38	C	1.624770	0.084778	0.951901
C39	C	1.073187	-0.451861	0.491680
C40	C	1.573187	0.048139	0.991680
C41	C	0.953083	-0.442060	0.481039
C42	C	1.453083	0.057940	0.981039
C43	C	1.501406	-0.628147	0.493046
C44	C	2.001406	-0.128147	0.993046
C45	C	1.496712	-0.705688	0.495962
C46	C	1.996712	-0.205688	0.995962
C47	C	1.558441	-0.749242	0.458209
C48	C	2.058441	-0.249242	0.958209
C49	C	1.554033	-0.822099	0.460956
C50	C	2.054033	-0.322099	0.960956
C51	C	1.487889	-0.851400	0.501452
C52	C	1.987889	-0.351400	1.001452
C53	C	1.426157	-0.807840	0.539210
C54	C	1.926157	-0.307840	1.039210
C55	C	1.430572	-0.734985	0.536467
C56	C	1.930572	-0.234985	1.036467
C57	C	1.471366	-1.071021	0.511696
C58	C	1.971366	-0.571021	1.011696
C59	C	1.466954	-1.143882	0.514435
C60	C	1.966954	-0.643882	1.014435
C61	C	1.594831	-1.158136	0.436181
C62	C	2.094831	-0.658136	0.936181
C63	C	1.599235	-1.085278	0.433438
C64	C	2.099235	-0.585278	0.933438
C65	C	1.537508	-1.041725	0.471199
C66	C	2.037508	-0.541725	0.971199
C67	C	1.483379	-0.925872	0.504259
C68	C	1.983379	-0.425872	1.004259
C69	C	1.542024	-0.967255	0.468396
C70	C	2.042024	-0.467255	0.968396
C71	C	1.785298	-0.469204	0.510509
C72	C	2.285298	0.030796	1.010509
C73	C	1.901503	-0.478704	0.520823
C74	C	2.401503	0.021296	1.020823
C75	C	1.524762	-0.440058	0.670244
C76	C	2.024762	0.059942	1.170244
C77	C	1.529941	-0.437137	0.748627
C78	C	2.029941	0.062863	1.248627
C79	C	1.523879	-0.264970	0.479557
C80	C	2.023879	0.235030	0.979557
C81	C	1.528683	-0.187437	0.476681
C82	C	2.028683	0.312563	0.976681
C83	C	1.500561	-0.453693	0.303087
C84	C	2.000561	0.046307	0.803087
C85	C	1.495596	-0.456433	0.224715
C86	C	1.995596	0.043567	0.724715
C87	C	1.562783	-0.418664	1.192167
C88	C	2.062783	0.081336	1.692167
C89	C	1.557909	-0.421410	1.118517
C90	C	2.057909	0.078590	1.618517
C91	C	1.485843	-0.461923	1.077416
C92	C	1.985843	0.038077	1.577416
C93	C	1.418653	-0.499697	1.109968
C94	C	1.918653	0.000303	1.609968
C95	C	1.423533	-0.496954	1.183618
C96	C	1.923533	0.003046	1.683618
C97	C	1.467631	-0.472168	0.854829
C98	C	1.967631	0.027832	1.354829
C99	C	1.462755	-0.474907	0.781175
C100	C	1.962755	0.025093	1.281175
C101	C	1.602013	-0.396621	0.789729
C102	C	2.102013	0.103379	1.289729
C103	C	1.606881	-0.393878	0.863379
C104	C	2.106881	0.106122	1.363379
C105	C	1.539696	-0.431655	0.895926
C106	C	2.039696	0.068345	1.395926
C107	C	1.480857	-0.464730	1.002133
C108	C	1.980857	0.035270	1.502133
C109	C	1.544687	-0.428851	0.971207
C110	C	2.044687	0.071149	1.471207
H111	H	1.080016	-0.376595	0.409970
H112	H	1.580016	0.123405	0.909970
H113	H	1.603366	-0.395869	1.004676
H114	H	2.103366	0.104131	1.504676
Br115	Br	1.704749	-0.338940	0.919162
Br116	Br	2.204749	0.161060	1.419162
Br117	Br	0.976080	-0.543072	0.590736
Br118	Br	1.476080	-0.043072	1.090736
H119	H	1.612298	-0.725390	0.425229
H120	H	2.112298	-0.225390	0.925229
Br121	Br	1.649099	-0.370152	1.074349
Br122	Br	2.149099	0.129848	1.574349
Br123	Br	1.383050	-0.519706	0.946346
Br124	Br	1.883050	-0.019706	1.446346
H125	H	1.372306	-0.831703	0.572186
H126	H	1.872306	-0.331703	1.072186
Br127	Br	1.637819	-0.881207	0.409722
Br128	Br	2.137819	-0.381207	0.909722
Br129	Br	1.393616	-0.965644	0.559218
Br130	Br	1.893616	-0.465644	1.059218
Br131	Br	1.689020	-1.045518	0.378487
Br132	Br	2.189020	-0.545518	0.878487
Br133	Br	1.332352	-0.548219	1.227791
Br134	Br	1.832352	-0.048219	1.727791
Br135	Br	1.346800	-0.675874	0.587710
Br136	Br	1.846800	-0.175874	1.087710
Br137	Br	1.660578	-0.363668	1.247940
Br138	Br	2.160578	0.136332	1.747940
H139	H	1.645088	-1.193605	0.405440
H140	H	2.145088	-0.693605	0.905440
H141	H	1.117942	-0.490482	0.533616
H142	H	1.617942	0.009518	1.033616
H143	H	1.412922	-0.502928	0.881319
H144	H	1.912922	-0.002928	1.381319
Br145	Br	1.377163	-1.183646	0.569384
Br146	Br	1.877163	-0.683646	1.069384
H147	H	0.908333	-0.403431	0.439105
H148	H	1.408333	0.096569	0.939105
H149	H	1.421103	-1.035565	0.542441
H150	H	1.921103	-0.535565	1.042441
H151	H	1.595883	-0.943396	0.435426
H152	H	2.095883	-0.443396	0.935426
Br153	Br	1.693179	-0.345348	0.745554
Br154	Br	2.193179	0.154652	1.245554
Br155	Br	1.320852	-0.554683	1.054189
Br156	Br	1.820852	-0.054683	1.554189
H157	H	1.404045	-0.507882	0.747709
H158	H	1.904045	-0.007882	1.247709
