data_functionalizedCrystal
_audit_creation_method	'MofGen! by Chris Wilmer'
_symmetry_space_group_name_H-M	'P1'
_symmetry_Int_Tables_number	1
_symmetry_cell_setting	triclinic
loop_
_symmetry_equiv_pos_as_xyz
  x,y,z
_cell_length_a	17.077404
_cell_length_b	15.297327
_cell_length_c	17.077396
_cell_angle_alpha	99.646061
_cell_angle_beta	89.982756
_cell_angle_gamma	99.707136
loop_
_atom_site_label
_atom_site_type_symbol
_atom_site_fract_x
_atom_site_fract_y
_atom_site_fract_z
Zn1	Zn	1.145934	-0.359152	-0.497893
Zn2	Zn	1.123118	-0.510028	-0.389334
Zn3	Zn	1.014666	-0.359186	-0.366647
Zn4	Zn	0.991914	-0.509973	-0.520549
O5	O	1.068908	-0.434585	-0.443606
O6	O	1.252753	-0.379176	-0.483506
O7	O	1.108705	-0.490056	-0.276483
O8	O	1.051149	-0.232935	-0.365081
O9	O	1.235991	-0.490024	-0.403748
O10	O	1.147591	-0.232910	-0.461507
O11	O	1.029026	-0.379233	-0.259815
O12	O	0.901803	-0.379179	-0.387049
O13	O	1.012372	-0.489929	-0.627385
O14	O	0.885087	-0.489961	-0.500120
O15	O	1.125530	-0.379121	-0.610740
O16	O	1.086644	-0.636268	-0.425716
O17	O	0.990249	-0.636227	-0.522119
C18	C	0.864963	-0.434569	-0.443581
C19	C	0.777711	-0.434583	-0.443593
C20	C	1.033523	-0.668982	-0.478855
C21	C	1.018457	-0.769258	-0.493961
C22	C	0.728024	-0.492355	-0.502402
C23	C	0.646044	-0.492357	-0.502415
C24	C	0.613750	-0.434591	-0.443615
C25	C	0.663444	-0.376813	-0.384803
C26	C	0.745423	-0.376808	-0.384794
C27	C	0.492571	-0.376831	-0.384824
C28	C	0.410585	-0.376838	-0.384832
C29	C	0.393191	-0.492380	-0.502445
C30	C	0.475171	-0.492374	-0.502436
C31	C	0.524858	-0.434598	-0.443623
C32	C	1.176913	-1.051879	-0.335909
C33	C	1.191068	-0.957665	-0.321712
C34	C	1.147916	-0.910559	-0.364773
C35	C	1.090607	-0.957676	-0.422033
C36	C	1.076446	-1.051899	-0.436227
C37	C	1.047450	-0.910579	-0.465091
C38	C	0.990141	-0.957696	-0.522351
C39	C	0.975983	-1.051910	-0.536543
C40	C	1.019134	-1.099017	-0.493482
C41	C	1.061611	-0.816355	-0.450897
C42	C	0.961145	-0.816375	-0.551215
C43	C	0.946990	-0.910589	-0.565412
C44	C	1.273650	-0.434602	-0.443630
C45	C	1.360899	-0.434609	-0.443641
C46	C	1.068958	-0.434515	-0.648339
C47	C	1.068980	-0.434485	-0.735585
C48	C	1.104453	-0.199273	-0.408236
C49	C	1.119601	-0.098997	-0.393164
C50	C	1.027507	-0.376773	-0.767894
C51	C	1.027523	-0.376752	-0.849872
C52	C	1.069016	-0.434440	-0.899538
C53	C	1.110490	-0.492159	-0.867223
C54	C	1.110469	-0.492184	-0.785248
C55	C	1.110533	-0.492103	-1.038085
C56	C	1.110555	-0.492078	-1.120066
C57	C	1.027586	-0.376671	-1.102709
C58	C	1.027565	-0.376696	-1.020733
C59	C	1.069041	-0.434414	-0.988425
C60	C	1.068914	-0.434589	-0.239658
C61	C	1.069083	-0.434365	-0.152375
H62	H	0.754310	-0.539397	-0.550282
H63	H	0.785879	-0.329759	-0.336909
Br64	Br	0.971260	-0.298395	-0.953328
H65	H	1.007614	-1.175734	-0.505040
Br66	Br	1.139384	-0.752422	-0.373189
H67	H	1.159444	-0.833845	-0.353210
H68	H	0.605591	-0.539401	-0.550302
Br69	Br	0.518996	-0.570780	-0.582231
H70	H	1.144271	-0.539135	-0.907669
H71	H	0.993817	-0.329674	-1.129018
H72	H	1.237727	-0.919306	-0.275091
H73	H	1.144315	-0.539095	-1.011782
Br74	Br	1.166749	-0.570518	-0.741400
Br75	Br	1.166878	-0.570361	-1.187469
Br76	Br	1.235464	-1.115812	-0.277473
H77	H	0.352732	-0.539422	-0.550335
H78	H	0.384297	-0.329789	-0.336960
H79	H	0.993748	-0.329760	-0.876174
Br80	Br	0.898201	-1.115854	-0.614247
H81	H	0.993723	-0.329791	-0.727460
Br82	Br	0.902571	-0.752453	-0.609651
Br83	Br	0.619619	-0.298408	-0.305008
Br84	Br	0.560004	-0.298417	-0.305007
H85	H	0.900327	-0.948966	-0.612033
