data_functionalizedCrystal
_audit_creation_method	'MofGen! by Chris Wilmer'
_symmetry_space_group_name_H-M	'P1'
_symmetry_Int_Tables_number	1
_symmetry_cell_setting	triclinic
loop_
_symmetry_equiv_pos_as_xyz
  x,y,z
_cell_length_a	13.897449
_cell_length_b	11.169416
_cell_length_c	11.169409
_cell_angle_alpha	89.969184
_cell_angle_beta	89.977245
_cell_angle_gamma	90.011620
loop_
_atom_site_label
_atom_site_type_symbol
_atom_site_fract_x
_atom_site_fract_y
_atom_site_fract_z
Zn1	Zn	1.474771	-0.477670	-0.678625
Zn2	Zn	1.474680	-0.678410	-0.477947
Zn3	Zn	1.313455	-0.477744	-0.477952
Zn4	Zn	1.313463	-0.678314	-0.678584
O5	O	1.394092	-0.578034	-0.578277
O6	O	1.609741	-0.504307	-0.652020
O7	O	1.453252	-0.651862	-0.309998
O8	O	1.334888	-0.309784	-0.504591
O9	O	1.609674	-0.651790	-0.504583
O10	O	1.453407	-0.309730	-0.652024
O11	O	1.334800	-0.504434	-0.310001
O12	O	1.178474	-0.504341	-0.504551
O13	O	1.334902	-0.651627	-0.846540
O14	O	1.178480	-0.651699	-0.651955
O15	O	1.453415	-0.504214	-0.846570
O16	O	1.453260	-0.846347	-0.504543
O17	O	1.334814	-0.846276	-0.651950
C18	C	1.394054	-0.889859	-0.578268
C19	C	1.394126	-1.023259	-0.578304
C20	C	1.143478	-0.578018	-0.578250
C21	C	1.036264	-0.578040	-0.578267
C22	C	0.839969	-0.578045	-0.578298
C23	C	0.949201	-0.578039	-0.578277
C24	C	1.645685	-0.578051	-0.578305
C25	C	1.752899	-0.578059	-0.578317
C26	C	1.394169	-0.577901	-0.891320
C27	C	1.394202	-0.577845	-1.024720
C28	C	1.394157	-0.264992	-0.578313
C29	C	1.394184	-0.131592	-0.578328
C30	C	1.394071	-0.578080	-0.266452
C31	C	1.394225	-0.577799	-0.133053
