data_functionalizedCrystal
_audit_creation_method	'MofGen! by Chris Wilmer'
_symmetry_space_group_name_H-M	'P1'
_symmetry_Int_Tables_number	1
_symmetry_cell_setting	triclinic
loop_
_symmetry_equiv_pos_as_xyz
  x,y,z
_cell_length_a	14.971506
_cell_length_b	14.971486
_cell_length_c	14.048226
_cell_angle_alpha	89.996181
_cell_angle_beta	90.005155
_cell_angle_gamma	96.381742
loop_
_atom_site_label
_atom_site_type_symbol
_atom_site_fract_x
_atom_site_fract_y
_atom_site_fract_z
O1	O	1.186934	-0.116647	0.079168
O2	O	0.926536	-0.130587	0.079168
O3	O	1.063715	0.006582	0.079161
O4	O	1.049756	-0.253817	0.079175
O5	O	1.063702	0.006584	-0.079160
O6	O	0.926523	-0.130586	-0.079153
O7	O	1.186921	-0.116646	-0.079154
Zn8	Zn	1.056720	-0.123616	-0.104290
Zn9	Zn	1.056737	-0.123617	0.104305
O10	O	1.049743	-0.253816	-0.079147
C11	C	0.893205	-0.129960	0.000008
C12	C	0.793909	-0.128082	0.000008
C13	C	1.063084	0.039908	0.000001
C14	C	1.061213	0.139205	0.000002
C15	C	0.355627	-0.201500	0.000021
C16	C	0.448927	-0.203258	0.000025
C17	C	0.506147	-0.122665	0.000017
C18	C	0.470062	-0.040310	0.000014
C19	C	0.376764	-0.038553	0.000017
C20	C	0.664525	-0.043977	0.000006
C21	C	0.757831	-0.045733	0.000002
C22	C	0.736689	-0.208681	0.000015
C23	C	0.643390	-0.206924	0.000018
C24	C	0.607312	-0.124569	0.000013
C25	C	1.220252	-0.117273	0.000009
C26	C	1.319548	-0.119151	0.000015
C27	C	1.050374	-0.287141	0.000016
C28	C	1.052244	-0.386438	0.000021
N29	N	1.056715	-0.123614	-0.246651
C30	C	1.141802	0.196424	0.000001
C31	C	1.140038	0.289724	0.000010
C32	C	1.057686	0.325802	0.000014
C33	C	0.977091	0.268575	0.000018
C34	C	0.978855	0.175278	0.000015
C35	C	0.973420	0.463038	0.000021
C36	C	0.971656	0.556342	0.000022
C37	C	1.134603	0.577485	0.000017
C38	C	1.136367	0.484187	0.000014
C39	C	1.055772	0.426966	0.000016
C40	C	1.111017	-0.177959	-0.296462
C41	C	1.111028	-0.177955	-0.396120
C42	C	1.056732	-0.123611	-0.445964
C43	C	1.002428	-0.069259	-0.396146
C44	C	1.002422	-0.069259	-0.296491
C45	C	1.002443	-0.069265	-0.603861
C46	C	1.002448	-0.069267	-0.703523
C47	C	1.111049	-0.177962	-0.703490
C48	C	1.111043	-0.177962	-0.603834
C49	C	1.056738	-0.123611	-0.554023
N50	N	1.056750	-0.123612	0.246666
H51	H	0.309044	-0.267128	0.000021
H52	H	1.155251	-0.222218	-0.563253
H53	H	0.478297	-0.270314	0.000039
F54	F	0.889445	0.306975	0.000032
F55	F	0.626131	0.043676	-0.000003
F56	F	0.884007	0.594738	0.000025
H57	H	1.155263	-0.222219	-0.744051
F58	F	1.225812	0.350618	0.000008
F59	F	0.818727	0.040042	-0.000001
H60	H	1.155248	-0.222207	-0.436671
F61	F	0.530963	0.045463	0.000008
H62	H	1.155226	-0.222219	-0.255885
F63	F	0.893082	0.114380	0.000019
H64	H	0.958234	-0.025016	-0.744104
H65	H	0.596803	-0.272550	0.000018
H66	H	1.200227	0.624078	0.000018
F67	F	0.775086	-0.296330	0.000012
H68	H	0.958223	-0.025006	-0.563307
H69	H	0.958204	-0.025006	-0.255936
F70	F	0.338367	0.049093	0.000010
F71	F	1.229454	0.158036	-0.000012
H72	H	1.203426	0.454815	0.000004
H73	H	0.958224	-0.025006	-0.436738
H74	H	0.907791	0.416451	0.000025
