data_functionalizedCrystal
_audit_creation_method	'MofGen! by Chris Wilmer'
_symmetry_space_group_name_H-M	'P1'
_symmetry_Int_Tables_number	1
_symmetry_cell_setting	triclinic
loop_
_symmetry_equiv_pos_as_xyz
  x,y,z
_cell_length_a	10.723022
_cell_length_b	10.723024
_cell_length_c	9.798715
_cell_angle_alpha	89.998925
_cell_angle_beta	90.003391
_cell_angle_gamma	95.532452
loop_
_atom_site_label
_atom_site_type_symbol
_atom_site_fract_x
_atom_site_fract_y
_atom_site_fract_z
O1	O	-1.657188	0.175015	-0.113475
O2	O	-1.157188	0.675015	0.386525
O3	O	-1.294036	0.191770	-0.113479
O4	O	-0.794036	0.691770	0.386521
O5	O	-1.483989	0.001817	-0.113475
O6	O	-0.983989	0.501817	0.386525
O7	O	-1.467236	0.364969	-0.113479
O8	O	-0.967236	0.864969	0.386521
O9	O	-1.483975	0.001816	0.113507
O10	O	-0.983975	0.501816	0.613507
O11	O	-1.294022	0.191770	0.113503
O12	O	-0.794022	0.691770	0.613503
O13	O	-1.657174	0.175015	0.113507
O14	O	-1.157174	0.675015	0.613507
Zn15	Zn	-1.475596	0.183392	0.149543
Zn16	Zn	-0.975596	0.683392	0.649543
Zn17	Zn	-1.475614	0.183393	-0.149516
Zn18	Zn	-0.975614	0.683393	0.350484
O19	O	-1.467221	0.364969	0.113503
O20	O	-0.967221	0.864969	0.613503
C21	C	-1.247529	0.190551	0.000011
C22	C	-0.747529	0.690551	0.500011
C23	C	-1.108975	0.186904	0.000009
C24	C	-0.608975	0.686904	0.500009
C25	C	-1.482763	-0.044683	0.000013
C26	C	-0.982763	0.455317	0.500013
C27	C	-1.479115	-0.183238	0.000006
C28	C	-0.979115	0.316762	0.500006
C29	C	-1.703681	0.176234	0.000013
C30	C	-1.203681	0.676234	0.500013
C31	C	-1.842235	0.179881	0.000006
C32	C	-1.342235	0.679881	0.500006
C33	C	-1.468448	0.411468	0.000011
C34	C	-0.968448	0.911468	0.500011
C35	C	-1.472095	0.550023	0.000009
C36	C	-0.972095	1.050023	0.500009
C37	C	-1.060414	0.077365	0.000010
C38	C	-0.560414	0.577365	0.500010
C39	C	-0.917211	0.073593	0.000008
C40	C	-0.417211	0.573593	0.500008
N41	N	-1.475592	0.183391	0.353643
N42	N	-0.975592	0.683391	0.853643
C43	C	-1.365808	0.625006	0.000007
C44	C	-0.865808	1.125006	0.500007
C45	C	-1.369575	0.768209	0.000006
C46	C	-0.869575	1.268209	0.500006
N47	N	-1.475628	0.183384	-0.353615
N48	N	-0.975628	0.683384	0.146385
C49	C	-1.555348	0.103283	0.421421
C50	C	-1.055348	0.603283	0.921421
C51	C	-1.555368	0.103279	0.578584
C52	C	-1.055368	0.603279	1.078584
H53	H	-1.124856	-0.013624	0.000005
H54	H	-0.624856	0.486376	0.500005
Br55	Br	-1.628421	0.619714	-0.000006
Br56	Br	-1.128421	1.119714	0.499994
H57	H	-1.407320	0.251967	0.411966
H58	H	-0.907320	0.751967	0.911966
H59	H	-1.278585	0.832642	0.000013
H60	H	-0.778585	1.332642	0.500013
Br61	Br	-1.669193	-0.011029	0.675725
Br62	Br	-1.169193	0.488971	1.175725
H63	H	-1.407346	0.251976	0.588107
H64	H	-0.907346	0.751976	1.088107
Br65	Br	-0.911906	0.336214	0.000022
Br66	Br	-0.411906	0.836214	0.500022
H67	H	-0.875399	-0.020195	-0.000026
H68	H	-0.375399	0.479805	0.499974
H69	H	-1.044532	0.277893	0.000002
H70	H	-0.544532	0.777893	0.500002
H71	H	-1.623612	0.034697	0.363100
H72	H	-1.123612	0.534697	0.863100
H73	H	-1.272022	0.583184	-0.000001
H74	H	-0.772022	1.083184	0.499999
H75	H	-1.570110	0.752337	0.000014
H76	H	-1.070110	1.252337	0.500014
