data_functionalizedCrystal
_audit_creation_method	'MofGen! by Chris Wilmer'
_symmetry_space_group_name_H-M	'P1'
_symmetry_Int_Tables_number	1
_symmetry_cell_setting	triclinic
loop_
_symmetry_equiv_pos_as_xyz
  x,y,z
_cell_length_a	13.897449
_cell_length_b	13.897447
_cell_length_c	12.759393
_cell_angle_alpha	90.028201
_cell_angle_beta	89.975751
_cell_angle_gamma	89.977978
loop_
_atom_site_label
_atom_site_type_symbol
_atom_site_fract_x
_atom_site_fract_y
_atom_site_fract_z
Zn1	Zn	1.474687	0.383947	-0.594130
Zn2	Zn	1.808021	0.717280	-0.260796
Zn3	Zn	2.141354	1.050614	0.072537
Zn4	Zn	1.474569	0.545273	-0.418457
Zn5	Zn	1.807902	0.878607	-0.085123
Zn6	Zn	2.141236	1.211940	0.248210
Zn7	Zn	1.313374	0.383996	-0.418455
Zn8	Zn	1.646707	0.717330	-0.085121
Zn9	Zn	1.980041	1.050663	0.248212
Zn10	Zn	1.313348	0.545204	-0.594084
Zn11	Zn	1.646682	0.878537	-0.260751
Zn12	Zn	1.980015	1.211871	0.072583
O13	O	1.393995	0.464605	-0.506281
O14	O	1.727328	0.797938	-0.172948
O15	O	2.060661	1.131272	0.160385
O16	O	1.609653	0.405356	-0.570846
O17	O	1.942987	0.738689	-0.237513
O18	O	2.276320	1.072022	0.095820
O19	O	1.453147	0.523929	-0.271435
O20	O	1.786481	0.857263	0.061898
O21	O	2.119814	1.190596	0.395231
O22	O	1.334833	0.249008	-0.441777
O23	O	1.668166	0.582341	-0.108443
O24	O	2.001500	0.915675	0.224890
O25	O	1.609566	0.523881	-0.441780
O26	O	1.942900	0.857215	-0.108447
O27	O	2.276233	1.190548	0.224886
O28	O	1.453349	0.248972	-0.570844
O29	O	1.786682	0.582305	-0.237511
O30	O	2.120016	0.915638	0.095822
O31	O	1.334718	0.405440	-0.271434
O32	O	1.668052	0.738773	0.061899
O33	O	2.001385	1.072106	0.395233
O34	O	1.178389	0.405372	-0.441732
O35	O	1.511722	0.738706	-0.108399
O36	O	1.845056	1.072039	0.224934
O37	O	1.334789	0.523763	-0.741111
O38	O	1.668122	0.857097	-0.407778
O39	O	2.001456	1.190430	-0.074444
O40	O	1.178370	0.523811	-0.570766
O41	O	1.511703	0.857144	-0.237433
O42	O	1.845037	1.190478	0.095900
O43	O	1.453324	0.405288	-0.741145
O44	O	1.786657	0.738622	-0.407811
O45	O	2.119991	1.071955	-0.074478
O46	O	1.453123	0.680246	-0.441736
O47	O	1.786456	1.013579	-0.108403
O48	O	2.119789	1.346912	0.224931
O49	O	1.334674	0.680195	-0.570768
O50	O	1.668008	1.013528	-0.237435
O51	O	2.001341	1.346861	0.095898
C52	C	1.143380	0.464590	-0.506245
C53	C	1.476714	0.797924	-0.172911
C54	C	1.810047	1.131257	0.160422
C55	C	1.036166	0.464607	-0.506254
C56	C	1.369500	0.797940	-0.172921
C57	C	1.702833	1.131274	0.160413
C58	C	1.393909	0.715219	-0.506270
C59	C	1.727242	1.048553	-0.172937
C60	C	2.060576	1.381886	0.160396
C61	C	1.393961	0.822433	-0.506301
C62	C	1.727294	1.155767	-0.172967
C63	C	2.060627	1.489100	0.160366
C64	C	0.949097	0.464610	-0.506271
C65	C	1.282430	0.797944	-0.172938
C66	C	1.615763	1.131277	0.160395
C67	C	0.839864	0.464617	-0.506303
C68	C	1.173197	0.797950	-0.172970
C69	C	1.506531	1.131284	0.160363
C70	C	1.394005	0.909503	-0.506329
C71	C	1.727338	1.242836	-0.172996
C72	C	2.060671	1.576170	0.160337
C73	C	1.394069	1.018736	-0.506362
C74	C	1.727402	1.352069	-0.173029
C75	C	2.060736	1.685402	0.160305
C76	C	1.645588	0.464621	-0.506319
C77	C	1.978921	0.797954	-0.172985
C78	C	2.312254	1.131287	0.160348
C79	C	1.752802	0.464627	-0.506335
C80	C	2.086135	0.797961	-0.173001
C81	C	2.419468	1.131294	0.160332
C82	C	1.394067	0.464512	-0.780315
C83	C	1.727400	0.797846	-0.446981
C84	C	2.060734	1.131179	-0.113648
C85	C	1.394098	0.464473	-0.897091
C86	C	1.727431	0.797806	-0.563758
C87	C	2.060764	1.131140	-0.230425
C88	C	1.394100	1.213012	-0.506329
C89	C	1.727433	1.546345	-0.172995
C90	C	2.060766	1.879679	0.160338
C91	C	1.394126	1.105798	-0.506383
C92	C	1.727459	1.439131	-0.173050
C93	C	2.060792	1.772465	0.160284
C94	C	1.455823	0.402773	-0.951973
C95	C	1.789157	0.736107	-0.618639
C96	C	2.122490	1.069440	-0.285306
C97	C	1.455840	0.402732	-1.061697
C98	C	1.789173	0.736065	-0.728363
C99	C	2.122506	1.069398	-0.395030
C100	C	1.332402	0.526098	-1.061649
C101	C	1.665735	0.859431	-0.728316
C102	C	1.999068	1.192765	-0.394982
C103	C	1.332381	0.526134	-0.951927
C104	C	1.665715	0.859467	-0.618593
C105	C	1.999048	1.192801	-0.285260
C106	C	1.393978	0.464628	-0.233314
C107	C	1.727312	0.797961	0.100019
C108	C	2.060645	1.131294	0.433353
C109	C	1.394134	0.464395	-0.116538
C110	C	1.727468	0.797729	0.216796
C111	C	2.060801	1.131062	0.550129
H112	H	1.506074	0.352562	-0.907329
H113	H	1.839408	0.685896	-0.573996
H114	H	2.172741	1.019229	-0.240662
H115	H	1.506102	0.352488	-1.106376
H116	H	1.839435	0.685821	-0.773043
H117	H	2.172768	1.019155	-0.439710
H118	H	1.282110	0.576376	-0.907241
H119	H	1.615443	0.909710	-0.573908
H120	H	1.948777	1.243043	-0.240575
H121	H	1.282157	0.576302	-1.106309
H122	H	1.615490	0.909635	-0.772976
H123	H	1.948823	1.242969	-0.439642
