data_functionalizedCrystal
_audit_creation_method	'MofGen! by Chris Wilmer'
_symmetry_space_group_name_H-M	'P1'
_symmetry_Int_Tables_number	1
_symmetry_cell_setting	triclinic
loop_
_symmetry_equiv_pos_as_xyz
  x,y,z
_cell_length_a	17.038272
_cell_length_b	16.956984
_cell_length_c	16.053802
_cell_angle_alpha	87.610701
_cell_angle_beta	92.751609
_cell_angle_gamma	83.582487
loop_
_atom_site_label
_atom_site_type_symbol
_atom_site_fract_x
_atom_site_fract_y
_atom_site_fract_z
O1	O	0.028759	1.063355	-0.069433
O2	O	0.362092	1.396688	0.263900
O3	O	0.695425	1.730021	0.597233
O4	O	0.056089	0.833051	-0.069434
O5	O	0.389422	1.166384	0.263899
O6	O	0.722756	1.499718	0.597232
O7	O	-0.071303	0.946834	-0.069427
O8	O	0.262030	1.280167	0.263906
O9	O	0.595364	1.613500	0.597239
O10	O	0.156151	0.949572	-0.069441
O11	O	0.489484	1.282905	0.263893
O12	O	0.822817	1.616238	0.597226
O13	O	-0.064318	0.940569	0.069431
O14	O	0.269015	1.273902	0.402765
O15	O	0.602348	1.607236	0.736098
O16	O	0.063074	0.826786	0.069424
O17	O	0.396407	1.160119	0.402757
O18	O	0.729740	1.493453	0.736091
O19	O	0.035744	1.057090	0.069425
O20	O	0.369077	1.390423	0.402759
O21	O	0.702410	1.723756	0.736092
Zn22	Zn	0.050518	0.940943	0.091471
Zn23	Zn	0.383851	1.274277	0.424805
Zn24	Zn	0.717184	1.607610	0.758138
Zn25	Zn	0.041315	0.949197	-0.091481
Zn26	Zn	0.374648	1.282531	0.241853
Zn27	Zn	0.707981	1.615864	0.575186
O28	O	0.163136	0.943307	0.069418
O29	O	0.496469	1.276640	0.402751
O30	O	0.829802	1.609974	0.736085
C31	C	0.060981	0.800305	-0.000005
C32	C	0.394314	1.133639	0.333328
C33	C	0.727648	1.466972	0.666661
C34	C	0.065142	0.712067	-0.000006
C35	C	0.398475	1.045400	0.333328
C36	C	0.731808	1.378734	0.666661
C37	C	-0.004426	0.675263	0.000000
C38	C	0.328907	1.008596	0.333333
C39	C	0.662241	1.341930	0.666667
C40	C	-0.000512	0.592354	-0.000006
C41	C	0.332821	0.925687	0.333327
C42	C	0.666154	1.259020	0.666660
C43	C	0.072970	0.546249	-0.000012
C44	C	0.406304	0.879583	0.333321
C45	C	0.739637	1.212916	0.666655
C46	C	0.142543	0.583059	-0.000020
C47	C	0.475876	0.916392	0.333313
C48	C	0.809210	1.249725	0.666647
C49	C	0.138628	0.665967	-0.000020
C50	C	0.471962	0.999300	0.333314
C51	C	0.805295	1.332634	0.666647
C52	C	0.092348	0.297792	-0.000019
C53	C	0.425682	0.631125	0.333314
C54	C	0.759015	0.964458	0.666648
C55	C	0.096258	0.214878	-0.000017
C56	C	0.429591	0.548211	0.333317
C57	C	0.762925	0.881545	0.666650
C58	C	-0.046798	0.224179	-0.000004
C59	C	0.286536	0.557512	0.333329
C60	C	0.619869	0.890845	0.666662
C61	C	-0.050706	0.307088	0.000001
C62	C	0.282627	0.640421	0.333334
C63	C	0.615961	0.973754	0.666668
C64	C	0.018866	0.343890	-0.000012
C65	C	0.352200	0.677224	0.333322
C66	C	0.685533	1.010557	0.666655
N67	N	0.076973	0.461502	-0.000016
N68	N	0.410306	0.794836	0.333318
N69	N	0.743639	1.128169	0.666651
N70	N	0.014863	0.428636	-0.000014
N71	N	0.348196	0.761969	0.333320
N72	N	0.681530	1.095303	0.666653
C73	C	-0.096779	0.941211	0.000002
C74	C	0.236555	1.274545	0.333335
C75	C	0.569888	1.607878	0.666669
C76	C	-0.183093	0.933783	0.000002
C77	C	0.150240	1.267116	0.333335
C78	C	0.483573	1.600450	0.666668
C79	C	-0.237598	1.001985	0.000003
C80	C	0.095735	1.335318	0.333336
C81	C	0.429069	1.668651	0.666669
C82	C	-0.318699	0.995000	-0.000005
C83	C	0.014634	1.328334	0.333328
C84	C	0.347967	1.661667	0.666661
C85	C	-0.345294	0.919814	-0.000008
C86	C	-0.011961	1.253147	0.333325
C87	C	0.321373	1.586480	0.666658
C88	C	-0.290783	0.851607	-0.000012
C89	C	0.042551	1.184940	0.333321
C90	C	0.375884	1.518274	0.666655
C91	C	-0.209683	0.858592	-0.000010
C92	C	0.123650	1.191926	0.333323
C93	C	0.456983	1.525259	0.666657
C94	C	-0.589464	0.895137	-0.000020
C95	C	-0.256131	1.228470	0.333313
C96	C	0.077203	1.561803	0.666647
C97	C	-0.670570	0.888156	-0.000019
C98	C	-0.337237	1.221490	0.333314
C99	C	-0.003903	1.554823	0.666647
C100	C	-0.698481	1.031551	-0.000014
C101	C	-0.365148	1.364884	0.333319
C102	C	-0.031814	1.698217	0.666653
C103	C	-0.617378	1.038529	-0.000007
C104	C	-0.284045	1.371862	0.333326
C105	C	0.049288	1.705196	0.666660
C106	C	-0.562875	0.970322	-0.000015
C107	C	-0.229541	1.303656	0.333318
C108	C	0.103792	1.636989	0.666652
C109	C	-0.428192	0.912673	-0.000014
C110	C	-0.094859	1.246006	0.333319
C111	C	0.238474	1.579340	0.666653
C112	C	-0.479978	0.977464	-0.000016
C113	C	-0.146645	1.310798	0.333318
C114	C	0.186688	1.644131	0.666651
C115	C	0.188611	0.948929	-0.000013
C116	C	0.521944	1.282263	0.333320
C117	C	0.855278	1.615596	0.666654
C118	C	0.274925	0.956358	-0.000018
C119	C	0.608259	1.289691	0.333315
C120	C	0.941592	1.623025	0.666648
C121	C	0.030851	1.089835	-0.000006
C122	C	0.364185	1.423169	0.333327
C123	C	0.697518	1.756502	0.666661
C124	C	0.026690	1.178074	-0.000011
C125	C	0.360024	1.511407	0.333322
C126	C	0.693357	1.844741	0.666656
N127	N	0.056798	0.935316	0.216331
N128	N	0.390131	1.268649	0.549665
N129	N	0.723464	1.601983	0.882998
N130	N	0.035028	0.954831	-0.216341
N131	N	0.368362	1.288164	0.116993
N132	N	0.701695	1.621497	0.450326
C133	C	0.002609	0.983751	0.260028
C134	C	0.335942	1.317084	0.593362
C135	C	0.669276	1.650417	0.926695
C136	C	0.007009	0.979822	0.347435
C137	C	0.340342	1.313156	0.680768
C138	C	0.673675	1.646489	1.014102
C139	C	0.065601	0.927462	0.391143
C140	C	0.398935	1.260796	0.724476
C141	C	0.732268	1.594129	1.057809
C142	C	0.119792	0.879022	0.347440
C143	C	0.453126	1.212355	0.680773
C144	C	0.786459	1.545689	1.014106
C145	C	0.115389	0.882947	0.260035
C146	C	0.448722	1.216280	0.593368
C147	C	0.782055	1.549614	0.926701
C148	C	0.084816	0.910316	0.652551
C149	C	0.418149	1.243649	0.985885
C150	C	0.751482	1.576982	1.319218
C151	C	0.089217	0.906396	0.739962
C152	C	0.422550	1.239729	1.073296
C153	C	0.755884	1.573062	1.406629
C154	C	-0.023568	1.007195	0.739952
C155	C	0.309765	1.340529	1.073285
C156	C	0.643098	1.673862	1.406618
C157	C	-0.027964	1.011119	0.652545
C158	C	0.305369	1.344453	0.985878
C159	C	0.638703	1.677786	1.319212
C160	C	0.026225	0.962676	0.608849
C161	C	0.359558	1.296009	0.942183
C162	C	0.692891	1.629343	1.275516
N163	N	0.070101	0.923447	0.480486
N164	N	0.403435	1.256781	0.813820
N165	N	0.736768	1.590114	1.147153
N166	N	0.021720	0.966688	0.519508
N167	N	0.355054	1.300021	0.852841
N168	N	0.688387	1.633354	1.186174
H169	H	0.195278	0.695931	-0.000020
H170	H	0.528611	1.029264	0.333313
H171	H	0.861944	1.362598	0.666646
H172	H	0.159514	0.843505	0.224457
H173	H	0.492847	1.176839	0.557791
H174	H	0.826180	1.510172	0.891124
H175	H	-0.037116	1.019261	0.383013
H176	H	0.296217	1.352594	0.716346
H177	H	0.629550	1.685928	1.049679
H178	H	-0.363075	1.050538	-0.000002
H179	H	-0.029741	1.383871	0.333331
H180	H	0.303592	1.717204	0.666664
H181	H	0.156100	0.177341	-0.000017
H182	H	0.489433	0.510674	0.333316
H183	H	0.822766	0.844008	0.666649
H184	H	-0.075675	1.053755	0.616960
H185	H	0.257659	1.387088	0.950293
H186	H	0.590992	1.720421	1.283626
H187	H	-0.067687	1.046635	0.775536
H188	H	0.265646	1.379968	1.108870
H189	H	0.598980	1.713301	1.442203
H190	H	0.148999	0.327746	-0.000035
H191	H	0.482332	0.661079	0.333299
H192	H	0.815665	0.994413	0.666632
H193	H	-0.045100	1.026391	0.224447
H194	H	0.288233	1.359725	0.557780
H195	H	0.621566	1.693058	0.891114
H196	H	-0.742866	1.087080	-0.000009
H197	H	-0.409533	1.420413	0.333324
H198	H	-0.076199	1.753747	0.666658
H199	H	-0.103440	0.194205	-0.000004
H200	H	0.229893	0.527539	0.333330
H201	H	0.563226	0.860872	0.666663
H202	H	-0.110543	0.344621	0.000009
H203	H	0.222790	0.677954	0.333343
H204	H	0.556124	1.011287	0.666676
H205	H	0.136933	0.863756	0.775545
H206	H	0.470267	1.197089	1.108879
H207	H	0.803600	1.530423	1.442212
H208	H	0.128940	0.870873	0.616981
H209	H	0.462273	1.204206	0.950315
H210	H	0.795606	1.537539	1.283648
H211	H	-0.595732	1.099754	-0.000004
H212	H	-0.262399	1.433087	0.333329
H213	H	0.070935	1.766420	0.666662
H214	H	-0.692218	0.826927	-0.000008
H215	H	-0.358885	1.160260	0.333325
H216	H	-0.025551	1.493593	0.666658
H217	H	0.202374	0.545514	-0.000030
H218	H	0.535707	0.878847	0.333303
H219	H	0.869041	1.212181	0.666636
H220	H	-0.064264	0.712796	0.000008
H221	H	0.269070	1.046129	0.333342
H222	H	0.602403	1.379462	0.666675
H223	H	0.167497	0.836385	0.383032
H224	H	0.500831	1.169719	0.716365
H225	H	0.834164	1.503052	1.049698
H226	H	-0.545096	0.839598	-0.000026
H227	H	-0.211762	1.172931	0.333307
H228	H	0.121571	1.506264	0.666640
H229	H	-0.215952	1.063209	0.000011
H230	H	0.117382	1.396543	0.333344
H231	H	0.450715	1.729876	0.666677
H232	H	-0.312443	0.790389	-0.000020
H233	H	0.020891	1.123722	0.333313
H234	H	0.354224	1.457055	0.666647
H235	H	-0.165305	0.803055	-0.000011
H236	H	0.168028	1.136388	0.333322
H237	H	0.501361	1.469722	0.666655
H238	H	-0.057162	0.562392	-0.000002
H239	H	0.276172	0.895726	0.333331
H240	H	0.609505	1.229059	0.666664
H241	H	-0.449855	0.851455	-0.000015
H242	H	-0.116521	1.184789	0.333319
H243	H	0.216812	1.518122	0.666652
H244	H	-0.458322	1.038682	-0.000031
H245	H	-0.124989	1.372015	0.333302
H246	H	0.208344	1.705349	0.666635
