data_functionalizedCrystal
_audit_creation_method	'MofGen! by Chris Wilmer'
_symmetry_space_group_name_H-M	'P1'
_symmetry_Int_Tables_number	1
_symmetry_cell_setting	triclinic
loop_
_symmetry_equiv_pos_as_xyz
  x,y,z
_cell_length_a	13.262402
_cell_length_b	12.837942
_cell_length_c	11.892052
_cell_angle_alpha	86.036260
_cell_angle_beta	78.469486
_cell_angle_gamma	90.565596
loop_
_atom_site_label
_atom_site_type_symbol
_atom_site_fract_x
_atom_site_fract_y
_atom_site_fract_z
O1	O	1.383421	-0.118758	-0.331367
O2	O	1.085768	-0.139729	-0.239844
O3	O	1.227994	0.021561	-0.283583
O4	O	1.241195	-0.280047	-0.287628
O5	O	1.215097	0.033207	-0.467627
O6	O	1.072871	-0.128083	-0.423888
O7	O	1.370523	-0.107112	-0.515411
Zn8	Zn	1.219649	-0.115748	-0.498870
Zn9	Zn	1.236642	-0.131092	-0.256385
O10	O	1.228298	-0.268402	-0.471672
C11	C	1.040957	-0.133800	-0.320070
C12	C	0.926647	-0.133472	-0.284921
C13	C	0.879974	-0.139664	-0.168083
C14	C	0.772573	-0.139366	-0.135061
C15	C	0.711836	-0.132867	-0.218874
C16	C	0.758510	-0.126666	-0.335715
C17	C	0.865920	-0.126973	-0.368740
C18	C	0.697783	-0.120175	-0.419531
C19	C	0.744456	-0.113975	-0.536372
C20	C	0.851856	-0.114281	-0.569391
C21	C	0.912594	-0.120780	-0.485578
C22	C	0.590372	-0.119868	-0.386505
C23	C	0.576319	-0.107177	-0.587162
C24	C	0.683719	-0.107476	-0.620185
C25	C	1.217086	0.065937	-0.374233
C26	C	1.203787	0.180814	-0.370142
C27	C	1.415335	-0.113041	-0.435183
C28	C	1.529645	-0.113370	-0.470324
C29	C	1.239206	-0.312778	-0.381019
C30	C	1.252506	-0.427656	-0.385103
N31	N	1.208060	-0.105276	-0.664363
C32	C	1.363673	0.424173	-0.419281
C33	C	1.351182	0.532111	-0.415438
C34	C	1.166315	0.504630	-0.358606
C35	C	1.178806	0.396692	-0.362449
C36	C	1.277488	0.356468	-0.392789
C37	C	1.289978	0.248528	-0.396639
C38	C	1.105112	0.221049	-0.339799
C39	C	1.092621	0.328987	-0.335957
C40	C	1.127423	-0.032416	-0.817117
C41	C	1.135515	-0.039734	-0.701262
C42	C	1.272519	-0.163503	-0.743329
C43	C	1.264427	-0.156185	-0.859184
C44	C	1.191876	-0.090641	-0.896073
C45	C	1.183780	-0.083330	-1.011929
C46	C	1.320788	-0.207093	-1.053994
C47	C	1.328880	-0.214410	-0.938139
N48	N	1.248239	-0.141557	-0.090895
H49	H	0.734580	-0.144415	-0.039929
H50	H	0.526866	-0.101888	-0.655410
H51	H	1.034933	0.165912	-0.318236
H52	H	1.370330	0.215780	-0.421348
H53	H	1.331596	-0.216856	-0.713275
C54	C	1.472223	0.379924	-0.452661
N55	N	1.553985	0.346597	-0.477802
C56	C	0.984074	0.373248	-0.302597
N57	N	0.902314	0.406585	-0.277478
H58	H	1.421364	0.587233	-0.437008
C59	C	0.735073	-0.100696	-0.748707
N60	N	0.773753	-0.095604	-0.845510
C61	C	1.057771	0.548898	-0.325245
N62	N	0.976015	0.582242	-0.300125
H63	H	1.373264	-0.254511	-1.118292
H64	H	0.929435	-0.144963	-0.099855
H65	H	1.124701	-0.029964	-1.041960
H66	H	1.068341	0.020943	-0.847150
C67	C	1.408689	-0.286499	-0.897548
N68	N	1.468801	-0.340798	-0.866976
C69	C	0.539044	-0.126679	-0.257983
N70	N	0.500386	-0.131805	-0.161173
C71	C	1.030744	-0.121057	-0.521898
N72	N	1.119736	-0.121248	-0.549250
C73	C	1.064608	0.024315	-0.614413
N74	N	1.011198	0.072559	-0.548997
H75	H	0.624386	-0.132624	-0.191980
H76	H	0.889854	-0.109242	-0.664530
