data_functionalizedCrystal
_audit_creation_method	'MofGen! by Chris Wilmer'
_symmetry_space_group_name_H-M	'P1'
_symmetry_Int_Tables_number	1
_symmetry_cell_setting	triclinic
loop_
_symmetry_equiv_pos_as_xyz
  x,y,z
_cell_length_a	27.732048
_cell_length_b	27.732064
_cell_length_c	22.010155
_cell_angle_alpha	90.006218
_cell_angle_beta	90.024055
_cell_angle_gamma	97.353960
loop_
_atom_site_label
_atom_site_type_symbol
_atom_site_fract_x
_atom_site_fract_y
_atom_site_fract_z
O1	O	0.057566	-0.640918	0.050423
O2	O	0.557566	-0.140918	0.550423
O3	O	0.066303	-0.500126	0.050449
O4	O	0.566303	-0.000126	0.550449
O5	O	-0.008462	-0.574895	0.050424
O6	O	0.491538	-0.074895	0.550424
O7	O	0.132331	-0.566150	0.050449
O8	O	0.632331	-0.066150	0.550449
O9	O	-0.008486	-0.574896	-0.050627
O10	O	0.491514	-0.074896	0.449373
O11	O	0.066279	-0.500127	-0.050601
O12	O	0.566279	-0.000127	0.449399
O13	O	0.057542	-0.640919	-0.050627
O14	O	0.557542	-0.140919	0.449373
Cu15	Cu	0.061909	-0.570523	-0.059841
Cu16	Cu	0.561909	-0.070523	0.440159
Cu17	Cu	0.061936	-0.570522	0.059663
Cu18	Cu	0.561936	-0.070522	0.559663
O19	O	0.132307	-0.566150	-0.050602
O20	O	0.632307	-0.066150	0.449398
C21	C	-0.026481	-0.574712	-0.000103
C22	C	0.473519	-0.074712	0.499897
C23	C	-0.080136	-0.574159	-0.000108
C24	C	0.419864	-0.074159	0.499892
C25	C	0.066106	-0.482120	-0.000073
C26	C	0.566106	0.017880	0.499927
C27	C	0.065550	-0.428465	-0.000064
C28	C	0.565550	0.071535	0.499936
C29	C	0.057739	-0.658925	-0.000104
C30	C	0.557739	-0.158925	0.499896
C31	C	0.058295	-0.712580	-0.000109
C32	C	0.558295	-0.212580	0.499891
C33	C	-0.418948	-0.614862	-0.000084
C34	C	0.081052	-0.114862	0.499916
C35	C	-0.620608	-0.612811	-0.000075
C36	C	-0.120608	-0.112811	0.499925
O37	O	-0.651862	-0.650032	-0.000056
O38	O	-0.151862	-0.150032	0.499944
N39	N	-0.639735	-0.568476	-0.000068
N40	N	-0.139735	-0.068476	0.499932
C41	C	-0.608442	-0.524651	-0.000058
C42	C	-0.108442	-0.024651	0.499942
O43	O	-0.629338	-0.486895	-0.000045
O44	O	-0.129338	0.013105	0.499955
C45	C	-0.406784	-0.526703	-0.000063
C46	C	0.093216	-0.026703	0.499937
C47	C	-0.387660	-0.571040	-0.000077
C48	C	0.112340	-0.071040	0.499923
C49	C	-0.399824	-0.659196	-0.000097
C50	C	0.100176	-0.159196	0.499903
C51	C	-0.349413	-0.659709	-0.000103
C52	C	0.150587	-0.159709	0.499897
C53	C	-0.318124	-0.615887	-0.000095
C54	C	0.181876	-0.115887	0.499905
C55	C	-0.337248	-0.571553	-0.000082
C56	C	0.162752	-0.071553	0.499918
C57	C	-0.375493	-0.482878	-0.000049
C58	C	0.124507	0.017122	0.499951
C59	C	-0.325075	-0.483395	-0.000049
C60	C	0.174925	0.016605	0.499951
C61	C	-0.305952	-0.527733	-0.000063
C62	C	0.194048	-0.027733	0.499937
C63	C	-0.255548	-0.528243	-0.000080
C64	C	0.244452	-0.028243	0.499920
N65	N	-0.236422	-0.572578	-0.000088
N66	N	0.263578	-0.072578	0.499912
C67	C	-0.267710	-0.616400	-0.000095
C68	C	0.232290	-0.116400	0.499905
C69	C	-0.714317	-0.523577	-0.000057
C70	C	-0.214317	-0.023577	0.499943
C71	C	-0.764731	-0.523064	-0.000057
C72	C	-0.264731	-0.023064	0.499943
C73	C	-0.776893	-0.611225	-0.000073
C74	C	-0.276893	-0.111225	0.499927
C75	C	-0.726478	-0.611737	-0.000077
C76	C	-0.226478	-0.111737	0.499923
C77	C	-0.695190	-0.567912	-0.000065
C78	C	-0.195190	-0.067912	0.499935
C79	C	-0.161841	-0.617472	-0.000107
C80	C	0.338159	-0.117472	0.499893
C81	C	-0.111424	-0.617981	-0.000115
C82	C	0.388576	-0.117981	0.499885
C83	C	-0.099266	-0.529821	-0.000096
C84	C	0.400734	-0.029821	0.499904
C85	C	-0.149679	-0.529312	-0.000092
C86	C	0.350321	-0.029312	0.499908
C87	C	-0.180965	-0.573142	-0.000095
C88	C	0.319035	-0.073142	0.499905
O89	O	-0.224267	-0.491043	-0.000093
O90	O	0.275733	0.008957	0.499907
O91	O	-0.246805	-0.654151	-0.000095
O92	O	0.253195	-0.154151	0.499905
C93	C	-0.469360	-0.614350	-0.000079
C94	C	0.030640	-0.114350	0.499921
C95	C	-0.488484	-0.570016	-0.000066
C96	C	0.011516	-0.070016	0.499934
C97	C	-0.457196	-0.526194	-0.000058
C98	C	0.042804	-0.026194	0.499942
C99	C	-0.538899	-0.569503	-0.000066
C100	C	-0.038899	-0.069503	0.499934
C101	C	-0.570187	-0.613325	-0.000073
C102	C	-0.070187	-0.113325	0.499927
C103	C	-0.551060	-0.657660	-0.000081
C104	C	-0.051060	-0.157660	0.499919
C105	C	-0.500648	-0.658172	-0.000086
C106	C	-0.000648	-0.158172	0.499914
C107	C	-0.476323	-0.481859	-0.000050
C108	C	0.023677	0.018141	0.499950
C109	C	-0.526735	-0.481351	-0.000046
C110	C	-0.026735	0.018649	0.499954
C111	C	-0.558023	-0.525172	-0.000053
C112	C	-0.058023	-0.025172	0.499947
C113	C	0.150326	-0.566333	-0.000074
C114	C	0.650326	-0.066333	0.499926
C115	C	0.203981	-0.566886	-0.000065
C116	C	0.703981	-0.066886	0.499935
C117	C	0.017583	-0.051392	-0.000107
C118	C	0.517583	0.448608	0.499893
C119	C	0.019630	-0.253053	-0.000090
C120	C	0.519630	0.246947	0.499910
O121	O	-0.017591	-0.284305	-0.000120
O122	O	0.482409	0.215695	0.499880
N123	N	0.063964	-0.272180	-0.000080
N124	N	0.563964	0.227820	0.499920
C125	C	0.107790	-0.240889	-0.000077
C126	C	0.607790	0.259111	0.499923
O127	O	0.145546	-0.261785	-0.000074
O128	O	0.645546	0.238215	0.499926
C129	C	0.105743	-0.039230	-0.000098
C130	C	0.605743	0.460770	0.499902
C131	C	0.061406	-0.020105	-0.000102
C132	C	0.561406	0.479895	0.499898
C133	C	-0.026750	-0.032267	-0.000112
C134	C	0.473250	0.467733	0.499888
C135	C	-0.027261	0.018145	-0.000112
C136	C	0.472739	0.518145	0.499888
C137	C	0.016561	0.049432	-0.000108
C138	C	0.516561	0.549432	0.499892
C139	C	0.060895	0.030307	-0.000103
C140	C	0.560895	0.530307	0.499897
C141	C	0.149568	-0.007940	-0.000100
C142	C	0.649568	0.492060	0.499900
C143	C	0.149053	0.042478	-0.000106
C144	C	0.649053	0.542478	0.499894
C145	C	0.104716	0.061602	-0.000111
C146	C	0.604716	0.561602	0.499889
C147	C	0.104206	0.112006	-0.000099
C148	C	0.604206	0.612006	0.499901
N149	N	0.059872	0.131133	-0.000110
N150	N	0.559872	0.631133	0.499890
C151	C	0.016049	0.099846	-0.000114
C152	C	0.516049	0.599846	0.499886
C153	C	0.108861	-0.346763	-0.000065
C154	C	0.608861	0.153237	0.499935
C155	C	0.109373	-0.397178	-0.000059
C156	C	0.609373	0.102822	0.499941
C157	C	0.021213	-0.409338	-0.000073
C158	C	0.521213	0.090662	0.499927
C159	C	0.020701	-0.358923	-0.000075
C160	C	0.520701	0.141077	0.499925
C161	C	0.064527	-0.327636	-0.000076
C162	C	0.564527	0.172364	0.499924
C163	C	0.014979	0.205716	-0.000115
C164	C	0.514979	0.705716	0.499885
C165	C	0.014472	0.256133	-0.000113
C166	C	0.514472	0.756133	0.499887
C167	C	0.102632	0.268289	-0.000103
C168	C	0.602632	0.768289	0.499897
C169	C	0.103140	0.217876	-0.000101
C170	C	0.603140	0.717876	0.499899
C171	C	0.059309	0.186590	-0.000110
C172	C	0.559309	0.686590	0.499890
O173	O	0.141407	0.143287	-0.000077
O174	O	0.641407	0.643287	0.499923
O175	O	-0.021701	0.120752	-0.000131
O176	O	0.478299	0.620752	0.499869
C177	C	0.018094	-0.101805	-0.000106
C178	C	0.518094	0.398195	0.499894
C179	C	0.062428	-0.120930	-0.000101
C180	C	0.562428	0.379070	0.499899
C181	C	0.106250	-0.089642	-0.000097
C182	C	0.606250	0.410358	0.499903
C183	C	0.062940	-0.171344	-0.000095
C184	C	0.562940	0.328656	0.499905
C185	C	0.019117	-0.202631	-0.000099
C186	C	0.519117	0.297369	0.499901
C187	C	-0.025217	-0.183504	-0.000109
C188	C	0.474783	0.316496	0.499891
C189	C	-0.025728	-0.133092	-0.000110
C190	C	0.474272	0.366908	0.499890
C191	C	0.150585	-0.108770	-0.000086
C192	C	0.650585	0.391230	0.499914
C193	C	0.151092	-0.159183	-0.000085
C194	C	0.651092	0.340817	0.499915
C195	C	0.107270	-0.190470	-0.000089
C196	C	0.607270	0.309530	0.499911
N197	N	0.061889	-0.570527	-0.143893
N198	N	0.561889	-0.070527	0.356107
N199	N	0.061952	-0.570522	0.143715
N200	N	0.561952	-0.070522	0.643715
C201	C	0.032726	-0.541496	0.563495
C202	C	0.532726	-0.041496	1.063495
C203	C	0.032720	-0.541497	0.627102
C204	C	0.532720	-0.041497	1.127102
O205	O	0.007889	-0.516820	0.659994
O206	O	0.507889	-0.016820	1.159994
N207	N	0.061899	-0.570529	0.658922
N208	N	0.561899	-0.070529	1.158922
C209	C	0.091083	-0.599564	0.627132
C210	C	0.591083	-0.099564	1.127132
O211	O	0.115901	-0.624258	0.660038
O212	O	0.615901	-0.124258	1.160038
C213	C	0.091086	-0.599565	0.563525
C214	C	0.591086	-0.099565	1.063525
C215	C	0.061908	-0.570528	0.531708
C216	C	0.561908	-0.070528	1.031708
C217	C	0.003550	-0.512461	0.531678
C218	C	0.503550	-0.012461	1.031678
C219	C	0.003557	-0.512459	0.468075
C220	C	0.503557	-0.012459	0.968075
C221	C	0.032739	-0.541492	0.436288
C222	C	0.532739	-0.041492	0.936288
C223	C	0.061915	-0.570526	0.468105
C224	C	0.561915	-0.070526	0.968105
C225	C	0.120267	-0.628603	0.531735
C226	C	0.620267	-0.128603	1.031735
C227	C	0.120267	-0.628602	0.468125
C228	C	0.620267	-0.128602	0.968125
C229	C	0.091089	-0.599565	0.436308
C230	C	0.591089	-0.099565	0.936308
C231	C	0.091104	-0.599557	0.372716
C232	C	0.591104	-0.099557	0.872716
N233	N	0.061925	-0.570525	0.340896
N234	N	0.561925	-0.070525	0.840896
C235	C	0.032742	-0.541493	0.372682
C236	C	0.532742	-0.041493	0.872682
C237	C	0.091074	-0.599561	0.760709
C238	C	0.591074	-0.099561	1.260709
C239	C	0.091074	-0.599558	0.824315
C240	C	0.591074	-0.099558	1.324315
C241	C	0.032710	-0.541491	0.824281
C242	C	0.532710	-0.041491	1.324281
C243	C	0.032713	-0.541492	0.760675
C244	C	0.532713	-0.041492	1.260675
C245	C	0.061894	-0.570529	0.728889
C246	C	0.561894	-0.070529	1.228889
C247	C	0.032759	-0.541490	0.239111
C248	C	0.532759	-0.041490	0.739111
C249	C	0.032770	-0.541490	0.175502
C250	C	0.532770	-0.041490	0.675502
C251	C	0.091131	-0.599558	0.175541
C252	C	0.591131	-0.099558	0.675541
C253	C	0.091123	-0.599557	0.239144
C254	C	0.591123	-0.099557	0.739144
C255	C	0.061933	-0.570522	0.270927
C256	C	0.561933	-0.070522	0.770927
O257	O	0.115921	-0.624222	0.339784
O258	O	0.615921	-0.124222	0.839784
O259	O	0.007923	-0.516808	0.339768
O260	O	0.507923	-0.016808	0.839768
H261	H	-0.095857	-0.654087	-0.000128
H262	H	0.404143	-0.154087	0.499872
O263	O	0.004414	-0.513215	0.855134
O264	O	0.504414	-0.013215	1.355134
C265	C	-0.014090	-0.432065	0.874569
C266	C	0.485910	0.067935	1.374569
C267	C	0.017993	-0.464028	0.839602
C268	C	0.517993	0.035972	1.339602
H269	H	-0.003130	-0.392292	0.862015
H270	H	0.496870	0.107708	1.362015
H271	H	-0.009077	-0.437010	0.925503
H272	H	0.490923	0.062990	1.425503
H273	H	-0.053843	-0.443239	0.862043
H274	H	0.446157	0.056761	1.362043
H275	H	0.057757	-0.452875	0.852077
H276	H	0.557757	0.047125	1.352077
H277	H	0.012938	-0.459079	0.788677
H278	H	0.512938	0.040921	1.288677
O279	O	-0.581410	-0.700260	-0.000005
O280	O	-0.081410	-0.200260	0.499995
C281	C	-0.607243	-0.775434	0.052359
C282	C	-0.107243	-0.275434	0.552359
C283	C	-0.572835	-0.727216	0.052337
C284	C	-0.072835	-0.227216	0.552337
H285	H	-0.600330	-0.797236	0.094679
H286	H	-0.100330	-0.297236	0.594679
H287	H	-0.600347	-0.797310	0.010095
H288	H	-0.100347	-0.297310	0.510095
H289	H	-0.646555	-0.767434	0.052335
H290	H	-0.146555	-0.267434	0.552335
H291	H	-0.533511	-0.735171	0.052382
H292	H	-0.033511	-0.235171	0.552382
H293	H	-0.579774	-0.705354	0.094597
H294	H	-0.079774	-0.205354	0.594597
O295	O	-0.024719	-0.484201	0.437144
O296	O	0.475281	0.015799	0.937144
C297	C	-0.027205	-0.419012	0.365292
C298	C	0.472795	0.080988	0.865292
C299	C	0.004879	-0.450971	0.400288
C300	C	0.504879	0.049029	0.900288
H301	H	-0.003290	-0.392145	0.335476
H302	H	0.496710	0.107855	0.835476
H303	H	-0.048037	-0.398215	0.398916
H304	H	0.451963	0.101785	0.898916
H305	H	-0.054049	-0.443045	0.335541
H306	H	0.445951	0.056955	0.835541
H307	H	0.031750	-0.426974	0.430040
H308	H	0.531750	0.073026	0.930040
H309	H	0.025677	-0.471773	0.366631
H310	H	0.525677	0.028227	0.866631
O311	O	-0.021370	-0.439715	0.000027
O312	O	0.478630	0.060285	0.500027
C313	C	-0.096567	-0.465519	0.052335
C314	C	0.403433	0.034481	0.552335
C315	C	-0.048359	-0.431096	0.052310
C316	C	0.451641	0.068904	0.552310
H317	H	-0.118406	-0.458555	0.094595
H318	H	0.381594	0.041445	0.594595
H319	H	-0.088610	-0.504845	0.052379
H320	H	0.411390	-0.004845	0.552379
H321	H	-0.118392	-0.458618	0.010018
H322	H	0.381608	0.041382	0.510018
H323	H	-0.026511	-0.437953	0.094620
H324	H	0.473489	0.062047	0.594620
H325	H	-0.056351	-0.391781	0.052235
H326	H	0.443649	0.108219	0.552235
O327	O	-0.024812	-0.484211	0.562455
O328	O	0.475188	0.015789	1.062455
C329	C	-0.082714	-0.426632	0.555687
C330	C	0.417286	0.073368	1.055687
C331	C	-0.050611	-0.458601	0.520763
C332	C	0.449389	0.041399	1.020763
H333	H	-0.103589	-0.405926	0.521994
H334	H	0.396411	0.094074	1.021994
H335	H	-0.058826	-0.399684	0.585464
H336	H	0.441174	0.100316	1.085464
H337	H	-0.109521	-0.450650	0.585466
H338	H	0.390479	0.049350	1.085466
H339	H	-0.023799	-0.434621	0.490952
H340	H	0.476201	0.065379	0.990952
H341	H	-0.074530	-0.485552	0.491025
H342	H	0.425470	0.014448	0.991025
H343	H	0.139243	0.202304	-0.000097
H344	H	0.639243	0.702304	0.499903
O345	O	-0.192159	-0.660092	-0.000140
O346	O	0.307841	-0.160092	0.499860
C347	C	-0.198888	-0.747588	-0.000128
C348	C	0.301112	-0.247588	0.499872
C349	C	-0.164498	-0.699358	-0.000100
C350	C	0.335502	-0.199358	0.499900
H351	H	-0.176538	-0.779347	-0.000083
H352	H	0.323462	-0.279347	0.499917
H353	H	-0.222802	-0.749588	-0.042426
H354	H	0.277198	-0.249588	0.457574
H355	H	-0.222789	-0.749531	0.042153
H356	H	0.277211	-0.249531	0.542153
H357	H	-0.140566	-0.697383	-0.042352
H358	H	0.359434	-0.197383	0.457648
H359	H	-0.140617	-0.697378	0.042226
H360	H	0.359383	-0.197378	0.542226
O361	O	-0.330920	-0.702821	-0.000084
O362	O	0.169080	-0.202821	0.499916
C363	C	-0.348323	-0.790209	-0.000133
C364	C	0.151677	-0.290209	0.499867
C365	C	-0.369325	-0.741416	-0.000142
C366	C	0.130675	-0.241416	0.499858
H367	H	-0.379363	-0.821425	-0.000192
H368	H	0.120637	-0.321425	0.499808
H369	H	-0.325029	-0.792689	0.042166
H370	H	0.174971	-0.292689	0.542166
H371	H	-0.325023	-0.792632	-0.042413
H372	H	0.174977	-0.292632	0.457587
H373	H	-0.392647	-0.738959	0.042110
H374	H	0.107353	-0.238959	0.542110
H375	H	-0.392592	-0.738957	-0.042468
H376	H	0.107408	-0.238957	0.457532
O377	O	-0.070373	0.036638	-0.000152
O378	O	0.429627	0.536638	0.499848
C379	C	-0.157761	0.019237	-0.000139
C380	C	0.342239	0.519237	0.499861
C381	C	-0.108969	-0.001766	-0.000105
C382	C	0.391031	0.498234	0.499895
H383	H	-0.188978	-0.011802	-0.000088
H384	H	0.311022	0.488198	0.499912
H385	H	-0.160249	0.042508	-0.042443
H386	H	0.339751	0.542508	0.457557
H387	H	-0.160175	0.042560	0.042136
H388	H	0.339825	0.542560	0.542136
H389	H	-0.106522	-0.025111	-0.042351
H390	H	0.393478	0.474889	0.457649
H391	H	-0.106501	-0.025010	0.042227
H392	H	0.393499	0.474990	0.542227
H393	H	-0.062438	-0.057737	-0.000117
H394	H	0.437562	0.442263	0.499883
H395	H	0.008954	-0.517847	0.734774
H396	H	0.508954	-0.017847	1.234774
O397	O	0.004476	-0.513254	0.270045
O398	O	0.504476	-0.013254	0.770045
C399	C	0.002004	-0.448001	0.341823
C400	C	0.502004	0.051999	0.841823
C401	C	0.034085	-0.479955	0.306840
C402	C	0.534085	0.020045	0.806840
H403	H	0.025931	-0.421064	0.371570
H404	H	0.525931	0.078936	0.871570
H405	H	-0.024816	-0.471986	0.371623
H406	H	0.475184	0.028014	0.871623
H407	H	-0.018855	-0.427274	0.308136
H408	H	0.481145	0.072726	0.808136
H409	H	0.054976	-0.500687	0.340483
H410	H	0.554976	-0.000687	0.840483
H411	H	0.060875	-0.455944	0.277031
H412	H	0.560875	0.044056	0.777031
H413	H	0.138311	0.293772	-0.000096
H414	H	0.638311	0.793772	0.499904
O415	O	0.119523	-0.627688	0.270084
O416	O	0.619523	-0.127688	0.770084
C417	C	0.184761	-0.629877	0.341976
C418	C	0.684761	-0.129877	0.841976
C419	C	0.152645	-0.597956	0.306970
C420	C	0.652645	-0.097956	0.806970
H421	H	0.211542	-0.605854	0.371817
H422	H	0.711542	-0.105854	0.871817
H423	H	0.205658	-0.650616	0.308358
H424	H	0.705658	-0.150616	0.808358
H425	H	0.160832	-0.656803	0.371702
H426	H	0.660832	-0.156803	0.871702
H427	H	0.176539	-0.571004	0.277243
H428	H	0.676539	-0.071004	0.777243
H429	H	0.131745	-0.577252	0.340621
H430	H	0.631745	-0.077252	0.840621
H431	H	0.114839	-0.623197	0.850215
H432	H	0.614839	-0.123197	1.350215
H433	H	0.009010	-0.517842	0.149599
H434	H	0.509010	-0.017842	0.649599
O435	O	0.148587	-0.656878	0.437316
O436	O	0.648587	-0.156878	0.937316
C437	C	0.167047	-0.738037	0.417833
C438	C	0.667047	-0.238037	0.917833
C439	C	0.134948	-0.706072	0.452770
C440	C	0.634948	-0.206072	0.952770
H441	H	0.156024	-0.777818	0.430304
H442	H	0.656024	-0.277818	0.930304
H443	H	0.206806	-0.726931	0.430381
H444	H	0.706806	-0.226931	0.930381
H445	H	0.162051	-0.733026	0.366909
H446	H	0.662051	-0.233026	0.866909
H447	H	0.139901	-0.711068	0.503702
H448	H	0.639901	-0.211068	1.003702
H449	H	0.095200	-0.717186	0.440171
H450	H	0.595200	-0.217186	0.940171
O451	O	-0.683877	-0.481035	-0.000130
O452	O	-0.183877	0.018965	0.499870
C453	C	-0.619943	-0.430429	-0.052492
C454	C	-0.119943	0.069571	0.447508
C455	C	-0.654377	-0.478631	-0.052476
C456	C	-0.154377	0.021369	0.447524
H457	H	-0.596089	-0.428466	-0.094816
H458	H	-0.096089	0.071534	0.405184
H459	H	-0.595988	-0.428453	-0.010231
H460	H	-0.095988	0.071547	0.489769
H461	H	-0.642287	-0.398666	-0.052459
H462	H	-0.142287	0.101334	0.447541
H463	H	-0.632071	-0.510422	-0.052531
H464	H	-0.132071	-0.010422	0.447469
H465	H	-0.678333	-0.480564	-0.094733
H466	H	-0.178333	0.019436	0.405267
O467	O	0.192681	-0.026428	-0.000127
O468	O	0.692681	0.473572	0.499873
C469	C	0.280068	-0.009025	-0.000096
C470	C	0.780068	0.490975	0.499904
C471	C	0.231275	0.011977	-0.000077
C472	C	0.731275	0.511977	0.499923
H473	H	0.311284	0.022016	-0.000042
H474	H	0.811284	0.522016	0.499958
H475	H	0.282534	-0.032310	-0.042396
H476	H	0.782534	0.467690	0.457604
H477	H	0.282507	-0.032333	0.042183
H478	H	0.782507	0.467667	0.542183
H479	H	0.228803	0.035307	-0.042328
H480	H	0.728803	0.535307	0.457672
H481	H	0.228830	0.035235	0.042251
H482	H	0.728830	0.535235	0.542251
O483	O	-0.028630	0.274652	-0.000038
O484	O	0.471370	0.774652	0.499962
C485	C	-0.104112	0.279706	0.052319
C486	C	0.395888	0.779706	0.552319
C487	C	-0.055323	0.258695	0.052304
C488	C	0.444677	0.758695	0.552304
H489	H	-0.125703	0.266821	0.094640
H490	H	0.374297	0.766821	0.594640
H491	H	-0.125791	0.266774	0.010055
H492	H	0.374209	0.766774	0.510055
H493	H	-0.096942	0.321113	0.052291
H494	H	0.403058	0.821113	0.552291
H495	H	-0.062449	0.217288	0.052354
H496	H	0.437551	0.717288	0.552354
H497	H	-0.033659	0.271665	0.094564
H498	H	0.466341	0.771665	0.594564
O499	O	-0.067831	-0.213832	-0.000087
O500	O	0.432169	0.286168	0.499913
C501	C	-0.155328	-0.220590	-0.000140
C502	C	0.344672	0.279410	0.499860
C503	C	-0.107108	-0.186185	-0.000148
C504	C	0.392892	0.313815	0.499852
H505	H	-0.187096	-0.198251	-0.000203
H506	H	0.312904	0.301749	0.499797
H507	H	-0.157313	-0.244482	0.042159
H508	H	0.342687	0.255518	0.542159
H509	H	-0.157272	-0.244512	-0.042420
H510	H	0.342728	0.255488	0.457580
H511	H	-0.105133	-0.162233	0.042102
H512	H	0.394867	0.337767	0.542102
H513	H	-0.105143	-0.162326	-0.042476
H514	H	0.394857	0.337674	0.457524
H515	H	-0.061832	-0.117526	-0.000114
H516	H	0.438168	0.382474	0.499886
H517	H	0.114841	-0.623205	0.734834
H518	H	0.614841	-0.123205	1.234834
H519	H	-0.542300	-0.445243	-0.000040
H520	H	-0.042300	0.054757	0.499960
O521	O	-0.446002	-0.439244	-0.000074
O522	O	0.053998	0.060756	0.499926
C523	C	-0.439271	-0.351748	-0.000030
C524	C	0.060729	0.148252	0.499970
C525	C	-0.473662	-0.399977	-0.000013
C526	C	0.026338	0.100023	0.499987
H527	H	-0.461621	-0.319988	0.000032
H528	H	0.038379	0.180012	0.500032
H529	H	-0.415392	-0.349750	-0.042333
H530	H	0.084608	0.150250	0.457667
H531	H	-0.415336	-0.349804	0.042246
H532	H	0.084664	0.150196	0.542246
H533	H	-0.497628	-0.401954	-0.042260
H534	H	0.002372	0.098046	0.457740
H535	H	-0.497509	-0.401955	0.042318
H536	H	0.002491	0.098045	0.542318
O537	O	0.119448	-0.627829	0.144723
O538	O	0.619448	-0.127829	0.644723
C539	C	0.137897	-0.708989	0.125221
C540	C	0.637897	-0.208989	0.625221
C541	C	0.105807	-0.677024	0.160172
C542	C	0.605807	-0.177024	0.660172
H543	H	0.126873	-0.748770	0.137689
H544	H	0.626873	-0.248770	0.637689
H545	H	0.177659	-0.697887	0.137760
H546	H	0.677659	-0.197887	0.637760
H547	H	0.132893	-0.703973	0.074299
H548	H	0.632893	-0.203973	0.574299
H549	H	0.110768	-0.682024	0.211102
H550	H	0.610768	-0.182024	0.711102
H551	H	0.066057	-0.688134	0.147583
H552	H	0.566057	-0.188134	0.647583
O553	O	-0.294752	-0.440778	-0.000064
O554	O	0.205248	0.059222	0.499936
C555	C	-0.288014	-0.353281	-0.000000
C556	C	0.211986	0.146719	0.500000
C557	C	-0.322408	-0.401508	0.000003
C558	C	0.177592	0.098492	0.500003
H559	H	-0.310360	-0.321519	0.000066
H560	H	0.189640	0.178481	0.500066
H561	H	-0.264131	-0.351279	-0.042301
H562	H	0.235869	0.148721	0.457699
H563	H	-0.264082	-0.351345	0.042278
H564	H	0.235918	0.148655	0.542278
H565	H	-0.346371	-0.403477	-0.042247
H566	H	0.153629	0.096523	0.457753
H567	H	-0.346258	-0.403490	0.042331
H568	H	0.153742	0.096510	0.542331
O569	O	0.148678	-0.656785	0.562563
O570	O	0.648678	-0.156785	1.062563
C571	C	0.229961	-0.674887	0.582077
C572	C	0.729961	-0.174887	1.082077
C573	C	0.197839	-0.642941	0.547120
C574	C	0.697839	-0.142941	1.047120
H575	H	0.269715	-0.663699	0.569614
H576	H	0.769715	-0.163699	1.069614
H577	H	0.219018	-0.714671	0.569536
H578	H	0.719018	-0.214671	1.069536
H579	H	0.224927	-0.669919	0.632998
H580	H	0.724927	-0.169919	1.132998
H581	H	0.202856	-0.647867	0.496191
H582	H	0.702856	-0.147867	0.996191
H583	H	0.208789	-0.603169	0.559711
H584	H	0.708789	-0.103169	1.059711
H585	H	-0.425295	-0.694884	-0.000101
H586	H	0.074705	-0.194884	0.499899
H587	H	-0.020712	0.180248	-0.000122
H588	H	0.479288	0.680248	0.499878
H589	H	-0.710911	-0.647841	-0.000088
H590	H	-0.210911	-0.147841	0.499912
O591	O	-0.168317	-0.486275	-0.000003
O592	O	0.331683	0.013725	0.499997
C593	C	-0.218129	-0.434520	0.052390
C594	C	0.281871	0.065480	0.552390
C595	C	-0.197066	-0.483282	0.052351
C596	C	0.302934	0.016718	0.552351
H597	H	-0.241369	-0.432080	0.094720
H598	H	0.258631	0.067920	0.594720
H599	H	-0.241479	-0.432069	0.010135
H600	H	0.258521	0.067931	0.510135
H601	H	-0.187097	-0.403295	0.052362
H602	H	0.312903	0.096705	0.552362
H603	H	-0.228067	-0.514535	0.052400
H604	H	0.271933	-0.014535	0.552400
H605	H	-0.173703	-0.485691	0.094602
H606	H	0.326297	0.014309	0.594602
O607	O	-0.807223	-0.653838	-0.000103
O608	O	-0.307223	-0.153838	0.499897
C609	C	-0.813981	-0.741336	-0.000066
C610	C	-0.313981	-0.241336	0.499934
C611	C	-0.779576	-0.693115	-0.000052
C612	C	-0.279576	-0.193115	0.499948
H613	H	-0.791643	-0.773104	-0.000012
H614	H	-0.291643	-0.273104	0.499988
H615	H	-0.837896	-0.743335	-0.042364
H616	H	-0.337896	-0.243335	0.457636
H617	H	-0.837881	-0.743263	0.042215
H618	H	-0.337881	-0.243263	0.542215
H619	H	-0.755646	-0.691156	-0.042305
H620	H	-0.255646	-0.191156	0.457695
H621	H	-0.755695	-0.691136	0.042273
H622	H	-0.255695	-0.191136	0.542273
H623	H	0.184742	0.067950	-0.000110
H624	H	0.684742	0.567950	0.499890
H625	H	-0.015402	-0.343355	-0.000079
H626	H	0.484598	0.156645	0.499921
H627	H	0.187200	-0.174748	-0.000077
H628	H	0.687200	0.325252	0.499923
H629	H	-0.780296	-0.486960	-0.000057
H630	H	-0.280296	0.013040	0.499943
H631	H	0.145477	-0.412744	-0.000047
H632	H	0.645477	0.087256	0.499953
O633	O	0.151481	-0.316443	-0.000035
O634	O	0.651481	0.183557	0.499965
C635	C	0.238977	-0.309716	-0.000052
C636	C	0.738977	0.190284	0.499948
C637	C	0.190746	-0.344105	-0.000076
C638	C	0.690746	0.155895	0.499924
H639	H	0.270735	-0.332067	-0.000098
H640	H	0.770735	0.167933	0.499902
H641	H	0.240988	-0.285810	0.042245
H642	H	0.740988	0.214190	0.542245
H643	H	0.240910	-0.285807	-0.042334
H644	H	0.740910	0.214193	0.457666
H645	H	0.188781	-0.368045	0.042177
H646	H	0.688781	0.131955	0.542177
H647	H	0.188755	-0.367978	-0.042401
H648	H	0.688755	0.132022	0.457599
H649	H	-0.391054	-0.446774	-0.000034
H650	H	0.108946	0.053226	0.499966
H651	H	-0.073782	-0.494142	-0.000092
H652	H	0.426218	0.005858	0.499908
H653	H	-0.485083	-0.694276	-0.000097
H654	H	0.014917	-0.194276	0.499903
H655	H	0.186271	-0.083300	-0.000083
H656	H	0.686271	0.416700	0.499917
