data_functionalizedCrystal
_audit_creation_method	'MofGen! by Chris Wilmer'
_symmetry_space_group_name_H-M	'P1'
_symmetry_Int_Tables_number	1
_symmetry_cell_setting	triclinic
loop_
_symmetry_equiv_pos_as_xyz
  x,y,z
_cell_length_a	10.489746
_cell_length_b	23.532357
_cell_length_c	9.565339
_cell_angle_alpha	89.994707
_cell_angle_beta	89.999333
_cell_angle_gamma	83.684797
loop_
_atom_site_label
_atom_site_type_symbol
_atom_site_fract_x
_atom_site_fract_y
_atom_site_fract_z
O1	O	1.691345	0.080356	-0.116185
O2	O	1.319897	0.087894	-0.116210
O3	O	1.516855	0.001266	-0.116168
O4	O	1.494387	0.166984	-0.116227
O5	O	1.516840	0.001271	0.116352
O6	O	1.319881	0.087900	0.116310
O7	O	1.691330	0.080361	0.116335
Zn8	Zn	1.505603	0.084131	0.153240
Zn9	Zn	1.505624	0.084124	-0.153115
O10	O	1.494371	0.166990	0.116293
C11	C	1.272377	0.087327	0.000047
C12	C	1.130805	0.085622	0.000039
C13	C	1.516286	-0.019952	0.000096
C14	C	1.514596	-0.083181	0.000109
C15	C	0.979836	0.029493	0.000078
C16	C	1.056278	0.057558	0.114709
C17	C	1.056248	0.057566	-0.114538
C18	C	0.954999	0.110677	0.114799
C19	C	0.954964	0.110677	-0.114550
C20	C	1.031356	0.138780	0.000108
C21	C	1.503997	-0.475266	-0.126714
C22	C	1.502390	-0.534676	-0.126722
O23	O	1.501524	-0.565401	-0.234515
N24	N	1.501586	-0.564390	0.000023
C25	C	1.502374	-0.534689	0.126784
O26	O	1.501540	-0.565418	0.234590
C27	C	1.503971	-0.475280	0.126791
C28	C	1.504789	-0.445570	0.000038
C29	C	1.504813	-0.445556	-0.253457
C30	C	1.506422	-0.386150	-0.253448
C31	C	1.507214	-0.356454	-0.126697
C32	C	1.506397	-0.386164	0.000046
C33	C	1.504750	-0.445580	0.253551
C34	C	1.506346	-0.386166	0.253546
C35	C	1.507164	-0.356457	0.126793
C36	C	1.508798	-0.297062	0.126806
N37	N	1.509603	-0.267349	0.000062
C38	C	1.508811	-0.297045	-0.126690
C39	C	1.499018	-0.659453	0.126761
C40	C	1.497430	-0.718862	0.126756
C41	C	1.497444	-0.718845	-0.126751
C42	C	1.499041	-0.659435	-0.126745
C43	C	1.499823	-0.629740	0.000016
C44	C	1.512190	-0.172288	-0.126662
C45	C	1.513804	-0.112877	-0.126642
C46	C	1.513783	-0.112900	0.126863
C47	C	1.512176	-0.172306	0.126844
C48	C	1.511375	-0.201998	0.000070
O49	O	1.509660	-0.266300	0.234545
O50	O	1.509628	-0.266308	-0.234477
C51	C	1.738850	0.080929	0.000075
C52	C	1.880422	0.082634	0.000074
C53	C	1.494941	0.188207	0.000025
C54	C	1.496631	0.251437	0.000003
N55	N	1.505599	0.084136	0.362319
N56	N	1.505639	0.084115	-0.362195
C57	C	1.414485	0.124185	0.453503
C58	C	1.529594	0.135709	0.546685
C59	C	1.390539	0.072617	0.546693
C60	C	1.620765	0.095686	0.453450
C61	C	1.481635	0.032570	0.453449
C62	C	1.596828	0.044073	0.546589
H63	H	0.956670	-0.016715	0.000210
C64	C	0.895508	0.140962	0.245881
N65	N	0.850697	0.163770	0.344613
H66	H	1.504086	-0.469760	0.356767
C67	C	1.310492	0.169982	0.398270
N68	N	1.232172	0.204477	0.356664
H69	H	1.673981	0.010194	0.587204
H70	H	1.718106	0.105472	0.412664
H71	H	1.496783	-0.743048	0.229971
H72	H	1.507083	-0.361966	-0.356664
C73	C	1.503997	-0.478215	-0.392906
N74	N	1.503411	-0.502812	-0.497948
C75	C	1.454165	-0.026310	0.398069
N76	N	1.433459	-0.070659	0.356352
H77	H	1.499705	-0.635249	-0.229958
C78	C	1.557004	0.194608	0.602028
N79	N	1.577639	0.238971	0.643711
C80	C	1.062332	0.201250	0.000173
N81	N	1.085669	0.248301	0.000230
H82	H	1.100502	0.035127	0.211640
C83	C	0.895176	0.140950	-0.245506
N84	N	0.850141	0.163747	-0.344154
C85	C	1.259064	0.059463	0.602019
N86	N	1.160033	0.049559	0.643684
C87	C	1.507211	-0.353505	0.392997
N88	N	1.507867	-0.328907	0.498031
C89	C	1.115961	0.027244	-0.245468
N90	N	1.160933	0.004402	-0.344081
H91	H	1.514473	-0.088691	-0.229865
H92	H	1.496795	-0.743034	-0.229959
C93	C	1.511331	-0.204943	-0.266120
N94	N	1.510699	-0.229538	-0.371160
H95	H	1.499658	-0.635279	0.229991
H96	H	1.511521	-0.196497	0.230057
H97	H	1.514433	-0.088711	0.230061
