data_functionalizedCrystal
_audit_creation_method	'MofGen! by Chris Wilmer'
_symmetry_space_group_name_H-M	'P1'
_symmetry_Int_Tables_number	1
_symmetry_cell_setting	triclinic
loop_
_symmetry_equiv_pos_as_xyz
  x,y,z
_cell_length_a	21.295418
_cell_length_b	18.215405
_cell_length_c	18.215399
_cell_angle_alpha	90.030551
_cell_angle_beta	89.961117
_cell_angle_gamma	89.959302
loop_
_atom_site_label
_atom_site_type_symbol
_atom_site_fract_x
_atom_site_fract_y
_atom_site_fract_z
Zn1	Zn	0.962350	0.292681	-0.416477
Zn2	Zn	1.212350	0.542681	-0.166477
Zn3	Zn	1.462350	0.792681	0.083523
Zn4	Zn	1.712350	1.042681	0.333523
Zn5	Zn	0.962272	0.415752	-0.293405
Zn6	Zn	1.212272	0.665752	-0.043405
Zn7	Zn	1.462272	0.915752	0.206595
Zn8	Zn	1.712272	1.165752	0.456595
Zn9	Zn	0.857082	0.292738	-0.293383
Zn10	Zn	1.107082	0.542738	-0.043383
Zn11	Zn	1.357082	0.792738	0.206617
Zn12	Zn	1.607082	1.042738	0.456617
Zn13	Zn	0.857053	0.415744	-0.416389
Zn14	Zn	1.107053	0.665744	-0.166389
Zn15	Zn	1.357053	0.915744	0.083611
Zn16	Zn	1.607053	1.165744	0.333611
O17	O	0.909689	0.354229	-0.354913
O18	O	1.159689	0.604229	-0.104913
O19	O	1.409689	0.854229	0.145087
O20	O	1.659689	1.104229	0.395087
O21	O	1.050429	0.308986	-0.400197
O22	O	1.300429	0.558986	-0.150197
O23	O	1.550429	0.808986	0.099803
O24	O	1.800429	1.058986	0.349803
O25	O	0.948298	0.399462	-0.190418
O26	O	1.198298	0.649462	0.059582
O27	O	1.448298	0.899462	0.309582
O28	O	1.698298	1.149462	0.559582
O29	O	0.871091	0.189746	-0.309740
O30	O	1.121091	0.439746	-0.059740
O31	O	1.371091	0.689746	0.190260
O32	O	1.621091	0.939746	0.440260
O33	O	1.050372	0.399406	-0.309776
O34	O	1.300372	0.649406	-0.059776
O35	O	1.550372	0.899406	0.190224
O36	O	1.800372	1.149406	0.440224
O37	O	0.948431	0.189704	-0.400176
O38	O	1.198431	0.439704	-0.150176
O39	O	1.448431	0.689704	0.099824
O40	O	1.698431	0.939704	0.349824
O41	O	0.871015	0.309084	-0.190402
O42	O	1.121015	0.559084	0.059598
O43	O	1.371015	0.809084	0.309598
O44	O	1.621015	1.059084	0.559598
O45	O	0.768989	0.309076	-0.309654
O46	O	1.018989	0.559076	-0.059654
O47	O	1.268989	0.809076	0.190346
O48	O	1.518989	1.059076	0.440346
O49	O	0.871042	0.399393	-0.519385
O50	O	1.121042	0.649393	-0.269385
O51	O	1.371042	0.899393	-0.019385
O52	O	1.621042	1.149393	0.230615
O53	O	0.768968	0.399448	-0.400026
O54	O	1.018968	0.649448	-0.150026
O55	O	1.268968	0.899448	0.099974
O56	O	1.518968	1.149448	0.349974
O57	O	0.948403	0.308979	-0.519449
O58	O	1.198403	0.558979	-0.269449
O59	O	1.448403	0.808979	-0.019449
O60	O	1.698403	1.058979	0.230551
O61	O	0.948269	0.518736	-0.309691
O62	O	1.198269	0.768736	-0.059691
O63	O	1.448269	1.018736	0.190309
O64	O	1.698269	1.268736	0.440309
O65	O	0.870966	0.518730	-0.400047
O66	O	1.120966	0.768730	-0.150047
O67	O	1.370966	1.018730	0.099953
O68	O	1.620966	1.268730	0.349953
C69	C	0.909623	0.545435	-0.354878
C70	C	1.159623	0.795435	-0.104878
C71	C	1.409623	1.045435	0.145122
C72	C	1.659623	1.295435	0.395122
C73	C	0.909652	0.627234	-0.354887
C74	C	1.159652	0.877234	-0.104887
C75	C	1.409652	1.127234	0.145113
C76	C	1.659652	1.377234	0.395113
C77	C	0.746138	0.354268	-0.354829
C78	C	0.996138	0.604268	-0.104829
C79	C	1.246138	0.854268	0.145171
C80	C	1.496138	1.104268	0.395171
C81	C	0.676170	0.354302	-0.354810
C82	C	0.926170	0.604302	-0.104810
C83	C	1.176170	0.854302	0.145190
C84	C	1.426170	1.104302	0.395190
C85	C	0.909728	0.354178	-0.546866
C86	C	1.159728	0.604178	-0.296866
C87	C	1.409728	0.854178	-0.046866
C88	C	1.659728	1.104178	0.203134
C89	C	0.909744	0.354157	-0.628665
C90	C	1.159744	0.604157	-0.378665
C91	C	1.409744	0.854157	-0.128665
C92	C	1.659744	1.104157	0.121335
C93	C	0.643308	0.401421	-0.401796
C94	C	0.893308	0.651421	-0.151796
C95	C	1.143308	0.901421	0.098204
C96	C	1.393308	1.151421	0.348204
C97	C	0.577566	0.401403	-0.401829
C98	C	0.827566	0.651403	-0.151829
C99	C	1.077566	0.901403	0.098171
C100	C	1.327566	1.151403	0.348171
C101	C	0.544687	0.354274	-0.354863
C102	C	0.794687	0.604274	-0.104863
C103	C	1.044687	0.854274	0.145137
C104	C	1.294687	1.104274	0.395137
C105	C	0.577556	0.307145	-0.307873
C106	C	0.827556	0.557145	-0.057873
C107	C	1.077556	0.807145	0.192127
C108	C	1.327556	1.057145	0.442127
C109	C	0.643298	0.307160	-0.307847
C110	C	0.893298	0.557160	-0.057847
C111	C	1.143298	0.807160	0.192153
C112	C	1.393298	1.057160	0.442153
N113	N	0.441415	0.348525	-0.290496
N114	N	0.691415	0.598525	-0.040496
N115	N	0.941415	0.848525	0.209504
N116	N	1.191415	1.098525	0.459504
N117	N	0.378964	0.348516	-0.290523
N118	N	0.628964	0.598516	-0.040523
N119	N	0.878964	0.848516	0.209477
N120	N	1.128964	1.098516	0.459477
C121	C	0.346612	0.354227	-0.354941
C122	C	0.596612	0.604227	-0.104941
C123	C	0.846612	0.854227	0.145059
C124	C	1.096612	1.104227	0.395059
N125	N	0.379072	0.359961	-0.419332
N126	N	0.629072	0.609961	-0.169332
N127	N	0.879072	0.859961	0.080668
N128	N	1.129072	1.109961	0.330668
N129	N	0.441529	0.359974	-0.419304
N130	N	0.691529	0.609974	-0.169304
N131	N	0.941529	0.859974	0.080696
N132	N	1.191529	1.109974	0.330696
C133	C	0.473402	0.354252	-0.354887
C134	C	0.723402	0.604252	-0.104887
C135	C	0.973402	0.854252	0.145113
C136	C	1.223402	1.104252	0.395113
C137	C	0.242466	0.401329	-0.401967
C138	C	0.492466	0.651329	-0.151967
C139	C	0.742466	0.901329	0.098033
C140	C	0.992466	1.151329	0.348033
C141	C	0.176722	0.401305	-0.402001
C142	C	0.426722	0.651305	-0.152001
C143	C	0.676722	0.901305	0.097999
C144	C	0.926722	1.151305	0.347999
C145	C	0.176714	0.307051	-0.308039
C146	C	0.426714	0.557051	-0.058039
C147	C	0.676714	0.807051	0.191961
C148	C	0.926714	1.057051	0.441961
C149	C	0.242456	0.307071	-0.308011
C150	C	0.492456	0.557071	-0.058011
C151	C	0.742456	0.807071	0.191989
C152	C	0.992456	1.057071	0.441989
C153	C	0.275328	0.354213	-0.354974
C154	C	0.525328	0.604213	-0.104974
C155	C	0.775328	0.854213	0.145026
C156	C	1.025328	1.104213	0.395026
C157	C	1.073880	0.354191	-0.354999
C158	C	1.323880	0.604191	-0.104999
C159	C	1.573880	0.854191	0.145001
C160	C	1.823880	1.104191	0.395001
C161	C	1.143848	0.354174	-0.355035
C162	C	1.393848	0.604174	-0.105035
C163	C	1.643848	0.854174	0.144965
C164	C	1.893848	1.104174	0.394965
C165	C	0.909773	0.162276	-0.354965
C166	C	1.159773	0.412276	-0.104965
C167	C	1.409773	0.662276	0.145035
C168	C	1.659773	0.912276	0.395035
C169	C	0.909809	0.080477	-0.354987
C170	C	1.159809	0.330477	-0.104987
C171	C	1.409809	0.580477	0.145013
C172	C	1.659809	0.830477	0.395013
C173	C	0.949999	0.815407	-0.307926
C174	C	1.199999	1.065407	-0.057926
C175	C	1.449999	1.315407	0.192074
C176	C	1.699999	1.565407	0.442074
C177	C	0.950027	0.892265	-0.307944
C178	C	1.200027	1.142265	-0.057944
C179	C	1.450027	1.392265	0.192056
C180	C	1.700027	1.642265	0.442056
C181	C	0.869461	0.892299	-0.401954
C182	C	1.119461	1.142299	-0.151954
C183	C	1.369461	1.392299	0.098046
C184	C	1.619461	1.642299	0.348046
C185	C	0.869436	0.815442	-0.401939
C186	C	1.119436	1.065442	-0.151939
C187	C	1.369436	1.315442	0.098061
C188	C	1.619436	1.565442	0.348061
C189	C	0.909704	0.776998	-0.354921
C190	C	1.159704	1.026998	-0.104921
C191	C	1.409704	1.276998	0.145079
C192	C	1.659704	1.526998	0.395079
C193	C	0.909757	0.930714	-0.354954
C194	C	1.159757	1.180714	-0.104954
C195	C	1.409757	1.430714	0.145046
C196	C	1.659757	1.680714	0.395046
C197	C	0.909787	1.014047	-0.354973
C198	C	1.159787	1.264047	-0.104973
C199	C	1.409787	1.514047	0.145027
C200	C	1.659787	1.764047	0.395027
C201	C	0.909675	0.693659	-0.354902
C202	C	1.159675	0.943659	-0.104902
C203	C	1.409675	1.193659	0.145098
C204	C	1.659675	1.443659	0.395098
C205	C	0.950041	0.307034	-0.816894
C206	C	1.200041	0.557034	-0.566894
C207	C	1.450041	0.807034	-0.316894
C208	C	1.700041	1.057034	-0.066894
C209	C	0.950048	0.307013	-0.893753
C210	C	1.200048	0.557013	-0.643753
C211	C	1.450048	0.807013	-0.393753
C212	C	1.700048	1.057013	-0.143753
C213	C	0.869492	0.401165	-0.893675
C214	C	1.119492	0.651165	-0.643675
C215	C	1.369492	0.901165	-0.393675
C216	C	1.619492	1.151165	-0.143675
C217	C	0.869482	0.401183	-0.816817
C218	C	1.119482	0.651183	-0.566817
C219	C	1.369482	0.901183	-0.316817
C220	C	1.619482	1.151183	-0.066817
C221	C	0.909760	0.354118	-0.778429
C222	C	1.159760	0.604118	-0.528429
C223	C	1.409760	0.854118	-0.278429
C224	C	1.659760	1.104118	-0.028429
C225	C	0.909777	0.354079	-0.932145
C226	C	1.159777	0.604079	-0.682145
C227	C	1.409777	0.854079	-0.432145
C228	C	1.659777	1.104079	-0.182145
C229	C	0.909785	0.354057	-1.015479
C230	C	1.159785	0.604057	-0.765479
C231	C	1.409785	0.854057	-0.515479
C232	C	1.659785	1.104057	-0.265479
C233	C	0.909751	0.354140	-0.695090
C234	C	1.159751	0.604140	-0.445090
C235	C	1.409751	0.854140	-0.195090
C236	C	1.659751	1.104140	0.054910
C237	C	0.909687	0.354226	-0.163707
C238	C	1.159687	0.604226	0.086293
C239	C	1.409687	0.854226	0.336293
C240	C	1.659687	1.104226	0.586293
C241	C	0.909793	0.354041	-0.081909
C242	C	1.159793	0.604041	0.168091
C243	C	1.409793	0.854041	0.418091
C244	C	1.659793	1.104041	0.668091
H245	H	0.670069	0.439807	-0.440038
H246	H	0.920069	0.689807	-0.190038
H247	H	1.170069	0.939807	0.059962
H248	H	1.420069	1.189807	0.309962
H249	H	0.836623	0.784167	-0.440212
H250	H	1.086623	1.034167	-0.190212
H251	H	1.336623	1.284167	0.059788
H252	H	1.586623	1.534167	0.309788
O253	O	0.826021	0.451965	-0.775336
O254	O	1.076021	0.701965	-0.525336
O255	O	1.326021	0.951965	-0.275336
O256	O	1.576021	1.201965	-0.025336
H257	H	0.854164	0.489411	-0.740315
H258	H	1.104164	0.739411	-0.490315
H259	H	1.354164	0.989411	-0.240315
H260	H	1.604164	1.239411	0.009685
O261	O	0.993495	0.933689	-0.257261
O262	O	1.243495	1.183689	-0.007261
O263	O	1.493495	1.433689	0.242739
O264	O	1.743495	1.683689	0.492739
H265	H	0.986757	0.993592	-0.265177
H266	H	1.236757	1.243592	-0.015177
H267	H	1.486757	1.493592	0.234823
H268	H	1.736757	1.743592	0.484823
H269	H	0.550805	0.439773	-0.440094
H270	H	0.800805	0.689773	-0.190094
H271	H	1.050805	0.939773	0.059906
H272	H	1.300805	1.189773	0.309906
H273	H	0.982836	0.268709	-0.785641
H274	H	1.232836	0.518709	-0.535641
H275	H	1.482836	0.768709	-0.285641
H276	H	1.732836	1.018709	-0.035641
O277	O	0.277932	0.452145	-0.452639
O278	O	0.527932	0.702145	-0.202639
O279	O	0.777932	0.952145	0.047361
O280	O	1.027932	1.202145	0.297361
H281	H	0.307829	0.489560	-0.419634
H282	H	0.557829	0.739560	-0.169634
H283	H	0.807829	0.989560	0.080366
H284	H	1.057829	1.239560	0.330366
O285	O	0.993491	0.256231	-0.935248
O286	O	1.243491	0.506231	-0.685248
O287	O	1.493491	0.756231	-0.435248
O288	O	1.743491	1.006231	-0.185248
H289	H	1.042891	0.268847	-0.920534
H290	H	1.292891	0.518847	-0.670534
H291	H	1.542891	0.768847	-0.420534
H292	H	1.792891	1.018847	-0.170534
O293	O	0.542100	0.256327	-0.257199
O294	O	0.792100	0.506327	-0.007199
O295	O	1.042100	0.756327	0.242801
O296	O	1.292100	1.006327	0.492801
H297	H	0.490865	0.264244	-0.265099
H298	H	0.740865	0.514244	-0.015099
H299	H	0.990865	0.764244	0.234901
H300	H	1.240865	1.014244	0.484901
O301	O	0.678749	0.256340	-0.257165
O302	O	0.928749	0.506340	-0.007165
O303	O	1.178749	0.756340	0.242835
O304	O	1.428749	1.006340	0.492835
H305	H	0.708644	0.289243	-0.219657
H306	H	0.958644	0.539243	0.030343
H307	H	1.208644	0.789243	0.280343
H308	H	1.458644	1.039243	0.530343
O309	O	0.826051	0.451928	-0.935078
O310	O	1.076051	0.701928	-0.685078
O311	O	1.326051	0.951928	-0.435078
O312	O	1.576051	1.201928	-0.185078
H313	H	0.832828	0.444011	-0.994984
H314	H	1.082828	0.694011	-0.744984
H315	H	1.332828	0.944011	-0.494984
H316	H	1.582828	1.194011	-0.244984
H317	H	0.836675	0.923610	-0.440233
H318	H	1.086675	1.173610	-0.190233
H319	H	1.336675	1.423610	0.059767
H320	H	1.586675	1.673610	0.309767
H321	H	0.149967	0.439674	-0.440268
H322	H	0.399967	0.689674	-0.190268
H323	H	0.649967	0.939674	0.059732
H324	H	0.899967	1.189674	0.309732
O325	O	0.277901	0.256252	-0.257326
O326	O	0.527901	0.506252	-0.007326
O327	O	0.777901	0.756252	0.242674
O328	O	1.027901	1.006252	0.492674
H329	H	0.329138	0.264175	-0.265201
H330	H	0.579138	0.514175	-0.015201
H331	H	0.829138	0.764175	0.234799
H332	H	1.079138	1.014175	0.484799
H333	H	0.149945	0.268674	-0.269801
H334	H	0.399945	0.518674	-0.019801
H335	H	0.649945	0.768674	0.230199
H336	H	0.899945	1.018674	0.480199
O337	O	0.993436	0.773938	-0.257225
O338	O	1.243436	1.023938	-0.007225
O339	O	1.493436	1.273938	0.242775
O340	O	1.743436	1.523938	0.492775
H341	H	1.021464	0.813562	-0.224556
H342	H	1.271464	1.063562	0.025444
H343	H	1.521464	1.313562	0.275444
H344	H	1.771464	1.563562	0.525444
