data_functionalizedCrystal
_audit_creation_method	'MofGen! by Chris Wilmer'
_symmetry_space_group_name_H-M	'P1'
_symmetry_Int_Tables_number	1
_symmetry_cell_setting	triclinic
loop_
_symmetry_equiv_pos_as_xyz
  x,y,z
_cell_length_a	10.654550
_cell_length_b	11.026607
_cell_length_c	9.730223
_cell_angle_alpha	89.999947
_cell_angle_beta	89.996251
_cell_angle_gamma	96.535460
loop_
_atom_site_label
_atom_site_type_symbol
_atom_site_fract_x
_atom_site_fract_y
_atom_site_fract_z
O1	O	1.704901	0.170762	-0.114401
O2	O	1.342954	0.187032	-0.114379
O3	O	1.493930	0.001991	-0.114383
O4	O	1.553926	0.355802	-0.114397
O5	O	1.493929	0.001996	0.114196
O6	O	1.342953	0.187036	0.114201
O7	O	1.704900	0.170767	0.114179
Zn8	Zn	1.523926	0.178902	0.150482
Zn9	Zn	1.523928	0.178896	-0.150682
O10	O	1.553924	0.355807	0.114183
C11	C	1.295897	0.185839	-0.000086
C12	C	1.155677	0.182265	-0.000078
C13	C	1.099841	0.291214	-0.000102
C14	C	0.968090	0.287849	-0.000126
C15	C	0.948022	0.066576	-0.000107
C16	C	1.079771	0.069943	-0.000073
C17	C	1.111426	0.418964	-0.000119
C18	C	0.979675	0.415599	-0.000143
C19	C	1.482861	-0.043310	-0.000094
C20	C	1.449867	-0.178302	-0.000097
C21	C	1.540970	-0.251341	-0.000105
C22	C	1.506871	-0.390862	-0.000108
C23	C	1.751958	0.171959	-0.000117
C24	C	1.892177	0.175533	-0.000135
C25	C	1.564993	0.401109	-0.000109
C26	C	1.597988	0.536100	-0.000115
N27	N	1.523934	0.178906	0.356018
N28	N	1.523928	0.178883	-0.356219
C29	C	1.590814	0.096998	0.427942
C30	C	1.590808	0.096983	0.571825
C31	C	1.457040	0.260795	0.571847
C32	C	1.457040	0.260803	0.427967
C33	C	1.668049	0.002426	0.427931
C34	C	1.668043	0.002411	0.571814
H35	H	1.155912	0.459640	-0.098808
H36	H	1.125227	-0.018774	-0.000034
H37	H	0.886203	-0.024874	-0.000124
C38	C	1.165712	0.486473	0.129098
H39	H	1.098631	0.511940	0.182228
H40	H	1.221554	0.555844	0.102522
H41	H	1.210425	0.433269	0.182275
C42	C	1.804519	0.030557	0.624576
H43	H	1.804508	0.030535	0.722214
H44	H	1.839305	0.108429	0.592050
H45	H	1.853932	-0.029947	0.592031
H46	H	1.644212	-0.210581	-0.000103
C47	C	0.929287	0.467756	0.133160
H48	H	0.998017	0.493319	0.192537
H49	H	0.873528	0.406589	0.177455
H50	H	0.885245	0.535556	0.111721
C51	C	0.937389	0.480455	-0.129481
H52	H	1.009404	0.509417	-0.182654
H53	H	0.893854	0.547309	-0.103081
H54	H	0.882829	0.424589	-0.182544
C55	C	1.737470	-0.408863	-0.000125
H56	H	1.790203	-0.472781	-0.000140
H57	H	1.754132	-0.359931	0.079583
H58	H	1.754127	-0.359935	-0.079849
C59	C	1.799905	0.042427	0.367617
H60	H	1.795407	0.041078	0.270108
H61	H	1.857297	-0.011915	0.397753
H62	H	1.828347	0.122816	0.397766
C63	C	1.367392	-0.445908	-0.000101
H64	H	1.362771	-0.532460	-0.000094
H65	H	1.326679	-0.419615	-0.079806
H66	H	1.326684	-0.419622	0.079626
H67	H	1.346625	-0.219062	-0.000100
C68	C	1.600930	-0.116879	0.632111
H69	H	1.603206	-0.112814	0.729621
H70	H	1.642583	-0.183817	0.601960
H71	H	1.515580	-0.127582	0.601968
C72	C	1.383463	0.350894	0.348854
H73	H	1.343635	0.399672	0.412314
H74	H	1.321204	0.306684	0.292727
H75	H	1.440170	0.401927	0.292729
C76	C	1.611670	-0.123808	0.375168
H77	H	1.588471	-0.175726	0.451106
H78	H	1.672666	-0.158356	0.320924
H79	H	1.539069	-0.115214	0.320939
H80	H	1.402575	0.327472	0.630443
