data_functionalizedCrystal
_audit_creation_method	'MofGen! by Chris Wilmer'
_symmetry_space_group_name_H-M	'P1'
_symmetry_Int_Tables_number	1
_symmetry_cell_setting	triclinic
loop_
_symmetry_equiv_pos_as_xyz
  x,y,z
_cell_length_a	17.019282
_cell_length_b	17.038272
_cell_length_c	15.500227
_cell_angle_alpha	93.033254
_cell_angle_beta	91.034464
_cell_angle_gamma	87.241387
loop_
_atom_site_label
_atom_site_type_symbol
_atom_site_fract_x
_atom_site_fract_y
_atom_site_fract_z
O1	O	1.053050	0.099876	0.006537
O2	O	0.825047	0.111730	-0.010458
O3	O	0.937693	-0.008016	-0.002055
O4	O	0.940404	0.219622	-0.001866
O5	O	0.930855	-0.000778	0.141324
O6	O	0.818209	0.118968	0.132921
O7	O	1.046212	0.107114	0.149916
Cu8	Cu	0.931587	0.113702	0.154510
Cu9	Cu	0.939673	0.105142	-0.015052
O10	O	0.933566	0.226860	0.141512
C11	C	0.792311	0.114759	0.059047
C12	C	0.704954	0.112990	0.052535
C13	C	0.660191	0.116103	0.127634
C14	C	0.578110	0.114429	0.121519
C15	C	0.540794	0.109648	0.040304
C16	C	0.585563	0.106532	-0.034801
C17	C	0.667643	0.108201	-0.028684
C18	C	0.293154	0.104407	0.017927
C19	C	0.211069	0.102741	0.011816
C20	C	0.203622	0.110636	0.168136
C21	C	0.285702	0.112309	0.174245
C22	C	0.330465	0.109189	0.099141
C23	C	0.456895	0.107939	0.034051
C24	C	0.414363	0.110893	0.105395
C25	C	0.931809	-0.033532	0.069451
C26	C	0.924455	-0.120346	0.068903
C27	C	0.991975	-0.170268	0.073936
C28	C	0.985061	-0.251838	0.073413
C29	C	0.910625	-0.283485	0.067861
C30	C	0.843100	-0.233557	0.062825
C31	C	0.850016	-0.151989	0.063342
C32	C	0.886195	-0.529314	0.066029
C33	C	0.879284	-0.610889	0.065514
C34	C	1.021246	-0.629164	0.076100
C35	C	1.028155	-0.547592	0.076622
C36	C	0.960630	-0.497672	0.071581
C37	C	0.903556	-0.366863	0.067329
C38	C	0.967700	-0.414296	0.072108
C39	C	1.078949	0.104085	0.080409
C40	C	1.166306	0.105854	0.086915
C41	C	0.939450	0.252376	0.070005
C42	C	0.946805	0.339190	0.070548
N43	N	0.925905	0.119722	0.273771
N44	N	0.945360	0.099116	-0.134313
C45	C	0.973656	0.069000	0.322610
C46	C	0.969367	0.073560	0.412863
C47	C	0.917330	0.128846	0.454275
C48	C	0.869573	0.179570	0.405430
C49	C	0.873859	0.175006	0.315178
C50	C	0.901890	0.145276	0.726590
C51	C	0.897609	0.149838	0.816849
C52	C	0.997402	0.043826	0.824275
C53	C	1.001686	0.039270	0.734022
C54	C	0.953927	0.089991	0.685184
C55	C	0.912946	0.133510	0.546528
C56	C	0.958307	0.085323	0.592932
H57	H	0.444750	0.114782	0.171520
H58	H	1.008249	0.032258	0.452627
H59	H	0.842950	-0.392639	0.062811
H60	H	0.870578	0.178527	0.580254
H61	H	1.044059	-0.005748	0.700306
H62	H	1.088768	-0.521832	0.081143
C63	C	0.840360	0.210657	0.862400
N64	N	0.797242	0.256465	0.896710
H65	H	1.040043	-0.292482	0.077513
C66	C	0.775737	-0.097074	0.057807
N67	N	0.719789	-0.055714	0.053635
H68	H	0.831211	-0.488677	0.061924
C69	C	1.095519	-0.684083	0.081637
N70	N	1.151464	-0.725449	0.085804
H71	H	0.818666	-0.636651	0.061008
C72	C	0.761219	-0.268372	0.056726
N73	N	0.699545	-0.294593	0.052138
H74	H	1.016033	0.023983	0.288898
C75	C	1.049927	-0.011970	0.878003
N76	N	1.089488	-0.054000	0.918471
H77	H	0.167168	0.113174	0.229282
H78	H	1.028306	-0.388526	0.076608
H79	H	0.863004	0.186577	0.686834
C80	C	1.015539	0.024503	0.547375
N81	N	1.058647	-0.021307	0.513053
H82	H	0.827200	0.224583	0.439153
C83	C	0.701231	0.121362	0.216978
N84	N	0.732140	0.125320	0.284274
H85	H	0.834974	0.216308	0.275414
H86	H	0.541668	0.116950	0.182672
H87	H	1.052589	-0.144507	0.078462
C88	C	0.326744	0.117564	0.263588
N89	N	0.357657	0.121524	0.330883
H90	H	0.426503	0.104045	-0.032075
H91	H	0.329590	0.101864	-0.043229
C92	C	0.544513	0.101271	-0.124138
N93	N	0.513594	0.097310	-0.191429
C94	C	0.170023	0.097480	-0.077531
N95	N	0.139107	0.093519	-0.144823
H96	H	0.704088	0.105668	-0.089838
