data_functionalizedCrystal
_audit_creation_method	'MofGen! by Chris Wilmer'
_symmetry_space_group_name_H-M	'P1'
_symmetry_Int_Tables_number	1
_symmetry_cell_setting	triclinic
loop_
_symmetry_equiv_pos_as_xyz
  x,y,z
_cell_length_a	11.169417
_cell_length_b	18.050590
_cell_length_c	11.169409
_cell_angle_alpha	90.037983
_cell_angle_beta	90.019824
_cell_angle_gamma	90.019431
loop_
_atom_site_label
_atom_site_type_symbol
_atom_site_fract_x
_atom_site_fract_y
_atom_site_fract_z
Zn1	Zn	1.834894	-0.295582	0.678496
Zn2	Zn	2.168227	0.037751	1.011829
Zn3	Zn	2.501560	0.371085	1.345162
Zn4	Zn	1.834754	-0.419797	0.477793
Zn5	Zn	2.168088	-0.086464	0.811126
Zn6	Zn	2.501421	0.246870	1.144459
Zn7	Zn	1.634180	-0.295627	0.477830
Zn8	Zn	1.967513	0.037706	0.811163
Zn9	Zn	2.300846	0.371040	1.144497
Zn10	Zn	1.634158	-0.419736	0.678438
Zn11	Zn	1.967492	-0.086403	1.011771
Zn12	Zn	2.300825	0.246930	1.345104
O13	O	1.734497	-0.357686	0.578139
O14	O	2.067830	-0.024352	0.911472
O15	O	2.401163	0.308981	1.244806
O16	O	2.002825	-0.312066	0.651881
O17	O	2.336158	0.021268	0.985214
O18	O	2.669492	0.354601	1.318547
O19	O	1.808098	-0.403370	0.309848
O20	O	2.141432	-0.070036	0.643181
O21	O	2.474765	0.263297	0.976515
O22	O	1.660872	-0.191697	0.504489
O23	O	1.994205	0.141637	0.837822
O24	O	2.327539	0.474970	1.171155
O25	O	2.002723	-0.403326	0.504425
O26	O	2.336056	-0.069993	0.837758
O27	O	2.669389	0.263341	1.171092
O28	O	1.808336	-0.191663	0.651917
O29	O	2.141669	0.141670	0.985250
O30	O	2.475003	0.475003	1.318583
O31	O	1.660737	-0.312143	0.309875
O32	O	1.994070	0.021191	0.643209
O33	O	2.327404	0.354524	0.976542
O34	O	1.466227	-0.312084	0.504432
O35	O	1.799561	0.021249	0.837766
O36	O	2.132894	0.354582	1.171099
O37	O	1.660836	-0.403223	0.846395
O38	O	1.994169	-0.069890	1.179729
O39	O	2.327503	0.263444	1.513062
O40	O	1.466212	-0.403267	0.651818
O41	O	1.799545	-0.069933	0.985151
O42	O	2.132878	0.263400	1.318485
O43	O	1.808315	-0.312007	0.846438
O44	O	2.141649	0.021326	1.179771
O45	O	2.474982	0.354660	1.513104
O46	O	1.808078	-0.523714	0.504369
O47	O	2.141411	-0.190380	0.837702
O48	O	2.474744	0.142953	1.171036
O49	O	1.660701	-0.523669	0.651782
O50	O	1.994034	-0.190336	0.985115
O51	O	2.327367	0.142998	1.318448
C52	C	1.422672	-0.357674	0.578124
C53	C	1.756005	-0.024341	0.911457
C54	C	2.089339	0.308992	1.244790
C55	C	1.289272	-0.357687	0.578145
C56	C	1.622605	-0.024354	0.911479
C57	C	1.955939	0.308979	1.244812
C58	C	1.734404	-0.550638	0.578091
C59	C	2.067738	-0.217304	0.911425
C60	C	2.401071	0.116029	1.244758
C61	C	1.734475	-0.633184	0.578111
C62	C	2.067808	-0.299850	0.911444
C63	C	2.401141	0.033483	1.244778
C64	C	1.814785	-0.832631	0.498060
C65	C	2.148118	-0.499298	0.831393
C66	C	2.481452	-0.165965	1.164726
C67	C	1.844109	-0.881952	0.607596
C68	C	2.177442	-0.548619	0.940929
C69	C	2.510776	-0.215286	1.274262
C70	C	1.734543	-0.784314	0.578159
C71	C	2.067876	-0.450981	0.911492
C72	C	2.401209	-0.117647	1.244825
C73	C	1.705341	-0.882074	0.468672
C74	C	2.038674	-0.548741	0.802005
C75	C	2.372008	-0.215408	1.135339
C76	C	1.734611	-0.930299	0.578195
C77	C	2.067944	-0.596966	0.911529
C78	C	2.401278	-0.263632	1.244862
C79	C	1.763923	-0.832548	0.687752
C80	C	2.097256	-0.499214	1.021086
C81	C	2.430590	-0.165881	1.354419
C82	C	1.625104	-0.832665	0.548755
C83	C	1.958437	-0.499332	0.882088
C84	C	2.291771	-0.165999	1.215421
C85	C	1.654386	-0.881964	0.658366
C86	C	1.987720	-0.548631	0.991700
C87	C	2.321053	-0.215297	1.325033
C88	C	1.734507	-0.700216	0.578136
C89	C	2.067840	-0.366882	0.911469
C90	C	2.401173	-0.033549	1.244803
C91	C	1.734647	-1.014395	0.578230
C92	C	2.067980	-0.681062	0.911564
C93	C	2.401314	-0.347729	1.244897
C94	C	2.047539	-0.357697	0.578155
C95	C	2.380872	-0.024364	0.911489
C96	C	2.714206	0.308969	1.244822
C97	C	2.180939	-0.357703	0.578162
C98	C	2.514272	-0.024369	0.911495
C99	C	2.847606	0.308964	1.244829
C100	C	1.734589	-0.357603	0.891182
C101	C	2.067922	-0.024270	1.224515
C102	C	2.401255	0.309064	1.557848
C103	C	1.734628	-0.357568	1.024582
C104	C	2.067961	-0.024235	1.357915
C105	C	2.401295	0.309099	1.691248
C106	C	1.734622	-0.163980	0.578213
C107	C	2.067955	0.169353	0.911547
C108	C	2.401289	0.502687	1.244880
C109	C	1.734675	-0.081434	0.578245
C110	C	2.068009	0.251899	0.911578
C111	C	2.401342	0.585232	1.244912
C112	C	1.734474	-0.357714	0.266314
C113	C	2.067807	-0.024381	0.599648
C114	C	2.401141	0.308952	0.932981
C115	C	1.734667	-0.357540	0.132915
C116	C	2.068000	-0.024207	0.466248
C117	C	2.401334	0.309127	0.799582
H118	H	1.882666	-0.810969	0.430392
H119	H	2.215999	-0.477636	0.763726
H120	H	2.549333	-0.144302	1.097059
H121	H	1.936688	-0.903604	0.632489
H122	H	2.270022	-0.570271	0.965822
H123	H	2.603355	-0.236937	1.299156
H124	H	1.680614	-0.903828	0.376065
H125	H	2.013947	-0.570495	0.709399
H126	H	2.347281	-0.237162	1.042732
H127	H	1.586557	-0.903489	0.726198
H128	H	1.919891	-0.570156	1.059531
H129	H	2.253224	-0.236822	1.392864
H130	H	1.788558	-0.810886	0.780439
H131	H	2.121892	-0.477552	1.113772
H132	H	2.455225	-0.144219	1.447105
F133	F	1.504126	-0.804347	0.516179
F134	F	1.837459	-0.471014	0.849512
F135	F	2.170793	-0.137680	1.182846
