data_functionalizedCrystal
_audit_creation_method	'MofGen! by Chris Wilmer'
_symmetry_space_group_name_H-M	'P1'
_symmetry_Int_Tables_number	1
_symmetry_cell_setting	triclinic
loop_
_symmetry_equiv_pos_as_xyz
  x,y,z
_cell_length_a	16.120530
_cell_length_b	13.034570
_cell_length_c	13.033454
_cell_angle_alpha	90.866531
_cell_angle_beta	93.913305
_cell_angle_gamma	80.336380
loop_
_atom_site_label
_atom_site_type_symbol
_atom_site_fract_x
_atom_site_fract_y
_atom_site_fract_z
Zn1	Zn	1.242422	-0.403361	-0.721071
Zn2	Zn	1.492422	-0.153361	-0.471071
Zn3	Zn	1.742422	0.096639	-0.221071
Zn4	Zn	1.992422	0.346639	0.028929
Zn5	Zn	1.277118	-0.599065	-0.573418
Zn6	Zn	1.527118	-0.349065	-0.323418
Zn7	Zn	1.777118	-0.099065	-0.073418
Zn8	Zn	2.027118	0.150935	0.176582
Zn9	Zn	1.122828	-0.418713	-0.540698
Zn10	Zn	1.372828	-0.168713	-0.290698
Zn11	Zn	1.622828	0.081287	-0.040698
Zn12	Zn	1.872828	0.331287	0.209302
Zn13	Zn	1.118387	-0.568473	-0.734146
Zn14	Zn	1.368387	-0.318473	-0.484146
Zn15	Zn	1.618387	-0.068473	-0.234146
Zn16	Zn	1.868387	0.181527	0.015854
O17	O	1.190189	-0.497403	-0.642333
O18	O	1.440189	-0.247403	-0.392333
O19	O	1.690189	0.002597	-0.142333
O20	O	1.940189	0.252597	0.107667
O21	O	1.363504	-0.435700	-0.709707
O22	O	1.613504	-0.185700	-0.459707
O23	O	1.863504	0.064300	-0.209707
O24	O	2.113504	0.314300	0.040293
O25	O	1.273030	-0.594368	-0.426326
O26	O	1.523030	-0.344368	-0.176326
O27	O	1.773030	-0.094368	0.073674
O28	O	2.023030	0.155632	0.323674
O29	O	1.126031	-0.272099	-0.545460
O30	O	1.376031	-0.022099	-0.295460
O31	O	1.626031	0.227901	-0.045460
O32	O	1.876031	0.477901	0.204540
O33	O	1.388995	-0.579482	-0.601227
O34	O	1.638995	-0.329482	-0.351227
O35	O	1.888995	-0.079482	-0.101227
O36	O	2.138995	0.170518	0.148773
O37	O	1.213896	-0.260820	-0.677979
O38	O	1.463896	-0.010820	-0.427979
O39	O	1.713896	0.239180	-0.177979
O40	O	1.963896	0.489180	0.072021
O41	O	1.159674	-0.461865	-0.402287
O42	O	1.409674	-0.211865	-0.152287
O43	O	1.659674	0.038135	0.097713
O44	O	1.909674	0.288135	0.347713
O45	O	1.005759	-0.432201	-0.558137
O46	O	1.255759	-0.182201	-0.308137
O47	O	1.505759	0.067799	-0.058137
O48	O	1.755759	0.317799	0.191863
O49	O	1.118462	-0.527343	-0.875163
O50	O	1.368462	-0.277343	-0.625163
O51	O	1.618462	-0.027343	-0.375163
O52	O	1.868462	0.222657	-0.125163
O53	O	1.002497	-0.542229	-0.700262
O54	O	1.252497	-0.292229	-0.450262
O55	O	1.502497	-0.042229	-0.200262
O56	O	1.752497	0.207771	0.049738
O57	O	1.209590	-0.406036	-0.865557
O58	O	1.459590	-0.156036	-0.615557
O59	O	1.709590	0.093964	-0.365557
O60	O	1.959590	0.343964	-0.115557
O61	O	1.268724	-0.739584	-0.613905
O62	O	1.518724	-0.489584	-0.363905
O63	O	1.768724	-0.239584	-0.113905
O64	O	2.018724	0.010416	0.136095
O65	O	1.152105	-0.717108	-0.731990
O66	O	1.402105	-0.467108	-0.481990
O67	O	1.652105	-0.217108	-0.231990
O68	O	1.902105	0.032892	0.018010
C69	C	1.213718	-0.765832	-0.677940
C70	C	1.463718	-0.515832	-0.427940
C71	C	1.713718	-0.265832	-0.177940
C72	C	1.963718	-0.015832	0.072060
C73	C	1.223856	-0.880666	-0.693213
C74	C	1.473856	-0.630666	-0.443213
C75	C	1.723856	-0.380666	-0.193213
C76	C	1.973856	-0.130666	0.056787
C77	C	0.973926	-0.485562	-0.627069
C78	C	1.223926	-0.235562	-0.377069
C79	C	1.473926	0.014438	-0.127069
C80	C	1.723926	0.264438	0.122931
C81	C	0.881407	-0.480518	-0.620566
C82	C	1.131407	-0.230518	-0.370566
C83	C	1.381407	0.019482	-0.120566
C84	C	1.631407	0.269482	0.129434
C85	C	1.195430	-1.056220	-0.650186
C86	C	1.445430	-0.806220	-0.400186
C87	C	1.695430	-0.556220	-0.150186
C88	C	1.945430	-0.306220	0.099814
C89	C	1.184951	-0.937532	-0.634407
C90	C	1.434951	-0.687532	-0.384407
C91	C	1.684951	-0.437532	-0.134407
C92	C	1.934951	-0.187532	0.115593
C93	C	0.712011	-0.471283	-0.608699
C94	C	0.962011	-0.221283	-0.358699
C95	C	1.212011	0.028717	-0.108699
C96	C	1.462011	0.278717	0.141301
C97	C	0.669205	-0.523589	-0.676052
C98	C	0.919205	-0.273589	-0.426052
C99	C	1.169205	-0.023589	-0.176052
C100	C	1.419205	0.226411	0.073948
C101	C	0.574948	-0.518451	-0.669450
C102	C	0.824948	-0.268451	-0.419450
C103	C	1.074948	-0.018451	-0.169450
C104	C	1.324948	0.231549	0.080550
C105	C	0.806277	-0.476420	-0.615300
C106	C	1.056277	-0.226420	-0.365300
C107	C	1.306277	0.023580	-0.115300
C108	C	1.556277	0.273580	0.134700
C109	C	1.407296	-0.509291	-0.657658
C110	C	1.657296	-0.259291	-0.407658
C111	C	1.907296	-0.009291	-0.157658
C112	C	2.157296	0.240709	0.092342
C113	C	1.499814	-0.514357	-0.664189
C114	C	1.749814	-0.264357	-0.414189
C115	C	1.999814	-0.014357	-0.164189
C116	C	2.249814	0.235643	0.085811
C117	C	1.159660	-0.461564	-0.908409
C118	C	1.409660	-0.211564	-0.658409
C119	C	1.659660	0.038436	-0.408409
C120	C	1.909660	0.288436	-0.158409
C121	C	1.146651	-0.446292	-1.021795
C122	C	1.396651	-0.196292	-0.771795
C123	C	1.646651	0.053708	-0.521795
C124	C	1.896651	0.303708	-0.271795
C125	C	1.166588	-0.227924	-0.606611
C126	C	1.416588	0.022076	-0.356611
C127	C	1.666588	0.272076	-0.106611
C128	C	1.916588	0.522076	0.143389
C129	C	1.156531	-0.113088	-0.591388
C130	C	1.406531	0.136912	-0.341388
C131	C	1.656531	0.386912	-0.091388
C132	C	1.906531	0.636912	0.158612
C133	C	1.196937	-0.505044	-1.084240
C134	C	1.446937	-0.255044	-0.834240
C135	C	1.696937	-0.005044	-0.584240
C136	C	1.946937	0.244956	-0.334240
C137	C	1.183492	-0.489260	-1.201430
C138	C	1.433492	-0.239260	-0.951430
C139	C	1.683492	0.010740	-0.701430
C140	C	1.933492	0.260740	-0.451430
C141	C	1.220640	-0.533030	-0.377286
C142	C	1.470640	-0.283030	-0.127286
C143	C	1.720640	-0.033030	0.122714
C144	C	1.970640	0.216970	0.372714
C145	C	1.233785	-0.548020	-0.263874
C146	C	1.483785	-0.298020	-0.013874
C147	C	1.733785	-0.048020	0.236126
C148	C	1.983785	0.201980	0.486126
H149	H	1.236495	-1.095403	-0.712203
H150	H	1.486495	-0.845403	-0.462203
H151	H	1.736495	-0.595403	-0.212203
H152	H	1.986495	-0.345403	0.037797
H153	H	0.703348	-0.572226	-0.738676
H154	H	0.953348	-0.322226	-0.488676
H155	H	1.203348	-0.072226	-0.238676
H156	H	1.453348	0.177774	0.011324
Br157	Br	0.655107	-0.390219	-0.504330
Br158	Br	0.905107	-0.140219	-0.254330
Br159	Br	1.155107	0.109781	-0.004330
Br160	Br	1.405107	0.359781	0.245670
Br161	Br	1.285296	-0.608347	-1.028752
Br162	Br	1.535296	-0.358347	-0.778752
Br163	Br	1.785296	-0.108347	-0.528752
Br164	Br	2.035296	0.141653	-0.278752
H165	H	1.093648	-0.384304	-1.055092
H166	H	1.343648	-0.134304	-0.805092
H167	H	1.593648	0.115696	-0.555092
H168	H	1.843648	0.365696	-0.305092
Br169	Br	1.095145	-0.385933	-1.256911
Br170	Br	1.345145	-0.135933	-1.006911
Br171	Br	1.595145	0.114067	-0.756911
Br172	Br	1.845145	0.364067	-0.506911
Br173	Br	1.116516	-0.872244	-0.531018
Br174	Br	1.366516	-0.622244	-0.281018
Br175	Br	1.616516	-0.372244	-0.031018
Br176	Br	1.866516	-0.122244	0.218982
H177	H	1.286798	-0.610004	-1.230582
H178	H	1.536798	-0.360004	-0.980582
H179	H	1.786798	-0.110004	-0.730582
H180	H	2.036798	0.139996	-0.480582
Br181	Br	1.088099	-1.047796	-0.488004
Br182	Br	1.338099	-0.797796	-0.238004
Br183	Br	1.588099	-0.547796	0.011996
Br184	Br	1.838099	-0.297796	0.261996
H185	H	1.264923	-0.919843	-0.755235
H186	H	1.514923	-0.669843	-0.505235
H187	H	1.764923	-0.419843	-0.255235
H188	H	2.014923	-0.169843	-0.005235
