data_functionalizedCrystal
_audit_creation_method	'MofGen! by Chris Wilmer'
_symmetry_space_group_name_H-M	'P1'
_symmetry_Int_Tables_number	1
_symmetry_cell_setting	triclinic
loop_
_symmetry_equiv_pos_as_xyz
  x,y,z
_cell_length_a	18.050591
_cell_length_b	18.050590
_cell_length_c	16.959447
_cell_angle_alpha	90.031775
_cell_angle_beta	90.020296
_cell_angle_gamma	90.015000
loop_
_atom_site_label
_atom_site_type_symbol
_atom_site_fract_x
_atom_site_fract_y
_atom_site_fract_z
Zn1	Zn	1.135346	-0.295715	0.447027
Zn2	Zn	1.468680	0.037618	0.780360
Zn3	Zn	1.802013	0.370952	1.113693
Zn4	Zn	1.135277	-0.419917	0.314845
Zn5	Zn	1.468610	-0.086583	0.648178
Zn6	Zn	1.801944	0.246750	0.981511
Zn7	Zn	1.011164	-0.295737	0.314850
Zn8	Zn	1.344498	0.037596	0.648184
Zn9	Zn	1.677831	0.370929	0.981517
Zn10	Zn	1.011135	-0.419860	0.446970
Zn11	Zn	1.344468	-0.086527	0.780303
Zn12	Zn	1.677801	0.246807	1.113636
O13	O	1.073231	-0.357807	0.380923
O14	O	1.406564	-0.024474	0.714256
O15	O	1.739897	0.308859	1.047590
O16	O	1.239262	-0.312205	0.429514
O17	O	1.572595	0.021128	0.762847
O18	O	1.905928	0.354462	1.096181
O19	O	1.118796	-0.403477	0.204235
O20	O	1.452130	-0.070144	0.537568
O21	O	1.785463	0.263190	0.870901
O22	O	1.027679	-0.191810	0.332410
O23	O	1.361012	0.141524	0.665743
O24	O	1.694346	0.474857	0.999077
O25	O	1.239211	-0.403455	0.332401
O26	O	1.572544	-0.070122	0.665734
O27	O	1.905877	0.263211	0.999067
O28	O	1.118915	-0.191793	0.429519
O29	O	1.452248	0.141540	0.762853
O30	O	1.785582	0.474873	1.096186
O31	O	1.027612	-0.312243	0.204239
O32	O	1.360945	0.021090	0.537572
O33	O	1.694278	0.354424	0.870905
O34	O	0.907236	-0.312188	0.332355
O35	O	1.240569	0.021145	0.665688
O36	O	1.573903	0.354479	0.999021
O37	O	1.027628	-0.403359	0.557588
O38	O	1.360961	-0.070026	0.890921
O39	O	1.694295	0.263308	1.224255
O40	O	0.907214	-0.403381	0.429422
O41	O	1.240547	-0.070047	0.762755
O42	O	1.573881	0.263286	1.096089
O43	O	1.118886	-0.312150	0.557630
O44	O	1.452219	0.021183	0.890963
O45	O	1.785553	0.354516	1.224297
O46	O	1.118767	-0.523834	0.332345
O47	O	1.452101	-0.190500	0.665678
O48	O	1.785434	0.142833	0.999012
O49	O	1.027561	-0.523792	0.429417
O50	O	1.360894	-0.190459	0.762750
O51	O	1.694227	0.142874	1.096083
C52	C	0.880278	-0.357781	0.380883
C53	C	1.213612	-0.024448	0.714217
C54	C	1.546945	0.308886	1.047550
C55	C	0.797733	-0.357788	0.380885
C56	C	1.131066	-0.024455	0.714218
C57	C	1.464399	0.308879	1.047552
C58	C	0.548897	-0.308146	0.328225
C59	C	0.882231	0.025187	0.661558
C60	C	1.215564	0.358521	0.994891
C61	C	0.598327	-0.290055	0.400362
C62	C	0.931660	0.043278	0.733695
C63	C	1.264994	0.376612	1.067028
C64	C	0.500612	-0.357826	0.380950
C65	C	0.833946	-0.024492	0.714283
C66	C	1.167279	0.308841	1.047617
C67	C	0.598264	-0.375863	0.308785
C68	C	0.931598	-0.042530	0.642119
C69	C	1.264931	0.290804	0.975452
C70	C	0.646597	-0.357805	0.380914
C71	C	0.979931	-0.024472	0.714248
C72	C	1.313264	0.308861	1.047581
C73	C	0.548955	-0.339700	0.453125
C74	C	0.882288	-0.006366	0.786459
C75	C	1.215621	0.326967	1.119792
C76	C	0.548888	-0.425539	0.361500
C77	C	0.882221	-0.092206	0.694833
C78	C	1.215554	0.241127	1.028167
C79	C	0.598295	-0.407474	0.433687
C80	C	0.931628	-0.074141	0.767020
C81	C	1.264962	0.259193	1.100353
C82	C	0.416514	-0.357836	0.380969
C83	C	0.749847	-0.024502	0.714303
C84	C	1.083181	0.308831	1.047636
C85	C	0.730694	-0.357796	0.380903
C86	C	1.064027	-0.024462	0.714236
C87	C	1.397361	0.308871	1.047570
C88	C	1.073173	-0.550759	0.380891
C89	C	1.406507	-0.217426	0.714225
C90	C	1.739840	0.115907	1.047558
C91	C	1.073217	-0.633305	0.380904
C92	C	1.406550	-0.299972	0.714238
C93	C	1.739884	0.033361	1.047571
C94	C	1.122918	-0.832751	0.328190
C95	C	1.456252	-0.499418	0.661524
C96	C	1.789585	-0.166085	0.994857
C97	C	1.141055	-0.882081	0.400333
C98	C	1.474388	-0.548748	0.733666
C99	C	1.807721	-0.215415	1.067000
C100	C	1.073259	-0.784436	0.380936
C101	C	1.406592	-0.451102	0.714269
C102	C	1.739926	-0.117769	1.047603
C103	C	1.055199	-0.882187	0.308826
C104	C	1.388532	-0.548854	0.642159
C105	C	1.721865	-0.215521	0.975492
C106	C	1.073301	-0.930421	0.380960
C107	C	1.406635	-0.597087	0.714293
C108	C	1.739968	-0.263754	1.047627
C109	C	1.091430	-0.832678	0.453116
C110	C	1.424763	-0.499345	0.786450
C111	C	1.758097	-0.166011	1.119783
C112	C	1.005543	-0.832780	0.361560
C113	C	1.338876	-0.499447	0.694894
C114	C	1.672209	-0.166113	1.028227
C115	C	1.023653	-0.882087	0.433753
C116	C	1.356986	-0.548754	0.767086
C117	C	1.690320	-0.215421	1.100419
C118	C	1.073237	-0.700337	0.380921
C119	C	1.406570	-0.367004	0.714254
C120	C	1.739903	-0.033671	1.047588
C121	C	1.073323	-1.014517	0.380983
C122	C	1.406657	-0.681184	0.714316
C123	C	1.739990	-0.347850	1.047650
C124	C	1.266936	-0.357834	0.380963
C125	C	1.600269	-0.024501	0.714296
C126	C	1.933603	0.308833	1.047630
C127	C	1.349482	-0.357846	0.380980
C128	C	1.682815	-0.024512	0.714313
C129	C	2.016149	0.308821	1.047647
C130	C	1.073261	-0.357746	0.587091
C131	C	1.406595	-0.024413	0.920425
C132	C	1.739928	0.308921	1.253758
C133	C	1.073275	-0.357720	0.674948
C134	C	1.406608	-0.024386	1.008281
C135	C	1.739941	0.308947	1.341614
C136	C	1.073308	-0.164102	0.380972
C137	C	1.406641	0.169232	0.714305
C138	C	1.739975	0.502565	1.047638
C139	C	1.073341	-0.081556	0.380993
C140	C	1.406674	0.251777	0.714326
C141	C	1.740008	0.585111	1.047659
C142	C	1.073242	-0.357815	0.175557
C143	C	1.406576	-0.024482	0.508890
C144	C	1.739909	0.308852	0.842223
C145	C	1.073373	-0.357632	0.087700
C146	C	1.406707	-0.024299	0.421034
C147	C	1.740040	0.309035	0.754367
C148	C	1.025849	-0.405130	1.046404
C149	C	1.359183	-0.071796	1.379738
C150	C	1.692516	0.261537	1.713071
C151	C	1.120877	-0.310153	1.046443
C152	C	1.454211	0.023180	1.379776
C153	C	1.787544	0.356514	1.713110
C154	C	1.120857	-0.310169	0.963897
C155	C	1.454191	0.023164	1.297230
C156	C	1.787524	0.356498	1.630564
C157	C	1.073334	-0.357666	0.922601
C158	C	1.406667	-0.024333	1.255934
C159	C	1.740000	0.309000	1.589268
C160	C	1.025830	-0.405148	0.963851
C161	C	1.359163	-0.071815	1.297184
C162	C	1.692496	0.261518	1.630517
C163	C	1.168366	-0.262693	0.922641
C164	C	1.501699	0.070640	1.255975
C165	C	1.835032	0.403973	1.589308
C166	C	1.168348	-0.262708	0.840090
C167	C	1.501682	0.070626	1.173424
C168	C	1.835015	0.403959	1.506757
C169	C	1.120820	-0.310202	0.798793
C170	C	1.454154	0.023131	1.132126
C171	C	1.787487	0.356465	1.465459
C172	C	1.073314	-0.357685	0.840047
C173	C	1.406647	-0.024352	1.173381
C174	C	1.739981	0.308981	1.506714
C175	C	1.025790	-0.405183	0.798751
C176	C	1.359124	-0.071849	1.132085
C177	C	1.692457	0.261484	1.465418
C178	C	0.978280	-0.452663	0.840005
C179	C	1.311613	-0.119329	1.173338
C180	C	1.644946	0.214004	1.506671
C181	C	0.978302	-0.452643	0.922553
C182	C	1.311635	-0.119309	1.255886
C183	C	1.644968	0.214024	1.589220
C184	C	1.120798	-0.310222	0.716244
C185	C	1.454132	0.023111	1.049577
C186	C	1.787465	0.356445	1.382911
C187	C	1.025771	-0.405202	0.716198
C188	C	1.359104	-0.071868	1.049531
C189	C	1.692437	0.261465	1.382864
H190	H	0.619846	-0.449478	0.478311
H191	H	0.953180	-0.116145	0.811644
H192	H	1.286513	0.217188	1.144977
H193	H	0.527210	-0.266111	0.283707
H194	H	0.860543	0.067223	0.617040
H195	H	1.193877	0.400556	0.950374
H196	H	1.159483	-0.271567	0.682659
H197	H	1.492816	0.061767	1.015993
H198	H	1.826149	0.395100	1.349326
H199	H	1.207062	-0.224028	0.956271
H200	H	1.540395	0.109305	1.289604
H201	H	1.873728	0.442639	1.622937
H202	H	0.620030	-0.232780	0.416812
H203	H	0.953363	0.100554	0.750145
H204	H	1.286697	0.433887	1.083479
H205	H	0.939624	-0.491301	0.956149
H206	H	1.272957	-0.157967	1.289482
H207	H	1.606290	0.175366	1.622816
H208	H	1.164928	-0.811088	0.283632
H209	H	1.498261	-0.477755	0.616965
H210	H	1.831594	-0.144421	0.950298
H211	H	0.527156	-0.482796	0.345038
H212	H	0.860489	-0.149462	0.678371
H213	H	1.193822	0.183871	1.011704
H214	H	0.527384	-0.324368	0.514156
H215	H	0.860718	0.008965	0.847490
H216	H	1.194051	0.342298	1.180823
H217	H	1.198339	-0.903739	0.416737
H218	H	1.531672	-0.570406	0.750070
H219	H	1.865006	-0.237072	1.083403
H220	H	0.948275	-0.811106	0.345135
H221	H	1.281608	-0.477773	0.678469
H222	H	1.614941	-0.144440	1.011802
H223	H	0.619926	-0.391127	0.247771
H224	H	0.953260	-0.057794	0.581105
H225	H	1.286593	0.275539	0.914438
H226	H	1.106666	-0.811024	0.514162
H227	H	1.440000	-0.477690	0.847495
H228	H	1.773333	-0.144357	1.180828
H229	H	1.207034	-0.224046	0.806509
H230	H	1.540368	0.109287	1.139842
H231	H	1.873701	0.442621	1.473175
H232	H	1.039906	-0.903934	0.247833
H233	H	1.373239	-0.570601	0.581166
H234	H	1.706572	-0.237267	0.914500
H235	H	0.981676	-0.903613	0.478420
H236	H	1.315009	-0.570280	0.811753
H237	H	1.648342	-0.236947	1.145086
H238	H	0.939589	-0.491339	0.806370
H239	H	1.272923	-0.158005	1.139704
H240	H	1.606256	0.175328	1.473037
H241	H	0.987064	-0.443874	0.682580
H242	H	1.320397	-0.110540	1.015913
H243	H	1.653731	0.222793	1.349247
H244	H	0.987165	-0.443784	1.079996
H245	H	1.320499	-0.110451	1.413330
H246	H	1.653832	0.222882	1.746663
H247	H	1.159573	-0.271487	1.080071
H248	H	1.492906	0.061846	1.413405
H249	H	1.826240	0.395180	1.746738
