data_functionalizedCrystal
_audit_creation_method	'MofGen! by Chris Wilmer'
_symmetry_space_group_name_H-M	'P1'
_symmetry_Int_Tables_number	1
_symmetry_cell_setting	triclinic
loop_
_symmetry_equiv_pos_as_xyz
  x,y,z
_cell_length_a	19.188930
_cell_length_b	19.188930
_cell_length_c	17.666332
_cell_angle_alpha	90.011603
_cell_angle_beta	89.976766
_cell_angle_gamma	96.855221
loop_
_atom_site_label
_atom_site_type_symbol
_atom_site_fract_x
_atom_site_fract_y
_atom_site_fract_z
O1	O	0.926150	-0.087169	-0.063200
O2	O	0.722838	-0.098903	-0.063149
O3	O	0.830361	0.008620	-0.063161
O4	O	0.818627	-0.194692	-0.063188
O5	O	0.830342	0.008625	0.062735
O6	O	0.722820	-0.098897	0.062747
O7	O	0.926131	-0.087163	0.062697
Cu8	Cu	0.824473	-0.093030	0.074217
Cu9	Cu	0.824496	-0.093036	-0.074670
O10	O	0.818608	-0.194686	0.062709
C11	C	0.696818	-0.098520	-0.000194
C12	C	0.619313	-0.097380	-0.000174
C13	C	0.574389	-0.160470	-0.000194
C14	C	0.501566	-0.159399	-0.000203
C15	C	0.473669	-0.095233	-0.000206
C16	C	0.518603	-0.032133	-0.000181
C17	C	0.591425	-0.033207	-0.000166
N18	N	0.365695	-0.046188	-0.043078
N19	N	0.296517	-0.045172	-0.043095
C20	C	0.254260	-0.091994	-0.000252
N21	N	0.283795	-0.139881	0.042599
N22	N	0.352979	-0.140899	0.042612
C23	C	0.394707	-0.094062	-0.000222
C24	C	0.130372	-0.153928	-0.000280
C25	C	0.057547	-0.152853	-0.000283
C26	C	0.074586	-0.025586	-0.000270
C27	C	0.147409	-0.026662	-0.000258
C28	C	0.175298	-0.090835	-0.000267
C29	C	0.829972	0.034634	-0.000211
C30	C	0.828831	0.112138	-0.000204
C31	C	0.952151	-0.087546	-0.000260
C32	C	1.029656	-0.088687	-0.000285
C33	C	0.818997	-0.220700	-0.000244
C34	C	0.820138	-0.298204	-0.000255
N35	N	0.824463	-0.093025	0.178937
C36	C	0.891922	0.157062	-0.000216
C37	C	0.890850	0.229886	-0.000228
C38	C	0.826684	0.257782	-0.000212
C39	C	0.763585	0.212849	-0.000205
C40	C	0.764658	0.140026	-0.000200
N41	N	0.777630	0.365789	0.042645
N42	N	0.776615	0.434968	0.042642
C43	C	0.823446	0.477191	-0.000227
N44	N	0.871341	0.447624	-0.043084
N45	N	0.872359	0.378439	-0.043079
C46	C	0.825513	0.336745	-0.000218
C47	C	0.885379	0.601079	-0.000253
C48	C	0.884305	0.673904	-0.000270
C49	C	0.757038	0.656865	-0.000239
C50	C	0.758114	0.584042	-0.000230
C51	C	0.822287	0.556154	-0.000233
N52	N	0.824512	-0.093036	-0.179390
C53	C	0.872089	-0.045437	0.218541
C54	C	0.872093	-0.045433	0.297789
C55	C	0.824478	-0.093030	0.337429
C56	C	0.776842	-0.140621	0.297815
C57	C	0.776835	-0.140619	0.218569
N58	N	0.815401	-0.154837	0.461841
N59	N	0.815413	-0.154837	0.537121
C60	C	0.824496	-0.093040	0.576193
N61	N	0.833582	-0.031239	0.537140
N62	N	0.833574	-0.031240	0.461853
C63	C	0.824480	-0.093038	0.423358
C64	C	0.872130	-0.045444	0.701727
C65	C	0.872129	-0.045440	0.780976
C66	C	0.776881	-0.140634	0.781000
C67	C	0.776878	-0.140632	0.701753
C68	C	0.824506	-0.093038	0.662121
H69	H	0.051874	0.026659	-0.000319
H70	H	0.706738	0.547464	-0.000216
H71	H	0.910910	-0.006684	0.813222
H72	H	0.937632	0.578372	-0.000259
H73	H	0.935683	0.710481	-0.000284
H74	H	0.628003	0.018171	-0.000150
H75	H	0.910878	-0.006680	0.330041
H76	H	0.020970	-0.204232	-0.000295
H77	H	0.704792	0.679578	-0.000230
H78	H	0.183988	0.024713	-0.000246
H79	H	0.738072	-0.179374	0.330094
N80	N	0.158853	-0.219481	-0.000284
N81	N	0.118730	-0.275810	-0.000292
H82	H	0.138843	-0.322108	-0.000294
N83	N	0.955305	0.275776	-0.000226
N84	N	0.998014	0.273355	0.052841
H85	H	1.043536	0.305763	0.052845
N86	N	0.698034	0.241327	-0.000192
N87	N	0.655556	0.227478	-0.053250
H88	H	0.609256	0.247589	-0.053244
H89	H	0.944176	0.134360	-0.000222
H90	H	0.910869	-0.006681	0.186275
H91	H	0.738051	-0.179371	0.186322
H92	H	0.713281	0.103448	-0.000190
N93	N	0.920695	0.003261	0.661250
N94	N	0.963154	0.045811	0.696625
H95	H	0.997422	0.080243	0.668040
N96	N	0.728240	-0.189242	0.821494
N97	N	0.728248	-0.189236	0.892248
H98	H	0.693892	-0.223564	0.920851
N99	N	0.728224	-0.189248	0.661305
N100	N	0.685710	-0.231740	0.696704
H101	H	0.651343	-0.266075	0.668138
H102	H	0.597091	-0.212725	-0.000203
H103	H	0.495885	0.020111	-0.000194
N104	N	0.455676	-0.223854	-0.000219
N105	N	0.480586	-0.281143	-0.000223
H106	H	0.448179	-0.326666	-0.000234
