data_functionalizedCrystal
_audit_creation_method	'MofGen! by Chris Wilmer'
_symmetry_space_group_name_H-M	'P1'
_symmetry_Int_Tables_number	1
_symmetry_cell_setting	triclinic
loop_
_symmetry_equiv_pos_as_xyz
  x,y,z
_cell_length_a	14.586319
_cell_length_b	19.288864
_cell_length_c	19.288857
_cell_angle_alpha	96.865323
_cell_angle_beta	90.005938
_cell_angle_gamma	89.982652
loop_
_atom_site_label
_atom_site_type_symbol
_atom_site_fract_x
_atom_site_fract_y
_atom_site_fract_z
O1	O	0.076539	-0.921345	0.086647
O2	O	0.409872	-0.588012	0.419980
O3	O	0.743205	-0.254678	0.753314
O4	O	0.076477	-0.719084	0.098336
O5	O	0.409810	-0.385751	0.431669
O6	O	0.743143	-0.052417	0.765003
O7	O	0.076498	-0.826062	-0.008639
O8	O	0.409832	-0.492728	0.324694
O9	O	0.743165	-0.159395	0.658027
O10	O	0.076517	-0.814367	0.193622
O11	O	0.409850	-0.481034	0.526956
O12	O	0.743183	-0.147701	0.860289
O13	O	-0.075982	-0.826054	-0.008641
O14	O	0.257351	-0.492721	0.324693
O15	O	0.590684	-0.159388	0.658026
O16	O	-0.076004	-0.719077	0.098334
O17	O	0.257329	-0.385743	0.431668
O18	O	0.590662	-0.052410	0.765001
O19	O	-0.075942	-0.921338	0.086646
O20	O	0.257391	-0.588004	0.419979
O21	O	0.590724	-0.254671	0.753312
Cu22	Cu	-0.089896	-0.820206	0.092490
Cu23	Cu	0.243437	-0.486873	0.425823
Cu24	Cu	0.576771	-0.153540	0.759156
Cu25	Cu	0.090430	-0.820215	0.092492
Cu26	Cu	0.423764	-0.486882	0.425825
Cu27	Cu	0.757097	-0.153549	0.759158
O28	O	-0.075964	-0.814360	0.193621
O29	O	0.257369	-0.481027	0.526954
O30	O	0.590703	-0.147693	0.860287
C31	C	0.000228	-0.693204	0.097959
C32	C	0.333561	-0.359871	0.431292
C33	C	0.666895	-0.026537	0.764626
C34	C	0.000204	-0.616100	0.096830
C35	C	0.333537	-0.282767	0.430163
C36	C	0.666871	0.050566	0.763497
C37	C	0.000257	-0.825683	-0.034516
C38	C	0.333590	-0.492349	0.298817
C39	C	0.666924	-0.159016	0.632150
C40	C	0.000254	-0.824556	-0.111620
C41	C	0.333587	-0.491222	0.221713
C42	C	0.666921	-0.157889	0.555046
N43	N	-0.216728	-0.820205	0.092488
N44	N	0.116606	-0.486872	0.425821
N45	N	0.449939	-0.153539	0.759155
C46	C	-0.451724	-0.867591	0.045135
C47	C	-0.118391	-0.534257	0.378469
C48	C	0.214942	-0.200924	0.711802
C49	C	-0.547706	-0.867593	0.045134
C50	C	-0.214372	-0.534259	0.378467
C51	C	0.118961	-0.200926	0.711800
C52	C	-0.547735	-0.772831	0.139843
C53	C	-0.214401	-0.439498	0.473176
C54	C	0.118932	-0.106165	0.806510
C55	C	-0.451755	-0.772827	0.139841
C56	C	-0.118422	-0.439493	0.473174
C57	C	0.214912	-0.106160	0.806507
C58	C	-0.403752	-0.820210	0.092488
C59	C	-0.070419	-0.486877	0.425821
C60	C	0.262914	-0.153544	0.759154
C61	C	-0.595713	-0.820217	0.092488
C62	C	-0.262380	-0.486884	0.425822
C63	C	0.070953	-0.153550	0.759155
C64	C	-0.699780	-0.820219	0.092487
C65	C	-0.366447	-0.486885	0.425820
C66	C	-0.033114	-0.153552	0.759153
C67	C	-0.299679	-0.820208	0.092488
C68	C	0.033655	-0.486874	0.425821
C69	C	0.366988	-0.153541	0.759155
N70	N	0.217262	-0.820222	0.092488
N71	N	0.550595	-0.486888	0.425821
N72	N	0.883929	-0.153555	0.759155
C73	C	0.000308	-0.947218	0.087022
C74	C	0.333642	-0.613884	0.420356
C75	C	0.666975	-0.280551	0.753689
C76	C	0.000338	-1.024321	0.088151
C77	C	0.333672	-0.690988	0.421485
C78	C	0.667005	-0.357655	0.754818
C79	C	0.000224	-0.571402	0.159598
C80	C	0.333557	-0.238069	0.492931
C81	C	0.666891	0.095264	0.826265
C82	C	0.000234	-0.498955	0.158537
C83	C	0.333567	-0.165622	0.491871
C84	C	0.666901	0.167711	0.825204
C85	C	0.000242	-0.471209	0.094705
C86	C	0.333576	-0.137876	0.428038
C87	C	0.666909	0.195457	0.761372
C88	C	0.000217	-0.515917	0.031929
C89	C	0.333550	-0.182584	0.365262
C90	C	0.666884	0.150749	0.698595
C91	C	0.000198	-0.588363	0.032991
C92	C	0.333531	-0.255029	0.366325
C93	C	0.666865	0.078304	0.699658
C94	C	0.053689	-0.362951	0.044526
C95	C	0.387023	-0.029618	0.377860
C96	C	0.720356	0.303715	0.711193
C97	C	0.053714	-0.290507	0.043466
C98	C	0.387048	0.042826	0.376800
C99	C	0.720381	0.376160	0.710133
C100	C	0.000298	-0.247764	0.091425
C101	C	0.333631	0.085569	0.424759
C102	C	0.666964	0.418903	0.758092
C103	C	-0.053132	-0.277473	0.140456
C104	C	0.280201	0.055861	0.473789
C105	C	0.613534	0.389194	0.807123
C106	C	-0.053151	-0.349918	0.141519
C107	C	0.280182	-0.016585	0.474852
C108	C	0.613515	0.316748	0.808185
C109	C	0.000263	-0.392656	0.093546
C110	C	0.333596	-0.059322	0.426879
C111	C	0.666929	0.274011	0.760213
C112	C	0.000327	-0.124510	0.153048
C113	C	0.333661	0.208823	0.486381
C114	C	0.666994	0.542157	0.819714
C115	C	0.000332	-0.052062	0.151984
C116	C	0.333665	0.281271	0.485318
C117	C	0.666998	0.614605	0.818651
C118	C	0.000324	-0.069026	0.025374
C119	C	0.333657	0.264308	0.358707
C120	C	0.666991	0.597641	0.692041
C121	C	0.000310	-0.141472	0.026439
C122	C	0.333644	0.191861	0.359772
C123	C	0.666977	0.525195	0.693106
C124	C	0.000316	-0.169210	0.090278
C125	C	0.333650	0.164124	0.423611
C126	C	0.666983	0.497457	0.756945
C127	C	0.083371	-0.824034	-0.147830
C128	C	0.416705	-0.490701	0.185503
C129	C	0.750038	-0.157367	0.518837
C130	C	0.083378	-0.822965	-0.220276
C131	C	0.416711	-0.489632	0.113057
C132	C	0.750044	-0.156298	0.446391
C133	C	0.000262	-0.822432	-0.256511
C134	C	0.333596	-0.489099	0.076822
C135	C	0.666929	-0.155766	0.410155
C136	C	-0.082866	-0.822950	-0.220292
C137	C	0.250467	-0.489617	0.113041
C138	C	0.583801	-0.156284	0.446374
C139	C	-0.082870	-0.824012	-0.147847
C140	C	0.250463	-0.490679	0.185486
C141	C	0.583797	-0.157345	0.518820
C142	C	-0.063397	-0.861431	-0.376744
C143	C	0.269936	-0.528098	-0.043410
C144	C	0.603270	-0.194764	0.289923
C145	C	-0.063390	-0.860373	-0.449188
C146	C	0.269944	-0.527040	-0.115855
C147	C	0.603277	-0.193707	0.217478
C148	C	0.000272	-0.819155	-0.479957
C149	C	0.333605	-0.485821	-0.146624
C150	C	0.666938	-0.152488	0.186709
C151	C	0.063941	-0.779002	-0.438274
C152	C	0.397274	-0.445669	-0.104940
C153	C	0.730607	-0.112335	0.228393
C154	C	0.063936	-0.780064	-0.365828
C155	C	0.397270	-0.446731	-0.032495
C156	C	0.730603	-0.113397	0.300839
C157	C	0.000257	-0.821281	-0.335066
C158	C	0.333591	-0.487947	-0.001733
C159	C	0.666924	-0.154614	0.331600
C160	C	0.083402	-0.817473	-0.594721
C161	C	0.416735	-0.484140	-0.261388
C162	C	0.750068	-0.150806	0.071945
C163	C	0.083405	-0.816400	-0.667168
C164	C	0.416738	-0.483066	-0.333835
C165	C	0.750071	-0.149733	-0.000501
C166	C	-0.082841	-0.816392	-0.667184
C167	C	0.250492	-0.483059	-0.333850
C168	C	0.583825	-0.149725	-0.000517
C169	C	-0.082842	-0.817458	-0.594738
C170	C	0.250491	-0.484125	-0.261404
C171	C	0.583825	-0.150791	0.071929
C172	C	0.000282	-0.818002	-0.558511
C173	C	0.333615	-0.484668	-0.225178
C174	C	0.666949	-0.151335	0.108156
C175	C	0.000279	-0.814739	0.219498
C176	C	0.333613	-0.481406	0.552831
C177	C	0.666946	-0.148072	0.886165
C178	C	0.000288	-0.815866	0.296602
C179	C	0.333622	-0.482533	0.629935
C180	C	0.666955	-0.149199	0.963269
H181	H	-0.412643	-0.906172	0.006577
H182	H	-0.079310	-0.572839	0.339910
H183	H	0.254024	-0.239505	0.673243
Br184	Br	0.000256	-0.438282	0.243729
Br185	Br	0.333589	-0.104948	0.577062
Br186	Br	0.666923	0.228385	0.910395
H187	H	-0.150556	-0.824434	-0.118365
H188	H	0.182777	-0.491101	0.214968
H189	H	0.516110	-0.157767	0.548302
Br190	Br	-0.386642	-0.708515	0.204104
Br191	Br	-0.053309	-0.375182	0.537437
Br192	Br	0.280024	-0.041848	0.870770
Br193	Br	0.000231	-0.609043	0.246236
Br194	Br	0.333564	-0.275710	0.579569
Br195	Br	0.666897	0.057623	0.912903
H196	H	0.151086	-0.817912	-0.565223
H197	H	0.484420	-0.484578	-0.231890
H198	H	0.817753	-0.151245	0.101443
Br199	Br	0.196188	-0.822254	-0.269429
Br200	Br	0.529521	-0.488921	0.063905
Br201	Br	0.862854	-0.155587	0.397238
Br202	Br	0.000219	-0.478265	-0.054702
Br203	Br	0.333552	-0.144931	0.278632
Br204	Br	0.666886	0.188402	0.611965
Br205	Br	0.196217	-0.815684	-0.716311
Br206	Br	0.529550	-0.482350	-0.382977
Br207	Br	0.862884	-0.149017	-0.049644
Br208	Br	0.150337	-0.725573	-0.309259
Br209	Br	0.483670	-0.392239	0.024074
Br210	Br	0.817004	-0.058906	0.357407
Br211	Br	0.000351	0.008602	0.237178
Br212	Br	0.333684	0.341936	0.570511
Br213	Br	0.667017	0.675269	0.903844
H214	H	0.000319	-0.147095	0.205029
H215	H	0.333652	0.186238	0.538362
H216	H	0.666985	0.519572	0.871696
H217	H	-0.096659	-0.374104	0.181439
H218	H	0.236675	-0.040771	0.514772
H219	H	0.570008	0.292562	0.848106
H220	H	-0.096630	-0.242672	0.179509
H221	H	0.236703	0.090661	0.512842
H222	H	0.570037	0.423994	0.846175
H223	H	-0.586762	-0.906173	0.006574
H224	H	-0.253429	-0.572840	0.339908
H225	H	0.079905	-0.239507	0.673241
Br226	Br	-0.612884	-0.708529	0.204107
Br227	Br	-0.279551	-0.375196	0.537440
Br228	Br	0.053783	-0.041862	0.870773
H229	H	0.000387	-0.046436	-0.026600
H230	H	0.333721	0.286897	0.306734
H231	H	0.667054	0.620231	0.640067
Br232	Br	0.000285	-0.202138	-0.058751
Br233	Br	0.333619	0.131195	0.274582
Br234	Br	0.666952	0.464529	0.607915
H235	H	0.097224	-0.266324	0.003546
H236	H	0.430557	0.067010	0.336879
H237	H	0.763890	0.400343	0.670212
H238	H	0.097193	-0.397748	0.005471
H239	H	0.430527	-0.064414	0.338804
H240	H	0.763860	0.268919	0.672137
H241	H	-0.150539	-0.822515	-0.249800
H242	H	0.182794	-0.489181	0.083534
H243	H	0.516128	-0.155848	0.416867
H244	H	0.000182	-0.624757	-0.018124
H245	H	0.333515	-0.291423	0.315209
H246	H	0.666849	0.041910	0.648543
Br247	Br	0.196182	-0.824769	-0.098668
Br248	Br	0.529515	-0.491435	0.234665
Br249	Br	0.862848	-0.158102	0.567999
H250	H	0.115780	-0.745438	-0.463324
H251	H	0.449113	-0.412105	-0.129990
H252	H	0.782446	-0.078771	0.203343
Br253	Br	-0.195644	-0.815662	-0.716351
Br254	Br	0.137690	-0.482329	-0.383018
Br255	Br	0.471023	-0.148995	-0.049685
Br256	Br	-0.195651	-0.818163	-0.545592
Br257	Br	0.137683	-0.484830	-0.212258
Br258	Br	0.471016	-0.151497	0.121075
Br259	Br	-0.149790	-0.914870	-0.505752
Br260	Br	0.183543	-0.581536	-0.172419
Br261	Br	0.516876	-0.248203	0.160915
H262	H	-0.115245	-0.894995	-0.351698
H263	H	0.218089	-0.561662	-0.018365
H264	H	0.551422	-0.228329	0.314969
