data_functionalizedCrystal
_audit_creation_method	'MofGen! by Chris Wilmer'
_symmetry_space_group_name_H-M	'P1'
_symmetry_Int_Tables_number	1
_symmetry_cell_setting	triclinic
loop_
_symmetry_equiv_pos_as_xyz
  x,y,z
_cell_length_a	6.817900
_cell_length_b	19.453114
_cell_length_c	10.943632
_cell_angle_alpha	94.440217
_cell_angle_beta	108.838880
_cell_angle_gamma	101.709288
loop_
_atom_site_label
_atom_site_type_symbol
_atom_site_fract_x
_atom_site_fract_y
_atom_site_fract_z
V1	V	-4.034382	-0.218982	-0.179974
O2	O	-3.993629	-0.214831	0.007265
O3	O	-4.012894	-0.217468	-0.355528
O4	O	-3.976966	-0.314495	-0.177813
O5	O	-4.029805	-0.117132	-0.171680
V6	V	-4.515692	-0.206802	-0.157506
O7	O	-4.300497	-0.245700	-0.229259
O8	O	-4.699774	-0.180084	-0.108222
O9	O	-4.313974	-0.208316	0.018048
O10	O	-4.673842	-0.210953	-0.344746
O11	O	-4.637666	-0.308652	-0.165800
O12	O	-4.349901	-0.111289	-0.159668
C13	C	-3.864733	-0.214009	-0.398305
C14	C	-3.928390	-0.213407	-0.541827
C15	C	-3.774718	-0.209407	-0.618955
C16	C	-3.874556	-0.152706	-0.691253
C17	C	-3.942002	-0.269044	-0.725260
C18	C	-4.027362	-0.156666	-0.612221
C19	C	-4.094807	-0.273056	-0.646234
C20	C	-4.194760	-0.216343	-0.718495
C21	C	-3.818903	-0.337776	-0.171610
C22	C	-3.853420	-0.415859	-0.171004
C23	C	-4.052412	-0.456115	-0.177200
C24	C	-4.084845	-0.529482	-0.176631
C25	C	-3.918288	-0.562592	-0.169892
C26	C	-3.719264	-0.522325	-0.163688
C27	C	-3.686831	-0.448959	-0.164244
N28	N	-3.868996	-0.681374	-0.238075
N29	N	-3.899821	-0.751070	-0.237550
C30	C	-4.015997	-0.783640	-0.168214
N31	N	-4.100222	-0.743884	-0.099441
N32	N	-4.069403	-0.674182	-0.099972
C33	C	-3.953436	-0.642145	-0.169288
C34	C	-4.250168	-0.903449	-0.173792
C35	C	-4.282591	-0.976817	-0.173215
C36	C	-3.917010	-0.969659	-0.160285
C37	C	-3.884587	-0.896292	-0.160849
C38	C	-4.051177	-0.863192	-0.167609
C39	C	-4.125478	-0.211773	0.060818
C40	C	-4.041059	-0.212379	0.204338
C41	C	-4.171308	-0.088004	-0.165875
C42	C	-4.116028	-0.009921	-0.166474
H43	H	-3.782100	-0.101816	-0.711699
Br44	Br	-4.491735	-0.221202	-0.790576
Br45	Br	-3.882836	-0.348183	-0.807267
H46	H	-3.596516	-0.206408	-0.575452
Br47	Br	-4.552671	-1.031452	-0.181618
H48	H	-4.062806	-0.109125	-0.563161
H49	H	-4.187184	-0.323946	-0.625756
H50	H	-4.188063	-0.429170	-0.182700
Br51	Br	-3.690943	-1.014583	-0.151107
H52	H	-4.246897	-0.562266	-0.181684
H53	H	-3.722555	-0.863516	-0.155817
H54	H	-3.583652	-0.549287	-0.158197
Br55	Br	-3.416750	-0.394321	-0.155837
Br56	Br	-4.476241	-0.858523	-0.182958
