data_functionalizedCrystal
_audit_creation_method	'MofGen! by Chris Wilmer'
_symmetry_space_group_name_H-M	'P1'
_symmetry_Int_Tables_number	1
_symmetry_cell_setting	triclinic
loop_
_symmetry_equiv_pos_as_xyz
  x,y,z
_cell_length_a	34.408637
_cell_length_b	34.407814
_cell_length_c	34.404193
_cell_angle_alpha	60.004510
_cell_angle_beta	60.009006
_cell_angle_gamma	59.994604
loop_
_atom_site_label
_atom_site_type_symbol
_atom_site_fract_x
_atom_site_fract_y
_atom_site_fract_z
O1	O	0.053973	-0.567860	0.474801
O2	O	0.553973	-0.067860	0.974801
O3	O	0.020377	-0.442124	0.382567
O4	O	0.520377	0.057876	0.882567
O5	O	0.100004	-0.521670	0.382483
O6	O	0.600004	-0.021670	0.882483
O7	O	-0.025653	-0.488314	0.474886
O8	O	0.474347	0.011686	0.974886
O9	O	0.126426	-0.495253	0.408816
O10	O	0.626426	0.004747	0.908816
O11	O	0.046800	-0.415707	0.408900
O12	O	0.546800	0.084293	0.908900
O13	O	0.080396	-0.541443	0.501134
O14	O	0.580396	-0.041443	1.001134
Zn15	Zn	0.067793	-0.474381	0.459198
Zn16	Zn	0.567793	0.025619	0.959198
Zn17	Zn	0.032980	-0.509186	0.424503
Zn18	Zn	0.532980	-0.009186	0.924503
O19	O	0.000769	-0.461897	0.501219
O20	O	0.500769	0.038103	1.001219
N21	N	0.091552	-0.450631	0.482879
N22	N	0.591552	0.049369	0.982879
N23	N	0.009225	-0.532940	0.400823
N24	N	0.509225	-0.032940	0.900823
C25	C	0.142848	-0.268847	0.534081
C26	C	0.642848	0.231153	1.034081
C27	C	0.142979	-0.399386	0.664559
C28	C	0.642979	0.100614	1.164559
C29	C	0.142862	-0.399365	0.534081
C30	C	0.642862	0.100635	1.034081
C31	C	0.273409	-0.399338	0.533986
C32	C	0.773409	0.100662	1.033986
C33	C	0.157225	-0.311914	0.548422
C34	C	0.657225	0.188086	1.048422
C35	C	0.157300	-0.385019	0.621491
C36	C	0.657300	0.114981	1.121491
C37	C	0.230339	-0.384991	0.548370
C38	C	0.730339	0.115009	1.048370
C39	C	0.157235	-0.385007	0.548422
C40	C	0.657235	0.114993	1.048422
C41	C	0.124548	-0.214028	0.515827
C42	C	0.624548	0.285972	1.015827
C43	C	0.124571	-0.417639	0.515827
C44	C	0.624571	0.082361	1.015827
C45	C	0.175526	-0.366733	0.566676
C46	C	0.675526	0.133267	1.066676
C47	C	0.353121	-0.385580	0.491988
C48	C	0.853121	0.114420	0.991988
C49	C	0.402952	-0.402180	0.475348
C50	C	0.902952	0.097820	0.975348
C51	C	0.402981	-0.482812	0.506096
C52	C	0.902981	0.017188	1.006096
C53	C	0.353151	-0.466211	0.522737
C54	C	0.853151	0.033789	1.022737
C55	C	0.136544	-0.189099	0.466839
C56	C	0.636544	0.310901	0.966839
C57	C	0.119905	-0.139265	0.450247
C58	C	0.619905	0.360735	0.950247
C59	C	0.079280	-0.139291	0.531632
C60	C	0.579280	0.360709	1.031632
C61	C	0.095918	-0.189125	0.548224
C62	C	0.595918	0.310875	1.048224
C63	C	0.075577	-0.405615	0.527900
C64	C	0.575577	0.094385	1.027900
C65	C	0.058953	-0.422228	0.511301
C66	C	0.558953	0.077772	1.011301
C67	C	0.140315	-0.462889	0.470566
C68	C	0.640315	0.037111	0.970566
C69	C	0.156941	-0.446276	0.487159
C70	C	0.656941	0.053724	0.987159
C71	C	0.075772	-0.405653	0.744326
C72	C	0.575772	0.094347	1.244326
C73	C	0.059206	-0.422280	0.794159
C74	C	0.559206	0.077720	1.294159
C75	C	0.140607	-0.462951	0.794094
C76	C	0.640607	0.037049	1.294094
C77	C	0.157172	-0.446325	0.744260
C78	C	0.657172	0.053675	1.244260
C79	C	0.124753	-0.417674	0.719377
C80	C	0.624753	0.082326	1.219377
C81	C	0.328223	-0.417595	0.515681
C82	C	0.828223	0.082405	1.015681
C83	C	-0.172390	-0.583988	0.349141
C84	C	0.327610	-0.083988	0.849141
C85	C	-0.041751	-0.584138	0.218783
C86	C	0.458249	-0.084138	0.718783
C87	C	-0.041941	-0.584130	0.349402
C88	C	0.458059	-0.084130	0.849402
C89	C	-0.041957	-0.714607	0.349338
C90	C	0.458043	-0.214607	0.849338
C91	C	-0.129326	-0.598388	0.334853
C92	C	0.370674	-0.098388	0.834853
C93	C	-0.056165	-0.598473	0.261852
C94	C	0.443835	-0.098473	0.761852
C95	C	-0.056282	-0.671535	0.334962
C96	C	0.443718	-0.171535	0.834962
C97	C	-0.056272	-0.598469	0.334999
C98	C	0.443728	-0.098469	0.834999
C99	C	-0.227205	-0.565659	0.367327
C100	C	0.272795	-0.065659	0.867327
C101	C	-0.023703	-0.565882	0.367734
C102	C	0.476297	-0.065882	0.867734
C103	C	-0.074511	-0.616717	0.316667
C104	C	0.425489	-0.116717	0.816667
C105	C	-0.055754	-0.794298	0.391257
C106	C	0.444246	-0.294298	0.891257
C107	C	-0.039181	-0.844132	0.407888
C108	C	0.460819	-0.344132	0.907888
C109	C	0.041447	-0.844215	0.377269
C110	C	0.541447	-0.344215	0.877269
C111	C	0.024873	-0.794381	0.360637
C112	C	0.524873	-0.294381	0.860637
C113	C	-0.252183	-0.577666	0.416302
C114	C	0.247817	-0.077666	0.916302
C115	C	-0.302014	-0.561001	0.432833
C116	C	0.197986	-0.061001	0.932833
C117	C	-0.301886	-0.520329	0.351410
C118	C	0.198114	-0.020329	0.851410
C119	C	-0.252055	-0.536994	0.334880
C120	C	0.247945	-0.036994	0.834880
C121	C	-0.035709	-0.516892	0.355682
C122	C	0.464291	-0.016892	0.855682
C123	C	-0.019129	-0.500308	0.372353
C124	C	0.480871	-0.000308	0.872353
C125	C	0.021465	-0.581700	0.413115
C126	C	0.521465	-0.081700	0.913115
C127	C	0.004884	-0.598286	0.396450
C128	C	0.504884	-0.098286	0.896450
C129	C	-0.035389	-0.516907	0.139026
C130	C	0.464611	-0.016907	0.639026
C131	C	-0.018707	-0.500324	0.089193
C132	C	0.481293	-0.000324	0.589193
C133	C	0.021949	-0.581721	0.089240
C134	C	0.521949	-0.081721	0.589240
C135	C	0.005268	-0.598303	0.139074
C136	C	0.505268	-0.098303	0.639074
C137	C	-0.023402	-0.565894	0.163965
C138	C	0.476598	-0.065894	0.663965
C139	C	-0.023728	-0.769425	0.367633
C140	C	0.476272	-0.269425	0.867633
N141	N	0.427173	-0.450553	0.482630
N142	N	0.927173	0.049447	0.982630
O143	O	0.589997	-0.458460	0.365361
O144	O	1.089997	0.041540	0.865361
O145	O	0.590185	-0.550997	0.490963
O146	O	1.090185	-0.050997	0.990963
O147	O	0.590104	-0.550786	0.411309
O148	O	1.090104	-0.050786	0.911309
O149	O	0.590077	-0.458671	0.445016
O150	O	1.090077	0.041329	0.945016
O151	O	0.510940	-0.524462	0.437777
O152	O	1.010940	-0.024462	0.937777
O153	O	0.511020	-0.524674	0.517432
O154	O	1.011020	-0.024674	1.017432
O155	O	0.510832	-0.432136	0.391830
O156	O	1.010832	0.067864	0.891830
Zn157	Zn	0.498357	-0.474225	0.458833
Zn158	Zn	0.998357	0.025775	0.958833
Zn159	Zn	0.602660	-0.508908	0.423960
Zn160	Zn	1.102660	-0.008908	0.923960
O161	O	0.510913	-0.432348	0.471484
O162	O	1.010913	0.067652	0.971484
N163	N	0.673844	-0.532580	0.400158
N164	N	1.173844	-0.032580	0.900158
N165	N	0.091520	-0.115070	0.482873
N166	N	0.591520	0.384930	0.982873
O167	O	-0.025663	0.047841	0.474857
O168	O	0.474337	0.547841	0.974857
O169	O	0.099940	0.047877	0.382299
O170	O	0.599940	0.547877	0.882299
O171	O	0.020247	0.047844	0.382560
O172	O	0.520247	0.547844	0.882560
O173	O	0.054030	0.047874	0.474596
O174	O	0.554030	0.547874	0.974596
O175	O	0.046674	-0.031326	0.408942
O176	O	0.546674	0.468674	0.908942
O177	O	0.126367	-0.031293	0.408680
O178	O	0.626367	0.468707	0.908680
O179	O	0.000764	-0.031329	0.501238
O180	O	0.500764	0.468671	1.001238
Zn181	Zn	0.067761	-0.043881	0.459148
Zn182	Zn	0.567761	0.456119	0.959148
Zn183	Zn	0.032943	0.060429	0.424389
Zn184	Zn	0.532943	0.560429	0.924389
O185	O	0.080457	-0.031296	0.500977
O186	O	0.580457	0.468704	1.000977
N187	N	0.009178	0.131618	0.400665
N188	N	0.509178	0.631618	0.900665
N189	N	0.091852	-0.450680	0.818332
N190	N	0.591852	0.049320	1.318332
O191	O	0.083862	-0.567845	0.981235
O192	O	0.583862	-0.067845	1.481235
O193	O	-0.008657	-0.442198	0.981276
O194	O	0.491343	0.057802	1.481276
O195	O	-0.008441	-0.521875	0.981252
O196	O	0.491559	-0.021875	1.481252
O197	O	0.083646	-0.488168	0.981258
O198	O	0.583646	0.011832	1.481258
O199	O	0.017919	-0.495468	0.902085
O200	O	0.517919	0.004532	1.402085
O201	O	0.017703	-0.415791	0.902109
O202	O	0.517703	0.084209	1.402109
O203	O	0.110222	-0.541438	0.902067
O204	O	0.610222	-0.041438	1.402067
Zn205	Zn	0.068148	-0.474422	0.889518
Zn206	Zn	0.568148	0.025578	1.389518
Zn207	Zn	0.033417	-0.509214	0.993825
Zn208	Zn	0.533417	-0.009214	1.493825
O209	O	0.110006	-0.461761	0.902091
O210	O	0.610006	0.038239	1.402091
N211	N	0.009712	-0.532961	1.065011
N212	N	0.509712	-0.032961	1.565011
C213	C	0.030439	-0.413071	0.383027
C214	C	0.530439	0.086929	0.883027
C215	C	0.129046	-0.511580	0.382922
C216	C	0.629046	-0.011580	0.882922
C217	C	0.070334	-0.570496	0.500675
C218	C	0.570334	-0.070496	1.000675
C219	C	-0.028274	-0.471987	0.500780
C220	C	0.471726	0.028013	1.000780
C221	C	0.550625	-0.550579	0.520021
C222	C	1.050625	-0.050579	1.020021
C223	C	0.550527	-0.550317	0.421379
C224	C	1.050527	-0.050317	0.921379
C225	C	0.550389	-0.432554	0.362773
C226	C	1.050389	0.067446	0.862773
C227	C	0.550491	-0.432816	0.461414
C228	C	1.050491	0.067184	0.961414
C229	C	0.128944	0.008394	0.382712
C230	C	0.628944	0.508394	0.882712
C231	C	0.030287	0.008256	0.383068
C232	C	0.530287	0.508256	0.883068
C233	C	-0.028273	0.008252	0.500793
C234	C	0.471727	0.508252	1.000793
C235	C	0.070417	0.008292	0.500470
C236	C	0.570417	0.508292	1.000470
C237	C	-0.008218	-0.413165	0.941698
C238	C	0.491782	0.086835	1.441698
C239	C	-0.007945	-0.511830	0.941653
C240	C	0.492055	-0.011830	1.441653
C241	C	0.109783	-0.570471	0.941646
C242	C	0.609783	-0.070471	1.441646
C243	C	0.109516	-0.471800	0.941673
C244	C	0.609516	0.028200	1.441673
H245	H	0.019320	-0.412483	0.814467
H246	H	0.519320	0.087517	1.314467
H247	H	-0.058738	-0.490513	0.159288
H248	H	0.441262	0.009487	0.659288
O249	O	0.550772	-0.585251	0.563035
O250	O	1.050772	-0.085251	1.063035
C251	C	0.591785	-0.596266	0.571543
C252	C	1.091785	-0.096266	1.071543
H253	H	0.620405	-0.585702	0.536196
H254	H	1.120405	-0.085702	1.036196
H255	H	0.605593	-0.636127	0.590763
H256	H	1.105593	-0.136127	1.090763
H257	H	0.582522	-0.575878	0.594551
H258	H	1.082522	-0.075878	1.094551
H259	H	0.550329	-0.403500	0.326702
H260	H	1.050329	0.096500	0.826702
H261	H	-0.064344	0.008241	0.529850
H262	H	0.435656	0.508241	1.029850
O263	O	0.550458	-0.398338	0.470100
O264	O	1.050458	0.101662	0.970100
C265	C	0.550531	-0.415686	0.516873
C266	C	1.050531	0.084314	1.016873
H267	H	0.535584	-0.446264	0.539401
H268	H	1.035584	0.053736	1.039401
H269	H	0.527543	-0.385884	0.532908
H270	H	1.027543	0.114116	1.032908
H271	H	0.588524	-0.428937	0.516133
H272	H	1.088524	0.071063	1.016133
O273	O	0.079134	0.008271	0.534925
O274	O	0.579134	0.508271	1.034925
C275	C	0.125920	0.008296	0.517561
C276	C	0.625920	0.508296	1.017561
H277	H	0.148422	-0.006684	0.486998
H278	H	0.648422	0.493316	0.986998
H279	H	0.141963	-0.014691	0.547358
H280	H	0.641963	0.485309	1.047358
H281	H	0.125208	0.046281	0.504285
H282	H	0.625208	0.546281	1.004285
O283	O	0.550518	-0.584781	0.412706
O284	O	1.050518	-0.084781	0.912706
C285	C	0.550472	-0.567443	0.365924
C286	C	1.050472	-0.067443	0.865924
H287	H	0.535445	-0.526896	0.353419
H288	H	1.035445	-0.026896	0.853419
H289	H	0.527493	-0.581958	0.365259
H290	H	1.027493	-0.081958	0.865259
H291	H	0.588439	-0.579453	0.341267
H292	H	1.088439	-0.079453	0.841267
O293	O	0.021674	0.008152	0.348613
O294	O	0.521674	0.508152	0.848613
C295	C	0.010476	-0.032860	0.365035
C296	C	0.510476	0.467140	0.865035
H297	H	0.025858	-0.061503	0.394589
H298	H	0.525858	0.438497	0.894589
H299	H	0.026351	-0.046636	0.334391
H300	H	0.526351	0.453364	0.834391
H301	H	-0.029833	-0.023604	0.379406
H302	H	0.470167	0.476396	0.879406
O303	O	0.171846	0.008727	0.347899
O304	O	0.671846	0.508727	0.847899
C305	C	0.165316	0.049821	0.307927
C306	C	0.665316	0.549821	0.807927
H307	H	0.127310	0.063328	0.308590
H308	H	0.627310	0.563328	0.808590
H309	H	0.191359	0.040778	0.274020
H310	H	0.691359	0.540778	0.774020
H311	H	0.171998	0.078587	0.308847
H312	H	0.671998	0.578587	0.808847
O313	O	-0.042827	-0.370097	0.941733
O314	O	0.457173	0.129903	1.441733
C315	C	-0.025689	-0.340469	0.941728
C316	C	0.474311	0.159531	1.441728
H317	H	0.004875	-0.363358	0.956708
H318	H	0.504875	0.136642	1.456708
H319	H	-0.055600	-0.317668	0.964722
H320	H	0.444400	0.182332	1.464722
H321	H	-0.012486	-0.316425	0.903750
H322	H	0.487514	0.183575	1.403750
H323	H	0.165136	-0.518689	0.353905
H324	H	0.665136	-0.018689	0.853905
O325	O	0.204524	-0.457976	0.475514
O326	O	0.704524	0.042024	0.975514
C327	C	0.216617	-0.483081	0.517360
C328	C	0.716617	0.016919	1.017360
H329	H	0.183801	-0.474106	0.548691
H330	H	0.683801	0.025894	1.048691
H331	H	0.245521	-0.472474	0.512879
H332	H	0.745521	0.027526	1.012879
H333	H	0.230308	-0.522965	0.524347
H334	H	0.730308	-0.022965	1.024347
H335	H	-0.036863	-0.519031	0.941619
H336	H	0.463137	-0.019031	1.441619
O337	O	0.144379	-0.613552	0.941650
O338	O	0.644379	-0.113552	1.441650
C339	C	0.127251	-0.643170	0.941627
C340	C	0.627251	-0.143170	1.441627
H341	H	0.086705	-0.630282	0.956624
H342	H	0.586705	-0.130282	1.456624
H343	H	0.141858	-0.681306	0.964598
H344	H	0.641858	-0.181306	1.464598
H345	H	0.139338	-0.641874	0.903642
H346	H	0.639338	-0.141874	1.403642
H347	H	0.049370	-0.382321	0.724071
H348	H	0.549370	0.117679	1.224071
O349	O	0.172163	-0.490791	0.818192
O350	O	0.672163	0.009209	1.318192
C351	C	0.218948	-0.497826	0.785486
C352	C	0.718948	0.002174	1.285486
H353	H	0.218826	-0.492246	0.749971
H354	H	0.718826	0.007754	1.249971
H355	H	0.242628	-0.535621	0.799858
H356	H	0.742628	-0.035621	1.299858
H357	H	0.233223	-0.471301	0.780181
H358	H	0.733223	0.028699	1.280181
H359	H	0.049217	-0.382297	0.551240
H360	H	0.549217	0.117703	1.051240
O361	O	0.143987	-0.463112	0.941647
O362	O	0.643987	0.036888	1.441647
C363	C	0.126643	-0.416323	0.941672
C364	C	0.626643	0.083677	1.441672
H365	H	0.096077	-0.393800	0.926695
H366	H	0.596077	0.106200	1.426695
H367	H	0.156448	-0.400305	0.918685
H368	H	0.656448	0.099695	1.418685
H369	H	0.113380	-0.417029	0.979655
H370	H	0.613380	0.082971	1.479655
H371	H	0.023260	-0.376951	0.354059
H372	H	0.523260	0.123049	0.854059
H373	H	0.019058	-0.412426	0.521121
H374	H	0.519058	0.087574	1.021121
O375	O	0.204739	-0.457976	0.719953
O376	O	0.704739	0.042024	1.219953
C377	C	0.212412	-0.437150	0.670633
C378	C	0.712412	0.062850	1.170633
H379	H	0.179699	-0.429643	0.663854
H380	H	0.679699	0.070357	1.163854
H381	H	0.244703	-0.462586	0.651675
H382	H	0.744703	0.037414	1.151675
H383	H	0.219039	-0.402383	0.656491
H384	H	0.719039	0.097617	1.156491
O385	O	0.171784	-0.490638	0.442651
O386	O	0.671784	0.009362	0.942651
C387	C	0.200569	-0.465462	0.400856
C388	C	0.700569	0.034538	0.900856
H389	H	0.181310	-0.425595	0.393944
H390	H	0.681310	0.074405	0.893944
H391	H	0.208083	-0.474369	0.369465
H392	H	0.708083	0.025631	0.869465
H393	H	0.235591	-0.476064	0.405359
H394	H	0.735591	0.023936	0.905359
O395	O	0.328992	-0.497323	0.545674
O396	O	0.828992	0.002677	1.045674
C397	C	0.341162	-0.520662	0.515177
C398	C	0.841162	-0.020662	1.015177
H399	H	0.354826	-0.497961	0.476600
H400	H	0.854826	0.002039	0.976600
H401	H	0.308393	-0.526277	0.521081
H402	H	0.808393	-0.026277	1.021081
H403	H	0.370108	-0.556619	0.523189
H404	H	0.870108	-0.056619	1.023189
O405	O	0.427270	-0.530018	0.512889
O406	O	0.927270	-0.030018	1.012889
C407	C	0.476591	-0.537805	0.493131
C408	C	0.976591	-0.037805	0.993131
H409	H	0.483371	-0.503505	0.464567
H410	H	0.983371	-0.003505	0.964567
H411	H	0.495523	-0.566918	0.476566
H412	H	0.995523	-0.066918	0.976566
H413	H	0.490761	-0.549289	0.522283
H414	H	0.990761	-0.049289	1.022283
O415	O	0.427120	-0.371051	0.452259
O416	O	0.927120	0.128949	0.952259
C417	C	0.414893	-0.337214	0.411197
C418	C	0.914893	0.162786	0.911197
H419	H	0.401178	-0.352572	0.399763
H420	H	0.901178	0.147428	0.899763
H421	H	0.447647	-0.328085	0.381268
H422	H	0.947647	0.171915	0.881268
H423	H	0.385969	-0.303626	0.419358
H424	H	0.885969	0.196374	0.919358
O425	O	0.328830	-0.338366	0.485158
O426	O	0.828830	0.161634	0.985158
C427	C	0.279509	-0.330578	0.504934
C428	C	0.779509	0.169422	1.004934
H429	H	0.272703	-0.361038	0.507338
H430	H	0.772703	0.138962	1.007338
H431	H	0.260546	-0.295578	0.481380
H432	H	0.760546	0.204422	0.981380
H433	H	0.265395	-0.328818	0.542072
H434	H	0.765395	0.171182	1.042072
O435	O	0.164331	-0.213214	0.435303
O436	O	0.664331	0.286786	0.935303
C437	C	0.171356	-0.180524	0.388506
C438	C	0.671356	0.319476	0.888506
H439	H	0.141301	-0.145008	0.388617
H440	H	0.641301	0.354992	0.888617
H441	H	0.171596	-0.194920	0.364856
H442	H	0.671596	0.305080	0.864856
H443	H	0.206850	-0.175210	0.374203
H444	H	0.706850	0.324790	0.874203
H445	H	0.055974	-0.119015	0.558014
H446	H	0.555974	0.380985	1.058014
O447	O	0.131474	-0.115024	0.402664
O448	O	0.631474	0.384976	0.902664
C449	C	0.089580	-0.086199	0.390659
C450	C	0.589580	0.413801	0.890659
H451	H	0.059665	-0.101233	0.418768
H452	H	0.559665	0.398767	0.918768
H453	H	0.096116	-0.085623	0.354488
H454	H	0.596116	0.414377	0.854488
H455	H	0.079082	-0.048432	0.389013
H456	H	0.579082	0.451568	0.889013
H457	H	0.086148	-0.209418	0.588113
H458	H	0.586148	0.290582	1.088113
H459	H	0.077514	-0.606615	0.529644
H460	H	0.577514	-0.106615	1.029644
O461	O	-0.071347	-0.463426	0.535353
O462	O	0.428653	0.036574	1.035353
C463	C	-0.100939	-0.416658	0.518149
C464	C	0.399061	0.083342	1.018149
H465	H	-0.078024	-0.394048	0.487572
H466	H	0.421976	0.105952	0.987572
H467	H	-0.123736	-0.400723	0.548023
H468	H	0.376264	0.099277	1.048023
H469	H	-0.124986	-0.417387	0.504942
H470	H	0.375014	0.082613	1.004942
H471	H	-0.028474	-0.460433	0.068892
H472	H	0.471526	0.039567	0.568892
H473	H	0.045284	-0.608113	0.068976
H474	H	0.545284	-0.108113	0.568976
H475	H	-0.058984	-0.490504	0.332300
H476	H	0.441016	0.009496	0.832300
O477	O	0.016939	-0.645908	0.163226
O478	O	0.516939	-0.145908	0.663226
C479	C	0.045826	-0.670954	0.130569
C480	C	0.545826	-0.170954	0.630569
H481	H	0.039526	-0.647187	0.095015
H482	H	0.539526	-0.147187	0.595015
H483	H	0.036462	-0.704186	0.144944
H484	H	0.536462	-0.204186	0.644944
H485	H	0.084846	-0.681741	0.125339
H486	H	0.584846	-0.181741	0.625339
H487	H	-0.028907	-0.460416	0.362542
H488	H	0.471093	0.039584	0.862542
H489	H	0.044746	-0.608091	0.436494
H490	H	0.544746	-0.108091	0.936494
H491	H	0.050956	-0.774133	0.341399
H492	H	0.550956	-0.274133	0.841399
O493	O	0.016526	-0.645886	0.408234
O494	O	0.516526	-0.145886	0.908234
C495	C	-0.000596	-0.666555	0.458143
C496	C	0.499404	-0.166555	0.958143
H497	H	-0.005501	-0.642932	0.475601
H498	H	0.494499	-0.142932	0.975601
H499	H	0.026076	-0.703228	0.469835
H500	H	0.526076	-0.203228	0.969835
H501	H	-0.036208	-0.670221	0.469349
H502	H	0.463792	-0.170221	0.969349
O503	O	0.088676	-0.868384	0.370417
O504	O	0.588676	-0.368384	0.870417
C505	C	0.113389	-0.835744	0.346009
C506	C	0.613389	-0.335744	0.846009
H507	H	0.091692	-0.800210	0.325551
H508	H	0.591692	-0.300210	0.825551
H509	H	0.149341	-0.850176	0.320034
H510	H	0.649341	-0.350176	0.820034
H511	H	0.119120	-0.830451	0.372704
H512	H	0.619120	-0.330451	0.872704
H513	H	-0.095331	-0.773979	0.396956
H514	H	0.404669	-0.273979	0.896956
O515	O	-0.070328	-0.868246	0.430776
O516	O	0.429672	-0.368246	0.930776
C517	C	-0.093604	-0.856064	0.400217
C518	C	0.406396	-0.356064	0.900217
H519	H	-0.092415	-0.819894	0.371849
H520	H	0.407585	-0.319894	0.871849
H521	H	-0.132241	-0.854323	0.421710
H522	H	0.367759	-0.354323	0.921710
H523	H	-0.074980	-0.884122	0.382380
H524	H	0.425020	-0.384122	0.882380
O525	O	-0.228100	-0.605559	0.447869
O526	O	0.271900	-0.105559	0.947869
C527	C	-0.240315	-0.647328	0.476655
C528	C	0.259685	-0.147328	0.976655
H529	H	-0.276479	-0.640605	0.477076
H530	H	0.223521	-0.140605	0.977076
H531	H	-0.242079	-0.657832	0.514467
H532	H	0.257921	-0.157832	1.014467
H533	H	-0.212267	-0.677324	0.461699
H534	H	0.287733	-0.177324	0.961699
O535	O	-0.326300	-0.572583	0.480405
O536	O	0.173700	-0.072583	0.980405
C537	C	-0.355129	-0.530697	0.492422
C538	C	0.144871	-0.030697	0.992422
H539	H	-0.340074	-0.500786	0.464350
H540	H	0.159926	-0.000786	0.964350
H541	H	-0.355746	-0.537263	0.528622
H542	H	0.144254	-0.037263	1.028622
H543	H	-0.392880	-0.520172	0.494013
H544	H	0.107120	-0.020172	0.994013
H545	H	-0.231721	-0.527215	0.295000
H546	H	0.268279	-0.027215	0.795000
O547	O	-0.325953	-0.492475	0.319827
O548	O	0.174047	0.007525	0.819827
C549	C	-0.293220	-0.485469	0.273054
C550	C	0.206780	0.014531	0.773054
H551	H	-0.257714	-0.491074	0.273208
H552	H	0.242286	0.008926	0.773208
H553	H	-0.307568	-0.447674	0.249362
H554	H	0.192432	0.052326	0.749362
H555	H	-0.287908	-0.511993	0.258769
H556	H	0.212092	-0.011993	0.758769
