data_functionalizedCrystal
_audit_creation_method	'MofGen! by Chris Wilmer'
_symmetry_space_group_name_H-M	'P1'
_symmetry_Int_Tables_number	1
_symmetry_cell_setting	triclinic
loop_
_symmetry_equiv_pos_as_xyz
  x,y,z
_cell_length_a	10.654550
_cell_length_b	14.853559
_cell_length_c	9.730223
_cell_angle_alpha	90.000784
_cell_angle_beta	90.000242
_cell_angle_gamma	84.058192
loop_
_atom_site_label
_atom_site_type_symbol
_atom_site_fract_x
_atom_site_fract_y
_atom_site_fract_z
O1	O	1.666519	0.126624	0.114180
O2	O	1.300914	0.138689	0.114205
O3	O	1.493488	0.001479	0.114190
O4	O	1.473945	0.263835	0.114194
O5	O	1.493474	0.001479	-0.114390
O6	O	1.300901	0.138689	-0.114375
O7	O	1.666505	0.126625	-0.114400
Zn8	Zn	1.483701	0.132657	-0.150680
Zn9	Zn	1.483719	0.132657	0.150484
O10	O	1.473932	0.263835	-0.114386
C11	C	1.254119	0.137803	-0.000082
C12	C	1.114703	0.135153	-0.000073
C13	C	1.492598	-0.032115	-0.000097
C14	C	1.489950	-0.132213	-0.000089
C15	C	1.034375	0.215940	-0.000075
C16	C	0.903380	0.213444	-0.000099
C17	C	0.933055	0.049367	-0.000112
C18	C	1.064047	0.051864	-0.000098
C19	C	1.478725	-0.555448	0.124511
C20	C	1.478710	-0.555443	-0.124696
C21	C	1.481208	-0.461396	-0.124697
C22	C	1.482463	-0.414371	-0.000093
C23	C	1.481219	-0.461393	0.124513
C24	C	1.482438	-0.414367	-0.249301
C25	C	1.484935	-0.320314	-0.249307
C26	C	1.486199	-0.273288	-0.124701
C27	C	1.484957	-0.320316	-0.000090
C28	C	1.486212	-0.273290	0.124514
C29	C	1.484979	-0.320317	0.249127
C30	C	1.482483	-0.414367	0.249119
C31	C	1.488695	-0.179238	-0.124694
C32	C	1.488707	-0.179235	0.124517
C33	C	1.713301	0.127510	-0.000110
C34	C	1.852716	0.130161	-0.000111
C35	C	1.474822	0.297428	-0.000095
C36	C	1.477470	0.397526	-0.000094
N37	N	1.483698	0.132656	-0.356216
C38	C	1.559954	0.187845	-0.428141
C39	C	1.559974	0.187840	-0.572024
C40	C	1.407473	0.077454	-0.572044
C41	C	1.407460	0.077455	-0.428163
N42	N	1.483732	0.132650	0.356021
H43	H	1.075614	0.283759	-0.000065
O44	O	1.150697	-0.035277	-0.000108
H45	H	1.211093	-0.038066	0.093054
O46	O	0.878421	-0.040464	-0.000130
H47	H	0.773838	-0.028630	-0.000127
O48	O	1.490049	-0.128513	0.258913
H49	H	1.488760	-0.177015	0.345554
H50	H	1.485991	-0.282016	0.350580
O51	O	1.642179	0.247380	-0.350539
H52	H	1.709588	0.204614	-0.284967
H53	H	1.345401	0.032513	-0.630641
O54	O	1.481132	-0.465083	0.383515
H55	H	1.479167	-0.538380	0.362576
H56	H	1.622071	0.232780	-0.630580
H57	H	0.837981	0.279229	-0.000104
O58	O	1.325225	0.017926	-0.350550
H59	H	1.224881	0.036867	-0.378143
O60	O	1.477385	-0.606159	0.258913
H61	H	1.475432	-0.679458	0.237986
H62	H	1.477680	-0.593736	-0.226143
O63	O	1.481116	-0.465084	-0.383691
H64	H	1.479203	-0.538386	-0.362755
H65	H	1.485944	-0.282034	-0.350774
H66	H	1.489671	-0.140951	-0.226151
