data_functionalizedCrystal
_audit_creation_method	'MofGen! by Chris Wilmer'
_symmetry_space_group_name_H-M	'P1'
_symmetry_Int_Tables_number	1
_symmetry_cell_setting	triclinic
loop_
_symmetry_equiv_pos_as_xyz
  x,y,z
_cell_length_a	17.699083
_cell_length_b	9.798715
_cell_length_c	17.699083
_cell_angle_alpha	90.004036
_cell_angle_beta	96.716985
_cell_angle_gamma	90.002777
loop_
_atom_site_label
_atom_site_type_symbol
_atom_site_fract_x
_atom_site_fract_y
_atom_site_fract_z
O1	O	-1.004075	0.113289	0.095710
O2	O	-0.783697	0.113337	0.108162
O3	O	-0.900112	0.113299	-0.008253
O4	O	-0.887660	0.113326	0.212125
O5	O	-0.900104	-0.113683	-0.008254
O6	O	-0.783688	-0.113645	0.108162
O7	O	-1.004066	-0.113693	0.095709
Zn8	Zn	-0.893876	-0.149708	0.101936
Zn9	Zn	-0.893887	0.149351	0.101936
O10	O	-0.887651	-0.113656	0.212125
C11	C	-0.755495	-0.000148	0.107716
C12	C	-0.671477	-0.000130	0.106377
C13	C	-0.622856	-0.000122	0.174710
C14	C	-0.543913	-0.000139	0.173448
C15	C	-0.513592	-0.000154	0.103852
C16	C	-0.562219	-0.000167	0.035513
C17	C	-0.641161	-0.000160	0.036776
C18	C	-0.243856	-0.000197	0.030418
C19	C	-0.164908	-0.000200	0.029160
C20	C	-0.146608	-0.000176	0.167090
C21	C	-0.225550	-0.000169	0.168353
C22	C	-0.274170	-0.000188	0.100015
C23	C	-0.359769	-0.000173	0.101384
C24	C	-0.427995	-0.000160	0.102481
N25	N	-0.893874	-0.353807	0.101935
C26	C	-0.942756	-0.421600	0.052842
C27	C	-0.942768	-0.578763	0.052839
C28	C	-0.032268	-0.000202	0.096156
C29	C	-0.116286	-0.000201	0.097494
C30	C	-0.899662	-0.000192	-0.036451
C31	C	-0.898323	-0.000192	-0.120469
N32	N	-0.893896	0.353451	0.101930
C33	C	-0.966656	-0.000209	-0.169090
C34	C	-0.965394	-0.000197	-0.248033
C35	C	-0.895798	-0.000177	-0.278354
C36	C	-0.827459	-0.000156	-0.229727
C37	C	-0.828722	-0.000159	-0.150785
C38	C	-0.822364	-0.000144	-0.548090
C39	C	-0.821106	-0.000146	-0.627038
C40	C	-0.959036	-0.000182	-0.645338
C41	C	-0.960299	-0.000184	-0.566396
C42	C	-0.891961	-0.000156	-0.517776
C43	C	-0.893330	-0.000167	-0.432177
C44	C	-0.894427	-0.000176	-0.363951
C45	C	-0.888102	-0.000162	0.240322
C46	C	-0.889440	-0.000153	0.324340
H47	H	-0.283434	-0.000214	-0.025228
F48	F	-1.040732	-0.000243	-0.136828
H49	H	-0.680748	-0.000166	-0.018868
H50	H	-0.773078	-0.000145	-0.111198
F51	F	-0.997312	-0.345389	-0.002227
H52	H	-0.504328	-0.000130	0.229092
F53	F	-0.997474	-0.654960	-0.002096
H54	H	-0.852046	-0.588259	0.143966
F55	F	-0.094857	-0.000160	0.239822
H56	H	-0.852030	-0.412118	0.143960
H57	H	-0.770792	-0.000132	-0.254420
F58	F	-0.529948	-0.000192	-0.038557
H59	H	-1.021038	-0.000213	-0.287618
F60	F	-0.132641	-0.000216	-0.044918
F61	F	-1.034373	-0.000204	-0.534131
H62	H	-1.014680	-0.000198	-0.684934
H63	H	-0.764429	-0.000132	-0.651721
H64	H	-0.766718	-0.000121	-0.508512
H65	H	-0.647537	-0.000108	0.231384
H66	H	-0.250232	-0.000150	0.225025
