data_functionalizedCrystal
_audit_creation_method	'MofGen! by Chris Wilmer'
_symmetry_space_group_name_H-M	'P1'
_symmetry_Int_Tables_number	1
_symmetry_cell_setting	triclinic
loop_
_symmetry_equiv_pos_as_xyz
  x,y,z
_cell_length_a	18.101398
_cell_length_b	18.101389
_cell_length_c	12.759400
_cell_angle_alpha	89.991647
_cell_angle_beta	89.998713
_cell_angle_gamma	89.975673
loop_
_atom_site_label
_atom_site_type_symbol
_atom_site_fract_x
_atom_site_fract_y
_atom_site_fract_z
Zn1	Zn	1.132263	-0.418891	-0.418509
Zn2	Zn	1.132219	-0.295071	-0.594177
Zn3	Zn	1.008422	-0.295052	-0.418498
Zn4	Zn	1.008433	-0.418859	-0.594132
O5	O	1.070334	-0.356968	-0.506329
O6	O	1.235890	-0.402487	-0.441835
O7	O	1.115774	-0.191435	-0.570887
O8	O	1.024864	-0.311484	-0.271479
O9	O	1.235858	-0.311517	-0.570898
O10	O	1.115850	-0.402468	-0.271487
O11	O	1.024821	-0.191421	-0.441817
O12	O	0.904791	-0.311454	-0.441773
O13	O	1.024882	-0.522496	-0.570821
O14	O	0.904799	-0.402415	-0.570810
O15	O	1.115860	-0.522519	-0.441792
O16	O	1.115784	-0.311487	-0.741192
O17	O	1.024839	-0.402434	-0.741159
C18	C	0.877924	-0.356930	-0.506286
C19	C	0.795610	-0.356931	-0.506293
C20	C	1.070377	-0.550130	-0.506303
C21	C	1.070395	-0.632444	-0.506291
C22	C	1.070328	-0.356975	-0.779296
C23	C	1.070393	-0.357003	-0.896073
C24	C	0.496519	-0.356993	-0.506359
C25	C	0.527814	-0.300042	-0.424766
C26	C	0.613433	-0.299799	-0.424985
C27	C	0.644901	-0.356962	-0.506326
C28	C	0.613821	-0.335651	-0.616993
C29	C	0.528176	-0.335255	-0.616540
C30	C	0.528124	-0.435389	-0.478246
C31	C	0.613774	-0.434961	-0.475782
C32	C	0.728761	-0.356946	-0.506314
C33	C	0.412659	-0.357007	-0.506379
C34	C	1.263496	-0.357007	-0.506373
C35	C	1.345810	-0.357024	-0.506391
C36	C	1.070439	-0.931535	-0.506094
C37	C	1.013001	-0.900196	-0.587018
C38	C	1.013156	-0.814577	-0.587393
C39	C	1.070417	-0.783153	-0.506192
C40	C	1.148452	-0.814262	-0.536254
C41	C	1.148132	-0.899907	-0.536786
C42	C	1.050519	-0.899946	-0.394928
C43	C	1.048783	-0.814295	-0.395570
C44	C	1.070409	-0.699293	-0.506245
C45	C	1.070451	-1.015395	-0.506043
C46	C	1.070334	-0.164558	-0.506280
C47	C	1.070460	-0.082244	-0.505995
C48	C	1.070361	-0.356978	-0.232296
C49	C	1.070372	-0.356982	-0.115519
C50	C	1.023009	-0.309615	-0.060651
C51	C	1.023017	-0.309627	0.049073
C52	C	1.117759	-0.404374	0.049052
C53	C	1.117746	-0.404365	-0.060671
H54	H	0.634445	-0.313155	-0.342920
Cl55	Cl	1.033507	-0.782964	-0.714599
Cl56	Cl	0.963468	-0.250082	0.118045
H57	H	0.506525	-0.454767	-0.398953
Cl58	Cl	0.964186	-0.933263	-0.352646
H59	H	0.506271	-0.242289	-0.443140
Cl60	Cl	0.645153	-0.459781	-0.350056
H61	H	1.156331	-0.442952	0.093720
H62	H	1.092354	-0.920214	-0.334636
H63	H	1.165014	-0.919901	-0.618049
H64	H	0.954961	-0.920779	-0.568397
Cl65	Cl	0.963450	-0.250050	-0.129600
H66	H	1.156315	-0.442942	-0.105345
H67	H	1.087563	-0.792903	-0.332076
H68	H	0.507216	-0.313251	-0.342451
Cl69	Cl	1.216408	-0.931922	-0.449679
Cl70	Cl	1.033063	-0.933498	-0.713447
Cl71	Cl	0.645027	-0.210110	-0.453672
Cl72	Cl	0.645284	-0.397694	-0.713369
H73	H	0.635198	-0.479666	-0.530880
H74	H	0.507475	-0.374928	-0.679390
Cl75	Cl	0.497288	-0.246771	-0.653348
H76	H	0.507888	-0.477822	-0.537675
Cl77	Cl	0.923817	-0.782098	-0.558343
H78	H	1.192399	-0.793909	-0.479166
H79	H	0.635244	-0.278959	-0.641251
H80	H	0.991356	-0.793960	-0.372900
H81	H	1.165625	-0.792830	-0.616655
