data_functionalizedCrystal
_audit_creation_method	'MofGen! by Chris Wilmer'
_symmetry_space_group_name_H-M	'P1'
_symmetry_Int_Tables_number	1
_symmetry_cell_setting	triclinic
loop_
_symmetry_equiv_pos_as_xyz
  x,y,z
_cell_length_a	19.077269
_cell_length_b	18.101397
_cell_length_c	19.076919
_cell_angle_alpha	92.268541
_cell_angle_beta	94.669058
_cell_angle_gamma	87.723702
loop_
_atom_site_label
_atom_site_type_symbol
_atom_site_fract_x
_atom_site_fract_y
_atom_site_fract_z
Zn1	Zn	1.061679	-0.354727	-0.355251
Zn2	Zn	1.395013	-0.021394	-0.021917
Zn3	Zn	1.728346	0.311940	0.311416
Zn4	Zn	1.066342	-0.473784	-0.237364
Zn5	Zn	1.399676	-0.140451	0.095970
Zn6	Zn	1.733009	0.192882	0.429303
Zn7	Zn	0.948536	-0.345184	-0.242119
Zn8	Zn	1.281869	-0.011851	0.091214
Zn9	Zn	1.615203	0.321483	0.424548
Zn10	Zn	0.943773	-0.473747	-0.359946
Zn11	Zn	1.277107	-0.140414	-0.026613
Zn12	Zn	1.610440	0.192920	0.306720
O13	O	1.005083	-0.411861	-0.298670
O14	O	1.338416	-0.078527	0.034663
O15	O	1.671749	0.254806	0.367997
O16	O	1.160945	-0.374529	-0.335658
O17	O	1.494278	-0.041196	-0.002324
O18	O	1.827611	0.292137	0.331009
O19	O	1.054660	-0.452747	-0.139347
O20	O	1.387993	-0.119414	0.193986
O21	O	1.721326	0.213920	0.527320
O22	O	0.963586	-0.242820	-0.257151
O23	O	1.296920	0.090513	0.076182
O24	O	1.630253	0.423847	0.409516
O25	O	1.164370	-0.462000	-0.249046
O26	O	1.497704	-0.128667	0.084287
O27	O	1.831037	0.204666	0.417620
O28	O	1.046712	-0.249831	-0.340269
O29	O	1.380046	0.083502	-0.006935
O30	O	1.713379	0.416836	0.326398
O31	O	0.968108	-0.358265	-0.142841
O32	O	1.301441	-0.024932	0.190493
O33	O	1.634774	0.308402	0.523826
O34	O	0.849258	-0.358229	-0.261704
O35	O	1.182591	-0.024896	0.071629
O36	O	1.515924	0.308438	0.404962
O37	O	0.955469	-0.461937	-0.457971
O38	O	1.288803	-0.128604	-0.124638
O39	O	1.622136	0.204730	0.208696
O40	O	0.845759	-0.452684	-0.348272
O41	O	1.179092	-0.119350	-0.014938
O42	O	1.512425	0.213983	0.318395
O43	O	1.042094	-0.374493	-0.454521
O44	O	1.375428	-0.041160	-0.121188
O45	O	1.708761	0.292173	0.212146
O46	O	1.050042	-0.577410	-0.253599
O47	O	1.383375	-0.244076	0.079734
O48	O	1.716708	0.089257	0.413067
O49	O	0.959991	-0.577382	-0.343661
O50	O	1.293324	-0.244049	-0.010327
O51	O	1.626657	0.089284	0.323006
C52	C	0.821930	-0.404417	-0.306014
C53	C	1.155263	-0.071084	0.027320
C54	C	1.488597	0.262249	0.360653
C55	C	0.743576	-0.401252	-0.309172
C56	C	1.076909	-0.067918	0.024161
C57	C	1.410243	0.265415	0.357494
C58	C	1.005024	-0.604267	-0.298638
C59	C	1.338357	-0.270934	0.034695
C60	C	1.671690	0.062399	0.368029
C61	C	1.005062	-0.686583	-0.298646
C62	C	1.338395	-0.353250	0.034688
C63	C	1.671729	-0.019917	0.368021
C64	C	0.708548	-0.445226	-0.265495
C65	C	1.041882	-0.111893	0.067838
C66	C	1.375215	0.221441	0.401171
C67	C	0.634926	-0.442252	-0.268472
C68	C	0.968259	-0.108919	0.064861
C69	C	1.301593	0.224415	0.398194
C70	C	0.596332	-0.395299	-0.315123
C71	C	0.929666	-0.061966	0.018210
C72	C	1.262999	0.271367	0.351543
C73	C	0.631365	-0.351323	-0.358805
C74	C	0.964698	-0.017990	-0.025472
C75	C	1.298032	0.315344	0.307862
C76	C	0.704986	-0.354301	-0.355831
C77	C	1.038319	-0.020968	-0.022498
C78	C	1.371653	0.312365	0.310836
C79	C	0.375958	-0.381520	-0.328864
C80	C	0.709291	-0.048187	0.004469
C81	C	1.042624	0.285146	0.337803
C82	C	0.302332	-0.378544	-0.331833
C83	C	0.635665	-0.045210	0.001500
C84	C	0.968998	0.288123	0.334834
C85	C	0.305898	-0.469474	-0.241501
C86	C	0.639231	-0.136141	0.091832
C87	C	0.972564	0.197193	0.425166
C88	C	0.379520	-0.472445	-0.238528
C89	C	0.712853	-0.139111	0.094805
C90	C	1.046187	0.194222	0.428139
C91	C	0.414546	-0.428472	-0.282212
C92	C	0.747879	-0.095138	0.051121
C93	C	1.081213	0.238195	0.384454
N94	N	0.521078	-0.392257	-0.318166
N95	N	0.854412	-0.058923	0.015167
N96	N	1.187745	0.274410	0.348501
N97	N	0.489799	-0.431519	-0.279173
N98	N	0.823132	-0.098185	0.054160
N99	N	1.156465	0.235148	0.387494
C100	C	1.005150	-0.985681	-0.298706
C101	C	1.338483	-0.652347	0.034627
C102	C	1.671816	-0.319014	0.367960
C103	C	1.061661	-0.954330	-0.241902
C104	C	1.394994	-0.620996	0.091431
C105	C	1.728328	-0.287663	0.424764
C106	C	1.061844	-0.868724	-0.242036
C107	C	1.395177	-0.535391	0.091297
C108	C	1.728510	-0.202058	0.424630
C109	C	1.005106	-0.837295	-0.298676
C110	C	1.338440	-0.503962	0.034658
C111	C	1.671773	-0.170628	0.367991
C112	C	1.022257	-0.872135	-0.372172
C113	C	1.355590	-0.538802	-0.038839
C114	C	1.688923	-0.205469	0.294495
C115	C	1.022689	-0.957785	-0.371858
C116	C	1.356022	-0.624452	-0.038524
C117	C	1.689356	-0.291119	0.294809
C118	C	0.931317	-0.950391	-0.282663
C119	C	1.264650	-0.617058	0.050671
C120	C	1.597983	-0.283724	0.384004
C121	C	0.931752	-0.864689	-0.280989
C122	C	1.265085	-0.531356	0.052344
C123	C	1.598419	-0.198022	0.385678
C124	C	1.005080	-0.753434	-0.298663
C125	C	1.338414	-0.420100	0.034671
C126	C	1.671747	-0.086767	0.368004
C127	C	1.005177	-1.069542	-0.298724
C128	C	1.338510	-0.736209	0.034609
C129	C	1.671844	-0.402875	0.367943
C130	C	1.188951	-0.419333	-0.291298
C131	C	1.522284	-0.086000	0.042036
C132	C	1.855617	0.247333	0.375369
C133	C	1.267304	-0.422518	-0.288156
C134	C	1.600637	-0.089185	0.045177
C135	C	1.933971	0.244149	0.378511
C136	C	0.997730	-0.419275	-0.482539
C137	C	1.331064	-0.085942	-0.149206
C138	C	1.664397	0.247391	0.184127
C139	C	0.994597	-0.422435	-0.560894
C140	C	1.327931	-0.089102	-0.227560
C141	C	1.661264	0.244231	0.105773
C142	C	1.005161	-0.218704	-0.298716
C143	C	1.338494	0.114629	0.034617
C144	C	1.671827	0.447963	0.367950
C145	C	1.005194	-0.136392	-0.298736
C146	C	1.338527	0.196941	0.034597
C147	C	1.671860	0.530275	0.367930
C148	C	1.038224	-0.378394	-0.595910
C149	C	1.371557	-0.045061	-0.262576
C150	C	1.704891	0.288272	0.070757
C151	C	1.035272	-0.381360	-0.669532
C152	C	1.368605	-0.048027	-0.336199
C153	C	1.701938	0.285306	-0.002865
C154	C	0.988695	-0.428371	-0.708137
C155	C	1.322029	-0.095038	-0.374804
C156	C	1.655362	0.238296	-0.041470
C157	C	0.945064	-0.472414	-0.673116
C158	C	1.278397	-0.139080	-0.339783
C159	C	1.611730	0.194253	-0.006449
C160	C	0.948013	-0.469443	-0.599495
C161	C	1.281346	-0.136110	-0.266162
C162	C	1.614680	0.197223	0.067172
C163	C	0.975035	-0.442132	-0.928513
C164	C	1.308368	-0.108799	-0.595180
C165	C	1.641701	0.224534	-0.261846
C166	C	0.972090	-0.445101	-1.002139
C167	C	1.305423	-0.111767	-0.668806
C168	C	1.638757	0.221566	-0.335472
C169	C	1.062297	-0.354046	-0.998550
C170	C	1.395631	-0.020713	-0.665216
C171	C	1.728964	0.312621	-0.331883
C172	C	1.065246	-0.351083	-0.924927
C173	C	1.398579	-0.017750	-0.591594
C174	C	1.731912	0.315583	-0.258261
C175	C	1.021611	-0.395123	-0.889913
C176	C	1.354945	-0.061789	-0.556580
C177	C	1.688278	0.271544	-0.223246
N178	N	0.985678	-0.431405	-0.783391
N179	N	1.319011	-0.098072	-0.450058
N180	N	1.652344	0.235261	-0.116724
N181	N	1.024626	-0.392084	-0.814661
N182	N	1.357959	-0.058751	-0.481327
N183	N	1.691293	0.274583	-0.147994
C184	C	1.012447	-0.404423	-0.115514
C185	C	1.345780	-0.071089	0.217819
C186	C	1.679114	0.262244	0.551153
C187	C	1.015717	-0.401060	-0.037155
C188	C	1.349050	-0.067727	0.296178
C189	C	1.682383	0.265607	0.629512
H190	H	0.739966	-0.483457	-0.227504
H191	H	1.073299	-0.150124	0.105829
H192	H	1.406633	0.183209	0.439162
H193	H	0.606410	-0.478061	-0.232906
H194	H	0.939743	-0.144727	0.100428
H195	H	1.273076	0.188606	0.433761
H196	H	0.918766	-0.841595	-0.226916
H197	H	1.252099	-0.508262	0.106417
H198	H	1.585433	-0.174928	0.439750
F199	F	1.091869	-0.847754	-0.390781
F200	F	1.425202	-0.514421	-0.057447
F201	F	1.758536	-0.181088	0.275886
F202	F	0.895491	-0.522443	-0.714204
F203	F	1.228824	-0.189110	-0.380871
F204	F	1.562157	0.144223	-0.047538
F205	F	0.971008	-0.985105	-0.428847
F206	F	1.304341	-0.651772	-0.095514
F207	F	1.637675	-0.318439	0.237819
H208	H	0.915137	-0.969147	-0.230155
H209	H	1.248471	-0.635814	0.103179
H210	H	1.581804	-0.302480	0.436512
H211	H	0.982225	-0.851917	-0.415504
H212	H	1.315558	-0.518584	-0.082171
H213	H	1.648892	-0.185250	0.251162
F214	F	1.132840	-0.985961	-0.255293
F215	F	1.466173	-0.652627	0.078040
F216	F	1.799507	-0.319294	0.411374
F217	F	0.876329	-0.976846	-0.336785
F218	F	1.209663	-0.643513	-0.003452
F219	F	1.542996	-0.310179	0.329881
H220	H	0.939515	-0.478004	-0.900013
H221	H	1.272848	-0.144670	-0.566679
H222	H	1.606182	0.188663	-0.233346
F223	F	0.742264	-0.307499	-0.402320
F224	F	1.075598	0.025834	-0.068987
F225	F	1.408931	0.359167	0.264347
F226	F	0.413226	-0.334720	-0.375358
F227	F	0.746559	-0.001387	-0.042024
F228	F	1.079892	0.331947	0.291309
H229	H	0.599936	-0.313097	-0.396793
H230	H	0.933269	0.020237	-0.063459
H231	H	1.266603	0.353570	0.269874
F232	F	0.901578	-0.516316	-0.562229
F233	F	1.234911	-0.182982	-0.228896
F234	F	1.568244	0.150351	0.104438
F235	F	1.093113	-0.987569	-0.390075
F236	F	1.426446	-0.654236	-0.056741
F237	F	1.759780	-0.320903	0.276592
H238	H	1.097821	-0.318191	-1.027067
H239	H	1.431154	0.015143	-0.693733
H240	H	1.764487	0.348476	-0.360400
H241	H	0.887624	-0.843071	-0.319573
H242	H	1.220957	-0.509737	0.013760
H243	H	1.554290	-0.176404	0.347094
F244	F	1.087801	-0.328362	-0.554830
F245	F	1.421134	0.004971	-0.221496
F246	F	1.754468	0.338304	0.111837
H247	H	1.070799	-0.345499	-0.698039
H248	H	1.404132	-0.012166	-0.364705
H249	H	1.737465	0.321167	-0.031372
H250	H	1.103175	-0.312804	-0.893500
H251	H	1.436508	0.020529	-0.560167
H252	H	1.769841	0.353862	-0.226833
H253	H	0.934160	-0.483384	-1.033569
H254	H	1.267493	-0.150051	-0.700236
H255	H	1.600826	0.183282	-0.366903
H256	H	0.410938	-0.510678	-0.200539
H257	H	0.744271	-0.177345	0.132794
H258	H	1.077605	0.155989	0.466128
H259	H	0.270911	-0.340303	-0.369820
H260	H	0.604244	-0.006969	-0.036487
H261	H	0.937577	0.326364	0.296847
F262	F	0.268615	-0.516272	-0.195014
F263	F	0.601948	-0.182938	0.138320
F264	F	0.935282	0.150395	0.471653
H265	H	1.051460	-0.845015	-0.187446
H266	H	1.384793	-0.511682	0.145887
H267	H	1.718127	-0.178349	0.479221
F268	F	1.048302	-0.977723	-0.170324
F269	F	1.381635	-0.644390	0.163010
F270	F	1.714968	-0.311056	0.496343
F271	F	1.133407	-0.845467	-0.255604
F272	F	1.466741	-0.512134	0.077729
F273	F	1.800074	-0.178800	0.411062
