data_functionalizedCrystal
_audit_creation_method	'MofGen! by Chris Wilmer'
_symmetry_space_group_name_H-M	'P1'
_symmetry_Int_Tables_number	1
_symmetry_cell_setting	triclinic
loop_
_symmetry_equiv_pos_as_xyz
  x,y,z
_cell_length_a	19.288864
_cell_length_b	19.288865
_cell_length_c	18.366186
_cell_angle_alpha	89.988521
_cell_angle_beta	89.977106
_cell_angle_gamma	83.136245
loop_
_atom_site_label
_atom_site_type_symbol
_atom_site_fract_x
_atom_site_fract_y
_atom_site_fract_z
O1	O	0.921353	0.086649	-0.060791
O2	O	1.254686	0.419982	0.272542
O3	O	1.588019	0.753315	0.605875
O4	O	0.719092	0.098337	-0.060743
O5	O	1.052425	0.431671	0.272591
O6	O	1.385759	0.765004	0.605924
O7	O	0.826067	-0.008637	-0.060754
O8	O	1.159400	0.324696	0.272579
O9	O	1.492733	0.658029	0.605913
O10	O	0.814378	0.193623	-0.060780
O11	O	1.147711	0.526957	0.272553
O12	O	1.481045	0.860290	0.605887
O13	O	0.826049	-0.008643	0.060345
O14	O	1.159382	0.324691	0.393679
O15	O	1.492715	0.658024	0.727012
O16	O	0.719074	0.098332	0.060357
O17	O	1.052407	0.431665	0.393690
O18	O	1.385741	0.764999	0.727023
O19	O	0.921335	0.086643	0.060308
O20	O	1.254668	0.419977	0.393641
O21	O	1.588001	0.753310	0.726975
Zn22	Zn	0.820201	0.092487	0.079559
Zn23	Zn	1.153535	0.425820	0.412893
Zn24	Zn	1.486868	0.759154	0.746226
Zn25	Zn	0.820225	0.092494	-0.079994
Zn26	Zn	1.153559	0.425827	0.253339
Zn27	Zn	1.486892	0.759161	0.586672
O28	O	0.814360	0.193618	0.060319
O29	O	1.147693	0.526951	0.393653
O30	O	1.481027	0.860285	0.726986
C31	C	0.693207	0.097959	-0.000187
C32	C	1.026540	0.431292	0.333147
C33	C	1.359873	0.764625	0.666480
C34	C	0.616103	0.096830	-0.000167
C35	C	0.949436	0.430163	0.333166
C36	C	1.282770	0.763496	0.666499
C37	C	0.571407	0.159598	-0.000187
C38	C	0.904740	0.492931	0.333146
C39	C	1.238073	0.826264	0.666480
C40	C	0.498960	0.158537	-0.000195
C41	C	0.832293	0.491870	0.333138
C42	C	1.165626	0.825204	0.666472
C43	C	0.471212	0.094705	-0.000198
C44	C	0.804545	0.428038	0.333135
C45	C	1.137879	0.761371	0.666469
C46	C	0.515918	0.031929	-0.000174
C47	C	0.849252	0.365262	0.333159
C48	C	1.182585	0.698595	0.666492
C49	C	0.588364	0.032991	-0.000159
C50	C	0.921697	0.366324	0.333174
C51	C	1.255030	0.699658	0.666508
C52	C	0.362956	0.044527	-0.042642
C53	C	0.696290	0.377861	0.290691
C54	C	1.029623	0.711194	0.624024
C55	C	0.290512	0.043468	-0.042662
C56	C	0.623845	0.376801	0.290671
C57	C	0.957179	0.710134	0.624005
C58	C	0.247767	0.091425	-0.000241
C59	C	0.581100	0.424758	0.333092
C60	C	0.914433	0.758092	0.666425
C61	C	0.277473	0.140454	0.042189
C62	C	0.610806	0.473788	0.375523
C63	C	0.944140	0.807121	0.708856
C64	C	0.349918	0.141517	0.042205
C65	C	0.683252	0.474850	0.375538
C66	C	1.016585	0.808183	0.708871
C67	C	0.392658	0.093546	-0.000214
C68	C	0.725991	0.426879	0.333119
C69	C	1.059325	0.760212	0.666453
C70	C	0.124514	0.153047	-0.000269
C71	C	0.457848	0.486381	0.333065
C72	C	0.791181	0.819714	0.666398
C73	C	0.052066	0.151984	-0.000272
C74	C	0.385400	0.485317	0.333061
C75	C	0.718733	0.818651	0.666395
C76	C	0.069026	0.025374	-0.000259
C77	C	0.402360	0.358707	0.333075
C78	C	0.735693	0.692040	0.666408
C79	C	0.141473	0.026439	-0.000248
C80	C	0.474806	0.359772	0.333085
C81	C	0.808140	0.693106	0.666419
C82	C	0.169212	0.090278	-0.000256
C83	C	0.502546	0.423611	0.333077
C84	C	0.835879	0.756944	0.666410
C85	C	0.825682	-0.034516	-0.000202
C86	C	1.159015	0.298817	0.333131
C87	C	1.492348	0.632150	0.666465
C88	C	0.824553	-0.111620	-0.000195
C89	C	1.157886	0.221713	0.333138
C90	C	1.491219	0.555047	0.666471
C91	C	0.887321	-0.156316	-0.000207
C92	C	1.220654	0.177017	0.333126
C93	C	1.553987	0.510350	0.666460
C94	C	0.886260	-0.228763	-0.000218
C95	C	1.219593	0.104570	0.333115
C96	C	1.552927	0.437903	0.666448
C97	C	0.822428	-0.256511	-0.000203
C98	C	1.155761	0.076822	0.333130
C99	C	1.489094	0.410156	0.666463
C100	C	0.759652	-0.211805	-0.000196
C101	C	1.092985	0.121529	0.333137
C102	C	1.426318	0.454862	0.666471
C103	C	0.760714	-0.139359	-0.000192
C104	C	1.094047	0.193974	0.333141
C105	C	1.427381	0.527307	0.666475
C106	C	0.772242	-0.364800	0.042227
C107	C	1.105575	-0.031467	0.375561
C108	C	1.438908	0.301867	0.708894
C109	C	0.771182	-0.437245	0.042228
C110	C	1.104515	-0.103911	0.375561
C111	C	1.437849	0.229422	0.708894
C112	C	0.819148	-0.479956	-0.000219
C113	C	1.152481	-0.146623	0.333114
C114	C	1.485815	0.186710	0.666448
C115	C	0.868186	-0.450216	-0.042657
C116	C	1.201519	-0.116883	0.290677
C117	C	1.534852	0.216450	0.624010
C118	C	0.869248	-0.377771	-0.042653
C119	C	1.202582	-0.044438	0.290681
C120	C	1.535915	0.288896	0.624014
C121	C	0.821269	-0.335065	-0.000208
C122	C	1.154602	-0.001732	0.333125
C123	C	1.487935	0.331602	0.666459
C124	C	0.880770	-0.603209	-0.000244
C125	C	1.214104	-0.269875	0.333090
C126	C	1.547437	0.063458	0.666423
C127	C	0.879707	-0.675657	-0.000259
C128	C	1.213040	-0.342323	0.333074
C129	C	1.546374	-0.008990	0.666407
C130	C	0.753097	-0.658697	-0.000230
C131	C	1.086430	-0.325363	0.333104
C132	C	1.419763	0.007970	0.666437
C133	C	0.754162	-0.586250	-0.000221
C134	C	1.087495	-0.252917	0.333112
C135	C	1.420829	0.080417	0.666445
C136	C	0.818001	-0.558511	-0.000225
C137	C	1.151334	-0.225177	0.333109
C138	C	1.484667	0.108156	0.666442
C139	C	0.947220	0.087022	-0.000250
C140	C	1.280553	0.420355	0.333084
C141	C	1.613887	0.753689	0.666417
C142	C	1.024324	0.088151	-0.000274
C143	C	1.357657	0.421484	0.333060
C144	C	1.690990	0.754818	0.666393
C145	C	0.814745	0.219497	-0.000234
C146	C	1.148078	0.552831	0.333099
C147	C	1.481412	0.886164	0.666432
C148	C	0.815874	0.296601	-0.000246
C149	C	1.149207	0.629934	0.333088
C150	C	1.482541	0.963267	0.666421
N151	N	0.820190	0.092482	0.188451
N152	N	1.153524	0.425815	0.521784
N153	N	1.486857	0.759148	0.855117
N154	N	0.820242	0.092493	-0.188885
N155	N	1.153575	0.425827	0.144448
N156	N	1.486909	0.759160	0.477781
C157	C	0.867574	0.045137	0.226546
C158	C	1.200907	0.378470	0.559879
C159	C	1.534241	0.711803	0.893213
C160	C	0.867578	0.045134	0.302774
C161	C	1.200912	0.378467	0.636107
C162	C	1.534245	0.711800	0.969440
C163	C	0.820206	0.092488	0.340903
C164	C	1.153539	0.425821	0.674237
C165	C	1.486872	0.759154	1.007570
C166	C	0.772813	0.139836	0.302799
C167	C	1.106146	0.473170	0.636132
C168	C	1.439480	0.806503	0.969465
C169	C	0.772805	0.139834	0.226572
C170	C	1.106139	0.473167	0.559906
C171	C	1.439472	0.806500	0.893239
C172	C	0.810907	0.155775	0.461657
C173	C	1.144241	0.489109	0.794990
C174	C	1.477574	0.822442	1.128324
C175	C	0.810920	0.155779	0.537882
C176	C	1.144253	0.489112	0.871215
C177	C	1.477587	0.822446	1.204548
C178	C	0.820225	0.092496	0.576011
C179	C	1.153559	0.425830	0.909344
C180	C	1.486892	0.759163	1.242677
C181	C	0.829533	0.029207	0.537905
C182	C	1.162866	0.362540	0.871239
C183	C	1.496200	0.695873	1.204572
C184	C	0.829525	0.029204	0.461679
C185	C	1.162859	0.362537	0.795012
C186	C	1.496192	0.695871	1.128346
C187	C	0.820208	0.092496	0.423558
C188	C	1.153542	0.425829	0.756891
C189	C	1.486875	0.759162	1.090225
C190	C	0.867617	0.045144	0.696761
C191	C	1.200950	0.378477	1.030094
C192	C	1.534283	0.711810	1.363428
C193	C	0.867616	0.045140	0.772990
C194	C	1.200949	0.378473	1.106324
C195	C	1.534283	0.711806	1.439657
C196	C	0.772854	0.139849	0.773014
C197	C	1.106187	0.473182	1.106347
C198	C	1.439521	0.806515	1.439681
C199	C	0.772851	0.139847	0.696786
C200	C	1.106184	0.473180	1.030119
C201	C	1.439518	0.806513	1.363453
C202	C	0.820236	0.092495	0.658664
C203	C	1.153569	0.425828	0.991998
C204	C	1.486903	0.759162	1.325331
H205	H	0.397755	0.005473	-0.077191
H206	H	0.731088	0.338806	0.256143
H207	H	1.064421	0.672140	0.589476
N208	N	0.154436	0.221899	-0.000273
N209	N	0.487769	0.555233	0.333061
N210	N	0.821102	0.888566	0.666394
H211	H	0.138099	0.249386	0.044615
H212	H	0.471433	0.582719	0.377948
H213	H	0.804766	0.916053	0.711282
H214	H	0.207108	0.212992	-0.000294
H215	H	0.540441	0.546325	0.333040
H216	H	0.873774	0.879659	0.666373
H217	H	0.701123	-0.681288	-0.000221
H218	H	1.034457	-0.347954	0.333112
H219	H	1.367790	-0.014621	0.666445
H220	H	0.930822	-0.712049	-0.000273
H221	H	1.264156	-0.378715	0.333060
H222	H	1.597489	-0.045382	0.666394
H223	H	0.937375	-0.265162	-0.000231
H224	H	1.270708	0.068171	0.333103
H225	H	1.604041	0.401505	0.666436
N226	N	0.922132	-0.345692	-0.088422
N227	N	1.255466	-0.012359	0.244912
N228	N	1.588799	0.320975	0.578245
H229	H	0.952360	-0.383738	-0.115314
H230	H	1.285694	-0.050404	0.218020
H231	H	1.619027	0.282929	0.551353
H232	H	0.897017	-0.312203	-0.124651
H233	H	1.230350	0.021131	0.208682
H234	H	1.563684	0.354464	0.542016
H235	H	0.906156	0.006579	0.195509
H236	H	1.239489	0.339912	0.528843
H237	H	1.572823	0.673245	0.862176
N238	N	0.690804	-0.241730	-0.000169
N239	N	1.024138	0.091603	0.333164
N240	N	1.357471	0.424937	0.666497
H241	H	0.651200	-0.202418	-0.000160
H242	H	0.984534	0.130915	0.333173
H243	H	1.317867	0.464248	0.666507
H244	H	0.687611	-0.271412	-0.045061
H245	H	1.020944	0.061922	0.288272
H246	H	1.354278	0.395255	0.621606
H247	H	0.734219	0.178388	0.195554
H248	H	1.067552	0.511722	0.528888
H249	H	1.400885	0.845055	0.862221
N250	N	0.693010	-0.091148	-0.000162
N251	N	1.026344	0.242185	0.333171
N252	N	1.359677	0.575519	0.666504
H253	H	0.703370	-0.041044	-0.000157
H254	H	1.036703	0.292289	0.333176
H255	H	1.370037	0.625622	0.666510
H256	H	0.665184	-0.100092	-0.045049
H257	H	0.998517	0.233242	0.288285
H258	H	1.331850	0.566575	0.621618
H259	H	0.907244	-0.484991	-0.077221
H260	H	1.240578	-0.151658	0.256112
H261	H	1.573911	0.181675	0.589446
N262	N	0.601326	0.228449	-0.000201
N263	N	0.934659	0.561782	0.333132
N264	N	1.267993	0.895115	0.666465
H265	H	0.562013	0.268051	-0.000217
H266	H	0.895347	0.601385	0.333117
H267	H	1.228680	0.934718	0.666450
H268	H	0.630990	0.231653	0.044696
H269	H	0.964324	0.564986	0.378029
H270	H	1.297657	0.898319	0.711362
H271	H	0.906165	0.006578	0.333797
H272	H	1.239499	0.339911	0.667130
H273	H	1.572832	0.673245	1.000463
N274	N	0.721718	0.190915	0.343917
N275	N	1.055052	0.524248	0.677250
N276	N	1.388385	0.857581	1.010584
H277	H	0.672448	0.183036	0.330681
H278	H	1.005782	0.516370	0.664015
H279	H	1.339115	0.849703	0.997348
H280	H	0.728974	0.183709	0.397974
H281	H	1.062308	0.517043	0.731308
H282	H	1.395641	0.850376	1.064641
N283	N	0.918719	-0.005927	0.655637
N284	N	1.252053	0.327407	0.988970
N285	N	1.585386	0.660740	1.322304
H286	H	0.948735	-0.035925	0.691341
H287	H	1.282068	0.297408	1.024674
H288	H	1.615401	0.630741	1.358007
H289	H	0.892225	-0.036566	0.624029
H290	H	1.225558	0.296767	0.957363
H291	H	1.558891	0.630101	1.290696
N292	N	0.039103	-0.043472	-0.000261
N293	N	0.372437	0.289861	0.333073
N294	N	0.705770	0.623194	0.666406
H295	H	0.055442	-0.070962	-0.045146
H296	H	0.388775	0.262371	0.288188
H297	H	0.722109	0.595705	0.621521
H298	H	0.055401	-0.070908	0.044667
H299	H	0.388735	0.262426	0.378000
H300	H	0.722068	0.595759	0.711334
N301	N	0.003854	0.219687	-0.000235
N302	N	0.337187	0.553020	0.333098
N303	N	0.670520	0.886353	0.666432
H304	H	0.032423	0.260286	-0.000222
H305	H	0.365756	0.593620	0.333111
H306	H	0.699089	0.926953	0.666445
H307	H	-0.026576	0.222037	-0.045116
H308	H	0.306758	0.555370	0.288218
H309	H	0.640091	0.888703	0.621551
N310	N	0.686462	-0.538036	-0.000205
N311	N	1.019795	-0.204703	0.333129
N312	N	1.353129	0.128630	0.666462
H313	H	0.645862	-0.566605	-0.000196
H314	H	0.979195	-0.233272	0.333137
H315	H	1.312529	0.100062	0.666470
H316	H	0.684139	-0.507619	0.044691
H317	H	1.017472	-0.174286	0.378024
H318	H	1.350805	0.159047	0.711358
H319	H	0.731250	-0.461452	0.076779
H320	H	1.064583	-0.128119	0.410112
H321	H	1.397916	0.205214	0.743446
H322	H	0.242671	0.179506	0.076733
H323	H	0.576004	0.512839	0.410066
H324	H	0.909337	0.846172	0.743399
H325	H	0.932751	-0.580622	-0.000250
H326	H	1.266085	-0.247289	0.333083
H327	H	1.599418	0.086044	0.666417
N328	N	0.720500	-0.318734	0.088007
N329	N	1.053834	0.014599	0.421341
N330	N	1.387167	0.347932	0.754674
H331	H	0.689279	-0.348566	0.114894
H332	H	1.022612	-0.015233	0.448227
H333	H	1.355946	0.318101	0.781561
H334	H	0.746494	-0.292107	0.124241
H335	H	1.079828	0.041226	0.457575
H336	H	1.413161	0.374559	0.790908
H337	H	0.624756	-0.018124	-0.000144
H338	H	0.958090	0.315210	0.333190
H339	H	1.291423	0.648543	0.666523
N340	N	0.839561	-0.039051	0.420578
N341	N	1.172894	0.294282	0.753912
N342	N	1.506228	0.627615	1.087245
H343	H	0.845458	-0.079143	0.456294
H344	H	1.178792	0.254190	0.789627
H345	H	1.512125	0.587523	1.122961
H346	H	0.797376	-0.042999	0.388976
H347	H	1.130709	0.290335	0.722309
H348	H	1.464042	0.623668	1.055642
N349	N	0.839574	-0.039055	0.579018
N350	N	1.172907	0.294278	0.912351
N351	N	1.506241	0.627612	1.245684
H352	H	0.838164	-0.029453	0.633088
H353	H	1.171497	0.303880	0.966422
H354	H	1.504830	0.637214	1.299755
H355	H	0.801051	-0.067885	0.565718
H356	H	1.134384	0.265449	0.899051
H357	H	1.467718	0.598782	1.232385
N358	N	0.721747	0.190923	0.655700
N359	N	1.055081	0.524256	0.989034
N360	N	1.388414	0.857589	1.322367
H361	H	0.748187	0.221609	0.624052
H362	H	1.081521	0.554943	0.957385
H363	H	1.414854	0.888276	1.290718
H364	H	0.691086	0.164409	0.624139
H365	H	1.024419	0.497742	0.957473
H366	H	1.357753	0.831076	1.290806
H367	H	0.939303	-0.133736	-0.000212
H368	H	1.272636	0.199597	0.333121
H369	H	1.605970	0.532931	0.666454
H370	H	0.462561	0.209652	-0.000209
H371	H	0.795894	0.542985	0.333125
H372	H	1.129228	0.876318	0.666458
H373	H	0.906200	0.006582	0.804008
H374	H	1.239533	0.339915	1.137342
H375	H	1.572866	0.673249	1.470675
N376	N	0.381961	0.194390	0.087968
N377	N	0.715295	0.527723	0.421301
N378	N	1.048628	0.861057	0.754635
H379	H	0.343894	0.224612	0.114841
H380	H	0.677228	0.557946	0.448175
H381	H	1.010561	0.891279	0.781508
H382	H	0.415422	0.169266	0.124214
H383	H	0.748755	0.502599	0.457547
H384	H	1.082088	0.835932	0.790880
H385	H	0.734279	0.178402	0.804058
H386	H	1.067613	0.511736	1.137392
H387	H	1.400946	0.845069	1.470725
N388	N	0.800876	0.224037	0.578978
N389	N	1.134209	0.557370	0.912311
N390	N	1.467543	0.890703	1.245645
H391	H	0.839384	0.252906	0.565683
H392	H	1.172717	0.586239	0.899016
H393	H	1.506051	0.919573	1.232349
H394	H	0.754197	0.250443	0.565711
H395	H	1.087530	0.583776	0.899045
H396	H	1.420863	0.917110	1.232378
N397	N	0.485989	-0.036916	-0.000172
N398	N	0.819322	0.296417	0.333162
N399	N	1.152656	0.629750	0.666495
H400	H	0.456336	-0.040179	-0.045069
H401	H	0.789669	0.293154	0.288264
H402	H	1.123002	0.626487	0.621597
H403	H	0.525336	-0.076482	-0.000128
H404	H	0.858669	0.256851	0.333206
H405	H	1.192003	0.590185	0.666539
H406	H	0.803318	0.207311	0.430619
H407	H	1.136651	0.540645	0.763952
H408	H	1.469984	0.873978	1.097285
H409	H	0.177866	-0.024674	-0.000236
H410	H	0.511199	0.308660	0.333097
H411	H	0.844533	0.641993	0.666431
N412	N	0.258474	-0.009409	-0.088426
N413	N	0.591807	0.323924	0.244908
N414	N	0.925140	0.657258	0.578241
H415	H	0.296545	-0.039635	-0.115289
H416	H	0.629878	0.293699	0.218045
H417	H	0.963211	0.627032	0.551378
H418	H	0.232385	-0.039630	-0.055882
H419	H	0.565718	0.293704	0.277452
H420	H	0.899052	0.627037	0.610785
