data_functionalizedCrystal
_audit_creation_method	'MofGen! by Chris Wilmer'
_symmetry_space_group_name_H-M	'P1'
_symmetry_Int_Tables_number	1
_symmetry_cell_setting	triclinic
loop_
_symmetry_equiv_pos_as_xyz
  x,y,z
_cell_length_a	17.019282
_cell_length_b	17.038272
_cell_length_c	14.048226
_cell_angle_alpha	89.993466
_cell_angle_beta	93.874761
_cell_angle_gamma	87.241387
loop_
_atom_site_label
_atom_site_type_symbol
_atom_site_fract_x
_atom_site_fract_y
_atom_site_fract_z
O1	O	1.053361	0.099546	0.007218
O2	O	0.824549	0.112259	-0.011547
O3	O	0.937595	-0.007912	-0.002269
O4	O	0.940315	0.219716	-0.002061
O5	O	0.937580	-0.007919	0.156051
O6	O	0.824534	0.112252	0.146773
O7	O	1.053346	0.099539	0.165538
Zn8	Zn	0.938938	0.105894	0.181292
Zn9	Zn	0.938958	0.105903	-0.027301
O10	O	0.940300	0.219709	0.156259
C11	C	0.795121	0.111775	0.065200
C12	C	0.707454	0.110336	0.058010
C13	C	0.935114	-0.037041	0.076688
C14	C	0.927734	-0.123828	0.076083
C15	C	0.666264	0.109654	0.140935
C16	C	0.583893	0.108288	0.134182
C17	C	0.542712	0.107611	0.044504
C18	C	0.583907	0.108291	-0.038427
C19	C	0.666278	0.109650	-0.031674
C20	C	0.294007	0.103501	0.019795
C21	C	0.211631	0.102144	0.013047
C22	C	0.211622	0.102140	0.185658
C23	C	0.293994	0.103504	0.192403
C24	C	0.335182	0.104180	0.109472
C25	C	0.458515	0.106218	0.037599
C26	C	0.419378	0.105567	0.116378
C27	C	0.995494	-0.174004	0.081641
C28	C	0.988554	-0.255548	0.081063
C29	C	0.913854	-0.286914	0.074933
C30	C	0.846090	-0.236732	0.069372
C31	C	0.853030	-0.155189	0.069943
C32	C	0.889337	-0.532650	0.072910
C33	C	0.882402	-0.614199	0.072341
C34	C	1.024867	-0.633009	0.084031
C35	C	1.031801	-0.551464	0.084607
C36	C	0.964036	-0.501289	0.079041
C37	C	0.906760	-0.370265	0.074345
C38	C	0.971131	-0.417939	0.079622
C39	C	1.082775	0.100022	0.088789
C40	C	1.170442	0.101462	0.095972
C41	C	0.942781	0.248839	0.077300
C42	C	0.950162	0.335625	0.077900
N43	N	0.938930	0.105887	0.323652
N44	N	0.938971	0.105904	-0.169661
C45	C	0.989005	0.052698	0.377580
C46	C	0.989010	0.052697	0.477238
C47	C	0.938944	0.105891	0.522967
C48	C	0.888863	0.159083	0.469031
C49	C	0.888855	0.159079	0.369375
C50	C	0.888887	0.159089	0.676747
C51	C	0.888896	0.159094	0.776411
C52	C	0.989042	0.052707	0.784611
C53	C	0.989033	0.052703	0.684955
C54	C	0.938954	0.105896	0.631026
H55	H	0.699787	0.110212	0.213961
Cl56	Cl	0.825951	0.225967	0.833890
H57	H	0.848103	0.202402	0.632841
H58	H	0.821569	-0.639734	0.067365
H59	H	1.043732	-0.296398	0.085591
Cl60	Cl	0.345758	0.104361	0.305147
H61	H	0.550372	0.107734	-0.111445
Cl62	Cl	0.825918	0.225953	0.526516
Cl63	Cl	0.804145	-0.469583	0.065909
Cl64	Cl	0.718059	0.110504	-0.135927
H65	H	0.327533	0.104049	-0.047734
H66	H	0.550361	0.107720	0.201709
Cl67	Cl	0.159838	0.101287	0.289907
Cl68	Cl	1.051954	-0.014175	0.320105
H69	H	0.848077	0.202390	0.325467
H70	H	0.178104	0.101594	-0.059983
Cl71	Cl	0.471150	0.106416	0.229112
Cl72	Cl	1.089407	-0.134580	0.089357
Cl73	Cl	0.406740	0.105332	-0.075136
Cl74	Cl	1.125713	-0.512038	0.092283
H75	H	1.080037	-0.673870	0.088561
H76	H	1.029818	0.009395	0.828526
Cl77	Cl	0.767842	-0.092110	0.062952
Cl78	Cl	0.752181	-0.276164	0.061654
H79	H	1.031952	-0.392397	0.084592
Cl80	Cl	0.812854	-0.409705	0.066635
H81	H	1.029785	0.009386	0.521147
H82	H	1.029805	0.009392	0.647723
