data_functionalizedCrystal
_audit_creation_method	'MofGen! by Chris Wilmer'
_symmetry_space_group_name_H-M	'P1'
_symmetry_Int_Tables_number	1
_symmetry_cell_setting	triclinic
loop_
_symmetry_equiv_pos_as_xyz
  x,y,z
_cell_length_a	19.805405
_cell_length_b	19.805407
_cell_length_c	19.805399
_cell_angle_alpha	90.019197
_cell_angle_beta	90.027486
_cell_angle_gamma	90.023877
loop_
_atom_site_label
_atom_site_type_symbol
_atom_site_fract_x
_atom_site_fract_y
_atom_site_fract_z
Zn1	Zn	0.269548	-1.034729	-0.382713
Zn2	Zn	0.382737	-1.034642	-0.269525
Zn3	Zn	0.269559	-0.921544	-0.269539
Zn4	Zn	0.382693	-0.921505	-0.382673
O5	O	0.326134	-0.978105	-0.326112
O6	O	0.284577	-1.129434	-0.367710
O7	O	0.367746	-1.019619	-0.174810
O8	O	0.174841	-0.936611	-0.284574
O9	O	0.367736	-1.129370	-0.284551
O10	O	0.174833	-1.019768	-0.367723
O11	O	0.284596	-0.936526	-0.174820
O12	O	0.284553	-0.826822	-0.284535
O13	O	0.367661	-0.936545	-0.477395
O14	O	0.367672	-0.826794	-0.367654
O15	O	0.284534	-1.019730	-0.477424
O16	O	0.477448	-1.019581	-0.284512
O17	O	0.477416	-0.936460	-0.367641
C18	C	0.326110	-0.802249	-0.326092
C19	C	0.326115	-0.727017	-0.326099
C20	C	0.282890	-0.691707	-0.369465
C21	C	0.282892	-0.621019	-0.369466
C22	C	0.326124	-0.585641	-0.326104
C23	C	0.369350	-0.620956	-0.282733
C24	C	0.369344	-0.691644	-0.282729
C25	C	0.369375	-0.335883	-0.282747
C26	C	0.369379	-0.265191	-0.282755
C27	C	0.282923	-0.265258	-0.369483
C28	C	0.282917	-0.335945	-0.369479
C29	C	0.326141	-0.371254	-0.326107
C30	C	0.326137	-0.447903	-0.326105
C31	C	0.326131	-0.508994	-0.326108
C32	C	0.501991	-0.978025	-0.326085
C33	C	0.577222	-0.978052	-0.326096
C34	C	0.612561	-1.021375	-0.282857
C35	C	0.683249	-1.021402	-0.282875
C36	C	0.718598	-0.978103	-0.326128
C37	C	0.683255	-0.934779	-0.369371
C38	C	0.612568	-0.934755	-0.369357
C39	C	0.968328	-0.934872	-0.369431
C40	C	1.039020	-0.934897	-0.369440
C41	C	1.039010	-1.021518	-0.282948
C42	C	0.968322	-1.021495	-0.282934
C43	C	0.932985	-0.978174	-0.326180
C44	C	0.856337	-0.978146	-0.326161
C45	C	0.795245	-0.978127	-0.326143
C46	C	1.149592	-0.978198	-0.326162
C47	C	1.074360	-0.978223	-0.326204
C48	C	0.326092	-0.978143	-0.502655
C49	C	0.326074	-0.978159	-0.577887
C50	C	0.326155	-0.154648	-0.326128
C51	C	0.326150	-0.229880	-0.326118
C52	C	0.282787	-1.021475	-0.613248
C53	C	0.282768	-1.021482	-0.683937
C54	C	0.326038	-0.978176	-0.719263
C55	C	0.369327	-0.934856	-0.683897
C56	C	0.369342	-0.934846	-0.613210
C57	C	0.369264	-0.934894	-0.968971
C58	C	0.369246	-0.934908	-1.039663
C59	C	0.282689	-1.021530	-1.039697
C60	C	0.282705	-1.021520	-0.969010
C61	C	0.325990	-0.978197	-0.933650
C62	C	0.326010	-0.978189	-0.857002
C63	C	0.326022	-0.978187	-0.795910
C64	C	0.326128	-0.978106	-0.150256
C65	C	0.325956	-0.978221	-0.075025
H66	H	0.404585	-0.236389	-0.247442
Br67	Br	0.427975	-0.876133	-1.087606
H68	H	0.247553	-1.056742	-0.584490
Br69	Br	0.224051	-1.080302	-0.731924
Br70	Br	0.224249	-0.383954	-0.428334
H71	H	0.583796	-0.899479	-0.404567
H72	H	0.404571	-0.364623	-0.247431
H73	H	0.247471	-1.056786	-0.940251
Br74	Br	0.223942	-1.080325	-1.087689
H75	H	0.404547	-0.592147	-0.247424
Br76	Br	0.224260	-0.217336	-0.428347
Br77	Br	0.428007	-0.876097	-0.920991
H78	H	0.712041	-0.899527	-0.404592
H79	H	0.404542	-0.720392	-0.247416
Br80	Br	0.428048	-0.876078	-0.731839
H81	H	0.583784	-1.056631	-0.247633
H82	H	0.712019	-1.056679	-0.247665
H83	H	0.404584	-0.899567	-0.584420
Br84	Br	0.224221	-0.739712	-0.428321
Br85	Br	0.224228	-0.573100	-0.428322
H86	H	0.939544	-1.056751	-0.247711
H87	H	1.067799	-0.899638	-0.404667
Br88	Br	1.086971	-1.080315	-0.224258
H89	H	0.939562	-0.899597	-0.404641
