data_functionalizedCrystal
_audit_creation_method	'MofGen! by Chris Wilmer'
_symmetry_space_group_name_H-M	'P1'
_symmetry_Int_Tables_number	1
_symmetry_cell_setting	triclinic
loop_
_symmetry_equiv_pos_as_xyz
  x,y,z
_cell_length_a	10.540539
_cell_length_b	10.540510
_cell_length_c	16.776229
_cell_angle_alpha	89.995854
_cell_angle_beta	89.994937
_cell_angle_gamma	84.519401
loop_
_atom_site_label
_atom_site_type_symbol
_atom_site_fract_x
_atom_site_fract_y
_atom_site_fract_z
O1	O	1.685873	0.178906	-0.066246
O2	O	1.316458	0.195762	-0.066255
O3	O	1.509613	0.002625	-0.066250
O4	O	1.492718	0.372043	-0.066251
O5	O	1.509587	0.002613	0.066326
O6	O	1.316432	0.195750	0.066321
O7	O	1.685847	0.178894	0.066331
Zn8	Zn	1.501135	0.187320	0.087375
Zn9	Zn	1.501169	0.187336	-0.087300
O10	O	1.492692	0.372031	0.066325
C11	C	1.269142	0.194492	0.000032
C12	C	1.128194	0.190710	0.000028
C13	C	0.944783	0.045791	0.000338
C14	C	1.091401	0.049624	0.000031
C15	C	1.066529	0.258613	-0.075677
C16	C	0.919985	0.253798	-0.075732
C17	C	0.919467	0.256654	0.075032
C18	C	1.066449	0.257953	0.076025
C19	C	1.508341	-0.044685	0.000037
C20	C	1.504574	-0.185635	0.000032
C21	C	1.638758	-0.403090	0.000339
C22	C	1.642776	-0.256495	0.000036
C23	C	1.433843	-0.230386	-0.075676
C24	C	1.430804	-0.377147	-0.075736
C25	C	1.427896	-0.376970	0.075029
C26	C	1.434451	-0.230629	0.076025
C27	C	1.733163	0.180164	0.000042
C28	C	1.874110	0.183946	0.000040
C29	C	1.493964	0.419340	0.000037
C30	C	1.497731	0.560290	0.000037
N31	N	1.501121	0.187308	0.206587
N32	N	1.501194	0.187338	-0.206511
C33	C	1.586677	0.101823	0.248306
C34	C	1.586684	0.101822	0.331758
C35	C	1.501140	0.187313	0.373489
C36	C	1.415575	0.272803	0.331764
C37	C	1.415563	0.272796	0.248314
C38	C	1.415622	0.272828	0.668311
C39	C	1.415643	0.272830	0.751768
C40	C	1.586742	0.101853	0.751756
C41	C	1.586730	0.101847	0.668305
C42	C	1.501161	0.187331	0.626587
C43	C	1.501153	0.187330	0.536099
C44	C	1.501154	0.187322	0.463976
H45	H	0.914592	-0.009705	-0.053652
N46	N	1.323356	0.365029	0.796778
H47	H	1.336355	0.352060	0.855974
H48	H	1.338804	0.455234	0.782184
H49	H	1.133163	-0.004170	-0.054331
N50	N	1.678992	0.009633	0.376743
H51	H	1.630020	-0.047068	0.411379
H52	H	1.733157	-0.044417	0.337581
H53	H	0.872006	0.355264	-0.079168
H54	H	0.891791	0.203622	-0.132322
N55	N	1.147852	-0.021172	0.071904
H56	H	1.243419	-0.018819	0.071838
H57	H	1.110948	0.020552	0.122059
H58	H	1.107405	0.208348	0.132031
N59	N	1.323299	0.365005	0.376770
H60	H	1.336290	0.352041	0.435966
H61	H	1.338759	0.455205	0.362173
H62	H	1.324133	-0.399120	0.075536
H63	H	1.345894	0.342406	0.214346
N64	N	1.498930	-0.189519	-0.150308
H65	H	1.574218	-0.142028	-0.135251
H66	H	1.529309	-0.267259	-0.182745
N67	N	1.678921	0.009588	0.203302
H68	H	1.665931	0.022548	0.144105
H69	H	1.769114	0.025103	0.217871
N70	N	0.877698	0.196156	0.151045
H71	H	0.907802	0.244282	0.198404
H72	H	0.781659	0.199090	0.152044
N73	N	1.323326	0.365030	0.623332
H74	H	1.338750	0.455272	0.637847
H75	H	1.336323	0.351953	0.564147
N76	N	1.293891	-0.407616	-0.080308
H77	H	1.290852	-0.503098	-0.080383
H78	H	1.245417	-0.369572	-0.032721
H79	H	1.088872	0.362222	-0.078494
H80	H	1.692590	-0.445050	0.054633
H81	H	1.698463	-0.228084	-0.054325
N82	N	0.906923	-0.028049	0.072257
H83	H	0.843588	0.027332	0.105344
H84	H	0.866900	-0.106453	0.054135
H85	H	1.109134	0.211453	-0.132018
N86	N	1.098511	0.394207	0.082085
H87	H	1.153760	0.414367	0.035443
H88	H	1.017273	0.453349	0.081440
N89	N	1.485730	-0.433191	0.151043
H90	H	1.557793	-0.499912	0.137635
H91	H	1.519536	-0.363524	0.183894
H92	H	0.872229	0.358559	0.075543
N93	N	1.678999	0.009645	0.623295
H94	H	1.733200	-0.044514	0.662388
H95	H	1.629894	-0.046948	0.588681
N96	N	1.716048	-0.217614	0.071933
H97	H	1.746027	-0.295770	0.104107
H98	H	1.792144	-0.173778	0.053809
H99	H	1.692300	-0.446591	-0.053646
H100	H	1.656413	0.032243	0.785732
N101	N	1.502603	-0.192730	0.150220
H102	H	1.593159	-0.233865	0.149741
H103	H	1.503157	-0.096996	0.151684
N104	N	1.494880	-0.430426	-0.150685
H105	H	1.447967	-0.392402	-0.198845
H106	H	1.586048	-0.408449	-0.151879
H107	H	1.332101	-0.182997	-0.078494
H108	H	1.333552	-0.181562	0.080594
