data_functionalizedCrystal
_audit_creation_method	'MofGen! by Chris Wilmer'
_symmetry_space_group_name_H-M	'P1'
_symmetry_Int_Tables_number	1
_symmetry_cell_setting	triclinic
loop_
_symmetry_equiv_pos_as_xyz
  x,y,z
_cell_length_a	19.188930
_cell_length_b	19.188930
_cell_length_c	17.666332
_cell_angle_alpha	90.011603
_cell_angle_beta	89.976766
_cell_angle_gamma	96.855221
loop_
_atom_site_label
_atom_site_type_symbol
_atom_site_fract_x
_atom_site_fract_y
_atom_site_fract_z
O1	O	0.926150	-0.087169	-0.063200
O2	O	0.722838	-0.098903	-0.063149
O3	O	0.830361	0.008620	-0.063161
O4	O	0.818627	-0.194692	-0.063188
O5	O	0.830342	0.008625	0.062735
O6	O	0.722820	-0.098897	0.062747
O7	O	0.926131	-0.087163	0.062697
Cu8	Cu	0.824473	-0.093030	0.074217
Cu9	Cu	0.824496	-0.093036	-0.074670
O10	O	0.818608	-0.194686	0.062709
C11	C	0.696818	-0.098520	-0.000194
C12	C	0.619313	-0.097380	-0.000174
C13	C	0.829972	0.034634	-0.000211
C14	C	0.828831	0.112138	-0.000204
C15	C	0.574389	-0.160470	-0.000194
C16	C	0.501566	-0.159399	-0.000203
C17	C	0.473669	-0.095233	-0.000206
C18	C	0.518603	-0.032133	-0.000181
C19	C	0.591425	-0.033207	-0.000166
N20	N	0.365695	-0.046188	-0.043078
N21	N	0.296517	-0.045172	-0.043095
C22	C	0.254260	-0.091994	-0.000252
N23	N	0.283795	-0.139881	0.042599
N24	N	0.352979	-0.140899	0.042612
C25	C	0.394707	-0.094062	-0.000222
C26	C	0.130372	-0.153928	-0.000280
C27	C	0.057547	-0.152853	-0.000283
C28	C	0.074586	-0.025586	-0.000270
C29	C	0.147409	-0.026662	-0.000258
C30	C	0.175298	-0.090835	-0.000267
C31	C	0.952151	-0.087546	-0.000260
C32	C	1.029656	-0.088687	-0.000285
C33	C	0.818997	-0.220700	-0.000244
C34	C	0.820138	-0.298204	-0.000255
N35	N	0.824463	-0.093025	0.178937
C36	C	0.891922	0.157062	-0.000216
C37	C	0.890850	0.229886	-0.000228
C38	C	0.826684	0.257782	-0.000212
C39	C	0.763585	0.212849	-0.000205
C40	C	0.764658	0.140026	-0.000200
N41	N	0.777630	0.365789	0.042645
N42	N	0.776615	0.434968	0.042642
C43	C	0.823446	0.477191	-0.000227
N44	N	0.871341	0.447624	-0.043084
N45	N	0.872359	0.378439	-0.043079
C46	C	0.825513	0.336745	-0.000218
C47	C	0.885379	0.601079	-0.000253
C48	C	0.884305	0.673904	-0.000270
C49	C	0.757038	0.656865	-0.000239
C50	C	0.758114	0.584042	-0.000230
C51	C	0.822287	0.556154	-0.000233
N52	N	0.824512	-0.093036	-0.179390
C53	C	0.872089	-0.045437	0.218541
C54	C	0.872093	-0.045433	0.297789
C55	C	0.824478	-0.093030	0.337429
C56	C	0.776842	-0.140621	0.297815
C57	C	0.776835	-0.140619	0.218569
N58	N	0.815401	-0.154837	0.461841
N59	N	0.815413	-0.154837	0.537121
C60	C	0.824496	-0.093040	0.576193
N61	N	0.833582	-0.031239	0.537140
N62	N	0.833574	-0.031240	0.461853
C63	C	0.824480	-0.093038	0.423358
C64	C	0.872130	-0.045444	0.701727
C65	C	0.872129	-0.045440	0.780976
C66	C	0.776881	-0.140634	0.781000
C67	C	0.776878	-0.140632	0.701753
C68	C	0.824506	-0.093038	0.662121
H69	H	0.464982	-0.210776	-0.000217
N70	N	0.725484	-0.191954	0.340569
H71	H	0.752068	-0.222806	0.373423
H72	H	0.695321	-0.222054	0.303405
N73	N	0.923452	0.005900	0.175796
H74	H	0.954278	-0.020705	0.142893
H75	H	0.953576	0.036035	0.212964
H76	H	0.910910	-0.006684	0.813222
N77	N	0.725508	-0.191964	0.659038
H78	H	0.733395	-0.241500	0.672811
H79	H	0.732750	-0.184681	0.602835
H80	H	0.910909	-0.006688	0.669457
N81	N	0.687833	0.686953	-0.000216
H82	H	0.660196	0.670567	0.046463
H83	H	0.660260	0.670540	-0.046908
N84	N	0.961138	0.126991	-0.000225
H85	H	0.988775	0.143382	-0.046902
H86	H	0.952194	0.074045	-0.000192
H87	H	0.935683	0.710481	-0.000284
N88	N	0.639887	0.034842	-0.000153
H89	H	0.670457	0.037233	0.046522
H90	H	0.611122	0.075618	-0.000183
H91	H	0.706738	0.547464	-0.000216
N92	N	0.044509	0.043623	-0.000264
H93	H	-0.008441	0.034731	-0.000275
H94	H	0.060981	0.071222	-0.046929
N95	N	0.923462	0.005897	0.340518
H96	H	0.953631	0.036048	0.303386
H97	H	0.954243	-0.020764	0.373373
N98	N	0.725461	-0.191949	0.175854
H99	H	0.733346	-0.241485	0.189628
H100	H	0.732707	-0.184667	0.119651
N101	N	0.604469	-0.229682	-0.000209
H102	H	0.564955	-0.269487	-0.000225
H103	H	0.634288	-0.232904	0.046466
H104	H	0.183988	0.024713	-0.000246
N105	N	0.725517	-0.191965	0.823745
H106	H	0.752097	-0.222818	0.856603
H107	H	0.695358	-0.222065	0.786577
N108	N	0.488520	0.037075	-0.000176
H109	H	0.435570	0.028182	-0.000190
H110	H	0.504995	0.064677	-0.046838
N111	N	0.694376	0.242932	-0.000192
H112	H	0.703269	0.295882	-0.000194
H113	H	0.666769	0.226492	0.046485
N114	N	0.160454	-0.223140	-0.000284
H115	H	0.144035	-0.250768	0.046382
H116	H	0.213399	-0.214190	-0.000306
N117	N	0.009111	-0.220919	-0.000260
H118	H	0.018077	-0.248943	-0.046921
H119	H	-0.041241	-0.210468	-0.000222
N120	N	0.958900	0.278352	-0.000243
H121	H	0.999715	0.249634	-0.000246
H122	H	0.961213	0.308946	0.046428
H123	H	0.713281	0.103448	-0.000190
H124	H	0.937632	0.578372	-0.000259
