data_functionalizedCrystal
_audit_creation_method	'MofGen! by Chris Wilmer'
_symmetry_space_group_name_H-M	'P1'
_symmetry_Int_Tables_number	1
_symmetry_cell_setting	triclinic
loop_
_symmetry_equiv_pos_as_xyz
  x,y,z
_cell_length_a	23.532407
_cell_length_b	13.448316
_cell_length_c	14.971496
_cell_angle_alpha	90.007512
_cell_angle_beta	96.766599
_cell_angle_gamma	89.998571
loop_
_atom_site_label
_atom_site_type_symbol
_atom_site_fract_x
_atom_site_fract_y
_atom_site_fract_z
O1	O	0.755729	-0.082570	-0.108580
O2	O	0.589933	-0.082599	-0.124290
O3	O	0.677272	-0.082575	0.013811
O4	O	0.668390	-0.082594	-0.246682
O5	O	0.677261	0.082809	0.013820
O6	O	0.589922	0.082784	-0.124282
O7	O	0.755718	0.082814	-0.108572
Cu8	Cu	0.672819	0.097900	-0.116426
Cu9	Cu	0.672832	-0.097685	-0.116436
O10	O	0.668379	0.082790	-0.246673
C11	C	0.568710	0.000089	-0.123886
C12	C	0.505487	0.000078	-0.122683
N13	N	0.672814	0.235464	-0.116419
N14	N	0.672841	-0.235250	-0.116436
C15	C	0.106704	0.000117	-0.196865
C16	C	0.047299	0.000124	-0.195747
O17	O	0.010850	0.000155	-0.264514
N18	N	0.024319	0.000128	-0.113646
C19	C	0.060748	0.000136	-0.032657
O20	O	0.035747	0.000142	0.037279
C21	C	0.120152	0.000137	-0.033775
C22	C	0.143128	0.000123	-0.115882
C23	C	0.129680	0.000104	-0.278965
C24	C	0.189081	0.000096	-0.280082
C25	C	0.225506	0.000101	-0.199099
C26	C	0.202529	0.000115	-0.116999
C27	C	0.156580	0.000153	0.047213
C28	C	0.215987	0.000155	0.046088
C29	C	0.238963	0.000140	-0.036019
C30	C	0.298354	0.000112	-0.037133
N31	N	0.321334	0.000108	-0.119234
C32	C	0.284910	0.000102	-0.200217
C33	C	-0.064005	0.000136	-0.030314
C34	C	-0.123407	0.000128	-0.029195
C35	C	-0.136853	0.000117	-0.192286
C36	C	-0.077449	0.000118	-0.193405
C37	C	-0.041025	0.000132	-0.112416
C38	C	0.409656	0.000085	-0.202557
C39	C	0.469063	0.000073	-0.203666
C40	C	0.482503	0.000089	-0.040576
C41	C	0.423102	0.000096	-0.039466
C42	C	0.386679	0.000097	-0.120463
O43	O	0.334837	0.000085	0.031598
O44	O	0.309919	0.000110	-0.270142
C45	C	0.776941	0.000124	-0.108976
C46	C	0.840163	0.000128	-0.110179
C47	C	0.676868	0.000117	0.047136
C48	C	0.675675	0.000117	0.146420
C49	C	0.711499	0.287516	-0.055292
C50	C	0.711503	0.391619	-0.055291
C51	C	0.672823	0.443669	-0.116422
C52	C	0.634134	0.391611	-0.177551
C53	C	0.634128	0.287509	-0.177547
C54	C	0.634149	0.608591	-0.177557
C55	C	0.634156	0.712699	-0.177563
C56	C	0.711525	0.712700	-0.055301
C57	C	0.711519	0.608599	-0.055297
C58	C	0.672830	0.556548	-0.116428
C59	C	0.668783	0.000095	-0.279998
C60	C	0.669976	0.000089	-0.379282
C61	C	0.670544	-0.090060	0.574065
C62	C	0.671668	-0.090056	0.480778
C63	C	0.672220	0.000099	0.434145
C64	C	0.671654	0.090255	0.480805
C65	C	0.670534	0.090249	0.574091
C66	C	0.673988	0.090260	0.286366
C67	C	0.675107	0.090266	0.193073
C68	C	0.675122	-0.090045	0.193053
C69	C	0.674002	-0.090050	0.286339
C70	C	0.673434	0.000106	0.332993
H71	H	0.380008	0.000089	-0.268513
H72	H	0.673549	-0.163462	0.324304
C73	C	-0.052475	-0.000098	-0.282523
C74	C	-0.018775	-0.085196	-0.287949
C75	C	0.004229	-0.085435	-0.370041
H76	H	-0.029544	0.057508	-0.286443
H77	H	-0.082666	-0.000158	-0.330615
H78	H	0.011412	-0.085127	-0.239871
H79	H	-0.041693	-0.142816	-0.284045
H80	H	-0.025962	-0.085496	-0.418132
H81	H	0.027157	-0.027826	-0.373953
H82	H	0.027093	-0.143177	-0.373736
C83	C	0.398076	0.000259	0.049614
C84	C	0.364361	0.085343	0.055016
C85	C	0.341298	0.085531	0.137059
H86	H	0.428221	0.000309	0.097758
H87	H	0.375145	-0.057377	0.053450
H88	H	0.387290	0.142964	0.051189
H89	H	0.334207	0.085311	0.006891
H90	H	0.318367	0.027895	0.140895
H91	H	0.371447	0.085578	0.185197
H92	H	0.318416	0.143254	0.140732
C93	C	0.753577	0.447952	0.011104
C94	C	0.787464	0.380087	0.064616
C95	C	0.826238	0.431944	0.125781
H96	H	0.733144	0.488581	0.048268
H97	H	0.777333	0.488524	-0.020874
H98	H	0.763711	0.339532	0.096592
H99	H	0.807910	0.339455	0.027477
H100	H	0.849994	0.472516	0.093803
H101	H	0.805800	0.472572	0.162938
H102	H	0.849239	0.385906	0.162090
H103	H	0.743017	0.566220	-0.005524
C104	C	0.255437	0.000112	0.134118
C105	C	0.222595	0.000098	0.206254
C106	C	0.258915	0.000041	0.287359
H107	H	0.278906	0.057766	0.137206
H108	H	0.278880	-0.057588	0.137121
H109	H	0.199163	0.057792	0.203252
H110	H	0.199128	-0.057551	0.203196
H111	H	0.282358	-0.057659	0.290362
H112	H	0.282382	0.057696	0.290437
H113	H	0.236638	0.000023	0.336313
H114	H	0.675579	-0.163453	0.155062
H115	H	0.207783	0.000084	-0.346941
H116	H	0.670089	-0.163475	0.612026
H117	H	0.512170	0.000089	0.025358
H118	H	-0.034351	0.000138	0.035640
C119	C	0.675712	0.188251	0.142603
C120	C	0.674985	0.267205	0.203426
C121	C	0.675538	0.357484	0.156965
H122	H	0.642965	0.192108	0.099111
H123	H	0.709338	0.192083	0.113331
H124	H	0.641362	0.263376	0.232684
H125	H	0.707729	0.263382	0.246919
H126	H	0.709164	0.361315	0.127693
H127	H	0.642791	0.361330	0.113475
H128	H	0.675050	0.411065	0.198227
H129	H	0.673527	0.163675	0.324349
C130	C	0.672267	0.188243	0.430342
C131	C	0.671540	0.267191	0.491171
C132	C	0.672104	0.357474	0.444720
H133	H	0.639524	0.192111	0.386844
H134	H	0.705897	0.192071	0.401078
H135	H	0.637914	0.263365	0.520421
H136	H	0.704281	0.263356	0.534671
H137	H	0.705734	0.361302	0.415456
H138	H	0.639360	0.361332	0.401224
H139	H	0.671616	0.411051	0.485987
H140	H	0.742999	0.245143	-0.005516
H141	H	0.743026	0.755086	-0.005527
C142	C	-0.176473	-0.000037	-0.280147
C143	C	-0.210981	-0.085107	-0.284261
C144	C	-0.247492	-0.085278	-0.365174
H145	H	-0.154355	-0.000093	-0.329283
H146	H	-0.199958	0.057608	-0.283099
H147	H	-0.187498	-0.142738	-0.281318
H148	H	-0.233111	-0.085070	-0.235143
H149	H	-0.270977	-0.027633	-0.368125
H150	H	-0.225369	-0.085331	-0.414303
H151	H	-0.270913	-0.142992	-0.367972
H152	H	0.670071	0.163658	0.612075
H153	H	0.602658	0.755073	-0.227341
C154	C	0.592120	0.552255	-0.244031
C155	C	0.558259	0.620117	-0.297587
C156	C	0.519545	0.568257	-0.358842
H157	H	0.568336	0.511651	-0.212151
H158	H	0.612617	0.511656	-0.281148
H159	H	0.537764	0.660699	-0.260475
H160	H	0.582028	0.660723	-0.329487
H161	H	0.540041	0.527659	-0.395959
H162	H	0.495765	0.527655	-0.326954
H163	H	0.496569	0.614293	-0.395192
H164	H	-0.142109	0.000124	0.037664
H165	H	0.100029	0.000103	-0.344915
C166	C	0.592102	0.231172	-0.244017
C167	C	0.558239	0.299034	-0.297571
C168	C	0.519521	0.247174	-0.358820
H169	H	0.568319	0.190571	-0.212132
H170	H	0.612595	0.190570	-0.281136
H171	H	0.537747	0.339618	-0.260457
H172	H	0.582006	0.339637	-0.329476
H173	H	0.540014	0.206573	-0.395939
H174	H	0.495742	0.206575	-0.326927
H175	H	0.496544	0.293210	-0.395169
C176	C	0.672104	-0.187904	0.430042
C177	C	0.623758	-0.193086	0.366045
C178	C	0.624105	-0.283227	0.319306
H179	H	0.671555	-0.241627	0.471116
H180	H	0.705683	-0.191804	0.400657
H181	H	0.590188	-0.189196	0.395429
H182	H	0.624297	-0.139384	0.324952
H183	H	0.657684	-0.287127	0.289921
H184	H	0.623557	-0.336943	0.360387
H185	H	0.591306	-0.286751	0.275874
C186	C	0.493897	0.000111	-0.292908
C187	C	0.449279	0.000138	-0.363587
C188	C	0.472132	0.000188	-0.445805
H189	H	0.516781	-0.057549	-0.296868
H190	H	0.516776	0.057804	-0.296781
H191	H	0.426410	-0.057550	-0.359716
H192	H	0.426392	0.057794	-0.359656
H193	H	0.495011	0.057882	-0.449678
H194	H	0.495015	-0.057473	-0.449756
H195	H	0.441863	0.000216	-0.493770
H196	H	0.137883	0.000166	0.114073
H197	H	0.602637	0.433996	-0.227322
