data_functionalizedCrystal
_audit_creation_method	'MofGen! by Chris Wilmer'
_symmetry_space_group_name_H-M	'P1'
_symmetry_Int_Tables_number	1
_symmetry_cell_setting	triclinic
loop_
_symmetry_equiv_pos_as_xyz
  x,y,z
_cell_length_a	17.077404
_cell_length_b	19.121063
_cell_length_c	17.077396
_cell_angle_alpha	87.591200
_cell_angle_beta	90.019501
_cell_angle_gamma	92.469213
loop_
_atom_site_label
_atom_site_type_symbol
_atom_site_fract_x
_atom_site_fract_y
_atom_site_fract_z
Zn1	Zn	1.186697	-0.279610	0.457152
Zn2	Zn	1.436697	-0.029610	0.707152
Zn3	Zn	1.686697	0.220390	0.957152
Zn4	Zn	1.936697	0.470390	1.207152
Zn5	Zn	1.180993	-0.397067	0.331476
Zn6	Zn	1.430993	-0.147067	0.581476
Zn7	Zn	1.680993	0.102933	0.831476
Zn8	Zn	1.930993	0.352933	1.081476
Zn9	Zn	1.055428	-0.279634	0.325901
Zn10	Zn	1.305428	-0.029634	0.575901
Zn11	Zn	1.555428	0.220366	0.825901
Zn12	Zn	1.805428	0.470366	1.075901
Zn13	Zn	1.049788	-0.397025	0.462698
Zn14	Zn	1.299788	-0.147025	0.712698
Zn15	Zn	1.549788	0.102975	0.962698
Zn16	Zn	1.799788	0.352975	1.212698
O17	O	1.118227	-0.338334	0.394307
O18	O	1.368227	-0.088334	0.644307
O19	O	1.618227	0.161666	0.894307
O20	O	1.868227	0.411666	1.144307
O21	O	1.295787	-0.295198	0.440493
O22	O	1.545787	-0.045198	0.690493
O23	O	1.795787	0.204802	0.940493
O24	O	2.045787	0.454802	1.190493
O25	O	1.164310	-0.381517	0.220891
O26	O	1.414310	-0.131517	0.470891
O27	O	1.664310	0.118483	0.720891
O28	O	1.914310	0.368483	0.970891
O29	O	1.077589	-0.181347	0.338657
O30	O	1.327589	0.068653	0.588657
O31	O	1.577589	0.318653	0.838657
O32	O	1.827589	0.568653	1.088657
O33	O	1.291597	-0.381493	0.348160
O34	O	1.541597	-0.131493	0.598160
O35	O	1.791597	0.118507	0.848160
O36	O	2.041597	0.368507	1.098160
O37	O	1.174032	-0.181328	0.435086
O38	O	1.424032	0.068672	0.685086
O39	O	1.674032	0.318672	0.935086
O40	O	1.924032	0.568672	1.185086
O41	O	1.072058	-0.295240	0.216795
O42	O	1.322058	-0.045240	0.466795
O43	O	1.572058	0.204760	0.716795
O44	O	1.822058	0.454760	0.966795
O45	O	0.944833	-0.295199	0.344035
O46	O	1.194833	-0.045199	0.594035
O47	O	1.444833	0.204801	0.844035
O48	O	1.694833	0.454801	1.094035
O49	O	1.067976	-0.381422	0.571808
O50	O	1.317976	-0.131422	0.821808
O51	O	1.567976	0.118578	1.071808
O52	O	1.817976	0.368578	1.321808
O53	O	0.940690	-0.381446	0.444539
O54	O	1.190690	-0.131446	0.694539
O55	O	1.440690	0.118554	0.944539
O56	O	1.690690	0.368554	1.194539
O57	O	1.168563	-0.295157	0.567733
O58	O	1.418563	-0.045157	0.817733
O59	O	1.668563	0.204843	1.067733
O60	O	1.918563	0.454843	1.317733
O61	O	1.158841	-0.495346	0.353538
O62	O	1.408841	-0.245346	0.603538
O63	O	1.658841	0.004654	0.853538
O64	O	1.908841	0.254654	1.103538
O65	O	1.062445	-0.495315	0.449946
O66	O	1.312445	-0.245315	0.699946
O67	O	1.562445	0.004685	0.949946
O68	O	1.812445	0.254685	1.199946
C69	C	0.914279	-0.338321	0.394284
C70	C	1.164279	-0.088321	0.644284
C71	C	1.414279	0.161679	0.894284
C72	C	1.664279	0.411679	1.144284
C73	C	0.827029	-0.338333	0.394294
C74	C	1.077029	-0.088333	0.644294
C75	C	1.327029	0.161667	0.894294
C76	C	1.577029	0.411667	1.144294
C77	C	0.783899	-0.383309	0.446550
C78	C	1.033899	-0.133309	0.696550
C79	C	1.283899	0.116691	0.946550
C80	C	1.533899	0.366691	1.196550
C81	C	0.701918	-0.383311	0.446562
C82	C	0.951918	-0.133311	0.696562
C83	C	1.201918	0.116689	0.946562
C84	C	1.451918	0.366689	1.196562
C85	C	0.663069	-0.338339	0.394315
C86	C	0.913069	-0.088339	0.644315
C87	C	1.163069	0.161661	0.894315
C88	C	1.413069	0.411661	1.144315
C89	C	0.706206	-0.293358	0.342057
C90	C	0.956206	-0.043358	0.592057
C91	C	1.206206	0.206642	0.842057
C92	C	1.456206	0.456642	1.092057
C93	C	0.788185	-0.293353	0.342049
C94	C	1.038185	-0.043353	0.592049
C95	C	1.288185	0.206647	0.842049
C96	C	1.538185	0.456647	1.092049
C97	C	0.535335	-0.293371	0.342077
C98	C	0.785335	-0.043371	0.592077
C99	C	1.035335	0.206629	0.842077
C100	C	1.285335	0.456629	1.092077
C101	C	0.453350	-0.293377	0.342084
C102	C	0.703350	-0.043377	0.592084
C103	C	0.953350	0.206623	0.842084
C104	C	1.203350	0.456623	1.092084
C105	C	0.449068	-0.383329	0.446590
C106	C	0.699068	-0.133329	0.696590
C107	C	0.949068	0.116671	0.946590
C108	C	1.199068	0.366671	1.196590
C109	C	0.531047	-0.383324	0.446582
C110	C	0.781047	-0.133324	0.696582
C111	C	1.031047	0.116676	0.946582
C112	C	1.281047	0.366676	1.196582
C113	C	0.574178	-0.338344	0.394323
C114	C	0.824178	-0.088344	0.644323
C115	C	1.074178	0.161656	0.894323
C116	C	1.324178	0.411656	1.144323
C117	C	1.109434	-0.520815	0.402966
C118	C	1.359434	-0.270815	0.652966
C119	C	1.609434	-0.020815	0.902966
C120	C	1.859434	0.229185	1.152966
C121	C	1.105744	-0.598881	0.406696
C122	C	1.355744	-0.348881	0.656696
C123	C	1.605744	-0.098881	0.906696
C124	C	1.855744	0.151119	1.156696
C125	C	1.154237	-0.635549	0.358296
C126	C	1.404237	-0.385549	0.608296
C127	C	1.654237	-0.135549	0.858296
C128	C	1.904237	0.114451	1.108296
C129	C	1.150772	-0.708900	0.361809
C130	C	1.400772	-0.458900	0.611809
C131	C	1.650772	-0.208900	0.861809
C132	C	1.900772	0.041100	1.111809
C133	C	1.098808	-0.745582	0.413719
C134	C	1.348808	-0.495582	0.663719
C135	C	1.598808	-0.245582	0.913719
C136	C	1.848808	0.004418	1.163719
C137	C	1.050312	-0.708908	0.462125
C138	C	1.300312	-0.458908	0.712125
C139	C	1.550312	-0.208908	0.962125
C140	C	1.800312	0.041092	1.212125
C141	C	1.053782	-0.635558	0.458615
C142	C	1.303782	-0.385558	0.708615
C143	C	1.553782	-0.135558	0.958615
C144	C	1.803782	0.114442	1.208615
C145	C	1.085821	-0.967052	0.426830
C146	C	1.335821	-0.717052	0.676830
C147	C	1.585821	-0.467052	0.926830
C148	C	1.835821	-0.217052	1.176830
C149	C	1.082353	-1.040407	0.430334
C150	C	1.332353	-0.790407	0.680334
C151	C	1.582353	-0.540407	0.930334
C152	C	1.832353	-0.290407	1.180334
C153	C	1.182814	-1.040393	0.330019
C154	C	1.432814	-0.790393	0.580019
C155	C	1.682814	-0.540393	0.830019
C156	C	1.932814	-0.290393	1.080019
C157	C	1.186276	-0.967042	0.326511
C158	C	1.436276	-0.717042	0.576511
C159	C	1.686276	-0.467042	0.826511
C160	C	1.936276	-0.217042	1.076511
C161	C	1.137783	-0.930375	0.374919
C162	C	1.387783	-0.680375	0.624919
C163	C	1.637783	-0.430375	0.874919
C164	C	1.887783	-0.180375	1.124919
C165	C	1.095262	-0.820559	0.417310
C166	C	1.345262	-0.570559	0.667310
C167	C	1.595262	-0.320559	0.917310
C168	C	1.845262	-0.070559	1.167310
C169	C	1.141333	-0.855399	0.371332
C170	C	1.391333	-0.605399	0.621332
C171	C	1.641333	-0.355399	0.871332
C172	C	1.891333	-0.105399	1.121332
C173	C	1.322970	-0.338347	0.394329
C174	C	1.572970	-0.088347	0.644329
C175	C	1.822970	0.161653	0.894329
C176	C	2.072970	0.411653	1.144329
C177	C	1.410220	-0.338353	0.394339
C178	C	1.660220	-0.088353	0.644339
C179	C	1.910220	0.161647	0.894339
C180	C	2.160220	0.411647	1.144339
C181	C	1.118277	-0.338282	0.599049
C182	C	1.368277	-0.088282	0.849049
C183	C	1.618277	0.161718	1.099049
C184	C	1.868277	0.411718	1.349049
C185	C	1.118298	-0.338260	0.686297
C186	C	1.368298	-0.088260	0.936297
C187	C	1.618298	0.161740	1.186297
C188	C	1.868298	0.411740	1.436297
C189	C	1.127075	-0.155141	0.385631
C190	C	1.377075	0.094859	0.635631
C191	C	1.627075	0.344859	0.885631
C192	C	1.877075	0.594859	1.135631
C193	C	1.130846	-0.077075	0.381934
C194	C	1.380846	0.172925	0.631934
C195	C	1.630846	0.422925	0.881934
C196	C	1.880846	0.672925	1.131934
C197	C	1.118224	-0.338335	0.190359
C198	C	1.368224	-0.088335	0.440359
C199	C	1.618224	0.161665	0.690359
C200	C	1.868224	0.411665	0.940359
C201	C	1.118365	-0.338159	0.103101
C202	C	1.368365	-0.088159	0.353101
C203	C	1.618365	0.161841	0.603101
C204	C	1.868365	0.411841	0.853101
C205	C	1.170675	-0.293338	0.725167
C206	C	1.420675	-0.043338	0.975167
C207	C	1.670675	0.206662	1.225167
C208	C	1.920675	0.456662	1.475167
C209	C	1.170686	-0.293315	0.807146
C210	C	1.420686	-0.043315	1.057146
C211	C	1.670686	0.206685	1.307146
C212	C	1.920686	0.456685	1.557146
C213	C	1.118322	-0.338217	0.850255
C214	C	1.368322	-0.088217	1.100255
C215	C	1.618322	0.161783	1.350255
C216	C	1.868322	0.411783	1.600255
C217	C	1.065939	-0.383141	0.811380
C218	C	1.315939	-0.133141	1.061380
C219	C	1.565939	0.116859	1.311380
C220	C	1.815939	0.366859	1.561380
C221	C	1.065925	-0.383160	0.729402
C222	C	1.315925	-0.133160	0.979402
C223	C	1.565925	0.116840	1.229402
C224	C	1.815925	0.366840	1.479402
C225	C	1.065973	-0.383099	0.982248
C226	C	1.315973	-0.133099	1.232248
C227	C	1.565973	0.116901	1.482248
C228	C	1.815973	0.366901	1.732248
C229	C	1.065987	-0.383081	1.064232
C230	C	1.315987	-0.133081	1.314232
C231	C	1.565987	0.116919	1.564232
C232	C	1.815987	0.366919	1.814232
C233	C	1.170733	-0.293254	1.059992
C234	C	1.420733	-0.043254	1.309992
C235	C	1.670733	0.206746	1.559992
C236	C	1.920733	0.456746	1.809992
C237	C	1.170720	-0.293273	0.978014
C238	C	1.420720	-0.043273	1.228014
C239	C	1.670720	0.206727	1.478014
C240	C	1.920720	0.456727	1.728014
C241	C	1.118337	-0.338198	0.939145
C242	C	1.368337	-0.088198	1.189145
C243	C	1.618337	0.161802	1.439145
C244	C	1.868337	0.411802	1.689145
H245	H	0.823301	-0.256725	0.299501
H246	H	1.073301	-0.006725	0.549501
H247	H	1.323301	0.243275	0.799501
H248	H	1.573301	0.493275	1.049501
H249	H	0.815523	-0.419933	0.489093
H250	H	1.065523	-0.169933	0.739093
H251	H	1.315523	0.080067	0.989093
H252	H	1.565523	0.330067	1.239093
H253	H	0.562675	-0.419948	0.489122
H254	H	0.812675	-0.169948	0.739122
H255	H	1.062675	0.080052	0.989122
H256	H	1.312675	0.330052	1.239122
H257	H	0.413947	-0.419952	0.489143
H258	H	0.663947	-0.169952	0.739143
H259	H	0.913947	0.080048	0.989143
H260	H	1.163947	0.330048	1.239143
H261	H	1.213339	-0.256737	0.838790
H262	H	1.463339	-0.006737	1.088790
H263	H	1.713339	0.243263	1.338790
H264	H	1.963339	0.493263	1.588790
H265	H	0.421722	-0.256748	0.299549
H266	H	0.671722	-0.006748	0.549549
H267	H	0.921722	0.243252	0.799549
H268	H	1.171722	0.493252	1.049549
H269	H	1.014295	-0.605704	0.498029
H270	H	1.264295	-0.355704	0.748029
H271	H	1.514295	-0.105704	0.998029
H272	H	1.764295	0.144296	1.248029
H273	H	1.183645	-0.825531	0.329069
H274	H	1.433645	-0.575531	0.579069
H275	H	1.683645	-0.325531	0.829069
H276	H	1.933645	-0.075531	1.079069
H277	H	0.570450	-0.256737	0.299529
H278	H	0.820450	-0.006737	0.549529
H279	H	1.070450	0.243263	0.799529
H280	H	1.320450	0.493263	1.049529
H281	H	1.213363	-0.256713	0.942917
H282	H	1.463363	-0.006713	1.192917
H283	H	1.713363	0.243287	1.442917
H284	H	1.963363	0.493287	1.692917
H285	H	1.023301	-0.419699	0.846485
H286	H	1.273301	-0.169699	1.096485
H287	H	1.523301	0.080301	1.346485
H288	H	1.773301	0.330301	1.596485
H289	H	0.674569	-0.256738	0.299520
H290	H	0.924569	-0.006738	0.549520
H291	H	1.174569	0.243262	0.799520
H292	H	1.424569	0.493262	1.049520
H293	H	0.666805	-0.419935	0.489113
H294	H	0.916805	-0.169935	0.739113
H295	H	1.166805	0.080065	0.989113
H296	H	1.416805	0.330065	1.239113
H297	H	1.052952	-0.850433	0.459574
H298	H	1.302952	-0.600433	0.709574
H299	H	1.552952	-0.350433	0.959574
H300	H	1.802952	-0.100433	1.209574
H301	H	1.196548	-0.605687	0.316022
H302	H	1.446548	-0.355687	0.566022
H303	H	1.696548	-0.105687	0.816022
H304	H	1.946548	0.144313	1.066022
H305	H	1.190260	-0.738752	0.322396
H306	H	1.440260	-0.488752	0.572396
H307	H	1.690260	-0.238752	0.822396
H308	H	1.940260	0.011248	1.072396
H309	H	1.023306	-0.419670	0.950603
H310	H	1.273306	-0.169670	1.200603
H311	H	1.523306	0.080330	1.450603
H312	H	1.773306	0.330330	1.700603
H313	H	1.228589	-0.937177	0.284241
H314	H	1.478589	-0.687177	0.534241
H315	H	1.728589	-0.437177	0.784241
H316	H	1.978589	-0.187177	1.034241
H317	H	1.040047	-1.070271	0.472619
H318	H	1.290047	-0.820271	0.722619
H319	H	1.540047	-0.570271	0.972619
H320	H	1.790047	-0.320271	1.222619
H321	H	1.222295	-1.070255	0.290609
H322	H	1.472295	-0.820255	0.540609
H323	H	1.722295	-0.570255	0.790609
H324	H	1.972295	-0.320255	1.040609
H325	H	1.213384	-0.256673	1.091644
H326	H	1.463384	-0.006673	1.341644
H327	H	1.713384	0.243327	1.591644
H328	H	1.963384	0.493327	1.841644
H329	H	1.023267	-0.419733	0.697755
H330	H	1.273267	-0.169733	0.947755
H331	H	1.523267	0.080267	1.197755
H332	H	1.773267	0.330267	1.447755
H333	H	1.046335	-0.937203	0.466244
H334	H	1.296335	-0.687203	0.716244
H335	H	1.546335	-0.437203	0.966244
H336	H	1.796335	-0.187203	1.216244
H337	H	1.008005	-0.738781	0.504395
H338	H	1.258005	-0.488781	0.754395
H339	H	1.508005	-0.238781	1.004395
H340	H	1.758005	0.011219	1.254395
H341	H	1.213318	-0.256776	0.690074
H342	H	1.463318	-0.006776	0.940074
H343	H	1.713318	0.243224	1.190074
H344	H	1.963318	0.493224	1.440074
H345	H	1.023346	-0.419643	1.099329
H346	H	1.273346	-0.169643	1.349329
H347	H	1.523346	0.080357	1.599329
H348	H	1.773346	0.330357	1.849329
