data_functionalizedCrystal
_audit_creation_method	'MofGen! by Chris Wilmer'
_symmetry_space_group_name_H-M	'P1'
_symmetry_Int_Tables_number	1
_symmetry_cell_setting	triclinic
loop_
_symmetry_equiv_pos_as_xyz
  x,y,z
_cell_length_a	15.296720
_cell_length_b	17.077404
_cell_length_c	17.077402
_cell_angle_alpha	90.023108
_cell_angle_beta	99.642824
_cell_angle_gamma	99.661334
loop_
_atom_site_label
_atom_site_type_symbol
_atom_site_fract_x
_atom_site_fract_y
_atom_site_fract_z
Zn1	Zn	-0.510054	1.123199	-0.389293
Zn2	Zn	-0.359200	1.145837	-0.497857
Zn3	Zn	-0.359220	1.014659	-0.366612
Zn4	Zn	-0.510002	0.991906	-0.520514
O5	O	-0.434619	1.068900	-0.443569
O6	O	-0.490056	1.236047	-0.403705
O7	O	-0.232967	1.147432	-0.461473
O8	O	-0.379258	1.029104	-0.259779
O9	O	-0.379225	1.252679	-0.483466
O10	O	-0.490075	1.108849	-0.276442
O11	O	-0.232981	1.051056	-0.365048
O12	O	-0.379207	0.901796	-0.387018
O13	O	-0.636244	0.990327	-0.522081
O14	O	-0.489986	0.885080	-0.500088
O15	O	-0.636282	1.086787	-0.425674
O16	O	-0.379174	1.125370	-0.610705
O17	O	-0.489967	1.012278	-0.627351
C18	C	-0.434594	0.864956	-0.443551
C19	C	-0.434605	0.777705	-0.443566
C20	C	-0.669910	1.033494	-0.478935
C21	C	-0.770177	1.018405	-0.494006
C22	C	-0.492195	0.728045	-0.502503
C23	C	-0.492209	0.646062	-0.502507
C24	C	-0.434628	0.613742	-0.443576
C25	C	-0.377036	0.663407	-0.384632
C26	C	-0.377026	0.745388	-0.384626
C27	C	-0.377057	0.492534	-0.384651
C28	C	-0.377065	0.410548	-0.384658
C29	C	-0.492240	0.393209	-0.502532
C30	C	-0.492231	0.475189	-0.502526
C31	C	-0.434637	0.524849	-0.443583
C32	C	-1.052893	1.176767	-0.335718
C33	C	-0.958687	1.190948	-0.321560
C34	C	-0.911555	1.147814	-0.364670
C35	C	-0.958638	1.090496	-0.421941
C36	C	-1.052853	1.076318	-0.436105
C37	C	-0.911515	1.047364	-0.465057
C38	C	-0.958598	0.990046	-0.522329
C39	C	-1.052804	0.975870	-0.536490
C40	C	-1.099936	1.019005	-0.493380
C41	C	-0.817300	1.061542	-0.450893
C42	C	-0.817260	0.961093	-0.551280
C43	C	-0.911466	0.946912	-0.565439
C44	C	-0.200243	1.104214	-0.408284
C45	C	-0.099976	1.119454	-0.392992
C46	C	-0.434583	1.068830	-0.647512
C47	C	-0.434597	1.068867	-0.734764
C48	C	-0.434644	1.273641	-0.443588
C49	C	-0.434655	1.360889	-0.443596
C50	C	-0.376969	1.127796	-0.767069
C51	C	-0.376992	1.127831	-0.849053
C52	C	-0.434640	1.068933	-0.898729
C53	C	-0.492274	1.010001	-0.866419
C54	C	-0.492255	1.009970	-0.784437
C55	C	-0.492308	1.010068	-1.037294
C56	C	-0.492326	1.010098	-1.119281
C57	C	-0.377046	1.127929	-1.101910
C58	C	-0.377027	1.127898	-1.019928
C59	C	-0.434660	1.068965	-0.987623
C60	C	-0.434675	1.068989	-0.238833
C61	C	-0.434698	1.069027	-0.151587
H62	H	-0.539104	0.605632	-0.550501
C63	C	-0.765421	0.913639	-0.598702
C64	C	-0.778337	0.918055	-0.689882
C65	C	-0.726490	0.870607	-0.737300
C66	C	-0.661728	0.818744	-0.693538
C67	C	-0.648809	0.814325	-0.602353
C68	C	-0.700656	0.861773	-0.554935
H69	H	-0.826281	0.956449	-0.722282
H70	H	-0.736054	0.873878	-0.804802
H71	H	-0.623348	0.783620	-0.728640
H72	H	-0.600865	0.775931	-0.569953
H73	H	-0.691092	0.858502	-0.487433
C74	C	-0.313556	1.192586	-0.712429
C75	C	-0.211001	1.201694	-0.708332
C76	C	-0.147588	1.266487	-0.653694
C77	C	-0.186730	1.322173	-0.603152
C78	C	-0.289290	1.313067	-0.607247
C79	C	-0.352703	1.248273	-0.661885
H80	H	-0.182021	1.160470	-0.745748
H81	H	-0.071666	1.273228	-0.650663
H82	H	-0.139788	1.370137	-0.562706
H83	H	-0.318270	1.354290	-0.569832
H84	H	-0.428625	1.241533	-0.664916
H85	H	-1.091136	0.929205	-0.583131
H86	H	-0.539081	0.754354	-0.550494
H87	H	-0.330121	1.175917	-1.128217
C88	C	-0.555704	0.945239	-1.001758
C89	C	-0.626554	0.968513	-0.955994
C90	C	-0.689943	0.903683	-0.920458
C91	C	-0.682483	0.815579	-0.930686
C92	C	-0.611630	0.792301	-0.976452
C93	C	-0.548241	0.857132	-1.011988
H94	H	-0.632079	1.033736	-0.948421
H95	H	-0.742393	0.920915	-0.886579
H96	H	-0.729408	0.767588	-0.904380
H97	H	-0.606105	0.727078	-0.984025
H98	H	-0.495791	0.839900	-1.045867
H99	H	-0.539113	0.501502	-0.550516
C100	C	-1.104738	1.224211	-0.288303
C101	C	-1.208365	1.208615	-0.303885
C102	C	-1.260211	1.256064	-0.256467
C103	C	-1.208429	1.319108	-0.193466
C104	C	-1.104796	1.334706	-0.177881
C105	C	-1.052951	1.287258	-0.225300
H106	H	-1.246702	1.161944	-0.350524
H107	H	-1.336927	1.244516	-0.268004
H108	H	-1.246809	1.354232	-0.158364
H109	H	-1.066459	1.381378	-0.131242
H110	H	-0.976235	1.298805	-0.213763
C111	C	-0.313600	1.192650	-0.884595
C112	C	-0.352768	1.248382	-0.946772
C113	C	-0.289375	1.313204	-0.982315
C114	C	-0.186814	1.322293	-0.955681
C115	C	-0.147641	1.266559	-0.893500
C116	C	-0.211034	1.201737	-0.857957
H117	H	-0.428694	1.241656	-0.966491
H118	H	-0.318374	1.354462	-1.028345
H119	H	-0.139887	1.370278	-0.981992
H120	H	-0.071715	1.273286	-0.873781
H121	H	-0.182035	1.160479	-0.811927
H122	H	-0.330188	0.384234	-0.336663
H123	H	-0.330156	0.637085	-0.336647
C124	C	-0.555742	0.945314	-1.173928
C125	C	-0.619145	0.880496	-1.138399
C126	C	-0.682561	0.815711	-1.193045
C127	C	-0.682575	0.815745	-1.283221
C128	C	-0.619170	0.880566	-1.318755
C129	C	-0.555754	0.945351	-1.264108
H130	H	-0.619137	0.880468	-1.071641
H131	H	-0.729497	0.767726	-1.166740
H132	H	-0.729519	0.767788	-1.323674
H133	H	-0.619178	0.880593	-1.385512
H134	H	-0.508817	0.993336	-1.290413
H135	H	-0.539138	0.352771	-0.550524
C136	C	-0.963259	0.883872	-0.628446
C137	C	-0.950302	0.796587	-0.620092
C138	C	-1.002092	0.733551	-0.683103
C139	C	-1.066840	0.757799	-0.754467
C140	C	-1.079800	0.845088	-0.762824
C141	C	-1.028009	0.908125	-0.699814
H142	H	-0.902369	0.778634	-0.567262
H143	H	-0.992498	0.668933	-0.676916
H144	H	-1.105179	0.711135	-0.801111
H145	H	-1.127733	0.863042	-0.815655
H146	H	-1.037603	0.972742	-0.706001
H147	H	-0.330135	0.785820	-0.336629
H148	H	-0.539183	0.961985	-0.758135
H149	H	-1.176647	1.007462	-0.504905
H150	H	-0.330166	0.532965	-0.336648
H151	H	-0.778974	1.108210	-0.404261
H152	H	-0.834848	1.159363	-0.353138
H153	H	-0.330082	1.175854	-0.979481
H154	H	-0.539215	0.962048	-0.906872
H155	H	-0.920359	1.237618	-0.274931
