data_functionalizedCrystal
_audit_creation_method	'MofGen! by Chris Wilmer'
_symmetry_space_group_name_H-M	'P1'
_symmetry_Int_Tables_number	1
_symmetry_cell_setting	triclinic
loop_
_symmetry_equiv_pos_as_xyz
  x,y,z
_cell_length_a	16.974800
_cell_length_b	19.188924
_cell_length_c	16.053802
_cell_angle_alpha	92.554672
_cell_angle_beta	91.074188
_cell_angle_gamma	83.266364
loop_
_atom_site_label
_atom_site_type_symbol
_atom_site_fract_x
_atom_site_fract_y
_atom_site_fract_z
O1	O	1.048768	0.089000	0.001457
O2	O	1.548768	0.589000	0.501457
O3	O	0.819269	0.099688	-0.014058
O4	O	1.319269	0.599688	0.485942
O5	O	0.940644	-0.007281	-0.005843
O6	O	1.440644	0.492719	0.494157
O7	O	0.927394	0.195970	-0.006759
O8	O	1.427394	0.695970	0.493241
O9	O	0.933963	-0.001417	0.132564
O10	O	1.433963	0.498583	0.632564
O11	O	0.812589	0.105552	0.124349
O12	O	1.312589	0.605552	0.624349
O13	O	1.042087	0.094864	0.139863
O14	O	1.542087	0.594864	0.639863
Zn15	Zn	0.926277	0.101139	0.154081
Zn16	Zn	1.426277	0.601139	0.654081
Zn17	Zn	0.935080	0.093413	-0.028276
Zn18	Zn	1.435080	0.593413	0.471724
O19	O	0.920713	0.201833	0.131648
O20	O	1.420713	0.701833	0.631648
C21	C	0.786568	0.102106	0.053160
C22	C	1.286568	0.602106	0.553160
C23	C	0.699081	0.100567	0.047246
C24	C	1.199081	0.600567	0.547246
C25	C	0.654342	0.103038	0.119915
C26	C	1.154342	0.603038	0.619915
C27	C	0.572140	0.101580	0.114361
C28	C	1.072140	0.601580	0.614361
C29	C	0.534677	0.097656	0.036137
C30	C	1.034677	0.597656	0.536137
C31	C	0.579422	0.095183	-0.036538
C32	C	1.079422	0.595183	0.463462
C33	C	0.661624	0.096635	-0.030982
C34	C	1.161624	0.596635	0.469018
C35	C	0.289223	0.092964	0.011432
C36	C	0.789223	0.592964	0.511432
C37	C	0.207015	0.091514	0.005882
C38	C	0.707015	0.591514	0.505882
C39	C	0.199739	0.097910	0.156782
C40	C	0.699739	0.597910	0.656782
C41	C	0.281941	0.099367	0.162330
C42	C	0.781941	0.599367	0.662330
C43	C	0.326680	0.096889	0.089656
C44	C	0.826680	0.596889	0.589656
N45	N	0.450653	0.096169	0.030457
N46	N	0.950653	0.596169	0.530457
N47	N	0.410703	0.098372	0.095336
N48	N	0.910703	0.598372	0.595336
C49	C	0.936875	-0.030362	0.063332
C50	C	1.436875	0.469638	0.563332
C51	C	0.935590	-0.107873	0.063247
C52	C	1.435590	0.392127	0.563247
C53	C	0.938632	-0.147471	-0.012239
C54	C	1.438632	0.352529	0.487761
C55	C	0.937413	-0.220299	-0.012328
C56	C	1.437413	0.279701	0.487672
C57	C	0.933168	-0.253529	0.063075
C58	C	1.433168	0.246471	0.563075
C59	C	0.930122	-0.213921	0.138571
C60	C	1.430122	0.286079	0.638571
C61	C	0.931332	-0.141093	0.138657
C62	C	1.431332	0.358907	0.638657
N63	N	0.973406	-0.370617	0.122130
N64	N	1.473406	0.129383	0.622130
N65	N	0.972258	-0.439801	0.122043
N66	N	1.472258	0.060199	0.622043
C67	C	0.929518	-0.472955	0.062821
C68	C	1.429518	0.027045	0.562821
N69	N	0.887980	-0.434313	0.003676
N70	N	1.387980	0.065687	0.503676
N71	N	0.889132	-0.365123	0.003761
N72	N	1.389132	0.134877	0.503761
C73	C	0.931854	-0.332498	0.062990
C74	C	1.431854	0.167502	0.562990
C75	C	0.931237	-0.591522	-0.012767
C76	C	1.431237	-0.091522	0.487233
C77	C	0.930013	-0.664351	-0.012853
C78	C	1.430013	-0.164351	0.487147
C79	C	0.922730	-0.657972	0.138048
C80	C	1.422730	-0.157972	0.638048
C81	C	0.923946	-0.585144	0.138132
C82	C	1.423946	-0.085144	0.638132
C83	C	0.928203	-0.551923	0.062722
C84	C	1.428203	-0.051923	0.562722
C85	C	1.074789	0.092446	0.072643
C86	C	1.574789	0.592446	0.572643
C87	C	1.162277	0.093985	0.078551
C88	C	1.662277	0.593985	0.578551
C89	C	0.924482	0.224914	0.062471
C90	C	1.424482	0.724914	0.562471
C91	C	0.925767	0.302425	0.062550
C92	C	1.425767	0.802425	0.562550
N93	N	0.920276	0.106411	0.278535
N94	N	1.420276	0.606411	0.778535
N95	N	0.941087	0.088136	-0.152730
N96	N	1.441087	0.588136	0.347270
C97	C	0.971940	0.060912	0.325726
C98	C	1.471940	0.560912	0.825726
C99	C	0.967749	0.064606	0.412849
C100	C	1.467749	0.564606	0.912849
C101	C	0.911898	0.113804	0.452780
C102	C	1.411898	0.613804	0.952780
C103	C	0.860228	0.159305	0.405583
C104	C	1.360228	0.659305	0.905583
C105	C	0.864416	0.155607	0.318461
C106	C	1.364416	0.655607	0.818461
C107	C	0.893606	0.129939	0.712952
C108	C	1.393606	0.629939	1.212952
C109	C	0.889423	0.133635	0.800080
C110	C	1.389423	0.633635	1.300080
C111	C	0.996944	0.038935	0.807340
C112	C	1.496944	0.538935	1.307340
C113	C	1.001129	0.035244	0.720216
C114	C	1.501129	0.535244	1.220216
C115	C	0.949457	0.080742	0.673027
C116	C	1.449457	0.580742	1.173027
N117	N	0.907614	0.117583	0.541834
N118	N	1.407614	0.617583	1.041834
N119	N	0.953738	0.076960	0.583974
N120	N	1.453738	0.576960	1.083974
H121	H	0.942096	-0.120427	-0.073644
H122	H	1.442096	0.379573	0.426356
O123	O	0.318309	0.103052	0.238340
O124	O	0.818309	0.603052	0.738340
C125	C	0.305131	0.044238	0.283515
C126	C	0.805131	0.544238	0.783515
H127	H	0.291056	-0.000258	0.238279
H128	H	0.791056	0.499742	0.738279
H129	H	0.360605	0.026367	0.321604
H130	H	0.860605	0.526367	0.821604
H131	H	0.253077	0.059047	0.327190
H132	H	0.753077	0.559047	0.827190
O133	O	0.690609	0.106819	0.195970
O134	O	1.190609	0.606819	0.695970
C135	C	0.633488	0.108703	0.258917
C136	C	1.133488	0.608703	0.758917
H137	H	0.579301	0.084648	0.233064
H138	H	1.079301	0.584648	0.733064
H139	H	0.659815	0.077490	0.313639
H140	H	1.159815	0.577490	0.813639
H141	H	0.615159	0.165493	0.280950
H142	H	1.115159	0.665493	0.780950
O143	O	0.528672	0.103851	0.184933
O144	O	1.028672	0.603851	0.684933
C145	C	0.490040	0.042791	0.186851
C146	C	0.990040	0.542791	0.686851
H147	H	0.523267	-0.000806	0.146139
H148	H	1.023267	0.499194	0.646139
H149	H	0.488969	0.025319	0.253727
H150	H	0.988969	0.525319	0.753727
H151	H	0.426649	0.054485	0.162241
H152	H	0.926649	0.554485	0.662241
O153	O	0.928491	-0.102563	0.211943
O154	O	1.428491	0.397437	0.711943
C155	C	0.997227	-0.068046	0.221134
C156	C	1.497227	0.431954	0.721134
H157	H	1.023325	-0.062500	0.157179
H158	H	1.523325	0.437500	0.657179
H159	H	0.981192	-0.013733	0.252088
H160	H	1.481192	0.486267	0.752088
H161	H	1.042746	-0.099991	0.261565
H162	H	1.542746	0.400009	0.761565
H163	H	1.017423	0.020853	0.293220
H164	H	1.517423	0.520853	0.793220
H165	H	0.176516	0.088321	-0.057820
H166	H	0.676516	0.588321	0.442180
O167	O	1.047207	-0.005300	0.853056
O168	O	1.547207	0.494700	1.353056
C169	C	1.097382	-0.049531	0.799128
C170	C	1.597382	0.450469	1.299128
H171	H	1.101163	-0.023536	0.737074
H172	H	1.601163	0.476464	1.237074
H173	H	1.159147	-0.058976	0.828546
H174	H	1.659147	0.441024	1.328546
H175	H	1.072412	-0.101847	0.788157
H176	H	1.572412	0.398153	1.288157
H177	H	0.926663	-0.240981	0.199965
H178	H	1.426663	0.259019	0.699965
O179	O	0.918569	-0.690127	0.211368
O180	O	1.418569	-0.190127	0.711368
C181	C	0.916170	-0.639558	0.278017
C182	C	1.416170	-0.139558	0.778017
H183	H	0.893157	-0.585733	0.254273
H184	H	1.393157	-0.085733	0.754273
H185	H	0.875017	-0.654006	0.328174
H186	H	1.375017	-0.154006	0.828174
H187	H	0.978394	-0.638044	0.305499
H188	H	1.478394	-0.138044	0.805499
H189	H	0.934699	-0.564472	-0.074171
H190	H	1.434699	-0.064472	0.425829
O191	O	0.806007	0.207186	0.444277
O192	O	1.306007	0.707186	0.944277
C193	C	0.819605	0.275430	0.423832
C194	C	1.319605	0.775430	0.923832
H195	H	0.853027	0.272731	0.362623
H196	H	1.353027	0.772731	0.862623
H197	H	0.760386	0.309544	0.416840
H198	H	1.260386	0.809544	0.916840
H199	H	0.856398	0.299200	0.475497
H200	H	1.356398	0.799200	0.975497
O201	O	1.055042	-0.012767	0.681279
O202	O	1.555042	0.487233	1.181279
C203	C	1.047475	-0.006436	0.594252
C204	C	1.547475	0.493564	1.094252
H205	H	1.018846	0.048622	0.580251
H206	H	1.518846	0.548622	1.080251
H207	H	1.108671	-0.015982	0.564971
H208	H	1.608671	0.484018	1.064971
H209	H	1.008791	-0.046829	0.567162
H210	H	1.508791	0.453171	1.067162
O211	O	0.156265	0.100184	0.227350
O212	O	0.656265	0.600184	0.727350
C213	C	0.117626	0.039129	0.229265
C214	C	0.617626	0.539129	0.729265
H215	H	0.150852	-0.004471	0.188557
H216	H	0.650852	0.495529	0.688557
H217	H	0.116544	0.021659	0.296140
H218	H	0.616544	0.521659	0.796140
H219	H	0.054237	0.050828	0.204647
H220	H	0.554237	0.550828	0.704647
O221	O	0.835268	0.181498	0.838910
O222	O	1.335268	0.681498	1.338910
C223	C	0.874895	0.226806	0.892139
C224	C	1.374895	0.726806	1.392139
H225	H	0.938303	0.227022	0.870068
H226	H	1.438303	0.727022	1.370068
H227	H	0.842491	0.282265	0.890934
H228	H	1.342491	0.782265	1.390934
H229	H	0.875933	0.207769	0.958457
H230	H	1.375933	0.707769	1.458457
O231	O	0.940381	-0.258671	-0.085732
O232	O	1.440381	0.241329	0.414268
C233	C	0.944358	-0.213728	-0.152273
C234	C	1.444358	0.286272	0.347727
H235	H	0.969125	-0.163732	-0.128420
H236	H	1.469125	0.336268	0.371580
H237	H	0.984784	-0.241373	-0.202496
H238	H	1.484784	0.258627	0.297504
H239	H	0.882385	-0.199739	-0.179711
H240	H	1.382385	0.300261	0.320289
O241	O	0.843381	0.174211	0.667246
O242	O	1.343381	0.674211	1.167246
C243	C	0.793179	0.218415	0.721175
C244	C	1.293179	0.718415	1.221175
H245	H	0.822508	0.221915	0.785452
H246	H	1.322508	0.721915	1.285452
H247	H	0.782167	0.273078	0.695168
H248	H	1.282167	0.773078	1.195168
H249	H	0.734269	0.196000	0.726512
H250	H	1.234269	0.696000	1.226512
H251	H	1.009817	0.027557	0.451271
H252	H	1.509817	0.527557	0.951271
O253	O	0.332552	0.090585	-0.059244
O254	O	0.832552	0.590585	0.440756
C255	C	0.281859	0.086794	-0.129474
C256	C	0.781859	0.586794	0.370526
H257	H	0.218857	0.108785	-0.111540
H258	H	0.718857	0.608785	0.388460
H259	H	0.303031	0.118839	-0.180992
H260	H	0.803031	0.618839	0.319008
H261	H	0.282696	0.029693	-0.152680
H262	H	0.782696	0.529693	0.347320
O263	O	0.814268	0.199734	0.272490
O264	O	1.314268	0.699734	0.772490
C265	C	0.829952	0.185932	0.187034
C266	C	1.329952	0.685932	0.687034
H267	H	0.860176	0.129987	0.177146
H268	H	1.360176	0.629987	0.677146
H269	H	0.771833	0.192151	0.149899
H270	H	1.271833	0.692151	0.649899
H271	H	0.870527	0.224495	0.164952
H272	H	1.370527	0.724495	0.664952
O273	O	0.542904	0.091402	-0.112459
O274	O	1.042904	0.591402	0.387541
C275	C	0.460759	0.090634	-0.101782
C276	C	0.960759	0.590634	0.398218
H277	H	0.443062	0.115268	-0.037928
H278	H	0.943062	0.615268	0.462072
H279	H	0.426721	0.121907	-0.152429
H280	H	0.926721	0.621907	0.347571
H281	H	0.446070	0.034109	-0.106356
H282	H	0.946070	0.534109	0.393644
H283	H	0.698049	0.094624	-0.090157
H284	H	1.198049	0.594624	0.409843
H285	H	0.932487	-0.696590	-0.074326
H286	H	1.432487	-0.196590	0.425674
H287	H	0.921476	-0.552903	0.199601
H288	H	1.421476	-0.052903	0.699601
