data_functionalizedCrystal
_audit_creation_method	'MofGen! by Chris Wilmer'
_symmetry_space_group_name_H-M	'P1'
_symmetry_Int_Tables_number	1
_symmetry_cell_setting	triclinic
loop_
_symmetry_equiv_pos_as_xyz
  x,y,z
_cell_length_a	12.759401
_cell_length_b	19.120786
_cell_length_c	12.759393
_cell_angle_alpha	87.522629
_cell_angle_beta	89.981712
_cell_angle_gamma	92.465139
loop_
_atom_site_label
_atom_site_type_symbol
_atom_site_fract_x
_atom_site_fract_y
_atom_site_fract_z
Zn1	Zn	1.588324	-0.279590	-0.576122
Zn2	Zn	1.580692	-0.397068	-0.392928
Zn3	Zn	1.412627	-0.279627	-0.400457
Zn4	Zn	1.405088	-0.397013	-0.568570
O5	O	1.496683	-0.338324	-0.484519
O6	O	1.734332	-0.295182	-0.551831
O7	O	1.558359	-0.381527	-0.246903
O8	O	1.442282	-0.181331	-0.430071
O9	O	1.728725	-0.381492	-0.417239
O10	O	1.571366	-0.181304	-0.559131
O11	O	1.434882	-0.295244	-0.252434
O12	O	1.264606	-0.295191	-0.422747
O13	O	1.429434	-0.381398	-0.716596
O14	O	1.259068	-0.381433	-0.546260
O15	O	1.564056	-0.295128	-0.722144
O16	O	1.551049	-0.495351	-0.409916
O17	O	1.422034	-0.495311	-0.538959
C18	C	1.223716	-0.338311	-0.484502
C19	C	1.106939	-0.338322	-0.484518
C20	C	1.484923	-0.520817	-0.472824
C21	C	1.479989	-0.598888	-0.467856
C22	C	0.945208	-0.293369	-0.420340
C23	C	1.054933	-0.293356	-0.420328
C24	C	1.049214	-0.383299	-0.548731
C25	C	0.939492	-0.383308	-0.548747
C26	C	0.948510	-0.241444	-0.346204
C27	C	1.058235	-0.241430	-0.346192
C28	C	1.544828	-0.635491	-0.532772
C29	C	1.540187	-0.708847	-0.528105
C30	C	1.470712	-0.745598	-0.458517
C31	C	1.405866	-0.708990	-0.393599
C32	C	1.410502	-0.635635	-0.398271
C33	C	1.453349	-0.967085	-0.441050
C34	C	1.448720	-1.040445	-0.436381
C35	C	1.583040	-1.040297	-0.570889
C36	C	1.587675	-0.966941	-0.575551
C37	C	1.522825	-0.930339	-0.510636
C38	C	1.465969	-0.820580	-0.453744
C39	C	1.527563	-0.855359	-0.515416
C40	C	1.770715	-0.338339	-0.484538
C41	C	1.887491	-0.338345	-0.484546
C42	C	1.496755	-0.338253	-0.758557
C43	C	1.496786	-0.338222	-0.875336
C44	C	1.508516	-0.155120	-0.496283
C45	C	1.513559	-0.077049	-0.501296
C46	C	1.432521	-0.293287	-0.933085
C47	C	1.432554	-0.293266	-1.042810
C48	C	1.561127	-0.383118	-1.037028
C49	C	1.561088	-0.383142	-0.927305
C50	C	1.358294	-0.241409	-0.936424
C51	C	1.358327	-0.241388	-1.046149
C52	C	1.496674	-0.338345	-0.211551
C53	C	1.496859	-0.338178	-0.094785
H54	H	0.892503	-0.419926	-0.601039
H55	H	1.592994	-0.738646	-0.580958
H56	H	1.091567	-0.419906	-0.601003
C57	C	0.900792	-0.267684	-0.240043
N58	N	0.864851	-0.287447	-0.160081
H59	H	1.357703	-0.605833	-0.345412
C60	C	0.913016	-0.167981	-0.380543
N61	N	0.886281	-0.112650	-0.406410
C62	C	1.631708	-0.432621	-1.094198
N63	N	1.684819	-0.469942	-1.137255
C64	C	1.372285	-1.080870	-0.359830
N65	N	1.314717	-1.111318	-0.302174
H66	H	1.613403	-0.419744	-0.880289
C67	C	1.247084	-0.261093	-0.894930
N68	N	1.163322	-0.275921	-0.863677
C69	C	1.402157	-0.171611	-0.894930
N70	N	1.435194	-0.119038	-0.863676
C71	C	1.108718	-0.171642	-0.390192
N72	N	1.146742	-0.119078	-0.423333
C73	C	1.603986	-0.814931	-0.591958
N74	N	1.661552	-0.784473	-0.649606
H75	H	1.279782	-0.260859	-1.078929
C76	C	1.392545	-0.167893	-1.091111
N77	N	1.418321	-0.112540	-1.124975
C78	C	1.329507	-0.749418	-0.316988
N79	N	1.272018	-0.779869	-0.259256
H80	H	1.409406	-0.850511	-0.397082
C81	C	1.664122	-0.926521	-0.652084
N82	N	1.721712	-0.896076	-0.709720
H83	H	1.087044	-0.255937	-0.263853
C84	C	1.621258	-0.595071	-0.609323
N85	N	1.678825	-0.564629	-0.666986
C86	C	1.654363	-1.080566	-0.642297
N87	N	1.708082	-1.110896	-0.696088
H88	H	1.400548	-0.937290	-0.388193
