data_functionalizedCrystal
_audit_creation_method	'MofGen! by Chris Wilmer'
_symmetry_space_group_name_H-M	'P1'
_symmetry_Int_Tables_number	1
_symmetry_cell_setting	triclinic
loop_
_symmetry_equiv_pos_as_xyz
  x,y,z
_cell_length_a	6.817900
_cell_length_b	17.982959
_cell_length_c	19.453114
_cell_angle_alpha	96.125663
_cell_angle_beta	101.709288
_cell_angle_gamma	102.451857
loop_
_atom_site_label
_atom_site_type_symbol
_atom_site_fract_x
_atom_site_fract_y
_atom_site_fract_z
V1	V	-4.001683	-0.106207	-0.219294
V2	V	-3.501683	0.393793	0.280706
O3	O	-3.994949	0.004287	-0.214818
O4	O	-3.494949	0.504287	0.285182
O5	O	-3.948298	-0.209805	-0.218085
O6	O	-3.448298	0.290195	0.281915
O7	O	-3.944659	-0.104931	-0.314804
O8	O	-3.444659	0.395069	0.185196
O9	O	-3.998613	-0.101313	-0.117430
O10	O	-3.498613	0.398687	0.382570
V11	V	-4.487074	-0.092948	-0.207075
V12	V	-3.987074	0.407052	0.292925
O13	O	-4.258843	-0.135291	-0.246098
O14	O	-3.758843	0.364709	0.253902
O15	O	-4.680111	-0.063864	-0.180272
O16	O	-4.180111	0.436136	0.319728
O17	O	-4.317253	0.010650	-0.208285
O18	O	-3.817253	0.510650	0.291715
O19	O	-4.611205	-0.203442	-0.211552
O20	O	-4.111205	0.296558	0.288448
O21	O	-4.607541	-0.097842	-0.308940
O22	O	-4.107541	0.402158	0.191060
O23	O	-4.320891	-0.094224	-0.111566
O24	O	-3.820891	0.405776	0.388434
C25	C	-3.792365	-0.235049	-0.214700
C26	C	-3.292365	0.264951	0.285300
C27	C	-3.829945	-0.319745	-0.214348
C28	C	-3.329945	0.180255	0.285652
C29	C	-4.029200	-0.363428	-0.217697
C30	C	-3.529200	0.136572	0.282303
C31	C	-4.064502	-0.443009	-0.217370
C32	C	-3.564502	0.056991	0.282630
C33	C	-3.900543	-0.478904	-0.213689
C34	C	-3.400543	0.021096	0.286311
C35	C	-3.701272	-0.435215	-0.210342
C36	C	-3.201272	0.064785	0.289658
C37	C	-3.665976	-0.355636	-0.210674
C38	C	-3.165976	0.144364	0.289326
C39	C	-3.843613	-0.756146	-0.209004
C40	C	-3.343613	-0.256146	0.290996
C41	C	-3.878925	-0.835730	-0.208670
C42	C	-3.378925	-0.335730	0.291330
C43	C	-4.242139	-0.843518	-0.215700
C44	C	-3.742139	-0.343518	0.284300
C45	C	-4.206843	-0.763939	-0.216032
C46	C	-3.706843	-0.263939	0.283968
C47	C	-4.007579	-0.720258	-0.212689
C48	C	-3.507579	-0.220258	0.287311
C49	C	-3.969304	-0.633968	-0.213045
C50	C	-3.469304	-0.133968	0.286955
C51	C	-3.938812	-0.565192	-0.213328
C52	C	-3.438812	-0.065192	0.286672
C53	C	-3.787723	-0.101271	-0.338074
C54	C	-3.287723	0.398729	0.161926
C55	C	-3.822350	-0.100914	-0.416156
C56	C	-3.322350	0.399086	0.083844
C57	C	-4.020216	-0.104570	-0.456423
C58	C	-3.520216	0.395430	0.043577
C59	C	-4.052753	-0.104234	-0.529789
C60	C	-3.552753	0.395766	-0.029789
C61	C	-3.887420	-0.100258	-0.562886
C62	C	-3.387420	0.399742	-0.062886
C63	C	-3.689524	-0.096596	-0.522609
C64	C	-3.189524	0.403404	-0.022609
C65	C	-3.656989	-0.096924	-0.449244
C66	C	-3.156989	0.403076	0.050756
N67	N	-3.825741	-0.140493	-0.681788
N68	N	-3.325741	0.359507	-0.181788
N69	N	-3.856661	-0.140184	-0.751482
N70	N	-3.356661	0.359816	-0.251482
C71	C	-3.985434	-0.099267	-0.783932
C72	C	-3.485434	0.400733	-0.283932
N73	N	-4.082155	-0.058682	-0.744056
N74	N	-3.582155	0.441318	-0.244056
N75	N	-4.051239	-0.058996	-0.674356
N76	N	-3.551239	0.441004	-0.174356
C77	C	-3.922678	-0.099901	-0.642439
C78	C	-3.422678	0.400099	-0.142439
C79	C	-4.218592	-0.102559	-0.903751
C80	C	-3.718592	0.397441	-0.403751
C81	C	-4.251119	-0.102218	-0.977117
C82	C	-3.751119	0.397782	-0.477117
C83	C	-3.887888	-0.094588	-0.969938
C84	C	-3.387888	0.405412	-0.469938
C85	C	-3.855363	-0.094921	-0.896572
C86	C	-3.355363	0.405079	-0.396572
C87	C	-4.020724	-0.098910	-0.863483
C88	C	-3.520724	0.401090	-0.363483
C89	C	-4.136528	0.035890	-0.211668
C90	C	-3.636528	0.535890	0.288332
C91	C	-4.078185	0.120585	-0.212024
C92	C	-3.578185	0.620585	0.287976
C93	C	-4.141170	-0.097886	-0.088292
C94	C	-3.641170	0.402114	0.411708
C95	C	-4.085781	-0.098240	-0.010210
C96	C	-3.585781	0.401760	0.489790
H97	H	-3.681363	-0.720589	-0.206278
H98	H	-3.181363	-0.220589	0.293722
H99	H	-4.154868	-0.107815	-0.429487
H100	H	-3.654868	0.392185	0.070513
H101	H	-4.340357	-0.734717	-0.219026
H102	H	-3.840357	-0.234717	0.280974
C103	C	-3.637713	-0.090911	-0.852277
C104	C	-3.137713	0.409089	-0.352277
H105	H	-3.543906	-0.088501	-0.882496
H106	H	-3.043906	0.411499	-0.382496
H107	H	-3.594503	-0.046223	-0.816968
H108	H	-3.094503	0.453777	-0.316968
H109	H	-3.640446	-0.135547	-0.830050
H110	H	-3.140446	0.364453	-0.330050
C111	C	-4.468778	-0.106239	-1.021415
C112	C	-3.968778	0.393761	-0.521415
H113	H	-4.464472	-0.105463	-1.069847
H114	H	-3.964472	0.394537	-0.569847
H115	H	-4.561022	-0.152522	-1.017407
H116	H	-4.061022	0.347478	-0.517407
H117	H	-4.515108	-0.063198	-1.004325
H118	H	-4.015108	0.436802	-0.504325
C119	C	-3.507663	-0.092225	-0.559014
C120	C	-3.007663	0.407775	-0.059014
H121	H	-3.555382	-0.092562	-0.608477
H122	H	-3.055382	0.407438	-0.108477
H123	H	-3.404747	-0.046052	-0.538980
H124	H	-2.904747	0.453948	-0.038980
H125	H	-3.450681	-0.135377	-0.552053
H126	H	-2.950681	0.364623	-0.052053
H127	H	-4.213887	-0.107216	-0.562581
H128	H	-3.713887	0.392784	-0.062581
H129	H	-4.162716	-0.334207	-0.220687
H130	H	-3.662716	0.165793	0.279313
H131	H	-3.495857	-0.093941	-0.416457
H132	H	-2.995857	0.406059	0.083543
C133	C	-3.698567	-0.875217	-0.204622
C134	C	-3.198567	-0.375217	0.295378
H135	H	-3.748130	-0.928865	-0.204894
H136	H	-3.248130	-0.428865	0.295106
H137	H	-3.639822	-0.867690	-0.244403
H138	H	-3.139822	-0.367690	0.255597
H139	H	-3.596498	-0.853462	-0.162058
H140	H	-3.096498	-0.353462	0.337942
H141	H	-4.353238	-0.105804	-0.876809
H142	H	-3.853238	0.394196	-0.376809
C143	C	-4.283683	-0.491062	-0.221065
C144	C	-3.783683	0.008938	0.278935
H145	H	-4.281234	-0.543600	-0.220353
H146	H	-3.781234	-0.043600	0.279647
H147	H	-4.330884	-0.472520	-0.181397
H148	H	-3.830884	0.027480	0.318603
H149	H	-4.374156	-0.486724	-0.263741
H150	H	-3.874156	0.013276	0.236259
C151	C	-3.446793	-0.307584	-0.206984
C152	C	-2.946793	0.192416	0.293016
H153	H	-3.354194	-0.340356	-0.204737
H154	H	-2.854194	0.159644	0.295263
H155	H	-3.447127	-0.283486	-0.248136
H156	H	-2.947127	0.216514	0.251864
H157	H	-3.403819	-0.269270	-0.165792
H158	H	-2.903819	0.230730	0.334208
H159	H	-4.404393	-0.879093	-0.218423
H160	H	-3.904393	-0.379093	0.281577
H161	H	-3.567779	-0.464448	-0.207350
H162	H	-3.067779	0.035552	0.292650
H163	H	-3.753266	-0.091343	-0.996884
H164	H	-3.253266	0.408657	-0.496884
