data_functionalizedCrystal
_audit_creation_method	'MofGen! by Chris Wilmer'
_symmetry_space_group_name_H-M	'P1'
_symmetry_Int_Tables_number	1
_symmetry_cell_setting	triclinic
loop_
_symmetry_equiv_pos_as_xyz
  x,y,z
_cell_length_a	10.686220
_cell_length_b	21.295417
_cell_length_c	21.295420
_cell_angle_alpha	90.006945
_cell_angle_beta	85.648101
_cell_angle_gamma	94.412682
loop_
_atom_site_label
_atom_site_type_symbol
_atom_site_fract_x
_atom_site_fract_y
_atom_site_fract_z
Zn1	Zn	1.928975	-0.176818	0.282183
Zn2	Zn	2.428975	0.323182	0.782183
Zn3	Zn	1.928807	-0.282049	0.176915
Zn4	Zn	2.428807	0.217951	0.676915
Zn5	Zn	1.717973	-0.184881	0.184993
Zn6	Zn	2.217973	0.315119	0.684993
Zn7	Zn	1.717883	-0.290146	0.290208
Zn8	Zn	2.217883	0.209854	0.790208
O9	O	1.823410	-0.233473	0.233575
O10	O	2.323410	0.266527	0.733575
O11	O	2.105531	-0.184014	0.261480
O12	O	2.605531	0.315986	0.761480
O13	O	1.900807	-0.269145	0.089898
O14	O	2.400807	0.230855	0.589898
O15	O	1.746070	-0.095718	0.197907
O16	O	2.246070	0.404282	0.697907
O17	O	2.105407	-0.261327	0.184140
O18	O	2.605407	0.238673	0.684140
O19	O	1.901093	-0.089794	0.269313
O20	O	2.401093	0.410206	0.769313
O21	O	1.745907	-0.197756	0.095833
O22	O	2.245907	0.302244	0.595833
O23	O	1.541383	-0.205607	0.205689
O24	O	2.041383	0.294393	0.705689
O25	O	1.745918	-0.275127	0.377232
O26	O	2.245918	0.224873	0.877232
O27	O	1.541317	-0.282945	0.282991
O28	O	2.041317	0.217055	0.782991
O29	O	1.901006	-0.191865	0.371336
O30	O	2.401006	0.308135	0.871336
O31	O	1.900720	-0.371217	0.191921
O32	O	2.400720	0.128783	0.691921
O33	O	1.745755	-0.377165	0.275158
O34	O	2.245755	0.122835	0.775158
C35	C	1.495566	-0.246030	0.246088
C36	C	1.995566	0.253970	0.746088
C37	C	1.355313	-0.251418	0.251456
C38	C	1.855313	0.248582	0.751456
C39	C	1.823244	-0.397031	0.233546
C40	C	2.323244	0.102969	0.733546
C41	C	1.823289	-0.466998	0.233551
C42	C	2.323289	0.033002	0.733551
C43	C	1.904051	-0.496743	0.190248
C44	C	2.404051	0.003257	0.690248
C45	C	1.904110	-0.562483	0.190260
C46	C	2.404110	-0.062483	0.690260
C47	C	1.823385	-0.598477	0.233569
C48	C	2.323385	-0.098477	0.733569
C49	C	1.742617	-0.568723	0.276879
C50	C	2.242617	-0.068723	0.776879
C51	C	1.742569	-0.502984	0.276870
C52	C	2.242569	-0.002984	0.776870
N53	N	1.713000	-0.705976	0.242581
N54	N	2.213000	-0.205976	0.742581
N55	N	1.713049	-0.768426	0.242586
N56	N	2.213049	-0.268426	0.742586
C57	C	1.823526	-0.796546	0.233599
C58	C	2.323526	-0.296546	0.733599
N59	N	1.933954	-0.759857	0.224596
N60	N	2.433954	-0.259857	0.724596
N61	N	1.933904	-0.697402	0.224588
N62	N	2.433904	-0.197402	0.724588
C63	C	1.823428	-0.669760	0.233584
C64	C	2.323428	-0.169760	0.733584
C65	C	1.904359	-0.897574	0.190307
C66	C	2.404359	-0.397574	0.690307
C67	C	1.904420	-0.963315	0.190324
C68	C	2.404420	-0.463315	0.690324
C69	C	1.742916	-0.969555	0.276940
C70	C	2.242916	-0.469555	0.776940
C71	C	1.742866	-0.903814	0.276927
C72	C	2.242866	-0.403814	0.776927
C73	C	1.823586	-0.867828	0.233607
C74	C	2.323586	-0.367828	0.733607
C75	C	2.152534	-0.220868	0.221013
C76	C	2.652534	0.279132	0.721013
C77	C	2.292787	-0.215496	0.215660
C78	C	2.792787	0.284504	0.715660
C79	C	1.823471	-0.233500	0.397763
C80	C	2.323471	0.266500	0.897763
C81	C	1.823497	-0.233511	0.467730
C82	C	2.323497	0.266489	0.967730
C83	C	1.823610	-0.069275	0.233616
C84	C	2.323610	0.430725	0.733616
C85	C	1.823695	0.000696	0.233633
C86	C	2.323695	0.500696	0.733633
C87	C	1.904239	-0.190164	0.497528
C88	C	2.404239	0.309836	0.997528
C89	C	1.904220	-0.190154	0.563271
C90	C	2.404220	0.309846	1.063271
C91	C	1.823472	-0.233503	0.599213
C92	C	2.323472	0.266497	1.099213
C93	C	1.742714	-0.276853	0.569408
C94	C	2.242714	0.223147	1.069408
C95	C	1.742726	-0.276858	0.503666
C96	C	2.242726	0.223142	1.003666
N97	N	1.813709	-0.288971	0.702802
N98	N	2.313709	0.211029	1.202802
N99	N	1.813704	-0.288965	0.765253
N100	N	2.313704	0.211035	1.265253
C101	C	1.823427	-0.233491	0.797290
C102	C	2.323427	0.266509	1.297290
N103	N	1.833179	-0.178022	0.764514
N104	N	2.333179	0.321978	1.264514
N105	N	1.833190	-0.178029	0.702057
N106	N	2.333190	0.321971	1.202057
C107	C	1.823449	-0.233502	0.670500
C108	C	2.323449	0.266498	1.170500
C109	C	1.904153	-0.190130	0.898374
C110	C	2.404153	0.309870	1.398374
C111	C	1.904125	-0.190119	0.964119
C112	C	2.404125	0.309881	1.464119
C113	C	1.742625	-0.276824	0.970254
C114	C	2.242625	0.223176	1.470254
C115	C	1.742647	-0.276829	0.904511
C116	C	2.242647	0.223171	1.404511
C117	C	1.823417	-0.233483	0.868574
C118	C	2.323417	0.266517	1.368574
C119	C	1.823355	-0.233466	1.070025
C120	C	2.323355	0.266534	1.570025
C121	C	1.823374	-0.233468	1.000056
C122	C	2.323374	0.266532	1.500056
H123	H	1.969881	-0.586707	0.154998
H124	H	2.469881	-0.086707	0.654998
C125	C	1.365408	-0.168377	0.168714
C126	C	1.865408	0.331623	0.668714
H127	H	1.307377	-0.146566	0.146974
H128	H	1.807377	0.353434	0.646974
H129	H	1.416861	-0.139038	0.190899
H130	H	1.916861	0.360962	0.690899
H131	H	1.416780	-0.190462	0.139295
H132	H	1.916780	0.309538	0.639295
C133	C	1.653914	-0.324543	0.470884
C134	C	2.153914	0.175457	0.970884
H135	H	1.665484	-0.318335	0.426584
H136	H	2.165484	0.181665	0.926584
H137	H	1.672321	-0.366132	0.480957
H138	H	2.172321	0.133868	0.980957
H139	H	1.569136	-0.318571	0.484880
H140	H	2.069136	0.181429	0.984880
H141	H	1.301539	-0.286299	0.286207
H142	H	1.801539	0.213701	0.786207
C143	C	1.993073	-0.142480	0.458002
C144	C	2.493073	0.357520	0.958002
H145	H	2.041150	-0.116659	0.485168
H146	H	2.541150	0.383341	0.985168
H147	H	2.048026	-0.164456	0.430263
H148	H	2.548026	0.335544	0.930263
H149	H	1.944835	-0.116898	0.434194
H150	H	2.444835	0.383102	0.934194
H151	H	1.969781	-0.467445	0.154976
H152	H	2.469781	0.032555	0.654976
H153	H	1.676892	-0.598033	0.312143
H154	H	2.176892	-0.098033	0.812143
C155	C	1.653720	-0.470263	0.324502
C156	C	2.153720	0.029737	0.824502
H157	H	1.605646	-0.501112	0.350296
H158	H	2.105646	-0.001112	0.850296
H159	H	1.701933	-0.442736	0.350103
H160	H	2.201933	0.057264	0.850103
H161	H	1.598745	-0.446760	0.302488
H162	H	2.098745	0.053240	0.802488
C163	C	1.993158	-0.857986	0.142665
C164	C	2.493158	-0.357986	0.642665
H165	H	2.041282	-0.885119	0.116883
H166	H	2.541282	-0.385119	0.616883
H167	H	1.944908	-0.834221	0.117053
H168	H	2.444908	-0.334221	0.617053
H169	H	2.048090	-0.830203	0.164672
H170	H	2.548090	-0.330203	0.664672
H171	H	1.970194	-0.987532	0.155062
H172	H	2.470194	-0.487532	0.655062
C173	C	1.654125	-1.009139	0.324582
C174	C	2.154125	-0.509139	0.824582
H175	H	1.665716	-1.052552	0.318385
H176	H	2.165716	-0.552552	0.818385
H177	H	1.672533	-0.997636	0.366179
H178	H	2.172533	-0.497636	0.866179
H179	H	1.569341	-1.001658	0.318566
H180	H	2.069341	-0.501658	0.818566
H181	H	1.676964	-0.312146	0.598677
H182	H	2.176964	0.187854	1.098677
C183	C	1.654011	-0.871093	0.324553
C184	C	2.154011	-0.371093	0.824553
H185	H	1.605932	-0.901943	0.350345
H186	H	2.105932	-0.401943	0.850345
H187	H	1.702220	-0.843567	0.350156
H188	H	2.202220	-0.343567	0.850156
H189	H	1.599039	-0.847589	0.302537
H190	H	2.099039	-0.347589	0.802537
C191	C	1.993049	-0.142475	0.596056
C192	C	2.493049	0.357525	1.096056
H193	H	2.041160	-0.116664	0.565238
H194	H	2.541160	0.383336	1.065238
H195	H	1.944821	-0.116891	0.623541
H196	H	2.444821	0.383109	1.123541
H197	H	2.047991	-0.164461	0.619607
H198	H	2.547991	0.335539	1.119607
C199	C	1.992973	-0.142442	0.858842
C200	C	2.492973	0.357558	1.358842
H201	H	2.041043	-0.116616	0.886008
H202	H	2.541043	0.383384	1.386008
H203	H	2.047935	-0.164414	0.831104
H204	H	2.547935	0.335586	1.331104
H205	H	1.944725	-0.116865	0.835034
H206	H	2.444725	0.383135	1.335034
C207	C	1.992947	-0.142435	0.996897
C208	C	2.492947	0.357565	1.496897
H209	H	2.041057	-0.116627	0.966076
H210	H	2.541057	0.383373	1.466076
H211	H	1.944713	-0.116850	1.024377
H212	H	2.444713	0.383150	1.524377
H213	H	2.047890	-0.164416	1.020452
H214	H	2.547890	0.335584	1.520452
C215	C	1.653812	-0.324510	1.009782
C216	C	2.153812	0.175490	1.509782
H217	H	1.665374	-0.318303	1.053204
H218	H	2.165374	0.181697	1.553204
H219	H	1.569041	-0.318551	1.002233
H220	H	2.069041	0.181449	1.502233
H221	H	1.672248	-0.366101	0.998304
H222	H	2.172248	0.133899	1.498304
H223	H	1.676905	-0.312131	0.880249
H224	H	2.176905	0.187869	1.380249
