data_functionalizedCrystal
_audit_creation_method	'MofGen! by Chris Wilmer'
_symmetry_space_group_name_H-M	'P1'
_symmetry_Int_Tables_number	1
_symmetry_cell_setting	triclinic
loop_
_symmetry_equiv_pos_as_xyz
  x,y,z
_cell_length_a	14.519710
_cell_length_b	11.026607
_cell_length_c	9.482900
_cell_angle_alpha	78.599815
_cell_angle_beta	80.694056
_cell_angle_gamma	83.866919
loop_
_atom_site_label
_atom_site_type_symbol
_atom_site_fract_x
_atom_site_fract_y
_atom_site_fract_z
O1	O	1.261306	-0.140161	-0.120859
O2	O	0.995918	-0.158899	-0.120868
O3	O	1.106616	0.027170	-0.120859
O4	O	1.150608	-0.326230	-0.120868
O5	O	1.084156	-0.010777	0.120932
O6	O	0.973458	-0.196846	0.120923
O7	O	1.238846	-0.178108	0.120932
Cu8	Cu	1.104101	-0.190942	0.143005
Cu9	Cu	1.130663	-0.146065	-0.142941
O10	O	1.128148	-0.364177	0.120923
C11	C	0.950184	-0.176999	0.000026
C12	C	0.847372	-0.174382	0.000022
C13	C	1.087271	0.053425	0.000034
C14	C	1.063079	0.188193	0.000028
C15	C	1.284580	-0.160007	0.000035
C16	C	1.387393	-0.162624	0.000029
C17	C	1.763876	-0.172258	0.000028
C18	C	1.659128	-0.169583	0.000028
C19	C	1.575638	-0.167441	0.000027
C20	C	1.470883	-0.164765	0.000029
C21	C	1.147493	-0.390432	0.000026
C22	C	1.171686	-0.525198	0.000023
N23	N	1.085426	-0.222505	0.344123
C24	C	1.129879	0.261853	0.000029
C25	C	1.104877	0.401143	0.000022
N26	N	1.149344	-0.114493	-0.344059
C27	C	1.125147	-0.155369	0.416326
C28	C	1.109617	-0.181639	0.583742
H29	H	1.205577	0.221796	0.000040
H30	H	1.194847	-0.037557	0.593820
Cl31	Cl	1.015163	-0.341271	0.440031
H32	H	1.064106	-0.258566	0.645863
H33	H	0.987381	0.228250	0.000016
H34	H	1.029174	0.441195	0.000010
Cl35	Cl	1.288570	0.412980	0.000020
H36	H	1.170647	-0.078437	0.354202
