data_functionalizedCrystal
_audit_creation_method	'MofGen! by Chris Wilmer'
_symmetry_space_group_name_H-M	'P1'
_symmetry_Int_Tables_number	1
_symmetry_cell_setting	triclinic
loop_
_symmetry_equiv_pos_as_xyz
  x,y,z
_cell_length_a	14.853567
_cell_length_b	14.044220
_cell_length_c	13.330367
_cell_angle_alpha	89.994700
_cell_angle_beta	89.995418
_cell_angle_gamma	88.411904
loop_
_atom_site_label
_atom_site_type_symbol
_atom_site_fract_x
_atom_site_fract_y
_atom_site_fract_z
O1	O	1.206175	0.123767	-0.083357
O2	O	0.944883	0.138510	-0.083374
O3	O	1.071607	-0.006851	-0.083356
O4	O	1.079451	0.269128	-0.083375
O5	O	1.071587	-0.006854	0.083491
O6	O	0.944863	0.138507	0.083473
O7	O	1.206154	0.123764	0.083490
Cu8	Cu	1.075507	0.131135	0.098716
Cu9	Cu	1.075531	0.131139	-0.098600
O10	O	1.079431	0.269125	0.083472
C11	C	0.911231	0.137841	0.000047
C12	C	0.810989	0.135839	0.000041
C13	C	0.390944	0.041029	0.000070
C14	C	0.383345	0.213721	0.000057
C15	C	0.477528	0.215604	0.000054
C16	C	0.528423	0.130197	0.000057
C17	C	0.485135	0.042908	0.000064
C18	C	0.520822	0.302891	0.000037
C19	C	0.615011	0.304777	0.000032
C20	C	0.665908	0.219369	0.000043
C21	C	0.622615	0.132077	0.000051
C22	C	0.673510	0.046670	0.000054
C23	C	0.630218	-0.040623	0.000069
C24	C	0.536032	-0.042499	0.000074
C25	C	0.760094	0.221246	0.000038
C26	C	0.767702	0.048550	0.000048
C27	C	1.068163	-0.042172	0.000068
C28	C	1.057921	-0.147411	0.000069
C29	C	1.039197	-0.340097	0.000053
C30	C	1.111836	-0.397635	0.000055
C31	C	1.101418	-0.504852	0.000046
C32	C	1.049614	-0.232870	0.000062
C33	C	1.239806	0.124433	0.000067
C34	C	1.340048	0.126435	0.000067
C35	C	1.082874	0.304446	0.000046
C36	C	1.093116	0.409685	0.000039
N37	N	1.075496	0.131132	0.237498
N38	N	1.075548	0.131135	-0.237381
C39	C	1.019413	0.195480	0.710112
C40	C	1.131672	0.066791	0.710097
C41	C	1.131662	0.066788	0.605078
C42	C	1.075527	0.131133	0.552572
C43	C	1.019403	0.195481	0.605084
C44	C	1.187792	0.002448	0.552558
C45	C	1.187785	0.002443	0.447534
C46	C	1.131644	0.066784	0.395025
C47	C	1.075517	0.131134	0.447544
C48	C	1.019382	0.195479	0.395038
C49	C	0.963249	0.259825	0.447555
C50	C	0.963262	0.259822	0.552576
C51	C	1.131631	0.066787	0.290004
C52	C	1.019372	0.195480	0.290010
H53	H	0.341900	0.283255	0.000046
H54	H	0.650251	0.375856	0.000020
C55	C	1.171412	-0.097219	0.742443
C56	C	1.193365	-0.003940	0.767813
H57	H	1.209501	-0.140888	0.778075
H58	H	1.110416	-0.107612	0.759667
H59	H	1.179446	-0.106420	0.672379
H60	H	1.185325	0.005264	0.837876
H61	H	1.254375	0.006457	0.750595
H62	H	0.671670	-0.110161	0.000065
C63	C	1.253236	-0.386058	0.085851
C64	C	1.206354	-0.355440	0.000076
H65	H	1.311586	-0.360009	0.085862
H66	H	1.221394	-0.365312	0.144018
H67	H	1.258534	-0.453621	0.085834
H68	H	1.201049	-0.287877	0.000097
H69	H	1.238203	-0.376181	-0.058106
C70	C	0.852283	0.387036	0.458098
C71	C	0.901550	0.330556	0.389834
H72	H	0.814199	0.430705	0.422459
H73	H	0.816678	0.347514	0.499064
H74	H	0.892562	0.421207	0.499058
H75	H	0.861271	0.296380	0.348879
H76	H	0.937157	0.370084	0.348851
H77	H	0.917562	0.312211	0.595342
H78	H	0.973708	0.247867	0.752874
H79	H	0.969191	-0.371358	0.000046
C80	C	1.227528	-0.161563	0.584902
C81	C	1.249478	-0.068285	0.610281
H82	H	1.265611	-0.205233	0.620540
H83	H	1.166529	-0.171956	0.602114
H84	H	1.235573	-0.170762	0.514840
H85	H	1.241427	-0.059084	0.680342
H86	H	1.310491	-0.057888	0.593075
H87	H	1.177338	0.014402	0.247250
H88	H	1.233490	-0.049952	0.404781
H89	H	0.500776	-0.113569	0.000110
C90	C	0.765752	-0.122343	0.000058
C91	C	0.823642	-0.045334	0.000046
H92	H	0.800289	-0.180302	0.000050
H93	H	0.728863	-0.119486	0.058243
H94	H	0.728852	-0.119475	-0.058124
H95	H	0.860538	-0.048198	0.058232
H96	H	0.860547	-0.048193	-0.058145
C97	C	0.861602	0.323544	0.085787
C98	C	0.807682	0.317187	0.000021
H99	H	0.890983	0.382776	0.085773
H100	H	0.825012	0.319229	0.143960
H101	H	0.905389	0.272944	0.085783
H102	H	0.763890	0.367783	0.000029
H103	H	0.844274	0.321512	-0.058167
C104	C	0.289442	-0.061279	-0.085682
C105	C	0.343364	-0.054922	0.000082
H106	H	0.260073	-0.120518	-0.085676
H107	H	0.245653	-0.010692	-0.085673
H108	H	0.326035	-0.056952	-0.143863
H109	H	0.306769	-0.059242	0.058263
H110	H	0.387158	-0.105523	0.000082
C111	C	0.373067	0.376678	0.000060
C112	C	0.464879	0.396765	0.000039
H113	H	0.338529	0.434636	0.000071
H114	H	0.359196	0.340902	-0.058116
H115	H	0.359210	0.340887	0.058252
H116	H	0.478738	0.432551	-0.058156
H117	H	0.478755	0.432557	0.058221
H118	H	0.973656	0.247874	0.247266
