data_functionalizedCrystal
_audit_creation_method	'MofGen! by Chris Wilmer'
_symmetry_space_group_name_H-M	'P1'
_symmetry_Int_Tables_number	1
_symmetry_cell_setting	triclinic
loop_
_symmetry_equiv_pos_as_xyz
  x,y,z
_cell_length_a	14.044220
_cell_length_b	15.995350
_cell_length_c	12.503572
_cell_angle_alpha	93.525550
_cell_angle_beta	86.164750
_cell_angle_gamma	88.340626
loop_
_atom_site_label
_atom_site_type_symbol
_atom_site_fract_x
_atom_site_fract_y
_atom_site_fract_z
O1	O	1.263165	0.197434	-0.089196
O2	O	0.987198	0.190148	-0.089224
O3	O	1.132725	0.072467	-0.089208
O4	O	1.117638	0.315115	-0.089212
O5	O	1.121781	0.081333	0.089432
O6	O	0.976253	0.199014	0.089417
O7	O	1.252221	0.206300	0.089445
Cu8	Cu	1.113237	0.203467	0.105742
Cu9	Cu	1.126181	0.192981	-0.105521
O10	O	1.106693	0.323981	0.089429
C11	C	0.946411	0.191392	0.000093
C12	C	0.841186	0.181881	0.000082
C13	C	0.648523	0.164494	0.000104
C14	C	0.590890	0.231950	0.000107
C15	C	0.483686	0.222276	0.000119
C16	C	0.755737	0.174167	0.000092
C17	C	1.126629	0.045658	0.000110
C18	C	1.124760	-0.047432	0.000104
C19	C	1.118044	-0.385681	0.000107
C20	C	1.014426	-0.346008	-0.000304
C21	C	1.016272	-0.249158	0.000099
C22	C	1.121375	-0.217872	0.000105
C23	C	1.166245	-0.250068	0.102120
C24	C	1.163636	-0.346894	0.102206
C25	C	1.178223	-0.357175	-0.100942
C26	C	1.178281	-0.260298	-0.102290
C27	C	1.123263	-0.123033	0.000107
C28	C	1.116158	-0.480519	0.000111
C29	C	1.293007	0.205055	0.000125
C30	C	1.398233	0.214567	0.000129
C31	C	1.112789	0.350789	0.000108
C32	C	1.114659	0.443879	0.000108
N33	N	1.104141	0.210842	0.254333
N34	N	1.135285	0.185600	-0.254113
C35	C	1.090759	0.221698	0.473447
C36	C	1.148663	0.174747	0.526780
C37	C	1.141218	0.180787	0.648703
C38	C	1.098204	0.215658	0.351514
H39	H	0.622061	0.296967	0.000101
H40	H	1.203829	0.130016	0.480873
N41	N	1.274915	-0.234253	-0.110026
N42	N	1.330737	-0.261980	-0.186927
H43	H	1.398990	-0.243589	-0.192384
N44	N	1.111011	-0.368590	0.197867
N45	N	1.076460	-0.312255	0.264102
H46	H	1.039291	-0.327573	0.331666
N47	N	0.609412	0.082941	0.000113
N48	N	0.521116	0.075100	0.000121
H49	H	0.493482	0.017504	0.000125
N50	N	0.971477	-0.221828	-0.091642
N51	N	0.938628	-0.274318	-0.156414
H52	H	0.906985	-0.255020	-0.221207
H53	H	1.035599	0.266427	0.519349
H54	H	0.977483	-0.371265	-0.073462
H55	H	0.968729	-0.365072	0.072438
N56	N	0.959893	-0.213438	0.091989
N57	N	0.919063	-0.260044	0.156027
H58	H	0.879244	-0.234818	0.220930
H59	H	1.254680	-0.383262	-0.101623
H60	H	1.239445	-0.373229	0.106839
H61	H	1.126089	-0.220570	0.178033
N62	N	1.262814	-0.224858	0.106884
N63	N	1.281110	-0.148760	0.111383
H64	H	1.349312	-0.130952	0.114743
N65	N	1.141657	-0.390942	-0.197935
N66	N	1.070790	-0.436434	-0.193759
H67	H	1.044957	-0.460286	-0.262255
N68	N	1.137247	-0.234247	-0.196962
N69	N	1.066361	-0.184620	-0.189134
H70	H	1.037377	-0.166217	-0.255994
