data_functionalizedCrystal
_audit_creation_method	'MofGen! by Chris Wilmer'
_symmetry_space_group_name_H-M	'P1'
_symmetry_Int_Tables_number	1
_symmetry_cell_setting	triclinic
loop_
_symmetry_equiv_pos_as_xyz
  x,y,z
_cell_length_a	6.817900
_cell_length_b	13.563478
_cell_length_c	14.125465
_cell_angle_alpha	110.576185
_cell_angle_beta	100.398878
_cell_angle_gamma	104.707083
loop_
_atom_site_label
_atom_site_type_symbol
_atom_site_fract_x
_atom_site_fract_y
_atom_site_fract_z
V1	V	-4.018664	-0.152538	-0.340476
V2	V	-3.518664	0.347462	0.159524
O3	O	-3.978018	0.008311	-0.292059
O4	O	-3.478018	0.508311	0.207941
O5	O	-3.997468	-0.303400	-0.378480
O6	O	-3.497468	0.196600	0.121520
O7	O	-3.954309	-0.149761	-0.470569
O8	O	-3.454309	0.350239	0.029431
O9	O	-4.021476	-0.146392	-0.199333
O10	O	-3.521476	0.353608	0.300667
V11	V	-4.500835	-0.133349	-0.318695
V12	V	-4.000835	0.366651	0.181305
O13	O	-4.282890	-0.194630	-0.388256
O14	O	-3.782890	0.305370	0.111744
O15	O	-4.686807	-0.091258	-0.270915
O16	O	-4.186807	0.408742	0.229085
O17	O	-4.298825	0.017513	-0.280691
O18	O	-3.798825	0.517513	0.219309
O19	O	-4.658878	-0.294198	-0.367112
O20	O	-4.158878	0.205802	0.132888
O21	O	-4.615420	-0.139496	-0.459839
O22	O	-4.115420	0.360504	0.040161
O23	O	-4.341984	-0.136126	-0.188602
O24	O	-3.841984	0.363874	0.311398
C25	C	-3.849603	-0.340191	-0.383515
C26	C	-3.349603	0.159809	0.116485
C27	C	-3.913453	-0.463520	-0.415455
C28	C	-3.413453	0.036480	0.084545
C29	C	-3.976074	-0.537029	-0.522700
C30	C	-3.476074	-0.037029	-0.022700
C31	C	-4.036026	-0.652900	-0.552700
C32	C	-3.536026	-0.152900	-0.052700
C33	C	-4.033379	-0.695275	-0.475458
C34	C	-3.533379	-0.195275	0.024542
C35	C	-3.970771	-0.621766	-0.368211
C36	C	-3.470771	-0.121766	0.131789
C37	C	-3.910797	-0.505883	-0.338208
C38	C	-3.410797	-0.005883	0.161792
C39	C	-3.968102	-0.664128	-0.290965
C40	C	-3.468102	-0.164128	0.209035
C41	C	-3.905495	-0.590620	-0.183718
C42	C	-3.405495	-0.090620	0.316282
C43	C	-3.845529	-0.474748	-0.153720
C44	C	-3.345529	0.025252	0.346280
C45	C	-3.848176	-0.432374	-0.230962
C46	C	-3.348176	0.067626	0.269038
C47	C	-4.028077	-0.780012	-0.320969
C48	C	-3.528077	-0.280012	0.179031
C49	C	-3.962800	-0.748865	-0.136476
C50	C	-3.462800	-0.248865	0.363524
C51	C	-3.902848	-0.632994	-0.106476
C52	C	-3.402848	-0.132994	0.393524
C53	C	-3.794548	-0.144208	-0.500983
C54	C	-3.294548	0.355792	-0.000983
C55	C	-3.823394	-0.142936	-0.607600
C56	C	-3.323394	0.357064	-0.107600
C57	C	-3.876266	-0.140603	-0.802803
C58	C	-3.376266	0.359397	-0.302803
C59	C	-4.062602	-0.145282	-0.856367
C60	C	-3.562602	0.354718	-0.356367
C61	C	-4.092023	-0.143984	-0.964985
C62	C	-3.592023	0.356016	-0.464985
C63	C	-3.846837	-0.141901	-0.694175
C64	C	-3.346837	0.358099	-0.194175
C65	C	-4.110033	0.054297	-0.275655
C66	C	-3.610033	0.554297	0.224345
C67	C	-4.025421	0.177626	-0.243722
C68	C	-3.525421	0.677626	0.256278
C69	C	-4.165088	-0.141684	-0.158184
C70	C	-3.665088	0.358316	0.341816
C71	C	-4.115480	-0.142950	-0.051565
C72	C	-3.615480	0.357050	0.448435
H73	H	-4.079045	-0.839852	-0.408290
H74	H	-3.579045	-0.339852	0.091710
H75	H	-4.200041	-0.150274	-0.820654
H76	H	-3.700041	0.349726	-0.320654
H77	H	-3.738846	-0.135624	-0.838519
H78	H	-3.238846	0.364376	-0.338519
H79	H	-3.978205	-0.502515	-0.585578
H80	H	-3.478205	-0.002515	-0.085578
H81	H	-4.082196	-0.789624	-0.499891
H82	H	-3.582196	-0.289624	0.000109
H83	H	-4.086997	-0.712744	-0.640021
H84	H	-3.586997	-0.212744	-0.140021
H85	H	-3.799369	-0.338023	-0.206542
H86	H	-3.299369	0.161977	0.293458
H87	H	-3.851863	-0.573127	-0.019154
H88	H	-3.351863	-0.073127	0.480846
H89	H	-3.960632	-0.783365	-0.073579
H90	H	-3.460632	-0.283365	0.426421
H91	H	-3.794533	-0.414898	-0.066392
H92	H	-3.294533	0.085102	0.433608
