data_functionalizedCrystal
_audit_creation_method	'MofGen! by Chris Wilmer'
_symmetry_space_group_name_H-M	'P1'
_symmetry_Int_Tables_number	1
_symmetry_cell_setting	triclinic
loop_
_symmetry_equiv_pos_as_xyz
  x,y,z
_cell_length_a	10.540539
_cell_length_b	17.038272
_cell_length_c	9.616153
_cell_angle_alpha	89.997688
_cell_angle_beta	89.995174
_cell_angle_gamma	87.818524
loop_
_atom_site_label
_atom_site_type_symbol
_atom_site_fract_x
_atom_site_fract_y
_atom_site_fract_z
O1	O	1.696176	0.110247	-0.115581
O2	O	1.327732	0.120634	-0.115599
O3	O	1.509764	0.001613	-0.115579
O4	O	1.514144	0.229269	-0.115601
O5	O	1.509738	0.001615	0.115712
O6	O	1.327705	0.120637	0.115693
O7	O	1.696149	0.110249	0.115710
Zn8	Zn	1.511923	0.115443	0.152424
Zn9	Zn	1.511958	0.115440	-0.152313
O10	O	1.514117	0.229271	0.115690
C11	C	1.280343	0.119857	0.000045
C12	C	1.139177	0.117526	0.000039
C13	C	0.947420	0.028219	0.000587
C14	C	1.094259	0.030581	0.000051
C15	C	1.081423	0.159366	-0.132039
C16	C	0.934602	0.156399	-0.132135
C17	C	0.934248	0.158170	0.130886
C18	C	1.081305	0.158971	0.132618
C19	C	1.505768	-0.027537	0.000066
C20	C	1.493883	-0.114398	0.000065
C21	C	1.602994	-0.163886	0.000072
C22	C	1.591820	-0.245501	0.000058
C23	C	1.471534	-0.277626	0.000048
C24	C	1.362416	-0.228133	0.000037
C25	C	1.373591	-0.146519	0.000041
C26	C	1.432055	-0.523611	0.000027
C27	C	1.420888	-0.605231	0.000027
C28	C	1.650293	-0.622593	0.000046
C29	C	1.661457	-0.540977	0.000058
C30	C	1.552339	-0.491491	0.000040
C31	C	1.460110	-0.361050	0.000038
C32	C	1.563764	-0.408069	0.000040
C33	C	1.743538	0.111027	0.000063
C34	C	1.884704	0.113358	0.000061
C35	C	1.518114	0.258421	0.000042
C36	C	1.529998	0.345282	0.000034
N37	N	1.511909	0.115445	0.360398
N38	N	1.511982	0.115432	-0.360287
C39	C	1.414198	0.178900	0.580758
C40	C	1.414448	0.179138	0.419590
C41	C	1.646364	0.134015	0.418852
C42	C	1.645842	0.134465	0.580070
C43	C	1.476466	0.033212	0.580316
C44	C	1.473469	0.033745	0.419089
H45	H	0.903518	0.125473	-0.230858
H46	H	0.892466	0.218928	-0.138136
H47	H	0.914033	-0.005985	-0.093600
H48	H	1.547672	-0.014028	0.618440
H49	H	1.109732	0.223216	-0.136959
O50	O	1.134234	0.120863	-0.262246
H51	H	1.201598	0.071936	-0.233224
O52	O	1.709509	-0.298873	0.000088
H53	H	1.766682	-0.287362	-0.094164
H54	H	1.661700	-0.381909	0.000017
O55	O	1.685517	0.213920	0.629862
H56	H	1.608101	0.241729	0.693212
H57	H	1.133791	-0.002340	0.094731
H58	H	1.437523	0.239555	0.621252
H59	H	1.132922	-0.002574	-0.094786
H60	H	1.721225	0.089051	0.380507
H61	H	0.915620	-0.006128	0.095308
O62	O	0.889002	0.120896	0.263508
H63	H	0.830689	0.070008	0.237651
O64	O	1.131765	0.118492	0.262058
H65	H	1.197792	0.069062	0.232109
H66	H	1.700943	-0.137736	0.000089
O67	O	1.121225	0.242936	0.143195
H68	H	1.183204	0.256502	0.053715
H69	H	0.892879	0.220970	0.131773
O70	O	1.330378	-0.395705	0.000057
H71	H	1.319811	-0.432477	-0.094207
O72	O	1.291141	-0.639878	0.000027
H73	H	1.301707	-0.704943	0.000051
H74	H	1.759406	-0.514827	0.000067
H75	H	1.314247	0.167898	0.619566
H76	H	1.438038	0.240138	0.381006
O77	O	1.745727	0.075618	0.631731
H78	H	1.746099	0.075496	0.747155
O79	O	1.767982	-0.675965	0.000056
H80	H	1.740009	-0.738113	0.000042
H81	H	1.314789	0.167964	0.380072
O82	O	1.314369	-0.470240	0.000043
H83	H	1.228854	-0.506294	0.000060
H84	H	1.264477	-0.254296	0.000020
O85	O	1.686679	0.212580	0.365373
H86	H	1.611180	0.238521	0.297179
O87	O	1.255910	-0.093138	0.000049
H88	H	1.170390	-0.129186	0.000057
O89	O	1.348766	0.009810	0.634211
H90	H	1.309184	0.056526	0.703941
O91	O	1.342389	0.015096	0.368512
H92	H	1.304766	0.063804	0.301841
H93	H	1.539379	-0.015754	0.378802
