data_functionalizedCrystal
_audit_creation_method	'MofGen! by Chris Wilmer'
_symmetry_space_group_name_H-M	'P1'
_symmetry_Int_Tables_number	1
_symmetry_cell_setting	triclinic
loop_
_symmetry_equiv_pos_as_xyz
  x,y,z
_cell_length_a	11.169417
_cell_length_b	13.033855
_cell_length_c	11.169409
_cell_angle_alpha	97.211207
_cell_angle_beta	90.019513
_cell_angle_gamma	82.828133
loop_
_atom_site_label
_atom_site_type_symbol
_atom_site_fract_x
_atom_site_fract_y
_atom_site_fract_z
Zn1	Zn	1.895630	-0.415909	0.617900
Zn2	Zn	2.395630	0.084091	1.117900
Zn3	Zn	1.921015	-0.590694	0.391737
Zn4	Zn	2.421015	-0.090694	0.891737
Zn5	Zn	1.694926	-0.415974	0.417226
Zn6	Zn	2.194926	0.084026	0.917226
Zn7	Zn	1.720407	-0.590610	0.592395
Zn8	Zn	2.220407	-0.090610	1.092395
O9	O	1.807995	-0.503297	0.504814
O10	O	2.307995	-0.003297	1.004814
O11	O	2.066949	-0.439103	0.587906
O12	O	2.566949	0.060897	1.087906
O13	O	1.890984	-0.567579	0.227159
O14	O	2.390984	-0.067579	0.727159
O15	O	1.700262	-0.269731	0.465188
O16	O	2.200262	0.230269	0.965188
O17	O	2.085599	-0.567517	0.421744
O18	O	2.585599	-0.067517	0.921744
O19	O	1.847719	-0.269683	0.612622
O20	O	2.347719	0.230317	1.112622
O21	O	1.724877	-0.439213	0.245886
O22	O	2.224877	0.060787	0.745886
O23	O	1.530355	-0.439132	0.440456
O24	O	2.030355	0.060868	0.940456
O25	O	1.743691	-0.567374	0.763737
O26	O	2.243691	-0.067374	1.263737
O27	O	1.549076	-0.567436	0.569152
O28	O	2.049076	-0.067436	1.069152
O29	O	1.872427	-0.439021	0.782476
O30	O	2.372427	0.060979	1.282476
O31	O	1.915692	-0.736918	0.397012
O32	O	2.415692	-0.236918	0.897012
O33	O	1.768306	-0.736856	0.544435
O34	O	2.268306	-0.236856	1.044435
C35	C	1.496168	-0.503283	0.504803
C36	C	1.996168	-0.003283	1.004803
C37	C	1.362771	-0.503302	0.504823
C38	C	1.862771	-0.003302	1.004823
C39	C	1.847551	-0.774804	0.465216
C40	C	2.347551	-0.274804	0.965216
C41	C	1.864584	-0.890955	0.448316
C42	C	2.364584	-0.390955	0.948316
C43	C	1.799199	-0.942744	0.513659
C44	C	2.299199	-0.442744	1.013659
C45	C	1.816801	-1.062792	0.496193
C46	C	2.316801	-0.562792	0.996193
C47	C	2.121039	-0.503312	0.504827
C48	C	2.621039	-0.003312	1.004827
C49	C	2.254440	-0.503318	0.504832
C50	C	2.754440	-0.003318	1.004832
C51	C	1.808070	-0.503181	0.817874
C52	C	2.308070	-0.003181	1.317874
C53	C	1.808102	-0.503131	0.951281
C54	C	2.308102	-0.003131	1.451281
C55	C	1.768316	-0.230730	0.544594
C56	C	2.268316	0.269270	1.044594
C57	C	1.751408	-0.114578	0.561545
C58	C	2.251408	0.385422	1.061545
C59	C	1.807978	-0.503337	0.192984
C60	C	2.307978	-0.003337	0.692984
C61	C	1.808135	-0.503092	0.059620
C62	C	2.308135	-0.003092	0.559620
H63	H	1.730184	-0.898208	0.582527
H64	H	2.230184	-0.398208	1.082527
H65	H	1.885812	-1.107326	0.427313
H66	H	2.385812	-0.607326	0.927313
C67	C	1.957811	-0.951107	0.355270
C68	C	2.457811	-0.451107	0.855270
H69	H	1.996544	-0.903048	0.316533
H70	H	2.496544	-0.403048	0.816533
H71	H	2.016267	-0.993617	0.395081
H72	H	2.516267	-0.493617	0.895081
H73	H	1.918125	-0.993753	0.296771
H74	H	2.418125	-0.493753	0.796771
H75	H	1.682388	-1.070045	0.630418
H76	H	2.182388	-0.570045	1.130418
