data_functionalizedCrystal
_audit_creation_method	'MofGen! by Chris Wilmer'
_symmetry_space_group_name_H-M	'P1'
_symmetry_Int_Tables_number	1
_symmetry_cell_setting	triclinic
loop_
_symmetry_equiv_pos_as_xyz
  x,y,z
_cell_length_a	6.817900
_cell_length_b	16.093614
_cell_length_c	16.255699
_cell_angle_alpha	83.969648
_cell_angle_beta	103.489404
_cell_angle_gamma	79.172649
loop_
_atom_site_label
_atom_site_type_symbol
_atom_site_fract_x
_atom_site_fract_y
_atom_site_fract_z
V1	V	-3.996904	0.264149	-0.117731
O2	O	-3.984987	0.258832	0.004998
O3	O	-3.948624	0.262620	-0.232806
O4	O	-3.935482	0.379227	-0.116209
O5	O	-3.998220	0.141418	-0.112406
V6	V	-4.482204	0.249436	-0.103017
O7	O	-4.254265	0.296424	-0.150007
O8	O	-4.675040	0.217161	-0.070740
O9	O	-4.307277	0.250964	0.012059
O10	O	-4.611518	0.254753	-0.225746
O11	O	-4.598285	0.372167	-0.108341
O12	O	-4.320419	0.134358	-0.104538
C13	C	-3.794076	0.258525	-0.260850
C14	C	-3.835801	0.258042	-0.354928
C15	C	-3.747006	0.252509	-0.577741
C16	C	-3.838357	0.184313	-0.625194
C17	C	-3.912297	0.257199	-0.527179
C18	C	-3.895317	0.324544	-0.647357
C19	C	-3.986176	0.256388	-0.693567
C20	C	-4.003075	0.188951	-0.573384
C21	C	-4.060032	0.329244	-0.595552
C22	C	-4.151503	0.261034	-0.642981
C23	C	-3.869731	0.257665	-0.431327
C24	C	-4.028752	0.255916	-0.789416
C25	C	-4.141933	0.106313	-0.108632
C26	C	-4.090107	0.012234	-0.109111
C27	C	-4.145567	-0.219597	-0.105813
C28	C	-4.076883	-0.262538	-0.178431
C29	C	-3.995119	-0.160015	-0.109963
C30	C	-3.971441	-0.284705	-0.038203
C31	C	-3.903375	-0.326400	-0.110783
C32	C	-3.927160	-0.201708	-0.182633
C33	C	-3.821699	-0.223880	-0.042342
C34	C	-3.752909	-0.266790	-0.114980
C35	C	-4.047976	-0.064164	-0.109492
C36	C	-3.850509	-0.422247	-0.111261
C37	C	-3.777311	0.407267	-0.112117
C38	C	-3.808376	0.501345	-0.111635
C39	C	-4.125168	0.255057	0.040098
C40	C	-4.062680	0.255546	0.134175
H41	H	-4.153231	0.390526	-0.582073
H42	H	-3.850126	0.381831	-0.679563
H43	H	-4.312103	-0.198719	-0.102019
C44	C	-3.902649	-0.153179	-0.265174
C45	C	-3.691231	-0.168287	-0.286292
C46	C	-3.666746	-0.119750	-0.368832
C47	C	-3.853679	-0.056105	-0.430254
C48	C	-4.065112	-0.040994	-0.409138
C49	C	-4.089597	-0.089531	-0.326598
H50	H	-3.552839	-0.215404	-0.240822
H51	H	-3.510229	-0.130936	-0.384464
H52	H	-3.835554	-0.020175	-0.491355
H53	H	-4.203504	0.006123	-0.454607
H54	H	-4.246115	-0.078344	-0.310966
C55	C	-4.221901	-0.285892	-0.256153
C56	C	-4.391064	-0.215407	-0.318779
C57	C	-4.536102	-0.238765	-0.396490
C58	C	-4.511978	-0.332607	-0.411576
C59	C	-4.342808	-0.403098	-0.348949
C60	C	-4.197769	-0.379740	-0.271237
H61	H	-4.408929	-0.145934	-0.307613
H62	H	-4.661333	-0.186582	-0.442851
H63	H	-4.619344	-0.349898	-0.469103
H64	H	-4.324943	-0.472571	-0.360114
H65	H	-4.072538	-0.431923	-0.224876
H66	H	-3.989699	-0.320719	0.022826
H67	H	-4.322932	0.264616	-0.671322
H68	H	-3.714428	-0.206593	0.015207
H69	H	-3.745082	0.123031	-0.638652
H70	H	-3.575596	0.248822	-0.549229
H71	H	-4.048184	0.131588	-0.541278
H72	H	-3.586415	-0.287497	-0.118881
