data_functionalizedCrystal
_audit_creation_method	'MofGen! by Chris Wilmer'
_symmetry_space_group_name_H-M	'P1'
_symmetry_Int_Tables_number	1
_symmetry_cell_setting	triclinic
loop_
_symmetry_equiv_pos_as_xyz
  x,y,z
_cell_length_a	14.519709
_cell_length_b	14.971486
_cell_length_c	13.596369
_cell_angle_alpha	89.999401
_cell_angle_beta	89.999684
_cell_angle_gamma	83.647137
loop_
_atom_site_label
_atom_site_type_symbol
_atom_site_fract_x
_atom_site_fract_y
_atom_site_fract_z
O1	O	-1.223800	-0.117245	0.081664
O2	O	-0.973800	0.132755	0.331664
O3	O	-0.723800	0.382755	0.581664
O4	O	-0.473800	0.632755	0.831664
O5	O	-0.955315	-0.131053	0.081694
O6	O	-0.705315	0.118947	0.331694
O7	O	-0.455315	0.368947	0.581694
O8	O	-0.205315	0.618947	0.831694
O9	O	-1.096754	0.006047	0.081671
O10	O	-0.846754	0.256047	0.331671
O11	O	-0.596754	0.506047	0.581671
O12	O	-0.346754	0.756047	0.831671
O13	O	-1.082361	-0.254345	0.081687
O14	O	-0.832361	-0.004345	0.331687
O15	O	-0.582361	0.245655	0.581687
O16	O	-0.332361	0.495655	0.831687
O17	O	-1.096736	0.006040	-0.081912
O18	O	-0.846736	0.256040	0.168088
O19	O	-0.596736	0.506040	0.418088
O20	O	-0.346736	0.756040	0.668088
O21	O	-0.955297	-0.131060	-0.081889
O22	O	-0.705297	0.118940	0.168111
O23	O	-0.455297	0.368940	0.418111
O24	O	-0.205297	0.618940	0.668111
O25	O	-1.223783	-0.117252	-0.081919
O26	O	-0.973783	0.132748	0.168081
O27	O	-0.723783	0.382748	0.418081
O28	O	-0.473783	0.632748	0.668081
Zn29	Zn	-1.089537	-0.124158	-0.107876
Zn30	Zn	-0.839537	0.125842	0.142124
Zn31	Zn	-0.589537	0.375842	0.392124
Zn32	Zn	-0.339537	0.625842	0.642124
Zn33	Zn	-1.089560	-0.124147	0.107651
Zn34	Zn	-0.839560	0.125853	0.357651
Zn35	Zn	-0.589560	0.375853	0.607651
Zn36	Zn	-0.339560	0.625853	0.857651
O37	O	-1.082344	-0.254352	-0.081896
O38	O	-0.832344	-0.004352	0.168104
O39	O	-0.582344	0.245648	0.418104
O40	O	-0.332344	0.495648	0.668104
C41	C	-0.920947	-0.130413	-0.000094
C42	C	-0.670947	0.119587	0.249906
C43	C	-0.420947	0.369587	0.499906
C44	C	-0.170947	0.619587	0.749906
C45	C	-0.818567	-0.128485	-0.000082
C46	C	-0.568567	0.121515	0.249918
C47	C	-0.318567	0.371515	0.499918
C48	C	-0.068567	0.621515	0.749918
C49	C	-1.096101	0.039369	-0.000120
C50	C	-0.846101	0.289369	0.249880
C51	C	-0.596101	0.539369	0.499880
C52	C	-0.346101	0.789369	0.749880
C53	C	-1.094172	0.138667	-0.000119
C54	C	-0.844172	0.388667	0.249881
C55	C	-0.594172	0.638667	0.499881
C56	C	-0.344172	0.888667	0.749881
C57	C	-1.258151	-0.117892	-0.000129
C58	C	-1.008151	0.132108	0.249871
C59	C	-0.758151	0.382108	0.499871
C60	C	-0.508151	0.632108	0.749871
C61	C	-1.360531	-0.119820	-0.000134
C62	C	-1.110531	0.130180	0.249866
C63	C	-0.860531	0.380180	0.499866
C64	C	-0.610531	0.630180	0.749866
C65	C	-0.443675	-0.121386	-0.000128
C66	C	-0.193675	0.128614	0.249872
C67	C	0.056325	0.378614	0.499872
C68	C	0.306325	0.628614	0.749872
C69	C	-0.547982	-0.123357	-0.000115
C70	C	-0.297982	0.126643	0.249885
C71	C	-0.047982	0.376643	0.499885
C72	C	0.202018	0.626643	0.749885
C73	C	-0.631118	-0.124935	-0.000104
C74	C	-0.381118	0.125065	0.249896
C75	C	-0.131118	0.375065	0.499896
C76	C	0.118882	0.625065	0.749896
C77	C	-0.735431	-0.126907	-0.000093
C78	C	-0.485431	0.123093	0.249907
C79	C	-0.235431	0.373093	0.499907
C80	C	0.014569	0.623093	0.749907
C81	C	-1.082996	-0.287674	-0.000103
C82	C	-0.832996	-0.037674	0.249897
C83	C	-0.582996	0.212326	0.499897
C84	C	-0.332996	0.462326	0.749897
C85	C	-1.084925	-0.386972	-0.000098
C86	C	-0.834925	-0.136972	0.249902
C87	C	-0.584925	0.113028	0.499902
C88	C	-0.334925	0.363028	0.749902
N89	N	-1.089528	-0.124164	-0.254968
N90	N	-0.839528	0.125836	-0.004968
N91	N	-0.589528	0.375836	0.245032
N92	N	-0.339528	0.625836	0.495032
C93	C	-1.177264	0.195845	-0.000129
C94	C	-0.927264	0.445845	0.249871
C95	C	-0.677264	0.695845	0.499871
C96	C	-0.427264	0.945845	0.749871
C97	C	-1.175446	0.289146	-0.000119
C98	C	-0.925446	0.539146	0.249881
C99	C	-0.675446	0.789146	0.499881
C100	C	-0.425446	1.039146	0.749881
C101	C	-1.090536	0.325266	-0.000106
C102	C	-0.840536	0.575266	0.249894
C103	C	-0.590536	0.825266	0.499894
C104	C	-0.340536	1.075266	0.749894
C105	C	-1.007438	0.268080	-0.000093
C106	C	-0.757438	0.518080	0.249907
C107	C	-0.507438	0.768080	0.499907
C108	C	-0.257438	1.018080	0.749907
C109	C	-1.009257	0.174781	-0.000096
C110	C	-0.759257	0.424781	0.249904
C111	C	-0.509257	0.674781	0.499904
C112	C	-0.259257	0.924781	0.749904
C113	C	-1.003653	0.462545	-0.000089
C114	C	-0.753653	0.712545	0.249911
C115	C	-0.503653	0.962545	0.499911
C116	C	-0.253653	1.212545	0.749911
C117	C	-1.001834	0.555850	-0.000088
C118	C	-0.751834	0.805850	0.249912
C119	C	-0.501834	1.055850	0.499912
C120	C	-0.251834	1.305850	0.749912
C121	C	-1.169842	0.576909	-0.000112
C122	C	-0.919842	0.826909	0.249888
C123	C	-0.669842	1.076909	0.499888
C124	C	-0.419842	1.326909	0.749888
C125	C	-1.171661	0.483610	-0.000115
C126	C	-0.921661	0.733610	0.249885
C127	C	-0.671661	0.983610	0.499885
C128	C	-0.421661	1.233610	0.749885
C129	C	-1.088563	0.426431	-0.000104
C130	C	-0.838563	0.676431	0.249896
C131	C	-0.588563	0.926431	0.499896
C132	C	-0.338563	1.176431	0.749896
C133	C	-1.089533	-0.124166	-0.343966
C134	C	-0.839533	0.125834	-0.093966
C135	C	-0.589533	0.375834	0.156034
C136	C	-0.339533	0.625834	0.406034
C137	C	-1.089542	-0.124160	-0.455617
C138	C	-0.839542	0.125840	-0.205617
C139	C	-0.589542	0.375840	0.044383
C140	C	-0.339542	0.625840	0.294383
C141	C	-1.089554	-0.124150	-0.544608
C142	C	-0.839554	0.125850	-0.294608
C143	C	-0.589554	0.375850	-0.044608
C144	C	-0.339554	0.625850	0.205392
C145	C	-1.089564	-0.124144	-0.656266
C146	C	-0.839564	0.125856	-0.406266
C147	C	-0.589564	0.375856	-0.156266
C148	C	-0.339564	0.625856	0.093734
N149	N	-1.089576	-0.124134	0.254743
N150	N	-0.839576	0.125866	0.504743
N151	N	-0.589576	0.375866	0.754743
N152	N	-0.339576	0.625866	1.004743
H153	H	-1.246407	0.166444	-0.000146
H154	H	-0.996407	0.416444	0.249854
H155	H	-0.746407	0.666444	0.499854
H156	H	-0.496407	0.916444	0.749854
H157	H	-1.237504	0.623470	-0.000118
H158	H	-0.987504	0.873470	0.249882
H159	H	-0.737504	1.123470	0.499882
H160	H	-0.487504	1.373470	0.749882
H161	H	-0.932692	0.585255	-0.000093
H162	H	-0.682692	0.835255	0.249907
H163	H	-0.432692	1.085255	0.499907
H164	H	-0.182692	1.335255	0.749907
H165	H	-1.243107	0.335698	-0.000129
H166	H	-0.993107	0.585698	0.249871
H167	H	-0.743107	0.835698	0.499871
H168	H	-0.493107	1.085698	0.749871
H169	H	-0.938303	0.297496	-0.000076
H170	H	-0.688303	0.547496	0.249924
H171	H	-0.438303	0.797496	0.499924
H172	H	-0.188303	1.047496	0.749924
H173	H	-0.935985	0.415991	-0.000077
H174	H	-0.685985	0.665991	0.249923
H175	H	-0.435985	0.915991	0.499923
H176	H	-0.185985	1.165991	0.749923
H177	H	-0.941595	0.128227	-0.000087
H178	H	-0.691595	0.378227	0.249913
H179	H	-0.441595	0.628227	0.499913
H180	H	-0.191595	0.878227	0.749913
H181	H	-1.240802	0.454205	-0.000133
H182	H	-0.990802	0.704205	0.249867
H183	H	-0.740802	0.954205	0.499867
H184	H	-0.490802	1.204205	0.749867
