data_functionalizedCrystal
_audit_creation_method	'MofGen! by Chris Wilmer'
_symmetry_space_group_name_H-M	'P1'
_symmetry_Int_Tables_number	1
_symmetry_cell_setting	triclinic
loop_
_symmetry_equiv_pos_as_xyz
  x,y,z
_cell_length_a	12.784890
_cell_length_b	23.532357
_cell_length_c	22.610064
_cell_angle_alpha	89.994951
_cell_angle_beta	89.999495
_cell_angle_gamma	77.967425
loop_
_atom_site_label
_atom_site_type_symbol
_atom_site_fract_x
_atom_site_fract_y
_atom_site_fract_z
O1	O	1.410278	0.003552	0.049167
O2	O	1.910278	0.503552	0.549167
O3	O	1.100557	0.027957	0.049174
O4	O	1.600557	0.527957	0.549174
O5	O	1.264785	-0.067615	0.049158
O6	O	1.764785	0.432385	0.549158
O7	O	1.246050	0.099124	0.049183
O8	O	1.746050	0.599124	0.549183
O9	O	1.264773	-0.067592	-0.049211
O10	O	1.764773	0.432408	0.450789
O11	O	1.100545	0.027979	-0.049195
O12	O	1.600545	0.527979	0.450805
O13	O	1.410267	0.003575	-0.049202
O14	O	1.910267	0.503575	0.450798
Zn15	Zn	1.255404	0.015781	-0.064817
Zn16	Zn	1.755404	0.515781	0.435183
Zn17	Zn	1.255419	0.015751	0.064789
Zn18	Zn	1.755419	0.515751	0.564789
O19	O	1.246039	0.099147	-0.049186
O20	O	1.746039	0.599147	0.450814
C21	C	1.060934	0.029555	-0.000009
C22	C	1.560934	0.529555	0.499991
C23	C	0.942889	0.034278	-0.000007
C24	C	1.442889	0.534278	0.499993
C25	C	1.264311	-0.088798	-0.000028
C26	C	1.764311	0.411202	0.499972
C27	C	1.262902	-0.151951	-0.000034
C28	C	1.762902	0.348049	0.499966
C29	C	0.763268	0.093466	0.000003
C30	C	1.263268	0.593466	0.500003
C31	C	0.874181	0.089032	0.000002
C32	C	1.374181	0.589032	0.500002
C33	C	0.900677	-0.016046	-0.000014
C34	C	1.400677	0.483954	0.499986
C35	C	0.789763	-0.011613	-0.000013
C36	C	1.289763	0.488387	0.499987
C37	C	0.721062	0.043145	-0.000006
C38	C	1.221062	0.543145	0.499994
C39	C	0.610147	0.047578	-0.000009
C40	C	1.110147	0.547578	0.499991
C41	C	0.636645	-0.057500	-0.000021
C42	C	1.136645	0.442500	0.499979
C43	C	0.747558	-0.061934	-0.000021
C44	C	1.247558	0.438066	0.499979
C45	C	1.254063	-0.543564	0.053619
C46	C	1.754063	-0.043564	0.553619
C47	C	1.252724	-0.602901	0.053623
C48	C	1.752724	-0.102901	0.553623
O49	O	1.252000	-0.633594	0.099225
O50	O	1.752000	-0.133594	0.599225
N51	N	1.252053	-0.632569	0.000003
N52	N	1.752053	-0.132569	0.500003
C53	C	1.252711	-0.602895	-0.053625
C54	C	1.752711	-0.102895	0.446375
O55	O	1.252017	-0.633578	-0.099233
O56	O	1.752017	-0.133578	0.400767
C57	C	1.254043	-0.543558	-0.053627
C58	C	1.754043	-0.043558	0.446373
C59	C	1.254724	-0.513895	-0.000004
C60	C	1.754724	-0.013895	0.499996
C61	C	1.254743	-0.513900	0.107239
C62	C	1.754743	-0.013900	0.607239
C63	C	1.256084	-0.454567	0.107235
C64	C	1.756084	0.045433	0.607235
C65	C	1.256745	-0.424898	0.053612
C66	C	1.756745	0.075102	0.553612
C67	C	1.256065	-0.454562	-0.000007
C68	C	1.756065	0.045438	0.499993
C69	C	1.254694	-0.513884	-0.107254
C70	C	1.754694	-0.013884	0.392746
C71	C	1.256025	-0.454543	-0.107252
C72	C	1.756025	0.045457	0.392748
C73	C	1.256706	-0.424880	-0.053628
C74	C	1.756706	0.075120	0.446372
C75	C	1.258068	-0.365560	-0.053634
C76	C	1.758068	0.134440	0.446366
N77	N	1.258738	-0.335892	-0.000014
N78	N	1.758738	0.164108	0.499986
C79	C	1.258077	-0.365561	0.053609
C80	C	1.758077	0.134439	0.553609
C81	C	1.249913	-0.727506	-0.053615
C82	C	1.749913	-0.227506	0.446385
C83	C	1.248589	-0.786843	-0.053613
C84	C	1.748589	-0.286843	0.446387
C85	C	1.248599	-0.786845	0.053635
C86	C	1.748599	-0.286845	0.553635
C87	C	1.249931	-0.727508	0.053632
C88	C	1.749931	-0.227508	0.553632
C89	C	1.250583	-0.697839	0.000006
C90	C	1.750583	-0.197839	0.500006
C91	C	1.260895	-0.240958	0.053598
C92	C	1.760895	0.259042	0.553598
C93	C	1.262240	-0.181620	0.053589
C94	C	1.762240	0.318380	0.553589
C95	C	1.262224	-0.181623	-0.053658
C96	C	1.762224	0.318377	0.446342
C97	C	1.260884	-0.240956	-0.053650
C98	C	1.760884	0.259044	0.446350
C99	C	1.260216	-0.270622	-0.000017
C100	C	1.760216	0.229378	0.499983
O101	O	1.258788	-0.334828	-0.099213
O102	O	1.758788	0.165172	0.400787
O103	O	1.258757	-0.334869	0.099210
O104	O	1.758757	0.165131	0.599210
C105	C	1.449889	0.001977	-0.000017
C106	C	1.949889	0.501977	0.499983
C107	C	1.567935	-0.002746	-0.000016
C108	C	2.067935	0.497254	0.499984
C109	C	1.246513	0.120330	0.000002
C110	C	1.746513	0.620330	0.500002
C111	C	1.247922	0.183483	0.000011
C112	C	1.747922	0.683483	0.500011
N113	N	1.255402	0.015801	-0.153269
N114	N	1.755402	0.515801	0.346731
C115	C	1.182658	0.058074	-0.438110
C116	C	1.682658	0.558074	0.061890
C117	C	1.182655	0.058080	-0.376190
C118	C	1.682655	0.558080	0.123810
O119	O	1.120774	0.094048	-0.344166
O120	O	1.620774	0.594048	0.155834
N121	N	1.255394	0.015779	-0.345222
N122	N	1.755394	0.515779	0.154778
C123	C	1.328134	-0.026535	-0.376176
C124	C	1.828134	0.473465	0.123824
O125	O	1.390003	-0.062515	-0.344149
O126	O	1.890003	0.437485	0.155851
C127	C	1.328131	-0.026542	-0.438095
C128	C	1.828131	0.473458	0.061905
C129	C	1.255394	0.015765	-0.469060
C130	C	1.755394	0.515765	0.030940
C131	C	1.109927	0.100378	-0.469076
C132	C	1.609927	0.600378	0.030924
C133	C	1.109931	0.100372	-0.530991
C134	C	1.609931	0.600372	-0.030991
C135	C	1.182667	0.058064	-0.561942
C136	C	1.682667	0.558064	-0.061942
C137	C	1.255399	0.015760	-0.530976
C138	C	1.755399	0.515760	-0.030976
C139	C	1.400865	-0.068857	-0.469048
C140	C	1.900865	0.431143	0.030952
C141	C	1.400855	-0.068861	-0.530971
C142	C	1.900855	0.431139	-0.030971
C143	C	1.328118	-0.026554	-0.561937
C144	C	1.828118	0.473446	-0.061937
C145	C	1.328140	-0.026554	-0.623842
C146	C	1.828140	0.473446	-0.123842
N147	N	1.255400	0.015747	-0.654810
N148	N	1.755400	0.515747	-0.154810
C149	C	1.182664	0.058056	-0.623860
C150	C	1.682664	0.558056	-0.123860
C151	C	1.328133	-0.026516	-0.246142
C152	C	1.828133	0.473484	0.253858
C153	C	1.328142	-0.026506	-0.184225
C154	C	1.828142	0.473494	0.315775
C155	C	1.182662	0.058107	-0.184243
C156	C	1.682662	0.558107	0.315757
C157	C	1.182659	0.058100	-0.246162
C158	C	1.682659	0.558100	0.253838
C159	C	1.255394	0.015785	-0.277111
C160	C	1.755394	0.515785	0.222889
C161	C	1.182680	0.058042	-0.753888
C162	C	1.682680	0.558042	-0.253888
C163	C	1.182694	0.058035	-0.815809
C164	C	1.682694	0.558035	-0.315809
C165	C	1.328170	-0.026580	-0.815785
C166	C	1.828170	0.473420	-0.315785
C167	C	1.328160	-0.026571	-0.753869
C168	C	1.828160	0.473429	-0.253869
C169	C	1.255406	0.015743	-0.722922
C170	C	1.755406	0.515743	-0.222922
O171	O	1.389987	-0.062506	-0.655906
O172	O	1.889987	0.437494	-0.155906
O173	O	1.120796	0.094026	-0.655895
O174	O	1.620796	0.594026	-0.155895
N175	N	1.255430	0.015726	0.153241
N176	N	1.755430	0.515726	0.653241
H177	H	0.707330	0.138052	0.000001
H178	H	1.207330	0.638052	0.500001
H179	H	1.050700	0.134821	-0.556200
H180	H	1.550700	0.634821	-0.056200
N181	N	1.479314	-0.114493	-0.435662
N182	N	1.979314	0.385507	0.064338
H183	H	1.468292	-0.108076	-0.391738
H184	H	1.968292	0.391924	0.108262
H185	H	1.554679	-0.111624	-0.446492
H186	H	2.054679	0.388376	0.053508
H187	H	1.387399	-0.061017	-0.728656
H188	H	1.887399	0.438983	-0.228656
N189	N	0.974783	-0.075102	-0.000017
N190	N	1.474783	0.424898	0.499983
H191	H	1.051449	-0.070272	-0.000015
H192	H	1.551449	0.429728	0.499985
H193	H	0.961185	-0.097262	-0.036488
H194	H	1.461185	0.402738	0.463512
H195	H	1.123436	0.092498	-0.728697
H196	H	1.623436	0.592498	-0.228697
N197	N	1.247930	-0.818870	0.111465
N198	N	1.747930	-0.318870	0.611465
H199	H	1.314116	-0.816434	0.134891
H200	H	1.814116	-0.316434	0.634891
H201	H	1.246958	-0.860944	0.103260
H202	H	1.746958	-0.360944	0.603260
H203	H	1.248051	-0.810992	-0.097278
H204	H	1.748051	-0.310992	0.402722
N205	N	0.591121	-0.111778	-0.000026
N206	N	1.091121	0.388222	0.499974
H207	H	0.651476	-0.147137	-0.000032
H208	H	1.151476	0.352863	0.499968
H209	H	0.545681	-0.112217	-0.036495
H210	H	1.045681	0.387783	0.463505
N211	N	1.260174	-0.272954	-0.111487
N212	N	1.760174	0.227046	0.388513
H213	H	1.325553	-0.305458	-0.113875
H214	H	1.825553	0.194542	0.386125
H215	H	1.260767	-0.245110	-0.145420
H216	H	1.760767	0.254890	0.354580
N217	N	1.031463	0.146012	-0.435700
N218	N	1.531463	0.646012	0.064300
H219	H	0.985394	0.172804	-0.464721
H220	H	1.485394	0.672804	0.035279
H221	H	1.071892	0.169207	-0.410017
H222	H	1.571892	0.669207	0.089983
H223	H	0.908539	0.130009	0.000007
H224	H	1.408539	0.630009	0.500007
N225	N	1.479317	-0.114500	-0.564348
N226	N	1.979317	0.385500	-0.064348
H227	H	1.526164	-0.095044	-0.590041
H228	H	2.026164	0.404956	-0.090041
H229	H	1.438887	-0.137722	-0.590000
H230	H	1.938887	0.362278	-0.090000
N231	N	1.250629	-0.695509	-0.111459
N232	N	1.750629	-0.195509	0.388541
H233	H	1.250005	-0.723312	-0.145422
H234	H	1.750005	-0.223312	0.354578
H235	H	1.317119	-0.678776	-0.113799
H236	H	1.817119	-0.178776	0.386201
N237	N	0.536060	0.106640	-0.000014
N238	N	1.036060	0.606640	0.499986
H239	H	0.549571	0.128833	0.036453
H240	H	1.049571	0.628833	0.536453
H241	H	0.459418	0.101774	-0.000042
H242	H	0.959418	0.601774	0.499958
H243	H	1.250484	-0.703360	0.097298
H244	H	1.750484	-0.203360	0.597298
N245	N	0.821658	-0.120991	-0.000028
N246	N	1.321658	0.379009	0.499972
H247	H	0.898327	-0.116165	-0.000027
H248	H	1.398327	0.383835	0.499973
H249	H	0.808053	-0.143147	-0.036500
H250	H	1.308053	0.356853	0.463500
H251	H	1.262797	-0.157471	0.097258
H252	H	1.762797	0.342529	0.597258
H253	H	1.260345	-0.265104	0.097270
H254	H	1.760345	0.234896	0.597270
H255	H	1.254141	-0.538026	-0.150920
H256	H	1.754141	-0.038026	0.349080
H257	H	1.256635	-0.430420	0.150901
H258	H	1.756635	0.069580	0.650901
N259	N	1.254102	-0.545903	0.165080
N260	N	1.754102	-0.045903	0.665080
H261	H	1.254760	-0.518102	0.199041
H262	H	1.754760	-0.018102	0.699041
H263	H	1.319513	-0.578392	0.167388
H264	H	1.819513	-0.078392	0.667388
N265	N	1.104230	0.103666	-0.849204
N266	N	1.604230	0.603666	-0.349204
H267	H	1.057389	0.084203	-0.874890
H268	H	1.557389	0.584203	-0.374890
H269	H	1.144660	0.126884	-0.874864
H270	H	1.644660	0.626884	-0.374864
H271	H	1.256540	-0.430388	-0.150923
H272	H	1.756540	0.069612	0.349077
H273	H	1.262768	-0.157456	-0.097317
H274	H	1.762768	0.342544	0.402683
N275	N	1.406622	-0.072210	-0.849172
N276	N	1.906622	0.427790	-0.349172
H277	H	1.395578	-0.065791	-0.893096
H278	H	1.895578	0.434209	-0.393096
H279	H	1.394779	-0.112029	-0.838344
H280	H	1.894779	0.387971	-0.338344
H281	H	1.123430	0.092550	-0.271371
H282	H	1.623430	0.592550	0.228629
N283	N	1.104207	0.103742	-0.150856
N284	N	1.604207	0.603742	0.349144
H285	H	1.115249	0.097322	-0.106932
H286	H	1.615249	0.597322	0.393068
H287	H	1.028840	0.100869	-0.161674
H288	H	1.528840	0.600869	0.338326
H289	H	1.387372	-0.060973	-0.271338
H290	H	1.887372	0.439027	0.228662
N291	N	1.406608	-0.072131	-0.150830
N292	N	1.906608	0.427869	0.349170
H293	H	1.452683	-0.098931	-0.179838
H294	H	1.952683	0.401069	0.320162
H295	H	1.366178	-0.095320	-0.125135
H296	H	1.866178	0.404680	0.374865
