data_functionalizedCrystal
_audit_creation_method	'MofGen! by Chris Wilmer'
_symmetry_space_group_name_H-M	'P1'
_symmetry_Int_Tables_number	1
_symmetry_cell_setting	triclinic
loop_
_symmetry_equiv_pos_as_xyz
  x,y,z
_cell_length_a	16.974769
_cell_length_b	27.732048
_cell_length_c	16.053948
_cell_angle_alpha	87.102713
_cell_angle_beta	89.227827
_cell_angle_gamma	96.985238
loop_
_atom_site_label
_atom_site_type_symbol
_atom_site_fract_x
_atom_site_fract_y
_atom_site_fract_z
O1	O	-0.090876	0.639320	0.075465
O2	O	-0.105139	0.498556	0.076455
O3	O	0.016815	0.573071	0.068190
O4	O	-0.212831	0.564806	0.083730
O5	O	0.010931	0.576676	-0.070268
O6	O	-0.111024	0.502161	-0.062004
O7	O	-0.096760	0.642926	-0.062993
Zn8	Zn	-0.104826	0.573116	-0.084482
Zn9	Zn	-0.097073	0.568366	0.097943
O10	O	-0.218715	0.568411	-0.054729
C11	C	0.043244	0.574629	-0.003024
C12	C	0.130760	0.573893	-0.008940
C13	C	-0.107782	0.482351	0.007209
C14	C	-0.106880	0.428694	0.007157
C15	C	0.623031	0.569916	-0.050308
C16	C	0.540801	0.570613	-0.044754
C17	C	0.502886	0.568999	0.033499
C18	C	0.547204	0.566684	0.106202
C19	C	0.629431	0.565985	0.100647
C20	C	0.257305	0.570878	0.058207
C21	C	0.175072	0.571579	0.063757
C22	C	0.168675	0.575507	-0.087199
C23	C	0.250905	0.574810	-0.092748
C24	C	0.295215	0.572492	-0.020045
N25	N	0.418834	0.569712	0.039179
N26	N	0.379264	0.571776	-0.025725
C27	C	-0.173273	0.090019	0.011613
C28	C	-0.169928	-0.111648	0.011380
O29	O	-0.230640	-0.142775	0.015452
N30	N	-0.097613	-0.130923	0.006488
C31	C	-0.026130	-0.099777	0.001649
O32	O	0.035454	-0.120799	-0.002526
C33	C	-0.029476	0.101888	0.001877
C34	C	-0.101795	0.121160	0.006777
C35	C	-0.245586	0.109291	0.016513
C36	C	-0.246421	0.159705	0.016576
C37	C	-0.174943	0.190846	0.011739
C38	C	-0.102630	0.171574	0.006840
C39	C	0.042006	0.133033	-0.002968
C40	C	0.041163	0.183452	-0.002913
C41	C	-0.031156	0.202724	0.001987
C42	C	-0.031988	0.253128	0.002067
N43	N	-0.104302	0.272403	0.006959
C44	C	-0.175780	0.241262	0.011795
C45	C	-0.024378	-0.205655	0.001531
C46	C	-0.023542	-0.256071	0.001476
C47	C	-0.167340	-0.267938	0.011205
C48	C	-0.168175	-0.217521	0.011266
C49	C	-0.096693	-0.186380	0.006423
C50	C	-0.177529	0.347134	0.011927
C51	C	-0.178358	0.397553	0.011993
C52	C	-0.034560	0.409415	0.002260
C53	C	-0.033731	0.359001	0.002198
C54	C	-0.105222	0.327862	0.007029
O55	O	0.028691	0.284285	-0.002012
O56	O	-0.237356	0.262294	0.015951
C57	C	-0.172438	0.039605	0.011551
C58	C	-0.100125	0.020333	0.006651
C59	C	-0.028647	0.051474	0.001815
C60	C	-0.099288	-0.030083	0.006596
C61	C	-0.170765	-0.061224	0.011432
C62	C	-0.243080	-0.041949	0.016324
C63	C	-0.243915	0.008464	0.016387
C64	C	0.043668	0.032199	-0.003077
C65	C	0.044497	-0.018215	-0.003138
C66	C	-0.026980	-0.049356	0.001698
C67	C	0.754857	0.566857	0.016483
C68	C	0.667343	0.567603	0.022389
C69	C	-0.094118	0.659131	0.006255
C70	C	-0.095019	0.712787	0.006312
N71	N	-0.110117	0.576361	-0.208982
C72	C	-0.064478	0.548310	-0.255783
C73	C	-0.068188	0.550593	-0.342937
C74	C	-0.117533	0.580929	-0.383289
C75	C	-0.163177	0.608981	-0.336481
C76	C	-0.159471	0.606695	-0.249328
C77	C	-0.133714	0.590891	-0.643597
C78	C	-0.137415	0.593175	-0.730756
C79	C	-0.042427	0.534786	-0.737206
C80	C	-0.038721	0.532506	-0.650051
C81	C	-0.084368	0.560556	-0.603251
N82	N	-0.121325	0.583263	-0.472374
N83	N	-0.080581	0.558218	-0.514167
N84	N	-0.091776	0.565124	0.222443
H85	H	0.653895	0.571232	-0.114030
H86	H	0.504727	0.572503	-0.103952
H87	H	-0.024293	0.523609	-0.222935
H88	H	-0.196638	0.629536	-0.211224
F89	F	0.013774	0.500203	-0.607111
F90	F	0.043238	0.338490	-0.003018
H91	H	0.281770	0.576126	-0.156470
F92	F	-0.245146	-0.197015	0.016481
H93	H	-0.301280	-0.067314	0.020265
H94	H	0.132589	0.577393	-0.146390
F95	F	-0.323394	0.180208	0.021788
H96	H	0.099374	0.208805	-0.006858
H97	H	-0.031024	0.527751	-0.381039
H98	H	0.516326	0.565368	0.169917
F99	F	0.134723	0.569863	0.147048
H100	H	-0.177601	0.617879	-0.763607
H101	H	0.100896	0.117351	-0.006960
H102	H	-0.005265	0.511949	-0.775320
F103	F	-0.243412	-0.301089	0.016351
F104	F	0.676591	0.563521	0.178021
F105	F	0.304454	0.568415	0.135585
F106	F	-0.321669	0.076155	0.021661
F107	F	-0.182316	0.620733	-0.593798
H108	H	-0.203359	0.633679	-0.369342
H109	H	-0.237251	0.413241	0.015985
F110	F	0.053431	-0.276577	-0.003722
H111	H	-0.235744	0.321786	0.015859
H112	H	0.023635	0.434779	-0.001675
H113	H	0.033835	-0.180304	-0.002413
F114	F	-0.320888	0.028968	0.021603
F115	F	0.119749	0.065336	-0.008226
F116	F	0.121475	-0.038719	-0.008344
