data_functionalizedCrystal
_audit_creation_method	'MofGen! by Chris Wilmer'
_symmetry_space_group_name_H-M	'P1'
_symmetry_Int_Tables_number	1
_symmetry_cell_setting	triclinic
loop_
_symmetry_equiv_pos_as_xyz
  x,y,z
_cell_length_a	6.817900
_cell_length_b	11.102193
_cell_length_c	16.015572
_cell_angle_alpha	76.745801
_cell_angle_beta	104.485554
_cell_angle_gamma	108.604125
loop_
_atom_site_label
_atom_site_type_symbol
_atom_site_fract_x
_atom_site_fract_y
_atom_site_fract_z
V1	V	-3.999218	-0.051261	-0.269394
O2	O	-3.960396	0.130656	-0.264262
O3	O	-3.976757	-0.224932	-0.267555
O4	O	-3.927020	0.005776	-0.386884
O5	O	-4.010478	-0.101650	-0.144107
V6	V	-4.482569	-0.036148	-0.254408
O7	O	-4.260855	-0.084413	-0.302266
O8	O	-4.671130	-0.002996	-0.221536
O9	O	-4.281824	0.137524	-0.256247
O10	O	-4.638789	-0.218064	-0.259540
O11	O	-4.588707	0.014242	-0.379695
O12	O	-4.331562	-0.093185	-0.136918
C13	C	-3.828838	-0.269027	-0.263306
C14	C	-3.891601	-0.410644	-0.262585
C15	C	-3.955160	-0.713639	-0.102967
C16	C	-3.898483	-0.665543	-0.024181
C17	C	-3.839513	-0.532482	-0.024861
C18	C	-3.837216	-0.447512	-0.104334
C19	C	-3.893893	-0.495608	-0.183120
C20	C	-3.952868	-0.628675	-0.182432
C21	C	-3.948279	-0.458740	-0.341371
C22	C	-4.007264	-0.591802	-0.340694
C23	C	-3.945982	-0.373771	-0.420844
C24	C	-4.002675	-0.421867	-0.499632
C25	C	-4.061650	-0.554937	-0.498950
C26	C	-4.063942	-0.639898	-0.419480
C27	C	-3.765392	0.025266	-0.415522
C28	C	-3.787816	0.070751	-0.511571
C29	C	-4.136748	-0.332974	-0.889211
C30	C	-4.157818	-0.290192	-0.979459
C31	C	-4.047773	-0.068856	-0.954749
C32	C	-4.026683	-0.111619	-0.864496
C33	C	-4.071177	-0.243679	-0.831735
C34	C	-3.961112	-0.022324	-0.807020
C35	C	-3.940035	-0.065084	-0.716775
C36	C	-3.984530	-0.197139	-0.684007
C37	C	-4.050100	-0.286439	-0.741490
C38	C	-3.916633	0.109735	-0.839783
C39	C	-3.851062	0.199030	-0.782307
C40	C	-3.829970	0.156271	-0.692060
C41	C	-3.874464	0.024216	-0.659292
C42	C	-3.764399	0.245571	-0.634576
C43	C	-3.743322	0.202811	-0.544332
C44	C	-3.853388	-0.018544	-0.569047
C45	C	-4.093087	0.181611	-0.260494
C46	C	-4.009561	0.323229	-0.261220
C47	C	-4.156533	-0.112681	-0.108276
C48	C	-4.113346	-0.158160	-0.012226
H49	H	-3.793346	-0.493323	0.039294
C50	C	-3.715472	0.390827	-0.670622
H51	H	-3.737411	0.403503	-0.732600
H52	H	-3.805945	0.426538	-0.653562
H53	H	-3.572845	0.432051	-0.647950
C54	C	-4.099053	-0.431704	-0.705447
H55	H	-4.141137	-0.478767	-0.752602
H56	H	-3.976583	-0.450234	-0.667940
H57	H	-4.209684	-0.455730	-0.673572
H58	H	-3.933767	0.144547	-0.913266
C59	C	-4.128803	-0.786263	-0.418725
H60	H	-4.122036	-0.829973	-0.360112
H61	H	-4.268753	-0.812428	-0.450552
H62	H	-4.035593	-0.806688	-0.445032
C63	C	-3.671185	0.301031	-0.481105
H64	H	-3.647684	0.385805	-0.513540
H65	H	-3.777219	0.286194	-0.448196
H66	H	-3.544118	0.291702	-0.442578
C67	C	-4.020045	-0.860004	-0.102217
H68	H	-4.013289	-0.903719	-0.043605
H69	H	-4.159996	-0.886156	-0.134046
H70	H	-3.926844	-0.880437	-0.128525
C71	C	-3.772333	-0.301148	-0.105080
H72	H	-3.738911	-0.284673	-0.046776
H73	H	-3.652471	-0.261376	-0.131704
H74	H	-3.885619	-0.267101	-0.137211
H75	H	-4.107784	-0.594087	-0.563107
H76	H	-4.172953	-0.440509	-0.862535
C77	C	-3.881115	-0.227407	-0.421592
H78	H	-3.847708	-0.210929	-0.363290
H79	H	-3.761249	-0.187629	-0.448213
H80	H	-3.994407	-0.193368	-0.453728
H81	H	-4.211207	-0.362917	-1.026255
H82	H	-4.000785	-0.352675	-0.564333
C83	C	-3.802114	0.344287	-0.818349
H84	H	-3.824043	0.356967	-0.880327
H85	H	-3.892579	0.380006	-0.801291
H86	H	-3.659484	0.385501	-0.795673
H87	H	-4.011558	0.038668	-0.981436
H88	H	-3.889592	-0.126080	-0.542371
H89	H	-3.967371	-0.231952	-0.610523
H90	H	-3.900355	-0.734739	0.040524
