data_functionalizedCrystal
_audit_creation_method	'MofGen! by Chris Wilmer'
_symmetry_space_group_name_H-M	'P1'
_symmetry_Int_Tables_number	1
_symmetry_cell_setting	triclinic
loop_
_symmetry_equiv_pos_as_xyz
  x,y,z
_cell_length_a	21.295417
_cell_length_b	18.215407
_cell_length_c	21.295420
_cell_angle_alpha	90.006529
_cell_angle_beta	90.018953
_cell_angle_gamma	90.030955
loop_
_atom_site_label
_atom_site_type_symbol
_atom_site_fract_x
_atom_site_fract_y
_atom_site_fract_z
Zn1	Zn	-0.250690	1.124947	0.355913
Zn2	Zn	-0.000690	1.374947	0.605913
Zn3	Zn	0.249310	1.624947	0.855913
Zn4	Zn	0.499310	1.874947	1.105913
Zn5	Zn	-0.355937	1.124871	0.250639
Zn6	Zn	-0.105937	1.374871	0.500639
Zn7	Zn	0.144063	1.624871	0.750639
Zn8	Zn	0.394063	1.874871	1.000639
Zn9	Zn	-0.250687	1.001908	0.250658
Zn10	Zn	-0.000687	1.251908	0.500658
Zn11	Zn	0.249313	1.501908	0.750658
Zn12	Zn	0.499313	1.751908	1.000658
Zn13	Zn	-0.355926	1.001833	0.355870
Zn14	Zn	-0.105926	1.251833	0.605870
Zn15	Zn	0.144074	1.501833	0.855870
Zn16	Zn	0.394074	1.751833	1.105870
O17	O	-0.303310	1.063390	0.303270
O18	O	-0.053310	1.313390	0.553270
O19	O	0.196690	1.563390	0.803270
O20	O	0.446690	1.813390	1.053270
O21	O	-0.264657	1.227921	0.341958
O22	O	-0.014657	1.477921	0.591958
O23	O	0.235343	1.727921	0.841958
O24	O	0.485343	1.977921	1.091958
O25	O	-0.341978	1.108560	0.162552
O26	O	-0.091978	1.358560	0.412552
O27	O	0.158022	1.608560	0.662552
O28	O	0.408022	1.858560	0.912552
O29	O	-0.162598	1.018292	0.264647
O30	O	0.087402	1.268292	0.514647
O31	O	0.337402	1.518292	0.764647
O32	O	0.587402	1.768292	1.014647
O33	O	-0.341982	1.227866	0.264614
O34	O	-0.091982	1.477866	0.514614
O35	O	0.158018	1.727866	0.764614
O36	O	0.408018	1.977866	1.014614
O37	O	-0.162600	1.108688	0.341977
O38	O	0.087400	1.358688	0.591977
O39	O	0.337400	1.608688	0.841977
O40	O	0.587400	1.858688	1.091977
O41	O	-0.264651	1.018219	0.162566
O42	O	-0.014651	1.268219	0.412566
O43	O	0.235349	1.518219	0.662566
O44	O	0.485349	1.768219	0.912566
O45	O	-0.264641	0.898914	0.264605
O46	O	-0.014641	1.148914	0.514605
O47	O	0.235359	1.398914	0.764605
O48	O	0.485359	1.648914	1.014605
O49	O	-0.341964	1.018164	0.443965
O50	O	-0.091964	1.268164	0.693965
O51	O	0.158036	1.518164	0.943965
O52	O	0.408036	1.768164	1.193965
O53	O	-0.341960	0.898859	0.341904
O54	O	-0.091960	1.148859	0.591904
O55	O	0.158040	1.398859	0.841904
O56	O	0.408040	1.648859	1.091904
O57	O	-0.264647	1.108615	0.443997
O58	O	-0.014647	1.358615	0.693997
O59	O	0.235353	1.608615	0.943997
O60	O	0.485353	1.858615	1.193997
O61	O	-0.444025	1.108487	0.264572
O62	O	-0.194025	1.358487	0.514572
O63	O	0.055975	1.608487	0.764572
O64	O	0.305975	1.858487	1.014572
O65	O	-0.444017	1.018092	0.341885
O66	O	-0.194017	1.268092	0.591885
O67	O	0.055983	1.518092	0.841885
O68	O	0.305983	1.768092	1.091885
C69	C	-0.303299	0.872183	0.303252
C70	C	-0.053299	1.122183	0.553252
C71	C	0.196701	1.372183	0.803252
C72	C	0.446701	1.622183	1.053252
C73	C	-0.303310	0.790384	0.303259
C74	C	-0.053310	1.040384	0.553259
C75	C	0.196690	1.290384	0.803259
C76	C	0.446690	1.540384	1.053259
C77	C	-0.343633	0.602181	0.343458
C78	C	-0.093633	0.852181	0.593458
C79	C	0.156367	1.102181	0.843458
C80	C	0.406367	1.352181	1.093458
C81	C	-0.343635	0.525322	0.343466
C82	C	-0.093635	0.775322	0.593466
C83	C	0.156365	1.025322	0.843466
C84	C	0.406365	1.275322	1.093466
C85	C	-0.262998	0.525350	0.263096
C86	C	-0.012998	0.775350	0.513096
C87	C	0.237002	1.025350	0.763096
C88	C	0.487002	1.275350	1.013096
C89	C	-0.262994	0.602207	0.263092
C90	C	-0.012994	0.852207	0.513092
C91	C	0.237006	1.102207	0.763092
C92	C	0.487006	1.352207	1.013092
C93	C	-0.303315	0.640621	0.303272
C94	C	-0.053315	0.890621	0.553272
C95	C	0.196685	1.140621	0.803272
C96	C	0.446685	1.390621	1.053272
C97	C	-0.303321	0.486905	0.303284
C98	C	-0.053321	0.736905	0.553284
C99	C	0.196679	0.986905	0.803284
C100	C	0.446679	1.236905	1.053284
C101	C	-0.303323	0.403571	0.303292
C102	C	-0.053323	0.653571	0.553292
C103	C	0.196677	0.903571	0.803292
C104	C	0.446677	1.153571	1.053292
C105	C	-0.303312	0.723960	0.303265
C106	C	-0.053312	0.973960	0.553265
C107	C	0.196688	1.223960	0.803265
C108	C	0.446688	1.473960	1.053265
C109	C	-0.466862	1.063293	0.303235
C110	C	-0.216862	1.313293	0.553235
C111	C	0.033138	1.563293	0.803235
C112	C	0.283138	1.813293	1.053235
C113	C	-0.536830	1.063319	0.303241
C114	C	-0.286830	1.313319	0.553241
C115	C	-0.036830	1.563319	0.803241
C116	C	0.213170	1.813319	1.053241
C117	C	-0.569680	1.110430	0.263026
C118	C	-0.319680	1.360430	0.513026
C119	C	-0.069680	1.610430	0.763026
C120	C	0.180320	1.860430	1.013026
C121	C	-0.635422	1.110465	0.263040
C122	C	-0.385422	1.360465	0.513040
C123	C	-0.135422	1.610465	0.763040
C124	C	0.114578	1.860465	1.013040
C125	C	-0.668312	1.063375	0.303263
C126	C	-0.418312	1.313375	0.553263
C127	C	-0.168312	1.563375	0.803263
C128	C	0.081688	1.813375	1.053263
C129	C	-0.635454	1.016261	0.343487
C130	C	-0.385454	1.266261	0.593487
C131	C	-0.135454	1.516261	0.843487
C132	C	0.114546	1.766261	1.093487
C133	C	-0.569713	1.016233	0.343476
C134	C	-0.319713	1.266233	0.593476
C135	C	-0.069713	1.516233	0.843476
C136	C	0.180287	1.766233	1.093476
N137	N	-0.771580	0.998995	0.308056
N138	N	-0.521580	1.248995	0.558056
N139	N	-0.271580	1.498995	0.808056
N140	N	-0.021580	1.748995	1.058056
N141	N	-0.834031	0.999024	0.308063
N142	N	-0.584031	1.249024	0.558063
N143	N	-0.334031	1.499024	0.808063
N144	N	-0.084031	1.749024	1.058063
C145	C	-0.866387	1.063458	0.303299
C146	C	-0.616387	1.313458	0.553299
C147	C	-0.366387	1.563458	0.803299
C148	C	-0.116387	1.813458	1.053299
N149	N	-0.833932	1.127863	0.298517
N150	N	-0.583932	1.377863	0.548517
N151	N	-0.333932	1.627863	0.798517
N152	N	-0.083932	1.877863	1.048517
N153	N	-0.771475	1.127834	0.298507
N154	N	-0.521475	1.377834	0.548507
N155	N	-0.271475	1.627834	0.798507
N156	N	-0.021475	1.877834	1.048507
C157	C	-0.739598	1.063400	0.303280
C158	C	-0.489598	1.313400	0.553280
C159	C	-0.239598	1.563400	0.803280
C160	C	0.010402	1.813400	1.053280
C161	C	-0.970522	1.110610	0.263097
C162	C	-0.720522	1.360610	0.513097
C163	C	-0.470522	1.610610	0.763097
C164	C	-0.220522	1.860610	1.013097
C165	C	-1.036266	1.110646	0.263115
C166	C	-0.786266	1.360646	0.513115
C167	C	-0.536266	1.610646	0.763115
C168	C	-0.286266	1.860646	1.013115
C169	C	-1.036297	1.016435	0.343559
C170	C	-0.786297	1.266435	0.593559
C171	C	-0.536297	1.516435	0.843559
C172	C	-0.286297	1.766435	1.093559
C173	C	-0.970555	1.016406	0.343543
C174	C	-0.720555	1.266406	0.593543
C175	C	-0.470555	1.516406	0.843543
C176	C	-0.220555	1.766406	1.093543
C177	C	-0.937671	1.063492	0.303309
C178	C	-0.687671	1.313492	0.553309
C179	C	-0.437671	1.563492	0.803309
C180	C	-0.187671	1.813492	1.053309
C181	C	-0.139120	1.063507	0.303319
C182	C	0.110880	1.313507	0.553319
C183	C	0.360880	1.563507	0.803319
C184	C	0.610880	1.813507	1.053319
C185	C	-0.069152	1.063556	0.303340
C186	C	0.180848	1.313556	0.553340
C187	C	0.430848	1.563556	0.803340
C188	C	0.680848	1.813556	1.053340
C189	C	-0.303304	1.063390	0.467460
C190	C	-0.053304	1.313390	0.717460
C191	C	0.196696	1.563390	0.967460
C192	C	0.446696	1.813390	1.217460
C193	C	-0.303302	1.063390	0.537428
C194	C	-0.053302	1.313390	0.787428
C195	C	0.196698	1.563390	1.037428
C196	C	0.446698	1.813390	1.287428
C197	C	-0.303321	1.255343	0.303289
C198	C	-0.053321	1.505343	0.553289
C199	C	0.196679	1.755343	0.803289
C200	C	0.446679	2.005343	1.053289
C201	C	-0.303326	1.337141	0.303296
C202	C	-0.053326	1.587141	0.553296
C203	C	0.196674	1.837141	0.803296
C204	C	0.446674	2.087141	1.053296
C205	C	-0.263050	1.110455	1.036904
C206	C	-0.013050	1.360455	1.286904
C207	C	0.236950	1.610455	1.536904
C208	C	0.486950	1.860455	1.786904
C209	C	-0.263052	1.110463	0.971161
C210	C	-0.013052	1.360463	1.221161
C211	C	0.236948	1.610463	1.471161
C212	C	0.486948	1.860463	1.721161
C213	C	-0.303305	1.063372	0.938268
C214	C	-0.053305	1.313372	1.188268
C215	C	0.196695	1.563372	1.438268
C216	C	0.446695	1.813372	1.688268
C217	C	-0.343571	1.016282	0.971122
C218	C	-0.093571	1.266282	1.221122
C219	C	0.156429	1.516282	1.471122
C220	C	0.406429	1.766282	1.721122
C221	C	-0.343573	1.016281	1.036864
C222	C	-0.093573	1.266281	1.286864
C223	C	0.156427	1.516281	1.536864
C224	C	0.406427	1.766281	1.786864
N225	N	-0.308127	0.998951	0.835039
N226	N	-0.058127	1.248951	1.085039
N227	N	0.191873	1.498951	1.335039
N228	N	0.441873	1.748951	1.585039
N229	N	-0.308121	0.998954	0.772588
N230	N	-0.058121	1.248954	1.022588
N231	N	0.191879	1.498954	1.272588
N232	N	0.441879	1.748954	1.522588
C233	C	-0.303302	1.063374	0.740193
C234	C	-0.053302	1.313374	0.990193
C235	C	0.196698	1.563374	1.240193
C236	C	0.446698	1.813374	1.490193
N237	N	-0.298476	1.127791	0.772609
N238	N	-0.048476	1.377791	1.022609
N239	N	0.201524	1.627791	1.272609
N240	N	0.451524	1.877791	1.522609
N241	N	-0.298478	1.127787	0.835067
N242	N	-0.048478	1.377787	1.085067
N243	N	0.201522	1.627787	1.335067
N244	N	0.451522	1.877787	1.585067
C245	C	-0.303307	1.063368	0.866983
C246	C	-0.053307	1.313368	1.116983
C247	C	0.196693	1.563368	1.366983
C248	C	0.446693	1.813368	1.616983
C249	C	-0.263042	1.110472	0.636061
C250	C	-0.013042	1.360472	0.886061
C251	C	0.236958	1.610472	1.136061
C252	C	0.486958	1.860472	1.386061
C253	C	-0.263048	1.110481	0.570317
C254	C	-0.013048	1.360481	0.820317
C255	C	0.236952	1.610481	1.070317
C256	C	0.486952	1.860481	1.320317
C257	C	-0.343564	1.016294	0.570280
C258	C	-0.093564	1.266294	0.820280
C259	C	0.156436	1.516294	1.070280
C260	C	0.406436	1.766294	1.320280
C261	C	-0.343562	1.016291	0.636022
C262	C	-0.093562	1.266291	0.886022
C263	C	0.156438	1.516291	1.136022
C264	C	0.406438	1.766291	1.386022
C265	C	-0.303297	1.063379	0.668909
C266	C	-0.053297	1.313379	0.918909
C267	C	0.196703	1.563379	1.168909
C268	C	0.446703	1.813379	1.418909
C269	C	-0.303324	1.063380	1.139719
C270	C	-0.053324	1.313380	1.389719
C271	C	0.196676	1.563380	1.639719
C272	C	0.446676	1.813380	1.889719
C273	C	-0.303309	1.063369	1.069750
C274	C	-0.053309	1.313369	1.319750
C275	C	0.196691	1.563369	1.569750
C276	C	0.446691	1.813369	1.819750
H277	H	-0.542908	1.148772	0.230266
H278	H	-0.292908	1.398772	0.480266
H279	H	-0.042908	1.648772	0.730266
H280	H	0.207092	1.898772	0.980266
H281	H	-1.063011	1.149014	0.230368
H282	H	-0.813011	1.399014	0.480368
H283	H	-0.563011	1.649014	0.730368
H284	H	-0.313011	1.899014	0.980368
F285	F	-0.386412	0.966166	0.936114
F286	F	-0.136412	1.216166	1.186114
F287	F	0.113588	1.466166	1.436114
F288	F	0.363588	1.716166	1.686114
F289	F	-0.220075	0.643120	0.220321
F290	F	0.029925	0.893120	0.470321
F291	F	0.279925	1.143120	0.720321
F292	F	0.529925	1.393120	0.970321
H293	H	-0.376464	0.633455	0.376177
H294	H	-0.126464	0.883455	0.626177
H295	H	0.123536	1.133455	0.876177
H296	H	0.373536	1.383455	1.126177
F297	F	-0.386547	0.484415	0.386239
F298	F	-0.136547	0.734415	0.636239
F299	F	0.113453	0.984415	0.886239
F300	F	0.363453	1.234415	1.136239
H301	H	-1.063076	0.978097	0.376312
H302	H	-0.813076	1.228097	0.626312
H303	H	-0.563076	1.478097	0.876312
H304	H	-0.313076	1.728097	1.126312
F305	F	-0.670391	1.160608	0.220235
F306	F	-0.420391	1.410608	0.470235
F307	F	-0.170391	1.660608	0.720235
F308	F	0.079609	1.910608	0.970235
F309	F	-0.670459	0.966148	0.386297
F310	F	-0.420459	1.216148	0.636297
F311	F	-0.170459	1.466148	0.886297
F312	F	0.079541	1.716148	1.136297
H313	H	-0.230171	0.494064	0.230381
H314	H	0.019829	0.744064	0.480381
H315	H	0.269829	0.994064	0.730381
H316	H	0.519829	1.244064	0.980381
H317	H	-0.943748	1.148953	0.230337
H318	H	-0.693748	1.398953	0.480337
H319	H	-0.443748	1.648953	0.730337
H320	H	-0.193748	1.898953	0.980337
F321	F	-0.534751	0.966089	0.386281
F322	F	-0.284751	1.216089	0.636281
F323	F	-0.034751	1.466089	0.886281
F324	F	0.215249	1.716089	1.136281
H325	H	-0.943806	0.978041	0.376288
H326	H	-0.693806	1.228041	0.626288
H327	H	-0.443806	1.478041	0.876288
H328	H	-0.193806	1.728041	1.126288
H329	H	-0.230266	1.148829	0.543575
H330	H	0.019734	1.398829	0.793575
H331	H	0.269734	1.648829	1.043575
H332	H	0.519734	1.898829	1.293575
F333	F	-0.220217	1.160594	1.071901
F334	F	0.029783	1.410594	1.321901
F335	F	0.279783	1.660594	1.571901
F336	F	0.529783	1.910594	1.821901
H337	H	-0.230266	1.148806	0.944413
H338	H	0.019734	1.398806	1.194413
H339	H	0.269734	1.648806	1.444413
H340	H	0.519734	1.898806	1.694413
F341	F	-0.386409	0.966174	0.670981
F342	F	-0.136409	1.216174	0.920981
F343	F	0.113591	1.466174	1.170981
F344	F	0.363591	1.716174	1.420981
F345	F	-0.386424	0.966164	1.071822
F346	F	-0.136424	1.216164	1.321822
F347	F	0.113576	1.466164	1.571822
F348	F	0.363576	1.716164	1.821822
H349	H	-0.230257	1.148814	0.662839
H350	H	0.019743	1.398814	0.912839
H351	H	0.269743	1.648814	1.162839
H352	H	0.519743	1.898814	1.412839
F353	F	-0.386410	0.966182	0.535276
F354	F	-0.136410	1.216182	0.785276
F355	F	0.113590	1.466182	1.035276
F356	F	0.363590	1.716182	1.285276
