data_functionalizedCrystal
_audit_creation_method	'MofGen! by Chris Wilmer'
_symmetry_space_group_name_H-M	'P1'
_symmetry_Int_Tables_number	1
_symmetry_cell_setting	triclinic
loop_
_symmetry_equiv_pos_as_xyz
  x,y,z
_cell_length_a	10.654550
_cell_length_b	16.992695
_cell_length_c	9.130313
_cell_angle_alpha	89.998255
_cell_angle_beta	89.996220
_cell_angle_gamma	87.576563
loop_
_atom_site_label
_atom_site_type_symbol
_atom_site_fract_x
_atom_site_fract_y
_atom_site_fract_z
O1	O	1.677356	0.110186	-0.121922
O2	O	1.312785	0.120685	-0.121899
O3	O	1.493609	0.001285	-0.121899
O4	O	1.496532	0.229586	-0.121922
O5	O	1.493607	0.001288	0.121700
O6	O	1.312783	0.120688	0.121700
O7	O	1.677354	0.110190	0.121676
Cu8	Cu	1.495068	0.115439	0.143931
Cu9	Cu	1.495071	0.115435	-0.144153
O10	O	1.496530	0.229589	0.121676
C11	C	1.265919	0.119915	-0.000097
C12	C	1.126277	0.117609	-0.000087
C13	C	1.052866	0.187910	-0.000116
C14	C	0.921658	0.185738	-0.000141
C15	C	0.937282	0.042959	-0.000115
C16	C	1.068488	0.045131	-0.000080
C17	C	1.043844	0.270342	-0.000137
C18	C	0.912636	0.268171	-0.000162
C19	C	1.489848	-0.027947	-0.000100
C20	C	1.478628	-0.115052	-0.000099
C21	C	1.586879	-0.164704	-0.000105
C22	C	1.576330	-0.246548	-0.000118
C23	C	1.457529	-0.278738	-0.000115
C24	C	1.349270	-0.229080	-0.000114
C25	C	1.359820	-0.147237	-0.000112
C26	C	1.413802	-0.522574	-0.000133
C27	C	1.403260	-0.604422	-0.000131
C28	C	1.630321	-0.621884	-0.000137
C29	C	1.640861	-0.540040	-0.000126
C30	C	1.532602	-0.490389	-0.000132
N31	N	1.446743	-0.362396	-0.000124
N32	N	1.543389	-0.406733	-0.000134
C33	C	1.724220	0.110959	-0.000129
C34	C	1.863862	0.113265	-0.000148
C35	C	1.500291	0.258821	-0.000126
C36	C	1.511510	0.345926	-0.000136
N37	N	1.495076	0.115441	0.346553
N38	N	1.495073	0.115427	-0.346776
C39	C	1.575168	0.062589	0.423205
C40	C	1.575164	0.062580	0.576542
C41	C	1.414971	0.168281	0.576561
C42	C	1.414970	0.168286	0.423227
C43	C	1.667658	0.001565	0.423195
C44	C	1.667654	0.001556	0.576532
H45	H	0.873588	0.299229	-0.102119
C46	C	1.717571	-0.129302	-0.000107
N47	N	1.816011	-0.102641	-0.000116
C48	C	1.326858	0.226407	0.660917
N49	N	1.260489	0.270188	0.724452
C50	C	1.695416	-0.301161	-0.000100
N51	N	1.785117	-0.342297	-0.000079
H52	H	1.737601	-0.513837	-0.000128
C53	C	1.095086	0.305786	-0.142233
N54	N	1.133684	0.332474	-0.249268
H55	H	0.890215	-0.016050	-0.000131
C56	C	1.272564	-0.639829	-0.000139
N57	N	1.174128	-0.666498	-0.000146
H58	H	0.869116	0.293084	0.105003
H59	H	1.075960	0.302583	0.101811
C60	C	1.294712	-0.467968	-0.000148
N61	N	1.205008	-0.426836	-0.000164
H62	H	1.765327	0.014998	0.618141
C63	C	1.619765	-0.075420	0.640785
N64	N	1.583688	-0.133395	0.689181
H65	H	1.718459	-0.662319	-0.000135
H66	H	1.128255	-0.012114	-0.000035
C67	C	1.631641	-0.079894	0.366972
N68	N	1.604510	-0.141248	0.324625
C69	C	1.793075	0.027373	0.358928
N70	N	1.887541	0.046812	0.310521
H71	H	1.271671	-0.106811	-0.000107
C72	C	1.218587	-0.264492	-0.000099
N73	N	1.120154	-0.291164	-0.000077
C74	C	1.326964	0.226488	0.338915
N75	N	1.260716	0.270352	0.275412
