data_functionalizedCrystal
_audit_creation_method	'MofGen! by Chris Wilmer'
_symmetry_space_group_name_H-M	'P1'
_symmetry_Int_Tables_number	1
_symmetry_cell_setting	triclinic
loop_
_symmetry_equiv_pos_as_xyz
  x,y,z
_cell_length_a	10.654556
_cell_length_b	27.731996
_cell_length_c	9.130313
_cell_angle_alpha	89.989531
_cell_angle_beta	89.998135
_cell_angle_gamma	83.554462
loop_
_atom_site_label
_atom_site_type_symbol
_atom_site_fract_x
_atom_site_fract_y
_atom_site_fract_z
O1	O	1.664947	0.067902	-0.121765
O2	O	1.299195	0.074367	-0.121783
O3	O	1.493465	0.000807	-0.121742
O4	O	1.470678	0.141462	-0.121806
O5	O	1.493452	0.000805	0.121857
O6	O	1.299182	0.074365	0.121816
O7	O	1.664934	0.067900	0.121833
Cu8	Cu	1.482057	0.071132	0.144067
Cu9	Cu	1.482072	0.071135	-0.144017
O10	O	1.470665	0.141460	0.121793
C11	C	1.252411	0.073890	0.000015
C12	C	1.113028	0.072468	0.000010
C13	C	0.916575	0.070467	-0.132763
C14	C	1.047541	0.071800	-0.132773
C15	C	1.047545	0.071798	0.132812
C16	C	0.916583	0.070461	0.132820
C17	C	1.492990	-0.017204	0.000063
C18	C	1.491580	-0.070870	0.000077
C19	C	1.482717	-0.403640	-0.132780
C20	C	1.477363	-0.605332	-0.132806
O21	O	1.476622	-0.631406	-0.245736
N22	N	1.476690	-0.630554	-0.000022
C23	C	1.477349	-0.605350	0.132779
O24	O	1.476641	-0.631431	0.245719
C25	C	1.482694	-0.403659	0.132803
C26	C	1.483379	-0.378440	0.000010
C27	C	1.483400	-0.378421	-0.265563
C28	C	1.484745	-0.328001	-0.265555
C29	C	1.485407	-0.302801	-0.132765
C30	C	1.484724	-0.328020	0.000018
C31	C	1.483343	-0.378456	0.265602
C32	C	1.484676	-0.328029	0.265596
C33	C	1.485361	-0.302810	0.132803
C34	C	1.486731	-0.252400	0.132816
N35	N	1.487403	-0.227178	0.000031
C36	C	1.486741	-0.252378	-0.132759
C37	C	1.474545	-0.711241	0.132756
C38	C	1.473211	-0.761664	0.132751
C39	C	1.473223	-0.761641	-0.132835
C40	C	1.474566	-0.711218	-0.132827
C41	C	1.475217	-0.686019	-0.000028
C42	C	1.489568	-0.146493	-0.132732
C43	C	1.490918	-0.096070	-0.132713
C44	C	1.490900	-0.096096	0.132872
C45	C	1.489556	-0.146516	0.132853
C46	C	1.488886	-0.171713	0.000039
O47	O	1.487458	-0.226294	0.245687
O48	O	1.487421	-0.226288	-0.245683
C49	C	1.481371	-0.454059	-0.132788
C50	C	1.480688	-0.479279	-0.000006
C51	C	1.481350	-0.454079	0.132784
C52	C	1.479354	-0.529702	-0.000011
C53	C	1.478692	-0.554902	-0.132802
C54	C	1.479364	-0.529679	-0.265586
C55	C	1.480709	-0.479260	-0.265578
C56	C	1.480678	-0.479301	0.265569
C57	C	1.479334	-0.529721	0.265550
C58	C	1.478672	-0.554921	0.132760
C59	C	1.711718	0.068376	0.000032
C60	C	1.851101	0.069798	0.000028
C61	C	1.471139	0.159471	-0.000015
C62	C	1.472549	0.213136	-0.000040
N63	N	1.482055	0.071130	0.346690
N64	N	1.482084	0.071133	-0.346639
C65	C	1.568106	0.038572	0.423360
C66	C	1.568118	0.038572	0.576697
C67	C	1.396024	0.103693	0.576680
C68	C	1.396007	0.103690	0.423346
H69	H	1.100845	0.072344	-0.240905
C70	C	1.643475	-0.044844	0.376281
C71	C	1.662676	0.002767	0.339134
H72	H	1.701854	-0.066953	0.324290
H73	H	1.655781	-0.049487	0.478570
H74	H	1.559771	-0.050384	0.351152
H75	H	1.746378	0.008308	0.364274
H76	H	1.650380	0.007411	0.236823
C77	C	1.178082	0.131290	0.623928
C78	C	1.301448	0.139482	0.660952
H79	H	1.119697	0.153384	0.675962
H80	H	1.165761	0.135951	0.521649
H81	H	1.165118	0.098980	0.649090
H82	H	1.314415	0.171791	0.635781
H83	H	1.313774	0.134825	0.763255
C84	C	1.320585	0.187103	0.376072
C85	C	1.301416	0.139483	0.339058
H86	H	1.262194	0.209197	0.324028
H87	H	1.308276	0.191763	0.478349
H88	H	1.404284	0.192647	0.350915
H89	H	1.217720	0.133938	0.364225
H90	H	1.313716	0.134821	0.236758
C91	C	0.715829	0.068402	0.250755
C92	C	0.844604	0.069721	0.278795
H93	H	0.671396	0.067940	0.340871
H94	H	0.684233	0.096320	0.196201
H95	H	0.704524	0.040048	0.196195
H96	H	0.855909	0.098078	0.333345
H97	H	0.876209	0.041801	0.333372
H98	H	0.863264	0.069927	-0.240891
H99	H	1.100877	0.072339	0.240926
C100	C	1.368041	-0.649444	-0.286906
C101	C	1.475276	-0.683502	-0.278804
H102	H	1.368474	-0.632335	-0.377030
H103	H	1.294291	-0.665680	-0.281359
H104	H	1.368646	-0.627213	-0.207832
H105	H	1.474666	-0.705735	-0.357872
H106	H	1.549045	-0.667266	-0.284366
H107	H	1.491479	-0.075539	-0.240854
H108	H	1.485188	-0.307513	0.373740
C109	C	1.474429	-0.716340	0.395275
C110	C	1.475287	-0.683547	0.278744
H111	H	1.474902	-0.699244	0.485399
H112	H	1.400653	-0.732561	0.389749
H113	H	1.547163	-0.739451	0.389715
H114	H	1.402547	-0.660438	0.284297
H115	H	1.549070	-0.667318	0.284272
H116	H	1.489016	-0.167003	-0.240882
C117	C	1.377089	-0.307453	-0.491878
C118	C	1.485426	-0.300309	-0.411575
H119	H	1.377488	-0.290365	-0.582040
H120	H	1.376225	-0.341094	-0.510776
H121	H	1.304079	-0.295740	-0.437284
H122	H	1.558436	-0.312026	-0.466165
H123	H	1.486302	-0.266661	-0.392682
C124	C	1.373926	-0.430033	-0.419699
C125	C	1.482677	-0.406115	-0.411544
H126	H	1.373486	-0.447125	-0.509834
H127	H	1.373339	-0.452274	-0.340645
H128	H	1.301197	-0.406918	-0.414174
H129	H	1.555406	-0.429230	-0.417058
H130	H	1.483276	-0.383871	-0.490620
H131	H	1.472685	-0.782168	-0.240958
C132	C	1.489678	-0.141470	0.395373
C133	C	1.488809	-0.174240	0.278819
H134	H	1.489200	-0.158584	0.485485
H135	H	1.563458	-0.125252	0.389859
H136	H	1.416948	-0.118355	0.389830
H137	H	1.561544	-0.197353	0.284355
H138	H	1.415021	-0.190466	0.284336
H139	H	1.472672	-0.782194	0.240884
C140	C	1.370944	-0.540119	-0.491940
C141	C	1.478613	-0.557388	-0.411548
H142	H	1.370476	-0.557225	-0.582047
H143	H	1.297489	-0.544938	-0.437359
H144	H	1.371862	-0.506481	-0.510957
H145	H	1.477690	-0.591024	-0.392522
H146	H	1.552087	-0.552572	-0.466141
C147	C	1.374201	-0.417540	0.419689
C148	C	1.481413	-0.451608	0.411548
H149	H	1.374660	-0.400449	0.509822
H150	H	1.374804	-0.395300	0.340633
H151	H	1.300428	-0.433770	0.414156
H152	H	1.555187	-0.435378	0.417070
H153	H	1.480821	-0.473851	0.490625
H154	H	1.482787	-0.398981	0.373737
H155	H	1.491445	-0.075569	0.240986
H156	H	1.481266	-0.458731	-0.373712
H157	H	1.478786	-0.550250	0.373695
H158	H	1.638187	0.012059	0.639117
