data_functionalizedCrystal
_audit_creation_method	'MofGen! by Chris Wilmer'
_symmetry_space_group_name_H-M	'P1'
_symmetry_Int_Tables_number	1
_symmetry_cell_setting	triclinic
loop_
_symmetry_equiv_pos_as_xyz
  x,y,z
_cell_length_a	13.033293
_cell_length_b	25.639240
_cell_length_c	13.032268
_cell_angle_alpha	97.139101
_cell_angle_beta	90.920818
_cell_angle_gamma	82.788091
loop_
_atom_site_label
_atom_site_type_symbol
_atom_site_fract_x
_atom_site_fract_y
_atom_site_fract_z
Zn1	Zn	1.498324	0.162670	0.781430
Zn2	Zn	1.520003	0.237808	0.609433
Zn3	Zn	1.348187	0.159909	0.587606
Zn4	Zn	1.326235	0.259605	0.759466
O5	O	1.423187	0.204998	0.684484
O6	O	1.645125	0.164671	0.776940
O7	O	1.515471	0.217197	0.462632
O8	O	1.368217	0.087106	0.613375
O9	O	1.661053	0.219875	0.650575
O10	O	1.478522	0.089135	0.755777
O11	O	1.389238	0.159965	0.446597
O12	O	1.201349	0.181100	0.592077
O13	O	1.330804	0.257024	0.906284
O14	O	1.185221	0.254346	0.718342
O15	O	1.457236	0.185806	0.922421
O16	O	1.494185	0.313868	0.629277
O17	O	1.351825	0.329882	0.739505
C18	C	1.155967	0.219789	0.650458
C19	C	1.041646	0.226131	0.635926
C20	C	0.982785	0.201701	0.692068
C21	C	0.864628	0.208255	0.677050
C22	C	1.423000	0.340847	0.684402
C23	C	1.423010	0.398961	0.684414
C24	C	1.497391	0.750967	0.627171
C25	C	1.497421	0.805570	0.627185
O26	O	1.560530	0.826707	0.578466
N27	N	1.423267	0.841234	0.684517
C28	C	1.349084	0.822292	0.741847
O29	O	1.286013	0.857641	0.790615
C30	C	1.349059	0.767690	0.741839
C31	C	1.423212	0.732029	0.684494
C32	C	1.571539	0.715306	0.569833
C33	C	1.571507	0.660707	0.569818
C34	C	1.497328	0.641768	0.627141
C35	C	1.423180	0.677429	0.684479
C36	C	1.274882	0.748749	0.799174
C37	C	1.274864	0.694143	0.799161
C38	C	1.349017	0.658481	0.741817
C39	C	1.348970	0.603891	0.741787
N40	N	1.423124	0.568227	0.684455
C41	C	1.497303	0.587166	0.627132
C42	C	1.349143	0.936960	0.741863
C43	C	1.349162	0.991561	0.741866
C44	C	1.497501	0.974836	0.627205
C45	C	1.497476	0.920233	0.627197
C46	C	1.423297	0.901296	0.684531
C47	C	1.497230	0.472504	0.627104
C48	C	1.497189	0.417900	0.627090
C49	C	1.348855	0.434630	0.741755
C50	C	1.348892	0.489229	0.741765
C51	C	1.423088	0.508164	0.684437
O52	O	1.285896	0.582716	0.790485
O53	O	1.560371	0.551812	0.578384
C54	C	1.691451	0.190149	0.718642
C55	C	1.805769	0.183822	0.733199
C56	C	1.389153	0.224154	0.952709
C57	C	1.374650	0.232317	1.067011
C58	C	1.423363	1.068619	0.684569
C59	C	1.423346	1.010505	0.684547
C60	C	1.457148	0.185875	0.417309
C61	C	1.471850	0.177554	0.303033
C62	C	1.430740	0.200720	1.125954
C63	C	1.415752	0.209156	1.244091
H64	H	1.004564	0.251898	0.576742
H65	H	1.631950	0.730719	0.523154
H66	H	1.356624	0.242453	1.281083
H67	H	1.315526	0.265612	1.104006
Br68	Br	1.044579	0.158748	0.790708
Br69	Br	1.529247	0.145205	1.064299
Br70	Br	0.802840	0.251202	0.578391
Br71	Br	1.597830	0.369505	0.549259
H72	H	1.557650	0.487913	0.580425
H73	H	1.631891	0.631674	0.523127
Br74	Br	1.598115	0.871841	0.549369
Br75	Br	1.570406	0.122057	1.241391
H76	H	0.842845	0.158049	0.792381
Br77	Br	1.598170	1.000548	0.549403
Br78	Br	1.248509	1.039953	0.819676
H79	H	1.288729	0.921546	0.788547
Br80	Br	1.174190	0.668446	0.876980
Br81	Br	1.174249	0.797134	0.877015
Br82	Br	1.248233	0.537628	0.819561
Br83	Br	1.248191	0.408917	0.819552
