data_functionalizedCrystal
_audit_creation_method	'MofGen! by Chris Wilmer'
_symmetry_space_group_name_H-M	'P1'
_symmetry_Int_Tables_number	1
_symmetry_cell_setting	triclinic
loop_
_symmetry_equiv_pos_as_xyz
  x,y,z
_cell_length_a	10.654550
_cell_length_b	12.837942
_cell_length_c	9.730223
_cell_angle_alpha	89.998888
_cell_angle_beta	89.996251
_cell_angle_gamma	89.656921
loop_
_atom_site_label
_atom_site_type_symbol
_atom_site_fract_x
_atom_site_fract_y
_atom_site_fract_z
O1	O	1.683735	0.145718	-0.114403
O2	O	1.319772	0.159602	-0.114381
O3	O	1.493683	0.001699	-0.114383
O4	O	1.509824	0.303621	-0.114401
O5	O	1.493681	0.001703	0.114196
O6	O	1.319770	0.159606	0.114199
O7	O	1.683734	0.145722	0.114177
Zn8	Zn	1.501752	0.152665	0.150480
Zn9	Zn	1.501754	0.152659	-0.150684
O10	O	1.509822	0.303625	0.114179
C11	C	1.272862	0.158585	-0.000089
C12	C	1.133086	0.155535	-0.000080
C13	C	1.488230	-0.036959	-0.000094
C14	C	1.471967	-0.152153	-0.000095
C15	C	1.063745	0.248505	-0.000105
C16	C	0.932411	0.245633	-0.000129
C17	C	0.939770	0.056812	-0.000107
C18	C	1.071101	0.059685	-0.000074
C19	C	1.059496	0.357520	-0.000124
C20	C	0.928162	0.354648	-0.000148
C21	C	1.667472	-0.391705	-0.000136
C22	C	1.652197	-0.499941	-0.000137
C23	C	1.426146	-0.476862	-0.000109
C24	C	1.441420	-0.368626	-0.000108
C25	C	1.562087	-0.326052	-0.000119
C26	C	1.577360	-0.217814	-0.000108
C27	C	1.351309	-0.194737	-0.000090
C28	C	1.336035	-0.302973	-0.000091
C29	C	1.730644	0.146740	-0.000119
C30	C	1.870420	0.149790	-0.000137
C31	C	1.515276	0.342283	-0.000114
C32	C	1.531538	0.457477	-0.000122
N33	N	1.501759	0.152668	0.356016
N34	N	1.501755	0.152648	-0.356221
C35	C	1.578792	0.082772	0.427941
C36	C	1.578787	0.082760	0.571824
C37	C	1.424714	0.222547	0.571844
C38	C	1.424713	0.222554	0.427964
C39	C	1.667748	0.002070	0.427931
C40	C	1.667744	0.002058	0.571814
H41	H	1.127554	-0.016021	-0.000033
H42	H	0.889286	-0.021226	-0.000123
C43	C	1.203305	-0.349805	-0.000076
C44	C	1.112154	-0.325394	-0.118756
C45	C	0.979421	-0.372222	-0.118737
C46	C	0.937838	-0.443461	-0.000039
C47	C	1.028991	-0.467875	0.118650
C48	C	1.161724	-0.421048	0.118631
H49	H	1.142935	-0.272656	-0.206632
H50	H	0.911944	-0.354148	-0.206599
H51	H	0.839581	-0.478125	-0.000025
H52	H	0.998210	-0.520614	0.206525
H53	H	1.229201	-0.439121	0.206493
C54	C	0.877827	0.410124	-0.129391
C55	C	0.735377	0.417978	-0.154457
C56	C	0.685042	0.473451	-0.283695
C57	C	0.777157	0.521070	-0.387867
C58	C	0.919615	0.513217	-0.362803
C59	C	0.969950	0.457744	-0.233566
H60	H	0.667181	0.382727	-0.077340
H61	H	0.579585	0.479264	-0.302247
H62	H	0.739896	0.562134	-0.483536
H63	H	0.987812	0.548468	-0.439920
H64	H	1.075408	0.451931	-0.215013
C65	C	1.800197	-0.344864	-0.000136
C66	C	1.891335	-0.369267	0.118558
C67	C	2.024062	-0.322426	0.118561
C68	C	2.065651	-0.251183	-0.000129
C69	C	1.974510	-0.226776	-0.118832
C70	C	1.841783	-0.273616	-0.118835
H71	H	1.860551	-0.422009	0.206428
H72	H	2.091530	-0.340494	0.206434
H73	H	2.163903	-0.216508	-0.000127
H74	H	2.005295	-0.174034	-0.206702
H75	H	1.774316	-0.255549	-0.206707
H76	H	0.886085	0.387595	0.098535
C77	C	1.112804	0.404408	-0.133439
C78	C	1.194402	0.502904	-0.127386
C79	C	1.247714	0.549785	-0.260704
C80	C	1.219429	0.498170	-0.400074
C81	C	1.137827	0.399669	-0.406132
C82	C	1.084514	0.352788	-0.272815
H83	H	1.215344	0.541117	-0.024211
H84	H	1.308122	0.622702	-0.256218
H85	H	1.258894	0.532874	-0.498764
H86	H	1.116884	0.361456	-0.509307
H87	H	1.024107	0.279871	-0.277300
C88	C	1.627017	-0.105653	0.375165
C89	C	1.703855	-0.203414	0.413386
C90	C	1.663123	-0.311133	0.360621
C91	C	1.545551	-0.321093	0.269635
C92	C	1.468705	-0.223329	0.231409
C93	C	1.509438	-0.115610	0.284174
H94	H	1.790895	-0.196044	0.480744
H95	H	1.720010	-0.383504	0.388919
H96	H	1.515398	-0.400833	0.230574
H97	H	1.381665	-0.230699	0.164051
H98	H	1.452551	-0.043239	0.255876
H99	H	1.738013	-0.553393	-0.000155
H100	H	1.327904	-0.511545	-0.000115
C101	C	1.615445	-0.099759	0.632093
C102	C	1.698388	-0.168211	0.725575
C103	C	1.646098	-0.270029	0.785849
C104	C	1.510865	-0.303395	0.752640
C105	C	1.427914	-0.234942	0.659152
C106	C	1.480204	-0.133123	0.598879
H107	H	1.798502	-0.143513	0.750163
H108	H	1.707505	-0.320703	0.855055
H109	H	1.472157	-0.378768	0.797258
H110	H	1.327799	-0.259640	0.634565
H111	H	1.418797	-0.082450	0.529673
H112	H	1.265497	-0.141270	-0.000065
H113	H	1.361976	0.279459	0.369403
C114	C	1.800732	0.026078	0.624587
C115	C	1.911257	-0.046132	0.586355
C116	C	2.044236	-0.022109	0.639134
C117	C	2.066690	0.074126	0.730145
C118	C	1.956162	0.146343	0.768382
C119	C	1.823183	0.122319	0.715602
H120	H	1.894638	-0.117376	0.518979
H121	H	2.126056	-0.075569	0.610829
H122	H	2.165129	0.091910	0.769215
H123	H	1.972780	0.217587	0.835757
H124	H	1.741362	0.175779	0.743908
H125	H	1.675613	-0.183153	-0.000112
H126	H	1.093479	0.400157	0.095539
C127	C	1.794655	0.036202	0.367624
C128	C	1.869442	-0.038414	0.274103
C129	C	1.996349	-0.004277	0.213798
C130	C	2.048468	0.104475	0.247014
C131	C	1.973680	0.179097	0.340540
C132	C	1.846773	0.144961	0.400845
H133	H	1.830861	-0.118924	0.249511
H134	H	2.051711	-0.059519	0.144564
H135	H	2.142411	0.129744	0.202373
H136	H	2.012261	0.259608	0.365132
H137	H	1.791411	0.200203	0.470079
H138	H	1.361985	0.279446	0.630439
