data_functionalizedCrystal
_audit_creation_method	'MofGen! by Chris Wilmer'
_symmetry_space_group_name_H-M	'P1'
_symmetry_Int_Tables_number	1
_symmetry_cell_setting	triclinic
loop_
_symmetry_equiv_pos_as_xyz
  x,y,z
_cell_length_a	18.050591
_cell_length_b	19.121063
_cell_length_c	18.050582
_cell_angle_alpha	92.415032
_cell_angle_beta	89.979078
_cell_angle_gamma	92.465257
loop_
_atom_site_label
_atom_site_type_symbol
_atom_site_fract_x
_atom_site_fract_y
_atom_site_fract_z
Zn1	Zn	1.122676	-0.279734	-0.432630
Zn2	Zn	1.117290	-0.397178	-0.313729
Zn3	Zn	0.998495	-0.279737	-0.308441
Zn4	Zn	0.993148	-0.397141	-0.437863
O5	O	1.057903	-0.338447	-0.373166
O6	O	1.225886	-0.295327	-0.416880
O7	O	1.101515	-0.381616	-0.209104
O8	O	1.019460	-0.181452	-0.320512
O9	O	1.221929	-0.381613	-0.329524
O10	O	1.110695	-0.181449	-0.411753
O11	O	1.014237	-0.295332	-0.205219
O12	O	0.893862	-0.295296	-0.325586
O13	O	1.010347	-0.381550	-0.541093
O14	O	0.889934	-0.381552	-0.420672
O15	O	1.105510	-0.295291	-0.537248
O16	O	1.096331	-0.495458	-0.334599
O17	O	1.005124	-0.495430	-0.425799
C18	C	0.864952	-0.338421	-0.373123
C19	C	0.782406	-0.338427	-0.373124
C20	C	0.585072	-0.291466	-0.321528
C21	C	0.532763	-0.355526	-0.306137
C22	C	0.631274	-0.338448	-0.373158
C23	C	0.536500	-0.274410	-0.388548
C24	C	0.485288	-0.338463	-0.373190
C25	C	0.580051	-0.402542	-0.357733
C26	C	0.583794	-0.321383	-0.440174
C27	C	0.531506	-0.385487	-0.424811
C28	C	0.715373	-0.338439	-0.373138
C29	C	0.401191	-0.338480	-0.373211
C30	C	1.049583	-0.520928	-0.381357
C31	C	1.046092	-0.598994	-0.384886
C32	C	1.091975	-0.635661	-0.339100
C33	C	1.088695	-0.709012	-0.342424
C34	C	1.039529	-0.745696	-0.391530
C35	C	0.993644	-0.709024	-0.437321
C36	C	0.996928	-0.635674	-0.434001
C37	C	1.027241	-0.967166	-0.403932
C38	C	1.023960	-1.040521	-0.407247
C39	C	1.119012	-1.040504	-0.312351
C40	C	1.122288	-0.967153	-0.309032
C41	C	1.076406	-0.930487	-0.354825
C42	C	1.036174	-0.820673	-0.394927
C43	C	1.079765	-0.855512	-0.351432
C44	C	1.251607	-0.338474	-0.373208
C45	C	1.334152	-0.338485	-0.373227
C46	C	1.057933	-0.338416	-0.566870
C47	C	1.057946	-0.338403	-0.649415
C48	C	1.066275	-0.155254	-0.364959
C49	C	1.069843	-0.077188	-0.361461
C50	C	1.006237	-0.385246	-0.850954
C51	C	1.073218	-0.402419	-0.901126
C52	C	1.057985	-0.338349	-0.800543
C53	C	0.991042	-0.321157	-0.897452
C54	C	1.058017	-0.338299	-0.946526
C55	C	1.125000	-0.355556	-0.849629
C56	C	1.042780	-0.274264	-0.845950
C57	C	1.109809	-0.291412	-0.896099
C58	C	1.057966	-0.338380	-0.716446
C59	C	1.058044	-0.338268	-1.030621
C60	C	1.057917	-0.338428	-0.180213
C61	C	1.058057	-0.338243	-0.097659
H62	H	0.599186	-0.456720	-0.344666
C63	C	0.900026	-0.701668	-0.530794
C64	C	0.939602	-0.749344	-0.491304
H65	H	0.866665	-0.726560	-0.564123
H66	H	0.872918	-0.673099	-0.497116
H67	H	0.933656	-0.673018	-0.557934
H68	H	0.905972	-0.777991	-0.464159
H69	H	0.966711	-0.777925	-0.524986
C70	C	1.129243	-0.613129	-0.212361
C71	C	1.146020	-0.595342	-0.285119
H72	H	1.162614	-0.588242	-0.179038
H73	H	1.079896	-0.601146	-0.200904
H74	H	1.133856	-0.662063	-0.207798
H75	H	1.141402	-0.546409	-0.289684
H76	H	1.195380	-0.607321	-0.296580
H77	H	0.606202	-0.306918	-0.496817
C78	C	0.537666	-0.152182	-0.351952
C79	C	0.510547	-0.201295	-0.406111
H80	H	0.521648	-0.107043	-0.362794
H81	H	0.519428	-0.164632	-0.304718
H82	H	0.590316	-0.151555	-0.351624
H83	H	0.457896	-0.201926	-0.406435
H84	H	0.528782	-0.188841	-0.453358
C85	C	0.456990	-0.436062	-0.237289
C86	C	0.502465	-0.374986	-0.229663
H87	H	0.438272	-0.448060	-0.190079
H88	H	0.416846	-0.428317	-0.269514
H89	H	0.485017	-0.473233	-0.257437
H90	H	0.474436	-0.337813	-0.209521
H91	H	0.542615	-0.382727	-0.197427
H92	H	1.153633	-0.251732	-0.915852
H93	H	0.508190	-0.425270	-0.468489
C94	C	1.169520	-0.854706	-0.261802
C95	C	1.176332	-0.926831	-0.255051
H96	H	1.202880	-0.829815	-0.228471
H97	H	1.180900	-0.842652	-0.311159
H98	H	1.120161	-0.842737	-0.250343
H99	H	1.225690	-0.938801	-0.266516
H100	H	1.164957	-0.938891	-0.205683
C101	C	1.156200	-1.152937	-0.275316
C102	C	1.169457	-1.080808	-0.262030
H103	H	1.187352	-1.177817	-0.244254
H104	H	1.105779	-1.165000	-0.264931
H105	H	1.166493	-1.164911	-0.325772
H106	H	1.159158	-1.068833	-0.211574
H107	H	1.219890	-1.068741	-0.272409
C108	C	1.078856	-0.151857	-0.837123
C109	C	1.025366	-0.201153	-0.813333
H110	H	1.068095	-0.106722	-0.816988
H111	H	1.126459	-0.163991	-0.820792
H112	H	1.078281	-0.151418	-0.889724
H113	H	1.025945	-0.201596	-0.760731
H114	H	0.977751	-0.189015	-0.829660
H115	H	1.126058	-0.738863	-0.305139
C116	C	0.930344	-1.033174	-0.500735
C117	C	0.969919	-1.080845	-0.461236
H118	H	0.896988	-1.058071	-0.534066
H119	H	0.903231	-1.004605	-0.467062
H120	H	0.963976	-1.004524	-0.527874
H121	H	0.936288	-1.109492	-0.434093
H122	H	0.997034	-1.109427	-0.494914
H123	H	0.989881	-0.937319	-0.441218
C124	C	1.217513	-0.442114	-0.849935
C125	C	1.201462	-0.375248	-0.821372
H126	H	1.264718	-0.454269	-0.832492
H127	H	1.180730	-0.475229	-0.834123
H128	H	1.217988	-0.442187	-0.902563
H129	H	1.200982	-0.375176	-0.768744
H130	H	1.238255	-0.342124	-0.837180
C131	C	0.990245	-0.553139	-0.530150
C132	C	0.946493	-0.595366	-0.484330
H133	H	0.959109	-0.528258	-0.561227
H134	H	1.019990	-0.520800	-0.500428
H135	H	1.021301	-0.581724	-0.559880
H136	H	0.915441	-0.566780	-0.454596
H137	H	0.916735	-0.627709	-0.514055
H138	H	0.934417	-0.306637	-0.918486
H139	H	1.119799	-0.825642	-0.311452
C140	C	1.022099	-0.903121	-0.498532
C141	C	0.982126	-0.861001	-0.448897
H142	H	0.988732	-0.928023	-0.531848
H143	H	1.055706	-0.874465	-0.525680
H144	H	1.048961	-0.935448	-0.471729
H145	H	0.955269	-0.828671	-0.475700
H146	H	0.948507	-0.889659	-0.421746
C147	C	0.963336	-0.505901	-0.852058
C148	C	0.947211	-0.438850	-0.824096
H149	H	0.926900	-0.538993	-0.835472
H150	H	0.963239	-0.506543	-0.904702
H151	H	1.010801	-0.517643	-0.834951
H152	H	0.899749	-0.427105	-0.841207
H153	H	0.947300	-0.438206	-0.771441
C154	C	0.694296	-0.237992	-0.263566
C155	C	0.616734	-0.237888	-0.262533
H156	H	0.713841	-0.204915	-0.227147
H157	H	0.709859	-0.283368	-0.253108
H158	H	0.711788	-0.225752	-0.311144
H159	H	0.599242	-0.250134	-0.214956
H160	H	0.601164	-0.192503	-0.272986
C161	C	1.091091	-0.474567	-1.011247
C162	C	1.090602	-0.475548	-0.933726
H163	H	1.101822	-0.519714	-1.031370
H164	H	1.043884	-0.462048	-1.028305
H165	H	1.127910	-0.441279	-1.026639
H166	H	1.053779	-0.508833	-0.918334
H167	H	1.137815	-0.488075	-0.916661
