data_functionalizedCrystal
_audit_creation_method	'MofGen! by Chris Wilmer'
_symmetry_space_group_name_H-M	'P1'
_symmetry_Int_Tables_number	1
_symmetry_cell_setting	triclinic
loop_
_symmetry_equiv_pos_as_xyz
  x,y,z
_cell_length_a	19.805407
_cell_length_b	12.827892
_cell_length_c	19.805399
_cell_angle_alpha	89.977471
_cell_angle_beta	89.980427
_cell_angle_gamma	90.015392
loop_
_atom_site_label
_atom_site_type_symbol
_atom_site_fract_x
_atom_site_fract_y
_atom_site_fract_z
Zn1	Zn	1.034788	-0.416057	-0.382743
Zn2	Zn	1.534788	0.083943	0.117257
Zn3	Zn	1.034724	-0.590812	-0.269565
Zn4	Zn	1.534724	-0.090812	0.230435
Zn5	Zn	0.921602	-0.416086	-0.269568
Zn6	Zn	1.421602	0.083914	0.230432
Zn7	Zn	0.921587	-0.590757	-0.382712
Zn8	Zn	1.421587	-0.090757	0.117288
O9	O	0.978175	-0.503428	-0.326147
O10	O	1.478175	-0.003428	0.173853
O11	O	1.129496	-0.439250	-0.367742
O12	O	1.629496	0.060750	0.132258
O13	O	1.019698	-0.567670	-0.174849
O14	O	1.519698	-0.067670	0.325151
O15	O	0.936649	-0.269846	-0.284595
O16	O	1.436649	0.230154	0.215405
O17	O	1.129449	-0.567642	-0.284590
O18	O	1.629449	-0.067642	0.215410
O19	O	1.019806	-0.269825	-0.367745
O20	O	1.519806	0.230175	0.132255
O21	O	0.936588	-0.439299	-0.174851
O22	O	1.436588	0.060701	0.325149
O23	O	0.826884	-0.439245	-0.284565
O24	O	1.326884	0.060755	0.215435
O25	O	0.936624	-0.567547	-0.477433
O26	O	1.436624	-0.067547	0.022567
O27	O	0.826873	-0.567575	-0.367691
O28	O	1.326873	-0.067575	0.132309
O29	O	1.019792	-0.439196	-0.477456
O30	O	1.519792	0.060804	0.022544
O31	O	1.019684	-0.737041	-0.284560
O32	O	1.519684	-0.237041	0.215440
O33	O	0.936563	-0.737000	-0.367688
O34	O	1.436563	-0.237000	0.132312
C35	C	0.802319	-0.503408	-0.326125
C36	C	1.302319	-0.003408	0.173875
C37	C	0.727087	-0.503425	-0.326132
C38	C	1.227087	-0.003425	0.173868
C39	C	0.978133	-0.774938	-0.326135
C40	C	1.478133	-0.274938	0.173865
C41	C	0.978177	-0.891091	-0.326153
C42	C	1.478177	-0.391091	0.173847
C43	C	0.691755	-0.570347	-0.369346
C44	C	1.191755	-0.070347	0.130654
C45	C	0.621067	-0.570349	-0.369355
C46	C	1.121067	-0.070349	0.130645
C47	C	0.585712	-0.503433	-0.326147
C48	C	1.085712	-0.003433	0.173853
C49	C	0.621049	-0.436504	-0.282931
C50	C	1.121049	0.063496	0.217069
C51	C	0.691736	-0.436497	-0.282926
C52	C	1.191736	0.063503	0.217074
C53	C	0.335975	-0.436527	-0.282954
C54	C	0.835975	0.063473	0.217046
C55	C	0.265283	-0.436540	-0.282961
C56	C	0.765283	0.063460	0.217039
C57	C	0.265306	-0.570378	-0.369383
C58	C	0.765306	-0.070378	0.130617
C59	C	0.335993	-0.570372	-0.369378
C60	C	0.835993	-0.070372	0.130622
C61	C	0.371324	-0.503439	-0.326165
C62	C	0.871324	-0.003439	0.173835
C63	C	0.447973	-0.503436	-0.326156
C64	C	0.947973	-0.003436	0.173844
C65	C	0.509065	-0.503440	-0.326152
C66	C	1.009065	-0.003440	0.173848
C67	C	1.019357	-0.942862	-0.285064
C68	C	1.519357	-0.442862	0.214936
C69	C	1.019403	-1.062912	-0.285081
C70	C	1.519403	-0.562912	0.214919
C71	C	1.154718	-0.503449	-0.326169
C72	C	1.654718	-0.003449	0.173831
C73	C	1.229950	-0.503458	-0.326179
C74	C	1.729950	-0.003458	0.173821
C75	C	0.978213	-0.503362	-0.502690
C76	C	1.478213	-0.003362	-0.002690
C77	C	0.978229	-0.503334	-0.577922
C78	C	1.478229	-0.003334	-0.077922
C79	C	0.978236	-0.230858	-0.326174
C80	C	1.478236	0.269142	0.173826
C81	C	0.978262	-0.114705	-0.326185
C82	C	1.478262	0.385295	0.173815
C83	C	1.021536	-0.436499	-0.613279
C84	C	1.521536	0.063501	-0.113279
C85	C	1.021543	-0.436468	-0.683968
C86	C	1.521543	0.063532	-0.183968
C87	C	0.978246	-0.503280	-0.719298
C88	C	1.478246	-0.003280	-0.219298
C89	C	0.934935	-0.570118	-0.683935
C90	C	1.434935	-0.070118	-0.183935
C91	C	0.934925	-0.570143	-0.613248
C92	C	1.434925	-0.070143	-0.113248
C93	C	0.934973	-0.570021	-0.969009
C94	C	1.434973	-0.070021	-0.469009
C95	C	0.934988	-0.569994	-1.039701
C96	C	1.434988	-0.069994	-0.539701
C97	C	1.021591	-0.436347	-1.039728
C98	C	1.521591	0.063653	-0.539728
C99	C	1.021581	-0.436371	-0.969041
C100	C	1.521581	0.063629	-0.469041
C101	C	0.978268	-0.503205	-0.933685
C102	C	1.478268	-0.003205	-0.433685
C103	C	0.978260	-0.503236	-0.857037
C104	C	1.478260	-0.003236	-0.357037
C105	C	0.978257	-0.503255	-0.795945
C106	C	1.478257	-0.003255	-0.295945
C107	C	0.978176	-0.503418	-0.150291
C108	C	1.478176	-0.003418	0.349709
C109	C	0.978291	-0.503152	-0.075060
C110	C	1.478291	-0.003152	0.424940
H111	H	0.592303	-0.624844	-0.404544
H112	H	1.092303	-0.124844	0.095456
H113	H	0.942958	-0.935645	-0.361346
H114	H	1.442958	-0.435645	0.138654
N115	N	0.227150	-0.364363	-0.236355
N116	N	0.727150	0.135637	0.263645
H117	H	0.197835	-0.316002	-0.263918
H118	H	0.697835	0.183998	0.236082
H119	H	0.197847	-0.406852	-0.204953
H120	H	0.697847	0.093148	0.295047
N121	N	0.888275	-0.642049	-1.077800
N122	N	1.388275	-0.142049	-0.577800
H123	H	0.856928	-0.599556	-1.107126
H124	H	1.356928	-0.099556	-0.607126
H125	H	0.915815	-0.690466	-1.107090
H126	H	1.415815	-0.190466	-0.607090
H127	H	0.899654	-0.624557	-0.584461
H128	H	1.399654	-0.124557	-0.084461
H129	H	1.056840	-0.381970	-0.940279
H130	H	1.556840	0.118030	-0.440279
N131	N	0.374127	-0.642551	-0.415976
N132	N	0.874127	-0.142551	0.084024
H133	H	0.341017	-0.684947	-0.443355
H134	H	0.841017	-0.184947	0.056645
H135	H	0.403475	-0.600073	-0.447343
H136	H	0.903475	-0.100073	0.052657
N137	N	1.066009	-0.883854	-0.238443
N138	N	1.566009	-0.383854	0.261557
H139	H	1.093496	-0.934896	-0.211024
H140	H	1.593496	-0.434896	0.288976
H141	H	1.097272	-0.838500	-0.266043
H142	H	1.597272	-0.338500	0.233957
N143	N	1.066099	-1.121873	-0.238474
N144	N	1.566099	-0.621873	0.261526
H145	H	1.059511	-1.199275	-0.245090
H146	H	1.559511	-0.699275	0.254910
H147	H	1.114438	-1.102779	-0.249037
H148	H	1.614438	-0.602779	0.250963
H149	H	1.056856	-0.381923	-1.068524
H150	H	1.556856	0.118077	-0.568524
N151	N	0.582922	-0.364336	-0.236321
N152	N	1.082922	0.135664	0.263679
H153	H	0.595211	-0.380475	-0.187945
H154	H	1.095211	0.119525	0.312055
H155	H	0.595253	-0.289718	-0.246969
H156	H	1.095253	0.210282	0.253031
H157	H	0.720502	-0.381997	-0.247740
H158	H	1.220502	0.118003	0.252260
N159	N	0.888237	-0.642069	-0.930880
N160	N	1.388237	-0.142069	-0.430880
H161	H	0.860806	-0.684379	-0.963989
H162	H	1.360806	-0.184379	-0.463989
H163	H	0.915747	-0.690457	-0.901537
H164	H	1.415747	-0.190457	-0.401537
N165	N	0.888229	-0.642157	-0.722048
N166	N	1.388229	-0.142157	-0.222048
H167	H	0.915723	-0.690579	-0.751380
H168	H	1.415723	-0.190579	-0.251380
H169	H	0.860794	-0.684431	-0.688886
H170	H	1.360794	-0.184431	-0.188886
H171	H	0.364733	-0.382034	-0.247762
H172	H	0.864733	0.117966	0.252238
H173	H	1.056795	-0.382096	-0.584519
H174	H	1.556795	0.117904	-0.084519
N175	N	0.729886	-0.642528	-0.415945
N176	N	1.229886	-0.142528	0.084055
H177	H	0.696774	-0.684922	-0.443322
H178	H	1.196774	-0.184922	0.056678
H179	H	0.759235	-0.600053	-0.447313
H180	H	1.259235	-0.100053	0.052687
H181	H	0.943002	-1.070191	-0.361363
H182	H	1.443002	-0.570191	0.138637
N183	N	0.227200	-0.642572	-0.415994
N184	N	0.727200	-0.142572	0.084006
H185	H	0.177055	-0.632424	-0.409446
H186	H	0.677055	-0.132424	0.090554
H187	H	0.239580	-0.626410	-0.464352
H188	H	0.739580	-0.126410	0.035648
N189	N	1.068238	-0.364361	-0.722104
N190	N	1.568238	0.135639	-0.222104
H191	H	1.095663	-0.322039	-0.688997
H192	H	1.595663	0.177961	-0.188997
H193	H	1.099558	-0.406874	-0.751443
H194	H	1.599558	0.093126	-0.251443
