data_functionalizedCrystal
_audit_creation_method	'MofGen! by Chris Wilmer'
_symmetry_space_group_name_H-M	'P1'
_symmetry_Int_Tables_number	1
_symmetry_cell_setting	triclinic
loop_
_symmetry_equiv_pos_as_xyz
  x,y,z
_cell_length_a	14.971486
_cell_length_b	14.048226
_cell_length_c	14.971486
_cell_angle_alpha	90.007287
_cell_angle_beta	83.614129
_cell_angle_gamma	89.996377
loop_
_atom_site_label
_atom_site_type_symbol
_atom_site_fract_x
_atom_site_fract_y
_atom_site_fract_z
O1	O	1.186940	0.079052	0.116566
O2	O	0.926540	0.079078	0.130525
O3	O	1.063720	0.079057	-0.006654
O4	O	1.049761	0.079072	0.253746
O5	O	1.063717	-0.079264	-0.006666
O6	O	0.926537	-0.079244	0.130514
O7	O	1.186937	-0.079270	0.116555
Zn8	Zn	1.056737	-0.104394	0.123533
Zn9	Zn	1.056741	0.104202	0.123547
O10	O	1.049758	-0.079249	0.253734
C11	C	0.893214	-0.000080	0.129895
C12	C	0.793917	-0.000070	0.128024
C13	C	0.736692	-0.000067	0.208614
C14	C	0.643392	-0.000081	0.206850
C15	C	0.607320	-0.000092	0.124497
C16	C	0.664552	-0.000098	0.043902
C17	C	0.757850	-0.000090	0.045666
C18	C	0.470090	-0.000111	0.040231
C19	C	0.376786	-0.000117	0.038466
C20	C	0.355632	-0.000102	0.201415
C21	C	0.448930	-0.000094	0.203179
C22	C	0.506156	-0.000099	0.122584
C23	C	1.063094	-0.000103	-0.039985
C24	C	1.061223	-0.000102	-0.139282
C25	C	1.220263	-0.000110	0.117185
C26	C	1.319561	-0.000114	0.119056
N27	N	1.056744	0.246562	0.123551
N28	N	1.056741	-0.246754	0.123522
C29	C	1.117600	0.296371	0.062928
C30	C	1.117604	0.396029	0.062925
C31	C	1.056746	0.445876	0.123542
C32	C	0.995887	0.396060	0.184172
C33	C	0.995888	0.296404	0.184178
C34	C	0.995887	0.603774	0.184153
C35	C	0.995884	0.703437	0.184145
C36	C	1.117603	0.703399	0.062899
C37	C	1.117604	0.603743	0.062906
C38	C	1.056743	0.553934	0.123535
C39	C	1.141812	-0.000111	-0.196507
C40	C	1.140049	-0.000101	-0.289807
C41	C	1.057696	-0.000089	-0.325879
C42	C	0.977101	-0.000078	-0.268646
C43	C	0.978865	-0.000081	-0.175349
C44	C	0.973430	-0.000074	-0.463109
C45	C	0.971665	-0.000073	-0.556413
C46	C	1.134614	-0.000094	-0.577567
C47	C	1.136378	-0.000097	-0.484269
C48	C	1.055782	-0.000088	-0.427043
C49	C	1.050384	-0.000087	0.287065
C50	C	1.052254	-0.000082	0.386362
H51	H	0.635175	-0.000120	-0.023152
Cl52	Cl	0.919383	0.458722	0.260382
Cl53	Cl	1.194111	0.458648	-0.013288
Cl54	Cl	0.829791	-0.000099	-0.055651
H55	H	1.167158	0.743959	0.013533
H56	H	0.766054	-0.000057	0.275675
H57	H	1.208874	-0.000126	-0.167145
H58	H	1.167154	0.563158	0.013543
Cl59	Cl	1.235935	-0.000102	-0.649508
H60	H	1.205673	-0.000110	-0.336396
Cl61	Cl	0.919376	0.766094	0.260355
H62	H	0.347419	-0.000127	-0.028593
H63	H	0.913240	-0.000074	-0.128756
H64	H	0.596802	-0.000077	0.272474
Cl65	Cl	1.239910	-0.000107	-0.438922
H66	H	0.478296	-0.000077	0.270239
H67	H	0.309033	-0.000103	0.267039
Cl68	Cl	0.919376	0.541161	0.260376
H69	H	0.946334	0.255850	0.233545
Cl70	Cl	0.542030	-0.000119	-0.061092
Cl71	Cl	0.868134	-0.000059	-0.601760
H72	H	0.907800	-0.000064	-0.416517
Cl73	Cl	1.194108	0.233717	-0.013286
H74	H	0.910047	-0.000062	-0.298024
