data_functionalizedCrystal
_audit_creation_method	'MofGen! by Chris Wilmer'
_symmetry_space_group_name_H-M	'P1'
_symmetry_Int_Tables_number	1
_symmetry_cell_setting	triclinic
loop_
_symmetry_equiv_pos_as_xyz
  x,y,z
_cell_length_a	8.597366
_cell_length_b	15.072220
_cell_length_c	8.559649
_cell_angle_alpha	89.995340
_cell_angle_beta	77.624636
_cell_angle_gamma	82.303951
loop_
_atom_site_label
_atom_site_type_symbol
_atom_site_fract_x
_atom_site_fract_y
_atom_site_fract_z
O1	O	2.053698	-0.083220	0.238043
O2	O	1.594576	-0.048120	0.256300
O3	O	1.864586	-0.068763	0.015202
O4	O	1.783688	-0.062577	0.479141
O5	O	1.864551	-0.216326	0.015232
O6	O	1.594541	-0.195683	0.256330
O7	O	2.053663	-0.230782	0.238073
Zn8	Zn	1.824097	-0.236661	0.247207
Zn9	Zn	1.824142	-0.042241	0.247166
O10	O	1.783653	-0.210139	0.479171
C11	C	1.536325	-0.117449	0.254353
C12	C	1.362809	-0.104184	0.248488
N13	N	1.824077	-0.369348	0.247233
C14	C	1.824110	-0.550348	0.247197
C15	C	1.679619	-0.576971	0.376155
C16	C	1.679221	-0.679766	0.375791
C17	C	1.824143	-0.728555	0.247164
C18	C	1.809192	-0.690070	0.080007
C19	C	1.808157	-0.587134	0.080780
C20	C	1.984130	-0.600470	0.283898
C21	C	1.982592	-0.703217	0.287643
C22	C	1.824165	-0.829270	0.247135
C23	C	1.824086	-0.449633	0.247215
C24	C	2.111914	-0.161451	0.240020
C25	C	2.285430	-0.174710	0.245885
C26	C	1.870699	-0.143011	-0.044217
C27	C	1.888948	-0.144402	-0.221312
N28	N	1.824176	0.090445	0.247127
C29	C	1.777540	-0.135889	0.538590
C30	C	1.759291	-0.134493	0.715685
H31	H	1.296316	-0.033650	0.246219
C32	C	1.592695	-0.121569	-0.175519
C33	C	1.574507	-0.044244	-0.079068
C34	C	1.421051	-0.032302	0.021170
H35	H	1.579876	-0.171985	-0.109746
H36	H	1.513748	-0.115488	-0.238733
H37	H	1.653431	-0.050331	-0.015859
H38	H	1.587294	0.006187	-0.144797
H39	H	1.342104	-0.026221	-0.042044
H40	H	1.408246	-0.082723	0.086932
H41	H	1.408685	0.020167	0.086614
H42	H	1.351934	-0.245249	0.248143
C43	C	1.944607	-0.564503	-0.051382
C44	C	2.027619	-0.643489	-0.131572
C45	C	2.153302	-0.622679	-0.253347
H46	H	2.016206	-0.534968	-0.006180
H47	H	1.901943	-0.526350	-0.124818
H48	H	2.070284	-0.681626	-0.058148
H49	H	1.956066	-0.673034	-0.176810
H50	H	2.110637	-0.584526	-0.326783
H51	H	2.224888	-0.593143	-0.208130
H52	H	2.209632	-0.676266	-0.307780
H53	H	2.003605	-0.576025	0.403367
H54	H	1.692090	-0.554286	0.048927
H55	H	1.685065	-0.705462	0.499941
H56	H	2.013922	-0.153963	-0.302864
C57	C	1.687078	-0.544441	0.542119
C58	C	1.821628	-0.499892	0.531553
C59	C	1.828540	-0.469896	0.684407
H60	H	1.695212	-0.594203	0.609406
H61	H	1.592362	-0.504534	0.585678
H62	H	1.916320	-0.539796	0.488017
H63	H	1.813524	-0.450118	0.464297
H64	H	1.733824	-0.429989	0.727966
H65	H	1.836669	-0.519663	0.751682
H66	H	1.919822	-0.439659	0.677257
C67	C	1.998451	-0.737149	0.451493
C68	C	2.003625	-0.830393	0.451354
C69	C	2.018247	-0.861690	0.602258
H70	H	1.908777	-0.710611	0.530111
H71	H	2.094562	-0.721678	0.475323
H72	H	1.907525	-0.845857	0.427543
H73	H	2.093295	-0.856955	0.372769
H74	H	2.114358	-0.846218	0.626088
H75	H	1.928570	-0.835145	0.680864
H76	H	2.021774	-0.924959	0.602179
H77	H	1.561090	-0.542079	0.352694
H78	H	1.560057	-0.695279	0.351997
H79	H	1.912516	-0.722392	-0.018409
H80	H	1.694602	-0.707093	0.047442
C81	C	2.130376	-0.748793	0.170629
C82	C	2.082468	-0.800987	0.058818
C83	C	2.218559	-0.842974	-0.049025
H84	H	2.196229	-0.786005	0.227228
H85	H	2.189326	-0.704651	0.116696
H86	H	2.023544	-0.845124	0.112746
H87	H	2.016634	-0.763797	0.002180
H88	H	2.277510	-0.798832	-0.102958
H89	H	2.284403	-0.880181	0.007588
H90	H	2.186072	-0.878386	-0.124910
C91	C	2.127155	-0.578739	0.158715
C92	C	2.131740	-0.486255	0.161537
C93	C	2.263472	-0.466197	0.046256
H94	H	2.117035	-0.597435	0.055810
H95	H	2.223537	-0.609164	0.181527
H96	H	2.035383	-0.455840	0.138713
H97	H	2.141884	-0.467537	0.264414
H98	H	2.359854	-0.496623	0.069068
H99	H	2.253340	-0.484899	-0.056640
H100	H	2.266610	-0.403447	0.048165
