data_functionalizedCrystal
_audit_creation_method	'MofGen! by Chris Wilmer'
_symmetry_space_group_name_H-M	'P1'
_symmetry_Int_Tables_number	1
_symmetry_cell_setting	triclinic
loop_
_symmetry_equiv_pos_as_xyz
  x,y,z
_cell_length_a	13.032781
_cell_length_b	13.033409
_cell_length_c	17.077396
_cell_angle_alpha	82.826628
_cell_angle_beta	82.846518
_cell_angle_gamma	89.137561
loop_
_atom_site_label
_atom_site_type_symbol
_atom_site_fract_x
_atom_site_fract_y
_atom_site_fract_z
Zn1	Zn	-0.608883	1.520132	0.356583
Zn2	Zn	-0.780862	1.498175	0.243819
Zn3	Zn	-0.587102	1.348162	0.239695
Zn4	Zn	-0.758995	1.326297	0.389389
O5	O	-0.683961	1.423192	0.307371
O6	O	-0.649963	1.661121	0.329621
O7	O	-0.755196	1.478237	0.133432
O8	O	-0.446080	1.389313	0.239745
O9	O	-0.776315	1.644990	0.246773
O10	O	-0.462082	1.515659	0.325622
O11	O	-0.612842	1.368023	0.130402
O12	O	-0.591638	1.201360	0.271556
O13	O	-0.739046	1.352048	0.494877
O14	O	-0.717927	1.185296	0.381535
O15	O	-0.628759	1.494458	0.470775
O16	O	-0.921873	1.457036	0.278584
O17	O	-0.905807	1.330758	0.385534
C18	C	-0.650047	1.156016	0.329659
C19	C	-0.635563	1.041713	0.339214
C20	C	-0.676557	0.864644	0.312276
C21	C	-0.691530	0.982781	0.302396
C22	C	-0.951158	1.389170	0.336081
C23	C	-1.065479	1.374709	0.348382
C24	C	-1.242524	1.415855	0.313689
C25	C	-1.124369	1.430803	0.300975
C26	C	-0.415723	1.457374	0.278564
C27	C	-0.301416	1.471941	0.266288
C28	C	-0.683893	1.423263	0.512102
C29	C	-0.683864	1.423294	0.599347
C30	C	-0.718008	1.691411	0.284998
C31	C	-0.732516	1.805710	0.275463
C32	C	-0.683961	1.423189	0.103424
C33	C	-0.683726	1.423394	0.016132
C34	C	-0.626432	1.497450	0.627787
C35	C	-0.626399	1.497466	0.709763
C36	C	-0.683805	1.423331	0.763297
C37	C	-0.741238	1.349168	0.734852
C38	C	-0.741265	1.349147	0.652877
C39	C	-0.741182	1.349217	0.905712
C40	C	-0.741157	1.349238	0.987692
C41	C	-0.626317	1.497536	0.962597
C42	C	-0.626343	1.497516	0.880623
C43	C	-0.683778	1.423353	0.852183
H44	H	-0.791516	0.842713	0.236637
H45	H	-1.087320	1.489895	0.250980
H46	H	-1.279579	1.356775	0.363685
C47	C	-0.563222	1.579045	0.741043
N48	N	-0.515634	1.640494	0.764601
C49	C	-1.115525	1.294883	0.415928
N50	N	-1.153222	1.234757	0.466802
H51	H	-0.579689	1.557822	0.584204
C52	C	-0.804368	1.267637	0.874431
N53	N	-0.851965	1.206197	0.850870
C54	C	-0.771233	1.032762	0.249931
N55	N	-0.831263	1.070410	0.210414
H56	H	-0.787899	1.288869	1.031278
H57	H	-1.264363	1.531029	0.216297
H58	H	-0.787975	1.288802	0.778446
C59	C	-0.563136	1.579115	0.993882
N60	N	-0.515554	1.640561	1.017450
C61	C	-0.555860	0.991734	0.391681
N62	N	-0.495829	0.954089	0.431198
C63	C	-0.804446	1.267572	0.621594
N64	N	-0.852034	1.206125	0.598033
H65	H	-0.579605	1.557888	0.837037
H66	H	-0.617567	0.827639	0.351111
