data_functionalizedCrystal
_audit_creation_method	'MofGen! by Chris Wilmer'
_symmetry_space_group_name_H-M	'P1'
_symmetry_Int_Tables_number	1
_symmetry_cell_setting	triclinic
loop_
_symmetry_equiv_pos_as_xyz
  x,y,z
_cell_length_a	15.944551
_cell_length_b	14.044220
_cell_length_c	13.101039
_cell_angle_alpha	86.332523
_cell_angle_beta	86.646591
_cell_angle_gamma	91.656192
loop_
_atom_site_label
_atom_site_type_symbol
_atom_site_fract_x
_atom_site_fract_y
_atom_site_fract_z
O1	O	1.127901	-0.117026	-0.085109
O2	O	1.377901	0.132974	0.164891
O3	O	1.627901	0.382974	0.414891
O4	O	1.877901	0.632974	0.664891
O5	O	0.884482	-0.132096	-0.085135
O6	O	1.134482	0.117904	0.164865
O7	O	1.384482	0.367904	0.414865
O8	O	1.634482	0.617904	0.664865
O9	O	1.002537	0.013423	-0.085112
O10	O	1.252537	0.263423	0.164888
O11	O	1.502537	0.513423	0.414888
O12	O	1.752537	0.763423	0.664888
O13	O	1.009846	-0.262545	-0.085132
O14	O	1.259846	-0.012545	0.164868
O15	O	1.509846	0.237455	0.414868
O16	O	1.759846	0.487455	0.664868
O17	O	0.994068	0.002965	0.085316
O18	O	1.244068	0.252965	0.335316
O19	O	1.494068	0.502965	0.585316
O20	O	1.744068	0.752965	0.835316
O21	O	0.876013	-0.142555	0.085293
O22	O	1.126013	0.107445	0.335293
O23	O	1.376013	0.357445	0.585293
O24	O	1.626013	0.607445	0.835293
O25	O	1.119432	-0.127484	0.085319
O26	O	1.369432	0.122516	0.335319
O27	O	1.619432	0.372516	0.585319
O28	O	1.869432	0.622516	0.835319
Zn29	Zn	0.996378	-0.136680	0.112365
Zn30	Zn	1.246378	0.113320	0.362365
Zn31	Zn	1.496378	0.363320	0.612365
Zn32	Zn	1.746378	0.613320	0.862365
Zn33	Zn	1.007536	-0.122901	-0.112181
Zn34	Zn	1.257536	0.127099	0.137819
Zn35	Zn	1.507536	0.377099	0.387819
Zn36	Zn	1.757536	0.627099	0.637819
O37	O	1.001377	-0.273003	0.085296
O38	O	1.251377	-0.023003	0.335296
O39	O	1.501377	0.226997	0.585296
O40	O	1.751377	0.476997	0.835296
C41	C	0.848906	-0.136700	0.000076
C42	C	1.098906	0.113300	0.250076
C43	C	1.348906	0.363300	0.500076
C44	C	1.598906	0.613300	0.750076
C45	C	0.755520	-0.134823	0.000066
C46	C	1.005520	0.115177	0.250066
C47	C	1.255520	0.365177	0.500066
C48	C	1.505520	0.615177	0.750066
C49	C	0.995104	0.043509	0.000102
C50	C	1.245104	0.293509	0.250102
C51	C	1.495104	0.543509	0.500102
C52	C	1.745104	0.793509	0.750102
C53	C	0.985563	0.148735	0.000102
C54	C	1.235563	0.398735	0.250102
C55	C	1.485563	0.648735	0.500102
C56	C	1.735563	0.898735	0.750102
C57	C	1.008810	-0.303089	0.000080
C58	C	1.258810	-0.053089	0.250080
C59	C	1.508810	0.196911	0.500080
C60	C	1.758810	0.446911	0.750080
C61	C	1.018352	-0.408315	0.000073
C62	C	1.268352	-0.158315	0.250073
C63	C	1.518352	0.091685	0.500073
C64	C	1.768352	0.341685	0.750073
C65	C	0.533573	-0.040140	0.000093
C66	C	0.783573	0.209860	0.250093
C67	C	1.033573	0.459860	0.500093
C68	C	1.283573	0.709860	0.750093
C69	C	0.480021	-0.078952	-0.083940
C70	C	0.730021	0.171048	0.166060
C71	C	0.980021	0.421048	0.416060
C72	C	1.230021	0.671048	0.666060
C73	C	0.584540	-0.131430	0.000079
C74	C	0.834540	0.118570	0.250079
C75	C	1.084540	0.368570	0.500079
C76	C	1.334540	0.618570	0.750079
C77	C	0.471695	-0.089285	0.084089
C78	C	0.721695	0.160715	0.334089
C79	C	0.971695	0.410715	0.584089
C80	C	1.221695	0.660715	0.834089
C81	C	0.419380	-0.128147	0.000095
C82	C	0.669380	0.121853	0.250095
C83	C	0.919380	0.371853	0.500095
C84	C	1.169380	0.621853	0.750095
C85	C	0.532221	-0.170263	-0.084024
C86	C	0.782221	0.079737	0.165976
C87	C	1.032221	0.329737	0.415976
C88	C	1.282221	0.579737	0.665976
C89	C	0.523897	-0.180587	0.084080
C90	C	0.773897	0.069413	0.334080
C91	C	1.023897	0.319413	0.584080
C92	C	1.273897	0.569413	0.834080
C93	C	0.470369	-0.219464	0.000027
C94	C	0.720369	0.030536	0.250027
C95	C	0.970369	0.280536	0.500027
C96	C	1.220369	0.530536	0.750027
C97	C	0.679684	-0.133319	0.000068
C98	C	0.929684	0.116681	0.250068
C99	C	1.179684	0.366681	0.500068
C100	C	1.429684	0.616681	0.750068
C101	C	0.324238	-0.126264	0.000098
C102	C	0.574238	0.123736	0.250098
C103	C	0.824238	0.373736	0.500098
C104	C	1.074238	0.623736	0.750098
C105	C	1.155008	-0.122881	0.000106
C106	C	1.405008	0.127119	0.250106
C107	C	1.655008	0.377119	0.500106
C108	C	1.905008	0.627119	0.750106
C109	C	1.248394	-0.124757	0.000109
C110	C	1.498394	0.125243	0.250109
C111	C	1.748394	0.375243	0.500109
C112	C	1.998394	0.625243	0.750109
N113	N	0.988769	-0.146083	0.265612
N114	N	1.238769	0.103917	0.515612
N115	N	1.488769	0.353917	0.765612
N116	N	1.738769	0.603917	1.015612
C117	C	0.968120	0.341399	0.000085
C118	C	1.218120	0.591399	0.250085
C119	C	1.468120	0.841399	0.500085
C120	C	1.718120	1.091399	0.750085
C121	C	1.035791	0.399027	0.000090
C122	C	1.285791	0.649027	0.250090
C123	C	1.535791	0.899027	0.500090
C124	C	1.785791	1.149027	0.750090
C125	C	1.026085	0.506232	0.000080
C126	C	1.276085	0.756232	0.250080
C127	C	1.526085	1.006232	0.500080
C128	C	1.776085	1.256232	0.750080
C129	C	0.977824	0.234184	0.000095
C130	C	1.227824	0.484184	0.250095
C131	C	1.477824	0.734184	0.500095
C132	C	1.727824	0.984184	0.750095
N133	N	1.015152	-0.113490	-0.265428
N134	N	1.265152	0.136510	-0.015428
N135	N	1.515152	0.386510	0.234572
N136	N	1.765152	0.636510	0.484572
C137	C	0.978417	-0.158885	0.474653
C138	C	1.228417	0.091115	0.724653
C139	C	1.478417	0.341115	0.974653
C140	C	1.728417	0.591115	1.224653
C141	C	1.025501	-0.100691	0.525538
C142	C	1.275501	0.149309	0.775538
C143	C	1.525501	0.399309	1.025538
C144	C	1.775501	0.649309	1.275538
C145	C	1.019741	-0.107814	0.641855
C146	C	1.269741	0.142186	0.891855
C147	C	1.519741	0.392186	1.141855
C148	C	1.769741	0.642186	1.391855
C149	C	0.984176	-0.151763	0.358325
C150	C	1.234176	0.098237	0.608325
C151	C	1.484176	0.348237	0.858325
C152	C	1.734176	0.598237	1.108325
H153	H	0.561238	0.035630	-0.000006
H154	H	0.811238	0.285630	0.249994
H155	H	1.061238	0.535630	0.499994
H156	H	1.311238	0.785630	0.749994
Cl157	Cl	0.867426	0.389529	0.000070
Cl158	Cl	1.117426	0.639529	0.250070
Cl159	Cl	1.367426	0.889529	0.500070
Cl160	Cl	1.617426	1.139529	0.750070
H161	H	1.070137	-0.045520	0.481744
H162	H	1.320137	0.204480	0.731744
H163	H	1.570137	0.454480	0.981744
H164	H	1.820137	0.704480	1.231744
Cl165	Cl	0.909508	-0.244065	0.542261
Cl166	Cl	1.159508	0.005935	0.792261
Cl167	Cl	1.409508	0.255935	1.042261
Cl168	Cl	1.659508	0.505935	1.292261
H169	H	0.460550	-0.035980	-0.154979
H170	H	0.710550	0.214020	0.095021
H171	H	0.960550	0.464020	0.345021
H172	H	1.210550	0.714020	0.595021
H173	H	0.558632	-0.204482	-0.155145
H174	H	0.808632	0.045518	0.094855
H175	H	1.058632	0.295518	0.344855
H176	H	1.308632	0.545518	0.594855
Cl177	Cl	0.427940	-0.336551	-0.000050
Cl178	Cl	0.677940	-0.086551	0.249950
Cl179	Cl	0.927940	0.163449	0.499950
Cl180	Cl	1.177940	0.413449	0.749950
Cl181	Cl	1.136492	0.350898	0.000111
Cl182	Cl	1.386492	0.600898	0.250111
Cl183	Cl	1.636492	0.850898	0.500111
Cl184	Cl	1.886492	1.100898	0.750111
H185	H	0.543387	-0.223527	0.155123
H186	H	0.793387	0.026473	0.405123
H187	H	1.043387	0.276473	0.655123
H188	H	1.293387	0.526473	0.905123
H189	H	0.445186	-0.055015	0.155130
H190	H	0.695186	0.194985	0.405130
H191	H	0.945186	0.444985	0.655130
H192	H	1.195186	0.694985	0.905130
