data_functionalizedCrystal
_audit_creation_method	'MofGen! by Chris Wilmer'
_symmetry_space_group_name_H-M	'P1'
_symmetry_Int_Tables_number	1
_symmetry_cell_setting	triclinic
loop_
_symmetry_equiv_pos_as_xyz
  x,y,z
_cell_length_a	13.635800
_cell_length_b	10.992421
_cell_length_c	10.992743
_cell_angle_alpha	88.175973
_cell_angle_beta	108.770538
_cell_angle_gamma	71.235237
loop_
_atom_site_label
_atom_site_type_symbol
_atom_site_fract_x
_atom_site_fract_y
_atom_site_fract_z
V1	V	2.057147	-0.177721	0.400571
O2	O	2.036211	0.008581	0.392964
O3	O	2.045937	-0.352430	0.397814
O4	O	2.045954	-0.174970	0.575282
O5	O	2.036194	-0.170108	0.214267
V6	V	2.295593	-0.155440	0.378290
O7	O	2.195050	-0.226598	0.449447
O8	O	2.382789	-0.106563	0.329414
O9	O	2.195200	0.019270	0.381047
O10	O	2.375228	-0.341742	0.385897
O11	O	2.375245	-0.163052	0.564594
O12	O	2.195183	-0.158191	0.203579
V13	V	2.557147	-0.177721	0.400571
O14	O	2.536211	0.008581	0.392964
O15	O	2.545937	-0.352430	0.397814
O16	O	2.545954	-0.174970	0.575282
O17	O	2.536194	-0.170108	0.214267
V18	V	2.795593	-0.155440	0.378290
O19	O	2.695050	-0.226598	0.449447
O20	O	2.882789	-0.106563	0.329414
O21	O	2.695200	0.019270	0.381047
O22	O	2.875228	-0.341742	0.385897
O23	O	2.875245	-0.163052	0.564594
O24	O	2.695183	-0.158191	0.203579
C25	C	1.971176	-0.395021	0.391490
C26	C	2.002740	-0.537848	0.390400
C27	C	1.936572	-0.733136	0.381614
C28	C	1.903531	-0.584492	0.382239
C29	C	2.038038	-0.576495	0.270585
C30	C	2.070155	-0.725039	0.269317
C31	C	2.135922	-0.763596	0.514930
C32	C	2.101396	-0.615083	0.517530
C33	C	1.971197	-0.168651	0.617867
C34	C	2.002773	-0.167557	0.760694
C35	C	2.101632	0.061854	0.387367
C36	C	2.059688	0.204679	0.388466
C37	C	2.101611	-0.164514	0.160987
C38	C	2.059654	-0.165601	0.018159
C39	C	2.471176	-0.395021	0.391490
C40	C	2.502740	-0.537848	0.390400
C41	C	2.158992	-0.174249	0.971787
C42	C	2.126100	-0.174894	0.823154
C43	C	1.927606	-0.040045	0.791481
C44	C	1.961137	-0.038864	0.940124
C45	C	2.022309	-0.284157	0.978370
C46	C	1.991972	-0.287059	0.830156
C47	C	2.471197	-0.168651	0.617867
C48	C	2.502773	-0.167557	0.760694
C49	C	2.601632	0.061854	0.387367
C50	C	2.559688	0.204679	0.388466
C51	C	2.601611	-0.164514	0.160987
C52	C	2.559654	-0.165601	0.018159
C53	C	2.436572	-0.733136	0.381614
C54	C	2.403531	-0.584492	0.382239
C55	C	2.538038	-0.576495	0.270585
C56	C	2.570155	-0.725039	0.269317
C57	C	2.635922	-0.763596	0.514930
C58	C	2.601396	-0.615083	0.517530
C59	C	2.436345	-0.157702	0.955816
C60	C	2.403562	-0.159371	0.807334
C61	C	2.601785	-0.294230	0.837785
C62	C	2.633950	-0.293095	0.986350
C63	C	2.572831	-0.047800	0.948343
C64	C	2.537468	-0.047214	0.799331
H65	H	1.923665	-0.779548	0.466695
C66	C	2.757402	-0.819124	0.523419
H67	H	2.803063	-0.799637	0.600025
H68	H	2.779221	-0.910679	0.525962
H69	H	2.764865	-0.781292	0.449499
C70	C	1.864925	-0.549657	0.497869
H71	H	1.844632	-0.458557	0.498405
H72	H	1.802976	-0.574869	0.489843
H73	H	1.923358	-0.594045	0.576702
H74	H	2.138986	-0.089697	0.776916
H75	H	2.658261	-0.765922	0.269128
H76	H	2.514749	-0.742563	0.174186
C77	C	1.858343	-0.760880	0.258390
H78	H	1.900386	-0.810195	0.211099
H79	H	1.818610	-0.808499	0.282343
H80	H	1.807780	-0.681043	0.205683
C81	C	1.936297	0.079883	0.725596
H82	H	1.890510	0.156573	0.744799
H83	H	2.010850	0.076393	0.757125
H84	H	1.912875	0.080677	0.634206
C85	C	2.419494	-0.271950	1.020616
H86	H	2.344744	-0.266498	0.982390
H87	H	2.466937	-0.351668	1.008492
H88	H	2.436393	-0.268152	1.110951
C89	C	2.136397	-0.535643	0.272436
H90	H	2.156855	-0.494550	0.346471
H91	H	2.197264	-0.610348	0.276163
H92	H	2.115741	-0.476800	0.195820
H93	H	2.632759	-0.813104	0.605591
C94	C	2.198136	-0.059205	1.007870
H95	H	2.258164	-0.065172	0.979503
H96	H	2.138955	0.020093	0.966913
H97	H	2.221453	-0.061571	1.099462
C98	C	2.303272	-0.036340	0.735283
H99	H	2.282242	0.015112	0.796705
H100	H	2.322384	0.012353	0.679483
H101	H	2.243302	-0.060588	0.685228
C102	C	1.943071	-0.503252	0.143438
H103	H	1.881855	-0.449095	0.163107
H104	H	1.967278	-0.451389	0.097241
H105	H	1.921475	-0.564098	0.091533
C106	C	2.623437	-0.413484	1.048850
H107	H	2.599582	-0.462619	0.983383
H108	H	2.693226	-0.465551	1.110509
H109	H	2.570994	-0.386546	1.091194
H110	H	2.158261	-0.765922	0.269128
H111	H	2.132759	-0.813104	0.605591
C112	C	2.364942	-0.275217	0.773791
H113	H	2.369262	-0.321448	0.850965
H114	H	2.290672	-0.244239	0.714970
H115	H	2.411088	-0.331455	0.734764
C116	C	2.636397	-0.535643	0.272436
H117	H	2.656855	-0.494550	0.346471
H118	H	2.697264	-0.610348	0.276163
H119	H	2.615741	-0.476800	0.195820
C120	C	2.068398	-0.582574	0.637301
H121	H	1.994801	-0.522205	0.609957
H122	H	2.072854	-0.659732	0.683681
H123	H	2.117200	-0.545633	0.692151
C124	C	1.803098	-0.513650	0.258933
H125	H	1.782362	-0.575709	0.208257
H126	H	1.743034	-0.463399	0.282898
H127	H	1.821946	-0.458149	0.209552
C128	C	1.992373	0.082249	0.971337
H129	H	1.984495	0.130264	0.893235
H130	H	1.945009	0.135111	1.011110
H131	H	2.066903	0.056082	1.028907
H132	H	2.014749	-0.742563	0.174186
C133	C	2.443071	-0.503252	0.143438
H134	H	2.381855	-0.449095	0.163107
H135	H	2.467278	-0.451389	0.097241
H136	H	2.421475	-0.564098	0.091533
C137	C	2.364925	-0.549657	0.497869
H138	H	2.344632	-0.458557	0.498405
H139	H	2.302976	-0.574869	0.489843
H140	H	2.423358	-0.594045	0.576702
C141	C	2.067672	-0.414394	0.805602
H142	H	2.105701	-0.394826	0.753233
H143	H	2.119790	-0.463914	0.886259
H144	H	2.024216	-0.462990	0.762131
H145	H	2.233391	-0.265406	1.024414
H146	H	2.724954	-0.304107	1.028979
H147	H	2.176287	-0.584874	0.530911
C148	C	2.570887	-0.414940	0.803192
H149	H	2.631340	-0.491114	0.850331
H150	H	2.508182	-0.411037	0.825266
H151	H	2.554091	-0.417148	0.712629
H152	H	2.225847	-0.804713	0.521210
H153	H	2.377745	-0.065985	0.974654
H154	H	2.184211	-0.266542	0.803547
C155	C	2.703355	-0.308517	0.798871
H156	H	2.686235	-0.237187	0.735106
H157	H	2.763629	-0.309926	0.873215
H158	H	2.722847	-0.387249	0.764256
C159	C	2.568398	-0.582574	0.637301
H160	H	2.494801	-0.522205	0.609957
H161	H	2.572854	-0.659732	0.683681
H162	H	2.617200	-0.545633	0.692151
H163	H	2.521375	0.048400	0.968711
C164	C	2.440705	0.079380	0.728625
H165	H	2.379415	0.058992	0.675768
H166	H	2.420163	0.130004	0.790797
H167	H	2.462839	0.127232	0.675658
C168	C	1.859685	-0.023240	0.979694
H169	H	1.879473	-0.022420	1.070723
H170	H	1.802205	0.056109	0.934828
H171	H	1.834799	-0.093785	0.957957
H172	H	2.423665	-0.779548	0.466695
C173	C	1.804932	-0.026501	0.734917
H174	H	1.798451	-0.098662	0.691914
H175	H	1.776195	-0.023981	0.803252
H176	H	1.764469	0.051492	0.674661
C177	C	1.873816	-0.289853	0.773783
H178	H	1.829324	-0.217849	0.706854
H179	H	1.875966	-0.368320	0.739067
H180	H	1.843248	-0.285078	0.840659
H181	H	2.378670	-0.753705	0.290412
H182	H	1.948193	-0.278846	1.007551
H183	H	2.608523	-0.045730	0.766820
H184	H	2.090330	-0.379774	1.032950
H185	H	2.329185	-0.532059	0.290961
H186	H	2.662326	-0.052400	0.989182
H187	H	2.676287	-0.584874	0.530911
