data_functionalizedCrystal
_audit_creation_method	'MofGen! by Chris Wilmer'
_symmetry_space_group_name_H-M	'P1'
_symmetry_Int_Tables_number	1
_symmetry_cell_setting	triclinic
loop_
_symmetry_equiv_pos_as_xyz
  x,y,z
_cell_length_a	14.971506
_cell_length_b	14.971486
_cell_length_c	13.448316
_cell_angle_alpha	89.993189
_cell_angle_beta	89.992937
_cell_angle_gamma	83.618258
loop_
_atom_site_label
_atom_site_type_symbol
_atom_site_fract_x
_atom_site_fract_y
_atom_site_fract_z
O1	O	1.186936	0.116651	-0.082699
O2	O	0.926539	0.130591	-0.082700
O3	O	1.063717	-0.006579	-0.082692
O4	O	1.049758	0.253820	-0.082707
O5	O	1.063699	-0.006587	0.082691
O6	O	0.926521	0.130582	0.082684
O7	O	1.186919	0.116642	0.082684
Cu8	Cu	1.056719	0.123612	0.097785
Cu9	Cu	1.056739	0.123622	-0.097800
O10	O	1.049741	0.253812	0.082677
C11	C	0.893205	0.129960	-0.000008
C12	C	0.793909	0.128082	-0.000008
C13	C	0.355627	0.201500	-0.000022
C14	C	0.448927	0.203258	-0.000027
C15	C	0.506147	0.122665	-0.000018
C16	C	0.470062	0.040310	-0.000015
C17	C	0.376764	0.038553	-0.000017
C18	C	0.664525	0.043977	-0.000007
C19	C	0.757831	0.045733	-0.000002
C20	C	0.736689	0.208681	-0.000016
C21	C	0.643390	0.206924	-0.000018
C22	C	0.607312	0.124569	-0.000013
C23	C	1.063084	-0.039908	-0.000001
C24	C	1.061213	-0.139205	-0.000002
C25	C	1.141802	-0.196424	-0.000001
C26	C	1.140038	-0.289724	-0.000011
C27	C	1.057686	-0.325802	-0.000015
C28	C	0.977091	-0.268575	-0.000019
C29	C	0.978855	-0.175278	-0.000016
C30	C	0.973420	-0.463038	-0.000022
C31	C	0.971656	-0.556342	-0.000023
C32	C	1.134603	-0.577485	-0.000017
C33	C	1.136367	-0.484187	-0.000015
C34	C	1.055772	-0.426966	-0.000017
C35	C	1.220252	0.117273	-0.000010
C36	C	1.319548	0.119151	-0.000016
C37	C	1.050374	0.287141	-0.000017
C38	C	1.052244	0.386438	-0.000022
N39	N	1.056711	0.123604	0.235349
N40	N	1.056754	0.123622	-0.235365
C41	C	1.117472	0.062890	0.287393
C42	C	1.117478	0.062890	0.391496
C43	C	1.056725	0.123608	0.443554
C44	C	0.995958	0.184324	0.391503
C45	C	0.995948	0.184320	0.287402
C46	C	0.995982	0.184330	0.608483
C47	C	0.995992	0.184336	0.712592
C48	C	1.117512	0.062900	0.712578
C49	C	1.117503	0.062896	0.608476
C50	C	1.056736	0.123614	0.556433
H51	H	0.766067	0.275738	-0.000019
H52	H	0.913232	-0.128690	-0.000017
H53	H	1.205662	-0.336309	-0.000008
N54	N	1.230628	-0.157520	0.000010
H55	H	1.235002	-0.119271	-0.061294
H56	H	1.234928	-0.119337	0.061362
N57	N	0.293904	0.288419	-0.000032
H58	H	0.254718	0.291316	0.061276
H59	H	0.330973	0.340810	-0.000076
N60	N	0.930476	0.249819	0.768756
H61	H	0.940834	0.313322	0.750625
H62	H	0.867010	0.239330	0.750650
N63	N	0.886501	-0.401310	-0.000000
H64	H	0.883600	-0.362114	-0.061301
H65	H	0.834106	-0.438374	0.000045
H66	H	0.804417	-0.019892	-0.000003
H67	H	0.596803	0.272550	-0.000019
H68	H	1.203426	-0.454815	-0.000004
H69	H	1.166953	0.013451	0.433870
H70	H	1.166976	0.013459	0.566091
N71	N	0.882836	-0.595259	-0.000035
H72	H	0.832046	-0.544855	-0.000046
H73	H	0.878575	-0.633503	-0.061347
H74	H	1.166947	0.013451	0.245014
H75	H	0.946496	0.233770	0.566113
N76	N	0.625621	-0.044854	0.000009
H77	H	0.587377	-0.049210	0.061319
H78	H	0.587435	-0.049170	-0.061337
H79	H	1.166990	0.013461	0.754958
N80	N	0.531780	-0.046613	-0.000001
H81	H	0.520151	-0.082536	0.061310
H82	H	0.520146	-0.082467	-0.061346
N83	N	0.930429	0.249807	0.447653
H84	H	0.964651	0.289473	0.490827
H85	H	0.891947	0.288207	0.398825
H86	H	0.946469	0.233758	0.245029
H87	H	0.347391	-0.028503	-0.000014
N88	N	0.487842	0.292076	-0.000050
H89	H	0.437436	0.342864	-0.000054
H90	H	0.526090	0.296360	0.061254
H91	H	1.200227	-0.624078	-0.000019
H92	H	0.910038	-0.297958	-0.000028
