data_functionalizedCrystal
_audit_creation_method	'MofGen! by Chris Wilmer'
_symmetry_space_group_name_H-M	'P1'
_symmetry_Int_Tables_number	1
_symmetry_cell_setting	triclinic
loop_
_symmetry_equiv_pos_as_xyz
  x,y,z
_cell_length_a	16.956995
_cell_length_b	18.266242
_cell_length_c	16.992695
_cell_angle_alpha	89.993686
_cell_angle_beta	96.638653
_cell_angle_gamma	90.012304
loop_
_atom_site_label
_atom_site_type_symbol
_atom_site_fract_x
_atom_site_fract_y
_atom_site_fract_z
O1	O	1.060104	0.060932	-0.032364
O2	O	0.829694	0.060922	-0.059778
O3	O	0.943976	0.060921	0.068012
O4	O	0.945823	0.060933	-0.160154
O5	O	0.943955	-0.060841	0.068016
O6	O	0.829673	-0.060840	-0.059773
O7	O	1.060083	-0.060830	-0.032359
Zn8	Zn	0.944875	-0.080167	-0.046066
Zn9	Zn	0.944903	0.080259	-0.046072
O10	O	0.945802	-0.060829	-0.160149
C11	C	0.800065	0.000040	-0.061179
C12	C	0.711811	0.000036	-0.065352
N13	N	0.944862	-0.189654	-0.046060
C14	C	0.214500	0.000065	-0.096570
C15	C	0.297425	0.000065	-0.092643
C16	C	0.343815	0.000055	-0.018931
C17	C	0.307278	0.000054	0.050860
C18	C	0.224354	0.000060	0.046932
C19	C	0.592349	0.000041	0.000510
C20	C	0.675278	0.000033	0.004433
C21	C	0.665419	0.000045	-0.139071
C22	C	0.582495	0.000047	-0.142992
C23	C	0.545964	0.000049	-0.073202
N24	N	0.428578	0.000052	-0.014915
N25	N	0.461203	0.000058	-0.077218
C26	C	0.995485	-0.227964	0.010500
C27	C	0.995490	-0.304609	0.010504
C28	C	0.944880	-0.342941	-0.046065
C29	C	0.894247	-0.304623	-0.102630
C30	C	0.894238	-0.227979	-0.102628
N31	N	0.939175	-0.463270	-0.115816
N32	N	0.939188	-0.536078	-0.115816
C33	C	0.944903	-0.573864	-0.046075
N34	N	0.950619	-0.536090	0.023668
N35	N	0.950610	-0.463275	0.023667
C36	C	0.944884	-0.426048	-0.046074
C37	C	0.995534	-0.695280	0.010494
C38	C	0.995533	-0.771926	0.010499
C39	C	0.894294	-0.771939	-0.102642
C40	C	0.894291	-0.695294	-0.102640
C41	C	0.944915	-0.656969	-0.046073
C42	C	1.089713	0.000053	-0.030958
C43	C	1.177967	0.000062	-0.026785
C44	C	0.941589	0.000040	0.097073
C45	C	0.934498	0.000040	0.183657
N46	N	0.944922	0.189746	-0.046071
C47	C	0.948189	0.000053	-0.189210
C48	C	0.955280	0.000058	-0.275795
C49	C	1.002913	0.000042	0.238332
C50	C	0.996246	0.000049	0.319686
C51	C	0.921163	0.000048	0.346365
C52	C	0.852743	0.000048	0.291683
C53	C	0.859411	0.000047	0.210331
C54	C	0.893527	0.000057	0.588171
C55	C	0.886865	0.000056	0.669531
C56	C	1.030368	0.000058	0.697528
C57	C	1.037029	0.000052	0.616172
C58	C	0.968609	0.000056	0.561498
N59	N	0.914346	0.000053	0.429522
N60	N	0.975427	0.000057	0.478343
H61	H	0.176733	0.000067	-0.156595
H62	H	0.345056	0.000051	0.110878
N63	N	0.334758	0.000069	-0.163917
N64	N	0.379947	0.051393	-0.177735
H65	H	0.406317	0.051397	-0.228074
H66	H	0.695172	0.000044	-0.195890
H67	H	0.853038	-0.335837	-0.148689
H68	H	1.051957	0.000049	0.364200
H69	H	1.036715	-0.335806	0.056564
H70	H	1.064053	0.000038	0.216618
N71	N	0.842541	-0.188832	-0.160410
N72	N	0.842547	-0.120401	-0.160405
H73	H	0.806039	-0.092750	-0.201216
N74	N	0.776040	0.000051	0.318915
N75	N	0.728750	0.051373	0.300447
H76	H	0.674575	0.051373	0.319675
H77	H	0.853072	-0.664100	-0.148700
H78	H	0.544728	0.000056	-0.203017
H79	H	0.713048	0.000029	0.064462
H80	H	0.853084	-0.803149	-0.148699
H81	H	0.803700	0.000045	0.165814
H82	H	1.098170	0.000053	0.594458
H83	H	0.562616	0.000042	0.057338
H84	H	1.036753	-0.664075	0.056557
N85	N	1.100261	0.000053	0.753365
N86	N	1.149039	-0.051271	0.753656
H87	H	1.198405	-0.051274	0.793091
N88	N	0.810168	0.000037	0.696788
N89	N	0.762864	-0.051293	0.678337
H90	H	0.708700	-0.051312	0.697590
N91	N	0.187047	0.000062	0.118223
N92	N	0.228474	0.000055	0.184034
H93	H	0.202128	0.000059	0.234387
N94	N	1.047270	-0.188829	0.068225
N95	N	1.092514	-0.223049	0.118681
H96	H	1.129115	-0.195409	0.159427
H97	H	1.036754	-0.803119	0.056561
H98	H	0.837815	0.000060	0.543665
