data_functionalizedCrystal
_audit_creation_method	'MofGen! by Chris Wilmer'
_symmetry_space_group_name_H-M	'P1'
_symmetry_Int_Tables_number	1
_symmetry_cell_setting	triclinic
loop_
_symmetry_equiv_pos_as_xyz
  x,y,z
_cell_length_a	11.026607
_cell_length_b	10.654562
_cell_length_c	9.130313
_cell_angle_alpha	89.996930
_cell_angle_beta	90.000037
_cell_angle_gamma	96.538060
loop_
_atom_site_label
_atom_site_type_symbol
_atom_site_fract_x
_atom_site_fract_y
_atom_site_fract_z
O1	O	0.170837	1.704908	-0.121893
O2	O	0.187091	1.342960	-0.121875
O3	O	0.002057	1.493936	-0.121877
O4	O	0.355871	1.553932	-0.121891
O5	O	0.002062	1.493935	0.121721
O6	O	0.187096	1.342959	0.121724
O7	O	0.170842	1.704907	0.121705
Cu8	Cu	0.178969	1.523933	0.143957
Cu9	Cu	0.178964	1.523934	-0.144127
O10	O	0.355876	1.553931	0.121708
C11	C	0.185897	1.295902	-0.000073
C12	C	0.182316	1.155682	-0.000066
C13	C	0.180649	1.089788	0.132708
C14	C	0.177295	0.958038	0.132684
C15	C	0.177280	0.958087	-0.132901
C16	C	0.180626	1.089835	-0.132875
C17	C	0.180663	1.089759	0.286042
C18	C	0.177309	0.958009	0.286017
C19	C	-0.043245	1.482867	-0.000079
C20	C	-0.178238	1.449873	-0.000083
C21	C	-0.251273	1.540976	-0.000089
C22	C	-0.390796	1.506877	-0.000093
C23	C	0.401178	1.564999	-0.000094
C24	C	0.536171	1.597994	-0.000100
C25	C	0.172036	1.751965	-0.000100
C26	C	0.175617	1.892185	-0.000116
N27	N	0.178973	1.523941	0.346580
N28	N	0.178951	1.523934	-0.346749
C29	C	0.097068	1.590821	0.423231
C30	C	0.097053	1.590814	0.576567
C31	C	0.260859	1.457045	0.576589
C32	C	0.260867	1.457045	0.423255
C33	C	0.002500	1.668056	0.423219
C34	C	0.002485	1.668049	0.576556
H35	H	0.269336	1.138581	0.333615
F36	F	0.287135	0.921343	0.362952
F37	F	0.029709	1.800105	0.630952
F38	F	0.041222	1.795637	0.361042
F39	F	-0.197997	1.675924	-0.000105
H40	H	-0.090953	1.626327	0.381604
H41	H	-0.085828	1.618366	0.624108
H42	H	-0.431555	1.403628	-0.000097
H43	H	0.088638	0.909173	0.333600
H44	H	-0.423071	1.701243	-0.000215
H45	H	-0.219003	1.346631	-0.000087
H46	H	0.327534	1.402580	0.639034
F47	F	0.182377	1.159957	-0.274191
F48	F	0.175469	0.887996	-0.274238
H49	H	0.096640	1.117780	0.344928
F50	F	0.348025	1.385846	0.341678
