data_functionalizedCrystal
_audit_creation_method	'MofGen! by Chris Wilmer'
_symmetry_space_group_name_H-M	'P1'
_symmetry_Int_Tables_number	1
_symmetry_cell_setting	triclinic
loop_
_symmetry_equiv_pos_as_xyz
  x,y,z
_cell_length_a	14.044220
_cell_length_b	12.837942
_cell_length_c	11.295483
_cell_angle_alpha	85.469583
_cell_angle_beta	94.474773
_cell_angle_gamma	94.008909
loop_
_atom_site_label
_atom_site_type_symbol
_atom_site_fract_x
_atom_site_fract_y
_atom_site_fract_z
O1	O	-1.286265	-0.245585	-0.098895
O2	O	-1.009476	-0.236489	-0.098925
O3	O	-1.141733	-0.089567	-0.098903
O4	O	-1.154009	-0.392507	-0.098916
O5	O	-1.130114	-0.102450	0.099146
O6	O	-0.997858	-0.249372	0.099124
O7	O	-1.274647	-0.258468	0.099154
Cu8	Cu	-1.135192	-0.255096	0.117222
Cu9	Cu	-1.148932	-0.239861	-0.116993
O10	O	-1.142390	-0.405390	0.099132
C11	C	-1.131777	-0.057005	0.000120
C12	C	-1.119410	0.059216	0.000117
C13	C	-0.967993	-0.238949	0.000096
C14	C	-0.861696	-0.227074	0.000084
C15	C	-1.316130	-0.256008	0.000131
C16	C	-1.422428	-0.267882	0.000135
C17	C	-0.667072	-0.205367	0.000109
C18	C	-0.617046	-0.289584	0.000110
C19	C	-0.508750	-0.277506	0.000124
C20	C	-0.775377	-0.217444	0.000095
C21	C	-1.152346	-0.437952	0.000106
C22	C	-1.164714	-0.554173	0.000102
N23	N	-1.125534	-0.265812	0.281957
C24	C	-1.268089	0.286427	0.000108
C25	C	-1.256474	0.395627	0.000105
C26	C	-1.084564	0.386819	0.000099
C27	C	-1.096180	0.277619	0.000102
C28	C	-1.187945	0.227427	0.000108
C29	C	-1.199560	0.118224	0.000120
C30	C	-1.027651	0.109419	0.000105
C31	C	-1.016036	0.218619	0.000102
N32	N	-1.158595	-0.229138	-0.281728
C33	C	-1.228107	-0.151941	0.531264
C34	C	-1.220817	-0.160047	0.655926
C35	C	-1.103658	-0.290124	0.655947
C36	C	-1.110949	-0.282018	0.531284
C37	C	-1.173176	-0.212926	0.468947
C38	C	-1.180471	-0.204826	0.344282
C39	C	-1.063309	-0.334896	0.344305
C40	C	-1.056018	-0.343002	0.468968
H41	H	-0.655549	-0.370756	0.000101
H42	H	-0.962391	0.061368	0.000115
H43	H	-0.941323	0.259501	0.000092
N44	N	-1.036556	-0.364639	0.723211
H45	H	-1.055537	-0.438447	0.701523
H46	H	-0.968915	-0.344797	0.701511
H47	H	-1.005351	-0.399253	0.519737
N48	N	-1.298531	0.064087	0.000127
H49	H	-1.293732	-0.014044	0.000135
H50	H	-1.329727	0.080332	0.073548
N51	N	-0.616071	-0.097856	0.000122
H52	H	-0.579044	-0.084331	-0.073290
H53	H	-0.664594	-0.043392	0.000163
H54	H	-1.342808	0.245559	0.000125
N55	N	-1.295201	-0.077416	0.464002
H56	H	-1.344154	-0.117931	0.412262
H57	H	-1.328832	-0.040019	0.522459
N58	N	-1.247588	-0.130313	0.277042
H59	H	-1.281278	-0.092909	0.335441
H60	H	-1.209844	-0.077332	0.225324
N61	N	-1.342914	0.459266	0.000102
H62	H	-1.402806	0.410895	0.000107
H63	H	-1.337535	0.499993	0.073521
N64	N	-1.004054	-0.400684	0.277105
H65	H	-1.047788	-0.447006	0.225379
H66	H	-0.961150	-0.353374	0.225455
N67	N	-1.280074	-0.094281	0.723137
H68	H	-1.266016	-0.109899	0.811570
H69	H	-1.263609	-0.017678	0.701351
N70	N	-0.985596	0.440963	0.000083
H71	H	-0.981257	0.490842	-0.073340
H72	H	-0.972702	0.481247	0.073543
