data_functionalizedCrystal
_audit_creation_method	'MofGen! by Chris Wilmer'
_symmetry_space_group_name_H-M	'P1'
_symmetry_Int_Tables_number	1
_symmetry_cell_setting	triclinic
loop_
_symmetry_equiv_pos_as_xyz
  x,y,z
_cell_length_a	6.817900
_cell_length_b	16.015009
_cell_length_c	14.125465
_cell_angle_alpha	78.289038
_cell_angle_beta	100.398878
_cell_angle_gamma	104.487874
loop_
_atom_site_label
_atom_site_type_symbol
_atom_site_fract_x
_atom_site_fract_y
_atom_site_fract_z
V1	V	-3.980784	-0.118912	-0.258334
O2	O	-3.980082	0.006479	-0.296535
O3	O	-3.922123	-0.236518	-0.215098
O4	O	-3.917118	-0.116747	-0.389922
O5	O	-3.985122	-0.114121	-0.120500
V6	V	-4.467720	-0.103953	-0.246886
O7	O	-4.234557	-0.151725	-0.283447
O8	O	-4.664145	-0.071141	-0.221773
O9	O	-4.303174	0.013652	-0.290122
O10	O	-4.585819	-0.229344	-0.208685
O11	O	-4.580779	-0.108745	-0.384720
O12	O	-4.308179	-0.106118	-0.115298
C13	C	-3.765122	-0.265198	-0.200322
C14	C	-3.798345	-0.361340	-0.165849
C15	C	-3.816415	-0.484718	-0.033407
C16	C	-3.785199	-0.394380	-0.065810
C17	C	-3.842726	-0.418634	-0.233524
C18	C	-3.873957	-0.508976	-0.201136
C19	C	-3.860795	-0.542011	-0.101076
C20	C	-3.918337	-0.566269	-0.268805
C21	C	-3.949555	-0.656604	-0.236418
C22	C	-3.936392	-0.689646	-0.136362
C23	C	-3.892013	-0.632346	-0.068689
C24	C	-3.931483	-0.533232	-0.368864
C25	C	-3.975864	-0.590525	-0.436533
C26	C	-4.007097	-0.680862	-0.404147
C27	C	-3.993934	-0.713904	-0.304091
C28	C	-4.051475	-0.738162	-0.471820
C29	C	-4.082693	-0.828496	-0.439433
C30	C	-4.025151	-0.804238	-0.271704
C31	C	-3.758736	-0.112418	-0.423327
C32	C	-3.787898	-0.111426	-0.530629
C33	C	-3.841349	-0.109608	-0.727088
C34	C	-4.026524	-0.113256	-0.778132
C35	C	-4.056267	-0.112244	-0.887449
C36	C	-3.811598	-0.110620	-0.617762
C37	C	-4.123517	0.042328	-0.304894
C38	C	-4.069532	0.138469	-0.339373
C39	C	-4.129903	-0.110450	-0.081887
C40	C	-4.079981	-0.111437	0.025414
H41	H	-4.118824	-0.875146	-0.494536
O42	O	-3.660947	-0.104478	-0.777938
H43	H	-3.712999	-0.104490	-0.857062
H44	H	-4.014448	-0.831137	-0.190226
H45	H	-3.961799	-0.763202	-0.109994
H46	H	-3.881310	-0.659244	0.012789
H47	H	-3.805712	-0.511617	0.048071
H48	H	-3.986567	-0.563615	-0.518002
O49	O	-4.206945	-0.118396	-0.727281
H50	H	-4.322722	-0.179473	-0.737750
H51	H	-3.749045	-0.347733	-0.010697
O52	O	-3.857184	-0.382938	-0.341432
H53	H	-3.708993	-0.339026	-0.357842
O54	O	-3.897798	-0.435799	-0.403800
H55	H	-4.037427	-0.420500	-0.450992
O56	O	-4.066023	-0.702537	-0.579744
H57	H	-4.036996	-0.630100	-0.590898
