data_functionalizedCrystal
_audit_creation_method	'MofGen! by Chris Wilmer'
_symmetry_space_group_name_H-M	'P1'
_symmetry_Int_Tables_number	1
_symmetry_cell_setting	triclinic
loop_
_symmetry_equiv_pos_as_xyz
  x,y,z
_cell_length_a	19.188930
_cell_length_b	11.792241
_cell_length_c	10.868271
_cell_angle_alpha	90.005281
_cell_angle_beta	90.018197
_cell_angle_gamma	83.669098
loop_
_atom_site_label
_atom_site_type_symbol
_atom_site_fract_x
_atom_site_fract_y
_atom_site_fract_z
O1	O	-0.926947	-0.141694	-0.102719
O2	O	-0.723744	-0.160769	-0.102634
O3	O	-0.830277	0.014013	-0.102670
O4	O	-0.820414	-0.316476	-0.102683
O5	O	-0.830268	0.014020	0.101975
O6	O	-0.723735	-0.160762	0.102010
O7	O	-0.926938	-0.141688	0.101926
Zn8	Zn	-0.825335	-0.151224	0.134460
Zn9	Zn	-0.825347	-0.151233	-0.135168
O10	O	-0.820406	-0.316469	0.101962
C11	C	-0.829653	0.056298	-0.000348
C12	C	-0.827799	0.182284	-0.000348
C13	C	-0.697725	-0.160148	-0.000301
C14	C	-0.620210	-0.158293	-0.000269
C15	C	-0.952957	-0.142309	-0.000410
C16	C	-1.030472	-0.144163	-0.000450
C17	C	-0.575867	-0.260849	-0.000292
C18	C	-0.503033	-0.259107	-0.000306
C19	C	-0.474546	-0.154803	-0.000320
C20	C	-0.518899	-0.052234	-0.000290
C21	C	-0.591731	-0.053979	-0.000264
N22	N	-0.366117	-0.075078	-0.070016
N23	N	-0.296929	-0.073428	-0.070043
C24	C	-0.255107	-0.149540	-0.000395
N25	N	-0.285086	-0.227382	0.069265
N26	N	-0.354280	-0.229036	0.069287
C27	C	-0.395573	-0.152900	-0.000348
C28	C	-0.131789	-0.250214	-0.000432
C29	C	-0.058955	-0.248468	-0.000438
C30	C	-0.074822	-0.041591	-0.000434
C31	C	-0.147655	-0.043341	-0.000416
C32	C	-0.176134	-0.147655	-0.000421
C33	C	-0.821029	-0.358754	-0.000363
C34	C	-0.822884	-0.484740	-0.000371
N35	N	-0.825332	-0.151217	0.318474
C36	C	-0.824389	0.412945	-0.000367
C37	C	-0.826283	0.284588	-0.000357
N38	N	-0.825355	-0.151230	-0.319182
C39	C	-0.825343	-0.151230	0.569480
C40	C	-0.825335	-0.151226	0.429803
H41	H	-0.466922	-0.342624	-0.000321
N42	N	-0.488172	0.060261	-0.000296
H43	H	-0.458330	0.065597	-0.076169
H44	H	-0.527354	0.124906	-0.000228
H45	H	-0.599050	-0.345790	-0.000298
N46	N	-0.044101	0.070906	-0.000448
H47	H	-0.060264	0.115822	-0.076303
H48	H	-0.060231	0.115732	0.075471
N49	N	-0.639563	0.056639	-0.000233
H50	H	-0.610468	0.122983	-0.000239
H51	H	-0.670149	0.060422	-0.076088
N52	N	-0.011126	-0.359090	-0.000473
H53	H	0.039336	-0.342159	-0.000483
H54	H	-0.020371	-0.404570	0.075387
H55	H	-0.154978	-0.335153	-0.000417
N56	N	-0.195488	0.067274	-0.000391
H57	H	-0.166392	0.133617	-0.000400
H58	H	-0.226076	0.071057	-0.076242
