data_functionalizedCrystal
_audit_creation_method	'MofGen! by Chris Wilmer'
_symmetry_space_group_name_H-M	'P1'
_symmetry_Int_Tables_number	1
_symmetry_cell_setting	triclinic
loop_
_symmetry_equiv_pos_as_xyz
  x,y,z
_cell_length_a	12.827893
_cell_length_b	16.625545
_cell_length_c	12.827885
_cell_angle_alpha	90.033151
_cell_angle_beta	89.980538
_cell_angle_gamma	89.975993
loop_
_atom_site_label
_atom_site_type_symbol
_atom_site_fract_x
_atom_site_fract_y
_atom_site_fract_z
Zn1	Zn	1.597609	0.320962	-0.590826
Zn2	Zn	1.597476	0.455816	-0.416076
Zn3	Zn	1.422850	0.321001	-0.416099
Zn4	Zn	1.422809	0.455756	-0.590776
O5	O	1.510186	0.388384	-0.503444
O6	O	1.743827	0.338859	-0.567656
O7	O	1.574273	0.437975	-0.269843
O8	O	1.446104	0.208164	-0.439307
O9	O	1.743730	0.437936	-0.439268
O10	O	1.574499	0.208135	-0.567678
O11	O	1.445976	0.338927	-0.269860
O12	O	1.276608	0.338868	-0.439259
O13	O	1.446035	0.437833	-0.737019
O14	O	1.276578	0.437872	-0.567594
O15	O	1.574460	0.338801	-0.737055
O16	O	1.574233	0.568641	-0.439220
O17	O	1.445906	0.568596	-0.567572
C18	C	1.238676	0.388368	-0.503424
C19	C	1.122523	0.388381	-0.503441
C20	C	1.070751	0.437448	-0.566847
C21	C	0.950701	0.437462	-0.566865
C22	C	1.510080	0.597875	-0.503411
C23	C	1.510130	0.687496	-0.503431
C24	C	1.510300	1.015671	-0.503556
C25	C	1.510249	0.924363	-0.503524
C26	C	1.510214	0.851587	-0.503493
C27	C	1.510165	0.760272	-0.503463
C28	C	1.782756	0.388400	-0.503465
C29	C	1.898909	0.388407	-0.503474
C30	C	1.510258	0.388306	-0.776015
C31	C	1.510289	0.388272	-0.892168
C32	C	1.510312	1.178075	-0.503513
C33	C	1.510343	1.088454	-0.503574
C34	C	1.573874	0.339225	-1.064015
C35	C	1.573844	0.339258	-0.943965
C36	C	1.510174	0.388404	-0.231934
C37	C	1.510346	0.388210	-0.115782
H38	H	0.906178	0.479472	-0.621146
O39	O	1.645901	0.283707	-0.885009
H40	H	1.634577	0.292456	-0.799969
H41	H	1.628290	0.297266	-1.108572
H42	H	1.115304	0.479442	-0.621121
O43	O	0.957858	0.332757	-0.431552
H44	H	1.007619	0.291798	-0.478449
O45	O	1.063505	0.332756	-0.431548
H46	H	1.084410	0.269470	-0.449592
O47	O	1.438229	0.443826	-0.951118
H48	H	1.485027	0.484808	-1.000835
O49	O	1.438242	0.443783	-1.056780
H50	H	1.456096	0.507080	-1.077641
