data_functionalizedCrystal
_audit_creation_method	'MofGen! by Chris Wilmer'
_symmetry_space_group_name_H-M	'P1'
_symmetry_Int_Tables_number	1
_symmetry_cell_setting	triclinic
loop_
_symmetry_equiv_pos_as_xyz
  x,y,z
_cell_length_a	12.645331
_cell_length_b	16.625546
_cell_length_c	16.625548
_cell_angle_alpha	90.011514
_cell_angle_beta	90.004959
_cell_angle_gamma	90.021447
loop_
_atom_site_label
_atom_site_type_symbol
_atom_site_fract_x
_atom_site_fract_y
_atom_site_fract_z
Zn1	Zn	1.620511	-0.321172	0.455902
Zn2	Zn	1.620432	-0.455971	0.321064
Zn3	Zn	1.443280	-0.321154	0.321082
Zn4	Zn	1.443192	-0.455964	0.455853
O5	O	1.531854	-0.388565	0.388475
O6	O	1.768847	-0.339064	0.438028
O7	O	1.596937	-0.438082	0.208234
O8	O	1.466860	-0.208324	0.338994
O9	O	1.768790	-0.438100	0.338964
O10	O	1.597070	-0.208338	0.438045
O11	O	1.466784	-0.339033	0.208247
O12	O	1.294921	-0.339026	0.338947
O13	O	1.466710	-0.438089	0.568692
O14	O	1.294857	-0.438071	0.437963
O15	O	1.596985	-0.339058	0.568728
O16	O	1.596852	-0.568803	0.338917
O17	O	1.466634	-0.568798	0.437946
C18	C	1.531754	-0.598056	0.388442
C19	C	1.531808	-0.687677	0.388454
C20	C	1.256424	-0.388546	0.388452
C21	C	1.138594	-0.388557	0.388461
C22	C	1.531992	-1.015853	0.388538
C23	C	1.531938	-0.924545	0.388517
C24	C	1.531899	-0.851768	0.388496
C25	C	1.531846	-0.760454	0.388475
C26	C	0.971035	-0.325962	0.326514
C27	C	1.093595	-0.326124	0.326241
C28	C	1.094074	-0.473488	0.365243
C29	C	0.971476	-0.473146	0.364820
C30	C	0.971412	-0.367030	0.473866
C31	C	1.094019	-0.365133	0.473392
C32	C	1.808359	-0.388585	0.388499
C33	C	1.926189	-0.388594	0.388509
C34	C	1.531846	-0.388575	0.598784
C35	C	1.531843	-0.388579	0.688405
C36	C	1.531983	-0.178257	0.388527
C37	C	1.532039	-0.088635	0.388549
C38	C	1.531840	-0.388582	0.761188
C39	C	1.531839	-0.388580	0.852496
C40	C	1.531843	-0.388573	0.925273
C41	C	1.531844	-0.388571	1.016587
C42	C	1.531851	-0.388573	1.178985
C43	C	1.531848	-0.388564	1.089363
H44	H	0.941572	-0.262792	0.340912
C45	C	1.135505	-0.498625	0.281846
C46	C	1.209674	-0.442242	0.234743
C47	C	1.251102	-0.467374	0.151344
C48	C	1.218362	-0.548889	0.115049
C49	C	1.144189	-0.605277	0.162152
C50	C	1.102760	-0.580145	0.245551
H51	H	1.233914	-0.381896	0.261611
H52	H	1.306010	-0.425632	0.116475
H53	H	1.249029	-0.567493	0.053312
H54	H	1.119948	-0.665624	0.135284
H55	H	1.047852	-0.621888	0.280420
C56	C	0.929393	-0.344989	0.241564
C57	C	0.854917	-0.417086	0.228299
C58	C	0.813275	-0.436116	0.143351
C59	C	0.846109	-0.383049	0.071667
C60	C	0.920589	-0.310946	0.084929
C61	C	0.962231	-0.291916	0.169878
H62	H	0.830608	-0.456375	0.281366
H63	H	0.758139	-0.489492	0.133533
H64	H	0.815283	-0.397136	0.008782
H65	H	0.944898	-0.271658	0.031863
H66	H	1.017367	-0.238541	0.179696
C67	C	0.932240	-0.428657	0.536272
C68	C	0.859582	-0.498205	0.509963
C69	C	0.820407	-0.559836	0.572359
C70	C	0.853890	-0.551919	0.661066
C71	C	0.926552	-0.482368	0.687380
C72	C	0.965727	-0.420737	0.624983
H73	H	0.834792	-0.504068	0.444293
H74	H	0.766618	-0.611322	0.552880
H75	H	0.824891	-0.597541	0.707256
H76	H	0.951342	-0.476504	0.753050
H77	H	1.019516	-0.369251	0.644463
C78	C	1.133322	-0.280697	0.497047
C79	C	1.205552	-0.233216	0.439541
C80	C	1.244858	-0.148779	0.463191
C81	C	1.211933	-0.111821	0.544349
C82	C	1.139699	-0.159302	0.601860
C83	C	1.100393	-0.243740	0.578209
H84	H	1.229928	-0.260574	0.379459
H85	H	1.298331	-0.113630	0.420617
H86	H	1.241030	-0.049315	0.561856
H87	H	1.115323	-0.131944	0.661942
H88	H	1.046920	-0.278888	0.620784
H89	H	0.941808	-0.521390	0.408005
H90	H	1.122897	-0.340374	0.262988
H91	H	1.123697	-0.263143	0.340795
H92	H	1.124652	-0.407425	0.522054
H93	H	0.942853	-0.491436	0.302420
C94	C	1.133450	-0.538220	0.424321
C95	C	1.206662	-0.514656	0.494503
C96	C	1.246039	-0.579387	0.553582
C97	C	1.212205	-0.667681	0.542478
C98	C	1.138989	-0.691249	0.472293
C99	C	1.099611	-0.626519	0.413214
H100	H	1.231712	-0.449292	0.502725
H101	H	1.300239	-0.561940	0.605537
H102	H	1.241354	-0.715599	0.586212
H103	H	1.113939	-0.756614	0.464071
H104	H	1.045412	-0.643966	0.361258
H105	H	0.940514	-0.306182	0.494981
