data_functionalizedCrystal
_audit_creation_method	'MofGen! by Chris Wilmer'
_symmetry_space_group_name_H-M	'P1'
_symmetry_Int_Tables_number	1
_symmetry_cell_setting	triclinic
loop_
_symmetry_equiv_pos_as_xyz
  x,y,z
_cell_length_a	15.995350
_cell_length_b	9.065218
_cell_length_c	7.540329
_cell_angle_alpha	90.001757
_cell_angle_beta	90.003409
_cell_angle_gamma	95.745870
loop_
_atom_site_label
_atom_site_type_symbol
_atom_site_fract_x
_atom_site_fract_y
_atom_site_fract_z
O1	O	1.112426	-0.190160	-0.147213
O2	O	0.868829	-0.213643	-0.147273
O3	O	0.995662	0.012860	-0.147238
O4	O	0.985592	-0.416662	-0.147248
O5	O	0.995655	0.012862	0.147727
O6	O	0.868821	-0.213640	0.147692
O7	O	1.112418	-0.190157	0.147752
Cu8	Cu	0.990619	-0.201898	0.174655
Cu9	Cu	0.990628	-0.201902	-0.174175
O10	O	0.985585	-0.416660	0.147717
C11	C	0.994691	0.067825	0.000241
C12	C	0.991797	0.231600	0.000232
C13	C	0.837623	-0.212670	0.000202
C14	C	0.744650	-0.209760	0.000179
C15	C	1.143624	-0.191129	0.000274
C16	C	1.236597	-0.194040	0.000285
C17	C	1.574423	-0.204492	0.000214
C18	C	1.528213	-0.365803	0.000877
C19	C	1.431500	-0.362892	0.000231
C20	C	1.406824	-0.199308	0.000250
C21	C	1.447285	-0.119745	-0.168190
C22	C	1.543952	-0.123797	-0.168350
C23	C	1.544309	-0.120462	0.167080
C24	C	1.447364	-0.120501	0.169325
C25	C	1.312104	-0.196369	0.000265
C26	C	1.669143	-0.207426	0.000187
C27	C	0.986556	-0.471625	0.000234
C28	C	0.989450	-0.635400	0.000232
N29	N	0.990619	-0.201895	0.420003
N30	N	0.990635	-0.201893	-0.419524
H31	H	1.547244	-0.430278	0.121657
N32	N	1.411815	-0.197416	0.334422
H33	H	1.458780	-0.235948	0.404756
H34	H	1.369607	-0.282909	0.299747
N35	N	1.585483	0.033071	-0.178493
H36	H	1.567480	0.081446	-0.290993
H37	H	1.648530	0.031539	-0.178604
H38	H	1.404104	-0.425852	-0.120718
H39	H	1.548284	-0.429991	-0.119248
N40	N	1.394485	-0.445770	0.160138
H41	H	1.331447	-0.444045	0.160013
H42	H	1.418710	-0.396892	0.271727
N43	N	1.427375	0.039452	-0.176485
H44	H	1.391848	0.061580	-0.070882
H45	H	1.395590	0.055826	-0.289363
H46	H	1.562683	-0.181821	-0.294267
H47	H	1.419290	-0.174970	-0.293537
H48	H	1.565260	-0.173200	0.294739
H49	H	1.431101	-0.001207	0.179506
N50	N	1.585180	0.037079	0.168600
H51	H	1.623021	0.054002	0.061783
H52	H	1.619498	0.054700	0.280410
