data_functionalizedCrystal
_audit_creation_method	'MofGen! by Chris Wilmer'
_symmetry_space_group_name_H-M	'P1'
_symmetry_Int_Tables_number	1
_symmetry_cell_setting	triclinic
loop_
_symmetry_equiv_pos_as_xyz
  x,y,z
_cell_length_a	12.645331
_cell_length_b	21.295417
_cell_length_c	21.295411
_cell_angle_alpha	90.021841
_cell_angle_beta	89.982206
_cell_angle_gamma	89.965187
loop_
_atom_site_label
_atom_site_type_symbol
_atom_site_fract_x
_atom_site_fract_y
_atom_site_fract_z
Zn1	Zn	1.620621	0.250694	-0.355797
Zn2	Zn	2.120621	0.750694	0.144203
Zn3	Zn	1.620441	0.355946	-0.250522
Zn4	Zn	2.120441	0.855946	0.249478
Zn5	Zn	1.443329	0.250693	-0.250554
Zn6	Zn	1.943329	0.750693	0.249446
Zn7	Zn	1.443262	0.355928	-0.355766
Zn8	Zn	1.943262	0.855928	0.144234
O9	O	1.531913	0.303315	-0.303160
O10	O	2.031913	0.803315	0.196840
O11	O	1.768944	0.264664	-0.341831
O12	O	2.268944	0.764664	0.158169
O13	O	1.596899	0.341991	-0.162437
O14	O	2.096899	0.841991	0.337563
O15	O	1.466951	0.162604	-0.264541
O16	O	1.966951	0.662604	0.235459
O17	O	1.768812	0.341992	-0.264486
O18	O	2.268812	0.841992	0.235514
O19	O	1.597206	0.162604	-0.341863
O20	O	2.097206	0.662604	0.158137
O21	O	1.466776	0.264662	-0.162461
O22	O	1.966776	0.764662	0.337539
O23	O	1.294973	0.264645	-0.264512
O24	O	1.794973	0.764645	0.235488
O25	O	1.466836	0.341961	-0.443860
O26	O	1.966836	0.841961	0.056140
O27	O	1.294924	0.341960	-0.341810
O28	O	1.794924	0.841960	0.158190
O29	O	1.597141	0.264646	-0.443882
O30	O	2.097141	0.764646	0.056118
O31	O	1.596834	0.444033	-0.264456
O32	O	2.096834	0.944033	0.235544
O33	O	1.466662	0.444019	-0.341779
O34	O	1.966662	0.944019	0.158221
C35	C	1.256483	0.303301	-0.303161
C36	C	1.756483	0.803301	0.196839
C37	C	1.138653	0.303310	-0.303177
C38	C	1.638653	0.803310	0.196823
C39	C	0.971094	0.352216	-0.351552
C40	C	1.471094	0.852216	0.148448
C41	C	1.093654	0.352058	-0.351754
C42	C	1.593654	0.852058	0.148246
C43	C	1.094211	0.237013	-0.321312
C44	C	1.594211	0.737013	0.178688
C45	C	0.971613	0.237311	-0.321652
C46	C	1.471613	0.737311	0.178348
C47	C	0.971395	0.320167	-0.236514
C48	C	1.471395	0.820167	0.263486
C49	C	1.094000	0.321617	-0.236873
C50	C	1.594000	0.821617	0.263127
C51	C	1.531750	0.466867	-0.303124
C52	C	2.031750	0.966867	0.196876
C53	C	1.531777	0.536835	-0.303130
C54	C	2.031777	1.036835	0.196870
C55	C	1.599556	0.569645	-0.343420
C56	C	2.099556	1.069645	0.156580
C57	C	1.599583	0.635387	-0.343434
C58	C	2.099583	1.135387	0.156566
C59	C	1.531840	0.668317	-0.303147
C60	C	2.031840	1.168317	0.196853
C61	C	1.464047	0.635499	-0.262855
C62	C	1.964047	1.135499	0.237145
C63	C	1.464016	0.569758	-0.262847
C64	C	1.964016	1.069758	0.237153
N65	N	1.523807	0.771569	-0.248055
N66	N	2.023807	1.271569	0.251945
N67	N	1.523843	0.834021	-0.248064
N68	N	2.023843	1.334021	0.251936
C69	C	1.531930	0.866392	-0.303171
C70	C	2.031930	1.366392	0.196829
N71	N	1.539999	0.833952	-0.358269
N72	N	2.039999	1.333952	0.141731
N73	N	1.539968	0.771495	-0.358259
N74	N	2.039968	1.271495	0.141741
C75	C	1.531866	0.739603	-0.303152
C76	C	2.031866	1.239603	0.196848
C77	C	1.599741	0.970487	-0.343479
C78	C	2.099741	1.470487	0.156521
C79	C	1.599760	1.036231	-0.343494
C80	C	2.099760	1.536231	0.156506
C81	C	1.464230	1.036342	-0.262910
C82	C	1.964230	1.536342	0.237090
C83	C	1.464206	0.970600	-0.262901
C84	C	1.964206	1.470600	0.237099
C85	C	1.531967	0.937676	-0.303184
C86	C	2.031967	1.437676	0.196816
C87	C	1.808418	0.303330	-0.303159
C88	C	2.308418	0.803330	0.196841
C89	C	1.926248	0.303336	-0.303158
C90	C	2.426248	0.803336	0.196842
C91	C	1.532001	0.303302	-0.467350
C92	C	2.032001	0.803302	0.032650
C93	C	1.532039	0.303296	-0.537318
C94	C	2.032039	0.803296	-0.037318
C95	C	1.532063	1.139125	-0.303204
C96	C	2.032063	1.639125	0.196796
C97	C	1.532015	1.069157	-0.303208
C98	C	2.032015	1.569157	0.196792
C99	C	1.599885	0.263036	-0.570198
C100	C	2.099885	0.763036	-0.070198
C101	C	1.599884	0.263009	-0.635940
C102	C	2.099884	0.763009	-0.135940
C103	C	1.532047	0.303253	-0.668801
C104	C	2.032047	0.803253	-0.168801
C105	C	1.464187	0.343515	-0.635913
C106	C	1.964187	0.843515	-0.135913
C107	C	1.464183	0.343537	-0.570172
C108	C	1.964183	0.843537	-0.070172
N109	N	1.523860	0.358320	-0.772017
N110	N	2.023860	0.858320	-0.272017
N111	N	1.523870	0.358298	-0.834468
N112	N	2.023870	0.858298	-0.334468
C113	C	1.532054	0.303189	-0.866876
C114	C	2.032054	0.803189	-0.366876
N115	N	1.540248	0.248102	-0.834473
N116	N	2.040248	0.748102	-0.334473
N117	N	1.540243	0.248125	-0.772015
N118	N	2.040243	0.748125	-0.272015
C119	C	1.532043	0.303233	-0.740086
C120	C	2.032043	0.803233	-0.240086
C121	C	1.599902	0.262896	-0.971041
C122	C	2.099902	0.762896	-0.471041
C123	C	1.599894	0.262868	-1.036784
C124	C	2.099894	0.762868	-0.536784
C125	C	1.464202	0.343380	-1.036756
C126	C	1.964202	0.843380	-0.536756
C127	C	1.464205	0.343402	-0.971014
C128	C	1.964205	0.843402	-0.471014
C129	C	1.532061	0.303162	-0.938160
C130	C	2.032061	0.803162	-0.438160
C131	C	1.531887	0.303283	-0.139608
C132	C	2.031887	0.803283	0.360392
C133	C	1.532054	0.303111	-0.069641
C134	C	2.032054	0.803111	0.430359
H135	H	1.123699	0.401222	-0.340388
H136	H	1.623699	0.901222	0.159612
H137	H	0.941575	0.401542	-0.340311
H138	H	1.441575	0.901542	0.159689
O139	O	1.398453	0.382548	-0.939003
O140	O	1.898453	0.882548	-0.439003
C141	C	1.458759	0.423232	-0.900996
C142	C	1.958759	0.923232	-0.400996
H143	H	1.539122	0.401038	-0.891160
H144	H	2.039122	0.901038	-0.391160
H145	H	1.415565	0.431683	-0.854760
H146	H	1.915565	0.931683	-0.354760
H147	H	1.470354	0.469874	-0.926333
H148	H	1.970354	0.969874	-0.426333
O149	O	1.665516	0.667170	-0.382599
O150	O	2.165516	1.167170	0.117401
C151	C	1.725287	0.624014	-0.418168
C152	C	2.225287	1.124014	0.081832
H153	H	1.728972	0.577163	-0.392380
H154	H	2.228972	1.077163	0.107620
H155	H	1.808809	0.642967	-0.424933
H156	H	2.308809	1.142967	0.075067
H157	H	1.686414	0.617014	-0.465954
H158	H	2.186414	1.117014	0.034046
H159	H	1.655138	0.230268	-0.543452
H160	H	2.155138	0.730268	-0.043452
O161	O	1.665852	0.223990	-0.667957
O162	O	2.165852	0.723990	-0.167957
C163	C	1.734290	0.259830	-0.705978
C164	C	2.234290	0.759830	-0.205978
H165	H	1.696834	0.307527	-0.715815
H166	H	2.196834	0.807527	-0.215815
H167	H	1.748538	0.234180	-0.752213
H168	H	2.248538	0.734180	-0.252213
H169	H	1.812839	0.266765	-0.680653
H170	H	2.312839	0.766765	-0.180653
O171	O	1.665223	0.537597	-0.382586
O172	O	2.165223	1.037597	0.117414
C173	C	1.604816	0.499595	-0.423224
C174	C	2.104816	0.999595	0.076776
H175	H	1.524492	0.489797	-0.400983
H176	H	2.024492	0.989797	0.099017
H177	H	1.647969	0.453340	-0.431679
H178	H	2.147969	0.953340	0.068321
H179	H	1.593140	0.524918	-0.469869
H180	H	2.093140	1.024918	0.030131
H181	H	1.655149	0.230126	-0.944290
H182	H	2.155149	0.730126	-0.444290
O183	O	1.398144	0.667387	-0.223700
O184	O	1.898144	1.167387	0.276300
C185	C	1.338330	0.624327	-0.188124
C186	C	1.838330	1.124327	0.311876
H187	H	1.334614	0.577454	-0.213901
H188	H	1.834614	1.077454	0.286099
H189	H	1.254821	0.643371	-0.181372
H190	H	1.754821	1.143371	0.318628
H191	H	1.377185	0.617338	-0.140333
H192	H	1.877185	1.117338	0.359667
O193	O	1.398210	0.537786	-0.223764
O194	O	1.898210	1.037786	0.276236
C195	C	1.412733	0.472701	-0.232382
C196	C	1.912733	0.972701	0.267618
H197	H	1.447410	0.463679	-0.280977
H198	H	1.947410	0.963679	0.219023
H199	H	1.333322	0.447757	-0.228071
H200	H	1.833322	0.947757	0.271929
H201	H	1.469210	0.454037	-0.195067
H202	H	1.969210	0.954037	0.304933
H203	H	1.409066	1.063153	-0.230112
H204	H	1.909066	1.563153	0.269888
H205	H	1.655141	0.230080	-1.063554
H206	H	2.155141	0.730080	-0.563554
O207	O	1.398444	0.382677	-0.667859
O208	O	1.898444	0.882677	-0.167859
C209	C	1.458754	0.423317	-0.705903
C210	C	1.958754	0.923317	-0.205903
H211	H	1.542241	0.427215	-0.686103
H212	H	2.042241	0.927215	-0.186103
H213	H	1.420356	0.471759	-0.706639
H214	H	1.920356	0.971759	-0.206639
H215	H	1.462434	0.403839	-0.755729
H216	H	1.962434	0.903839	-0.255729
O217	O	1.398459	0.382545	-1.068694
O218	O	1.898459	0.882545	-0.568694
C219	C	1.458772	0.423182	-1.106739
C220	C	1.958772	0.923182	-0.606739
H221	H	1.542262	0.427074	-1.086943
H222	H	2.042262	0.927074	-0.586943
H223	H	1.420383	0.471627	-1.107471
H224	H	1.920383	0.971627	-0.607471
H225	H	1.462442	0.403707	-1.156567
H226	H	1.962442	0.903707	-0.656567
O227	O	1.398341	0.938822	-0.223698
O228	O	1.898341	1.438822	0.276302
C229	C	1.338535	0.981981	-0.188153
C230	C	1.838535	1.481981	0.311847
H231	H	1.381978	1.028823	-0.186002
H232	H	1.881978	1.528823	0.313998
H233	H	1.327262	0.963019	-0.138547
H234	H	1.827262	1.463019	0.361453
H235	H	1.258005	0.989003	-0.211165
H236	H	1.758005	1.489003	0.288835
O237	O	0.934531	0.376830	-0.216738
O238	O	1.434531	0.876830	0.283262
C239	C	0.976492	0.390490	-0.156943
C240	C	1.476492	0.890490	0.343057
H241	H	1.000546	0.344929	-0.132745
H242	H	1.500546	0.844929	0.367255
H243	H	0.914130	0.415537	-0.127456
H244	H	1.414130	0.915537	0.372544
H245	H	1.048727	0.422050	-0.162277
H246	H	1.548727	0.922050	0.337723
O247	O	0.934326	0.338997	-0.410086
O248	O	1.434326	0.838997	0.089914
C249	C	0.868187	0.285782	-0.407491
C250	C	1.368187	0.785782	0.092509
H251	H	0.888676	0.256729	-0.364216
H252	H	1.388676	0.756729	0.135784
H253	H	0.880308	0.256124	-0.451489
H254	H	1.380308	0.756124	0.048511
H255	H	0.782098	0.301461	-0.404670
H256	H	1.282098	0.801461	0.095330
O257	O	1.665579	0.938598	-0.382677
O258	O	2.165579	1.438598	0.117323
C259	C	1.725419	0.981658	-0.418237
C260	C	2.225419	1.481658	0.081763
H261	H	1.682018	1.028543	-0.420398
H262	H	2.182018	1.528543	0.079602
H263	H	1.736664	0.962632	-0.467838
H264	H	2.236664	1.462632	0.032162
H265	H	1.805960	0.988619	-0.395232
H266	H	2.305960	1.488619	0.104768
O267	O	1.665454	1.068131	-0.382701
O268	O	2.165454	1.568131	0.117299
C269	C	1.605093	1.106179	-0.423331
C270	C	2.105093	1.606179	0.076669
H271	H	1.521588	1.086409	-0.427182
H272	H	2.021588	1.586409	0.072818
H273	H	1.643404	1.106877	-0.471791
H274	H	2.143404	1.606877	0.028209
H275	H	1.601477	1.156016	-0.403876
H276	H	2.101477	1.656016	0.096124
H277	H	1.123011	0.340920	-0.401135
H278	H	1.623011	0.840920	0.098865
H279	H	0.943049	0.223033	-0.370372
H280	H	1.443049	0.723033	0.129628
H281	H	0.941950	0.199587	-0.288021
H282	H	1.441950	0.699587	0.211979
H283	H	1.408929	0.376320	-0.543402
H284	H	1.908929	0.876320	-0.043402
H285	H	1.123361	0.199605	-0.287165
H286	H	1.623361	0.699605	0.212835
H287	H	1.123056	0.370403	-0.223196
H288	H	1.623056	0.870403	0.276804
O289	O	1.130987	0.219588	-0.378755
O290	O	1.630987	0.719588	0.121245
C291	C	1.189086	0.163337	-0.373172
C292	C	1.689086	0.663337	0.126828
H293	H	1.218628	0.158105	-0.322873
H294	H	1.718628	0.658105	0.177127
H295	H	1.259469	0.164602	-0.406612
H296	H	1.759469	0.664602	0.093388
H297	H	1.136143	0.121818	-0.385516
H298	H	1.636143	0.621818	0.114484
O299	O	1.130592	0.282150	-0.191627
O300	O	1.630592	0.782150	0.308373
C301	C	1.197737	0.236925	-0.219057
C302	C	1.697737	0.736925	0.280943
H303	H	1.178103	0.232047	-0.271073
H304	H	1.678103	0.732047	0.228927
H305	H	1.185851	0.189791	-0.194702
H306	H	1.685851	0.689791	0.305298
H307	H	1.283548	0.252365	-0.213575
H308	H	1.783548	0.752365	0.286425
H309	H	0.942394	0.284563	-0.200456
H310	H	1.442394	0.784563	0.299544
