data_functionalizedCrystal
_audit_creation_method	'MofGen! by Chris Wilmer'
_symmetry_space_group_name_H-M	'P1'
_symmetry_Int_Tables_number	1
_symmetry_cell_setting	triclinic
loop_
_symmetry_equiv_pos_as_xyz
  x,y,z
_cell_length_a	19.805407
_cell_length_b	10.685194
_cell_length_c	19.805399
_cell_angle_alpha	85.604649
_cell_angle_beta	89.980427
_cell_angle_gamma	94.376925
loop_
_atom_site_label
_atom_site_type_symbol
_atom_site_fract_x
_atom_site_fract_y
_atom_site_fract_z
Zn1	Zn	1.014165	-0.502437	-0.362068
Zn2	Zn	1.005440	-0.713475	-0.240206
Zn3	Zn	0.900979	-0.502472	-0.248891
Zn4	Zn	0.892306	-0.713407	-0.353355
O5	O	0.953223	-0.607948	-0.301130
O6	O	1.107724	-0.530445	-0.345914
O7	O	0.991561	-0.685527	-0.146639
O8	O	0.923274	-0.325871	-0.271186
O9	O	1.101314	-0.685493	-0.256382
O10	O	1.006432	-0.325845	-0.354336
O11	O	0.914814	-0.530505	-0.153021
O12	O	0.805112	-0.530440	-0.262737
O13	O	0.908493	-0.685379	-0.449229
O14	O	0.798741	-0.685413	-0.339486
O15	O	0.998023	-0.530380	-0.455631
O16	O	0.983152	-0.890063	-0.247934
O17	O	0.900033	-0.890013	-0.331064
C18	C	0.777368	-0.607924	-0.301109
C19	C	0.702135	-0.607944	-0.301115
C20	C	0.663486	-0.688760	-0.341003
C21	C	0.592797	-0.688762	-0.341013
C22	C	0.560759	-0.607954	-0.301130
C23	C	0.599413	-0.527129	-0.261240
C24	C	0.670101	-0.527121	-0.261235
C25	C	0.314339	-0.527157	-0.261261
C26	C	0.243646	-0.527173	-0.261268
C27	C	0.237035	-0.688798	-0.341039
C28	C	0.307723	-0.688790	-0.341034
C29	C	0.346371	-0.607961	-0.301147
C30	C	0.423020	-0.607958	-0.301138
C31	C	0.484111	-0.607962	-0.301134
C32	C	0.939723	-0.935828	-0.287626
C33	C	0.934010	-1.076096	-0.281871
C34	C	1.129764	-0.607973	-0.301151
C35	C	1.204996	-0.607984	-0.301160
C36	C	0.953264	-0.607868	-0.477676
C37	C	0.953282	-0.607834	-0.552909
C38	C	0.966794	-0.278788	-0.314702
C39	C	0.972577	-0.138519	-0.320485
C40	C	0.999901	-0.527123	-0.591588
C41	C	0.999909	-0.527086	-0.662278
C42	C	0.953301	-0.607769	-0.694288
C43	C	0.906677	-0.688484	-0.655604
C44	C	0.906666	-0.688513	-0.584916
C45	C	0.906720	-0.688366	-0.940682
C46	C	0.906736	-0.688334	-1.011376
C47	C	0.999963	-0.526939	-1.018045
C48	C	0.999952	-0.526968	-0.947356
C49	C	0.953326	-0.607679	-0.908679
C50	C	0.953317	-0.607716	-0.832029
C51	C	0.953313	-0.607739	-0.770936
C52	C	0.953224	-0.607936	-0.125275
C53	C	0.953352	-0.607614	-0.050056
H54	H	0.689566	-0.754568	-0.373478
C55	C	0.194521	-0.777703	-0.384923
C56	C	0.229762	-0.866596	-0.428788
C57	C	0.187250	-0.955503	-0.472668
C58	C	0.109497	-0.955516	-0.472682
C59	C	0.074251	-0.866620	-0.428815
C60	C	0.116763	-0.777714	-0.384935
H61	H	0.287324	-0.866589	-0.428779
H62	H	0.213342	-1.021309	-0.505141
H63	H	0.078027	-1.021330	-0.505165
H64	H	0.016689	-0.866627	-0.428824
H65	H	0.090671	-0.711907	-0.352462
H66	H	0.868763	-0.754104	-0.909199
C67	C	0.855388	-0.777310	-0.542369
C68	C	0.880626	-0.876411	-0.489693
C69	C	0.829345	-0.965210	-0.447148
C70	C	0.752825	-0.954906	-0.457278
C71	C	0.727584	-0.855800	-0.509957
C72	C	0.778865	-0.767002	-0.552502
H73	H	0.937273	-0.884042	-0.482191
H74	H	0.848031	-1.038575	-0.408152
H75	H	0.714864	-1.020640	-0.425784
H76	H	0.670936	-0.848169	-0.517458
H77	H	0.760179	-0.693637	-0.591498
H78	H	0.561332	-0.754572	-0.373493
H79	H	0.896611	-1.129968	-0.244410
H80	H	1.009968	-1.084655	-0.357950
H81	H	0.868726	-0.754173	-0.681672
C82	C	1.051171	-0.438369	-0.556380
C83	C	1.051561	-0.294901	-0.572015
C84	C	1.102831	-0.206141	-0.536809
C85	C	1.153711	-0.260849	-0.485969
C86	C	1.153322	-0.404324	-0.470333
C87	C	1.102052	-0.493084	-0.505538
H88	H	1.013896	-0.254397	-0.609651
H89	H	1.103119	-0.099932	-0.548385
H90	H	1.191664	-0.195144	-0.459908
H91	H	1.190988	-0.444828	-0.432696
H92	H	1.101765	-0.599293	-0.493962
H93	H	0.345798	-0.461350	-0.228777
H94	H	1.037872	-0.461365	-0.693767
H95	H	0.217563	-0.461361	-0.228791
C96	C	1.051221	-0.438215	-0.912146
C97	C	1.102500	-0.349425	-0.954692
C98	C	1.153768	-0.260667	-0.919483
C99	C	1.153757	-0.260698	-0.841729
C100	C	1.102476	-0.349491	-0.799179
C101	C	1.051208	-0.438250	-0.834387
H102	H	1.102510	-0.349399	-1.012255
H103	H	1.191729	-0.194936	-0.950982
H104	H	1.191709	-0.194994	-0.815665
H105	H	1.102467	-0.349518	-0.741616
H106	H	1.013247	-0.503981	-0.802889
H107	H	0.868779	-0.754038	-1.037436
C108	C	0.342964	-0.777679	-0.384907
C109	C	0.327339	-0.921130	-0.373356
C110	C	0.362578	-1.010016	-0.417233
C111	C	0.413442	-0.955451	-0.472662
C112	C	0.429069	-0.811992	-0.484216
C113	C	0.393830	-0.723106	-0.440339
H114	H	0.289684	-0.961528	-0.332321
H115	H	0.351010	-1.116214	-0.408679
H116	H	0.439528	-1.021250	-0.505142
H117	H	0.466724	-0.771594	-0.525250
H118	H	0.405398	-0.616909	-0.448893
C119	C	1.051248	-0.438143	-1.060592
C120	C	1.102139	-0.492813	-1.106947
C121	C	1.153424	-0.404023	-1.149492
C122	C	1.153819	-0.260564	-1.145683
C123	C	1.102927	-0.205888	-1.099326
C124	C	1.051641	-0.294677	-1.056781
H125	H	1.101848	-0.599016	-1.109768
H126	H	1.191098	-0.444500	-1.183808
H127	H	1.191783	-0.194837	-1.177177
H128	H	1.103217	-0.099684	-1.096505
H129	H	1.013968	-0.254201	-1.022465
H130	H	0.573322	-0.461328	-0.228770
H131	H	0.701569	-0.461306	-0.228757
