data_functionalizedCrystal
_audit_creation_method	'MofGen! by Chris Wilmer'
_symmetry_space_group_name_H-M	'P1'
_symmetry_Int_Tables_number	1
_symmetry_cell_setting	triclinic
loop_
_symmetry_equiv_pos_as_xyz
  x,y,z
_cell_length_a	16.625545
_cell_length_b	17.640112
_cell_length_c	17.639306
_cell_angle_alpha	92.195878
_cell_angle_beta	78.811101
_cell_angle_gamma	101.251248
loop_
_atom_site_label
_atom_site_type_symbol
_atom_site_fract_x
_atom_site_fract_y
_atom_site_fract_z
Zn1	Zn	0.103642	-1.247734	-0.195073
Zn2	Zn	0.603642	-0.747734	0.304927
Zn3	Zn	0.217616	-1.221982	-0.068105
Zn4	Zn	0.717616	-0.721982	0.431895
Zn5	Zn	0.114283	-1.095085	-0.093726
Zn6	Zn	0.614283	-0.595085	0.406274
Zn7	Zn	0.269945	-1.120690	-0.220681
Zn8	Zn	0.769945	-0.620690	0.279319
O9	O	0.176372	-1.171373	-0.144396
O10	O	0.676372	-0.671373	0.355604
O11	O	0.092408	-1.350593	-0.156791
O12	O	0.592408	-0.850593	0.343209
O13	O	0.186462	-1.183656	0.034763
O14	O	0.686462	-0.683656	0.534763
O15	O	0.000027	-1.115396	-0.107176
O16	O	0.500027	-0.615396	0.392824
O17	O	0.176144	-1.331673	-0.063509
O18	O	0.676144	-0.831673	0.436491
O19	O	-0.007790	-1.227547	-0.181635
O20	O	0.492210	-0.727547	0.318365
O21	O	0.110543	-1.090425	0.015939
O22	O	0.610543	-0.590425	0.515939
O23	O	0.161285	-0.992207	-0.132006
O24	O	0.661285	-0.492207	0.367994
O25	O	0.265332	-1.159036	-0.323551
O26	O	0.765332	-0.659036	0.176449
O27	O	0.275649	-1.011018	-0.225279
O28	O	0.775649	-0.511018	0.274721
O29	O	0.143150	-1.252375	-0.304737
O30	O	0.643150	-0.752375	0.195263
O31	O	0.337402	-1.208484	-0.088339
O32	O	0.837402	-0.708484	0.411661
O33	O	0.375848	-1.134065	-0.200435
O34	O	0.875848	-0.634065	0.299565
C35	C	0.225301	-0.974057	-0.184202
C36	C	0.725301	-0.474057	0.315798
C37	C	0.246255	-0.889648	-0.201249
C38	C	0.746255	-0.389648	0.298751
C39	C	0.385882	-1.171282	-0.144398
C40	C	0.885882	-0.671282	0.355602
C41	C	0.475498	-1.171318	-0.144410
C42	C	0.975498	-0.671318	0.355590
C43	C	0.208891	-1.211434	-0.342468
C44	C	0.708891	-0.711434	0.157532
C45	C	0.222749	-1.228506	-0.426875
C46	C	0.722749	-0.728506	0.073125
C47	C	0.548276	-1.171350	-0.144423
C48	C	1.048276	-0.671350	0.355577
C49	C	0.639577	-1.171396	-0.144434
C50	C	1.139577	-0.671396	0.355566
C51	C	0.712347	-1.171436	-0.144439
C52	C	1.212347	-0.671436	0.355561
C53	C	0.803654	-1.171481	-0.144450
C54	C	1.303654	-0.671481	0.355550
C55	C	0.966044	-1.171484	-0.144418
C56	C	1.466044	-0.671484	0.355582
C57	C	0.876423	-1.171522	-0.144455
C58	C	1.376423	-0.671522	0.355545
C59	C	0.127252	-1.369460	-0.104436
C60	C	0.627252	-0.869460	0.395564
C61	C	0.106320	-1.453872	-0.087407
C62	C	0.606320	-0.953872	0.412593
C63	C	0.017170	-0.563035	-0.014898
C64	C	0.517170	-0.063035	0.485102
C65	C	0.036878	-0.483722	-0.030927
C66	C	0.536878	0.016278	0.469073
C67	C	0.156080	-0.503331	-0.127884
C68	C	0.656080	-0.003331	0.372116
C69	C	0.136380	-0.582648	-0.111866
C70	C	0.636380	-0.082648	0.388134
C71	C	0.066924	-0.612493	-0.055372
C72	C	0.566924	-0.112493	0.444628
C73	C	0.186134	-0.632106	-0.152340
C74	C	0.686134	-0.132106	0.347660
C75	C	0.166438	-0.711416	-0.136320
C76	C	0.666438	-0.211416	0.363680
C77	C	0.096987	-0.741267	-0.079827
C78	C	0.596987	-0.241267	0.420173
C79	C	0.047228	-0.691803	-0.039352
C80	C	0.547228	-0.191803	0.460648
C81	C	0.255593	-0.602259	-0.208830
C82	C	0.755593	-0.102259	0.291170
C83	C	0.305348	-0.651717	-0.249304
C84	C	0.805348	-0.151717	0.250696
C85	C	0.285648	-0.731029	-0.233288
C86	C	0.785648	-0.231029	0.266712
C87	C	0.216197	-0.760880	-0.176795
C88	C	0.716197	-0.260880	0.323205
C89	C	0.335407	-0.780493	-0.273763
C90	C	0.835407	-0.280493	0.226237
C91	C	0.315711	-0.859802	-0.257743
C92	C	0.815711	-0.359802	0.242257
C93	C	0.196501	-0.840189	-0.160775
C94	C	0.696501	-0.340189	0.339225
C95	C	0.070721	-1.041976	-0.753498
C96	C	0.570721	-0.541976	-0.253498
C97	C	0.083755	-1.058035	-0.832807
C98	C	0.583755	-0.558035	-0.332807
C99	C	0.162801	-1.155105	-0.813189
C100	C	0.662801	-0.655105	-0.313189
C101	C	0.149770	-1.139058	-0.733875
C102	C	0.649770	-0.639058	-0.233875
C103	C	0.103730	-1.082492	-0.704037
C104	C	0.603730	-0.582492	-0.204037
C105	C	0.182779	-1.179573	-0.684414
C106	C	0.682779	-0.679573	-0.184414
C107	C	0.169753	-1.163523	-0.605109
C108	C	0.669753	-0.663523	-0.105109
C109	C	0.123717	-1.106958	-0.575264
C110	C	0.623717	-0.606958	-0.075264
C111	C	0.090704	-1.066442	-0.624731
C112	C	0.590704	-0.566442	-0.124731
C113	C	0.228824	-1.236135	-0.714255
C114	C	0.728824	-0.736135	-0.214255
C115	C	0.261833	-1.276651	-0.664794
C116	C	0.761833	-0.776651	-0.164794
C117	C	0.248802	-1.260605	-0.585486
C118	C	0.748802	-0.760605	-0.085486
C119	C	0.202766	-1.204040	-0.555642
C120	C	0.702766	-0.704040	-0.055642
C121	C	0.281815	-1.301122	-0.536019
C122	C	0.781815	-0.801122	-0.036019
C123	C	0.268789	-1.285072	-0.456713
C124	C	0.768789	-0.785072	0.043287
C125	C	0.189740	-1.187990	-0.476336
C126	C	0.689740	-0.687990	0.023664
C127	C	0.143910	-1.131511	0.052914
C128	C	0.643910	-0.631511	0.552914
C129	C	0.129788	-1.114587	0.137350
C130	C	0.629788	-0.614587	0.637350
H131	H	0.139933	-0.864493	-0.114783
H132	H	0.639933	-0.364493	0.385217
O133	O	0.369355	-0.913154	-0.301420
O134	O	0.869355	-0.413154	0.198580
H135	H	0.343986	-0.973317	-0.280791
H136	H	0.843986	-0.473317	0.219209
H137	H	0.056868	-1.025041	-0.873077
H138	H	0.556868	-0.525041	-0.373077
O139	O	-0.016767	-0.430361	0.012741
O140	O	0.483233	0.069639	0.512741
H141	H	-0.043169	-0.401114	-0.028597
H142	H	0.456831	0.098886	0.471403
H143	H	0.113119	-1.093887	-0.510689
H144	H	0.613119	-0.593887	-0.010689
H145	H	0.200290	-1.201159	-0.837495
H146	H	0.700290	-0.701159	-0.337495
H147	H	0.080953	-0.805846	-0.066783
H148	H	0.580953	-0.305846	0.433217
O149	O	0.242766	-1.253643	-0.799753
O150	O	0.742766	-0.753643	-0.299753
H151	H	0.310807	-1.242575	-0.823846
H152	H	0.810807	-0.742575	-0.323846
H153	H	0.299322	-1.322704	-0.689100
H154	H	0.799322	-0.822704	-0.189100
O155	O	0.041044	-1.005433	-0.592537
O156	O	0.541044	-0.505433	-0.092537
H157	H	0.020278	-0.979952	-0.640253
H158	H	0.520278	-0.479952	-0.140253
O159	O	-0.027685	-0.724004	0.021581
O160	O	0.472315	-0.224004	0.521581
H161	H	-0.058976	-0.676290	0.047039
H162	H	0.441024	-0.176290	0.547039
O163	O	0.021061	-0.980967	-0.721304
O164	O	0.521061	-0.480967	-0.221304
H165	H	0.000295	-0.955486	-0.769020
H166	H	0.500295	-0.455486	-0.269020
H167	H	0.319308	-1.347172	-0.560327
H168	H	0.819308	-0.847172	-0.060327
H169	H	-0.039398	-0.587339	0.031094
H170	H	0.460602	-0.087339	0.531094
H171	H	0.361900	-0.627406	-0.295299
H172	H	0.861900	-0.127406	0.204701
O173	O	0.230987	-0.471142	-0.188820
O174	O	0.730987	0.028858	0.311180
H175	H	0.236323	-0.407684	-0.193165
H176	H	0.736323	0.092316	0.306835
O177	O	0.304381	-1.328773	-0.403356
O178	O	0.804381	-0.828773	0.096644
H179	H	0.338574	-1.370810	-0.437426
H180	H	0.838574	-0.870810	0.062574
H181	H	0.391963	-0.756180	-0.319755
H182	H	0.891963	-0.256180	0.180245
H183	H	0.152239	-1.141936	-0.452039
H184	H	0.652239	-0.641936	0.047961
O185	O	0.276869	-0.516719	-0.226120
O186	O	0.776869	-0.016719	0.273880
H187	H	0.223824	-0.498930	-0.245804
H188	H	0.723824	0.001070	0.254196
