data_functionalizedCrystal
_audit_creation_method	'MofGen! by Chris Wilmer'
_symmetry_space_group_name_H-M	'P1'
_symmetry_Int_Tables_number	1
_symmetry_cell_setting	triclinic
loop_
_symmetry_equiv_pos_as_xyz
  x,y,z
_cell_length_a	27.732064
_cell_length_b	27.732048
_cell_length_c	12.996460
_cell_angle_alpha	89.988908
_cell_angle_beta	90.002042
_cell_angle_gamma	82.646040
loop_
_atom_site_label
_atom_site_type_symbol
_atom_site_fract_x
_atom_site_fract_y
_atom_site_fract_z
O1	O	0.640923	0.057556	-0.085394
O2	O	0.974256	0.390889	0.247939
O3	O	1.307589	0.724223	0.581272
O4	O	0.500130	0.066293	-0.085438
O5	O	0.833464	0.399626	0.247895
O6	O	1.166797	0.732960	0.581229
O7	O	0.574899	-0.008472	-0.085395
O8	O	0.908232	0.324861	0.247938
O9	O	1.241566	0.658195	0.581271
O10	O	0.566154	0.132321	-0.085437
O11	O	0.899487	0.465654	0.247896
O12	O	1.232820	0.798988	0.581230
O13	O	0.574891	-0.008476	0.085739
O14	O	0.908225	0.324857	0.419072
O15	O	1.241558	0.658191	0.752405
O16	O	0.500123	0.066289	0.085696
O17	O	0.833456	0.399622	0.419029
O18	O	1.166789	0.732956	0.752362
O19	O	0.640915	0.057552	0.085740
O20	O	0.974248	0.390885	0.419073
O21	O	1.307581	0.724219	0.752406
Cu22	Cu	0.570518	0.061920	0.101344
Cu23	Cu	0.903851	0.395254	0.434677
Cu24	Cu	1.237185	0.728587	0.768010
Cu25	Cu	0.570527	0.061925	-0.101042
Cu26	Cu	0.903860	0.395258	0.232291
Cu27	Cu	1.237194	0.728592	0.565625
O28	O	0.566146	0.132317	0.085697
O29	O	0.899479	0.465650	0.419030
O30	O	1.232813	0.798984	0.752363
C31	C	0.482120	0.066106	0.000123
C32	C	0.815453	0.399440	0.333457
C33	C	1.148786	0.732773	0.666790
C34	C	0.428465	0.065551	0.000108
C35	C	0.761798	0.398884	0.333441
C36	C	1.095132	0.732217	0.666774
C37	C	0.051392	0.017583	0.000180
C38	C	0.384726	0.350917	0.333514
C39	C	0.718059	0.684250	0.666847
C40	C	0.253053	0.019630	0.000153
C41	C	0.586386	0.352963	0.333486
C42	C	0.919719	0.686296	0.666820
O43	O	0.284305	-0.017591	0.000203
O44	O	0.617639	0.315742	0.333536
O45	O	0.950972	0.649075	0.666869
N46	N	0.272180	0.063964	0.000135
N47	N	0.605513	0.397297	0.333469
N48	N	0.938847	0.730631	0.666802
C49	C	0.240889	0.107790	0.000131
C50	C	0.574222	0.441123	0.333464
C51	C	0.907556	0.774456	0.666798
O52	O	0.261785	0.145546	0.000126
O53	O	0.595119	0.478879	0.333459
O54	O	0.928452	0.812212	0.666793
C55	C	0.039230	0.105743	0.000166
C56	C	0.372563	0.439076	0.333499
C57	C	0.705896	0.772410	0.666833
C58	C	0.020105	0.061406	0.000173
C59	C	0.353439	0.394739	0.333507
C60	C	0.686772	0.728072	0.666840
C61	C	0.032267	-0.026750	0.000189
C62	C	0.365601	0.306583	0.333522
C63	C	0.698934	0.639916	0.666856
C64	C	-0.018145	-0.027261	0.000190
C65	C	0.315189	0.306072	0.333524
C66	C	0.648522	0.639405	0.666857
C67	C	-0.049432	0.016561	0.000183
C68	C	0.283902	0.349895	0.333516
C69	C	0.617235	0.683228	0.666850
C70	C	-0.030307	0.060895	0.000174
C71	C	0.303027	0.394228	0.333508
C72	C	0.636360	0.727561	0.666841
C73	C	0.007940	0.149568	0.000169
C74	C	0.341273	0.482902	0.333502
C75	C	0.674606	0.816235	0.666836
C76	C	-0.042478	0.149053	0.000180
C77	C	0.290856	0.482386	0.333514
C78	C	0.624189	0.815719	0.666847
C79	C	-0.061602	0.104716	0.000188
C80	C	0.271731	0.438049	0.333521
C81	C	0.605064	0.771382	0.666854
C82	C	-0.112006	0.104206	0.000168
C83	C	0.221327	0.437539	0.333502
C84	C	0.554661	0.770873	0.666835
N85	N	-0.131134	0.059872	0.000186
N86	N	0.202200	0.393205	0.333520
N87	N	0.535533	0.726539	0.666853
C88	C	-0.099846	0.016049	0.000193
C89	C	0.233487	0.349383	0.333527
C90	C	0.566820	0.682716	0.666860
C91	C	0.346763	0.108861	0.000111
C92	C	0.680097	0.442194	0.333444
C93	C	1.013430	0.775528	0.666778
C94	C	0.397178	0.109373	0.000100
C95	C	0.730511	0.442706	0.333434
C96	C	1.063845	0.776040	0.666767
C97	C	0.409338	0.021213	0.000124
C98	C	0.742672	0.354546	0.333458
C99	C	1.076005	0.687879	0.666791
C100	C	0.358923	0.020701	0.000127
C101	C	0.692256	0.354035	0.333461
C102	C	1.025589	0.687368	0.666794
C103	C	0.327636	0.064527	0.000129
C104	C	0.660969	0.397860	0.333462
C105	C	0.994303	0.731194	0.666795
C106	C	-0.205716	0.014979	0.000195
C107	C	0.127617	0.348313	0.333528
C108	C	0.460951	0.681646	0.666862
C109	C	-0.256133	0.014472	0.000192
C110	C	0.077200	0.347806	0.333525
C111	C	0.410534	0.681139	0.666859
C112	C	-0.268289	0.102632	0.000174
C113	C	0.065045	0.435966	0.333507
C114	C	0.398378	0.769299	0.666840
C115	C	-0.217876	0.103140	0.000171
C116	C	0.115457	0.436473	0.333505
C117	C	0.448791	0.769806	0.666838
C118	C	-0.186590	0.059309	0.000185
C119	C	0.146743	0.392643	0.333519
C120	C	0.480076	0.725976	0.666852
O121	O	-0.143287	0.141407	0.000131
O122	O	0.190046	0.474741	0.333464
O123	O	0.523380	0.808074	0.666797
O124	O	-0.120752	-0.021701	0.000221
O125	O	0.212581	0.311632	0.333555
O126	O	0.545915	0.644966	0.666888
C127	C	0.101805	0.018094	0.000179
C128	C	0.435138	0.351428	0.333513
C129	C	0.768471	0.684761	0.666846
C130	C	0.120930	0.062428	0.000171
C131	C	0.454263	0.395761	0.333504
C132	C	0.787596	0.729095	0.666837
C133	C	0.089642	0.106250	0.000163
C134	C	0.422976	0.439584	0.333497
C135	C	0.756309	0.772917	0.666830
C136	C	0.171344	0.062940	0.000160
C137	C	0.504677	0.396273	0.333494
C138	C	0.838011	0.729606	0.666827
C139	C	0.202631	0.019117	0.000167
C140	C	0.535965	0.352451	0.333501
C141	C	0.869298	0.685784	0.666834
C142	C	0.183504	-0.025217	0.000185
C143	C	0.516837	0.308116	0.333519
C144	C	0.850170	0.641450	0.666852
C145	C	0.133092	-0.025728	0.000186
C146	C	0.466425	0.307605	0.333520
C147	C	0.799758	0.640939	0.666853
C148	C	0.108770	0.150585	0.000146
C149	C	0.442103	0.483918	0.333479
C150	C	0.775437	0.817251	0.666812
C151	C	0.159183	0.151092	0.000143
C152	C	0.492516	0.484426	0.333477
C153	C	0.825849	0.817759	0.666810
C154	C	0.190470	0.107270	0.000151
C155	C	0.523803	0.440603	0.333484
C156	C	0.857136	0.773936	0.666817
C157	C	0.574712	-0.026481	0.000174
C158	C	0.908045	0.306853	0.333508
C159	C	1.241378	0.640186	0.666841
C160	C	0.574159	-0.080136	0.000183
C161	C	0.907492	0.253198	0.333516
C162	C	1.240826	0.586531	0.666849
C163	C	0.614862	-0.418948	0.000143
C164	C	0.948196	-0.085615	0.333476
C165	C	1.281529	0.247718	0.666809
C166	C	0.612811	-0.620608	0.000128
C167	C	0.946145	-0.287275	0.333461
C168	C	1.279478	0.046059	0.666794
O169	O	0.650032	-0.651862	0.000094
O170	O	0.983365	-0.318528	0.333428
O171	O	1.316698	0.014805	0.666761
N172	N	0.568476	-0.639735	0.000115
N173	N	0.901810	-0.306401	0.333448
N174	N	1.235143	0.026932	0.666781
C175	C	0.524651	-0.608442	0.000099
C176	C	0.857985	-0.275109	0.333432
C177	C	1.191318	0.058224	0.666766
O178	O	0.486895	-0.629338	0.000077
O179	O	0.820228	-0.296004	0.333410
O180	O	1.153561	0.037329	0.666744
C181	C	0.526703	-0.406784	0.000107
C182	C	0.860036	-0.073450	0.333440
C183	C	1.193369	0.259883	0.666773
C184	C	0.571040	-0.387660	0.000130
C185	C	0.904374	-0.054327	0.333463
C186	C	1.237707	0.279006	0.666796
C187	C	0.659196	-0.399824	0.000165
C188	C	0.992530	-0.066491	0.333498
C189	C	1.325863	0.266842	0.666831
C190	C	0.659709	-0.349412	0.000174
C191	C	0.993042	-0.016079	0.333507
C192	C	1.326375	0.317254	0.666841
C193	C	0.615887	-0.318124	0.000161
C194	C	0.949220	0.015209	0.333495
C195	C	1.282554	0.348542	0.666828
C196	C	0.571553	-0.337248	0.000139
C197	C	0.904886	-0.003915	0.333473
C198	C	1.238219	0.329418	0.666806
C199	C	0.482878	-0.375493	0.000083
C200	C	0.816211	-0.042159	0.333417
C201	C	1.149545	0.291174	0.666750
C202	C	0.483395	-0.325075	0.000083
C203	C	0.816728	0.008258	0.333416
C204	C	1.150062	0.341591	0.666749
C205	C	0.527733	-0.305952	0.000106
C206	C	0.861066	0.027381	0.333439
C207	C	1.194399	0.360715	0.666773
C208	C	0.528243	-0.255548	0.000136
C209	C	0.861576	0.077785	0.333469
C210	C	1.194910	0.411118	0.666802
N211	N	0.572578	-0.236422	0.000149
N212	N	0.905911	0.096911	0.333482
N213	N	1.239245	0.430245	0.666815
C214	C	0.616400	-0.267710	0.000161
C215	C	0.949733	0.065623	0.333495
C216	C	1.283067	0.398957	0.666828
C217	C	0.523577	-0.714317	0.000097
C218	C	0.856911	-0.380983	0.333430
C219	C	1.190244	-0.047650	0.666764
C220	C	0.523064	-0.764731	0.000097
C221	C	0.856398	-0.431398	0.333430
C222	C	1.189731	-0.098064	0.666764
C223	C	0.611225	-0.776893	0.000124
C224	C	0.944558	-0.443560	0.333457
C225	C	1.277891	-0.110227	0.666790
C226	C	0.611737	-0.726478	0.000131
C227	C	0.945070	-0.393145	0.333464
C228	C	1.278404	-0.059811	0.666798
C229	C	0.567912	-0.695190	0.000110
C230	C	0.901245	-0.361857	0.333443
C231	C	1.234579	-0.028524	0.666776
C232	C	0.617472	-0.161841	0.000182
C233	C	0.950806	0.171493	0.333515
C234	C	1.284139	0.504826	0.666849
C235	C	0.617981	-0.111424	0.000196
C236	C	0.951314	0.221910	0.333529
C237	C	1.284647	0.555243	0.666862
C238	C	0.529821	-0.099266	0.000163
C239	C	0.863154	0.234067	0.333497
C240	C	1.196487	0.567401	0.666830
C241	C	0.529312	-0.149679	0.000155
C242	C	0.862645	0.183655	0.333488
C243	C	1.195979	0.516988	0.666822
C244	C	0.573142	-0.180965	0.000161
C245	C	0.906475	0.152368	0.333494
C246	C	1.239808	0.485701	0.666828
O247	O	0.491043	-0.224267	0.000158
O248	O	0.824376	0.109067	0.333491
O249	O	1.157709	0.442400	0.666824
O250	O	0.654151	-0.246805	0.000160
O251	O	0.987484	0.086528	0.333494
O252	O	1.320818	0.419861	0.666827
C253	C	0.614350	-0.469360	0.000133
C254	C	0.947683	-0.136027	0.333467
C255	C	1.281017	0.197306	0.666800
C256	C	0.570016	-0.488484	0.000111
C257	C	0.903349	-0.155151	0.333444
C258	C	1.236683	0.178182	0.666778
C259	C	0.526194	-0.457196	0.000098
C260	C	0.859527	-0.123863	0.333432
C261	C	1.192861	0.209470	0.666765
C262	C	0.569503	-0.538899	0.000111
C263	C	0.902836	-0.205565	0.333444
C264	C	1.236170	0.127768	0.666778
C265	C	0.613325	-0.570187	0.000124
C266	C	0.946658	-0.236853	0.333457
C267	C	1.279991	0.096480	0.666791
C268	C	0.657660	-0.551060	0.000137
C269	C	0.990993	-0.217727	0.333470
C270	C	1.324326	0.115606	0.666803
C271	C	0.658172	-0.500648	0.000146
C272	C	0.991505	-0.167315	0.333479
C273	C	1.324839	0.166018	0.666813
C274	C	0.481859	-0.476323	0.000085
C275	C	0.815193	-0.142989	0.333419
C276	C	1.148526	0.190344	0.666752
C277	C	0.481351	-0.526735	0.000077
C278	C	0.814684	-0.193402	0.333411
C279	C	1.148017	0.139932	0.666744
C280	C	0.525172	-0.558023	0.000090
C281	C	0.858506	-0.224690	0.333423
C282	C	1.191839	0.108643	0.666757
C283	C	0.658925	0.057739	0.000176
C284	C	0.992259	0.391072	0.333509
C285	C	1.325592	0.724405	0.666842
C286	C	0.712580	0.058295	0.000185
C287	C	1.045913	0.391628	0.333518
C288	C	1.379247	0.724961	0.666852
C289	C	0.566333	0.150326	0.000125
C290	C	0.899667	0.483659	0.333458
C291	C	1.233000	0.816993	0.666791
C292	C	0.566886	0.203981	0.000110
C293	C	0.900219	0.537314	0.333443
C294	C	1.233553	0.870648	0.666776
N295	N	0.570515	0.061916	0.243691
N296	N	0.903848	0.395250	0.577024
N297	N	1.237182	0.728583	0.910357
N298	N	0.570534	0.061925	-0.243389
N299	N	0.903867	0.395258	0.089944
N300	N	1.237200	0.728591	0.423278
C301	C	0.570526	0.061925	0.663505
C302	C	0.903860	0.395259	0.996838
C303	C	1.237193	0.728592	1.330172
C304	C	0.570522	0.061925	0.546700
C305	C	0.903855	0.395258	0.880033
C306	C	1.237188	0.728591	1.213366
C307	C	0.570521	0.061921	0.453601
C308	C	0.903854	0.395255	0.786935
C309	C	1.237188	0.728588	1.120268
C310	C	0.570516	0.061920	0.336789
C311	C	0.903849	0.395253	0.670122
C312	C	1.237183	0.728586	1.003456
H313	H	0.117526	-0.061832	0.000193
H314	H	0.450859	0.271501	0.333526
H315	H	0.784192	0.604835	0.666859
C316	C	0.045024	0.201163	0.088099
C317	C	0.378357	0.534496	0.421432
C318	C	0.711691	0.867830	0.754765
C319	C	0.074383	0.198758	0.000128
C320	C	0.407716	0.532092	0.333462
C321	C	0.741049	0.865425	0.666795
H322	H	0.023798	0.230907	0.088083
H323	H	0.357132	0.564240	0.421417
H324	H	0.690465	0.897574	0.754750
H325	H	0.026416	0.174693	0.088102
H326	H	0.359749	0.508026	0.421435
H327	H	0.693082	0.841359	0.754769
H328	H	0.064949	0.199528	0.147772
H329	H	0.398283	0.532861	0.481106
H330	H	0.731616	0.866195	0.814439
H331	H	0.054458	0.200390	-0.059546
H332	H	0.387791	0.533723	0.273788
H333	H	0.721124	0.867056	0.607121
H334	H	0.092993	0.225236	0.000116
H335	H	0.426326	0.558569	0.333449
H336	H	0.759659	0.891903	0.666782
H337	H	0.447706	-0.299603	0.000064
H338	H	0.781040	0.033731	0.333397
H339	H	1.114373	0.367064	0.666730
C340	C	0.477598	-0.199308	-0.087844
C341	C	0.810931	0.134025	0.245490
C342	C	1.144264	0.467358	0.578823
C343	C	0.480578	-0.170705	0.000139
C344	C	0.813911	0.162628	0.333472
C345	C	1.147245	0.495961	0.666806
H346	H	0.447512	-0.212289	-0.087855
H347	H	0.780845	0.121044	0.245478
H348	H	1.114179	0.454377	0.578812
H349	H	0.479630	-0.179883	-0.147503
H350	H	0.812963	0.153450	0.185831
H351	H	1.146297	0.486783	0.519164
H352	H	0.503626	-0.225156	-0.087831
H353	H	0.836960	0.108177	0.245502
H354	H	1.170293	0.441511	0.578836
H355	H	0.454551	-0.144855	0.000123
H356	H	0.787885	0.188478	0.333456
H357	H	1.121218	0.521811	0.666789
H358	H	0.478541	-0.190131	0.059813
H359	H	0.811874	0.143202	0.393147
H360	H	1.145208	0.476535	0.726480
H361	H	0.208987	-0.060899	0.000185
H362	H	0.542320	0.272435	0.333518
H363	H	0.875653	0.605768	0.666852
C364	C	0.096005	-0.077320	-0.087792
C365	C	0.429339	0.256013	0.245542
C366	C	0.762672	0.589346	0.578875
C367	C	0.066654	-0.074925	0.000190
C368	C	0.399988	0.258408	0.333523
C369	C	0.733321	0.591741	0.666856
H370	H	0.117233	-0.107063	-0.087792
H371	H	0.450567	0.226271	0.245541
H372	H	0.783900	0.559604	0.578874
H373	H	0.076079	-0.075680	-0.147452
H374	H	0.409412	0.257654	0.185882
H375	H	0.742745	0.590987	0.519215
H376	H	0.114615	-0.050846	-0.087787
H377	H	0.447949	0.282488	0.245546
H378	H	0.781282	0.615821	0.578879
H379	H	0.048041	-0.101398	0.000182
H380	H	0.381375	0.231935	0.333515
H381	H	0.714708	0.565269	0.666848
H382	H	0.086583	-0.076571	0.059865
H383	H	0.419917	0.256763	0.393198
H384	H	0.753250	0.590096	0.726532
H385	H	0.486960	-0.780296	0.000096
H386	H	0.820293	-0.446963	0.333429
H387	H	1.153627	-0.113630	0.666762
C388	C	0.142086	0.238185	0.000139
C389	C	0.475419	0.571519	0.333472
C390	C	0.808753	0.904852	0.666806
C391	C	0.180200	0.199833	0.000138
C392	C	0.513533	0.533166	0.333472
C393	C	0.846867	0.866499	0.666805
H394	H	0.155061	0.268274	0.000149
H395	H	0.488395	0.601607	0.333483
H396	H	0.821728	0.934940	0.666816
H397	H	0.122677	0.236156	-0.059538
H398	H	0.456010	0.569490	0.273795
H399	H	0.789344	0.902823	0.607128
H400	H	0.122675	0.236140	0.059819
H401	H	0.456009	0.569473	0.393152
H402	H	0.789342	0.902807	0.726485
H403	H	0.199609	0.201876	-0.059545
H404	H	0.532942	0.535209	0.273788
H405	H	0.866275	0.868543	0.607121
H406	H	0.199617	0.201863	0.059822
H407	H	0.532950	0.535196	0.393155
H408	H	0.866284	0.868529	0.726488
C409	C	0.395791	-0.358386	0.000026
C410	C	0.729124	-0.025052	0.333359
C411	C	1.062457	0.308281	0.666693
C412	C	0.434140	-0.396504	0.000048
C413	C	0.767473	-0.063170	0.333382
C414	C	1.100806	0.270163	0.666715
H415	H	0.365700	-0.371357	-0.000003
H416	H	0.699034	-0.038024	0.333330
H417	H	1.032367	0.295309	0.666663
H418	H	0.397821	-0.338984	0.059705
H419	H	0.731155	-0.005651	0.393039
H420	H	1.064488	0.327682	0.726372
H421	H	0.397839	-0.338969	-0.059651
H422	H	0.731173	-0.005636	0.273682
H423	H	1.064506	0.327698	0.607015
H424	H	0.432093	-0.415919	0.059730
H425	H	0.765427	-0.082585	0.393063
H426	H	1.098760	0.250748	0.726397
H427	H	0.432108	-0.415913	-0.059637
H428	H	0.765441	-0.082580	0.273696
H429	H	1.098775	0.250753	0.607030
H430	H	0.694883	-0.425295	0.000171
H431	H	1.028217	-0.091962	0.333505
H432	H	1.361550	0.241372	0.666838
C433	C	0.394258	-0.509636	0.000032
C434	C	0.727591	-0.176303	0.333366
C435	C	1.060924	0.157030	0.666699
C436	C	0.432610	-0.547751	0.000048
C437	C	0.765943	-0.214418	0.333382
C438	C	1.099276	0.118915	0.666715
H439	H	0.364169	-0.522611	0.000001
H440	H	0.697502	-0.189278	0.333334
H441	H	1.030835	0.144056	0.666668
H442	H	0.396287	-0.490237	0.059715
H443	H	0.729620	-0.156904	0.393048
H444	H	1.062953	0.176430	0.726381
H445	H	0.396304	-0.490217	-0.059642
H446	H	0.729637	-0.156884	0.273691
H447	H	1.062971	0.176450	0.607025
H448	H	0.430565	-0.567169	0.059727
H449	H	0.763899	-0.233836	0.393060
H450	H	1.097232	0.099498	0.726394
H451	H	0.430579	-0.567159	-0.059640
H452	H	0.763913	-0.233826	0.273693
H453	H	1.097246	0.099508	0.607026
H454	H	-0.067950	0.184742	0.000186
H455	H	0.265384	0.518075	0.333519
H456	H	0.598717	0.851408	0.666853
C457	C	0.668044	-0.225597	0.088163
C458	C	1.001377	0.107737	0.421497
C459	C	1.334711	0.441070	0.754830
C460	C	0.665649	-0.196227	0.000194
C461	C	0.998983	0.137106	0.333528
C462	C	1.332316	0.470439	0.666861
H463	H	0.697785	-0.246827	0.088170
H464	H	1.031118	0.086506	0.421503
H465	H	1.364452	0.419840	0.754837
H466	H	0.666406	-0.205683	0.147831
H467	H	0.999739	0.127651	0.481165
H468	H	1.333073	0.460984	0.814498
H469	H	0.641568	-0.244205	0.088137
H470	H	0.974901	0.089129	0.421470
H471	H	1.308235	0.422462	0.754803
H472	H	0.692124	-0.177617	0.000225
H473	H	1.025457	0.155717	0.333558
H474	H	1.358790	0.489050	0.666891
H475	H	0.667292	-0.216144	-0.059489
H476	H	1.000626	0.117190	0.273844
H477	H	1.333959	0.450523	0.607177
H478	H	0.343355	-0.015402	0.000134
H479	H	0.676689	0.317931	0.333467
H480	H	1.010022	0.651265	0.666801
H481	H	0.654087	-0.095857	0.000217
H482	H	0.987421	0.237477	0.333550
H483	H	1.320754	0.570810	0.666884
H484	H	0.694276	-0.485083	0.000165
H485	H	1.027609	-0.151750	0.333498
H486	H	1.360943	0.181583	0.666831
H487	H	0.434821	-0.014469	0.000126
H488	H	0.768154	0.318864	0.333460
H489	H	1.101488	0.652197	0.666793
H490	H	0.695813	-0.333847	0.000189
H491	H	1.029146	-0.000514	0.333522
H492	H	1.362480	0.332819	0.666856
H493	H	0.412744	0.145477	0.000080
H494	H	0.746078	0.478810	0.333413
H495	H	1.079411	0.812143	0.666747
C496	C	0.479270	-0.035504	-0.087834
C497	C	0.812603	0.297830	0.245499
C498	C	1.145936	0.631163	0.578833
C499	C	0.481653	-0.064868	0.000142
C500	C	0.814986	0.268466	0.333475
C501	C	1.148320	0.601799	0.666809
H502	H	0.449531	-0.014269	-0.087854
H503	H	0.782865	0.319064	0.245479
H504	H	1.116198	0.652398	0.578813
H505	H	0.505747	-0.016905	-0.087810
H506	H	0.839081	0.316429	0.245524
H507	H	1.172414	0.649762	0.578857
H508	H	0.480906	-0.055424	-0.147504
H509	H	0.814239	0.277909	0.185829
H510	H	1.147572	0.611242	0.519163
H511	H	0.480021	-0.044947	0.059812
H512	H	0.813354	0.288386	0.393146
H513	H	1.146687	0.621720	0.726479
H514	H	0.455168	-0.083468	0.000127
H515	H	0.788502	0.249865	0.333460
H516	H	1.121835	0.583198	0.666794
C517	C	-0.328012	-0.025465	0.000192
C518	C	0.005321	0.307868	0.333526
C519	C	0.338655	0.641201	0.666859
C520	C	-0.277154	-0.034266	0.000199
C521	C	0.056179	0.299067	0.333532
C522	C	0.389512	0.632400	0.666865
H523	H	-0.340987	-0.055554	0.000190
H524	H	-0.007654	0.277779	0.333524
H525	H	0.325679	0.611113	0.666857
H526	H	-0.338770	-0.007445	0.059863
H527	H	-0.005436	0.325888	0.393197
H528	H	0.327897	0.659221	0.726530
H529	H	-0.338770	-0.007434	-0.059493
H530	H	-0.005437	0.325899	0.273840
H531	H	0.327897	0.659232	0.607173
H532	H	-0.266396	-0.052294	0.059889
H533	H	0.066937	0.281039	0.393222
H534	H	0.400271	0.614373	0.726555
H535	H	-0.266392	-0.052294	-0.059478
H536	H	0.066941	0.281039	0.273855
H537	H	0.400274	0.614373	0.607188
H538	H	0.647841	-0.710911	0.000149
H539	H	0.981174	-0.377578	0.333483
H540	H	1.314507	-0.044245	0.666816
H541	H	0.646906	-0.802377	0.000135
H542	H	0.980239	-0.469043	0.333468
H543	H	1.313573	-0.135710	0.666801
H544	H	0.321293	0.144551	0.000110
H545	H	0.654627	0.477885	0.333444
H546	H	0.987960	0.811218	0.666777
H547	H	0.693341	-0.576544	0.000152
H548	H	1.026674	-0.243211	0.333485
H549	H	1.360008	0.090122	0.666818
H550	H	0.487888	-0.688846	0.000080
H551	H	0.821221	-0.355513	0.333413
H552	H	1.154554	-0.022179	0.666747
H553	H	-0.033711	-0.063365	0.000200
H554	H	0.299623	0.269968	0.333534
H555	H	0.632956	0.603302	0.666867
C556	C	-0.198774	-0.072215	0.000197
C557	C	0.134559	0.261118	0.333530
C558	C	0.467893	0.594451	0.666864
C559	C	-0.171332	-0.033199	0.000197
C560	C	0.162002	0.300134	0.333530
C561	C	0.495335	0.633467	0.666863
H562	H	-0.177546	-0.101958	0.000185
H563	H	0.155788	0.231376	0.333519
H564	H	0.489121	0.564709	0.666852
H565	H	-0.218685	-0.070584	0.059875
H566	H	0.114648	0.262749	0.393209
H567	H	0.447982	0.596083	0.726542
H568	H	-0.218696	-0.070567	-0.059481
H569	H	0.114637	0.262766	0.273852
H570	H	0.447970	0.596099	0.607185
H571	H	-0.151412	-0.034845	0.059879
H572	H	0.181922	0.298488	0.393213
H573	H	0.515255	0.631822	0.726546
H574	H	-0.151412	-0.034831	-0.059488
H575	H	0.181921	0.298502	0.273846
H576	H	0.515254	0.631836	0.607179
C577	C	-0.234962	0.190231	0.000147
C578	C	0.098371	0.523564	0.333480
C579	C	0.431704	0.856897	0.666813
C580	C	-0.196851	0.151875	0.000156
C581	C	0.136482	0.485208	0.333489
C582	C	0.469815	0.818542	0.666823
H583	H	-0.221984	0.220318	0.000150
H584	H	0.111349	0.553651	0.333484
H585	H	0.444682	0.886984	0.666817
H586	H	-0.254371	0.188200	-0.059531
H587	H	0.078963	0.521534	0.273802
H588	H	0.412296	0.854867	0.607136
H589	H	-0.254374	0.188190	0.059826
H590	H	0.078959	0.521524	0.393159
H591	H	0.412292	0.854857	0.726492
H592	H	-0.177442	0.153913	-0.059527
H593	H	0.155892	0.487247	0.273806
H594	H	0.489225	0.820580	0.607139
H595	H	-0.177435	0.153906	0.059840
H596	H	0.155898	0.487240	0.393173
H597	H	0.489232	0.820573	0.726506
H598	H	0.446173	-0.450852	0.000073
H599	H	0.779507	-0.117519	0.333406
H600	H	1.112840	0.215815	0.666739
H601	H	0.023502	0.185672	0.000158
H602	H	0.356835	0.519006	0.333492
H603	H	0.690168	0.852339	0.666825
H604	H	-0.293772	0.138311	0.000163
H605	H	0.039562	0.471645	0.333496
H606	H	0.372895	0.804978	0.666829
