data_functionalizedCrystal
_audit_creation_method	'MofGen! by Chris Wilmer'
_symmetry_space_group_name_H-M	'P1'
_symmetry_Int_Tables_number	1
_symmetry_cell_setting	triclinic
loop_
_symmetry_equiv_pos_as_xyz
  x,y,z
_cell_length_a	19.077105
_cell_length_b	18.050589
_cell_length_c	19.077271
_cell_angle_alpha	87.709704
_cell_angle_beta	89.912562
_cell_angle_gamma	87.724731
loop_
_atom_site_label
_atom_site_type_symbol
_atom_site_fract_x
_atom_site_fract_y
_atom_site_fract_z
Zn1	Zn	1.058165	-0.359400	0.440435
Zn2	Zn	1.558165	0.140600	0.940435
Zn3	Zn	1.062819	-0.478776	0.322936
Zn4	Zn	1.562819	0.021224	0.822936
Zn5	Zn	0.945407	-0.349418	0.318229
Zn6	Zn	1.445407	0.150582	0.818229
Zn7	Zn	0.940620	-0.478359	0.435688
Zn8	Zn	1.440620	0.021641	0.935688
O9	O	1.001753	-0.416488	0.379322
O10	O	1.501753	0.083512	0.879322
O11	O	1.157114	-0.379588	0.428805
O12	O	1.657114	0.120412	0.928805
O13	O	1.051195	-0.457614	0.223981
O14	O	1.551195	0.042386	0.723981
O15	O	0.960420	-0.246821	0.334456
O16	O	1.460420	0.253179	0.834456
O17	O	1.160533	-0.467293	0.342479
O18	O	1.660533	0.032707	0.842479
O19	O	1.043263	-0.254154	0.424241
O20	O	1.543263	0.245846	0.924241
O21	O	0.964932	-0.362575	0.220522
O22	O	1.464932	0.137425	0.720522
O23	O	0.846441	-0.362171	0.329853
O24	O	1.346441	0.137829	0.829853
O25	O	0.952262	-0.466581	0.534648
O26	O	1.452262	0.033419	1.034648
O27	O	0.842924	-0.456903	0.416150
O28	O	1.342924	0.043097	0.916150
O29	O	1.038622	-0.379183	0.538136
O30	O	1.538622	0.120817	1.038136
O31	O	1.046554	-0.582643	0.337876
O32	O	1.546554	-0.082643	0.837876
O33	O	0.956775	-0.582336	0.420714
O34	O	1.456775	-0.082336	0.920714
C35	C	0.819187	-0.408409	0.371976
C36	C	1.319187	0.091591	0.871976
C37	C	0.741083	-0.404971	0.368850
C38	C	1.241083	0.095029	0.868850
C39	C	0.702580	-0.452746	0.412241
C40	C	1.202580	0.047254	0.912241
C41	C	0.629194	-0.449506	0.409307
C42	C	1.129194	0.050494	0.909307
C43	C	0.594312	-0.398494	0.362978
C44	C	1.094312	0.101506	0.862978
C45	C	0.632820	-0.350713	0.319586
C46	C	1.132820	0.149287	0.819586
C47	C	0.706205	-0.353950	0.322524
C48	C	1.206205	0.146050	0.822524
C49	C	0.375028	-0.383513	0.349385
C50	C	0.875028	0.116487	0.849385
C51	C	0.301638	-0.380282	0.346449
C52	C	0.801638	0.119718	0.846449
C53	C	0.298017	-0.479074	0.436171
C54	C	0.798017	0.020926	0.936171
C55	C	0.371404	-0.482309	0.439102
C56	C	0.871404	0.017691	0.939102
C57	C	0.409905	-0.434526	0.395712
C58	C	0.909905	0.065474	0.895712
N59	N	0.519299	-0.395183	0.359977
N60	N	1.019299	0.104817	0.859977
N61	N	0.484916	-0.437835	0.398718
N62	N	0.984916	0.062165	0.898718
C63	C	1.001669	-0.609436	0.379307
C64	C	1.501669	-0.109436	0.879307
C65	C	1.001696	-0.691984	0.379326
C66	C	1.501696	-0.191984	0.879326
C67	C	0.952921	-0.891296	0.424359
C68	C	1.452921	-0.391296	0.924359
C69	C	0.938383	-0.937353	0.359553
C70	C	1.438383	-0.437353	0.859553
C71	C	1.001764	-0.843118	0.379338
C72	C	1.501764	-0.343118	0.879338
C73	C	1.016337	-0.944145	0.444153
C74	C	1.516337	-0.444145	0.944153
C75	C	1.001829	-0.989106	0.379355
C76	C	1.501829	-0.489106	0.879355
C77	C	0.987194	-0.888084	0.314497
C78	C	1.487194	-0.388084	0.814497
C79	C	1.065176	-0.894875	0.399142
C80	C	1.565176	-0.394875	0.899142
C81	C	1.050664	-0.940909	0.334292
C82	C	1.550664	-0.440909	0.834292
C83	C	1.001725	-0.759018	0.379329
C84	C	1.501725	-0.259018	0.879329
C85	C	1.001869	-1.073205	0.379357
C86	C	1.501869	-0.573205	0.879357
C87	C	1.185032	-0.424600	0.386697
C88	C	1.685032	0.075400	0.886697
C89	C	1.263135	-0.428057	0.389840
C90	C	1.763135	0.071943	0.889840
C91	C	0.994389	-0.423949	0.562601
C92	C	1.494389	0.076051	1.062601
C93	C	0.991251	-0.427128	0.640704
C94	C	1.491251	0.072872	1.140704
C95	C	1.001856	-0.222789	0.379353
C96	C	1.501856	0.277211	0.879353
C97	C	1.001900	-0.140245	0.379366
C98	C	1.501900	0.359755	0.879366
C99	C	1.034737	-0.383120	0.679213
C100	C	1.534737	0.116880	1.179213
C101	C	1.031780	-0.386104	0.752599
C102	C	1.531780	0.113896	1.252599
C103	C	0.985340	-0.433101	0.787473
C104	C	1.485340	0.066899	1.287473
C105	C	0.941849	-0.477110	0.748958
C106	C	1.441849	0.022890	1.248958
C107	C	0.944803	-0.474122	0.675574
C108	C	1.444803	0.025878	1.175574
C109	C	0.971680	-0.446914	1.006753
C110	C	1.471680	0.053086	1.506753
C111	C	0.968731	-0.449901	1.080143
C112	C	1.468731	0.050099	1.580143
C113	C	1.058662	-0.358893	1.083778
C114	C	1.558662	0.141107	1.583778
C115	C	1.061615	-0.355912	1.010393
C116	C	1.561615	0.144088	1.510393
C117	C	1.018121	-0.399919	0.971884
C118	C	1.518121	0.100081	1.471884
N119	N	0.982318	-0.436154	0.862485
N120	N	1.482318	0.063846	1.362485
N121	N	1.021140	-0.396862	0.896873
N122	N	1.521140	0.103138	1.396873
C123	C	1.009082	-0.409073	1.196755
C124	C	1.509082	0.090927	1.696755
C125	C	1.012217	-0.405893	1.118653
C126	C	1.512217	0.094107	1.618653
H127	H	0.597848	-0.488411	0.444640
H128	H	1.097848	0.011589	0.944640
H129	H	0.936275	-0.482759	0.975409
H130	H	1.436275	0.017241	1.475409
O131	O	0.867389	-0.962224	0.337368
O132	O	1.367389	-0.462224	0.837368
H133	H	0.854973	-0.938817	0.283938
H134	H	1.354973	-0.438817	0.783938
O135	O	0.891757	-0.527799	0.786571
O136	O	1.391757	-0.027799	1.286571
H137	H	0.837183	-0.512040	0.770269
H138	H	1.337183	-0.012040	1.270269
H139	H	1.072556	-0.344853	0.650824
H140	H	1.572556	0.155147	1.150824
O141	O	0.897891	-0.521585	0.634041
O142	O	1.397891	-0.021585	1.134041
H143	H	0.930657	-0.559399	0.601859
H144	H	1.430657	-0.059399	1.101859
O145	O	0.740203	-0.507764	0.462212
O146	O	1.240203	-0.007764	0.962212
H147	H	0.701097	-0.540435	0.491897
H148	H	1.201097	-0.040435	0.991897
O149	O	0.409027	-0.537323	0.489077
O150	O	0.909027	-0.037323	0.989077
H151	H	0.369924	-0.569996	0.518763
H152	H	0.869924	-0.069996	1.018763
H153	H	1.092000	-0.962550	0.296181
H154	H	1.592000	-0.462550	0.796181
O155	O	0.898134	-0.862430	0.474709
O156	O	1.398134	-0.362430	0.974709
H157	H	0.909721	-0.885806	0.528326
H158	H	1.409721	-0.385806	1.028326
H159	H	1.099434	-0.317645	0.982003
H160	H	1.599434	0.182355	1.482003
H161	H	0.266661	-0.517975	0.471498
H162	H	0.766661	-0.017975	0.971498
O163	O	0.595203	-0.295709	0.269597
O164	O	1.095203	0.204291	0.769597
H165	H	0.537705	-0.301495	0.274831
H166	H	1.037705	0.198505	0.774831
H167	H	0.974832	-0.863658	0.259673
H168	H	1.474832	-0.363658	0.759673
O169	O	1.078687	-0.338643	0.794137
O170	O	1.578687	0.161357	1.294137
H171	H	1.111483	-0.305470	0.757559
H172	H	1.611483	0.194530	1.257559
O173	O	1.105551	-0.311407	1.125310
O174	O	1.605551	0.188593	1.625310
H175	H	1.095688	-0.321367	1.182197
H176	H	1.595688	0.178633	1.682197
H177	H	0.273238	-0.338733	0.308727
H178	H	0.773238	0.161267	0.808727
O179	O	0.918632	-0.500582	1.117763
O180	O	1.418632	-0.000582	1.617763
H181	H	0.931205	-0.558830	1.104153
H182	H	1.431205	-0.058830	1.604153
H183	H	1.118758	-0.876087	0.415907
H184	H	1.618758	-0.376087	0.915907
O185	O	0.747733	-0.302427	0.275713
O186	O	1.247733	0.197573	0.775713
H187	H	0.733182	-0.244034	0.287289
H188	H	1.233182	0.255966	0.787289
O189	O	0.416552	-0.332001	0.302566
O190	O	0.916552	0.167999	0.802566
H191	H	0.379965	-0.295999	0.269847
H192	H	0.879965	0.204001	0.769847
H193	H	1.028636	-0.968658	0.498960
H194	H	1.528636	-0.468658	0.998960
