data_functionalizedCrystal
_audit_creation_method	'MofGen! by Chris Wilmer'
_symmetry_space_group_name_H-M	'P1'
_symmetry_Int_Tables_number	1
_symmetry_cell_setting	triclinic
loop_
_symmetry_equiv_pos_as_xyz
  x,y,z
_cell_length_a	6.817900
_cell_length_b	15.185311
_cell_length_c	10.943624
_cell_angle_alpha	93.493280
_cell_angle_beta	108.838799
_cell_angle_gamma	104.261569
loop_
_atom_site_label
_atom_site_type_symbol
_atom_site_fract_x
_atom_site_fract_y
_atom_site_fract_z
V1	V	-4.092126	-0.125732	-0.402930
O2	O	-4.074332	0.006066	-0.394870
O3	O	-4.047105	-0.249328	-0.400549
O4	O	-4.070450	-0.123787	-0.578490
O5	O	-4.050824	-0.120344	-0.215697
V6	V	-4.571854	-0.109968	-0.380490
O7	O	-4.361711	-0.160310	-0.452154
O8	O	-4.752467	-0.075390	-0.331265
O9	O	-4.393669	0.013628	-0.382871
O10	O	-4.707045	-0.241766	-0.388550
O11	O	-4.730553	-0.115356	-0.567723
O12	O	-4.370323	-0.111913	-0.204929
C13	C	-3.892063	-0.279459	-0.394289
C14	C	-3.936717	-0.380501	-0.393513
C15	C	-4.066954	-0.794768	-0.271993
C16	C	-4.184337	-0.820698	-0.508549
C17	C	-4.142352	-0.725763	-0.509271
C18	C	-4.062669	-0.665325	-0.391353
C19	C	-4.024970	-0.699823	-0.272712
C20	C	-4.180067	-0.691258	-0.627911
C21	C	-4.138085	-0.596317	-0.628638
C22	C	-4.058386	-0.535877	-0.510717
C23	C	-4.020685	-0.570381	-0.392072
C24	C	-3.941002	-0.509943	-0.274153
C25	C	-3.903286	-0.544444	-0.155505
C26	C	-3.945272	-0.639384	-0.154791
C27	C	-4.016400	-0.440938	-0.511431
C28	C	-3.899018	-0.414999	-0.274872
C29	C	-3.921841	-0.119317	-0.621270
C30	C	-3.985425	-0.118545	-0.764794
C31	C	-3.831221	-0.113345	-0.841926
C32	C	-4.006233	-0.190534	-0.948148
C33	C	-3.923732	-0.039988	-0.914308
C34	C	-4.159634	-0.195807	-0.869140
C35	C	-4.077065	-0.045193	-0.835276
C36	C	-4.252210	-0.122404	-0.941469
C37	C	-4.212052	0.043754	-0.389127
C38	C	-4.146637	0.144795	-0.389912
C39	C	-4.182274	-0.116386	-0.162143
C40	C	-4.097928	-0.117153	-0.018618
H41	H	-4.244970	-0.740473	-0.723914
H42	H	-3.976951	-0.251979	-0.997282
H43	H	-4.258763	-0.261732	-0.848794
C44	C	-4.493470	-0.127594	-0.999913
H45	H	-4.508765	-0.074367	-1.039057
H46	H	-4.566892	-0.180845	-1.064121
H47	H	-4.553587	-0.130759	-0.932602
H48	H	-3.824620	0.025849	-0.934872
C49	C	-4.271984	-0.887171	-0.638252
H50	H	-4.288434	-0.853026	-0.709012
H51	H	-4.173583	-0.921794	-0.638755
H52	H	-4.408044	-0.927698	-0.647019
C53	C	-4.179547	-0.558372	-0.759141
H54	H	-4.233001	-0.607965	-0.829263
H55	H	-4.282825	-0.524826	-0.768477
H56	H	-4.048361	-0.518926	-0.760201
C57	C	-4.057891	-0.402985	-0.641923
H58	H	-4.021489	-0.337787	-0.625465
H59	H	-3.971682	-0.420918	-0.686285
H60	H	-4.206132	-0.426826	-0.694521
C61	C	-3.811365	-0.348521	-0.145162
H62	H	-3.791752	-0.287036	-0.162578
H63	H	-3.911346	-0.361710	-0.100571
H64	H	-3.676887	-0.355794	-0.092322
H65	H	-4.036241	-0.822863	-0.175393
H66	H	-3.652713	-0.109617	-0.798466
C67	C	-4.116482	0.037812	-0.768821
H68	H	-4.217201	0.016657	-0.726598
H69	H	-3.984114	0.074592	-0.706107
H70	H	-4.172470	0.073393	-0.832763
C71	C	-3.815666	-0.477963	-0.025801
H72	H	-3.799233	-0.512102	0.044965
H73	H	-3.679635	-0.437421	-0.017030
H74	H	-3.914119	-0.443357	-0.025314
C75	C	-3.903810	-0.677338	-0.024295
H76	H	-3.940250	-0.742536	-0.040760
H77	H	-3.755591	-0.653500	0.028322
H78	H	-3.990057	-0.659406	0.020049
