data_functionalizedCrystal
_audit_creation_method	'MofGen! by Chris Wilmer'
_symmetry_space_group_name_H-M	'P1'
_symmetry_Int_Tables_number	1
_symmetry_cell_setting	triclinic
loop_
_symmetry_equiv_pos_as_xyz
  x,y,z
_cell_length_a	8.497374
_cell_length_b	12.759401
_cell_length_c	12.759399
_cell_angle_alpha	89.983359
_cell_angle_beta	89.991562
_cell_angle_gamma	90.001753
loop_
_atom_site_label
_atom_site_type_symbol
_atom_site_fract_x
_atom_site_fract_y
_atom_site_fract_z
Zn1	Zn	0.891958	1.606064	0.418406
Zn2	Zn	0.628160	1.606013	0.594052
Zn3	Zn	0.628185	1.430422	0.418393
Zn4	Zn	0.891892	1.430354	0.594048
O5	O	0.760048	1.518213	0.506225
O6	O	0.856982	1.753079	0.441713
O7	O	0.407401	1.582728	0.570747
O8	O	0.663213	1.453771	0.271373
O9	O	0.663171	1.753041	0.570760
O10	O	0.857005	1.582815	0.271383
O11	O	0.407419	1.453722	0.441691
O12	O	0.663149	1.283392	0.441686
O13	O	1.112663	1.453655	0.570752
O14	O	0.856893	1.283342	0.570739
O15	O	1.112711	1.582749	0.441709
O16	O	0.663107	1.582661	0.741073
O17	O	0.856869	1.453605	0.741069
C18	C	0.760017	1.245246	0.506212
C19	C	0.760041	1.128469	0.506232
C20	C	0.860765	1.073609	0.573532
C21	C	0.860796	0.963885	0.573536
C22	C	0.659366	0.963891	0.438937
C23	C	0.659344	1.073613	0.438928
C24	C	1.046781	0.813947	0.611283
C25	C	1.147491	0.759083	0.678599
C26	C	1.171437	0.794674	0.781136
C27	C	1.094649	0.885128	0.816378
C28	C	0.993928	0.939987	0.749067
C29	C	0.970012	0.904397	0.646515
C30	C	0.473357	1.223553	0.401192
C31	C	0.372627	1.278414	0.333885
C32	C	0.348665	1.242824	0.231346
C33	C	0.425424	1.152367	0.196109
C34	C	0.526155	1.097506	0.263415
C35	C	0.550119	1.133103	0.365953
C36	C	0.760013	1.518149	0.779192
C37	C	0.760050	1.518217	0.895969
C38	C	1.171529	1.518205	0.506226
C39	C	1.350173	1.518208	0.506237
C40	C	0.760081	1.792246	0.506238
C41	C	0.760095	1.909023	0.506244
C42	C	0.760119	1.518307	0.232191
C43	C	0.760149	1.518346	0.115415
C44	C	0.659273	1.585494	0.950797
C45	C	0.659326	1.585561	1.060521
C46	C	0.860938	1.451067	1.060578
C47	C	0.860891	1.451006	0.950856
C48	C	0.603186	1.709582	1.210382
C49	C	0.502384	1.776849	1.265215
C50	C	0.348458	1.793046	1.229634
C51	C	0.295302	1.741961	1.139222
C52	C	0.396096	1.674686	1.084396
C53	C	0.550044	1.658509	1.119975
C54	C	0.917015	1.326983	0.800993
C55	C	1.017802	1.259702	0.746165
C56	C	1.171731	1.243495	0.781743
C57	C	1.224880	1.294561	0.872158
C58	C	1.124094	1.361842	0.926987
C59	C	0.970167	1.378052	0.891401
H60	H	0.266627	1.287497	0.176550
H61	H	1.027310	0.784967	0.527785
H62	H	1.167384	1.403428	1.000605
C63	C	1.231965	0.659596	0.639832
H64	H	1.203306	0.646265	0.569115
H65	H	1.202126	0.601718	0.682255
H66	H	1.342588	0.669440	0.644199
C67	C	0.499722	1.262709	0.513984
H68	H	0.439563	1.324431	0.525335
H69	H	0.608146	1.277781	0.524059
H70	H	0.467688	1.210073	0.562148
C71	C	0.548367	1.659433	0.890424
H72	H	0.488368	1.699516	0.938797
H73	H	0.479556	1.619263	0.847674
H74	H	0.608771	1.705155	0.847569
H75	H	0.577380	0.919214	0.384142
H76	H	0.588668	1.023856	0.234713
H77	H	0.266384	1.847818	1.274286
C78	C	0.772514	1.691777	1.249513
H79	H	0.824942	1.644407	1.203905
H80	H	0.769807	1.663260	1.318269
H81	H	0.827269	1.756684	1.250489
H82	H	0.405889	1.123377	0.112620
H83	H	0.310124	1.352069	0.362585
C84	C	0.337646	1.618502	0.984948
H85	H	0.231534	1.637784	0.971606
H86	H	0.343933	1.544826	0.994820
H87	H	0.401404	1.638258	0.927054
C88	C	0.125975	1.759774	1.100092
H89	H	0.073564	1.807162	1.145689
H90	H	0.071209	1.694877	1.099112
H91	H	0.128695	1.788295	1.031332
H92	H	0.545678	1.818443	1.338828
H93	H	1.253439	0.749996	0.835946
H94	H	0.943037	1.396344	1.105281
H95	H	1.253788	1.188705	0.737092
H96	H	1.350223	1.281365	0.901127
H97	H	0.974517	1.218127	0.672539
C98	C	0.747679	1.344793	0.761866
H99	H	0.730450	1.304725	0.700180
H100	H	0.732775	1.417016	0.746745
H101	H	0.675336	1.323596	0.814540
H102	H	1.114141	0.914093	0.899879
C103	C	0.909472	1.039479	0.787819
H104	H	0.938158	1.052823	0.858530
H105	H	0.798854	1.029654	0.783454
H106	H	0.939336	1.097353	0.745388
H107	H	0.942763	1.118269	0.628332
