data_functionalizedCrystal
_audit_creation_method	'MofGen! by Chris Wilmer'
_symmetry_space_group_name_H-M	'P1'
_symmetry_Int_Tables_number	1
_symmetry_cell_setting	triclinic
loop_
_symmetry_equiv_pos_as_xyz
  x,y,z
_cell_length_a	14.044190
_cell_length_b	17.699083
_cell_length_c	16.176319
_cell_angle_alpha	90.001389
_cell_angle_beta	89.988653
_cell_angle_gamma	91.762604
loop_
_atom_site_label
_atom_site_type_symbol
_atom_site_fract_x
_atom_site_fract_y
_atom_site_fract_z
O1	O	0.119850	-1.012349	-0.068639
O2	O	0.619850	-0.512349	0.431361
O3	O	0.135443	-0.793046	-0.068667
O4	O	0.635443	-0.293046	0.431333
O5	O	-0.010330	-0.899403	-0.068637
O6	O	0.489670	-0.399403	0.431363
O7	O	0.265624	-0.905992	-0.068669
O8	O	0.765624	-0.405992	0.431331
O9	O	-0.010340	-0.899386	0.068856
O10	O	0.489660	-0.399386	0.568856
O11	O	0.135434	-0.793030	0.068826
O12	O	0.635434	-0.293030	0.568826
O13	O	0.119841	-1.012332	0.068854
O14	O	0.619841	-0.512332	0.568854
Cu15	Cu	0.127637	-0.902679	0.081394
Cu16	Cu	0.627637	-0.402679	0.581394
Cu17	Cu	0.127648	-0.902699	-0.081207
Cu18	Cu	0.627648	-0.402699	0.418793
O19	O	0.265615	-0.905975	0.068824
O20	O	0.765615	-0.405975	0.568824
C21	C	0.134880	-0.764802	0.000076
C22	C	0.634880	-0.264802	0.500076
C23	C	0.133204	-0.680669	0.000066
C24	C	0.633204	-0.180669	0.500066
C25	C	-0.045643	-0.896512	0.000111
C26	C	0.454357	-0.396512	0.500111
C27	C	-0.150849	-0.887914	0.000117
C28	C	0.349151	-0.387914	0.500117
C29	C	0.120405	-1.040576	0.000109
C30	C	0.620405	-0.540576	0.500109
C31	C	0.122081	-1.124710	0.000114
C32	C	0.622081	-0.624710	0.500114
C33	C	-0.401240	-0.933175	0.000091
C34	C	0.098760	-0.433175	0.500091
C35	C	-0.343470	-0.872207	0.000089
C36	C	0.156530	-0.372207	0.500089
C37	C	-0.236286	-0.880949	0.000105
C38	C	0.263714	-0.380949	0.500105
C39	C	-0.508434	-0.924434	0.000075
C40	C	-0.008434	-0.424434	0.500075
C41	C	0.300927	-0.908866	0.000074
C42	C	0.800927	-0.408866	0.500074
C43	C	0.406133	-0.917464	0.000062
C44	C	0.906133	-0.417464	0.500062
N45	N	0.127628	-0.902671	0.195759
N46	N	0.627628	-0.402671	0.695759
C47	C	0.218770	-0.637952	0.000056
C48	C	0.718770	-0.137952	0.500056
C49	C	0.217189	-0.558900	0.000067
C50	C	0.717189	-0.058900	0.500067
C51	C	0.130042	-0.522565	0.000082
C52	C	0.630042	-0.022565	0.500082
C53	C	0.044469	-0.565288	0.000094
C54	C	0.544469	-0.065288	0.500094
C55	C	0.046051	-0.644339	0.000089
C56	C	0.546051	-0.144339	0.500089
C57	C	0.038089	-0.246485	0.000115
C58	C	0.538089	0.253515	0.500115
C59	C	0.036514	-0.167428	0.000117
C60	C	0.536514	0.332572	0.500117
C61	C	0.209227	-0.161045	0.000093
C62	C	0.709227	0.338955	0.500093
C63	C	0.210809	-0.240096	0.000088
C64	C	0.710809	0.259904	0.500088
C65	C	0.125237	-0.282812	0.000105
C66	C	0.625237	0.217188	0.500105
C67	C	0.126952	-0.368529	0.000095
C68	C	0.626952	0.131471	0.500095
C69	C	0.128326	-0.436849	0.000086
C70	C	0.628326	0.063151	0.500086
N71	N	0.127648	-0.902713	-0.195573
N72	N	0.627648	-0.402713	0.304427
C73	C	0.063106	-0.949783	0.239037
C74	C	0.563106	-0.449783	0.739037
C75	C	0.063105	-0.949787	0.325584
C76	C	0.563105	-0.449787	0.825584
C77	C	0.127632	-0.902682	0.368852
C78	C	0.627632	-0.402682	0.868852
C79	C	0.192157	-0.855565	0.325569
C80	C	0.692157	-0.355565	0.825569
C81	C	0.192153	-0.855557	0.239023
C82	C	0.692153	-0.355557	0.739023
C83	C	0.192175	-0.855592	0.674597
C84	C	0.692175	-0.355592	1.174597
C85	C	0.192176	-0.855604	0.761148
C86	C	0.692176	-0.355604	1.261148
C87	C	0.063127	-0.949821	0.761158
C88	C	0.563127	-0.449821	1.261158
C89	C	0.063123	-0.949814	0.674612
C90	C	0.563123	-0.449814	1.174612
C91	C	0.127644	-0.902694	0.631336
C92	C	0.627644	-0.402694	1.131336
C93	C	0.127644	-0.902689	0.537492
C94	C	0.627644	-0.402689	1.037492
C95	C	0.127638	-0.902690	0.462695
C96	C	0.627638	-0.402690	0.962695
H97	H	-0.374510	-0.813446	0.000076
H98	H	0.125490	-0.313446	0.500076
H99	H	-0.370201	-0.991931	0.000107
H100	H	0.129799	-0.491931	0.500107
O101	O	0.312765	-0.677140	0.000049
O102	O	0.812765	-0.177140	0.500049
H103	H	0.371998	-0.634152	0.000055
H104	H	0.871998	-0.134152	0.500055
O105	O	-0.054202	-0.292553	0.000132
O106	O	0.445798	0.207447	0.500132
H107	H	-0.115063	-0.254004	0.000136
H108	H	0.384937	0.245996	0.500136
H109	H	0.281773	-0.269675	0.000073
H110	H	0.781773	0.230325	0.500073
H111	H	0.286866	-0.524123	0.000058
H112	H	0.786866	-0.024123	0.500058
O113	O	0.261744	-0.804733	0.192353
O114	O	0.761744	-0.304733	0.692353
H115	H	0.221893	-0.765253	0.152950
H116	H	0.721893	-0.265253	0.652950
O117	O	-0.006486	-1.000613	0.627949
O118	O	0.493514	-0.500613	1.127949
H119	H	0.004353	-0.992694	0.560498
H120	H	0.504353	-0.492694	1.060498
O121	O	0.301529	-0.114975	0.000094
O122	O	0.801529	0.385025	0.500094
H123	H	0.285795	-0.053901	0.000112
H124	H	0.785795	0.446099	0.500112
O125	O	-0.006513	-1.000575	0.192377
O126	O	0.493487	-0.500575	0.692377
H127	H	0.004319	-0.992656	0.124925
H128	H	0.504319	-0.492656	0.624925
H129	H	-0.034456	-0.137847	0.000130
H130	H	0.465544	0.362153	0.500130
O131	O	-0.049530	-0.526105	0.000113
O132	O	0.450470	-0.026105	0.500113
H133	H	-0.036257	-0.463959	0.000107
H134	H	0.463743	0.036041	0.500107
H135	H	0.244723	-0.817243	0.796376
H136	H	0.744723	-0.317243	1.296376
O137	O	-0.006490	-1.000602	0.372258
O138	O	0.493510	-0.500602	0.872258
H139	H	0.004342	-0.992688	0.439708
H140	H	0.504342	-0.492688	0.939708
O141	O	-0.046237	-0.690418	0.000097
O142	O	0.453763	-0.190418	0.500097
H143	H	-0.107103	-0.651873	0.000100
H144	H	0.392897	-0.151873	0.500100
O145	O	-0.006477	-1.000639	0.807832
O146	O	0.493523	-0.500639	1.307832
H147	H	0.004354	-0.992727	0.875282
H148	H	0.504354	-0.492727	1.375282
O149	O	0.261771	-0.804780	0.627925
O150	O	0.761771	-0.304780	1.127925
H151	H	0.306647	-0.772035	0.672554
H152	H	0.806647	-0.272035	1.172554
O153	O	0.261761	-0.804760	0.372230
O154	O	0.761761	-0.304760	0.872230
H155	H	0.250933	-0.812685	0.439682
H156	H	0.750933	-0.312685	0.939682
