data_functionalizedCrystal
_audit_creation_method	'MofGen! by Chris Wilmer'
_symmetry_space_group_name_H-M	'P1'
_symmetry_Int_Tables_number	1
_symmetry_cell_setting	triclinic
loop_
_symmetry_equiv_pos_as_xyz
  x,y,z
_cell_length_a	33.592126
_cell_length_b	33.591377
_cell_length_c	33.588093
_cell_angle_alpha	60.004089
_cell_angle_beta	60.008299
_cell_angle_gamma	59.994549
loop_
_atom_site_label
_atom_site_type_symbol
_atom_site_fract_x
_atom_site_fract_y
_atom_site_fract_z
O1	O	0.055297	-0.581666	0.486338
O2	O	0.555297	-0.081666	0.986338
O3	O	0.020882	-0.452873	0.391864
O4	O	0.520882	0.047127	0.891864
O5	O	0.102445	-0.534352	0.391775
O6	O	0.602445	-0.034352	0.891775
O7	O	-0.026266	-0.500187	0.486427
O8	O	0.473734	-0.000187	0.986427
O9	O	0.129510	-0.507292	0.418747
O10	O	0.629510	-0.007292	0.918747
O11	O	0.047947	-0.425814	0.418835
O12	O	0.547947	0.074186	0.918835
O13	O	0.082362	-0.554606	0.513309
O14	O	0.582362	-0.054606	1.013309
Cu15	Cu	0.067626	-0.487739	0.468535
Cu16	Cu	0.567626	0.012261	0.968535
Cu17	Cu	0.035618	-0.519740	0.436638
Cu18	Cu	0.535618	-0.019740	0.936638
O19	O	0.000799	-0.473128	0.513398
O20	O	0.500799	0.026872	1.013398
N21	N	0.090139	-0.465235	0.490972
N22	N	0.590139	0.034765	0.990972
N23	N	0.013110	-0.542249	0.414202
N24	N	0.513110	-0.042249	0.914202
C25	C	0.124394	-0.431229	0.734914
C26	C	0.624394	0.068771	1.234914
C27	C	0.334265	-0.431145	0.524799
C28	C	0.834265	0.068855	1.024799
C29	C	0.124204	-0.431200	0.524965
C30	C	0.624204	0.068800	1.024965
C31	C	0.124184	-0.221175	0.524955
C32	C	0.624184	0.278825	1.024955
C33	C	0.158017	-0.322536	0.558710
C34	C	0.658017	0.177464	1.058710
C35	C	0.158027	-0.397406	0.558711
C36	C	0.658027	0.102594	1.058711
C37	C	0.176763	-0.378688	0.577408
C38	C	0.676763	0.121312	1.077408
C39	C	0.258412	-0.364594	0.534386
C40	C	0.758412	0.135406	1.034386
C41	C	0.309454	-0.381596	0.517340
C42	C	0.809454	0.118404	1.017340
C43	C	0.309485	-0.464188	0.548836
C44	C	0.809485	0.035812	1.048836
C45	C	0.258444	-0.447186	0.565883
C46	C	0.758444	0.052814	1.065883
C47	C	0.170304	-0.297002	0.508532
C48	C	0.670304	0.202998	1.008532
C49	C	0.153260	-0.245956	0.491537
C50	C	0.653260	0.254044	0.991537
C51	C	0.111648	-0.245983	0.574901
C52	C	0.611648	0.254017	1.074901
C53	C	0.128691	-0.297029	0.591896
C54	C	0.628691	0.202971	1.091896
C55	C	0.107841	-0.385091	0.571080
C56	C	0.607841	0.114909	1.071080
C57	C	0.090813	-0.402108	0.554078
C58	C	0.590813	0.097892	1.054078
C59	C	0.174153	-0.443755	0.512351
C60	C	0.674153	0.056245	1.012351
C61	C	0.191183	-0.426739	0.529347
C62	C	0.691183	0.073261	1.029347
C63	C	0.107923	-0.385106	0.659111
C64	C	0.607923	0.114894	1.159111
C65	C	0.090955	-0.402138	0.710156
C66	C	0.590955	0.097862	1.210156
C67	C	0.174335	-0.443795	0.710087
C68	C	0.674335	0.056205	1.210087
C69	C	0.191302	-0.426764	0.659041
C70	C	0.691302	0.073236	1.159041
C71	C	0.158095	-0.397418	0.633555
C72	C	0.658095	0.102582	1.133555
C73	C	0.232909	-0.397388	0.558656
C74	C	0.732909	0.102612	1.058656
C75	C	0.105069	-0.449619	0.791057
C76	C	0.605069	0.050381	1.291057
C77	C	0.390406	-0.449193	0.505789
C78	C	0.890406	0.050807	1.005789
C79	C	0.104813	-0.449599	0.506607
C80	C	0.604813	0.050401	1.006607
C81	C	0.105125	-0.165028	0.506915
C82	C	0.605125	0.334972	1.006915
C83	C	-0.020560	-0.576246	0.169890
C84	C	0.479440	-0.076246	0.669890
C85	C	-0.020889	-0.786183	0.379970
C86	C	0.479111	-0.286183	0.879970
C87	C	-0.020859	-0.576235	0.380063
C88	C	0.479141	-0.076235	0.880063
C89	C	-0.230772	-0.576015	0.379658
C90	C	0.269228	-0.076015	0.879658
C91	C	-0.129417	-0.609898	0.346025
C92	C	0.370583	-0.109898	0.846025
C93	C	-0.054587	-0.609979	0.346172
C94	C	0.445413	-0.109979	0.846172
C95	C	-0.073269	-0.628671	0.327396
C96	C	0.426731	-0.128671	0.827396
C97	C	-0.087401	-0.710299	0.370335
C98	C	0.412599	-0.210299	0.870335
C99	C	-0.070424	-0.761345	0.387369
C100	C	0.429576	-0.261345	0.887369
C101	C	0.012165	-0.761428	0.356003
C102	C	0.512165	-0.261428	0.856003
C103	C	-0.004813	-0.710383	0.338967
C104	C	0.495187	-0.210383	0.838967
C105	C	-0.155001	-0.622196	0.396191
C106	C	0.344999	-0.122196	0.896191
C107	C	-0.206043	-0.605128	0.413125
C108	C	0.293957	-0.105128	0.913125
C109	C	-0.205914	-0.563467	0.329724
C110	C	0.294086	-0.063467	0.829724
C111	C	-0.154872	-0.580535	0.312790
C112	C	0.345128	-0.080535	0.812790
C113	C	-0.066886	-0.559797	0.333828
C114	C	0.433114	-0.059797	0.833828
C115	C	-0.049903	-0.542809	0.350903
C116	C	0.450097	-0.042809	0.850903
C117	C	-0.008321	-0.626180	0.392654
C118	C	0.491679	-0.126180	0.892654
C119	C	-0.025304	-0.643170	0.375585
C120	C	0.474696	-0.143170	0.875585
C121	C	-0.066758	-0.559805	0.245702
C122	C	0.433242	-0.059805	0.745702
C123	C	-0.049671	-0.542819	0.194658
C124	C	0.450329	-0.042819	0.694658
C125	C	-0.008026	-0.626194	0.194706
C126	C	0.491974	-0.126194	0.694706
C127	C	-0.025111	-0.643179	0.245752
C128	C	0.474889	-0.143179	0.745752
C129	C	-0.054479	-0.609983	0.271248
C130	C	0.445521	-0.109983	0.771248
C131	C	-0.054597	-0.684821	0.346135
C132	C	0.445403	-0.184821	0.846135
C133	C	-0.002109	-0.556901	0.113746
C134	C	0.497891	-0.056901	0.613746
C135	C	-0.002869	-0.842328	0.398966
C136	C	0.497131	-0.342328	0.898966
C137	C	-0.002496	-0.556887	0.398501
C138	C	0.497504	-0.056887	0.898501
C139	C	-0.286914	-0.556929	0.397631
C140	C	0.213086	-0.056929	0.897631
N141	N	0.436349	-0.465146	0.490703
N142	N	0.936349	0.034854	0.990703
O143	O	0.592194	-0.469605	0.374236
O144	O	1.092194	0.030395	0.874236
O145	O	0.592389	-0.564393	0.502890
O146	O	1.092389	-0.064393	1.002890
O147	O	0.592305	-0.564176	0.421300
O148	O	1.092305	-0.064176	0.921300
O149	O	0.592277	-0.469822	0.455826
O150	O	1.092277	0.030178	0.955826
O151	O	0.511216	-0.537214	0.448415
O152	O	1.011216	-0.037214	0.948415
O153	O	0.511300	-0.537431	0.530004
O154	O	1.011300	-0.037431	1.030004
O155	O	0.511104	-0.442643	0.401350
O156	O	1.011104	0.057357	0.901350
Cu157	Cu	0.503798	-0.487575	0.468153
Cu158	Cu	1.003798	0.012425	0.968153
Cu159	Cu	0.599695	-0.519461	0.436087
Cu160	Cu	1.099695	-0.019461	0.936087
O161	O	0.511188	-0.442860	0.482940
O162	O	1.011188	0.057140	0.982940
N163	N	0.667145	-0.541890	0.413532
N164	N	1.167145	-0.041890	0.913532
N165	N	0.090108	-0.119085	0.490958
N166	N	0.590108	0.380915	0.990958
O167	O	-0.026275	0.036848	0.486394
O168	O	0.473725	0.536848	0.986394
O169	O	0.102381	0.036888	0.391584
O170	O	0.602381	0.536888	0.891584
O171	O	0.020751	0.036852	0.391854
O172	O	0.520751	0.536852	0.891854
O173	O	0.055356	0.036884	0.486124
O174	O	0.555356	0.536884	0.986124
O175	O	0.047821	-0.044242	0.418876
O176	O	0.547821	0.455758	0.918876
O177	O	0.129452	-0.044207	0.418606
O178	O	0.629452	0.455793	0.918606
O179	O	0.000796	-0.044246	0.513417
O180	O	0.500796	0.455754	1.013417
Cu181	Cu	0.067596	-0.051631	0.468479
Cu182	Cu	0.567596	0.448369	0.968479
Cu183	Cu	0.035582	0.044273	0.436522
Cu184	Cu	0.535582	0.544273	0.936522
O185	O	0.082426	-0.044211	0.513146
O186	O	0.582426	0.455789	1.013146
N187	N	0.013063	0.111726	0.414043
N188	N	0.513063	0.611726	0.914043
N189	N	0.090453	-0.465282	0.837001
N190	N	0.590453	0.034718	1.337001
O191	O	0.085913	-0.581648	0.992925
O192	O	0.585913	-0.081648	1.492925
O193	O	-0.008857	-0.452947	0.992970
O194	O	0.491143	0.047053	1.492970
O195	O	-0.008635	-0.534562	0.992946
O196	O	0.491365	-0.034562	1.492946
O197	O	0.085691	-0.500033	0.992949
O198	O	0.585691	-0.000033	1.492949
O199	O	0.018365	-0.507512	0.911855
O200	O	0.518365	-0.007512	1.411855
O201	O	0.018143	-0.425898	0.911878
O202	O	0.518143	0.074102	1.411878
O203	O	0.112912	-0.554598	0.911834
O204	O	0.612912	-0.054598	1.411834
Cu205	Cu	0.067993	-0.487778	0.904452
Cu206	Cu	0.567993	0.012222	1.404452
Cu207	Cu	0.036063	-0.519767	1.000352
Cu208	Cu	0.536063	-0.019767	1.500352
O209	O	0.112691	-0.472984	0.911857
O210	O	0.612691	0.027016	1.411857
N211	N	0.013602	-0.542269	1.067803
N212	N	0.513602	-0.042269	1.567803
C213	C	0.031188	-0.423114	0.392334
C214	C	0.531188	0.076886	0.892334
C215	C	0.132194	-0.524016	0.392223
C216	C	0.632194	-0.024016	0.892223
C217	C	0.072056	-0.584366	0.512840
C218	C	0.572056	-0.084366	1.012840
C219	C	-0.028950	-0.483464	0.512950
C220	C	0.471050	0.016536	1.012950
C221	C	0.551868	-0.563965	0.532655
C222	C	1.051868	-0.063965	1.032655
C223	C	0.551766	-0.563697	0.431617
C224	C	1.051766	-0.063697	0.931617
C225	C	0.551623	-0.443070	0.371586
C226	C	1.051623	0.056930	0.871586
C227	C	0.551728	-0.443339	0.472623
C228	C	1.051728	0.056661	0.972623
C229	C	0.132090	-0.003555	0.392006
C230	C	0.632090	0.496445	0.892006
C231	C	0.031035	-0.003698	0.392374
C232	C	0.531035	0.496302	0.892374
C233	C	-0.028947	-0.003703	0.512961
C234	C	0.471053	0.496297	1.012961
C235	C	0.072143	-0.003661	0.512626
C236	C	0.572143	0.496339	1.012626
C237	C	-0.008408	-0.423209	0.952430
C238	C	0.491592	0.076791	1.452430
C239	C	-0.008128	-0.524272	0.952385
C240	C	0.491872	-0.024272	1.452385
C241	C	0.112464	-0.584336	0.952374
C242	C	0.612464	-0.084336	1.452374
C243	C	0.112190	-0.483267	0.952401
C244	C	0.612190	0.016733	1.452401
H245	H	0.080878	-0.361206	0.638363
H246	H	0.580878	0.138794	1.138363
N247	N	0.081789	-0.633371	0.552148
N248	N	0.581789	-0.133371	1.052148
H249	H	0.077927	-0.628897	0.581618
H250	H	0.577927	-0.128897	1.081618
H251	H	0.116101	-0.655068	0.539500
H252	H	0.616101	-0.155068	1.039500
N253	N	0.551715	-0.404074	0.482403
N254	N	1.051715	0.095926	0.982403
H255	H	0.581749	-0.394592	0.458472
H256	H	1.081749	0.105408	0.958472
H257	H	0.551742	-0.416756	0.516724
H258	H	1.051742	0.083244	1.016724
H259	H	0.237680	-0.473893	0.585645
H260	H	0.737680	0.026107	1.085645
N261	N	-0.077916	-0.473825	0.552322
N262	N	0.422084	0.026175	1.052322
H263	H	-0.078015	-0.503826	0.582453
H264	H	0.421985	-0.003826	1.082453
H265	H	-0.104275	-0.465613	0.540404
H266	H	0.395725	0.034387	1.040404
H267	H	0.169160	-0.531297	0.362501
H268	H	0.669160	-0.031297	0.862501
H269	H	0.551560	-0.413310	0.334638
H270	H	1.051560	0.086690	0.834638
H271	H	0.141823	-0.475877	0.952395
H272	H	0.641823	0.024123	1.452395
H273	H	0.079554	-0.003651	0.542242
H274	H	0.579554	0.496349	1.042242
H275	H	0.168963	-0.003318	0.362168
H276	H	0.668963	0.496682	0.862168
N277	N	0.021448	-0.374110	0.353025
N278	N	0.521448	0.125890	0.853025
H279	H	0.051412	-0.373943	0.322860
H280	H	0.551412	0.126057	0.822860
H281	H	0.013224	-0.347773	0.364978
H282	H	0.513224	0.152227	0.864978
N283	N	-0.047369	-0.534034	0.952338
N284	N	0.452631	-0.034034	1.452338
H285	H	-0.055452	-0.562315	0.982383
H286	H	0.444548	-0.062315	1.482383
H287	H	-0.035369	-0.542228	0.922242
H288	H	0.464631	-0.042228	1.422242
H289	H	-0.038161	-0.386246	0.952443
H290	H	0.461839	0.113754	1.452443
N291	N	0.021247	-0.003782	0.353164
N292	N	0.521247	0.496218	0.853164
H293	H	-0.013065	-0.003819	0.365839
H294	H	0.486935	0.496181	0.865839
H295	H	0.045202	-0.033867	0.343772
H296	H	0.545202	0.466133	0.843772
N297	N	-0.077884	-0.003723	0.552392
N298	N	0.422116	0.496277	1.052392
H299	H	-0.104293	0.026330	0.540543
H300	H	0.395707	0.526330	1.040543
H301	H	-0.077882	-0.003737	0.582468
H302	H	0.422118	0.496263	1.082468
N303	N	0.036838	-0.388853	0.737716
N304	N	0.536838	0.111147	1.237716
H305	H	0.018379	-0.367677	0.713822
H306	H	0.518379	0.132323	1.213822
H307	H	0.027981	-0.370464	0.758894
H308	H	0.527981	0.129536	1.258894
N309	N	0.036685	-0.388830	0.567416
N310	N	0.536685	0.111170	1.067416
H311	H	0.018263	-0.367669	0.588600
H312	H	0.518263	0.132331	1.088600
H313	H	0.027835	-0.419538	0.585809
H314	H	0.527835	0.080462	1.085809
H315	H	0.201378	-0.467681	0.730833
H316	H	0.701378	0.032319	1.230833
H317	H	0.551779	-0.593338	0.424228
H318	H	1.051779	-0.093338	0.924228
N319	N	0.151874	-0.633299	0.952368
N320	N	0.651874	-0.133299	1.452368
H321	H	0.139375	-0.655099	0.952367
H322	H	0.639375	-0.155099	1.452367
H323	H	0.161294	-0.648778	0.982431
H324	H	0.661294	-0.148778	1.482431
H325	H	0.232159	-0.436796	0.638236
H326	H	0.732159	0.063204	1.138236
H327	H	0.551918	-0.593721	0.569607
H328	H	1.051918	-0.093721	1.069607
H329	H	0.080840	-0.361208	0.594989
H330	H	0.580840	0.138792	1.094989
H331	H	0.232048	-0.436761	0.519270
H332	H	0.732048	0.063239	1.019270
N333	N	0.209915	-0.475398	0.480687
N334	N	0.709915	0.024602	0.980687
H335	H	0.244290	-0.480416	0.475235
H336	H	0.744290	0.019584	0.975235
H337	H	0.204482	-0.458929	0.448275
H338	H	0.704482	0.041071	0.948275
H339	H	0.330218	-0.354891	0.497577
H340	H	0.830218	0.145109	0.997577
N341	N	0.337035	-0.517898	0.556622
N342	N	0.837035	-0.017898	1.056622
H343	H	0.328137	-0.529145	0.540239
H344	H	0.828137	-0.029145	1.040239
H345	H	0.328175	-0.536807	0.592713
H346	H	0.828175	-0.036807	1.092713
N347	N	0.230862	-0.310887	0.526601
N348	N	0.730862	0.189113	1.026601
H349	H	0.239709	-0.291938	0.490518
H350	H	0.739709	0.208062	0.990518
H351	H	0.239769	-0.299684	0.543013
H352	H	0.739769	0.200316	1.043013
N353	N	0.201934	-0.324515	0.472743
N354	N	0.701934	0.175485	0.972743
H355	H	0.207128	-0.300592	0.438376
H356	H	0.707128	0.199408	0.938376
H357	H	0.185361	-0.345702	0.478000
H358	H	0.685361	0.154298	0.978000
H359	H	0.163263	-0.225165	0.450676
H360	H	0.663263	0.274835	0.950676
H361	H	0.087777	-0.225214	0.601924
H362	H	0.587777	0.274786	1.101924
N363	N	0.115443	-0.324577	0.646019
N364	N	0.615443	0.175423	1.146019
H365	H	0.078832	-0.315709	0.661302
H366	H	0.578832	0.184291	1.161302
H367	H	0.127962	-0.315684	0.661227
H368	H	0.627962	0.184316	1.161227
N369	N	-0.062923	-0.488693	0.167114
N370	N	0.437077	0.011307	0.667114
H371	H	-0.099533	-0.473403	0.175941
H372	H	0.400467	0.026597	0.675941
H373	H	-0.047615	-0.483006	0.130918
H374	H	0.452385	0.016994	0.630918
N375	N	-0.098434	-0.524003	0.273207
N376	N	0.401566	-0.024003	0.773207
H377	H	-0.129098	-0.502798	0.264266
H378	H	0.370902	-0.002798	0.764266
H379	H	-0.079997	-0.502878	0.264352
H380	H	0.420003	-0.002878	0.764352
N381	N	0.023638	-0.661998	0.167209
N382	N	0.523638	-0.161998	0.667209
H383	H	0.028821	-0.696363	0.191140
H384	H	0.528821	-0.196363	0.691140
H385	H	0.056169	-0.656796	0.146081
H386	H	0.556169	-0.156796	0.646081
H387	H	-0.090726	-0.532768	0.309877
H388	H	0.409274	-0.032768	0.809877
N389	N	-0.011862	-0.697303	0.273304
N390	N	0.488138	-0.197303	0.773304
H391	H	0.009332	-0.715752	0.249405
H392	H	0.509332	-0.215752	0.749405
H393	H	-0.042576	-0.706142	0.294437
H394	H	0.457424	-0.206142	0.794437
H395	H	-0.059919	-0.501948	0.340854
H396	H	0.440081	-0.001948	0.840854
H397	H	0.015526	-0.653210	0.416597
H398	H	0.515526	-0.153210	0.916597
H399	H	-0.015291	-0.684031	0.385637
H400	H	0.484709	-0.184031	0.885637
H401	H	0.021903	-0.689639	0.319262
H402	H	0.521903	-0.189639	0.819262
H403	H	-0.097137	-0.782089	0.407066
H404	H	0.402863	-0.282089	0.907066
N405	N	0.065860	-0.789001	0.348279
N406	N	0.565860	-0.289001	0.848279
H407	H	0.084840	-0.780143	0.312205
H408	H	0.584840	-0.280143	0.812205
H409	H	0.071593	-0.825195	0.362771
H410	H	0.571593	-0.325195	0.862771
N411	N	-0.141095	-0.682730	0.378067
N412	N	0.358905	-0.182730	0.878067
H413	H	-0.159299	-0.706619	0.395983
H414	H	0.340701	-0.206619	0.895983
H415	H	-0.146059	-0.661554	0.345429
H416	H	0.353941	-0.161554	0.845429
H417	H	-0.226875	-0.615140	0.453976
H418	H	0.273125	-0.115140	0.953976
N419	N	-0.127545	-0.653867	0.432034
N420	N	0.372455	-0.153867	0.932034
H421	H	-0.151499	-0.659064	0.466385
H422	H	0.348501	-0.159064	0.966385
H423	H	-0.106364	-0.637319	0.426834
H424	H	0.393636	-0.137319	0.926834
H425	H	-0.226640	-0.539563	0.302661
H426	H	0.273360	-0.039563	0.802661
N427	N	-0.127273	-0.567268	0.258680
N428	N	0.372727	-0.067268	0.758680
H429	H	-0.151144	-0.546076	0.240196
H430	H	0.348856	-0.046076	0.740196
H431	H	-0.106096	-0.597978	0.249823
H432	H	0.393904	-0.097978	0.749823
