data_functionalizedCrystal
_audit_creation_method	'MofGen! by Chris Wilmer'
_symmetry_space_group_name_H-M	'P1'
_symmetry_Int_Tables_number	1
_symmetry_cell_setting	triclinic
loop_
_symmetry_equiv_pos_as_xyz
  x,y,z
_cell_length_a	16.109302
_cell_length_b	15.944493
_cell_length_c	15.186229
_cell_angle_alpha	89.994408
_cell_angle_beta	90.007553
_cell_angle_gamma	83.468412
loop_
_atom_site_label
_atom_site_type_symbol
_atom_site_fract_x
_atom_site_fract_y
_atom_site_fract_z
O1	O	1.103146	0.107968	0.073256
O2	O	0.861086	0.121404	0.073248
O3	O	0.988751	-0.007595	0.073260
O4	O	0.975481	0.236966	0.073245
O5	O	0.988736	-0.007587	-0.073197
O6	O	0.861071	0.121411	-0.073209
O7	O	1.103131	0.107975	-0.073201
Zn8	Zn	0.982099	0.114694	-0.096458
Zn9	Zn	0.982118	0.114684	0.096506
O10	O	0.975466	0.236973	-0.073213
C11	C	0.830103	0.120863	0.000019
C12	C	0.737808	0.119231	0.000016
C13	C	0.525458	0.115461	-0.079809
C14	C	0.438738	0.113919	-0.079806
C15	C	0.438765	0.113915	0.079870
C16	C	0.525484	0.115451	0.079866
C17	C	0.568828	0.116229	0.000024
C18	C	0.395389	0.113150	0.000031
C19	C	0.301363	0.111477	0.000035
C20	C	0.662861	0.117900	0.000020
C21	C	0.988201	-0.038886	0.000035
C22	C	0.986575	-0.132134	0.000046
C23	C	1.061722	-0.367918	0.000032
C24	C	1.021206	-0.418477	0.072241
C25	C	0.983562	-0.302854	0.000035
C26	C	1.021173	-0.418446	-0.072154
C27	C	0.980658	-0.467763	0.000021
C28	C	0.943067	-0.352184	0.072304
C29	C	0.943045	-0.352149	-0.072156
C30	C	0.902472	-0.402675	0.000071
C31	C	0.985238	-0.207855	0.000044
C32	C	0.978976	-0.562759	0.000018
C33	C	1.134114	0.108516	0.000031
C34	C	1.226409	0.110148	0.000039
C35	C	0.976016	0.268264	0.000014
C36	C	0.977642	0.361512	0.000009
N37	N	0.982091	0.114700	-0.228151
C38	C	1.032521	0.165649	-0.453875
C39	C	1.032530	0.165643	-0.546065
C40	C	0.931701	0.063717	-0.546071
C41	C	0.931697	0.063719	-0.453883
C42	C	0.982105	0.114690	-0.407788
C43	C	0.982118	0.114682	-0.592165
C44	C	0.982128	0.114675	-0.692121
C45	C	0.982097	0.114696	-0.307825
N46	N	0.982132	0.114672	0.228198
H47	H	0.560747	0.116094	-0.144821
C48	C	0.819869	0.058454	-0.350232
C49	C	0.876266	0.007708	-0.403219
H50	H	0.785654	0.023874	-0.318952
H51	H	0.785805	0.097094	-0.386210
H52	H	0.849903	0.088798	-0.309587
H53	H	0.846231	-0.022632	-0.443869
H54	H	0.910333	-0.030948	-0.367238
C55	C	0.613673	0.189343	0.172485
C56	C	0.573165	0.116297	0.167624
H57	H	0.643114	0.189858	0.226658
H58	H	0.573495	0.237689	0.169170
H59	H	0.651895	0.190011	0.124929
H60	H	0.534939	0.115632	0.215176
H61	H	0.613348	0.067938	0.170947
C62	C	1.132194	0.266390	-0.463132
C63	C	1.087938	0.221667	-0.403206
H64	H	1.166411	0.300968	-0.431851
H65	H	1.093931	0.300798	-0.499098
H66	H	1.166265	0.227730	-0.499080
H67	H	1.053862	0.260327	-0.367263
H68	H	1.126205	0.187256	-0.367226
H69	H	0.403430	0.113294	-0.144814
H70	H	0.910060	-0.323175	-0.133209
C71	C	1.193337	-0.380441	0.075881
C72	C	1.152591	-0.346801	0.000153
H73	H	1.249428	-0.367386	0.075966
H74	H	1.192946	-0.439963	0.076390
H75	H	1.165276	-0.356775	0.126645
H76	H	1.180649	-0.370472	-0.050612
H77	H	1.152987	-0.287267	-0.000364
C78	C	0.886877	0.018507	-0.687390
C79	C	0.876283	0.007700	-0.596740
H80	H	0.852658	-0.016072	-0.718666
H81	H	0.943752	0.002940	-0.702519
H82	H	0.871393	0.075983	-0.702464
H83	H	0.891774	-0.049775	-0.581664
H84	H	0.819396	0.023261	-0.581605
H85	H	1.054220	-0.447436	0.133292
H86	H	0.910084	-0.323356	0.133417
C87	C	1.025620	-0.422724	-0.230145
C88	C	1.065736	-0.457507	-0.154567
H89	H	1.053134	-0.446843	-0.281019
H90	H	1.027438	-0.363392	-0.230448
H91	H	0.969083	-0.434363	-0.230231
H92	H	1.122272	-0.445863	-0.154479
H93	H	1.063926	-0.516854	-0.154265
C94	C	0.305840	0.111567	0.150777
C95	C	0.391117	0.113072	0.167629
H96	H	0.276426	0.111054	0.204958
H97	H	0.297974	0.062364	0.117987
H98	H	0.285284	0.160274	0.117966
H99	H	0.411674	0.064362	0.200435
H100	H	0.398988	0.162280	0.200433
C101	C	0.770802	-0.389759	0.075786
C102	C	0.811519	-0.423534	0.000117
H103	H	0.714654	-0.402643	0.075818
H104	H	0.771366	-0.330258	0.076266
H105	H	0.798767	-0.413483	0.126591
H106	H	0.783558	-0.399805	-0.050689
H107	H	0.810950	-0.483047	-0.000371
C108	C	1.144358	0.170920	-0.649704
C109	C	1.087950	0.221659	-0.596722
H110	H	1.178578	0.205504	-0.680972
H111	H	1.114338	0.140577	-0.690350
H112	H	1.178424	0.132277	-0.613716
H113	H	1.053880	0.260298	-0.632711
H114	H	1.117973	0.252016	-0.556071
