data_functionalizedCrystal
_audit_creation_method	'MofGen! by Chris Wilmer'
_symmetry_space_group_name_H-M	'P1'
_symmetry_Int_Tables_number	1
_symmetry_cell_setting	triclinic
loop_
_symmetry_equiv_pos_as_xyz
  x,y,z
_cell_length_a	14.853558
_cell_length_b	14.853559
_cell_length_c	15.186229
_cell_angle_alpha	89.998446
_cell_angle_beta	89.997168
_cell_angle_gamma	83.631294
loop_
_atom_site_label
_atom_site_type_symbol
_atom_site_fract_x
_atom_site_fract_y
_atom_site_fract_z
O1	O	1.196365	0.117664	-0.073213
O2	O	0.933904	0.131694	-0.073217
O3	O	1.072149	-0.006552	-0.073214
O4	O	1.058120	0.255909	-0.073216
O5	O	1.072140	-0.006554	0.073243
O6	O	0.933895	0.131692	0.073240
O7	O	1.196356	0.117662	0.073244
Zn8	Zn	1.065124	0.124676	0.096495
Zn9	Zn	1.065136	0.124679	-0.096468
O10	O	1.058110	0.255907	0.073241
C11	C	0.900310	0.131059	0.000011
C12	C	0.800226	0.129158	0.000010
C13	C	0.753211	0.128268	-0.079828
C14	C	0.753200	0.128255	0.079846
C15	C	0.659166	0.126465	0.079847
C16	C	0.612151	0.125574	0.000010
C17	C	0.659169	0.126475	-0.079829
C18	C	0.612142	0.125555	0.159684
C19	C	0.518102	0.123764	0.159689
C20	C	0.471085	0.122880	0.079851
C21	C	0.518109	0.123781	0.000009
C22	C	0.471094	0.122891	-0.079828
C23	C	0.518115	0.123799	-0.159671
C24	C	0.612152	0.125591	-0.159667
C25	C	0.377048	0.121088	0.079847
C26	C	0.377052	0.121098	-0.079829
C27	C	1.071510	-0.040142	0.000013
C28	C	1.069609	-0.140226	0.000008
C29	C	1.061551	-0.563399	-0.079826
C30	C	1.061541	-0.563396	0.079847
C31	C	1.063334	-0.469363	0.079848
C32	C	1.064234	-0.422343	0.000010
C33	C	1.063342	-0.469357	-0.079828
C34	C	1.064218	-0.422341	0.159685
C35	C	1.066010	-0.328302	0.159689
C36	C	1.066917	-0.281282	0.079850
C37	C	1.066025	-0.328301	0.000009
C38	C	1.066926	-0.281282	-0.079829
C39	C	1.066040	-0.328300	-0.159671
C40	C	1.064249	-0.422337	-0.159666
C41	C	1.068709	-0.187245	0.079845
C42	C	1.068717	-0.187239	-0.079830
C43	C	1.229949	0.118297	0.000014
C44	C	1.330033	0.120197	0.000010
C45	C	1.058749	0.289497	0.000012
C46	C	1.060650	0.389581	0.000011
N47	N	1.065122	0.124674	0.228188
N48	N	1.065145	0.124674	-0.228161
C49	C	1.126358	0.063480	0.453912
C50	C	1.126361	0.063477	0.546102
C51	C	1.003902	0.185872	0.546108
C52	C	1.003896	0.185869	0.453920
C53	C	1.065129	0.124674	0.407825
C54	C	1.065138	0.124675	0.592202
C55	C	1.065141	0.124673	0.692158
C56	C	1.065125	0.124674	0.307862
H57	H	0.791486	0.128973	0.144846
H58	H	1.060801	-0.601684	0.144847
C59	C	0.936577	0.253231	0.403221
N60	N	0.885887	0.303980	0.365034
C61	C	0.466385	0.122784	0.247517
N62	N	0.427429	0.122053	0.313670
H63	H	1.063527	-0.460628	-0.224670
C64	C	1.193711	-0.003848	0.596794
N65	N	1.244438	-0.054564	0.634974
C66	C	1.193708	-0.003844	0.403210
N67	N	1.244436	-0.054557	0.365024
H68	H	1.069410	-0.148964	0.144852
C69	C	1.063212	-0.474066	0.247500
N70	N	1.062453	-0.513029	0.313645
C71	C	0.663884	0.126578	-0.247486
N72	N	0.702853	0.127316	-0.313631
H73	H	0.479824	0.123069	-0.224674
C74	C	0.936548	0.253181	0.596822
N75	N	0.885815	0.303879	0.635019
C76	C	1.069708	-0.135525	-0.167660
N77	N	1.070453	-0.096575	-0.233814
C78	C	1.060575	-0.615120	-0.167649
N79	N	1.059838	-0.654076	-0.233798
H80	H	0.338778	0.120378	-0.144843
C81	C	0.804935	0.129263	-0.167651
N82	N	0.843896	0.130010	-0.233800
C83	C	0.663854	0.126607	0.247499
N84	N	0.702805	0.127428	0.313644
H85	H	0.338767	0.120357	0.144853
H86	H	1.066767	-0.290004	-0.224675
C87	C	1.066991	-0.276591	0.247516
N88	N	1.067733	-0.237642	0.313669
