data_functionalizedCrystal
_audit_creation_method	'MofGen! by Chris Wilmer'
_symmetry_space_group_name_H-M	'P1'
_symmetry_Int_Tables_number	1
_symmetry_cell_setting	triclinic
loop_
_symmetry_equiv_pos_as_xyz
  x,y,z
_cell_length_a	19.077068
_cell_length_b	19.077142
_cell_length_c	19.076919
_cell_angle_alpha	90.074357
_cell_angle_beta	85.529249
_cell_angle_gamma	89.885450
loop_
_atom_site_label
_atom_site_type_symbol
_atom_site_fract_x
_atom_site_fract_y
_atom_site_fract_z
Zn1	Zn	-0.340467	-1.044046	0.453535
Zn2	Zn	-0.453617	-1.043960	0.340376
Zn3	Zn	-0.331038	-0.931658	0.330962
Zn4	Zn	-0.453191	-0.921799	0.453108
O5	O	-0.394578	-0.985366	0.394495
O6	O	-0.359601	-1.142194	0.442642
O7	O	-0.433589	-1.033152	0.240651
O8	O	-0.233814	-0.950729	0.343461
O9	O	-0.442732	-1.142130	0.359505
O10	O	-0.240742	-1.033300	0.433514
O11	O	-0.343531	-0.950645	0.233735
O12	O	-0.343117	-0.832191	0.343047
O13	O	-0.442005	-0.933926	0.551640
O14	O	-0.432862	-0.824948	0.432787
O15	O	-0.359188	-1.023740	0.551954
O16	O	-0.552035	-1.023592	0.359091
O17	O	-0.551722	-0.933842	0.441915
C18	C	-0.386921	-0.803118	0.386849
C19	C	-0.383663	-0.725150	0.383596
C20	C	-0.428922	-0.684768	0.428722
C21	C	-0.425852	-0.611509	0.425668
C22	C	-0.377525	-0.578633	0.377484
C23	C	-0.332260	-0.619021	0.332356
C24	C	-0.335328	-0.692278	0.335414
C25	C	-0.363329	-0.359939	0.363338
C26	C	-0.360266	-0.286676	0.360282
C27	C	-0.453858	-0.279169	0.453596
C28	C	-0.456924	-0.352428	0.456647
C29	C	-0.411657	-0.392810	0.411521
N30	N	-0.374386	-0.503751	0.374359
N31	N	-0.414792	-0.467691	0.414650
C32	C	-0.577413	-0.977656	0.401494
C33	C	-0.655634	-0.974421	0.404515
C34	C	-0.692526	-1.019663	0.362850
C35	C	-0.766023	-1.016624	0.365696
C36	C	-0.802628	-0.968340	0.410202
C37	C	-0.765732	-0.923096	0.451871
C38	C	-0.692236	-0.926139	0.449029
C39	C	-1.022422	-0.954229	0.423325
C40	C	-1.095922	-0.951188	0.426162
C41	C	-1.096209	-1.044718	0.339988
C42	C	-1.022711	-1.047753	0.337147
C43	C	-0.985822	-1.002512	0.378818
N44	N	-0.877754	-0.965231	0.413109
N45	N	-0.910697	-1.005625	0.375914
C46	C	-0.211031	-0.993124	0.387485
C47	C	-0.132814	-0.996430	0.384498
C48	C	-0.401601	-0.977743	0.578045
C49	C	-0.404593	-0.974495	0.656263
C50	C	-0.402262	-0.168326	0.402163
C51	C	-0.405526	-0.246294	0.405409
C52	C	-0.387534	-0.993001	0.211659
C53	C	-0.384349	-0.996394	0.133440
C54	C	-0.362883	-1.019728	0.693174
C55	C	-0.365691	-1.016667	0.766668
C56	C	-0.410215	-0.968376	0.803249
C57	C	-0.451927	-0.923138	0.766332
C58	C	-0.449114	-0.926196	0.692840
C59	C	-0.423248	-0.954214	1.023031
C60	C	-0.426060	-0.951161	1.096528
C61	C	-0.339822	-1.044689	1.096859
C62	C	-0.337016	-1.047745	1.023365
C63	C	-0.378726	-1.002505	0.986454
N64	N	-0.413089	-0.965248	0.878372
N65	N	-0.375848	-1.005630	0.911333
H66	H	-0.662727	-1.058978	0.326606
N67	N	-0.472085	-0.570270	0.471772
N68	N	-0.515232	-0.599631	0.514789
H69	H	-0.547885	-0.570507	0.547355
H70	H	-0.457222	-0.917386	0.992988
H71	H	-0.662200	-0.889299	0.482957
N72	N	-0.491712	-0.879993	0.655122
N73	N	-0.463500	-0.838050	0.611289
H74	H	-0.493583	-0.805416	0.584649
N75	N	-0.317392	-1.069055	0.655821
N76	N	-0.252577	-1.066802	0.661359
H77	H	-0.220446	-1.101640	0.634980
N78	N	-1.133882	-1.090929	0.297417
N79	N	-1.123024	-1.089361	0.231969
H80	H	-1.149631	-1.122000	0.201901
H81	H	-0.331728	-1.053502	0.796718
N82	N	-0.317091	-0.401171	0.317236
N83	N	-0.273950	-0.371806	0.274215
H84	H	-0.241293	-0.400928	0.241651
H85	H	-0.488177	-0.883816	0.796123
N86	N	-0.500099	-0.237931	0.499692
N87	N	-0.565187	-0.243578	0.497747
H88	H	-0.597847	-0.214455	0.530306
N89	N	-0.478299	-0.718334	0.477940
N90	N	-0.518705	-0.682267	0.518227
H91	H	-0.553578	-0.705971	0.552989
H92	H	-0.796056	-1.053465	0.331768
H93	H	-0.992909	-1.087070	0.300906
H94	H	-0.496279	-0.379190	0.495882
H95	H	-0.320904	-0.259912	0.321049
N96	N	-0.291528	-1.097059	0.985989
N97	N	-0.289019	-1.099778	0.920371
H98	H	-0.256892	-1.134606	0.893972
N99	N	-0.282893	-0.585431	0.283146
N100	N	-0.280160	-0.520023	0.280420
H101	H	-0.245295	-0.496299	0.245664
H102	H	-1.125725	-0.911877	0.462417
N103	N	-0.289084	-0.733520	0.289320
N104	N	-0.245935	-0.704161	0.246304
H105	H	-0.213270	-0.733286	0.213751
N106	N	-0.984757	-0.908013	0.465894
N107	N	-1.017451	-0.864904	0.505626
H108	H	-0.990848	-0.832261	0.535692
H109	H	-0.795541	-0.883785	0.488112
N110	N	-0.297225	-1.090894	1.134573
N111	N	-0.299741	-1.088161	1.200191
H112	H	-0.269654	-1.120794	1.226828
N113	N	-0.471522	-0.901804	1.133884
N114	N	-0.508743	-0.861400	1.100920
H115	H	-0.540841	-0.826536	1.127301
