data_functionalizedCrystal
_audit_creation_method	'MofGen! by Chris Wilmer'
_symmetry_space_group_name_H-M	'P1'
_symmetry_Int_Tables_number	1
_symmetry_cell_setting	triclinic
loop_
_symmetry_equiv_pos_as_xyz
  x,y,z
_cell_length_a	15.995343
_cell_length_b	15.995350
_cell_length_c	17.766277
_cell_angle_alpha	89.995869
_cell_angle_beta	89.994960
_cell_angle_gamma	83.490779
loop_
_atom_site_label
_atom_site_type_symbol
_atom_site_fract_x
_atom_site_fract_y
_atom_site_fract_z
O1	O	1.110995	0.107897	-0.062515
O2	O	1.610995	0.607897	0.437485
O3	O	0.867219	0.121231	-0.062533
O4	O	1.367219	0.621231	0.437467
O5	O	0.995771	-0.007324	-0.062523
O6	O	1.495771	0.492676	0.437477
O7	O	0.982444	0.236452	-0.062525
O8	O	1.482444	0.736452	0.437475
O9	O	0.995748	-0.007330	0.062666
O10	O	1.495748	0.492670	0.562666
O11	O	0.867197	0.121225	0.062656
O12	O	1.367197	0.621225	0.562656
O13	O	1.110973	0.107890	0.062674
O14	O	1.610973	0.607890	0.562674
Cu15	Cu	0.989083	0.114557	0.074095
Cu16	Cu	1.489083	0.614557	0.574095
Cu17	Cu	0.989109	0.114565	-0.073954
Cu18	Cu	1.489109	0.614565	0.426046
O19	O	0.982421	0.236445	0.062664
O20	O	1.482421	0.736445	0.562664
C21	C	0.836013	0.120678	0.000059
C22	C	1.336013	0.620678	0.500059
C23	C	0.743062	0.119028	0.000053
C24	C	1.243062	0.619028	0.500053
C25	C	0.572876	0.116035	0.000063
C26	C	1.072876	0.616035	0.500063
C27	C	0.549530	0.023238	0.000063
C28	C	1.049530	0.523238	0.500063
C29	C	0.452852	0.021492	0.000352
C30	C	0.952852	0.521492	0.500352
C31	C	0.405316	0.113086	0.000072
C32	C	0.905316	0.613086	0.500072
C33	C	0.434395	0.159742	0.071418
C34	C	0.934395	0.659742	0.571418
C35	C	0.531187	0.160843	0.071473
C36	C	1.031187	0.660843	0.571473
C37	C	0.531123	0.162209	-0.070894
C38	C	1.031123	0.662209	0.429106
C39	C	0.434629	0.158784	-0.071828
C40	C	0.934629	0.658784	0.428172
C41	C	0.310618	0.111425	0.000079
C42	C	0.810618	0.611425	0.500079
C43	C	0.667574	0.117699	0.000060
C44	C	1.167574	0.617699	0.500060
C45	C	0.995209	-0.038522	0.000070
C46	C	1.495209	0.461478	0.500070
C47	C	0.993557	-0.131472	0.000066
C48	C	1.493557	0.368528	0.500066
C49	C	0.987625	-0.469220	0.000068
C50	C	1.487625	0.030780	0.500068
C51	C	0.896072	-0.421783	-0.000219
C52	C	1.396072	0.078217	0.499781
C53	C	0.897725	-0.325093	0.000063
C54	C	1.397725	0.174907	0.500063
C55	C	0.990567	-0.301659	0.000067
C56	C	1.490567	0.198341	0.500067
C57	C	1.035711	-0.342742	0.071557
C58	C	1.535711	0.157258	0.571557
C59	C	1.033411	-0.439377	0.071617
C60	C	1.533411	0.060623	0.571617
C61	C	1.035328	-0.439728	-0.070746
C62	C	1.535328	0.060272	0.429254
C63	C	1.035307	-0.342783	-0.071690
C64	C	1.535307	0.157217	0.428310
C65	C	0.992235	-0.206962	0.000068
C66	C	1.492235	0.293038	0.500068
C67	C	0.985960	-0.563917	0.000071
C68	C	1.485960	-0.063917	0.500071
C69	C	1.142179	0.108444	0.000080
C70	C	1.642179	0.608444	0.500080
C71	C	1.235130	0.110093	0.000082
C72	C	1.735130	0.610093	0.500082
C73	C	0.982983	0.267643	0.000069
C74	C	1.482983	0.767643	0.500069
C75	C	0.984635	0.360594	0.000069
C76	C	1.484635	0.860594	0.500069
N77	N	0.989070	0.114551	0.178226
N78	N	1.489070	0.614551	0.678226
N79	N	0.989129	0.114564	-0.178085
N80	N	1.489129	0.614564	0.321915
C81	C	1.046011	0.057655	0.217617
C82	C	1.546011	0.557655	0.717617
C83	C	1.046016	0.057651	0.296419
C84	C	1.546016	0.557651	0.796419
C85	C	0.989088	0.114557	0.335826
C86	C	1.489088	0.614557	0.835826
C87	C	0.932136	0.171458	0.296426
C88	C	1.432136	0.671458	0.796426
C89	C	0.932127	0.171455	0.217625
C90	C	1.432127	0.671455	0.717625
C91	C	0.978117	0.190814	0.460663
C92	C	1.478117	0.690814	0.960663
C93	C	0.978132	0.190819	0.539462
C94	C	1.478132	0.690819	1.039462
C95	C	0.989110	0.114568	0.578873
C96	C	1.489110	0.614568	1.078873
C97	C	1.000092	0.038309	0.539475
C98	C	1.500092	0.538309	1.039475
C99	C	1.000083	0.038305	0.460675
C100	C	1.500083	0.538305	0.960675
C101	C	0.989090	0.114567	0.421272
C102	C	1.489090	0.614567	0.921272
C103	C	1.046060	0.057662	0.703710
C104	C	1.546060	0.557662	1.203710
C105	C	1.046059	0.057657	0.782513
C106	C	1.546059	0.557657	1.282513
C107	C	0.932182	0.171472	0.782518
C108	C	1.432182	0.671472	1.282518
C109	C	0.932179	0.171470	0.703717
C110	C	1.432179	0.671470	1.203717
C111	C	0.989122	0.114566	0.664317
C112	C	1.489122	0.614566	1.164317
H113	H	0.545137	0.230514	-0.071583
H114	H	1.045137	0.730514	0.428417
H115	H	0.859489	-0.440311	-0.051487
H116	H	1.359489	0.059689	0.448513
H117	H	0.414293	0.127725	0.124716
H118	H	0.914293	0.627725	0.624716
H119	H	1.100627	-0.471627	0.074863
H120	H	1.600627	0.028373	0.574863
H121	H	0.559403	0.132935	-0.124989
H122	H	1.059403	0.632935	0.375011
H123	H	1.004338	-0.314362	0.124755
H124	H	1.504338	0.185638	0.624755
H125	H	1.092386	0.011317	0.328497
H126	H	1.592386	0.511317	0.828497
H127	H	0.557963	0.128904	0.125009
H128	H	1.057963	0.628904	0.625009
H129	H	0.416081	0.124807	-0.124611
H130	H	0.916081	0.624807	0.375389
H131	H	1.009022	-0.023787	0.428600
H132	H	1.509022	0.476213	0.928600
H133	H	0.545760	0.228893	0.074524
H134	H	1.045760	0.728893	0.574524
H135	H	0.434406	-0.014865	0.051796
H136	H	0.934406	0.485135	0.551796
H137	H	0.885782	0.217791	0.328515
H138	H	1.385782	0.717791	0.828515
H139	H	0.885827	0.217803	0.814603
H140	H	1.385827	0.717803	1.314603
H141	H	1.009031	-0.023782	0.571561
H142	H	1.509031	0.476218	1.071561
H143	H	0.402548	0.227153	0.073870
H144	H	0.902548	0.727153	0.573870
H145	H	0.433842	-0.015030	-0.050781
H146	H	0.933842	0.484970	0.449219
H147	H	1.103920	-0.328618	0.074218
H148	H	1.603920	0.171382	0.574218
H149	H	1.000473	-0.457681	0.125055
H150	H	1.500473	0.042319	0.625055
H151	H	0.885757	0.217787	0.185552
H152	H	1.385757	0.717787	0.685552
H153	H	1.005405	-0.460264	-0.124931
H154	H	1.505405	0.039736	0.375069
H155	H	1.092424	0.011325	0.671630
H156	H	1.592424	0.511325	1.171630
H157	H	0.969195	0.252913	0.571534
H158	H	1.469195	0.752913	1.071534
H159	H	1.092424	0.011321	0.814586
H160	H	1.592424	0.511321	1.314586
H161	H	1.103012	-0.327422	-0.076004
H162	H	1.603012	0.172578	0.423996
H163	H	1.002301	-0.315530	-0.124577
H164	H	1.502301	0.184470	0.375423
H165	H	0.862238	-0.296667	-0.051185
H166	H	1.362238	0.203333	0.448815
H167	H	0.401672	0.225616	-0.076357
H168	H	0.901672	0.725616	0.423643
H169	H	1.102829	-0.471491	-0.071223
H170	H	1.602829	0.028509	0.428777
H171	H	1.092376	0.011318	0.185540
H172	H	1.592376	0.511318	0.685540
H173	H	0.859633	-0.441379	0.050757
H174	H	1.359633	0.058621	0.550757
H175	H	0.861981	-0.297230	0.051393
H176	H	1.361981	0.202770	0.551393
H177	H	0.577547	-0.012728	-0.051092
H178	H	1.077547	0.487272	0.448908
H179	H	0.885816	0.217803	0.671642
H180	H	1.385816	0.717803	1.171642
H181	H	0.969162	0.252911	0.428581
H182	H	1.469162	0.752911	0.928581
H183	H	0.578506	-0.012148	0.051151
H184	H	1.078506	0.487852	0.551151
