data_functionalizedCrystal
_audit_creation_method	'MofGen! by Chris Wilmer'
_symmetry_space_group_name_H-M	'P1'
_symmetry_Int_Tables_number	1
_symmetry_cell_setting	triclinic
loop_
_symmetry_equiv_pos_as_xyz
  x,y,z
_cell_length_a	14.971482
_cell_length_b	14.971486
_cell_length_c	13.448316
_cell_angle_alpha	89.998144
_cell_angle_beta	90.004522
_cell_angle_gamma	83.613368
loop_
_atom_site_label
_atom_site_type_symbol
_atom_site_fract_x
_atom_site_fract_y
_atom_site_fract_z
O1	O	1.186948	0.116545	0.082667
O2	O	1.686948	0.616545	0.582667
O3	O	0.926547	0.130508	0.082670
O4	O	1.426547	0.630508	0.582670
O5	O	1.063727	-0.006674	0.082675
O6	O	1.563727	0.493326	0.582675
O7	O	1.049768	0.253727	0.082661
O8	O	1.549768	0.753727	0.582661
O9	O	1.063713	-0.006675	-0.082708
O10	O	1.563713	0.493325	0.417292
O11	O	0.926533	0.130506	-0.082714
O12	O	1.426533	0.630506	0.417286
O13	O	1.186934	0.116544	-0.082717
O14	O	1.686934	0.616544	0.417283
Cu15	Cu	1.056732	0.123525	-0.097816
Cu16	Cu	1.556732	0.623525	0.402184
Cu17	Cu	1.056749	0.123527	0.097769
Cu18	Cu	1.556749	0.623527	0.597769
O19	O	1.049754	0.253725	-0.082723
O20	O	1.549754	0.753725	0.417277
C21	C	0.893215	0.129883	-0.000021
C22	C	1.393215	0.629883	0.499979
C23	C	0.793918	0.128014	-0.000020
C24	C	1.293918	0.628014	0.499980
C25	C	0.747266	0.127133	-0.090171
C26	C	1.247266	0.627133	0.409829
C27	C	0.653968	0.125362	-0.090172
C28	C	1.153968	0.625362	0.409828
C29	C	0.607322	0.124479	-0.000020
C30	C	1.107322	0.624479	0.499980
C31	C	0.653981	0.125357	0.090138
C32	C	1.153981	0.625357	0.590138
C33	C	0.747279	0.127121	0.090138
C34	C	1.247279	0.627121	0.590138
C35	C	0.459519	0.121682	0.090132
C36	C	0.959519	0.621682	0.590132
C37	C	0.366215	0.119919	0.090133
C38	C	0.866215	0.619919	0.590133
C39	C	0.366208	0.119922	-0.090178
C40	C	0.866208	0.619922	0.409822
C41	C	0.459506	0.121687	-0.090178
C42	C	0.959506	0.621687	0.409822
C43	C	0.506158	0.122567	-0.000019
C44	C	1.006158	0.622567	0.499981
C45	C	1.063096	-0.039999	-0.000012
C46	C	1.563096	0.460001	0.499988
C47	C	1.061225	-0.139296	-0.000000
C48	C	1.561225	0.360704	0.500000
C49	C	1.220266	0.117168	-0.000024
C50	C	1.720266	0.617168	0.499976
C51	C	1.319563	0.119038	-0.000019
C52	C	1.819563	0.619038	0.499981
N53	N	1.056728	0.123524	-0.235381
N54	N	1.556728	0.623524	0.264619
C55	C	1.050385	0.287051	-0.000033
C56	C	1.550385	0.787051	0.499967
C57	C	1.052256	0.386348	-0.000038
C58	C	1.552256	0.886348	0.499962
C59	C	0.971667	0.443574	-0.000036
C60	C	1.471667	0.943574	0.499964
C61	C	0.973430	0.536874	-0.000023
C62	C	1.473430	1.036874	0.499977
C63	C	1.055783	0.572945	-0.000019
C64	C	1.555783	1.072945	0.499981
C65	C	1.136379	0.515711	-0.000018
C66	C	1.636379	1.015711	0.499982
C67	C	1.134615	0.422413	-0.000024
C68	C	1.634615	0.922413	0.499976
C69	C	1.140050	0.710174	-0.000007
C70	C	1.640050	1.210174	0.499993
C71	C	1.141814	0.803478	-0.000003
C72	C	1.641814	1.303478	0.499997
C73	C	0.978865	0.824634	-0.000006
C74	C	1.478865	1.324634	0.499994
C75	C	0.977101	0.731336	-0.000012
C76	C	1.477101	1.231336	0.499988
C77	C	1.057697	0.674109	-0.000013
C78	C	1.557697	1.174109	0.499987
C79	C	1.111030	0.177864	-0.287421
C80	C	1.611030	0.677864	0.212579
C81	C	1.111041	0.177860	-0.391524
C82	C	1.611041	0.677860	0.108476
C83	C	1.056744	0.123520	-0.443585
C84	C	1.556744	0.623520	0.056415
C85	C	1.002440	0.069173	-0.391538
C86	C	1.502440	0.569173	0.108462
C87	C	1.002434	0.069173	-0.287437
C88	C	1.502434	0.569173	0.212563
C89	C	1.002454	0.069179	-0.608518
C90	C	1.502454	0.569179	-0.108518
C91	C	1.002458	0.069181	-0.712627
C92	C	1.502458	0.569181	-0.212627
C93	C	1.111061	0.177866	-0.712605
C94	C	1.611061	0.677866	-0.212605
C95	C	1.111055	0.177866	-0.608504
C96	C	1.611055	0.677866	-0.108504
C97	C	1.056749	0.123521	-0.556464
C98	C	1.556749	0.623521	-0.056464
N99	N	1.056761	0.123521	0.235333
N100	N	1.556761	0.623521	0.735333
H101	H	0.785237	0.127859	-0.163584
H102	H	1.285237	0.627859	0.336416
H103	H	0.785261	0.127841	0.163549
H104	H	1.285261	0.627841	0.663549
H105	H	0.615996	0.124632	0.163541
H106	H	1.115996	0.624632	0.663541
C107	C	0.602652	0.124413	-0.189346
C108	C	1.102652	0.624413	0.310654
N109	N	0.564001	0.123706	-0.264049
N110	N	1.064001	0.623706	0.235951
H111	H	1.203432	0.545088	-0.000016
H112	H	1.703432	1.045088	0.499984
H113	H	0.958235	0.024924	-0.433935
H114	H	1.458235	0.524924	0.066065
C115	C	0.881070	0.403905	-0.000041
C116	C	1.381070	0.903905	0.499959
N117	N	0.812830	0.374030	-0.000040
N118	N	1.312830	0.874030	0.499960
C119	C	0.890208	0.887586	0.000000
C120	C	1.390208	1.387586	0.500000
N121	N	0.823435	0.935005	0.000001
N122	N	1.323435	1.435005	0.500001
C123	C	0.942695	0.009397	-0.230193
C124	C	1.442695	0.509397	0.269807
N125	N	0.897699	-0.035631	-0.187079
N126	N	1.397699	0.464369	0.312921
H127	H	0.497481	0.122411	-0.163588
H128	H	0.997481	0.622411	0.336412
C129	C	0.884775	0.599819	-0.000010
C130	C	1.384775	1.099819	0.499990
N131	N	0.817996	0.647230	0.000004
N132	N	1.317996	1.147230	0.500004
H133	H	0.328219	0.119206	-0.163589
H134	H	0.828219	0.619206	0.336411
H135	H	1.200239	0.375820	-0.000021
H136	H	1.700239	0.875820	0.499979
C137	C	1.232407	0.843154	0.000016
C138	C	1.732407	1.343154	0.500016
N139	N	1.300643	0.873037	0.000035
N140	N	1.800643	1.373037	0.500035
H141	H	1.155239	0.222120	-0.245040
H142	H	1.655239	0.722120	0.254960
H143	H	0.910042	0.701970	-0.000020
H144	H	1.410042	1.201970	0.499980
H145	H	0.497501	0.122399	0.163549
H146	H	0.997501	0.622399	0.663549
H147	H	1.155261	0.222108	-0.433890
H148	H	1.655261	0.722108	0.066110
H149	H	1.155264	0.222119	-0.566118
H150	H	1.655264	0.722119	-0.066118
H151	H	0.328239	0.119201	0.163542
H152	H	0.828239	0.619201	0.663542
C153	C	1.170803	0.237643	-0.769851
C154	C	1.670803	0.737643	-0.269851
N155	N	1.215797	0.282666	-0.812974
N156	N	1.715797	0.782666	-0.312974
H157	H	0.958244	0.024933	-0.755012
H158	H	1.458244	0.524933	-0.255012
C159	C	0.942712	0.009398	-0.551277
C160	C	1.442712	0.509398	-0.051277
N161	N	0.897711	-0.035624	-0.508162
N162	N	1.397711	0.464376	-0.008162
C163	C	1.228710	0.647225	-0.000010
C164	C	1.728710	1.147225	0.499990
N165	N	1.295488	0.599812	-0.000018
N166	N	1.795488	1.099812	0.499982
