data_functionalizedCrystal
_audit_creation_method	'MofGen! by Chris Wilmer'
_symmetry_space_group_name_H-M	'P1'
_symmetry_Int_Tables_number	1
_symmetry_cell_setting	triclinic
loop_
_symmetry_equiv_pos_as_xyz
  x,y,z
_cell_length_a	10.723024
_cell_length_b	11.792241
_cell_length_c	9.198806
_cell_angle_alpha	89.996670
_cell_angle_beta	89.996352
_cell_angle_gamma	84.330643
loop_
_atom_site_label
_atom_site_type_symbol
_atom_site_fract_x
_atom_site_fract_y
_atom_site_fract_z
O1	O	1.656767	0.159192	-0.120884
O2	O	2.156767	0.659192	0.379116
O3	O	1.293574	0.174430	-0.120889
O4	O	1.793574	0.674430	0.379111
O5	O	1.483984	0.001660	-0.120876
O6	O	1.983984	0.501660	0.379124
O7	O	1.466357	0.331962	-0.120897
O8	O	1.966357	0.831962	0.379103
O9	O	1.483969	0.001659	0.120909
O10	O	1.983969	0.501659	0.620909
O11	O	1.293559	0.174430	0.120896
O12	O	1.793559	0.674430	0.620896
O13	O	1.656751	0.159192	0.120901
O14	O	2.156751	0.659192	0.620901
Cu15	Cu	1.475154	0.166811	0.142976
Cu16	Cu	1.975154	0.666811	0.642976
Cu17	Cu	1.475172	0.166811	-0.142963
Cu18	Cu	1.975172	0.666811	0.357037
O19	O	1.466341	0.331962	0.120889
O20	O	1.966341	0.831962	0.620889
C21	C	1.247070	0.173321	0.000003
C22	C	1.747070	0.673321	0.500003
C23	C	1.108524	0.170003	0.000002
C24	C	1.608524	0.670003	0.500002
C25	C	1.482869	-0.040634	0.000016
C26	C	1.982869	0.459366	0.500016
C27	C	1.479555	-0.166655	0.000015
C28	C	1.979555	0.333345	0.500015
C29	C	1.033286	0.266676	-0.000005
C30	C	1.533286	0.766676	0.499995
C31	C	0.890091	0.263249	-0.000007
C32	C	1.390091	0.763249	0.499993
C33	C	1.473461	-0.397380	-0.000010
C34	C	1.973461	0.102620	0.499990
C35	C	1.476847	-0.268988	0.000004
C36	C	1.976847	0.231012	0.500004
C37	C	1.703256	0.160301	0.000006
C38	C	2.203256	0.660301	0.500006
C39	C	1.841801	0.163619	-0.000002
C40	C	2.341801	0.663619	0.499998
C41	C	1.467456	0.374255	-0.000007
C42	C	1.967456	0.874255	0.499993
C43	C	1.470770	0.500276	-0.000015
C44	C	1.970770	1.000276	0.499985
N45	N	1.475150	0.166810	0.344090
N46	N	1.975150	0.666810	0.844090
N47	N	1.475185	0.166803	-0.344077
N48	N	1.975185	0.666803	0.155923
C49	C	1.555099	0.093948	0.416292
C50	C	2.055099	0.593948	0.916292
C51	C	1.555118	0.093944	0.583704
C52	C	2.055118	0.593944	1.083704
H53	H	1.074882	0.351978	-0.000002
H54	H	1.574882	0.851978	0.499998
H55	H	1.406739	0.229190	0.593841
H56	H	1.906739	0.729190	1.093841
O57	O	0.813024	0.362018	-0.000273
O58	O	1.313024	0.862018	0.499727
C59	C	0.836152	0.425662	-0.125480
C60	C	1.336152	0.925662	0.374520
H61	H	0.880316	0.366130	-0.212998
H62	H	1.380316	0.866130	0.287002
H63	H	0.744066	0.470362	-0.167519
H64	H	1.244066	0.970362	0.332481
H65	H	0.902772	0.491957	-0.097169
H66	H	1.402772	0.991957	0.402831
H67	H	1.406713	0.229182	0.406213
H68	H	1.906713	0.729182	0.906213
O69	O	0.919040	0.064952	-0.000190
O70	O	1.419040	0.564952	0.499810
C71	C	0.995167	0.060649	-0.125432
C72	C	1.495167	0.560649	0.374568
H73	H	1.002236	0.150811	-0.167186
H74	H	1.502236	0.650811	0.332814
H75	H	1.092751	0.019235	-0.097267
H76	H	1.592751	0.519235	0.402733
H77	H	0.952075	0.008421	-0.213113
H78	H	1.452075	0.508421	0.286887
O79	O	1.058972	0.068204	0.000262
O80	O	1.558972	0.568204	0.500262
C81	C	1.099339	0.006077	0.125468
C82	C	1.599339	0.506077	0.625468
H83	H	1.126918	0.067323	0.212991
H84	H	1.626918	0.567323	0.712991
H85	H	1.020077	-0.042724	0.167501
H86	H	1.520077	0.457276	0.667501
H87	H	1.183661	-0.056607	0.097158
H88	H	1.683661	0.443393	0.597158
O89	O	1.636596	0.019526	0.342000
O90	O	2.136596	0.519526	0.842000
C91	C	1.569027	-0.050821	0.253959
C92	C	2.069027	0.449179	0.753959
H93	H	1.471751	-0.006216	0.231357
H94	H	1.971751	0.493784	0.731357
H95	H	1.620852	-0.068319	0.146842
H96	H	2.120852	0.431681	0.646842
H97	H	1.559841	-0.134812	0.312483
H98	H	2.059841	0.365188	0.812483
H99	H	1.623570	0.031569	0.645795
H100	H	2.123570	0.531569	1.145795
