data_functionalizedCrystal
_audit_creation_method	'MofGen! by Chris Wilmer'
_symmetry_space_group_name_H-M	'P1'
_symmetry_Int_Tables_number	1
_symmetry_cell_setting	triclinic
loop_
_symmetry_equiv_pos_as_xyz
  x,y,z
_cell_length_a	31.640172
_cell_length_b	31.640172
_cell_length_c	20.016444
_cell_angle_alpha	90.005684
_cell_angle_beta	59.997665
_cell_angle_gamma	60.004780
loop_
_atom_site_label
_atom_site_type_symbol
_atom_site_fract_x
_atom_site_fract_y
_atom_site_fract_z
Zr1	Zr	0.462537	0.407243	-0.087581
O2	O	0.550716	0.339761	-0.194271
O3	O	0.374367	0.427921	-0.054876
O4	O	0.462538	0.427928	-0.194254
O5	O	0.462542	0.339758	0.055052
O6	O	0.462529	0.497485	-0.194239
O7	O	0.462545	0.339754	-0.054893
O8	O	0.304808	0.497472	0.055083
O9	O	0.620263	0.339771	-0.194270
O10	O	0.410623	0.488660	-0.040915
O11	O	0.410627	0.436753	0.041125
O12	O	0.514437	0.436761	-0.122975
O13	O	0.514441	0.384855	-0.040935
Zr14	Zr	0.462518	0.518184	0.087792
Zr15	Zr	0.462524	0.518178	-0.087558
Zr16	Zr	0.462532	0.407248	0.087769
Zr17	Zr	0.573458	0.407258	-0.087579
Zr18	Zr	0.351598	0.518169	0.087790
O19	O	0.550689	0.497506	0.055087
O20	O	0.550696	0.497497	-0.194238
O21	O	0.550708	0.339770	0.055054
O22	O	0.374340	0.585665	0.194482
O23	O	0.374347	0.585657	-0.054843
O24	O	0.374360	0.427929	0.194449
O25	O	0.462514	0.585669	-0.054841
O26	O	0.462518	0.497498	0.194465
O27	O	0.462526	0.427941	0.194451
O28	O	0.462511	0.585672	0.055104
O29	O	0.620252	0.427950	-0.194251
O30	O	0.304803	0.497477	0.194462
O31	O	0.304792	0.585655	0.194481
O32	O	0.304796	0.585651	0.055101
O33	O	0.620259	0.339776	-0.054890
O34	O	0.620248	0.427954	-0.054871
O35	O	0.410618	0.488665	0.123186
O36	O	0.410614	0.540572	0.041147
O37	O	0.514428	0.488674	-0.040913
O38	O	0.514432	0.436767	0.041127
C39	C	0.323784	0.462694	0.000103
C40	C	0.276695	0.462688	0.000102
C41	C	-0.015349	0.489818	-0.042711
C42	C	-0.192345	0.489829	-0.042710
O43	O	-0.215251	0.512891	-0.079101
N44	N	-0.214472	0.462734	0.000112
C45	C	-0.192350	0.435636	0.042942
O46	O	-0.215236	0.412595	0.079372
C47	C	-0.015358	0.435629	0.042946
C48	C	0.006771	0.462722	0.000114
C49	C	0.006779	0.516910	-0.085538
C50	C	0.051028	0.516904	-0.085542
C51	C	0.073148	0.489808	-0.042717
C52	C	0.051020	0.462717	0.000110
C53	C	0.006760	0.408535	0.085779
C54	C	0.051010	0.408537	0.085778
C55	C	0.073139	0.435630	0.042946
C56	C	0.117388	0.435615	0.042931
N57	N	0.139515	0.462711	0.000109
C58	C	0.117395	0.489807	-0.042715
C59	C	-0.285272	0.435641	0.042935
C60	C	-0.329519	0.435642	0.042933
C61	C	-0.329512	0.489836	-0.042718
C62	C	-0.285261	0.489832	-0.042720
C63	C	-0.263145	0.462737	0.000113
C64	C	0.210321	0.489794	-0.042720
C65	C	0.254575	0.489784	-0.042722
C66	C	0.254562	0.435593	0.042932
C67	C	0.210313	0.435600	0.042931
C68	C	0.188193	0.462704	0.000104
O69	O	0.140317	0.412570	0.079311
O70	O	0.140279	0.512855	-0.079125
C71	C	-0.059598	0.489824	-0.042707
C72	C	-0.081726	0.462732	0.000120
C73	C	-0.059606	0.435636	0.042945
C74	C	-0.125973	0.462733	0.000118
C75	C	-0.148093	0.489830	-0.042706
C76	C	-0.125966	0.516925	-0.085528
C77	C	-0.081718	0.516920	-0.085532
C78	C	-0.081733	0.408540	0.085767
C79	C	-0.125981	0.408547	0.085766
C80	C	-0.148101	0.435644	0.042942
C81	C	0.462545	0.323950	0.000076
C82	C	0.462551	0.276855	0.000067
C83	C	0.408332	0.011939	0.042957
C84	C	0.408322	-0.165046	0.042973
O85	O	0.362235	-0.164892	0.079432
N86	N	0.462511	-0.214266	0.000137
C87	C	0.516707	-0.219239	-0.042701
O88	O	0.562799	-0.265165	-0.079128
C89	C	0.516717	-0.042254	-0.042712
C90	C	0.462524	0.006965	0.000120
C91	C	0.354144	0.061156	0.085785
C92	C	0.354147	0.105400	0.085777
C93	C	0.408339	0.100426	0.042940
C94	C	0.462527	0.051209	0.000112
C95	C	0.570912	-0.047228	-0.085545
C96	C	0.570910	-0.002976	-0.085542
C97	C	0.516717	0.046243	-0.042710
C98	C	0.516722	0.090478	-0.042733
N99	N	0.462533	0.139698	0.000102
C100	C	0.408341	0.144672	0.042939
C101	C	0.516698	-0.312156	-0.042693
C102	C	0.516696	-0.356402	-0.042692
C103	C	0.408311	-0.302206	0.042983
C104	C	0.408313	-0.257960	0.042976
C105	C	0.462509	-0.262936	0.000142
C106	C	0.408352	0.237584	0.042918
C107	C	0.408360	0.281829	0.042903
C108	C	0.516745	0.227629	-0.042768
C109	C	0.516737	0.183388	-0.042757
C110	C	0.462536	0.188369	0.000092
O111	O	0.562785	0.090364	-0.079166
O112	O	0.362257	0.190602	0.079375
C113	C	0.408329	-0.032304	0.042965
C114	C	0.462518	-0.081522	0.000136
C115	C	0.516710	-0.086495	-0.042701
C116	C	0.462516	-0.125768	0.000137
C117	C	0.408324	-0.120794	0.042974
C118	C	0.354134	-0.071574	0.085810
C119	C	0.354138	-0.027330	0.085802
C120	C	0.570899	-0.135715	-0.085536
C121	C	0.570891	-0.179957	-0.085526
C122	C	0.516700	-0.174983	-0.042689
C123	C	0.601272	0.462732	0.000108
C124	C	0.648361	0.462739	0.000109
C125	C	0.462534	0.462706	-0.219230
C126	C	0.462537	0.462703	-0.293671
C127	C	0.462510	0.601477	0.000135
C128	C	0.462504	0.648572	0.000145
C129	C	0.516720	0.435622	-0.507761
C130	C	0.516717	0.435626	-0.577703
C131	C	0.408332	0.489808	-0.492019
C132	C	0.408335	0.489806	-0.422080
C133	C	0.462531	0.462710	-0.429954
C134	C	0.462525	0.462716	-0.569835
C135	C	0.462522	0.462721	-0.645668
C136	C	0.462534	0.462706	-0.354116
C137	C	0.462521	0.462721	0.219442
C138	C	0.462519	0.462723	0.293882
C139	C	0.323766	0.601457	0.000132
C140	C	0.276672	0.648546	0.000142
C141	C	0.323777	0.462701	0.219439
C142	C	0.276686	0.462698	0.293879
C143	C	0.323759	0.601465	0.219468
C144	C	0.276663	0.648556	0.293918
C145	C	0.601296	0.323962	-0.219257
C146	C	0.648393	0.276871	-0.293707
C147	C	0.601290	0.323969	0.000079
C148	C	0.648384	0.276880	0.000070
C149	C	0.601279	0.462725	-0.219228
C150	C	0.648370	0.462729	-0.293667
C151	C	0.254560	0.643562	-0.042697
C152	C	0.210316	0.687802	-0.042705
C153	C	0.188181	0.737026	0.000131
C154	C	0.210297	0.742010	0.042971
C155	C	0.254543	0.697770	0.042973
C156	C	0.254567	0.489793	0.371679
C157	C	0.210327	0.489788	0.441630
C158	C	0.188203	0.462689	0.433778
C159	C	0.210326	0.435590	0.355970
C160	C	0.254569	0.435593	0.286021
C161	C	0.254544	0.697770	0.286056
C162	C	0.210297	0.742021	0.356003
C163	C	0.188168	0.737057	0.433810
C164	C	0.210292	0.687838	0.441670
C165	C	0.254540	0.643588	0.371725
C166	C	0.670518	0.227657	-0.285845
C167	C	0.714778	0.183405	-0.355792
C168	C	0.736909	0.188369	-0.433599
C169	C	0.714783	0.237588	-0.441459
C170	C	0.670526	0.281838	-0.371513
C171	C	0.670500	0.281865	0.042901
C172	C	0.714756	0.237624	0.042890
C173	C	0.736893	0.188400	0.000051
C174	C	0.714775	0.183417	-0.042785
C175	C	0.670523	0.227657	-0.042778
C176	C	0.670479	0.489833	-0.285790
C177	C	0.714720	0.489847	-0.355727
C178	C	0.736854	0.462753	-0.433541
C179	C	0.714739	0.435648	-0.441417
C180	C	0.670496	0.435638	-0.371481
H181	H	0.192314	0.511865	-0.077593
O182	O	0.736330	0.409336	-0.517070
C183	C	0.780113	0.415170	-0.577099
H184	H	0.799445	0.425160	-0.549819
H185	H	0.817352	0.377459	-0.631044
H186	H	0.758945	0.447606	-0.598975
O187	O	0.779859	0.145481	0.000166
C188	C	0.794637	0.160442	0.047145
H189	H	0.755821	0.201285	0.092435
H190	H	0.803830	0.132495	0.082013
H191	H	0.836208	0.159645	0.004978
O192	O	0.648933	0.329674	-0.379044
C193	C	0.586936	0.356884	-0.341172
H194	H	0.568164	0.339991	-0.293508
H195	H	0.564008	0.399467	-0.310112
H196	H	0.578504	0.353199	-0.389271
H197	H	0.560826	-0.396476	-0.077580
O198	O	0.736326	0.135560	-0.084320
C199	C	0.780133	0.097587	-0.075147
H200	H	0.772859	0.114845	-0.017300
H201	H	0.776550	0.063462	-0.070234
H202	H	0.826414	0.083749	-0.130489
H203	H	0.732757	0.241692	0.077775
O204	O	0.569348	0.409239	-0.515366
C205	C	0.572595	0.371214	-0.477470
H206	H	0.541847	0.361138	-0.474243
H207	H	0.620528	0.335034	-0.514573
H208	H	0.558038	0.386722	-0.412953
O209	O	0.569341	0.409394	-0.653302
C210	C	0.572572	0.444181	-0.696316
H211	H	0.541816	0.485002	-0.650920
H212	H	0.620500	0.432443	-0.734994
H213	H	0.558014	0.443230	-0.737818
O214	O	0.648939	0.409375	-0.379084
C215	C	0.586932	0.444129	-0.341167
H216	H	0.574791	0.484958	-0.337929
H217	H	0.574228	0.432359	-0.378259
H218	H	0.561638	0.443171	-0.276652
O219	O	0.275985	0.516151	-0.084341
C220	C	0.246977	0.540058	-0.122151
H221	H	0.202127	0.545424	-0.088552
H222	H	0.239355	0.579416	-0.119839
H223	H	0.275993	0.514667	-0.188634
O224	O	0.623542	-0.095043	-0.127253
C225	C	0.626798	-0.122281	-0.187361
H226	H	0.596050	-0.093583	-0.203287
H227	H	0.674732	-0.146743	-0.244557
H228	H	0.612248	-0.148540	-0.162846
O229	O	0.276106	0.595710	-0.084243
C230	C	0.319914	0.557723	-0.075083
H231	H	0.312642	0.574965	-0.017227
H232	H	0.316328	0.523599	-0.070193
H233	H	0.366195	0.543889	-0.130419
O234	O	0.301510	0.020490	0.127284
C235	C	0.298267	0.047709	0.072308
H236	H	0.329021	0.018999	0.007774
H237	H	0.250337	0.072170	0.090881
H238	H	0.312821	0.073969	0.073814
H239	H	0.152152	0.773045	0.000123
O240	O	0.301487	0.153197	0.127523
C241	C	0.268518	0.158860	0.211125
H242	H	0.300231	0.130847	0.226277
H243	H	0.243930	0.200250	0.249880
H244	H	0.234734	0.150062	0.224822
O245	O	0.188888	0.682982	-0.084418
C246	C	0.199688	0.706955	-0.144528
H247	H	0.238466	0.709004	-0.160453
H248	H	0.211412	0.683480	-0.201723
H249	H	0.157921	0.747765	-0.120015
H250	H	0.364185	-0.298163	0.077858
H251	H	0.272572	0.413530	0.222675
H252	H	0.272555	0.701821	0.222708
H253	H	0.192268	0.782094	0.077846
O254	O	0.779839	0.145419	-0.501600
C255	C	0.758216	0.145480	-0.548453
H256	H	0.720584	0.186797	-0.533166
H257	H	0.796011	0.129188	-0.616305
H258	H	0.740569	0.120505	-0.533776
H259	H	0.364208	0.511867	-0.485618
O260	O	0.736155	0.242439	-0.517022
C261	C	0.688910	0.269686	-0.525938
H262	H	0.644665	0.294146	-0.462958
H263	H	0.695578	0.295948	-0.562822
H264	H	0.688285	0.241000	-0.559245
O265	O	0.355710	0.516182	-0.346471
C266	C	0.352467	0.554202	-0.303428
H267	H	0.383206	0.564286	-0.348805
H268	H	0.304533	0.590379	-0.264729
H269	H	0.367039	0.538686	-0.261945
H270	H	0.192289	0.782093	0.349589
H271	H	0.272541	0.701836	0.077862
H272	H	-0.347526	0.413574	0.077801
O273	O	0.569401	-0.317088	-0.084383
C274	C	0.617223	-0.370020	-0.122171
H275	H	0.601325	-0.393612	-0.130638
H276	H	0.655127	-0.376196	-0.184395
H277	H	0.633886	-0.383056	-0.082036
H278	H	0.272544	0.603517	0.378137
H279	H	0.192268	0.683804	0.505031
H280	H	0.272575	0.511861	0.378088
H281	H	0.652501	0.223605	-0.222496
O282	O	0.072432	0.543273	-0.127155
C283	C	0.043422	0.567177	-0.164962
H284	H	-0.001426	0.572537	-0.131363
H285	H	0.035792	0.606538	-0.162646
H286	H	0.072439	0.541787	-0.231446
O287	O	0.623577	-0.227740	-0.127256
C288	C	0.656545	-0.233426	-0.210869
H289	H	0.641135	-0.193599	-0.217883
H290	H	0.706119	-0.256693	-0.237106
H291	H	0.649041	-0.254584	-0.245230
H292	H	0.732785	0.143333	-0.349376
H293	H	-0.267270	0.413577	0.077818
O294	O	0.188884	0.516162	0.517145
C295	C	0.217907	0.540074	0.509066
H296	H	0.236134	0.545434	0.446648
H297	H	0.184712	0.579435	0.559231
H298	H	0.256340	0.514690	0.514787
H299	H	0.152138	0.773093	0.490758
H300	H	0.652480	0.321942	0.077791
H301	H	0.652517	0.223591	-0.077654
O302	O	0.145204	0.462763	0.501815
C303	C	0.130440	0.492482	0.572164
H304	H	0.142633	0.521131	0.556101
H305	H	0.080429	0.514539	0.621571
H306	H	0.156316	0.465808	0.595707
O307	O	0.649085	0.516118	-0.210250
C308	C	0.696298	0.496199	-0.201279
H309	H	0.740564	0.476360	-0.264244
H310	H	0.689616	0.529180	-0.164485
H311	H	0.696893	0.466950	-0.167854
H312	H	-0.011228	0.538977	-0.120410
O313	O	-0.060144	0.382177	0.127245
C314	C	0.001853	0.344136	0.072244
H315	H	0.020624	0.355527	0.015878
H316	H	0.024783	0.340844	0.103314
H317	H	0.010286	0.305277	0.053067
O318	O	-0.263855	0.516198	-0.084333
C319	C	-0.292860	0.540100	-0.122148
H320	H	-0.337708	0.545461	-0.088553
H321	H	-0.300488	0.579460	-0.119834
H322	H	-0.263839	0.514708	-0.188631
O323	O	-0.351091	0.516153	-0.084241
C324	C	-0.394879	0.510331	-0.075068
H325	H	-0.414221	0.500344	-0.017229
H326	H	-0.432110	0.548045	-0.070138
H327	H	-0.373714	0.477897	-0.130417
O328	O	-0.014655	0.382181	0.127416
C329	C	0.014389	0.358246	0.165171
H330	H	0.032590	0.379517	0.173699
H331	H	-0.018782	0.359662	0.227364
H332	H	0.052844	0.316203	0.124980
O333	O	0.072597	0.382177	0.127266
C334	C	0.134595	0.344136	0.072271
H335	H	0.153367	0.355522	0.015898
H336	H	0.157522	0.340852	0.103341
H337	H	0.143029	0.305275	0.053104
H338	H	0.192302	0.413532	0.077798
O339	O	0.569438	0.222711	-0.084446
C340	C	0.617272	0.169783	-0.122232
H341	H	0.601393	0.146178	-0.130720
H342	H	0.655178	0.163616	-0.184446
H343	H	0.633926	0.156754	-0.082085
H344	H	0.772879	0.462766	-0.490481
O345	O	0.276099	0.409319	0.084519
C346	C	0.319908	0.415120	0.075314
H347	H	0.312645	0.451712	0.059539
H348	H	0.316314	0.418230	0.134929
H349	H	0.366189	0.380110	0.024032
H350	H	0.192306	0.413526	0.349589
O351	O	0.736248	0.516165	-0.348211
C352	C	0.780054	0.510361	-0.426619
H353	H	0.772793	0.500388	-0.472991
H354	H	0.776452	0.548078	-0.425818
H355	H	0.826336	0.477924	-0.444449
O356	O	-0.060312	0.543287	-0.127147
C357	C	-0.089322	0.567190	-0.164955
H358	H	-0.134170	0.572552	-0.131355
H359	H	-0.096949	0.606550	-0.162644
H360	H	-0.060305	0.541799	-0.231438
H361	H	-0.143991	0.386480	0.120642
O362	O	-0.147553	0.543316	-0.126996
C363	C	-0.209556	0.581332	-0.071996
H364	H	-0.221662	0.591399	-0.007470
H365	H	-0.222284	0.617519	-0.090548
H366	H	-0.234861	0.565821	-0.073496
O367	O	0.355660	0.329603	0.084587
C368	C	0.307831	0.324500	0.122381
H369	H	0.323719	0.285018	0.130862
H370	H	0.269929	0.356238	0.184600
H371	H	0.291169	0.328119	0.082245
O372	O	0.355739	0.242361	0.084419
C373	C	0.352486	0.218396	0.029436
H374	H	0.399537	0.188233	-0.026937
H375	H	0.329539	0.198759	0.060517
H376	H	0.325753	0.248815	0.010267
H377	H	0.615044	-0.007034	-0.120413
O378	O	0.301512	0.065969	0.127506
C379	C	0.298259	0.041995	0.187614
H380	H	0.329013	0.039949	0.203531
H381	H	0.250328	0.065468	0.244814
H382	H	0.312806	0.001185	0.163103
H383	H	0.364185	-0.217886	0.077861
H384	H	0.310009	-0.067531	0.120684
O385	O	0.569343	0.135548	-0.084253
C386	C	0.572597	0.108344	-0.029264
H387	H	0.525547	0.125238	0.027116
H388	H	0.595537	0.065759	-0.060335
H389	H	0.599337	0.112035	-0.010109
O390	O	0.623583	-0.140619	-0.127095
C391	C	0.656543	-0.167901	-0.095594
H392	H	0.641123	-0.192312	-0.064212
H393	H	0.706117	-0.194211	-0.147728
H394	H	0.649041	-0.139240	-0.049371
