data_functionalizedCrystal
_audit_creation_method	'MofGen! by Chris Wilmer'
_symmetry_space_group_name_H-M	'P1'
_symmetry_Int_Tables_number	1
_symmetry_cell_setting	triclinic
loop_
_symmetry_equiv_pos_as_xyz
  x,y,z
_cell_length_a	14.971486
_cell_length_b	12.996460
_cell_length_c	14.971494
_cell_angle_alpha	89.998571
_cell_angle_beta	83.615843
_cell_angle_gamma	90.001258
loop_
_atom_site_label
_atom_site_type_symbol
_atom_site_fract_x
_atom_site_fract_y
_atom_site_fract_z
O1	O	1.186951	0.085444	0.116556
O2	O	1.520284	0.418778	0.449889
O3	O	1.853618	0.752111	0.783223
O4	O	0.926551	0.085472	0.130515
O5	O	1.259885	0.418805	0.463848
O6	O	1.593218	0.752139	0.797182
O7	O	1.063727	0.085455	-0.006664
O8	O	1.397060	0.418789	0.326669
O9	O	1.730393	0.752122	0.660003
O10	O	1.049776	0.085461	0.253735
O11	O	1.383109	0.418795	0.587068
O12	O	1.716442	0.752128	0.920402
O13	O	1.063709	-0.085679	-0.006656
O14	O	1.397042	0.247655	0.326677
O15	O	1.730376	0.580988	0.660011
O16	O	0.926534	-0.085662	0.130523
O17	O	1.259867	0.247672	0.463856
O18	O	1.593200	0.581005	0.797189
O19	O	1.186933	-0.085689	0.116564
O20	O	1.520267	0.247644	0.449897
O21	O	1.853600	0.580977	0.783231
Cu22	Cu	1.056732	-0.101301	0.123544
Cu23	Cu	1.390065	0.232032	0.456878
Cu24	Cu	1.723399	0.565365	0.790211
Cu25	Cu	1.056753	0.101084	0.123535
Cu26	Cu	1.390086	0.434417	0.456868
Cu27	Cu	1.723420	0.767751	0.790201
O28	O	1.049758	-0.085672	0.253743
O29	O	1.383091	0.247661	0.587076
O30	O	1.716425	0.580994	0.920410
C31	C	0.893218	-0.000091	0.129895
C32	C	1.226551	0.333242	0.463228
C33	C	1.559884	0.666575	0.796561
C34	C	0.793921	-0.000081	0.128024
C35	C	1.127254	0.333253	0.461357
C36	C	1.460587	0.666586	0.794691
N37	N	1.056724	-0.243648	0.123550
N38	N	1.390057	0.089685	0.456884
N39	N	1.723390	0.423018	0.790217
C40	C	0.736698	-0.000080	0.208613
C41	C	1.070031	0.333253	0.541946
C42	C	1.403364	0.666586	0.875279
C43	C	0.643398	-0.000096	0.206850
C44	C	0.976732	0.333238	0.540183
C45	C	1.310065	0.666571	0.873516
C46	C	0.607323	-0.000104	0.124497
C47	C	0.940657	0.333229	0.457830
C48	C	1.273990	0.666563	0.791163
C49	C	0.664554	-0.000108	0.043902
C50	C	0.997887	0.333226	0.377235
C51	C	1.331220	0.666559	0.710568
C52	C	0.757851	-0.000100	0.045666
C53	C	1.091185	0.333234	0.378999
C54	C	1.424518	0.666567	0.712332
C55	C	0.470091	-0.000122	0.040231
C56	C	0.803424	0.333211	0.373564
C57	C	1.136758	0.666545	0.706897
C58	C	0.376787	-0.000128	0.038466
C59	C	0.710120	0.333205	0.371799
C60	C	1.043454	0.666539	0.705133
C61	C	0.355638	-0.000118	0.201415
C62	C	0.688971	0.333215	0.534748
C63	C	1.022305	0.666549	0.868081
C64	C	0.448936	-0.000110	0.203179
C65	C	0.782269	0.333223	0.536512
C66	C	1.115602	0.666557	0.869845
C67	C	0.506160	-0.000111	0.122583
C68	C	0.839493	0.333222	0.455916
C69	C	1.172826	0.666555	0.789250
C70	C	1.056728	-0.336754	0.123552
C71	C	1.390061	-0.003421	0.456886
C72	C	1.723395	0.329912	0.790219
C73	C	1.056736	-0.453560	0.123547
C74	C	1.390069	-0.120226	0.456880
C75	C	1.723403	0.213107	0.790213
C76	C	1.056747	-0.546658	0.123537
C77	C	1.390081	-0.213325	0.456870
C78	C	1.723414	0.120009	0.790203
C79	C	1.056757	-0.663470	0.123532
C80	C	1.390090	-0.330137	0.456865
C81	C	1.723424	0.003196	0.790198
C82	C	1.220267	-0.000124	0.117184
C83	C	1.553600	0.333210	0.450518
C84	C	1.886934	0.666543	0.783851
C85	C	1.319564	-0.000128	0.119055
C86	C	1.652897	0.333206	0.452388
C87	C	1.986231	0.666539	0.785722
C88	C	1.063093	-0.000110	-0.039985
C89	C	1.396426	0.333223	0.293349
C90	C	1.729759	0.666557	0.626682
C91	C	1.061219	-0.000105	-0.139281
C92	C	1.394552	0.333228	0.194052
C93	C	1.727886	0.666562	0.527385
N94	N	1.056768	0.243431	0.123522
N95	N	1.390101	0.576765	0.456855
N96	N	1.723435	0.910098	0.790188
C97	C	1.060350	0.093181	-0.185930
C98	C	1.393684	0.426515	0.147403
C99	C	1.727017	0.759848	0.480736
C100	C	1.058584	0.093183	-0.279229
C101	C	1.391917	0.426516	0.054104
C102	C	1.725251	0.759849	0.387437
C103	C	1.057693	-0.000103	-0.325879
C104	C	1.391026	0.333230	0.007455
C105	C	1.724359	0.666563	0.340788
C106	C	1.058559	-0.093397	-0.279223
C107	C	1.391892	0.239937	0.054111
C108	C	1.725225	0.573270	0.387444
C109	C	1.060319	-0.093397	-0.185924
C110	C	1.393652	0.239936	0.147409
C111	C	1.726985	0.573270	0.480742
C112	C	1.054893	-0.093389	-0.473686
C113	C	1.388226	0.239944	-0.140352
C114	C	1.721559	0.573277	0.192981
C115	C	1.053134	-0.093390	-0.566991
C116	C	1.386468	0.239944	-0.233657
C117	C	1.719801	0.573277	0.099676
C118	C	1.053158	0.093190	-0.566991
C119	C	1.386492	0.426524	-0.233657
C120	C	1.719825	0.759857	0.099676
C121	C	1.054918	0.093190	-0.473693
C122	C	1.388251	0.426523	-0.140359
C123	C	1.721585	0.759857	0.192974
C124	C	1.055786	-0.000104	-0.427043
C125	C	1.389119	0.333229	-0.093710
C126	C	1.722452	0.666563	0.239623
C127	C	1.050392	-0.000105	0.287064
C128	C	1.383725	0.333228	0.620397
C129	C	1.717059	0.666562	0.953730
C130	C	1.052266	-0.000103	0.386360
C131	C	1.385599	0.333230	0.719694
C132	C	1.718933	0.666563	1.053027
H133	H	0.766062	-0.000073	0.275674
H134	H	1.099395	0.333261	0.609007
H135	H	1.432729	0.666594	0.942341
Cl136	Cl	1.052015	-0.210665	-0.625634
Cl137	Cl	1.385348	0.122668	-0.292301
Cl138	Cl	1.718682	0.456002	0.041032
H139	H	1.055650	0.169152	-0.435714
H140	H	1.388984	0.502485	-0.102381
H141	H	1.722317	0.835818	0.230952
H142	H	1.057881	0.169146	-0.317207
H143	H	1.391214	0.502479	0.016126
H144	H	1.724547	0.835812	0.349459
Cl145	Cl	1.057427	-0.210672	-0.337866
Cl146	Cl	1.390761	0.122662	-0.004533
Cl147	Cl	1.724094	0.455995	0.328801
H148	H	1.055580	-0.169359	-0.435704
H149	H	1.388913	0.163974	-0.102371
H150	H	1.722246	0.497307	0.230962
H151	H	1.052450	0.169154	-0.604977
H152	H	1.385783	0.502487	-0.271644
H153	H	1.719117	0.835820	0.061690
Cl154	Cl	1.061409	-0.210676	-0.127279
Cl155	Cl	1.394743	0.122657	0.206054
Cl156	Cl	1.728076	0.455990	0.539387
Cl157	Cl	0.829790	-0.000105	-0.055651
Cl158	Cl	1.163123	0.333229	0.277683
Cl159	Cl	1.496456	0.666562	0.611016
Cl160	Cl	0.283700	-0.000118	0.302735
Cl161	Cl	0.617034	0.333215	0.636068
Cl162	Cl	0.950367	0.666548	0.969401
H163	H	0.596810	-0.000094	0.272473
H164	H	0.930144	0.333239	0.605807
H165	H	1.263477	0.666573	0.939140
H166	H	0.478304	-0.000093	0.270238
H167	H	0.811638	0.333240	0.603571
H168	H	1.144971	0.666573	0.936904
H169	H	1.061081	0.169146	-0.147956
H170	H	1.394414	0.502479	0.185377
H171	H	1.727748	0.835812	0.518711
Cl172	Cl	0.331437	-0.000173	-0.065065
Cl173	Cl	0.664770	0.333160	0.268269
Cl174	Cl	0.998104	0.666494	0.601602
H175	H	0.516681	-0.000125	-0.025399
H176	H	0.850014	0.333209	0.307934
H177	H	1.183348	0.666542	0.641268
H178	H	0.635174	-0.000129	-0.023152
H179	H	0.968508	0.333204	0.310182
H180	H	1.301841	0.666537	0.643515
