data_functionalizedCrystal
_audit_creation_method	'MofGen! by Chris Wilmer'
_symmetry_space_group_name_H-M	'P1'
_symmetry_Int_Tables_number	1
_symmetry_cell_setting	triclinic
loop_
_symmetry_equiv_pos_as_xyz
  x,y,z
_cell_length_a	18.215407
_cell_length_b	12.759394
_cell_length_c	12.759387
_cell_angle_alpha	90.031660
_cell_angle_beta	90.023041
_cell_angle_gamma	90.015285
loop_
_atom_site_label
_atom_site_type_symbol
_atom_site_fract_x
_atom_site_fract_y
_atom_site_fract_z
Zn1	Zn	1.125147	-0.418198	0.594070
Zn2	Zn	1.625147	0.081802	1.094070
Zn3	Zn	1.125070	-0.593916	0.418388
Zn4	Zn	1.625070	-0.093916	0.918388
Zn5	Zn	1.002072	-0.418252	0.418399
Zn6	Zn	1.502072	0.081748	0.918399
Zn7	Zn	1.002067	-0.593837	0.594019
Zn8	Zn	1.502067	-0.093837	1.094019
O9	O	1.063589	-0.506051	0.506219
O10	O	1.563589	-0.006051	1.006219
O11	O	1.228121	-0.441518	0.570782
O12	O	1.728121	0.058482	1.070782
O13	O	1.108724	-0.570669	0.271368
O14	O	1.608724	-0.070669	0.771368
O15	O	1.018433	-0.271224	0.441728
O16	O	1.518433	0.228776	0.941728
O17	O	1.228064	-0.570616	0.441709
O18	O	1.728064	-0.070616	0.941709
O19	O	1.108855	-0.271185	0.570793
O20	O	1.608855	0.228815	1.070793
O21	O	1.018358	-0.441610	0.271376
O22	O	1.518358	0.058390	0.771376
O23	O	0.899087	-0.441534	0.441679
O24	O	1.399087	0.058466	0.941679
O25	O	1.018423	-0.570483	0.741047
O26	O	1.518423	-0.070483	1.241047
O27	O	0.899083	-0.570536	0.570706
O28	O	1.399083	-0.070536	1.070706
O29	O	1.108850	-0.441442	0.741084
O30	O	1.608850	0.058558	1.241084
O31	O	1.108719	-0.740926	0.441659
O32	O	1.608719	-0.240926	0.941659
O33	O	1.018349	-0.740869	0.570695
O34	O	1.518349	-0.240869	1.070695
C35	C	0.872383	-0.506033	0.506189
C36	C	1.372383	-0.006033	1.006189
C37	C	0.790584	-0.506051	0.506201
C38	C	1.290584	-0.006051	1.006201
C39	C	0.602407	-0.573327	0.573301
C40	C	1.102407	-0.073327	1.073301
C41	C	0.525548	-0.573331	0.573314
C42	C	1.025548	-0.073331	1.073314
C43	C	0.525523	-0.438794	0.439160
C44	C	1.025523	0.061206	0.939160
C45	C	0.602380	-0.438786	0.439153
C46	C	1.102380	0.061214	0.939153
C47	C	0.640820	-0.506059	0.506222
C48	C	1.140820	-0.006059	1.006222
C49	C	0.487104	-0.506070	0.506242
C50	C	0.987104	-0.006070	1.006242
C51	C	0.403770	-0.506073	0.506256
C52	C	0.903770	-0.006073	1.006256
C53	C	0.724159	-0.506054	0.506210
C54	C	1.224159	-0.006054	1.006210
C55	C	1.063545	-0.779018	0.506193
C56	C	1.563545	-0.279018	1.006193
C57	C	1.063593	-0.895795	0.506218
C58	C	1.563593	-0.395795	1.006218
C59	C	1.157766	-0.895802	0.371954
C60	C	1.657766	-0.395802	0.871954
C61	C	1.204871	-0.950665	0.304834
C62	C	1.704871	-0.450665	0.804834
C63	C	1.204915	-1.060387	0.304862
C64	C	1.704915	-0.560387	0.804862
C65	C	1.157849	-1.115247	0.372020
C66	C	1.657849	-0.615247	0.872020
C67	C	1.110743	-1.060383	0.439140
C68	C	1.610743	-0.560383	0.939140
C69	C	1.110703	-0.950659	0.439102
C70	C	1.610703	-0.450659	0.939102
C71	C	1.016575	-1.060377	0.573408
C72	C	1.516575	-0.560377	1.073408
C73	C	1.016527	-0.950655	0.573375
C74	C	1.516527	-0.450655	1.073375
C75	C	0.969509	-1.115237	0.640565
C76	C	1.469509	-0.615237	1.140565
C77	C	0.922399	-1.060373	0.707681
C78	C	1.422399	-0.560373	1.207681
C79	C	0.922357	-0.950645	0.707649
C80	C	1.422357	-0.450645	1.207649
C81	C	0.969422	-0.895791	0.640495
C82	C	1.469422	-0.395791	1.140495
C83	C	1.255542	-0.506070	0.506250
C84	C	1.755542	-0.006070	1.006250
C85	C	1.337341	-0.506078	0.506263
C86	C	1.837341	-0.006078	1.006263
C87	C	1.063644	-0.505948	0.780252
C88	C	1.563644	-0.005948	1.280252
C89	C	1.063668	-0.505904	0.897029
C90	C	1.563668	-0.005904	1.397029
C91	C	1.063653	-0.232018	0.506267
C92	C	1.563653	0.267982	1.006267
C93	C	1.063681	-0.115241	0.506288
C94	C	1.563681	0.384759	1.006288
C95	C	1.063576	-0.506078	0.233251
C96	C	1.563576	-0.006078	0.733251
C97	C	1.063695	-0.505826	0.116475
C98	C	1.563695	-0.005826	0.616475
C99	C	1.157835	-0.371542	0.897088
C100	C	1.657835	0.128458	1.397088
C101	C	1.204929	-0.304346	0.951978
C102	C	1.704929	0.195654	1.451978
C103	C	1.204947	-0.304307	1.061700
C104	C	1.704947	0.195693	1.561700
C105	C	1.157865	-0.371471	1.116534
C106	C	1.657865	0.128529	1.616534
C107	C	1.110771	-0.438667	1.061644
C108	C	1.610771	0.061333	1.561644
C109	C	1.110759	-0.438701	0.951919
C110	C	1.610759	0.061299	1.451919
C111	C	1.016601	-0.573022	1.061585
C112	C	1.516601	-0.073022	1.561585
C113	C	1.016585	-0.573067	0.951863
C114	C	1.516585	-0.073067	1.451863
C115	C	0.969518	-0.640186	1.116419
C116	C	1.469518	-0.140186	1.616419
C117	C	0.922427	-0.707389	1.061529
C118	C	1.422427	-0.207389	1.561529
C119	C	0.922411	-0.707425	0.951800
C120	C	1.422411	-0.207425	1.451800
C121	C	0.969492	-0.640264	0.896973
C122	C	1.469492	-0.140264	1.396973
H123	H	0.494275	-0.628106	0.627938
H124	H	0.994275	-0.128106	1.127938
H125	H	0.633702	-0.628103	0.627915
H126	H	1.133702	-0.128103	1.127915
H127	H	1.157726	-0.806460	0.371910
H128	H	1.657726	-0.306460	0.871910
H129	H	0.884054	-0.762134	0.907115
H130	H	1.384054	-0.262134	1.407115
O131	O	0.871644	-1.119547	0.780110
O132	O	1.371644	-0.619547	1.280110
H133	H	0.838881	-1.062967	0.826780
H134	H	1.338881	-0.562967	1.326780
O135	O	0.643812	-0.366238	0.366781
O136	O	1.143812	0.133762	0.866781
H137	H	0.629075	-0.283801	0.384925
H138	H	1.129075	0.216199	0.884925
O139	O	0.969534	-0.640138	1.234762
O140	O	1.469534	-0.140138	1.734762
H141	H	0.928880	-0.698121	1.263667
H142	H	1.428880	-0.198121	1.763667
H143	H	0.969487	-0.640292	0.807632
H144	H	1.469487	-0.140292	1.307632
H145	H	1.243194	-0.905989	0.250157
H146	H	1.743194	-0.405989	0.750157
O147	O	1.157875	-0.371426	1.234877
O148	O	1.657875	0.128574	1.734877
H149	H	1.198532	-0.313418	1.263833
H150	H	1.698532	0.186582	1.763833
O151	O	1.255717	-1.119572	0.232469
O152	O	1.755717	-0.619572	0.732469
H153	H	1.288434	-1.062997	0.185761
H154	H	1.788434	-0.562997	0.685761
H155	H	1.157894	-1.204588	0.372046
H156	H	1.657894	-0.704588	0.872046
O157	O	1.255731	-0.231833	1.120925
O158	O	1.755731	0.268167	1.620925
H159	H	1.313486	-0.249869	1.099899
H160	H	1.813486	0.250131	1.599899
H161	H	0.969551	-1.204578	0.640588
H162	H	1.469551	-0.704578	1.140588
O163	O	0.871542	-0.891469	0.780032
O164	O	1.371542	-0.391469	1.280032
H165	H	0.838820	-0.948054	0.826722
H166	H	1.338820	-0.448054	1.326722
H167	H	0.969387	-0.806450	0.640455
H168	H	1.469387	-0.306450	1.140455
O169	O	0.871645	-0.779818	1.120665
O170	O	1.371645	-0.279818	1.620665
H171	H	0.879567	-0.768499	1.206183
H172	H	1.379567	-0.268499	1.706183
H173	H	1.243262	-0.249661	0.907320
H174	H	1.743262	0.250339	1.407320
O175	O	0.484064	-0.366271	0.366788
O176	O	0.984064	0.133729	0.866788
H177	H	0.424166	-0.377594	0.378043
H178	H	0.924166	0.122406	0.878043
O179	O	1.157817	-0.371590	0.778745
O180	O	1.657817	0.128410	1.278745
H181	H	1.198463	-0.313597	0.749837
H182	H	1.698463	0.186403	1.249837
