data_functionalizedCrystal
_audit_creation_method	'MofGen! by Chris Wilmer'
_symmetry_space_group_name_H-M	'P1'
_symmetry_Int_Tables_number	1
_symmetry_cell_setting	triclinic
loop_
_symmetry_equiv_pos_as_xyz
  x,y,z
_cell_length_a	29.839135
_cell_length_b	29.839131
_cell_length_c	13.897441
_cell_angle_alpha	90.042797
_cell_angle_beta	90.025123
_cell_angle_gamma	90.037758
loop_
_atom_site_label
_atom_site_type_symbol
_atom_site_fract_x
_atom_site_fract_y
_atom_site_fract_z
Zn1	Zn	0.686782	-0.178809	0.545412
Zn2	Zn	1.186782	0.321191	1.045412
Zn3	Zn	0.686709	-0.253944	0.384079
Zn4	Zn	1.186709	0.246056	0.884079
Zn5	Zn	0.611652	-0.178832	0.384118
Zn6	Zn	1.111652	0.321168	0.884118
Zn7	Zn	0.611620	-0.253916	0.545320
Zn8	Zn	1.111620	0.246084	1.045320
O9	O	0.649191	-0.216375	0.464732
O10	O	1.149191	0.283625	0.964732
O11	O	0.749639	-0.188777	0.524034
O12	O	1.249639	0.311223	1.024034
O13	O	0.676736	-0.244001	0.249103
O14	O	1.176736	0.255999	0.749103
O15	O	0.621661	-0.115961	0.405570
O16	O	1.121661	0.384039	0.905570
O17	O	0.749586	-0.243979	0.405503
O18	O	1.249586	0.256021	0.905503
O19	O	0.676859	-0.115945	0.524072
O20	O	1.176859	0.384055	1.024072
O21	O	0.621591	-0.188817	0.249132
O22	O	1.121591	0.311183	0.749132
O23	O	0.548781	-0.188790	0.405480
O24	O	1.048781	0.311210	0.905480
O25	O	0.621608	-0.243931	0.680314
O26	O	1.121608	0.256069	1.180314
O27	O	0.548757	-0.243954	0.523913
O28	O	1.048757	0.256046	1.023913
O29	O	0.676829	-0.188750	0.680382
O30	O	1.176829	0.311250	1.180382
O31	O	0.676705	-0.316807	0.405413
O32	O	1.176705	0.183193	0.905413
O33	O	0.621538	-0.316787	0.523876
O34	O	1.121538	0.183213	1.023876
C35	C	0.532468	-0.216371	0.464691
C36	C	1.032468	0.283629	0.964691
C37	C	0.482534	-0.216381	0.464697
C38	C	0.982534	0.283619	0.964697
C39	C	0.649122	-0.333098	0.464651
C40	C	1.149122	0.166902	0.964651
C41	C	0.649134	-0.383032	0.464649
C42	C	1.149134	0.116968	0.964649
C43	C	0.172915	-0.187675	0.526542
C44	C	0.672915	0.312325	1.026542
C45	C	-0.014758	-0.187678	0.526570
C46	C	0.485242	0.312322	1.026570
O47	O	-0.039002	-0.163261	0.579107
O48	O	0.460998	0.336739	1.079107
N49	N	-0.038251	-0.216375	0.464768
N50	N	0.461749	0.283625	0.964768
C51	C	-0.014823	-0.245072	0.402950
C52	C	0.485177	0.254928	0.902950
O53	O	-0.039112	-0.269477	0.350378
O54	O	0.460888	0.230523	0.850378
C55	C	0.172849	-0.245066	0.402919
C56	C	0.672849	0.254934	0.902919
C57	C	0.196340	-0.216370	0.464731
C58	C	0.696340	0.283630	0.964731
C59	C	0.196406	-0.158981	0.588349
C60	C	0.696406	0.341019	1.088349
C61	C	0.243322	-0.158983	0.588345
C62	C	0.743322	0.341017	1.088345
C63	C	0.266746	-0.187678	0.526535
C64	C	0.766746	0.312322	1.026535
C65	C	0.243255	-0.216371	0.464728
C66	C	0.743255	0.283629	0.964728
C67	C	0.196276	-0.273760	0.341097
C68	C	0.696276	0.226240	0.841097
C69	C	0.243197	-0.273755	0.341093
C70	C	0.743197	0.226245	0.841093
C71	C	0.266688	-0.245059	0.402906
C72	C	0.766688	0.254941	0.902906
C73	C	0.313595	-0.245068	0.402913
C74	C	0.813595	0.254932	0.902913
N75	N	0.337088	-0.216371	0.464715
N76	N	0.837088	0.283629	0.964715
C77	C	0.313664	-0.187676	0.526526
C78	C	0.813664	0.312324	1.026526
C79	C	-0.113354	-0.245073	0.402973
C80	C	0.386646	0.254927	0.902973
C81	C	-0.160272	-0.245075	0.402981
C82	C	0.339728	0.254925	0.902981
C83	C	-0.160203	-0.187681	0.526600
C84	C	0.339797	0.312319	1.026600
C85	C	-0.113284	-0.187682	0.526595
C86	C	0.386716	0.312318	1.026595
C87	C	-0.089861	-0.216376	0.464774
C88	C	0.410139	0.283624	0.964774
C89	C	0.412190	-0.187681	0.526514
C90	C	0.912190	0.312319	1.026514
C91	C	0.459109	-0.187686	0.526507
C92	C	0.959109	0.312314	1.026507
C93	C	0.459036	-0.245078	0.402886
C94	C	0.959036	0.254922	0.902886
C95	C	0.412121	-0.245075	0.402895
C96	C	0.912121	0.254925	0.902895
C97	C	0.388699	-0.216372	0.464713
C98	C	0.888699	0.283628	0.964713
O99	O	0.337868	-0.269468	0.350395
O100	O	0.837868	0.230532	0.850395
O101	O	0.337961	-0.163267	0.579075
O102	O	0.837961	0.336733	1.079075
C103	C	0.126000	-0.187674	0.526546
C104	C	0.626000	0.312326	1.026546
C105	C	0.102509	-0.216368	0.464739
C106	C	0.602509	0.283632	0.964739
C107	C	0.125933	-0.245063	0.402928
C108	C	0.625933	0.254937	0.902928
C109	C	0.055591	-0.216370	0.464748
C110	C	0.555591	0.283630	0.964748
C111	C	0.032166	-0.187675	0.526559
C112	C	0.532166	0.312325	1.026559
C113	C	0.055660	-0.158978	0.588361
C114	C	0.555660	0.341022	1.088361
C115	C	0.102575	-0.158979	0.588357
C116	C	0.602575	0.341021	1.088357
C117	C	0.102440	-0.273760	0.341126
C118	C	0.602440	0.226240	0.841126
C119	C	0.055524	-0.273757	0.341136
C120	C	0.555524	0.226243	0.841136
C121	C	0.032100	-0.245062	0.402947
C122	C	0.532100	0.254938	0.902947
C123	C	0.677926	-0.692632	0.526524
C124	C	1.177926	-0.192632	1.026524
C125	C	0.677975	-0.880305	0.526582
C126	C	1.177975	-0.380305	1.026582
O127	O	0.702387	-0.904532	0.579131
O128	O	1.202387	-0.404532	1.079131
N129	N	0.649267	-0.903817	0.464840
N130	N	1.149267	-0.403817	0.964840
C131	C	0.620543	-0.880408	0.403082
C132	C	1.120543	-0.380408	0.903082
O133	O	0.596124	-0.904713	0.350575
O134	O	1.096124	-0.404713	0.850575
C135	C	0.620493	-0.692736	0.403030
C136	C	1.120493	-0.192736	0.903030
C137	C	0.649205	-0.669226	0.464770
C138	C	1.149205	-0.169226	0.964770
C139	C	0.706636	-0.669122	0.588260
C140	C	1.206636	-0.169122	1.088260
C141	C	0.706625	-0.622206	0.588241
C142	C	1.206625	-0.122206	1.088241
C143	C	0.677904	-0.598801	0.526487
C144	C	1.177904	-0.098801	1.026487
C145	C	0.649194	-0.622311	0.464751
C146	C	1.149194	-0.122311	0.964751
C147	C	0.591767	-0.669328	0.341278
C148	C	1.091767	-0.169328	0.841278
C149	C	0.591756	-0.622407	0.341272
C150	C	1.091756	-0.122407	0.841272
C151	C	0.620468	-0.598897	0.403012
C152	C	1.120468	-0.098897	0.903012
C153	C	0.620463	-0.551990	0.402978
C154	C	1.120463	-0.051990	0.902978
N155	N	0.649171	-0.528477	0.464721
N156	N	1.149171	-0.028477	0.964721
C157	C	0.677891	-0.551883	0.526475
C158	C	1.177891	-0.051883	1.026475
C159	C	0.620572	-0.978939	0.403113
C160	C	1.120572	-0.478939	0.903113
C161	C	0.620586	-1.025857	0.403124
C162	C	1.120586	-0.525857	0.903124
C163	C	0.678017	-1.025750	0.526626
C164	C	1.178017	-0.525750	1.026626
C165	C	0.678005	-0.978831	0.526609
C166	C	1.178005	-0.478831	1.026609
C167	C	0.649280	-0.955426	0.464856
C168	C	1.149280	-0.455426	0.964856
C169	C	0.677867	-0.453357	0.526430
C170	C	1.177867	0.046643	1.026430
C171	C	0.677855	-0.406437	0.526403
C172	C	1.177855	0.093563	1.026403
C173	C	0.620422	-0.406548	0.402906
C174	C	1.120422	0.093452	0.902906
C175	C	0.620436	-0.453464	0.402929
C176	C	1.120436	0.046536	0.902929
C177	C	0.649160	-0.476867	0.464699
C178	C	1.149160	0.023133	0.964699
O179	O	0.596059	-0.527733	0.350464
O180	O	1.096059	-0.027733	0.850464
O181	O	0.702300	-0.527570	0.578990
O182	O	1.202300	-0.027570	1.078990
C183	C	0.677937	-0.739547	0.526543
C184	C	1.177937	-0.239547	1.026543
C185	C	0.649227	-0.763057	0.464808
C186	C	1.149227	-0.263057	0.964808
C187	C	0.620506	-0.739651	0.403053
C188	C	1.120506	-0.239651	0.903053
C189	C	0.649240	-0.809975	0.464819
C190	C	1.149240	-0.309975	0.964819
C191	C	0.677961	-0.833380	0.526574
C192	C	1.177961	-0.333380	1.026574
C193	C	0.706668	-0.809868	0.588317
C194	C	1.206668	-0.309868	1.088317
C195	C	0.706657	-0.762953	0.588298
C196	C	1.206657	-0.262953	1.088298
C197	C	0.591798	-0.763164	0.341310
C198	C	1.091798	-0.263164	0.841310
C199	C	0.591812	-0.810079	0.341333
C200	C	1.091812	-0.310079	0.841333
C201	C	0.620533	-0.833485	0.403088
C202	C	1.120533	-0.333485	0.903088
C203	C	0.766369	-0.216379	0.464774
C204	C	1.266369	0.283621	0.964774
C205	C	0.816304	-0.216380	0.464792
C206	C	1.316304	0.283620	0.964792
C207	C	0.649223	-0.216335	0.716326
C208	C	1.149223	0.283665	1.216326
C209	C	0.649236	-0.216318	0.823540
C210	C	1.149236	0.283682	1.323540
C211	C	0.649272	-0.099197	0.464835
C212	C	1.149272	0.400803	0.964835
C213	C	0.649306	-0.049262	0.464879
C214	C	1.149306	0.450738	0.964879
C215	C	0.649185	-0.216382	0.214118
C216	C	1.149185	0.283618	0.714118
C217	C	0.649258	-0.216272	0.106905
C218	C	1.149258	0.283728	0.606905
C219	C	0.649248	-0.216288	1.019835
C220	C	1.149248	0.283712	1.519835
C221	C	0.649240	-0.216306	0.910602
C222	C	1.149240	0.283694	1.410602
H223	H	0.478234	-0.164318	0.576846
H224	H	0.978234	0.335682	1.076846
F225	F	0.708438	-0.478258	0.592172
F226	F	1.208438	0.021742	1.092172
F227	F	-0.185141	-0.157141	0.592383
F228	F	0.314859	0.342859	1.092383
H229	H	0.177157	-0.297127	0.290761
H230	H	0.677157	0.202873	0.790761
F231	F	0.561205	-0.694339	0.275567
F232	F	1.061205	-0.194339	0.775567
F233	F	0.561181	-0.597501	0.275545
F234	F	1.061181	-0.097501	0.775545
F235	F	0.483975	-0.275617	0.337107
F236	F	0.983975	0.224383	0.837107
H237	H	0.597059	-0.472607	0.352647
H238	H	1.097059	0.027393	0.852647
H239	H	0.121697	-0.135611	0.638691
H240	H	0.621697	0.364389	1.138691
H241	H	0.597180	-0.959886	0.352824
H242	H	1.097180	-0.459886	0.852824
H243	H	0.393125	-0.164307	0.576848
H244	H	0.893125	0.335693	1.076848
H245	H	0.262444	-0.135615	0.638678
H246	H	0.762444	0.364385	1.138678
H247	H	-0.179394	-0.268447	0.352658
H248	H	0.320606	0.231553	0.852658
F249	F	0.708417	-0.381419	0.592116
F250	F	1.208417	0.118581	1.092116
F251	F	0.171483	-0.128437	0.654142
F252	F	0.671483	0.371563	1.154142
F253	F	0.708565	-0.953814	0.592321
F254	F	1.208565	-0.453814	1.092321
H255	H	0.730004	-0.603067	0.638518
H256	H	1.230004	-0.103067	1.138518
F257	F	0.589858	-0.381630	0.337184
F258	F	1.089858	0.118370	0.837184
H259	H	0.036579	-0.135614	0.638692
H260	H	0.536579	0.364386	1.138692
H261	H	0.036402	-0.297129	0.290802
H262	H	0.536402	0.202871	0.790802
F263	F	-0.088288	-0.157139	0.592383
F264	F	0.411712	0.342861	1.092383
H265	H	0.730024	-0.688173	0.638554
H266	H	1.230024	-0.188173	1.138554
H267	H	0.121507	-0.297127	0.290790
H268	H	0.621507	0.202873	0.790790
H269	H	-0.094287	-0.268441	0.352628
H270	H	0.405713	0.231559	0.852628
F271	F	0.737217	-0.737937	0.654012
F272	F	1.237217	-0.237937	1.154012
H273	H	0.568410	-0.744111	0.291023
H274	H	1.068410	-0.244111	0.791023
H275	H	0.701403	-1.044815	0.576908
H276	H	1.201403	-0.544815	1.076908
F277	F	0.268123	-0.304297	0.275294
F278	F	0.768123	0.195703	0.775294
H279	H	0.730055	-0.828933	0.638596
H280	H	1.230055	-0.328933	1.138596
H281	H	0.597210	-1.044994	0.352839
H282	H	1.097210	-0.544994	0.852839
H283	H	0.392994	-0.268446	0.352573
H284	H	0.892994	0.231554	0.852573
H285	H	0.568431	-0.829217	0.291048
H286	H	1.068431	-0.329217	0.791048
