data_functionalizedCrystal
_audit_creation_method	'MofGen! by Chris Wilmer'
_symmetry_space_group_name_H-M	'P1'
_symmetry_Int_Tables_number	1
_symmetry_cell_setting	triclinic
loop_
_symmetry_equiv_pos_as_xyz
  x,y,z
_cell_length_a	25.639242
_cell_length_b	12.645330
_cell_length_c	12.645323
_cell_angle_alpha	90.024870
_cell_angle_beta	90.031252
_cell_angle_gamma	90.013220
loop_
_atom_site_label
_atom_site_type_symbol
_atom_site_fract_x
_atom_site_fract_y
_atom_site_fract_z
Zn1	Zn	0.799348	-0.422157	0.599689
Zn2	Zn	0.799290	-0.599445	0.422429
Zn3	Zn	0.711911	-0.422183	0.422407
Zn4	Zn	0.711902	-0.599365	0.599618
O5	O	0.755613	-0.510788	0.511036
O6	O	0.872506	-0.445698	0.576214
O7	O	0.787678	-0.575975	0.274079
O8	O	0.723538	-0.273832	0.445944
O9	O	0.872463	-0.575951	0.445982
O10	O	0.787778	-0.273813	0.576192
O11	O	0.723481	-0.445741	0.274062
O12	O	0.638744	-0.445663	0.445875
O13	O	0.723522	-0.575814	0.747975
O14	O	0.638738	-0.575839	0.576071
O15	O	0.787769	-0.445620	0.748027
O16	O	0.787670	-0.747782	0.445913
O17	O	0.723466	-0.747723	0.576093
C18	C	0.755575	-0.786217	0.511021
C19	C	0.755606	-0.904047	0.511050
C20	C	0.619770	-0.510746	0.510964
C21	C	0.561656	-0.510754	0.510958
C22	C	0.715382	-1.071619	0.593199
C23	C	0.715176	-0.949059	0.592934
C24	C	0.740689	-0.948639	0.399323
C25	C	0.740443	-1.071238	0.399822
C26	C	0.810993	-1.071145	0.539722
C27	C	0.810654	-0.948539	0.542164
C28	C	0.201298	-0.578683	0.578764
C29	C	0.146694	-0.578690	0.578781
O30	O	0.118462	-0.636394	0.636372
N31	N	0.119374	-0.510817	0.511105
C32	C	0.146660	-0.442925	0.443415
O33	O	0.118408	-0.385194	0.385853
C34	C	0.201264	-0.442914	0.443404
C35	C	0.228581	-0.510799	0.511077
C36	C	0.228616	-0.646562	0.646433
C37	C	0.283217	-0.646557	0.646415
C38	C	0.310500	-0.578673	0.578728
C39	C	0.283182	-0.510794	0.511059
C40	C	0.228549	-0.375018	0.375720
C41	C	0.283156	-0.375012	0.375716
C42	C	0.310474	-0.442898	0.443389
C43	C	0.365065	-0.442905	0.443354
N44	N	0.392386	-0.510778	0.511030
C45	C	0.365103	-0.578662	0.578717
C46	C	0.031990	-0.442952	0.443443
C47	C	-0.022613	-0.442968	0.443448
C48	C	-0.022575	-0.578731	0.578816
C49	C	0.032028	-0.578720	0.578805
C50	C	0.059310	-0.510825	0.511120
C51	C	0.479768	-0.578646	0.578673
C52	C	0.534373	-0.578638	0.578645
C53	C	0.534331	-0.442871	0.443281
C54	C	0.479730	-0.442882	0.443304
C55	C	0.452450	-0.510774	0.511009
O56	O	0.393332	-0.385227	0.385795
O57	O	0.393362	-0.636373	0.636279
C58	C	0.891986	-0.510830	0.511108
C59	C	0.950100	-0.510849	0.511139
C60	C	0.755651	-0.510706	0.787541
C61	C	0.755668	-0.510671	0.905371
C62	C	0.755665	-0.234282	0.511074
C63	C	0.755688	-0.116452	0.511090
C64	C	0.755604	-0.510793	0.235606
C65	C	0.755689	-0.510529	0.117776
C66	C	0.715125	-0.592190	1.072902
C67	C	0.715231	-0.592593	0.950342
C68	C	0.810758	-0.540998	0.949908
C69	C	0.810536	-0.541509	1.072506
C70	C	0.741640	-0.398369	1.072565
C71	C	0.740411	-0.399041	0.949958
H72	H	0.724509	-0.918907	0.675778
H73	H	0.674380	-0.573615	0.920228
C74	C	0.852742	-0.464644	1.112623
H75	H	0.852887	-0.464425	1.187752
H76	H	0.885903	-0.486655	1.087406
H77	H	0.845465	-0.395420	1.087470
C78	C	0.659773	-0.566797	1.112689
H79	H	0.660903	-0.506171	1.157031
H80	H	0.637611	-0.553269	1.054012
H81	H	0.646658	-0.625285	1.151596
C82	C	0.313259	-0.721218	0.720869
H83	H	0.289184	-0.761634	0.761186
H84	H	0.334546	-0.767361	0.680249
H85	H	0.334575	-0.680711	0.767129
C86	C	-0.052593	-0.653394	0.653281
H87	H	-0.089024	-0.643664	0.643598
H88	H	-0.043659	-0.724605	0.637654
H89	H	-0.043621	-0.637955	0.724535
C90	C	0.852685	-0.463202	0.910557
H91	H	0.836926	-0.411415	0.866508
H92	H	0.868645	-0.429517	0.969426
H93	H	0.878346	-0.500685	0.871439
C94	C	0.198511	-0.300335	0.301287
H95	H	0.222588	-0.259901	0.260991
H96	H	0.177190	-0.340814	0.255023
H97	H	0.177231	-0.254194	0.341933
H98	H	0.842265	-0.917893	0.486717
H99	H	0.822444	-0.623501	1.101120
H100	H	0.824601	-1.101991	0.619809
H101	H	-0.044850	-0.387700	0.388331
H102	H	0.054199	-0.387665	0.388318
H103	H	0.724629	-1.101032	0.676314
C104	C	0.660338	-1.113340	0.567898
H105	H	0.661813	-1.157960	0.507511
H106	H	0.647499	-1.152335	0.626564
H107	H	0.637744	-1.055454	0.553987
C108	C	0.659791	-0.909549	0.567293
H109	H	0.637330	-0.968426	0.556988
H110	H	0.647228	-0.867821	0.624329
H111	H	0.660644	-0.868037	0.504720
H112	H	0.700682	-0.918022	0.374632
H113	H	0.054267	-0.633997	0.633913
C114	C	0.198613	-0.721243	0.720894
H115	H	0.222711	-0.761665	0.761182
H116	H	0.177329	-0.680765	0.767164
H117	H	0.177299	-0.767396	0.680264
H118	H	0.724309	-0.674819	1.103724
H119	H	0.305366	-0.319717	0.320603
H120	H	0.700015	-1.099922	0.375569
C121	C	0.449680	-0.368215	0.368863
H122	H	0.473751	-0.327782	0.328552
H123	H	0.428355	-0.408702	0.322612
H124	H	0.428402	-0.322071	0.409512
H125	H	0.702168	-0.370726	1.103457
H126	H	0.699869	-0.376171	0.920846
H127	H	0.768526	-1.100899	0.336557
H128	H	0.556554	-0.387605	0.388169
H129	H	0.724506	-0.675743	0.921031
H130	H	0.769115	-0.919485	0.336473
C131	C	0.825858	-0.909149	0.653233
H132	H	0.798776	-0.865765	0.680535
H133	H	0.830966	-0.968028	0.698698
H134	H	0.857210	-0.869326	0.648980
H135	H	0.841022	-1.100138	0.479919
H136	H	0.822870	-0.622130	0.919223
C137	C	0.777409	-0.312500	0.908615
H138	H	0.802760	-0.343455	0.863426
H139	H	0.757936	-0.261358	0.870305
H140	H	0.794369	-0.279312	0.966620
H141	H	0.556613	-0.633922	0.633754
C142	C	0.449767	-0.653292	0.653178
H143	H	0.473863	-0.693707	0.693476
H144	H	0.428495	-0.612775	0.699437
H145	H	0.428441	-0.699453	0.612584
H146	H	0.771185	-0.337528	1.101587
