data_functionalizedCrystal
_audit_creation_method	'MofGen! by Chris Wilmer'
_symmetry_space_group_name_H-M	'P1'
_symmetry_Int_Tables_number	1
_symmetry_cell_setting	triclinic
loop_
_symmetry_equiv_pos_as_xyz
  x,y,z
_cell_length_a	11.169417
_cell_length_b	16.959453
_cell_length_c	11.169409
_cell_angle_alpha	90.037272
_cell_angle_beta	90.019513
_cell_angle_gamma	90.021237
loop_
_atom_site_label
_atom_site_type_symbol
_atom_site_fract_x
_atom_site_fract_y
_atom_site_fract_z
Zn1	Zn	1.834882	-0.314591	0.678492
Zn2	Zn	1.834737	-0.446798	0.477791
Zn3	Zn	1.634168	-0.314640	0.477827
Zn4	Zn	1.634141	-0.446734	0.678437
O5	O	1.734482	-0.380691	0.578137
O6	O	2.002812	-0.332135	0.651876
O7	O	1.808082	-0.429314	0.309846
O8	O	1.660864	-0.204023	0.504483
O9	O	2.002706	-0.429267	0.504422
O10	O	1.808328	-0.203987	0.651911
O11	O	1.660724	-0.332218	0.309872
O12	O	1.466215	-0.332157	0.504431
O13	O	1.660820	-0.429158	0.846394
O14	O	1.466195	-0.429206	0.651818
O15	O	1.808303	-0.332073	0.846434
O16	O	1.808056	-0.557400	0.504370
O17	O	1.660679	-0.557354	0.651783
C18	C	1.422657	-0.380680	0.578123
C19	C	1.289257	-0.380695	0.578146
C20	C	1.734382	-0.586057	0.578093
C21	C	1.734449	-0.673914	0.578114
C22	C	1.811365	-1.045312	0.655047
C23	C	1.657935	-1.045467	0.501405
C24	C	1.657890	-0.962921	0.501377
C25	C	1.734583	-0.921567	0.578187
C26	C	1.811320	-0.962759	0.655024
C27	C	1.581146	-0.921723	0.424550
C28	C	1.581097	-0.839172	0.424520
C29	C	1.657797	-0.797816	0.501325
C30	C	1.734538	-0.839013	0.578164
C31	C	1.811231	-0.797659	0.654974
C32	C	1.887979	-0.838855	0.731809
C33	C	1.888020	-0.921403	0.731829
C34	C	1.657756	-0.715268	0.501304
C35	C	1.811186	-0.715106	0.654952
C36	C	2.047524	-0.380702	0.578151
C37	C	2.180924	-0.380707	0.578157
C38	C	1.734574	-0.380603	0.891179
C39	C	1.734614	-0.380566	1.024579
C40	C	1.734615	-0.174523	0.578207
C41	C	1.734672	-0.086666	0.578237
C42	C	1.734459	-0.380721	0.266312
C43	C	1.734653	-0.380536	0.132913
H44	H	1.873644	-0.681440	0.717495
O45	O	1.885735	-1.085364	0.729810
C46	C	1.817388	-1.133121	0.807255
H47	H	1.722845	-1.108284	0.814578
H48	H	1.860744	-1.133990	0.899658
H49	H	1.813307	-1.195704	0.770155
H50	H	1.595263	-0.681730	0.438752
H51	H	1.518703	-0.955399	0.362019
O52	O	1.506722	-0.799071	0.349822
C53	C	1.575074	-0.751350	0.272329
H54	H	1.665999	-0.738919	0.314735
H55	H	1.526170	-0.693333	0.256181
H56	H	1.588324	-0.783210	0.183411
O57	O	1.583383	-1.085723	0.426963
C58	C	1.505833	-1.133456	0.495241
H59	H	1.548116	-1.145748	0.586238
H60	H	1.489812	-1.191542	0.446362
H61	H	1.416865	-1.101679	0.508332
H62	H	1.950418	-0.805175	0.794353
H63	H	1.950503	-0.954952	0.794385
