data_functionalizedCrystal
_audit_creation_method	'MofGen! by Chris Wilmer'
_symmetry_space_group_name_H-M	'P1'
_symmetry_Int_Tables_number	1
_symmetry_cell_setting	triclinic
loop_
_symmetry_equiv_pos_as_xyz
  x,y,z
_cell_length_a	18.215407
_cell_length_b	16.625546
_cell_length_c	18.215399
_cell_angle_alpha	89.970824
_cell_angle_beta	89.980167
_cell_angle_gamma	90.022916
loop_
_atom_site_label
_atom_site_type_symbol
_atom_site_fract_x
_atom_site_fract_y
_atom_site_fract_z
Zn1	Zn	1.125084	-0.321000	-0.416110
Zn2	Zn	1.124998	-0.455841	-0.293041
Zn3	Zn	1.002017	-0.321027	-0.293057
Zn4	Zn	1.001988	-0.455796	-0.416066
O5	O	1.063522	-0.388416	-0.354568
O6	O	1.228057	-0.338895	-0.399796
O7	O	1.108660	-0.437987	-0.190059
O8	O	1.018390	-0.208191	-0.309405
O9	O	1.227994	-0.437961	-0.309378
O10	O	1.108807	-0.208171	-0.399812
O11	O	1.018307	-0.338940	-0.190070
O12	O	0.899029	-0.338896	-0.309363
O13	O	1.018341	-0.437885	-0.519056
O14	O	0.899008	-0.437910	-0.399737
O15	O	1.108779	-0.338851	-0.519088
O16	O	1.108632	-0.568667	-0.309335
O17	O	1.018257	-0.568634	-0.399721
C18	C	0.872315	-0.388402	-0.354547
C19	C	0.790517	-0.388415	-0.354556
C20	C	0.602331	-0.440053	-0.401554
C21	C	0.525472	-0.440056	-0.401563
C22	C	0.525465	-0.336793	-0.307598
C23	C	0.602322	-0.336787	-0.307593
C24	C	0.640753	-0.388422	-0.354570
C25	C	0.487037	-0.388430	-0.354584
C26	C	0.403703	-0.388433	-0.354594
C27	C	0.724092	-0.388418	-0.354562
C28	C	1.063452	-0.597907	-0.354537
C29	C	1.063490	-0.687528	-0.354549
C30	C	1.063618	-1.015703	-0.354625
C31	C	1.063580	-0.924395	-0.354606
C32	C	1.063553	-0.851618	-0.354587
C33	C	1.063516	-0.760304	-0.354568
C34	C	1.255475	-0.388430	-0.354590
C35	C	1.337274	-0.388436	-0.354599
C36	C	1.063567	-0.388360	-0.546521
C37	C	1.063586	-0.388336	-0.628320
C38	C	1.063612	-0.178107	-0.354615
C39	C	1.063650	-0.088486	-0.354635
C40	C	1.110694	-0.336721	-0.816532
C41	C	1.110703	-0.336698	-0.893391
C42	C	1.016530	-0.439827	-0.893346
C43	C	1.016518	-0.439846	-0.816489
C44	C	1.063604	-0.388294	-0.778084
C45	C	1.063625	-0.388252	-0.931800
C46	C	1.063634	-0.388227	-1.015134
C47	C	1.063594	-0.388318	-0.694745
C48	C	1.063519	-0.388413	-0.163362
C49	C	1.063643	-0.388209	-0.081563
H50	H	0.633619	-0.482096	-0.439808
O51	O	1.156341	-0.286513	-0.930770
C52	C	1.114469	-0.234431	-0.975242
H53	H	1.056505	-0.229459	-0.952070
H54	H	1.111933	-0.259340	-1.033486
C55	C	1.221646	-0.156718	-1.004903
C56	C	1.150455	-0.150605	-0.976439
H57	H	1.243845	-0.105010	-1.005645
H58	H	1.249857	-0.191807	-0.974944
H59	H	1.219523	-0.177478	-1.053437
H60	H	1.152580	-0.129855	-0.927903
H61	H	1.122246	-0.115510	-1.006390
O62	O	0.970865	-0.489879	-0.930768
C63	C	0.980960	-0.478792	-1.006849
H64	H	1.037766	-0.452385	-1.017364
H65	H	0.937329	-0.435847	-1.028664
C66	C	0.904419	-0.592798	-1.033371
C67	C	0.974192	-0.560371	-1.046286
H68	H	0.900241	-0.643119	-1.057699
H69	H	0.897615	-0.600267	-0.982114
H70	H	0.868067	-0.557003	-1.051550
H71	H	1.010541	-0.596162	-1.028099
H72	H	0.981002	-0.552911	-1.097541
O73	O	0.970852	-0.490063	-0.779167
C74	C	0.986893	-0.570422	-0.797940
H75	H	1.045686	-0.574491	-0.819081
H76	H	0.947434	-0.591488	-0.842537
C77	C	0.906089	-0.619247	-0.703682
C78	C	0.978302	-0.624247	-0.729641
H79	H	0.900787	-0.652451	-0.661553
H80	H	0.895279	-0.565109	-0.691035
H81	H	0.873215	-0.636802	-0.740852
H82	H	1.011174	-0.606683	-0.692474
H83	H	0.989117	-0.678384	-0.742279
O84	O	0.488263	-0.490288	-0.447225
C85	C	0.538667	-0.535842	-0.488698
H86	H	0.593439	-0.538588	-0.458544
H87	H	0.546877	-0.506393	-0.544638
C88	C	0.441378	-0.618301	-0.536205
C89	C	0.508648	-0.621680	-0.499166
H90	H	0.422860	-0.671248	-0.542666
H91	H	0.407419	-0.587609	-0.508267
H92	H	0.448228	-0.593756	-0.582818
H93	H	0.501795	-0.646214	-0.452551
H94	H	0.542605	-0.652378	-0.527097
H95	H	0.494165	-0.294755	-0.269350
O96	O	0.639536	-0.286604	-0.261880
C97	C	0.589137	-0.241022	-0.220427
H98	H	0.534339	-0.274047	-0.217825
H99	H	0.580993	-0.179822	-0.247476
C100	C	0.686414	-0.188729	-0.145315
C101	C	0.619111	-0.229294	-0.142115
H102	H	0.704903	-0.181491	-0.097010
H103	H	0.720369	-0.219436	-0.173245
H104	H	0.679618	-0.137734	-0.167859
H105	H	0.625910	-0.280292	-0.119580
H106	H	0.585157	-0.198595	-0.114180
H107	H	1.149033	-0.294743	-0.785265
