data_functionalizedCrystal
_audit_creation_method	'MofGen! by Chris Wilmer'
_symmetry_space_group_name_H-M	'P1'
_symmetry_Int_Tables_number	1
_symmetry_cell_setting	triclinic
loop_
_symmetry_equiv_pos_as_xyz
  x,y,z
_cell_length_a	23.532407
_cell_length_b	23.532407
_cell_length_c	15.072220
_cell_angle_alpha	89.994175
_cell_angle_beta	89.992868
_cell_angle_gamma	82.848678
loop_
_atom_site_label
_atom_site_type_symbol
_atom_site_fract_x
_atom_site_fract_y
_atom_site_fract_z
O1	O	0.755267	0.069131	-0.073681
O2	O	1.005267	0.319131	0.176319
O3	O	1.255267	0.569131	0.426319
O4	O	1.505267	0.819131	0.676319
O5	O	0.589403	0.079134	-0.073708
O6	O	0.839403	0.329134	0.176292
O7	O	1.089403	0.579134	0.426292
O8	O	1.339403	0.829134	0.676292
O9	O	0.677336	-0.008799	-0.073677
O10	O	0.927336	0.241201	0.176323
O11	O	1.177336	0.491201	0.426323
O12	O	1.427336	0.741201	0.676323
O13	O	0.667333	0.157064	-0.073711
O14	O	0.917333	0.407064	0.176289
O15	O	1.167333	0.657064	0.426289
O16	O	1.417333	0.907064	0.676289
O17	O	0.677315	-0.008794	0.073888
O18	O	0.927315	0.241206	0.323888
O19	O	1.177315	0.491206	0.573888
O20	O	1.427315	0.741206	0.823888
O21	O	0.589382	0.079139	0.073857
O22	O	0.839382	0.329139	0.323857
O23	O	1.089382	0.579139	0.573857
O24	O	1.339382	0.829139	0.823857
O25	O	0.755245	0.069136	0.073884
O26	O	1.005245	0.319136	0.323884
O27	O	1.255245	0.569136	0.573884
O28	O	1.505245	0.819136	0.823884
Zn29	Zn	0.672310	0.074138	0.097300
Zn30	Zn	0.922310	0.324138	0.347300
Zn31	Zn	1.172310	0.574138	0.597300
Zn32	Zn	1.422310	0.824138	0.847300
Zn33	Zn	0.672338	0.074132	-0.097123
Zn34	Zn	0.922338	0.324132	0.152877
Zn35	Zn	1.172338	0.574132	0.402877
Zn36	Zn	1.422338	0.824132	0.652877
O37	O	0.667312	0.157069	0.073854
O38	O	0.917312	0.407069	0.323854
O39	O	1.167312	0.657069	0.573854
O40	O	1.417312	0.907069	0.823854
C41	C	0.568176	0.078882	0.000071
C42	C	0.818176	0.328882	0.250071
C43	C	1.068176	0.578882	0.500071
C44	C	1.318176	0.828882	0.750071
C45	C	0.504959	0.078116	0.000062
C46	C	0.754959	0.328116	0.250062
C47	C	1.004959	0.578116	0.500062
C48	C	1.254959	0.828116	0.750062
C49	C	0.105856	0.125350	0.000092
C50	C	0.355856	0.375350	0.250092
C51	C	0.605856	0.625350	0.500092
C52	C	0.855856	0.875350	0.750092
C53	C	0.046456	0.124638	0.000098
C54	C	0.296456	0.374638	0.250098
C55	C	0.546456	0.624638	0.500098
C56	C	0.796456	0.874638	0.750098
O57	O	0.009711	0.168424	0.000121
O58	O	0.259711	0.418424	0.250121
O59	O	0.509711	0.668424	0.500121
O60	O	0.759711	0.918424	0.750121
N61	N	0.023830	0.072362	0.000107
N62	N	0.273830	0.322362	0.250107
N63	N	0.523830	0.572362	0.500107
N64	N	0.773830	0.822362	0.750107
C65	C	0.060607	0.020794	0.000120
C66	C	0.310607	0.270794	0.250120
C67	C	0.560607	0.520794	0.500120
C68	C	0.810607	0.770794	0.750120
O69	O	0.035908	-0.023737	0.000129
O70	O	0.285908	0.226263	0.250129
O71	O	0.535908	0.476263	0.500129
O72	O	0.785908	0.726263	0.750129
C73	C	0.120006	0.021506	0.000120
C74	C	0.370006	0.271506	0.250120
C75	C	0.620006	0.521506	0.500120
C76	C	0.870006	0.771506	0.750120
C77	C	0.142629	0.073785	0.000102
C78	C	0.392629	0.323785	0.250102
C79	C	0.642629	0.573785	0.500102
C80	C	0.892629	0.823785	0.750102
C81	C	0.128479	0.177625	0.000075
C82	C	0.378479	0.427625	0.250075
C83	C	0.628479	0.677625	0.500075
C84	C	0.878479	0.927625	0.750075
C85	C	0.187876	0.178336	0.000067
C86	C	0.437876	0.428336	0.250067
C87	C	0.687876	0.678336	0.500067
C88	C	0.937876	0.928336	0.750067
C89	C	0.224649	0.126772	0.000078
C90	C	0.474649	0.376772	0.250078
C91	C	0.724649	0.626772	0.500078
C92	C	0.974649	0.876772	0.750078
C93	C	0.202025	0.074497	0.000095
C94	C	0.452025	0.324497	0.250095
C95	C	0.702025	0.574497	0.500095
C96	C	0.952025	0.824497	0.750095
C97	C	0.156783	-0.030062	0.000139
C98	C	0.406783	0.219938	0.250139
C99	C	0.656783	0.469938	0.500139
C100	C	0.906783	0.719938	0.750139
C101	C	0.216185	-0.029345	0.000141
C102	C	0.466185	0.220655	0.250141
C103	C	0.716185	0.470655	0.500141
C104	C	0.966185	0.720655	0.750141
C105	C	0.238808	0.022934	0.000123
C106	C	0.488808	0.272934	0.250123
C107	C	0.738808	0.522934	0.500123
C108	C	0.988808	0.772934	0.750123
C109	C	0.298194	0.023643	0.000098
C110	C	0.548194	0.273643	0.250098
C111	C	0.798194	0.523643	0.500098
C112	C	1.048194	0.773643	0.750098
N113	N	0.320820	0.075920	0.000088
N114	N	0.570820	0.325920	0.250088
N115	N	0.820820	0.575920	0.500088
N116	N	1.070820	0.825920	0.750088
C117	C	0.284048	0.127484	0.000078
C118	C	0.534048	0.377484	0.250078
C119	C	0.784048	0.627484	0.500078
C120	C	1.034048	0.877484	0.750078
C121	C	-0.064135	0.019302	0.000120
C122	C	0.185865	0.269302	0.250120
C123	C	0.435865	0.519302	0.500120
C124	C	0.685865	0.769302	0.750120
C125	C	-0.123533	0.018589	0.000112
C126	C	0.126467	0.268589	0.250112
C127	C	0.376467	0.518589	0.500112
C128	C	0.626467	0.768589	0.750112
C129	C	-0.137680	0.122434	0.000092
C130	C	0.112320	0.372434	0.250092
C131	C	0.362320	0.622434	0.500092
C132	C	0.612320	0.872434	0.750092
C133	C	-0.078281	0.123146	0.000093
C134	C	0.171719	0.373146	0.250093
C135	C	0.421719	0.623146	0.500093
C136	C	0.671719	0.873146	0.750093
C137	C	-0.041509	0.071578	0.000110
C138	C	0.208491	0.321578	0.250110
C139	C	0.458491	0.571578	0.500110
C140	C	0.708491	0.821578	0.750110
C141	C	0.408784	0.128974	0.000062
C142	C	0.658784	0.378974	0.250062
C143	C	0.908784	0.628974	0.500062
C144	C	1.158784	0.878974	0.750062
C145	C	0.468186	0.129680	0.000051
C146	C	0.718186	0.379680	0.250051
C147	C	0.968186	0.629680	0.500051
C148	C	1.218186	0.879680	0.750051
C149	C	0.482329	0.025836	0.000077
C150	C	0.732329	0.275836	0.250077
C151	C	0.982329	0.525836	0.500077
C152	C	1.232329	0.775836	0.750077
C153	C	0.422932	0.025129	0.000083
C154	C	0.672932	0.275129	0.250083
C155	C	0.922932	0.525129	0.500083
C156	C	1.172932	0.775129	0.750083
C157	C	0.386160	0.076702	0.000079
C158	C	0.636160	0.326702	0.250079
C159	C	0.886160	0.576702	0.500079
C160	C	1.136160	0.826702	0.750079
O161	O	0.334974	-0.020119	0.000078
O162	O	0.584974	0.229881	0.250078
O163	O	0.834974	0.479881	0.500078
O164	O	1.084974	0.729881	0.750078
O165	O	0.308755	0.172007	0.000081
O166	O	0.558755	0.422007	0.250081
O167	O	0.808755	0.672007	0.500081
O168	O	1.058755	0.922007	0.750081
C169	C	0.677071	-0.030013	0.000108
C170	C	0.927071	0.219987	0.250108
C171	C	1.177071	0.469987	0.500108
C172	C	1.427071	0.719987	0.750108
C173	C	0.676305	-0.093230	0.000114
C174	C	0.926305	0.156770	0.250114
C175	C	1.176305	0.406770	0.500114
C176	C	1.426305	0.656770	0.750114
C177	C	0.723539	-0.492333	0.000073
C178	C	0.973539	-0.242333	0.250073
C179	C	1.223539	0.007667	0.500073
C180	C	1.473539	0.257667	0.750073
C181	C	0.722827	-0.551733	0.000066
C182	C	0.972827	-0.301733	0.250066
C183	C	1.222827	-0.051733	0.500066
C184	C	1.472827	0.198267	0.750066
O185	O	0.766613	-0.588478	0.000041
O186	O	1.016613	-0.338478	0.250041
O187	O	1.266613	-0.088478	0.500041
O188	O	1.516613	0.161522	0.750041
N189	N	0.670551	-0.574359	0.000059
N190	N	0.920551	-0.324359	0.250059
N191	N	1.170551	-0.074359	0.500059
N192	N	1.420551	0.175641	0.750059
C193	C	0.618983	-0.537582	0.000048
C194	C	0.868983	-0.287582	0.250048
C195	C	1.118983	-0.037582	0.500048
C196	C	1.368983	0.212418	0.750048
O197	O	0.574452	-0.562281	0.000040
O198	O	0.824452	-0.312281	0.250040
O199	O	1.074452	-0.062281	0.500040
O200	O	1.324452	0.187719	0.750040
C201	C	0.619695	-0.478182	0.000049
C202	C	0.869695	-0.228182	0.250049
C203	C	1.119695	0.021818	0.500049
C204	C	1.369695	0.271818	0.750049
C205	C	0.671974	-0.455560	0.000066
C206	C	0.921974	-0.205560	0.250066
C207	C	1.171974	0.044440	0.500066
C208	C	1.421974	0.294440	0.750066
C209	C	0.775814	-0.469710	0.000089
C210	C	1.025814	-0.219710	0.250089
C211	C	1.275814	0.030290	0.500089
C212	C	1.525814	0.280290	0.750089
C213	C	0.776525	-0.410313	0.000098
C214	C	1.026525	-0.160313	0.250098
C215	C	1.276525	0.089687	0.500098
C216	C	1.526525	0.339687	0.750098
C217	C	0.724961	-0.373540	0.000090
C218	C	0.974961	-0.123540	0.250090
C219	C	1.224961	0.126460	0.500090
C220	C	1.474961	0.376460	0.750090
C221	C	0.672685	-0.396164	0.000074
C222	C	0.922685	-0.146164	0.250074
C223	C	1.172685	0.103836	0.500074
C224	C	1.422685	0.353836	0.750074
C225	C	0.568127	-0.441406	0.000032
C226	C	0.818127	-0.191406	0.250032
C227	C	1.068127	0.058594	0.500032
C228	C	1.318127	0.308594	0.750032
C229	C	0.568844	-0.382004	0.000032
C230	C	0.818844	-0.132004	0.250032
C231	C	1.068844	0.117996	0.500032
C232	C	1.318844	0.367996	0.750032
C233	C	0.621123	-0.359381	0.000049
C234	C	0.871123	-0.109381	0.250049
C235	C	1.121123	0.140619	0.500049
C236	C	1.371123	0.390619	0.750049
C237	C	0.621832	-0.299995	0.000075
C238	C	0.871832	-0.049995	0.250075
C239	C	1.121832	0.200005	0.500075
C240	C	1.371832	0.450005	0.750075
N241	N	0.674109	-0.277368	0.000083
N242	N	0.924109	-0.027368	0.250083
N243	N	1.174109	0.222632	0.500083
N244	N	1.424109	0.472632	0.750083
C245	C	0.725673	-0.314141	0.000091
C246	C	0.975673	-0.064141	0.250091
C247	C	1.225673	0.185859	0.500091
C248	C	1.475673	0.435859	0.750091
C249	C	0.617491	-0.662324	0.000046
C250	C	0.867491	-0.412324	0.250046
C251	C	1.117491	-0.162324	0.500046
C252	C	1.367491	0.087676	0.750046
C253	C	0.616778	-0.721722	0.000052
C254	C	0.866778	-0.471722	0.250052
C255	C	1.116778	-0.221722	0.500052
C256	C	1.366778	0.028278	0.750052
C257	C	0.720623	-0.735869	0.000068
C258	C	0.970623	-0.485869	0.250068
C259	C	1.220623	-0.235869	0.500068
C260	C	1.470623	0.014131	0.750068
C261	C	0.721335	-0.676470	0.000069
C262	C	0.971335	-0.426470	0.250069
C263	C	1.221335	-0.176470	0.500069
C264	C	1.471335	0.073530	0.750069
C265	C	0.669767	-0.639698	0.000054
C266	C	0.919767	-0.389698	0.250054
C267	C	1.169767	-0.139698	0.500054
C268	C	1.419767	0.110302	0.750054
C269	C	0.727163	-0.189405	0.000109
C270	C	0.977163	0.060595	0.250109
C271	C	1.227163	0.310595	0.500109
C272	C	1.477163	0.560595	0.750109
C273	C	0.727869	-0.130003	0.000122
C274	C	0.977869	0.119997	0.250122
C275	C	1.227869	0.369997	0.500122
C276	C	1.477869	0.619997	0.750122
C277	C	0.624025	-0.115860	0.000101
C278	C	0.874025	0.134140	0.250101
C279	C	1.124025	0.384140	0.500101
C280	C	1.374025	0.634140	0.750101
C281	C	0.623318	-0.175257	0.000093
C282	C	0.873318	0.074743	0.250093
C283	C	1.123318	0.324743	0.500093
C284	C	1.373318	0.574743	0.750093
C285	C	0.674891	-0.212029	0.000094
C286	C	0.924891	0.037971	0.250094
C287	C	1.174891	0.287971	0.500094
C288	C	1.424891	0.537971	0.750094
O289	O	0.578070	-0.263215	0.000097
O290	O	0.828070	-0.013215	0.250097
O291	O	1.078070	0.236785	0.500097
O292	O	1.328070	0.486785	0.750097
O293	O	0.770196	-0.289433	0.000087
O294	O	1.020196	-0.039433	0.250087
O295	O	1.270196	0.210567	0.500087
O296	O	1.520196	0.460567	0.750087
C297	C	0.776472	0.069388	0.000103
C298	C	1.026472	0.319388	0.250103
C299	C	1.276472	0.569388	0.500103
C300	C	1.526472	0.819388	0.750103
C301	C	0.839689	0.070154	0.000107
C302	C	1.089689	0.320154	0.250107
C303	C	1.339689	0.570154	0.500107
C304	C	1.589689	0.820154	0.750107
C305	C	0.667577	0.178283	0.000067
C306	C	0.917577	0.428283	0.250067
C307	C	1.167577	0.678283	0.500067
C308	C	1.417577	0.928283	0.750067
C309	C	0.668343	0.241500	0.000054
C310	C	0.918343	0.491500	0.250054
C311	C	1.168343	0.741500	0.500054
C312	C	1.418343	0.991500	0.750054
N313	N	0.672294	0.074142	0.229989
N314	N	0.922294	0.324142	0.479989
N315	N	1.172294	0.574142	0.729989
N316	N	1.422294	0.824142	0.979989
N317	N	0.672358	0.074123	-0.229812
N318	N	0.922358	0.324123	0.020188
N319	N	1.172358	0.574123	0.270188
N320	N	1.422358	0.824123	0.520188
C321	C	0.672337	0.074130	0.589190
C322	C	0.922337	0.324130	0.839190
C323	C	1.172337	0.574130	1.089190
C324	C	1.422337	0.824130	1.339190
C325	C	0.625130	0.121025	0.551567
C326	C	0.875130	0.371025	0.801567
C327	C	1.125130	0.621025	1.051567
C328	C	1.375130	0.871025	1.301567
C329	C	0.625236	0.121195	0.448741
C330	C	0.875236	0.371195	0.698741
C331	C	1.125236	0.621195	0.948741
C332	C	1.375236	0.871195	1.198741
C333	C	0.672315	0.074136	0.410986
C334	C	0.922315	0.324136	0.660986
C335	C	1.172315	0.574136	0.910986
C336	C	1.422315	0.824136	1.160986
C337	C	0.731666	0.086779	0.448284
C338	C	0.981666	0.336779	0.698284
C339	C	1.231666	0.586779	0.948284
C340	C	1.481666	0.836779	1.198284
C341	C	0.731401	0.087112	0.551142
C342	C	0.981401	0.337112	0.801142
C343	C	1.231401	0.587112	1.051142
C344	C	1.481401	0.837112	1.301142
C345	C	0.660725	0.014450	0.551300
C346	C	0.910725	0.264450	0.801300
C347	C	1.160725	0.514450	1.051300
C348	C	1.410725	0.764450	1.301300
C349	C	0.659359	0.014856	0.448437
C350	C	0.909359	0.264856	0.698437
C351	C	1.159359	0.514856	0.948437
C352	C	1.409359	0.764856	1.198437
C353	C	0.672307	0.074138	0.310273
C354	C	0.922307	0.324138	0.560273
C355	C	1.172307	0.574138	0.810273
C356	C	1.422307	0.824138	1.060273
C357	C	0.672350	0.074128	0.689904
C358	C	0.922350	0.324128	0.939904
C359	C	1.172350	0.574128	1.189904
C360	C	1.422350	0.824128	1.439904
H361	H	-0.167632	0.164421	0.000088
H362	H	0.082368	0.414421	0.250088
H363	H	0.332368	0.664421	0.500088
H364	H	0.582368	0.914421	0.750088
N365	N	0.369139	0.184604	0.000054
N366	N	0.619139	0.434604	0.250054
N367	N	0.869139	0.684604	0.500054
N368	N	1.119139	0.934604	0.750054
H369	H	0.344180	0.186628	-0.054646
H370	H	0.594180	0.436628	0.195354
H371	H	0.844180	0.686628	0.445354
H372	H	1.094180	0.936628	0.695354
H373	H	0.344213	0.186602	0.054795
H374	H	0.594213	0.436602	0.304795
H375	H	0.844213	0.686602	0.554795
H376	H	1.094213	0.936602	0.804795
N377	N	-0.147930	-0.037797	0.000116
N378	N	0.102070	0.212203	0.250116
N379	N	0.352070	0.462203	0.500116
N380	N	0.602070	0.712203	0.750116
H381	H	-0.115616	-0.070352	0.000121
H382	H	0.134384	0.179648	0.250121
H383	H	0.384384	0.429648	0.500121
H384	H	0.634384	0.679648	0.750121
H385	H	-0.172268	-0.040356	0.054823
H386	H	0.077732	0.209644	0.304823
H387	H	0.327732	0.459644	0.554823
H388	H	0.577732	0.709644	0.804823
H389	H	0.138375	-0.072634	0.000155
H390	H	0.388375	0.177366	0.250155
H391	H	0.638375	0.427366	0.500155
H392	H	0.888375	0.677366	0.750155
H393	H	0.763906	-0.658056	0.000082
H394	H	1.013906	-0.408056	0.250082
H395	H	1.263906	-0.158056	0.500082
H396	H	1.513906	0.091944	0.750082
N397	N	0.398527	-0.031256	0.000086
N398	N	0.648527	0.218744	0.250086
N399	N	0.898527	0.468744	0.500086
N400	N	1.148527	0.718744	0.750086
H401	H	0.430838	-0.063814	0.000086
H402	H	0.680838	0.186186	0.250086
H403	H	0.930838	0.436186	0.500086
H404	H	1.180838	0.686186	0.750086
H405	H	0.374191	-0.033813	0.054796
H406	H	0.624191	0.216187	0.304796
H407	H	0.874191	0.466187	0.554796
H408	H	1.124191	0.716187	0.804796
H409	H	-0.034198	-0.022693	0.000126
H410	H	0.215802	0.227307	0.250126
H411	H	0.465802	0.477307	0.500126
H412	H	0.715802	0.727307	0.750126
H413	H	0.525555	-0.459814	0.000013
H414	H	0.775555	-0.209814	0.250013
H415	H	1.025555	0.040186	0.500013
H416	H	1.275555	0.290186	0.750013
H417	H	0.512280	-0.016146	0.000081
H418	H	0.762280	0.233854	0.250081
H419	H	1.012280	0.483854	0.500081
H420	H	1.262280	0.733854	0.750081
N421	N	0.601525	0.002156	0.416141
N422	N	0.851525	0.252156	0.666141
N423	N	1.101525	0.502156	0.916141
N424	N	1.351525	0.752156	1.166141
H425	H	0.606248	-0.034539	0.380667
H426	H	0.856248	0.215461	0.630667
H427	H	1.106248	0.465461	0.880667
H428	H	1.356248	0.715461	1.130667
H429	H	0.575800	-0.002127	0.468732
H430	H	0.825800	0.247873	0.718732
H431	H	1.075800	0.497873	0.968732
H432	H	1.325800	0.747873	1.218732
H433	H	0.526850	-0.352066	0.000019
H434	H	0.776850	-0.102066	0.250019
H435	H	1.026850	0.147934	0.500019
H436	H	1.276850	0.397934	0.750019
N437	N	0.212272	0.234724	0.000043
N438	N	0.462272	0.484724	0.250043
N439	N	0.712272	0.734724	0.500043
N440	N	0.962272	0.984724	0.750043
H441	H	0.179956	0.267277	0.000038
H442	H	0.429956	0.517277	0.250038
H443	H	0.679956	0.767277	0.500038
H444	H	0.929956	1.017277	0.750038
H445	H	0.236605	0.237289	0.054745
H446	H	0.486605	0.487289	0.304745
H447	H	0.736605	0.737289	0.554745
H448	H	0.986605	0.987289	0.804745
H449	H	0.580748	-0.193677	0.000104
H450	H	0.830748	0.056323	0.250104
H451	H	1.080748	0.306323	0.500104
H452	H	1.330748	0.556323	0.750104
H453	H	0.695155	-0.020444	0.575631
H454	H	0.945155	0.229556	0.825631
H455	H	1.195155	0.479556	1.075631
H456	H	1.445155	0.729556	1.325631
N457	N	0.784259	-0.105603	0.000145
N458	N	1.034259	0.144397	0.250145
N459	N	1.284259	0.394397	0.500145
N460	N	1.534259	0.644397	0.750145
H461	H	0.816815	-0.137915	0.000146
H462	H	1.066815	0.112085	0.250146
H463	H	1.316815	0.362085	0.500146
H464	H	1.566815	0.612085	0.750146
H465	H	0.786826	-0.081260	-0.054555
H466	H	1.036826	0.168740	0.195445
H467	H	1.286826	0.418740	0.445445
H468	H	1.536826	0.668740	0.695445
N469	N	0.255847	-0.084966	0.000166
N470	N	0.505847	0.165034	0.250166
N471	N	0.755847	0.415034	0.500166
N472	N	1.005847	0.665034	0.750166
H473	H	0.232498	-0.118189	0.000178
H474	H	0.482498	0.131811	0.250178
H475	H	0.732498	0.381811	0.500178
H476	H	0.982498	0.631811	0.750178
H477	H	0.280804	-0.086940	-0.054539
H478	H	0.530804	0.163060	0.195461
H479	H	0.780804	0.413060	0.445461
H480	H	1.030804	0.663060	0.695461
H481	H	0.762610	-0.765821	0.000071
H482	H	1.012610	-0.515821	0.250071
H483	H	1.262610	-0.265821	0.500071
H484	H	1.512610	-0.015821	0.750071
H485	H	0.582043	-0.085909	0.000098
H486	H	0.832043	0.164091	0.250098
H487	H	1.082043	0.414091	0.500098
H488	H	1.332043	0.664091	0.750098
H489	H	0.574207	-0.740136	0.000053
H490	H	0.824207	-0.490136	0.250053
H491	H	1.074207	-0.240136	0.500053
H492	H	1.324207	0.009864	0.750053
N493	N	0.566786	0.111285	0.415330
N494	N	0.816786	0.361285	0.665330
N495	N	1.066786	0.611285	0.915330
N496	N	1.316786	0.861285	1.165330
H497	H	0.540719	0.106768	0.467420
H498	H	0.790719	0.356768	0.717420
H499	H	1.040719	0.606768	0.967420
H500	H	1.290719	0.856768	1.217420
H501	H	0.550231	0.145073	0.378199
H502	H	0.800231	0.395073	0.628199
H503	H	1.050231	0.645073	0.878199
H504	H	1.300231	0.895073	1.128199
H505	H	0.580859	0.113670	0.576323
H506	H	0.830859	0.363670	0.826323
H507	H	1.080859	0.613670	1.076323
H508	H	1.330859	0.863670	1.326323
H509	H	0.819097	-0.391900	0.000108
H510	H	1.069097	-0.141900	0.250108
H511	H	1.319097	0.108100	0.500108
H512	H	1.569097	0.358100	0.750108
N513	N	0.782787	-0.229060	0.000111
N514	N	1.032787	0.020940	0.250111
N515	N	1.282787	0.270940	0.500111
N516	N	1.532787	0.520940	0.750111
H517	H	0.816007	-0.205707	0.000124
H518	H	1.066007	0.044293	0.250124
H519	H	1.316007	0.294293	0.500124
H520	H	1.566007	0.544293	0.750124
H521	H	0.784747	-0.254017	0.054814
H522	H	1.034747	-0.004017	0.304814
H523	H	1.284747	0.245983	0.554814
H524	H	1.534747	0.495983	0.804814
N525	N	0.831434	-0.509367	0.000098
N526	N	1.081434	-0.259367	0.250098
N527	N	1.331434	-0.009367	0.500098
N528	N	1.581434	0.240633	0.750098
H529	H	0.864653	-0.486012	0.000109
H530	H	1.114653	-0.236012	0.250109
H531	H	1.364653	0.013988	0.500109
H532	H	1.614653	0.263988	0.750109
H533	H	0.833394	-0.534320	0.054806
H534	H	1.083394	-0.284320	0.304806
H535	H	1.333394	-0.034320	0.554806
H536	H	1.583394	0.215680	0.804806
N537	N	0.561868	-0.622664	0.000038
N538	N	0.811868	-0.372664	0.250038
N539	N	1.061868	-0.122664	0.500038
N540	N	1.311868	0.127336	0.750038
H541	H	0.528647	-0.646015	0.000034
H542	H	0.778647	-0.396015	0.250034
H543	H	1.028647	-0.146015	0.500034
H544	H	1.278647	0.103985	0.750034
H545	H	0.559891	-0.597714	0.054743
H546	H	0.809891	-0.347714	0.304743
H547	H	1.059891	-0.097714	0.554743
H548	H	1.309891	0.152286	0.804743
N549	N	0.088822	0.233245	0.000114
N550	N	0.338822	0.483245	0.250114
N551	N	0.588822	0.733245	0.500114
N552	N	0.838822	0.983245	0.750114
H553	H	0.112176	0.266464	0.000120
H554	H	0.362176	0.516464	0.250120
H555	H	0.612176	0.766464	0.500120
H556	H	0.862176	1.016464	0.750120
H557	H	0.063860	0.235234	-0.054577
H558	H	0.313860	0.485234	0.195423
H559	H	0.563860	0.735234	0.445423
H560	H	0.813860	0.985234	0.695423
H561	H	0.632406	0.165070	0.577398
H562	H	0.882406	0.415070	0.827398
H563	H	1.132406	0.665070	1.077398
H564	H	1.382406	0.915070	1.327398
N565	N	0.634859	0.179908	0.416116
N566	N	0.884859	0.429908	0.666116
N567	N	1.134859	0.679908	0.916116
N568	N	1.384859	0.929908	1.166116
H569	H	0.639068	0.205775	0.468553
H570	H	0.889068	0.455775	0.718553
H571	H	1.139068	0.705775	0.968553
H572	H	1.389068	0.955775	1.218553
H573	H	0.670826	0.176785	0.378947
H574	H	0.920826	0.426785	0.628947
H575	H	1.170826	0.676785	0.878947
H576	H	1.420826	0.926785	1.128947
H577	H	-0.059867	0.165717	0.000083
H578	H	0.190133	0.415717	0.250083
H579	H	0.440133	0.665717	0.500083
H580	H	0.690133	0.915717	0.750083
N581	N	0.745024	0.144748	0.582908
N582	N	0.995024	0.394748	0.832908
N583	N	1.245024	0.644748	1.082908
N584	N	1.495024	0.894748	1.332908
H585	H	0.751143	0.169700	0.530095
H586	H	1.001143	0.419700	0.780095
H587	H	1.251143	0.669700	1.030095
H588	H	1.501143	0.919700	1.280095
H589	H	0.712097	0.163653	0.619705
H590	H	0.962097	0.413653	0.869705
H591	H	1.212097	0.663653	1.119705
H592	H	1.462097	0.913653	1.369705
H593	H	0.767609	0.054284	0.576029
H594	H	1.017609	0.304284	0.826029
H595	H	1.267609	0.554284	1.076029
H596	H	1.517609	0.804284	1.326029
H597	H	0.767620	0.053517	0.423827
H598	H	1.017620	0.303517	0.673827
H599	H	1.267620	0.553517	0.923827
H600	H	1.517620	0.803517	1.173827
H601	H	0.742205	0.129794	0.422508
H602	H	0.992205	0.379794	0.672508
H603	H	1.242205	0.629794	0.922508
H604	H	1.492205	0.879794	1.172508
H605	H	0.618404	0.002210	0.577287
H606	H	0.868404	0.252210	0.827287
H607	H	1.118404	0.502210	1.077287
H608	H	1.368404	0.752210	1.327287
H609	H	0.691535	-0.021650	0.422741
H610	H	0.941535	0.228350	0.672741
H611	H	1.191535	0.478350	0.922741
H612	H	1.441535	0.728350	1.172741
H613	H	0.486602	0.172255	0.000036
H614	H	0.736602	0.422255	0.250036
H615	H	0.986602	0.672255	0.500036
H616	H	1.236602	0.922255	0.750036
