data_functionalizedCrystal
_audit_creation_method	'MofGen! by Chris Wilmer'
_symmetry_space_group_name_H-M	'P1'
_symmetry_Int_Tables_number	1
_symmetry_cell_setting	triclinic
loop_
_symmetry_equiv_pos_as_xyz
  x,y,z
_cell_length_a	12.594516
_cell_length_b	21.395362
_cell_length_c	21.395356
_cell_angle_alpha	90.047076
_cell_angle_beta	89.979423
_cell_angle_gamma	89.965683
loop_
_atom_site_label
_atom_site_type_symbol
_atom_site_fract_x
_atom_site_fract_y
_atom_site_fract_z
Zn1	Zn	-0.423250	-0.957917	-0.354685
Zn2	Zn	-0.601243	-0.957848	-0.249921
Zn3	Zn	-0.423336	-0.853134	-0.249879
Zn4	Zn	-0.601244	-0.853128	-0.354618
O5	O	-0.512268	-0.905507	-0.302276
O6	O	-0.446825	-1.045586	-0.340833
O7	O	-0.577679	-0.943931	-0.162237
O8	O	-0.274378	-0.867065	-0.263792
O9	O	-0.577596	-1.045536	-0.263863
O10	O	-0.274316	-0.944049	-0.340793
O11	O	-0.446971	-0.866998	-0.162206
O12	O	-0.446972	-0.765455	-0.263727
O13	O	-0.577597	-0.867055	-0.442305
O14	O	-0.577680	-0.765451	-0.340678
O15	O	-0.446826	-0.944043	-0.442354
O16	O	-0.750189	-0.943926	-0.263798
O17	O	-0.750189	-0.866988	-0.340719
C18	C	-0.512336	-0.742719	-0.302191
C19	C	-0.512391	-0.673078	-0.302170
C20	C	-0.788809	-0.905466	-0.302269
C21	C	-0.907114	-0.905506	-0.302288
C22	C	-0.580543	-0.640379	-0.342176
C23	C	-0.580521	-0.574944	-0.342200
C24	C	-0.512359	-0.542210	-0.302205
C25	C	-0.444193	-0.574917	-0.262196
C26	C	-0.444209	-0.640351	-0.262179
C27	C	-0.503807	-0.438485	-0.245792
C28	C	-0.503798	-0.373052	-0.245809
C29	C	-0.512304	-0.340389	-0.302260
C30	C	-0.520839	-0.373167	-0.358697
C31	C	-0.520855	-0.438602	-0.358679
C32	C	-0.512333	-0.471257	-0.302220
C33	C	-0.580436	-0.236738	-0.342295
C34	C	-0.580407	-0.171301	-0.342319
C35	C	-0.444085	-0.171275	-0.262310
C36	C	-0.444108	-0.236711	-0.262292
C37	C	-0.512290	-0.269438	-0.302283
C38	C	-0.976407	-0.863655	-0.344096
C39	C	-1.047271	-0.848387	-0.286917
C40	C	-1.047049	-0.920831	-0.359476
C41	C	-0.976420	-0.890207	-0.245079
C42	C	-0.976193	-0.962678	-0.317677
C43	C	-1.047025	-0.947431	-0.260459
C44	C	-0.234647	-0.905565	-0.302296
C45	C	-0.116342	-0.905590	-0.302304
C46	C	-0.512202	-0.905556	-0.465699
C47	C	-0.512174	-0.905577	-0.535340
C48	C	-0.512219	-0.068930	-0.302343
C49	C	-0.512243	-0.138572	-0.302325
C50	C	-0.444107	-0.865529	-0.568028
C51	C	-0.444087	-0.865527	-0.633463
C52	C	-0.512123	-0.905584	-0.666209
C53	C	-0.580204	-0.945635	-0.633513
C54	C	-0.580229	-0.945632	-0.568079
C55	C	-0.520461	-0.962038	-0.769919
C56	C	-0.520428	-0.962042	-0.835352
C57	C	-0.512051	-0.905595	-0.868030
C58	C	-0.503685	-0.849141	-0.835266
C59	C	-0.503711	-0.849137	-0.769832
C60	C	-0.512104	-0.905592	-0.737161
C61	C	-0.443959	-0.865540	-0.971669
C62	C	-0.443947	-0.865537	-1.037106
C63	C	-0.580058	-0.945652	-1.037155
C64	C	-0.580076	-0.945649	-0.971720
C65	C	-0.512021	-0.905594	-0.938981
C66	C	-0.512257	-0.905494	-0.139488
C67	C	-0.511985	-0.905594	-0.069847
H68	H	-0.636060	-0.667022	-0.374741
N69	N	-0.374487	-0.270106	-0.221420
N70	N	-0.313628	-0.240874	-0.185715
H71	H	-0.264453	-0.264459	-0.156848
H72	H	-0.496855	-0.346369	-0.199854
H73	H	-0.527273	-1.008008	-0.743318
H74	H	-1.077838	-0.982859	-0.225069
N75	N	-0.649771	-0.986545	-0.534696
N76	N	-0.710522	-1.022304	-0.563937
H77	H	-0.759638	-1.051200	-0.540360
N78	N	-0.529505	-0.472094	-0.416320
N79	N	-0.529481	-0.530516	-0.416295
H80	H	-0.535568	-0.554172	-0.457005
H81	H	-0.527763	-0.346575	-0.404665
H82	H	-0.636019	-0.548315	-0.374780
N83	N	-0.495099	-0.471836	-0.188119
N84	N	-0.487482	-0.442565	-0.137736
H85	H	-0.481326	-0.466118	-0.097006
N86	N	-1.086424	-0.787777	-0.270596
N87	N	-1.063831	-0.741595	-0.303772
H88	H	-1.091479	-0.698787	-0.292249
H89	H	-0.635948	-0.263386	-0.374861
N90	N	-1.085991	-0.937046	-0.420135
N91	N	-1.144099	-0.899760	-0.449323
H92	H	-1.171601	-0.911206	-0.492165
N93	N	-0.650024	-0.137907	-0.383197
N94	N	-0.710888	-0.167139	-0.418899
H95	H	-0.760056	-0.143555	-0.447770
H96	H	-0.388693	-0.548260	-0.229634
H97	H	-0.388580	-0.144624	-0.229749
H98	H	-0.945524	-0.877223	-0.196709
H99	H	-0.388653	-0.832916	-0.660082
H100	H	-0.945397	-0.828201	-0.379399
H101	H	-0.635501	-0.978262	-0.945106
N102	N	-0.937009	-1.023270	-0.334027
N103	N	-0.959556	-1.046583	-0.385938
H104	H	-0.931882	-1.089377	-0.397492
N105	N	-0.495165	-0.791471	-0.736375
N106	N	-0.487681	-0.741073	-0.765552
H107	H	-0.481648	-0.700345	-0.741923
N108	N	-0.374592	-0.824608	-0.534596
N109	N	-0.313826	-0.788850	-0.563795
H110	H	-0.264733	-0.759947	-0.540183
N111	N	-0.495117	-0.791482	-0.868646
N112	N	-0.495098	-0.791490	-0.927069
H113	H	-0.489043	-0.750771	-0.950647
H114	H	-0.388546	-0.832925	-0.945012
H115	H	-0.388708	-0.666974	-0.229601
H116	H	-0.388522	-0.832920	-1.063719
H117	H	-0.635452	-0.978268	-1.063816
H118	H	-0.527235	-1.008010	-0.862023
H119	H	-0.635600	-0.978250	-0.660179
