data_functionalizedCrystal
_audit_creation_method	'MofGen! by Chris Wilmer'
_symmetry_space_group_name_H-M	'P1'
_symmetry_Int_Tables_number	1
_symmetry_cell_setting	triclinic
loop_
_symmetry_equiv_pos_as_xyz
  x,y,z
_cell_length_a	10.908878
_cell_length_b	12.837942
_cell_length_c	10.065875
_cell_angle_alpha	99.723749
_cell_angle_beta	83.443480
_cell_angle_gamma	77.456865
loop_
_atom_site_label
_atom_site_type_symbol
_atom_site_fract_x
_atom_site_fract_y
_atom_site_fract_z
O1	O	1.701238	-0.174891	-0.113467
O2	O	1.337076	-0.095614	-0.113475
O3	O	1.511081	-0.284762	-0.113463
O4	O	1.527233	0.014257	-0.113479
O5	O	1.477915	-0.248575	0.113524
O6	O	1.303910	-0.059427	0.113511
O7	O	1.668072	-0.138704	0.113520
Zn8	Zn	1.480725	-0.093320	0.149555
Zn9	Zn	1.524423	-0.140998	-0.149510
O10	O	1.494067	0.050444	0.113507
C11	C	1.273558	-0.070112	0.000017
C12	C	1.133706	-0.048048	0.000014
C13	C	1.489042	-0.304349	0.000030
C14	C	1.472771	-0.416621	0.000027
C15	C	1.074845	-0.128555	0.000018
C16	C	0.930301	-0.105753	0.000015
C17	C	1.668386	-0.691305	0.000003
C18	C	1.653104	-0.796796	0.000000
C19	C	1.426927	-0.733100	0.000009
C20	C	1.442209	-0.627608	0.000012
C21	C	1.562943	-0.606715	0.000011
C22	C	1.578222	-0.501220	0.000023
C23	C	1.352048	-0.437527	0.000023
C24	C	1.336766	-0.543019	0.000020
C25	C	1.731590	-0.164207	0.000025
C26	C	1.871444	-0.186272	0.000019
C27	C	1.516106	0.070030	0.000012
C28	C	1.532378	0.182301	0.000006
N29	N	1.450912	-0.060783	0.353658
N30	N	1.554245	-0.173545	-0.353613
C31	C	1.514041	-0.129683	0.421441
C32	C	1.491107	-0.104635	0.578607
H33	H	1.131464	-0.214362	0.000017
Br34	Br	0.835954	0.037272	-0.000011
Br35	Br	1.332515	0.068439	0.450851
H36	H	0.928057	-0.272086	0.000014
H37	H	1.328634	-0.750134	-0.000004
H38	H	1.625271	-0.251084	0.588071
H39	H	1.077089	0.037757	0.000003
H40	H	1.766690	-0.674292	0.000015
Br41	Br	1.742069	-0.472862	0.000036
Br42	Br	1.172924	-0.571388	0.000004
H43	H	1.738969	-0.865669	-0.000010
H44	H	1.585062	-0.207217	0.363122
Br45	Br	1.208932	-0.322716	0.000058
Br46	Br	1.372705	0.024591	0.675795
