data_functionalizedCrystal
_audit_creation_method	'MofGen! by Chris Wilmer'
_symmetry_space_group_name_H-M	'P1'
_symmetry_Int_Tables_number	1
_symmetry_cell_setting	triclinic
loop_
_symmetry_equiv_pos_as_xyz
  x,y,z
_cell_length_a	14.044220
_cell_length_b	14.044220
_cell_length_c	13.101039
_cell_angle_alpha	93.669626
_cell_angle_beta	86.340132
_cell_angle_gamma	93.188878
loop_
_atom_site_label
_atom_site_type_symbol
_atom_site_fract_x
_atom_site_fract_y
_atom_site_fract_z
O1	O	1.281968	0.225349	-0.085100
O2	O	1.005298	0.217042	-0.085126
O3	O	1.139480	0.082860	-0.085109
O4	O	1.147786	0.359531	-0.085117
O5	O	1.129854	0.092504	0.085320
O6	O	0.995672	0.226686	0.085302
O7	O	1.272342	0.234994	0.085329
Zn8	Zn	1.132479	0.232371	0.112375
Zn9	Zn	1.145161	0.219664	-0.112172
O10	O	1.138160	0.369176	0.085311
C11	C	0.964863	0.218228	0.000085
C12	C	0.858721	0.207383	0.000075
C13	C	1.146609	0.399975	0.000096
C14	C	1.157454	0.506117	0.000093
C15	C	1.131031	0.052060	0.000104
C16	C	1.120187	-0.054083	0.000100
C17	C	0.664382	0.187558	0.000096
C18	C	0.613252	0.264472	0.000098
C19	C	0.505115	0.253442	0.000109
C20	C	0.772529	0.198587	0.000084
C21	C	1.312777	0.233807	0.000115
C22	C	1.418919	0.244652	0.000119
N23	N	1.123830	0.241044	0.265622
C24	C	1.177279	0.700456	0.000100
C25	C	1.100365	0.751585	0.000094
C26	C	1.111397	0.859721	0.000097
C27	C	1.166249	0.592309	0.000096
N28	N	1.153817	0.210984	-0.265420
C29	C	1.112064	0.252852	0.474663
C30	C	1.165580	0.199179	0.525546
C31	C	1.159033	0.205749	0.641863
C32	C	1.118610	0.246283	0.358335
H33	H	0.650692	0.338606	0.000091
N34	N	1.232790	0.131786	0.467535
H35	H	1.300466	0.149475	0.486143
H36	H	1.214849	0.064169	0.486160
H37	H	0.626945	0.113431	0.000104
H38	H	1.026232	0.714145	0.000087
H39	H	1.061335	0.303734	0.518454
N40	N	1.275472	0.750039	0.000129
H41	H	1.269531	0.821380	0.000138
H42	H	1.307698	0.734475	0.063321
