data_functionalizedCrystal
_audit_creation_method	'MofGen! by Chris Wilmer'
_symmetry_space_group_name_H-M	'P1'
_symmetry_Int_Tables_number	1
_symmetry_cell_setting	triclinic
loop_
_symmetry_equiv_pos_as_xyz
  x,y,z
_cell_length_a	17.640112
_cell_length_b	16.625546
_cell_length_c	16.625548
_cell_angle_alpha	90.011514
_cell_angle_beta	78.812981
_cell_angle_gamma	101.247770
loop_
_atom_site_label
_atom_site_type_symbol
_atom_site_fract_x
_atom_site_fract_y
_atom_site_fract_z
Zn1	Zn	1.208279	-0.071624	0.207119
Zn2	Zn	1.708279	0.428376	0.707119
Zn3	Zn	1.208221	-0.206435	0.072293
Zn4	Zn	1.708221	0.293565	0.572293
Zn5	Zn	1.076133	-0.098898	0.099508
Zn6	Zn	1.576133	0.401102	0.599508
Zn7	Zn	1.076068	-0.233722	0.234293
Zn8	Zn	1.576068	0.266278	0.734293
O9	O	1.142175	-0.152670	0.153303
O10	O	1.642175	0.347330	0.653303
O11	O	1.318882	-0.066673	0.166473
O12	O	1.818882	0.433327	0.666473
O13	O	1.190702	-0.192164	-0.036929
O14	O	1.690702	0.307836	0.463071
O15	O	1.093715	0.017563	0.113800
O16	O	1.593715	0.517563	0.613800
O17	O	1.318839	-0.165718	0.067417
O18	O	1.818839	0.334282	0.567417
O19	O	1.190802	0.037601	0.192861
O20	O	1.690802	0.537601	0.692861
O21	O	1.093658	-0.113157	-0.016935
O22	O	1.593658	0.386843	0.483065
O23	O	0.965515	-0.139616	0.140149
O24	O	1.465515	0.360384	0.640149
O25	O	1.093603	-0.212225	0.343521
O26	O	1.593603	0.287775	0.843521
O27	O	0.965466	-0.238671	0.239175
O28	O	1.465466	0.261329	0.739175
O29	O	1.190738	-0.093132	0.323557
O30	O	1.690738	0.406868	0.823557
O31	O	1.190639	-0.322898	0.093766
O32	O	1.690639	0.177102	0.593766
O33	O	1.093546	-0.342945	0.212786
O34	O	1.593546	0.157055	0.712786
C35	C	0.936811	-0.195065	0.195564
C36	C	1.436811	0.304935	0.695564
C37	C	0.848954	-0.213221	0.213663
C38	C	1.348954	0.286779	0.713663
C39	C	0.560023	-0.014724	0.015817
C40	C	1.060023	0.485276	0.515817
C41	C	0.477468	-0.031801	0.032834
C42	C	0.977468	0.468199	0.532834
C43	C	0.477473	-0.135089	0.135772
C44	C	0.977473	0.364911	0.635772
C45	C	0.560029	-0.118018	0.118766
C46	C	1.060029	0.381982	0.618766
C47	C	0.601297	-0.057835	0.058787
C48	C	1.101297	0.442165	0.558787
C49	C	0.601303	-0.161129	0.161737
C50	C	1.101303	0.338871	0.661737
C51	C	0.683851	-0.144062	0.144729
C52	C	1.183851	0.355938	0.644729
C53	C	0.725126	-0.083884	0.084751
C54	C	1.225126	0.416116	0.584751
C55	C	0.683846	-0.040768	0.041780
C56	C	1.183846	0.459232	0.541780
C57	C	0.560033	-0.221315	0.221711
C58	C	1.060033	0.278685	0.721711
C59	C	0.601307	-0.264426	0.264682
C60	C	1.101307	0.235574	0.764682
C61	C	0.683857	-0.247355	0.247678
C62	C	1.183857	0.252645	0.747678
C63	C	0.725132	-0.187177	0.187700
C64	C	1.225132	0.312823	0.687700
C65	C	0.725137	-0.290471	0.290650
C66	C	1.225137	0.209529	0.790650
C67	C	0.807686	-0.273404	0.273642
C68	C	1.307686	0.226596	0.773642
C69	C	0.807680	-0.170110	0.170693
C70	C	1.307680	0.329890	0.670693
C71	C	1.142101	-0.362176	0.153285
C72	C	1.642101	0.137824	0.653285
C73	C	1.142141	-0.451789	0.153289
C74	C	1.642141	0.048211	0.653289
C75	C	1.142279	-0.779936	0.153345
C76	C	1.642279	-0.279936	0.653345
C77	C	1.142238	-0.688636	0.153332
C78	C	1.642238	-0.188636	0.653332
C79	C	1.142209	-0.615865	0.153317
C80	C	1.642209	-0.115865	0.653317
C81	C	1.142170	-0.524559	0.153305
C82	C	1.642170	-0.024559	0.653305
C83	C	1.348342	-0.110110	0.110878
C84	C	1.848342	0.389890	0.610878
C85	C	1.436198	-0.091973	0.092799
C86	C	1.936198	0.408027	0.592799
C87	C	1.142170	-0.152680	0.363613
C88	C	1.642170	0.347320	0.863613
C89	C	1.142168	-0.152685	0.453235
C90	C	1.642168	0.347315	0.953235
C91	C	1.142272	0.057659	0.153335
C92	C	1.642272	0.557659	0.653335
C93	C	1.142313	0.147289	0.153348
C94	C	1.642313	0.647289	0.653348
C95	C	1.142165	-0.152689	0.526018
C96	C	1.642165	0.347311	1.026018
C97	C	1.142164	-0.152686	0.617326
C98	C	1.642164	0.347314	1.117326
C99	C	1.142168	-0.152679	0.690102
C100	C	1.642168	0.347321	1.190102
C101	C	1.142168	-0.152677	0.781416
C102	C	1.642168	0.347323	1.281416
C103	C	1.142174	-0.152677	0.943813
C104	C	1.642174	0.347323	1.443813
C105	C	1.142171	-0.152669	0.854192
C106	C	1.642171	0.347331	1.354192
H107	H	0.691524	-0.339477	0.339479
H108	H	1.191524	0.160523	0.839479
H109	H	0.492817	-0.235209	0.235557
H110	H	0.992817	0.264791	0.735557
H111	H	0.841292	-0.308508	0.308634
H112	H	1.341292	0.191492	0.808634
H113	H	0.841283	-0.121092	0.121864
H114	H	1.341283	0.378908	0.621864
H115	H	0.593626	0.034294	-0.033012
H116	H	1.093626	0.534294	0.466988
F117	F	0.433544	0.014084	-0.012910
F118	F	0.933544	0.514084	0.487090
F119	F	0.433543	-0.199145	0.199596
F120	F	0.933543	0.300855	0.699596
F121	F	0.557378	-0.328482	0.328505
F122	F	1.057378	0.171518	0.828505
H123	H	0.717449	0.008250	-0.007049
H124	H	1.217449	0.508250	0.492951
F125	F	0.812982	-0.065723	0.066646
F126	F	1.312982	0.434277	0.566646
