data_functionalizedCrystal
_audit_creation_method	'MofGen! by Chris Wilmer'
_symmetry_space_group_name_H-M	'P1'
_symmetry_Int_Tables_number	1
_symmetry_cell_setting	triclinic
loop_
_symmetry_equiv_pos_as_xyz
  x,y,z
_cell_length_a	16.959455
_cell_length_b	16.959453
_cell_length_c	12.759393
_cell_angle_alpha	90.035355
_cell_angle_beta	90.019104
_cell_angle_gamma	90.016935
loop_
_atom_site_label
_atom_site_type_symbol
_atom_site_fract_x
_atom_site_fract_y
_atom_site_fract_z
Zn1	Zn	1.208422	-0.314697	0.594014
Zn2	Zn	1.208333	-0.446899	0.418323
Zn3	Zn	1.076239	-0.314732	0.418347
Zn4	Zn	1.076215	-0.446830	0.593958
O5	O	1.142302	-0.380789	0.506161
O6	O	1.319021	-0.332248	0.570721
O7	O	1.190784	-0.429410	0.271305
O8	O	1.093820	-0.204116	0.441683
O9	O	1.318956	-0.429377	0.441642
O10	O	1.190934	-0.204091	0.570744
O11	O	1.093735	-0.332307	0.271323
O12	O	0.965625	-0.332240	0.441629
O13	O	1.093779	-0.429259	0.740987
O14	O	0.965607	-0.429293	0.570650
O15	O	1.190911	-0.332181	0.741028
O16	O	1.190760	-0.557501	0.441589
O17	O	1.093694	-0.557450	0.570627
C18	C	0.936936	-0.380763	0.506136
C19	C	0.849079	-0.380771	0.506151
C20	C	0.477589	-0.330213	0.439120
C21	C	0.477619	-0.431431	0.573262
C22	C	0.560165	-0.431420	0.573255
C23	C	0.601426	-0.380805	0.506179
C24	C	0.560142	-0.330202	0.439109
C25	C	0.601455	-0.482028	0.640316
C26	C	0.684006	-0.482019	0.640312
C27	C	0.725269	-0.431400	0.573240
C28	C	0.683980	-0.380794	0.506168
C29	C	0.725241	-0.330179	0.439092
C30	C	0.683954	-0.279569	0.372025
C31	C	0.601405	-0.279582	0.372037
C32	C	0.807818	-0.431386	0.573227
C33	C	0.807795	-0.330168	0.439081
C34	C	1.142236	-0.586156	0.506122
C35	C	1.142280	-0.674012	0.506141
C36	C	1.192934	-1.045416	0.573490
C37	C	1.091891	-1.045560	0.438987
C38	C	1.091862	-0.963014	0.438963
C39	C	1.142368	-0.921665	0.506205
C40	C	1.192905	-0.962863	0.573470
C41	C	1.041321	-0.921810	0.371706
C42	C	1.041289	-0.839259	0.371680
C43	C	1.091800	-0.797909	0.438917
C44	C	1.142339	-0.839112	0.506185
C45	C	1.192846	-0.797763	0.573426
C46	C	1.243389	-0.838964	0.640689
C47	C	1.243416	-0.921513	0.640707
C48	C	1.091773	-0.715361	0.438899
C49	C	1.192817	-0.715210	0.573406
C50	C	1.348470	-0.380816	0.506185
C51	C	1.436327	-0.380828	0.506196
C52	C	1.142352	-0.380709	0.780194
C53	C	1.142374	-0.380674	0.896971
C54	C	1.142390	-0.174621	0.506222
C55	C	1.142427	-0.086765	0.506248
C56	C	1.142298	-0.380813	0.233193
C57	C	1.142430	-0.380625	0.116417
C58	C	1.091847	-0.431181	1.061538
C59	C	1.091816	-0.431204	0.951814
C60	C	1.192959	-0.330112	0.951857
C61	C	1.192984	-0.330086	1.061579
C62	C	1.033455	-0.489549	1.061512
C63	C	1.033425	-0.489572	0.951788
H64	H	0.841431	-0.472595	0.627829
C65	C	0.452187	-0.196323	0.388266
C66	C	0.432210	-0.274583	0.365402
H67	H	0.424167	-0.161980	0.342758
H68	H	0.507249	-0.189083	0.378656
H69	H	0.438680	-0.184828	0.458888
H70	H	0.445723	-0.286079	0.294781
H71	H	0.377136	-0.281827	0.375003
H72	H	0.972250	-0.473140	1.091293
C73	C	1.281801	-0.813405	0.818635
C74	C	1.298900	-0.793505	0.714605
H75	H	1.316066	-0.785334	0.864265
H76	H	1.289065	-0.868456	0.828269
H77	H	1.228676	-0.799908	0.833927
H78	H	1.352024	-0.807008	0.699310
H79	H	1.291643	-0.738442	0.704966
C80	C	1.288314	-1.047989	0.700470
C81	C	1.298962	-0.966802	0.714647
H82	H	1.322602	-1.075949	0.746124
H83	H	1.299922	-1.061549	0.629906
H84	H	1.235200	-1.061529	0.715783
H85	H	1.352076	-0.953261	0.699326
H86	H	1.287361	-0.953236	0.785226
C87	C	1.140310	-0.581944	1.073505
C88	C	1.063038	-0.568044	1.107421
H89	H	1.158572	-0.630406	1.101840
H90	H	1.173473	-0.540242	1.096522
H91	H	1.141284	-0.584622	0.999149
H92	H	1.062064	-0.565360	1.181777
H93	H	1.029865	-0.609756	1.084410
C94	C	1.299328	-0.319064	1.184996
C95	C	1.248571	-0.274503	1.121913
H96	H	1.333639	-0.284744	1.222250
H97	H	1.329550	-0.353500	1.142184
H98	H	1.269215	-0.349158	1.233350
H99	H	1.278684	-0.244412	1.073554
H100	H	1.218346	-0.240052	1.164729
H101	H	1.234088	-1.078966	0.628251
H102	H	0.975270	-0.467649	0.917766
H103	H	0.717616	-0.523229	0.694923
H104	H	0.841384	-0.288946	0.384465
H105	H	1.233949	-0.681549	0.628159
C106	C	0.993707	-0.602180	0.850556
C107	C	1.055511	-0.572219	0.911527
H108	H	1.007340	-0.653201	0.825702
H109	H	0.984598	-0.568173	0.792688
H110	H	0.947273	-0.605495	0.891937
H111	H	1.101944	-0.568899	0.870144
H112	H	1.064630	-0.606234	0.969403
H113	H	1.234118	-0.288964	0.907195
C114	C	1.047078	-1.172164	0.379296
C115	C	1.036379	-1.091008	0.365074
H116	H	1.012810	-1.200222	0.333655
H117	H	1.035477	-1.185652	0.449866
H118	H	1.100202	-1.185658	0.363993
H119	H	0.983256	-1.077513	0.380385
H120	H	1.047974	-1.077515	0.294488
H121	H	0.717559	-0.238362	0.317406
C122	C	0.576089	-0.520668	0.818133
C123	C	0.556095	-0.537648	0.714053
H124	H	0.548083	-0.555006	0.863658
H125	H	0.562585	-0.467575	0.833614
H126	H	0.631161	-0.527919	0.827713
H127	H	0.501024	-0.530391	0.704470
H128	H	0.569594	-0.590753	0.698566
H129	H	1.050618	-0.681819	0.384140
C130	C	0.996376	-0.712786	0.311921
C131	C	0.985737	-0.793974	0.297744
H132	H	0.962077	-0.684830	0.266278
H133	H	1.049480	-0.699239	0.296602
H134	H	0.984771	-0.699228	0.382496
H135	H	0.997347	-0.807533	0.227170
H136	H	0.932620	-0.807527	0.313055
H137	H	1.000199	-0.955482	0.316965
C138	C	0.575931	-0.240922	0.194229
C139	C	0.556017	-0.223960	0.298320
H140	H	0.547909	-0.206581	0.148722
H141	H	0.562391	-0.294014	0.178738
H142	H	0.630999	-0.233662	0.184631
H143	H	0.500949	-0.231225	0.307920
H144	H	0.569551	-0.170855	0.313816
C145	C	0.351091	-0.476389	0.632834
C146	C	0.432266	-0.487064	0.646989
H147	H	0.323092	-0.510733	0.678359
H148	H	0.337546	-0.487901	0.562226
H149	H	0.337584	-0.423292	0.648335
H150	H	0.445775	-0.540159	0.631481
H151	H	0.445817	-0.475557	0.717613
