data_functionalizedCrystal
_audit_creation_method	'MofGen! by Chris Wilmer'
_symmetry_space_group_name_H-M	'P1'
_symmetry_Int_Tables_number	1
_symmetry_cell_setting	triclinic
loop_
_symmetry_equiv_pos_as_xyz
  x,y,z
_cell_length_a	16.120484
_cell_length_b	19.077241
_cell_length_c	19.076919
_cell_angle_alpha	90.113904
_cell_angle_beta	95.046610
_cell_angle_gamma	84.670961
loop_
_atom_site_label
_atom_site_type_symbol
_atom_site_fract_x
_atom_site_fract_y
_atom_site_fract_z
Zn1	Zn	-0.303890	-1.044776	-0.453016
Zn2	Zn	0.029443	-0.711442	-0.119683
Zn3	Zn	0.362776	-0.378109	0.213650
Zn4	Zn	-0.438041	-1.043450	-0.341006
Zn5	Zn	-0.104708	-0.710117	-0.007673
Zn6	Zn	0.228625	-0.376783	0.325660
Zn7	Zn	-0.303449	-0.932011	-0.330776
Zn8	Zn	0.029884	-0.598678	0.002557
Zn9	Zn	0.363218	-0.265344	0.335891
Zn10	Zn	-0.449207	-0.920773	-0.454199
Zn11	Zn	-0.115874	-0.587439	-0.120866
Zn12	Zn	0.217460	-0.254106	0.212467
O13	O	-0.373647	-0.985252	-0.394750
O14	O	-0.040314	-0.651919	-0.061416
O15	O	0.293020	-0.318586	0.271917
O16	O	-0.317197	-1.143133	-0.441944
O17	O	0.016136	-0.809800	-0.108611
O18	O	0.349469	-0.476466	0.224722
O19	O	-0.415330	-1.032816	-0.241120
O20	O	-0.081997	-0.699482	0.092214
O21	O	0.251337	-0.366149	0.425547
O22	O	-0.186365	-0.952228	-0.342215
O23	O	0.146969	-0.618894	-0.008881
O24	O	0.480302	-0.285561	0.324452
O25	O	-0.415758	-1.142159	-0.359651
O26	O	-0.082424	-0.808826	-0.026318
O27	O	0.250909	-0.475492	0.307015
O28	O	-0.186689	-1.035076	-0.432024
O29	O	0.146645	-0.701742	-0.098691
O30	O	0.479978	-0.368409	0.234642
O31	O	-0.316446	-0.950942	-0.233603
O32	O	0.016888	-0.617609	0.099730
O33	O	0.350221	-0.284275	0.433063
O34	O	-0.327272	-0.831987	-0.343362
O35	O	0.006061	-0.498654	-0.010029
O36	O	0.339394	-0.165320	0.323305
O37	O	-0.434788	-0.933074	-0.552572
O38	O	-0.101454	-0.599740	-0.219239
O39	O	0.231879	-0.266407	0.114094
O40	O	-0.434360	-0.823730	-0.434041
O41	O	-0.101027	-0.490397	-0.100707
O42	O	0.232307	-0.157064	0.232626
O43	O	-0.328024	-1.024178	-0.551703
O44	O	0.005309	-0.690845	-0.218370
O45	O	0.338643	-0.357511	0.114964
O46	O	-0.556666	-1.021918	-0.360798
O47	O	-0.223332	-0.688585	-0.027465
O48	O	0.110001	-0.355252	0.305868
O49	O	-0.564869	-0.931788	-0.443961
O50	O	-0.231535	-0.598455	-0.110627
O51	O	0.101798	-0.265121	0.222706
C52	C	-0.381981	-0.802310	-0.387720
C53	C	-0.048647	-0.468977	-0.054387
C54	C	0.284686	-0.135643	0.278947
C55	C	-0.385567	-0.724045	-0.384730
C56	C	-0.052233	-0.390712	-0.051397
C57	C	0.281100	-0.057378	0.281937
C58	C	-0.336025	-0.687777	-0.426243
C59	C	-0.002691	-0.354444	-0.092910
C60	C	0.330642	-0.021110	0.240423
C61	C	-0.339390	-0.614239	-0.423428
C62	C	-0.006057	-0.280906	-0.090095
C63	C	0.327277	0.052428	0.243239
C64	C	-0.392302	-0.576970	-0.379102
C65	C	-0.058969	-0.243637	-0.045769
C66	C	0.274365	0.089697	0.287564
C67	C	-0.441846	-0.613243	-0.337584
C68	C	-0.108513	-0.279910	-0.004251
C69	C	0.224821	0.053424	0.329082
C70	C	-0.438476	-0.686780	-0.340397
C71	C	-0.105142	-0.353447	-0.007063
C72	C	0.228191	-0.020113	0.326270
C73	C	-0.407871	-0.356984	-0.366086
C74	C	-0.074537	-0.023651	-0.032753
C75	C	0.258796	0.309682	0.300581
C76	C	-0.411239	-0.283442	-0.363278
C77	C	-0.077906	0.049891	-0.029945
C78	C	0.255428	0.383224	0.303388
C79	C	-0.308781	-0.284443	-0.449121
C80	C	0.024552	0.048890	-0.115788
C81	C	0.357885	0.382223	0.217545
C82	C	-0.305420	-0.357981	-0.451933
C83	C	0.027914	-0.024648	-0.118599
C84	C	0.361247	0.308685	0.214734
C85	C	-0.354960	-0.394248	-0.410412
C86	C	-0.021627	-0.060915	-0.077079
C87	C	0.311707	0.272418	0.256255
N88	N	-0.395745	-0.501802	-0.376225
N89	N	-0.062412	-0.168469	-0.042892
N90	N	0.270921	0.164865	0.290442
N91	N	-0.351512	-0.469415	-0.413286
N92	N	-0.018179	-0.136082	-0.079953
N93	N	0.315155	0.197252	0.253381
C94	C	-0.591141	-0.975508	-0.403634
C95	C	-0.257808	-0.642175	-0.070301
C96	C	0.075526	-0.308841	0.263033
C97	C	-0.684184	-0.971403	-0.407461
C98	C	-0.350851	-0.638070	-0.074128
C99	C	-0.017517	-0.304736	0.259206
C100	C	-0.854535	-0.963911	-0.414462
C101	C	-0.521201	-0.630578	-0.081129
C102	C	-0.187868	-0.297245	0.252204
C103	C	-0.891913	-1.006719	-0.375053
C104	C	-0.558580	-0.673386	-0.041720
C105	C	-0.225247	-0.340052	0.291614
C106	C	-0.986702	-1.002551	-0.378949
C107	C	-0.653369	-0.669217	-0.045615
C108	C	-0.320036	-0.335884	0.287718
C109	C	-0.759737	-0.968079	-0.410568
C110	C	-0.426404	-0.634745	-0.077234
C111	C	-0.093071	-0.301412	0.256099
C112	C	-0.155304	-0.995053	-0.385846
C113	C	0.178030	-0.661720	-0.052513
C114	C	0.511363	-0.328387	0.280820
C115	C	-0.062259	-0.999230	-0.382052
C116	C	0.271075	-0.665896	-0.048719
C117	C	0.604408	-0.332563	0.284614
C118	C	-0.382701	-0.977520	-0.578400
C119	C	-0.049367	-0.644187	-0.245066
C120	C	0.283966	-0.310853	0.088267
C121	C	-0.386559	-0.974225	-0.656660
C122	C	-0.053225	-0.640892	-0.323327
C123	C	0.280108	-0.307558	0.010006
C124	C	-0.365276	-0.168909	-0.401801
C125	C	-0.031943	0.164424	-0.068468
C126	C	0.301390	0.497757	0.264865
C127	C	-0.361697	-0.247174	-0.404792
C128	C	-0.028364	0.086159	-0.071458
C129	C	0.304970	0.419492	0.261875
C130	C	-0.332788	-1.020108	-0.692976
C131	C	0.000546	-0.686775	-0.359643
C132	C	0.333879	-0.353441	-0.026309
C133	C	-0.336410	-1.017004	-0.766510
C134	C	-0.003077	-0.683670	-0.433177
C135	C	0.330256	-0.350337	-0.099843
C136	C	-0.393808	-0.968019	-0.803727
C137	C	-0.060475	-0.634686	-0.470394
C138	C	0.272859	-0.301352	-0.137060
C139	C	-0.447581	-0.922131	-0.767406
C140	C	-0.114248	-0.588798	-0.434073
C141	C	0.219085	-0.255465	-0.100739
C142	C	-0.443954	-0.925233	-0.693873
C143	C	-0.110621	-0.591900	-0.360540
C144	C	0.222712	-0.258566	-0.027207
C145	C	-0.410612	-0.953654	-1.023695
C146	C	-0.077279	-0.620320	-0.690361
C147	C	0.256054	-0.286987	-0.357028
C148	C	-0.414237	-0.950557	-1.097233
C149	C	-0.080904	-0.617223	-0.763899
C150	C	0.252430	-0.283890	-0.430566
C151	C	-0.303064	-1.045428	-1.096331
C152	C	0.030269	-0.712095	-0.762998
C153	C	0.363603	-0.378762	-0.429665
C154	C	-0.299446	-1.048529	-1.022797
C155	C	0.033888	-0.715195	-0.689464
C156	C	0.367221	-0.381862	-0.356131
C157	C	-0.353216	-1.002638	-0.986483
C158	C	-0.019883	-0.669305	-0.653149
C159	C	0.313451	-0.335972	-0.319816
N160	N	-0.397514	-0.964846	-0.878890
N161	N	-0.064181	-0.631513	-0.545557
N162	N	0.269153	-0.298179	-0.212224
N163	N	-0.349505	-1.005808	-0.911320
N164	N	-0.016172	-0.672475	-0.577987
N165	N	0.317161	-0.339142	-0.244653
C166	C	-0.364566	-0.992998	-0.211813
C167	C	-0.031233	-0.659664	0.121520
C168	C	0.302100	-0.326331	0.454854
C169	C	-0.360466	-0.996440	-0.133548
C170	C	-0.027133	-0.663106	0.199785
C171	C	0.306201	-0.329773	0.533118
H172	H	-0.292940	-0.718116	-0.462340
H173	H	0.040393	-0.384783	-0.129007
H174	H	0.373726	-0.051449	0.204327
O175	O	-0.906440	-0.911219	-0.463024
O176	O	-0.573106	-0.577886	-0.129690
O177	O	-0.239773	-0.244552	0.203643
H178	H	-0.864438	-0.880501	-0.491298
H179	H	-0.531105	-0.547168	-0.157964
H180	H	-0.197772	-0.213835	0.175369
H181	H	-0.299049	-0.584713	-0.457234
H182	H	0.034284	-0.251379	-0.123901
H183	H	0.367617	0.081954	0.209433
H184	H	-0.478818	-0.716309	-0.306592
H185	H	-0.145484	-0.382975	0.026742
H186	H	0.187849	-0.049642	0.360075
O187	O	-0.509486	-0.869296	-0.807548
O188	O	-0.176152	-0.535962	-0.474214
O189	O	0.157181	-0.202629	-0.140881
H190	H	-0.546261	-0.837906	-0.769938
H191	H	-0.212927	-0.504573	-0.436605
H192	H	0.120406	-0.171239	-0.103272
O193	O	-0.237537	-1.101366	-0.982662
O194	O	0.095796	-0.768033	-0.649329
O195	O	0.429129	-0.434699	-0.315996
H196	H	-0.194732	-1.073180	-0.946205
H197	H	0.138601	-0.739847	-0.612872
H198	H	0.471935	-0.406514	-0.279539
H199	H	-0.448211	-0.386504	-0.332278
H200	H	-0.114878	-0.053171	0.001056
H201	H	0.218456	0.280163	0.334389
O202	O	-0.468302	-0.243244	-0.315458
O203	O	-0.134968	0.090089	0.017875
O204	O	0.198365	0.423422	0.351208
H205	H	-0.514043	-0.206520	-0.347372
H206	H	-0.180710	0.126814	-0.014039
H207	H	0.152624	0.460147	0.319295
O208	O	-0.255347	-0.245323	-0.493896
O209	O	0.077986	0.088010	-0.160563
O210	O	0.411320	0.421343	0.172771
H211	H	-0.217992	-0.283593	-0.525193
H212	H	0.115341	0.049740	-0.191860
H213	H	0.448675	0.383073	0.141474
O214	O	-0.270880	-1.072942	-0.652835
O215	O	0.062454	-0.739608	-0.319502
O216	O	0.395787	-0.406275	0.013831
H217	H	-0.234093	-1.104320	-0.690444
H218	H	0.099240	-0.770987	-0.357111
H219	H	0.432573	-0.437653	-0.023778
H220	H	-0.852725	-1.046498	-0.338387
H221	H	-0.519392	-0.713165	-0.005054
H222	H	-0.186058	-0.379831	0.328279
H223	H	-0.487732	-0.887863	-0.664305
H224	H	-0.154399	-0.554530	-0.330972
H225	H	0.178934	-0.221197	0.002361
H226	H	-0.262336	-0.388321	-0.488030
H227	H	0.070997	-0.054987	-0.154697
H228	H	0.404331	0.278346	0.178637
O229	O	-0.498912	-0.573051	-0.289770
O230	O	-0.165578	-0.239717	0.043564
O231	O	0.167755	0.093616	0.376897
H232	H	-0.544653	-0.536326	-0.321684
H233	H	-0.211319	-0.202993	0.011649
H234	H	0.122014	0.130340	0.344983
O235	O	-0.468584	-0.904123	-0.984550
O236	O	-0.135251	-0.570790	-0.651216
O237	O	0.198082	-0.237457	-0.317883
H238	H	-0.534440	-0.912630	-1.001796
H239	H	-0.201107	-0.579297	-0.668462
H240	H	0.132227	-0.245963	-0.335129
O241	O	-0.278420	-1.066495	-0.805682
O242	O	0.054913	-0.733161	-0.472349
O243	O	0.388247	-0.399828	-0.139015
H244	H	-0.237907	-1.101085	-0.767450
H245	H	0.095426	-0.767751	-0.434117
H246	H	0.428759	-0.434418	-0.100783
H247	H	-0.259286	-1.082789	-1.125907
H248	H	0.074047	-0.749455	-0.792573
H249	H	0.407380	-0.416122	-0.459240
O250	O	-0.476142	-0.897717	-1.137378
O251	O	-0.142808	-0.564384	-0.804045
O252	O	0.190525	-0.231050	-0.470712
H253	H	-0.512917	-0.866322	-1.099773
H254	H	-0.179584	-0.532989	-0.766440
H255	H	0.153750	-0.199655	-0.433106
