data_functionalizedCrystal
_audit_creation_method	'MofGen! by Chris Wilmer'
_symmetry_space_group_name_H-M	'P1'
_symmetry_Int_Tables_number	1
_symmetry_cell_setting	triclinic
loop_
_symmetry_equiv_pos_as_xyz
  x,y,z
_cell_length_a	12.759401
_cell_length_b	25.639239
_cell_length_c	12.759393
_cell_angle_alpha	89.964022
_cell_angle_beta	89.979062
_cell_angle_gamma	90.040211
loop_
_atom_site_label
_atom_site_type_symbol
_atom_site_fract_x
_atom_site_fract_y
_atom_site_fract_z
Zn1	Zn	1.606091	-0.208104	-0.593980
Zn2	Zn	1.605909	-0.295549	-0.418283
Zn3	Zn	1.430390	-0.208132	-0.418315
Zn4	Zn	1.430308	-0.295513	-0.593921
O5	O	1.518175	-0.251825	-0.506125
O6	O	1.753088	-0.219708	-0.570685
O7	O	1.582584	-0.283980	-0.271266
O8	O	1.453808	-0.134963	-0.441656
O9	O	1.752954	-0.283953	-0.441601
O10	O	1.582895	-0.134943	-0.570716
O11	O	1.453631	-0.219755	-0.271290
O12	O	1.283358	-0.219720	-0.441598
O13	O	1.453669	-0.283891	-0.740950
O14	O	1.283298	-0.283918	-0.570615
O15	O	1.582816	-0.219672	-0.740993
O16	O	1.582505	-0.368710	-0.441544
O17	O	1.453492	-0.368683	-0.570584
C18	C	1.245207	-0.251818	-0.506104
C19	C	1.128431	-0.251828	-0.506120
C20	C	1.073565	-0.285307	-0.573193
C21	C	0.963841	-0.285309	-0.573214
C22	C	0.963858	-0.218352	-0.439079
C23	C	1.073580	-0.218347	-0.439065
C24	C	1.517998	-0.387667	-0.506077
C25	C	1.518018	-0.445781	-0.506091
C26	C	1.585527	-0.806146	-0.439048
C27	C	1.585568	-0.860750	-0.439062
O28	O	1.642783	-0.888988	-0.382007
N29	N	1.518359	-0.888064	-0.506194
C30	C	1.451113	-0.860770	-0.573324
O31	O	1.393952	-0.889017	-0.630428
C32	C	1.451079	-0.806167	-0.573315
C33	C	1.518284	-0.778856	-0.506171
C34	C	1.652728	-0.778835	-0.371910
C35	C	1.652685	-0.724234	-0.371895
C36	C	1.585442	-0.696945	-0.439018
C37	C	1.518242	-0.724255	-0.506156
C38	C	1.383839	-0.778874	-0.640449
C39	C	1.383810	-0.724267	-0.640435
C40	C	1.451016	-0.696957	-0.573291
C41	C	1.450956	-0.642365	-0.573263
N42	N	1.518165	-0.615052	-0.506131
C43	C	1.585408	-0.642341	-0.439008
C44	C	1.451192	-0.975441	-0.573341
C45	C	1.451221	-1.030043	-0.573346
C46	C	1.585677	-1.030019	-0.439085
C47	C	1.585642	-0.975416	-0.439075
C48	C	1.518401	-0.948127	-0.506208
C49	C	1.585313	-0.527676	-0.438981
C50	C	1.585261	-0.473071	-0.438969
C51	C	1.450810	-0.473100	-0.573233
C52	C	1.450857	-0.527700	-0.573242
C53	C	1.518117	-0.554987	-0.506112
O54	O	1.393774	-0.614093	-0.630292
O55	O	1.642569	-0.614088	-0.381925
C56	C	1.792208	-0.251831	-0.506146
C57	C	1.908984	-0.251834	-0.506156
C58	C	1.518253	-0.251774	-0.780158
C59	C	1.518287	-0.251753	-0.896935
C60	C	1.518381	-0.115452	-0.506196
C61	C	1.518468	-0.057337	-0.506226
C62	C	1.585539	-0.218309	-0.951821
C63	C	1.585556	-0.218286	-1.061546
C64	C	1.451068	-0.285156	-1.061487
C65	C	1.451045	-0.285176	-0.951765
C66	C	1.518157	-0.251837	-0.233157
C67	C	1.518327	-0.251711	-0.116381
H68	H	0.919185	-0.191094	-0.384484
H69	H	1.640288	-0.191092	-0.907182
H70	H	1.396273	-0.312410	-0.907075
H71	H	1.640318	-0.191052	-1.106229
H72	H	1.707491	-0.801048	-0.317251
C73	C	1.133938	-0.181520	-0.365274
C74	C	1.118932	-0.122088	-0.374062
C75	C	1.179290	-0.085261	-0.300277
C76	C	1.254654	-0.107866	-0.217703
C77	C	1.269663	-0.167301	-0.208911
C78	C	1.209305	-0.204128	-0.282697
H79	H	1.063141	-0.105351	-0.435191
H80	H	1.168179	-0.041263	-0.306785
H81	H	1.299334	-0.080605	-0.163083
H82	H	1.325455	-0.184038	-0.147782
H83	H	1.220417	-0.248126	-0.276188
C84	C	1.376843	-0.443076	-0.647067
C85	C	1.385364	-0.450532	-0.766512
C86	C	1.311402	-0.420508	-0.840352
C87	C	1.228919	-0.383027	-0.794746
C88	C	1.220394	-0.375569	-0.675294
C89	C	1.294357	-0.405594	-0.601454
H90	H	1.446426	-0.478279	-0.800278
H91	H	1.317713	-0.426029	-0.928779
H92	H	1.174167	-0.360801	-0.849406
H93	H	1.159332	-0.347822	-0.641528
H94	H	1.288046	-0.400073	-0.513028
H95	H	1.640367	-0.953182	-0.384401
H96	H	1.118221	-0.312568	-0.627796
C97	C	0.903488	-0.322138	-0.646993
C98	C	0.963827	-0.358962	-0.720749
C99	C	0.903475	-0.395792	-0.794534
C100	C	0.782785	-0.395797	-0.794563
C101	C	0.722440	-0.358971	-0.720804
C102	C	0.782792	-0.322141	-0.647019
H103	H	1.053175	-0.358960	-0.720731
H104	H	0.948147	-0.423053	-0.849135
H105	H	0.738109	-0.423060	-0.849182
H106	H	0.633092	-0.358973	-0.720822
H107	H	0.738120	-0.294880	-0.592418
C108	C	1.659195	-0.443030	-0.365109
C109	C	1.650694	-0.450592	-0.245668
C110	C	1.724626	-0.420554	-0.171812
C111	C	1.807060	-0.382954	-0.217397
C112	C	1.815565	-0.375390	-0.336844
C113	C	1.741632	-0.405428	-0.410700
H114	H	1.589668	-0.478427	-0.211918
H115	H	1.718330	-0.426153	-0.083389
H116	H	1.861789	-0.360718	-0.162724
H117	H	1.876590	-0.347555	-0.370594
H118	H	1.747929	-0.399829	-0.499123
C119	C	1.377113	-0.321924	-1.121803
C120	C	1.377138	-0.321907	-1.242493
C121	C	1.303184	-0.358678	-1.302806
C122	C	1.229206	-0.395465	-1.242429
C123	C	1.229178	-0.395483	-1.121732
C124	C	1.303132	-0.358713	-1.061419
H125	H	1.431904	-0.294674	-1.287194
H126	H	1.303205	-0.358664	-1.392154
H127	H	1.174461	-0.422684	-1.287076
H128	H	1.174412	-0.422717	-1.077031
H129	H	1.303111	-0.358727	-0.972071
H130	H	1.396428	-0.953225	-0.628006
C131	C	1.659292	-0.557687	-0.365133
C132	C	1.613839	-0.595278	-0.282613
C133	C	1.687811	-0.625289	-0.208761
C134	C	1.807236	-0.617708	-0.217428
C135	C	1.852695	-0.580115	-0.299952
C136	C	1.778723	-0.550105	-0.373804
H137	H	1.525428	-0.600891	-0.276194
H138	H	1.654158	-0.653118	-0.147671
H139	H	1.861994	-0.639924	-0.162758
H140	H	1.941107	-0.574502	-0.306371
H141	H	1.812376	-0.522276	-0.434894
C142	C	1.659654	-1.060044	-0.365253
C143	C	1.659692	-1.120106	-0.365279
C144	C	1.733663	-1.150133	-0.291452
C145	C	1.807597	-1.120098	-0.217600
C146	C	1.807561	-1.060033	-0.217572
C147	C	1.733590	-1.030006	-0.291398
H148	H	1.604960	-1.142342	-0.419951
H149	H	1.733689	-1.194597	-0.291473
H150	H	1.862355	-1.142326	-0.162949
H151	H	1.862294	-1.037797	-0.162899
H152	H	1.733564	-0.985542	-0.291377
H153	H	1.707412	-0.702001	-0.317224
H154	H	1.396486	-1.052275	-0.628011
H155	H	1.329108	-0.801102	-0.695120
H156	H	1.329055	-0.702052	-0.695106
C157	C	1.376929	-0.557748	-0.647092
C158	C	1.257490	-0.550313	-0.638415
C159	C	1.183571	-0.580358	-0.712274
C160	C	1.229090	-0.617837	-0.794810
C161	C	1.348535	-0.625273	-0.803490
C162	C	1.422455	-0.595229	-0.729631
H163	H	1.223788	-0.522567	-0.577313
H164	H	1.095149	-0.574852	-0.705847
H165	H	1.174371	-0.640078	-0.849484
H166	H	1.382237	-0.653019	-0.864592
H167	H	1.510876	-0.600734	-0.736058
