data_functionalizedCrystal
_audit_creation_method	'MofGen! by Chris Wilmer'
_symmetry_space_group_name_H-M	'P1'
_symmetry_Int_Tables_number	1
_symmetry_cell_setting	triclinic
loop_
_symmetry_equiv_pos_as_xyz
  x,y,z
_cell_length_a	10.908878
_cell_length_b	10.065875
_cell_length_c	16.109301
_cell_angle_alpha	98.785292
_cell_angle_beta	108.226864
_cell_angle_gamma	96.556520
loop_
_atom_site_label
_atom_site_type_symbol
_atom_site_fract_x
_atom_site_fract_y
_atom_site_fract_z
O1	O	1.722697	0.113460	0.143235
O2	O	1.348808	0.113471	0.078308
O3	O	1.546021	0.113451	0.233219
O4	O	1.525484	0.113480	-0.011676
O5	O	1.508415	-0.113534	0.203581
O6	O	1.311202	-0.113514	0.048670
O7	O	1.685091	-0.113525	0.113598
Zn8	Zn	1.492176	-0.149558	0.076428
Zn9	Zn	1.541723	0.149504	0.115477
O10	O	1.487878	-0.113505	-0.041313
C11	C	1.282161	-0.000020	0.057421
C12	C	1.139601	-0.000016	0.039351
C13	C	1.090619	-0.000023	0.105286
C14	C	0.943277	-0.000019	0.086611
N15	N	1.458370	-0.353661	0.049781
C16	C	1.529953	-0.421447	0.106209
C17	C	1.503945	-0.578611	0.085696
C18	C	1.751738	-0.000031	0.134484
C19	C	1.894299	-0.000026	0.152555
C20	C	1.526386	-0.000042	0.249260
C21	C	1.523891	-0.000044	0.341210
N22	N	1.575539	0.353606	0.142132
C23	C	1.507513	-0.000009	-0.057354
C24	C	1.510010	0.000002	-0.149304
C25	C	1.635118	-0.000026	0.578844
C26	C	1.632765	-0.000014	0.665241
C27	C	1.398775	-0.000013	0.613055
C28	C	1.401130	-0.000014	0.526662
C29	C	1.519304	-0.000028	0.509558
C30	C	1.514597	-0.000015	0.682349
C31	C	1.512045	-0.000003	0.776024
C32	C	1.521856	-0.000037	0.415878
H33	H	0.961442	-0.000025	0.222837
C34	C	1.181324	-0.000044	0.200225
N35	N	1.249641	-0.000065	0.271735
C36	C	1.268786	-0.000024	0.631876
N37	N	1.170873	-0.000043	0.646048
H38	H	1.610488	-0.363130	0.169709
H39	H	1.377826	-0.411978	-0.013714
C40	C	1.395128	-0.657386	-0.000090
N41	N	1.313169	-0.716722	-0.064703
H42	H	1.656079	-0.588081	0.205636
H43	H	1.731343	-0.000034	0.564923
C44	C	0.852574	-0.000008	-0.008334
N45	N	0.784255	-0.000003	-0.079846
H46	H	1.306815	-0.000012	0.470245
H47	H	1.072456	-0.000002	-0.030923
C48	C	1.760168	-0.000024	0.741451
N49	N	1.856133	-0.000035	0.798854
