data_functionalizedCrystal
_audit_creation_method	'MofGen! by Chris Wilmer'
_symmetry_space_group_name_H-M	'P1'
_symmetry_Int_Tables_number	1
_symmetry_cell_setting	triclinic
loop_
_symmetry_equiv_pos_as_xyz
  x,y,z
_cell_length_a	16.625548
_cell_length_b	29.839131
_cell_length_c	16.625539
_cell_angle_alpha	90.032094
_cell_angle_beta	90.020568
_cell_angle_gamma	90.042488
loop_
_atom_site_label
_atom_site_type_symbol
_atom_site_fract_x
_atom_site_fract_y
_atom_site_fract_z
Zn1	Zn	1.232574	-0.178840	0.455888
Zn2	Zn	1.732574	0.321160	0.955888
Zn3	Zn	1.232433	-0.253971	0.321046
Zn4	Zn	1.732433	0.246029	0.821046
Zn5	Zn	1.097736	-0.178857	0.321069
Zn6	Zn	1.597736	0.321143	0.821069
Zn7	Zn	1.097662	-0.253945	0.455836
Zn8	Zn	1.597662	0.246055	0.955836
O9	O	1.165101	-0.216403	0.388460
O10	O	1.665101	0.283597	0.888460
O11	O	1.345388	-0.188810	0.438013
O12	O	1.845388	0.311190	0.938013
O13	O	1.214537	-0.244025	0.208217
O14	O	1.714537	0.255975	0.708217
O15	O	1.115713	-0.115987	0.338984
O16	O	1.615713	0.384013	0.838984
O17	O	1.345284	-0.244008	0.338946
O18	O	1.845284	0.255992	0.838946
O19	O	1.214778	-0.115975	0.438035
O20	O	1.714778	0.384025	0.938035
O21	O	1.115576	-0.188839	0.208233
O22	O	1.615576	0.311161	0.708233
O23	O	0.984894	-0.188814	0.338933
O24	O	1.484894	0.311186	0.838933
O25	O	1.115586	-0.243964	0.568676
O26	O	1.615586	0.256036	1.068676
O27	O	0.984839	-0.243981	0.437947
O28	O	1.484839	0.256019	0.937947
O29	O	1.214706	-0.188785	0.568714
O30	O	1.714706	0.311215	1.068714
O31	O	1.214465	-0.316834	0.338896
O32	O	1.714465	0.183166	0.838896
O33	O	1.115449	-0.316815	0.437925
O34	O	1.615449	0.183185	0.937925
C35	C	0.955610	-0.216397	0.388437
C36	C	1.455610	0.283603	0.888437
C37	C	0.865989	-0.216405	0.388447
C38	C	1.365989	0.283595	0.888447
C39	C	0.537814	-0.216408	0.388481
C40	C	1.037814	0.283592	0.888481
C41	C	0.629122	-0.216406	0.388469
C42	C	1.129122	0.283594	0.888469
C43	C	0.701899	-0.216406	0.388463
C44	C	1.201899	0.283594	0.888463
C45	C	0.793213	-0.216404	0.388452
C46	C	1.293213	0.283596	0.888452
C47	C	1.164956	-0.333126	0.388420
C48	C	1.664956	0.166874	0.888420
C49	C	1.164967	-0.383060	0.388430
C50	C	1.664967	0.116940	0.888430
C51	C	1.216752	-0.692701	0.336971
C52	C	1.716752	-0.192701	0.836971
C53	C	1.216852	-0.880374	0.337002
C54	C	1.716852	-0.380374	0.837002
O55	O	1.260766	-0.904636	0.293219
O56	O	1.760766	-0.404636	0.793219
N57	N	1.165268	-0.903845	0.388521
N58	N	1.665268	-0.403845	0.888521
C59	C	1.113660	-0.880395	0.440039
C60	C	1.613660	-0.380395	0.940039
O61	O	1.069793	-0.904665	0.483866
O62	O	1.569793	-0.404665	0.983866
C63	C	1.113565	-0.692723	0.440011
C64	C	1.613565	-0.192723	0.940011
C65	C	1.165146	-0.669254	0.388483
C66	C	1.665146	-0.169254	0.888483
C67	C	1.268330	-0.669232	0.285447
C68	C	1.768330	-0.169232	0.785447
C69	C	1.268302	-0.622316	0.285437
C70	C	1.768302	-0.122316	0.785437
C71	C	1.216695	-0.598870	0.336950
C72	C	1.716695	-0.098870	0.836950
C73	C	1.165118	-0.622339	0.388473
C74	C	1.665118	-0.122339	0.888473
C75	C	1.061962	-0.669274	0.491533
C76	C	1.561962	-0.169274	0.991533
C77	C	1.061944	-0.622353	0.491523
C78	C	1.561944	-0.122353	0.991523
C79	C	1.113525	-0.598884	0.439995
C80	C	1.613525	-0.098884	0.939995
C81	C	1.113483	-0.551977	0.439975
C82	C	1.613483	-0.051977	0.939975
N83	N	1.165067	-0.528505	0.388456
N84	N	1.665067	-0.028505	0.888456
C85	C	1.216673	-0.551952	0.336944
C86	C	1.716673	-0.051952	0.836944
C87	C	1.113712	-0.978926	0.440049
C88	C	1.613712	-0.478926	0.940049
C89	C	1.113735	-1.025844	0.440055
C90	C	1.613735	-0.525844	0.940055
C91	C	1.216928	-1.025819	0.337019
C92	C	1.716928	-0.525819	0.837019
C93	C	1.216901	-0.978900	0.337009
C94	C	1.716901	-0.478900	0.837009
C95	C	1.165296	-0.955455	0.388530
C96	C	1.665296	-0.455455	0.888530
C97	C	1.216609	-0.453426	0.336925
C98	C	1.716609	0.046574	0.836925
C99	C	1.216573	-0.406506	0.336917
C100	C	1.716573	0.093494	0.836917
C101	C	1.113383	-0.406535	0.439956
C102	C	1.613383	0.093465	0.939956
C103	C	1.113416	-0.453451	0.439962
C104	C	1.613416	0.046549	0.939962
C105	C	1.165035	-0.476895	0.388443
C106	C	1.665035	0.023105	0.888443
O107	O	1.069599	-0.527685	0.483742
O108	O	1.569599	-0.027685	0.983742
O109	O	1.260546	-0.527674	0.293136
O110	O	1.760546	-0.027674	0.793136
C111	C	1.216781	-0.739616	0.336981
C112	C	1.716781	-0.239616	0.836981
C113	C	1.165203	-0.763085	0.388504
C114	C	1.665203	-0.263085	0.888504
C115	C	1.113597	-0.739639	0.440017
C116	C	1.613597	-0.239639	0.940017
C117	C	1.165226	-0.810003	0.388510
C118	C	1.665226	-0.310003	0.888510
C119	C	1.216832	-0.833449	0.336997
C120	C	1.716832	-0.333449	0.836997
C121	C	1.268416	-0.809978	0.285479
C122	C	1.768416	-0.309978	0.785479
C123	C	1.268387	-0.763062	0.285468
C124	C	1.768387	-0.263062	0.785468
C125	C	1.062014	-0.763110	0.491536
C126	C	1.562014	-0.263110	0.991536
C127	C	1.062046	-0.810026	0.491541
C128	C	1.562046	-0.310026	0.991541
C129	C	1.113652	-0.833472	0.440028
C130	C	1.613652	-0.333472	0.940028
C131	C	1.375410	-0.216410	0.388483
C132	C	1.875410	0.283590	0.888483
C133	C	1.465031	-0.216413	0.388493
C134	C	1.965031	0.283587	0.888493
C135	C	1.165154	-0.216370	0.598769
C136	C	1.665154	0.283630	1.098769
C137	C	1.165176	-0.216355	0.688390
C138	C	1.665176	0.283645	1.188390
C139	C	1.165269	-0.099225	0.388518
C140	C	1.665269	0.400775	0.888518
C141	C	1.165341	-0.049290	0.388542
C142	C	1.665341	0.450710	0.888542
C143	C	1.165095	-0.216404	0.178969
C144	C	1.665095	0.283596	0.678969
C145	C	1.165229	-0.216292	0.089348
C146	C	1.665229	0.283708	0.589348
C147	C	1.165213	-0.216305	1.016566
C148	C	1.665213	0.283695	1.516566
C149	C	1.165201	-0.216320	0.925257
C150	C	1.665201	0.283680	1.425257
C151	C	1.165195	-0.216330	0.852481
C152	C	1.665195	0.283670	1.352481
C153	C	1.165182	-0.216345	0.761167
C154	C	1.665182	0.283655	1.261167
H155	H	1.258577	-0.387399	0.294954
H156	H	1.758577	0.112601	0.794954
H157	H	1.071417	-0.472560	0.481922
H158	H	1.571417	0.027440	0.981922
C159	C	1.273382	-0.479208	0.280251
C160	C	1.773382	0.020792	0.780251
H161	H	1.304086	-0.458506	0.249562
H162	H	1.804086	0.041494	0.749562
H163	H	1.308513	-0.497480	0.311120
H164	H	1.808513	0.002520	0.811120
H165	H	1.242562	-0.497540	0.245089
H166	H	1.742562	0.002460	0.745089
H167	H	1.258903	-0.959794	0.295051
H168	H	1.758903	-0.459794	0.795051
H169	H	1.019955	-0.688375	0.533489
H170	H	1.519955	-0.188375	1.033489
C171	C	1.273691	-1.051616	0.280354
C172	C	1.773691	-0.551616	0.780354
H173	H	1.266315	-1.082919	0.287744
H174	H	1.766315	-0.582919	0.787744
H175	H	1.261923	-1.043954	0.226165
H176	H	1.761923	-0.543954	0.726165
H177	H	1.327860	-1.043895	0.292209
H178	H	1.827860	-0.543895	0.792209
H179	H	1.019991	-0.744024	0.533485
H180	H	1.519991	-0.244024	1.033485
H181	H	1.310389	-0.743957	0.243509
H182	H	1.810389	-0.243957	0.743509
C183	C	1.325097	-0.695016	0.228774
C184	C	1.825097	-0.195016	0.728774
H185	H	1.355802	-0.674312	0.198088
H186	H	1.855802	-0.174312	0.698088
H187	H	1.360227	-0.713290	0.259639
H188	H	1.860227	-0.213290	0.759639
H189	H	1.294276	-0.713345	0.193609
H190	H	1.794276	-0.213345	0.693609
H191	H	1.071725	-1.044948	0.482007
H192	H	1.571725	-0.544948	0.982007
C193	C	1.056935	-0.953141	0.496717
C194	C	1.556935	-0.453141	0.996717
H195	H	1.026215	-0.973844	0.527390
H196	H	1.526215	-0.473844	1.027390
H197	H	1.087738	-0.934807	0.531882
H198	H	1.587738	-0.434807	1.031882
H199	H	1.021807	-0.934872	0.465831
H200	H	1.521807	-0.434872	0.965831
C201	C	1.005177	-0.596566	0.548198
C202	C	1.505177	-0.096566	1.048198
H203	H	0.974462	-0.617265	0.578880
H204	H	1.474462	-0.117265	1.078880
H205	H	1.035992	-0.578232	0.583354
H206	H	1.535992	-0.078232	1.083354
H207	H	0.970045	-0.578296	0.517319
H208	H	1.470045	-0.078296	1.017319
C209	C	1.325051	-0.596506	0.228766
C210	C	1.825051	-0.096506	0.728766
H211	H	1.355792	-0.617195	0.198099
H212	H	1.855792	-0.117195	0.698099
H213	H	1.294229	-0.578232	0.193596
H214	H	1.794229	-0.078232	0.693596
H215	H	1.360161	-0.578175	0.259646
H216	H	1.860161	-0.078175	0.759646
H217	H	1.071364	-0.387438	0.481895
H218	H	1.571364	0.112562	0.981895
C219	C	1.325180	-0.835775	0.228815
C220	C	1.825180	-0.335775	0.728815
H221	H	1.317807	-0.867078	0.236210
H222	H	1.817807	-0.367078	0.736210
H223	H	1.313410	-0.828116	0.174626
H224	H	1.813410	-0.328116	0.674626
H225	H	1.379348	-0.828052	0.240669
H226	H	1.879348	-0.328052	0.740669
C227	C	1.005304	-0.835836	0.548228
C228	C	1.505304	-0.335836	1.048228
H229	H	0.974574	-0.815149	0.578908
H230	H	1.474574	-0.315149	1.078908
H231	H	0.970196	-0.854174	0.517366
H232	H	1.470196	-0.354174	1.017366
H233	H	1.036149	-0.854104	0.583396
H234	H	1.536149	-0.354104	1.083396
