data_functionalizedCrystal
_audit_creation_method	'MofGen! by Chris Wilmer'
_symmetry_space_group_name_H-M	'P1'
_symmetry_Int_Tables_number	1
_symmetry_cell_setting	triclinic
loop_
_symmetry_equiv_pos_as_xyz
  x,y,z
_cell_length_a	9.065218
_cell_length_b	10.489741
_cell_length_c	7.540329
_cell_angle_alpha	89.996684
_cell_angle_beta	89.996962
_cell_angle_gamma	84.777530
loop_
_atom_site_label
_atom_site_type_symbol
_atom_site_fract_x
_atom_site_fract_y
_atom_site_fract_z
O1	O	1.959495	0.187043	-0.147486
O2	O	1.530136	0.202385	-0.147489
O3	O	1.754585	0.009151	-0.147477
O4	O	1.735045	0.380277	-0.147498
O5	O	1.754572	0.009149	0.147488
O6	O	1.530122	0.202382	0.147477
O7	O	1.959481	0.187040	0.147479
Cu8	Cu	1.744800	0.194711	0.174410
Cu9	Cu	1.744816	0.194714	-0.174420
O10	O	1.735032	0.380274	0.147467
C11	C	1.475149	0.200909	-0.000006
C12	C	1.311328	0.196501	-0.000007
C13	C	1.753102	-0.038387	0.000005
C14	C	1.748687	-0.180032	0.000002
C15	C	1.605877	-0.248688	-0.000012
C16	C	1.673332	-0.340568	0.145421
C17	C	1.673379	-0.340540	-0.145391
C18	C	1.816202	-0.270047	0.145555
C19	C	1.816229	-0.270009	-0.145388
C20	C	1.883788	-0.361862	0.000081
C21	C	2.014467	0.188516	-0.000007
C22	C	2.178289	0.192925	-0.000018
C23	C	1.736514	0.427812	-0.000018
C24	C	1.740930	0.569458	-0.000027
N25	N	1.744800	0.194708	0.419759
N26	N	1.744828	0.194707	-0.419768
H27	H	1.488459	-0.199461	0.000134
H28	H	1.612941	-0.371721	-0.268355
N29	N	1.896215	-0.228575	-0.308246
H30	H	2.000599	-0.271423	-0.309412
H31	H	1.842073	-0.253946	-0.417964
H32	H	1.612900	-0.371799	0.268374
N33	N	2.039453	-0.426780	0.000197
H34	H	2.035626	-0.522704	-0.000846
H35	H	2.093765	-0.399889	-0.108586
H36	H	1.876570	-0.238998	0.268646
