data_functionalizedCrystal
_audit_creation_method	'MofGen! by Chris Wilmer'
_symmetry_space_group_name_H-M	'P1'
_symmetry_Int_Tables_number	1
_symmetry_cell_setting	triclinic
loop_
_symmetry_equiv_pos_as_xyz
  x,y,z
_cell_length_a	19.077105
_cell_length_b	17.637651
_cell_length_c	19.076919
_cell_angle_alpha	80.566536
_cell_angle_beta	90.076224
_cell_angle_gamma	98.499620
loop_
_atom_site_label
_atom_site_type_symbol
_atom_site_fract_x
_atom_site_fract_y
_atom_site_fract_z
Zn1	Zn	0.993412	-0.376382	-0.369993
Zn2	Zn	0.976496	-0.501474	-0.229080
Zn3	Zn	0.882426	-0.365960	-0.249736
Zn4	Zn	0.854398	-0.501005	-0.341921
O5	O	0.926683	-0.436205	-0.297682
O6	O	1.088714	-0.397534	-0.354404
O7	O	0.968667	-0.479332	-0.134268
O8	O	0.915957	-0.258475	-0.286082
O9	O	1.076286	-0.489438	-0.250876
O10	O	0.997498	-0.266132	-0.374434
O11	O	0.899554	-0.379771	-0.149444
O12	O	0.781161	-0.379316	-0.258861
O13	O	0.868189	-0.488639	-0.443196
O14	O	0.760570	-0.478533	-0.326588
O15	O	0.970321	-0.397079	-0.463821
O16	O	0.941491	-0.610280	-0.223656
O17	O	0.851786	-0.609935	-0.306559
C18	C	0.745573	-0.427743	-0.291920
C19	C	0.668089	-0.424142	-0.289468
C20	C	0.620975	-0.474180	-0.323494
C21	C	0.548173	-0.470786	-0.321195
C22	C	0.522485	-0.417359	-0.284866
C23	C	0.569605	-0.367316	-0.250840
C24	C	0.642407	-0.370706	-0.253143
C25	C	0.305902	-0.401669	-0.274209
C26	C	0.233094	-0.398284	-0.271907
C27	C	0.211666	-0.501754	-0.342264
C28	C	0.284470	-0.505142	-0.344561
C29	C	0.331584	-0.455097	-0.310537
N30	N	0.448069	-0.413891	-0.282514
N31	N	0.405999	-0.458562	-0.312894
C32	C	0.891780	-0.638337	-0.259835
C33	C	0.876910	-0.724814	-0.243670
C34	C	1.040085	-1.028866	-0.420726
C35	C	1.026091	-1.110122	-0.405523
C36	C	0.941246	-1.102255	-0.313438
C37	C	0.955235	-1.020996	-0.328631
C38	C	1.004654	-0.984308	-0.382276
C39	C	0.919805	-0.976439	-0.290181
C40	C	0.933790	-0.895187	-0.305376
C41	C	0.983205	-0.858493	-0.359020
C42	C	1.018640	-0.903056	-0.397471
C43	C	0.870382	-1.013129	-0.236540
C44	C	0.834951	-0.968571	-0.198090
C45	C	0.848940	-0.887318	-0.213281
C46	C	0.898356	-0.850623	-0.266925
C47	C	0.813506	-0.842754	-0.174830
C48	C	0.827491	-0.761502	-0.190024
C49	C	0.912341	-0.769372	-0.282119
C50	C	1.108500	-0.444701	-0.303467
C51	C	1.185980	-0.448321	-0.305933
C52	C	0.918016	-0.443969	-0.479510
C53	C	0.914322	-0.447278	-0.556994
C54	C	0.961741	-0.233286	-0.335693
C55	C	0.976681	-0.146813	-0.351891
C56	C	0.965759	-0.401164	-0.604135
C57	C	0.962281	-0.404269	-0.676940
C58	C	0.907368	-0.453493	-0.702601
C59	C	0.855926	-0.499608	-0.655455
C60	C	0.859402	-0.496498	-0.582652
C61	C	0.891267	-0.467902	-0.919187
C62	C	0.887796	-0.471010	-0.991995
C63	C	0.994151	-0.375669	-1.013475
C64	C	0.997624	-0.372567	-0.940669
C65	C	0.946180	-0.418679	-0.893530
N66	N	0.903812	-0.456670	-0.777019
N67	N	0.949733	-0.415498	-0.819114
C68	C	0.935366	-0.428417	-0.116574
C69	C	0.939233	-0.424896	-0.039136
H70	H	0.212184	-0.354768	-0.242329
H71	H	0.811212	-0.539684	-0.676355
H72	H	0.901007	-1.132138	-0.269762
H73	H	1.058888	-0.873184	-0.441150
H74	H	0.843076	-0.511095	-1.012885
H75	H	1.036033	-0.338126	-1.051864
O76	O	1.019157	-0.353459	-0.579160
C77	C	1.058530	-0.398050	-0.530172
H78	H	1.051208	-0.460462	-0.540769
H79	H	1.117075	-0.372379	-0.536327
H80	H	1.039147	-0.397366	-0.473807
H81	H	0.548685	-0.323811	-0.221263
H82	H	0.858990	-1.079289	-0.224176
O83	O	0.960265	-0.733634	-0.334276
C84	C	0.926476	-0.686731	-0.386796
H85	H	0.876926	-0.671102	-0.362752
H86	H	0.964250	-0.631289	-0.407749
H87	H	0.910932	-0.719875	-0.432356
H88	H	0.680768	-0.329957	-0.225440
H89	H	0.817510	-0.534041	-0.544271
H90	H	0.849385	-0.505462	-0.880812
O91	O	1.088009	-0.993128	-0.472882
C92	C	1.054220	-0.946226	-0.525403
H93	H	1.004670	-0.930596	-0.501359
H94	H	1.091994	-0.890783	-0.546356
H95	H	1.038676	-0.979369	-0.570963
O96	O	0.165978	-0.550325	-0.375427
C97	C	0.183377	-0.537218	-0.448657
H98	H	0.241329	-0.509841	-0.457412
H99	H	0.174683	-0.594863	-0.469396
H100	H	0.148188	-0.496352	-0.478379
O101	O	0.645810	-0.526102	-0.358843
C102	C	0.588609	-0.569550	-0.388368
H103	H	0.542098	-0.535376	-0.395151
H104	H	0.605587	-0.581267	-0.442376
H105	H	0.571888	-0.627138	-0.351455
H106	H	0.305378	-0.548650	-0.374142
O107	O	0.502394	-0.519289	-0.354340
C108	C	0.465763	-0.475048	-0.406371
H109	H	0.498068	-0.414989	-0.422937
H110	H	0.457524	-0.505537	-0.454663
H111	H	0.412077	-0.468843	-0.383589
H112	H	0.773264	-0.872638	-0.131156
H113	H	0.344253	-0.360924	-0.246499
H114	H	1.054937	-1.146399	-0.436847
H115	H	0.794712	-0.998454	-0.154413
H116	H	0.798639	-0.725223	-0.158715
O117	O	0.996855	-0.779572	-0.373894
C118	C	1.048084	-0.756747	-0.429474
H119	H	1.047812	-0.805744	-0.461767
H120	H	1.035125	-0.702541	-0.465404
H121	H	1.102738	-0.743499	-0.406194
H122	H	1.042342	-0.332486	-0.919781
O123	O	1.012324	-0.359451	-0.722631
C124	C	1.061530	-0.315329	-0.684371
H125	H	1.060913	-0.345093	-0.626583
H126	H	1.116881	-0.310500	-0.708711
H127	H	1.046587	-0.254717	-0.686882
