data_functionalizedCrystal
_audit_creation_method	'MofGen! by Chris Wilmer'
_symmetry_space_group_name_H-M	'P1'
_symmetry_Int_Tables_number	1
_symmetry_cell_setting	triclinic
loop_
_symmetry_equiv_pos_as_xyz
  x,y,z
_cell_length_a	14.044220
_cell_length_b	19.188930
_cell_length_c	13.101039
_cell_angle_alpha	93.345801
_cell_angle_beta	86.340132
_cell_angle_gamma	88.166830
loop_
_atom_site_label
_atom_site_type_symbol
_atom_site_fract_x
_atom_site_fract_y
_atom_site_fract_z
O1	O	1.262233	0.164759	-0.085127
O2	O	1.512233	0.414759	0.164873
O3	O	1.762233	0.664759	0.414873
O4	O	2.012233	0.914759	0.664873
O5	O	0.986290	0.158685	-0.085152
O6	O	1.236290	0.408685	0.164848
O7	O	1.486290	0.658685	0.414848
O8	O	1.736290	0.908685	0.664848
O9	O	1.132223	0.060581	-0.085119
O10	O	1.382223	0.310581	0.164881
O11	O	1.632223	0.560581	0.414881
O12	O	1.882223	0.810581	0.664881
O13	O	1.116300	0.262863	-0.085160
O14	O	1.366300	0.512863	0.164840
O15	O	1.616300	0.762863	0.414840
O16	O	1.866300	1.012863	0.664840
O17	O	1.121753	0.067633	0.085309
O18	O	1.371753	0.317633	0.335309
O19	O	1.621753	0.567633	0.585309
O20	O	1.871753	0.817633	0.835309
O21	O	0.975820	0.165737	0.085275
O22	O	1.225820	0.415737	0.335275
O23	O	1.475820	0.665737	0.585275
O24	O	1.725820	0.915737	0.835275
O25	O	1.251762	0.171810	0.085300
O26	O	1.501762	0.421810	0.335300
O27	O	1.751762	0.671810	0.585300
O28	O	2.001762	0.921810	0.835300
Zn29	Zn	1.112128	0.169893	0.112347
Zn30	Zn	1.362128	0.419893	0.362347
Zn31	Zn	1.612128	0.669893	0.612347
Zn32	Zn	1.862128	0.919893	0.862347
Zn33	Zn	1.125924	0.160602	-0.112199
Zn34	Zn	1.375924	0.410602	0.137801
Zn35	Zn	1.625924	0.660602	0.387801
Zn36	Zn	1.875924	0.910602	0.637801
O37	O	1.105829	0.269914	0.085267
O38	O	1.355829	0.519914	0.335267
O39	O	1.605829	0.769914	0.585267
O40	O	1.855829	1.019914	0.835267
C41	C	0.945752	0.159553	0.000059
C42	C	1.195752	0.409553	0.250059
C43	C	1.445752	0.659553	0.500059
C44	C	1.695752	0.909553	0.750059
C45	C	0.840559	0.151623	0.000050
C46	C	1.090559	0.401623	0.250050
C47	C	1.340559	0.651623	0.500050
C48	C	1.590559	0.901623	0.750050
C49	C	1.126472	0.038063	0.000098
C50	C	1.376472	0.288063	0.250098
C51	C	1.626472	0.538063	0.500098
C52	C	1.876472	0.788063	0.750098
C53	C	1.124923	-0.039541	0.000106
C54	C	1.374923	0.210459	0.250106
C55	C	1.624923	0.460459	0.500106
C56	C	1.874923	0.710459	0.750106
C57	C	0.647957	0.137129	0.000073
C58	C	0.897957	0.387129	0.250073
C59	C	1.147957	0.637129	0.500073
C60	C	1.397957	0.887129	0.750073
C61	C	0.590091	0.193363	0.000066
C62	C	0.840091	0.443363	0.250066
C63	C	1.090091	0.693363	0.500066
C64	C	1.340091	0.943363	0.750066
C65	C	0.482920	0.185298	0.000079
C66	C	0.732920	0.435298	0.250079
C67	C	0.982920	0.685298	0.500079
C68	C	1.232920	0.935298	0.750079
C69	C	0.755137	0.145193	0.000060
C70	C	1.005137	0.395193	0.250060
C71	C	1.255137	0.645193	0.500060
C72	C	1.505137	0.895193	0.750060
C73	C	1.210553	-0.078939	0.000119
C74	C	1.460553	0.171061	0.250119
C75	C	1.710553	0.421061	0.500119
C76	C	1.960553	0.671061	0.750119
C77	C	1.209099	-0.151857	0.000103
C78	C	1.459099	0.098143	0.250103
C79	C	1.709099	0.348143	0.500103
C80	C	1.959099	0.598143	0.750103
C81	C	1.122010	-0.185374	0.000094
C82	C	1.372010	0.064626	0.250094
C83	C	1.622010	0.314626	0.500094
C84	C	1.872010	0.564626	0.750094
C85	C	1.036370	-0.145968	0.000075
C86	C	1.286370	0.104032	0.250075
C87	C	1.536370	0.354032	0.500075
C88	C	1.786370	0.604032	0.750075
C89	C	1.037827	-0.073051	0.000082
C90	C	1.287827	0.176949	0.250082
C91	C	1.537827	0.426949	0.500082
C92	C	1.787827	0.676949	0.750082
N93	N	1.051878	-0.295275	0.058088
N94	N	1.301878	-0.045275	0.308088
N95	N	1.551878	0.204725	0.558088
N96	N	1.801878	0.454725	0.808088
N97	N	1.050500	-0.364543	0.058084
N98	N	1.300500	-0.114543	0.308084
N99	N	1.550500	0.135457	0.558084
N100	N	1.800500	0.385457	0.808084
C101	C	1.117617	-0.405067	0.000073
C102	C	1.367617	-0.155067	0.250073
C103	C	1.617617	0.094933	0.500073
C104	C	1.867617	0.344933	0.750073
N105	N	1.186177	-0.373707	-0.057921
N106	N	1.436177	-0.123707	0.192079
N107	N	1.686177	0.126293	0.442079
N108	N	1.936177	0.376293	0.692079
N109	N	1.187558	-0.304433	-0.057913
N110	N	1.437558	-0.054433	0.192087
N111	N	1.687558	0.195567	0.442087
N112	N	1.937558	0.445567	0.692087
C113	C	1.120421	-0.264440	0.000086
C114	C	1.370421	-0.014440	0.250086
C115	C	1.620421	0.235560	0.500086
C116	C	1.870421	0.485560	0.750086
C117	C	1.201676	-0.523532	0.000066
C118	C	1.451676	-0.273532	0.250066
C119	C	1.701676	-0.023532	0.500066
C120	C	1.951676	0.226468	0.750066
C121	C	1.200219	-0.596452	0.000043
C122	C	1.450219	-0.346452	0.250043
C123	C	1.700219	-0.096452	0.500043
C124	C	1.950219	0.153548	0.750043
C125	C	1.027487	-0.590560	0.000026
C126	C	1.277487	-0.340560	0.250026
C127	C	1.527487	-0.090560	0.500026
C128	C	1.777487	0.159440	0.750026
C129	C	1.028947	-0.517642	0.000039
C130	C	1.278947	-0.267642	0.250039
C131	C	1.528947	-0.017642	0.500039
C132	C	1.778947	0.232358	0.750039
C133	C	1.116043	-0.484132	0.000064
C134	C	1.366043	-0.234132	0.250064
C135	C	1.616043	0.015868	0.500064
C136	C	1.866043	0.265868	0.750064
C137	C	1.292301	0.170943	0.000087
C138	C	1.542301	0.420943	0.250087
C139	C	1.792301	0.670943	0.500087
C140	C	2.042301	0.920943	0.750087
C141	C	1.397494	0.178872	0.000089
C142	C	1.647494	0.428872	0.250089
C143	C	1.897494	0.678872	0.500089
C144	C	2.147494	0.928872	0.750089
C145	C	1.111580	0.292433	0.000048
C146	C	1.361580	0.542433	0.250048
C147	C	1.611580	0.792433	0.500048
C148	C	1.861580	1.042433	0.750048
C149	C	1.113129	0.370037	0.000033
C150	C	1.363129	0.620037	0.250033
C151	C	1.613129	0.870037	0.500033
C152	C	1.863129	1.120037	0.750033
N153	N	1.102720	0.176234	0.265593
N154	N	1.352720	0.426234	0.515593
N155	N	1.602720	0.676234	0.765593
N156	N	1.852720	0.926234	1.015593
N157	N	1.135340	0.154257	-0.265445
N158	N	1.385340	0.404257	-0.015445
N159	N	1.635340	0.654257	0.234555
N160	N	1.885340	0.904257	0.484555
C161	C	1.089920	0.184867	0.474633
C162	C	1.339920	0.434867	0.724633
C163	C	1.589920	0.684867	0.974633
C164	C	1.839920	0.934867	1.224633
C165	C	1.148137	0.145626	0.525522
C166	C	1.398137	0.395626	0.775522
C167	C	1.648137	0.645626	1.025522
C168	C	1.898137	0.895626	1.275522
C169	C	1.141014	0.150429	0.641839
C170	C	1.391014	0.400429	0.891839
C171	C	1.641014	0.650429	1.141839
C172	C	1.891014	0.900429	1.391839
C173	C	1.097041	0.180064	0.358306
C174	C	1.347041	0.430064	0.608306
C175	C	1.597041	0.680064	0.858306
C176	C	1.847041	0.930064	1.108306
H177	H	0.621038	0.247564	0.000050
H178	H	0.871038	0.497564	0.250050
H179	H	1.121038	0.747564	0.500050
H180	H	1.371038	0.997564	0.750050
H181	H	0.617011	0.082932	0.000090
H182	H	0.867011	0.332932	0.250090
H183	H	1.117011	0.582932	0.500090
H184	H	1.367011	0.832932	0.750090
C185	C	1.306362	-0.042083	0.000138
C186	C	1.556362	0.207917	0.250138
C187	C	1.806362	0.457917	0.500138
C188	C	2.056362	0.707917	0.750138
N189	N	1.378527	-0.014322	0.000149
N190	N	1.628527	0.235678	0.250149
N191	N	1.878527	0.485678	0.500149
N192	N	2.128527	0.735678	0.750149
H193	H	1.203327	0.108423	0.481732
H194	H	1.453327	0.358423	0.731732
H195	H	1.703327	0.608423	0.981732
H196	H	1.953327	0.858423	1.231732
C197	C	0.934746	-0.474303	0.000031
C198	C	1.184746	-0.224303	0.250031
C199	C	1.434746	0.025697	0.500031
C200	C	1.684746	0.275697	0.750031
N201	N	0.863790	-0.441660	0.000020
N202	N	1.113790	-0.191660	0.250020
N203	N	1.363790	0.058340	0.500020
N204	N	1.613790	0.308340	0.750020
H205	H	0.968095	-0.040974	0.000072
H206	H	1.218095	0.209026	0.250072
H207	H	1.468095	0.459026	0.500072
H208	H	1.718095	0.709026	0.750072
H209	H	1.034735	0.222068	0.518417
H210	H	1.284735	0.472068	0.768417
H211	H	1.534735	0.722068	1.018417
H212	H	1.784735	0.972068	1.268417
H213	H	1.272595	-0.496247	0.000082
H214	H	1.522595	-0.246247	0.250082
H215	H	1.772595	0.003753	0.500082
H216	H	2.022595	0.253753	0.750082
H217	H	0.965462	-0.173262	0.000066
H218	H	1.215462	0.076738	0.250066
H219	H	1.465462	0.326738	0.500066
H220	H	1.715462	0.576738	0.750066
C221	C	1.303301	-0.195203	0.000123
C222	C	1.553301	0.054797	0.250123
C223	C	1.803301	0.304797	0.500123
C224	C	2.053301	0.554797	0.750123
N225	N	1.374254	-0.227849	0.000141
N226	N	1.624254	0.022151	0.250141
N227	N	1.874254	0.272151	0.500141
N228	N	2.124254	0.522151	0.750141
H229	H	1.269952	-0.628529	0.000048
H230	H	1.519952	-0.378529	0.250048
H231	H	1.769952	-0.128529	0.500048
H232	H	2.019952	0.121471	0.750048
H233	H	0.956578	-0.617849	0.000014
H234	H	1.206578	-0.367849	0.250014
H235	H	1.456578	-0.117849	0.500014
H236	H	1.706578	0.132151	0.750014
