data_functionalizedCrystal
_audit_creation_method	'MofGen! by Chris Wilmer'
_symmetry_space_group_name_H-M	'P1'
_symmetry_Int_Tables_number	1
_symmetry_cell_setting	triclinic
loop_
_symmetry_equiv_pos_as_xyz
  x,y,z
_cell_length_a	16.956984
_cell_length_b	8.597304
_cell_length_c	16.053802
_cell_angle_alpha	84.919063
_cell_angle_beta	87.610701
_cell_angle_gamma	80.732613
loop_
_atom_site_label
_atom_site_type_symbol
_atom_site_fract_x
_atom_site_fract_y
_atom_site_fract_z
O1	O	1.062052	0.057504	-0.073569
O2	O	0.830511	0.112152	-0.077500
O3	O	0.950062	-0.142573	-0.059175
O4	O	0.942502	0.312228	-0.091893
O5	O	0.943481	-0.128606	0.078680
O6	O	0.823930	0.126118	0.060355
O7	O	1.055471	0.071470	0.064286
Zn8	Zn	0.938656	0.101012	0.084207
Zn9	Zn	0.947327	0.082610	-0.097421
O10	O	0.935921	0.326195	0.045961
C11	C	0.797544	0.121933	-0.008774
C12	C	0.709118	0.130253	-0.009372
C13	C	0.675464	-0.008850	0.000636
C14	C	0.592377	-0.001024	0.000067
C15	C	0.542945	0.145907	-0.010504
C16	C	0.576605	0.285020	-0.020516
C17	C	0.659690	0.277192	-0.019953
C18	C	0.293610	0.184654	-0.013298
C19	C	0.210520	0.192471	-0.013858
C20	C	0.226298	-0.093574	0.006725
C21	C	0.309384	-0.101388	0.007292
C22	C	0.343036	0.037724	-0.002724
N23	N	0.458017	0.153910	-0.011084
N24	N	0.427963	0.029719	-0.002151
C25	C	0.945593	-0.193512	0.013918
C26	C	0.942073	-0.366101	0.026329
C27	C	1.088439	0.061689	-0.004442
C28	C	1.176866	0.053369	-0.003849
C29	C	0.940390	0.377134	-0.027133
C30	C	0.943910	0.549723	-0.039550
N31	N	0.932744	0.113569	0.208164
N32	N	0.953245	0.070040	-0.221377
C33	C	0.983633	0.005217	0.259653
C34	C	0.979505	0.014014	0.346427
C35	C	0.924492	0.131172	0.381710
C36	C	0.873598	0.239529	0.330215
C37	C	0.877723	0.230723	0.243443
C38	C	0.906475	0.169592	0.640356
C39	C	0.902356	0.178392	0.727134
C40	C	1.008262	-0.047125	0.743340
C41	C	1.012385	-0.055915	0.656566
C42	C	0.961489	0.052437	0.605079
N43	N	0.920273	0.140170	0.470406
N44	N	0.965704	0.043431	0.516384
H45	H	0.715705	-0.128497	0.009249
H46	H	0.836283	0.318953	0.201521
H47	H	0.948174	-0.390308	-0.105451
H48	H	0.687089	0.390464	-0.028100
H49	H	0.937797	-0.426074	0.092234
H50	H	1.028433	-0.090179	0.230932
H51	H	1.020942	-0.074215	0.388350
H52	H	1.057181	-0.151314	0.627841
H53	H	0.321000	0.297928	-0.021459
H54	H	1.049699	-0.135342	0.785269
H55	H	0.857556	0.273803	0.755856
H56	H	0.865035	0.257819	0.598441
H57	H	0.564980	-0.114296	0.008217
H58	H	0.349626	-0.221035	0.015904
H59	H	0.828801	0.334917	0.358947
H60	H	0.170273	0.312127	-0.022463
H61	H	0.536351	0.404653	-0.029130
H62	H	0.198889	-0.206832	0.014870
