data_functionalizedCrystal
_audit_creation_method	'MofGen! by Chris Wilmer'
_symmetry_space_group_name_H-M	'P1'
_symmetry_Int_Tables_number	1
_symmetry_cell_setting	triclinic
loop_
_symmetry_equiv_pos_as_xyz
  x,y,z
_cell_length_a	14.750135
_cell_length_b	19.288864
_cell_length_c	19.288865
_cell_angle_alpha	83.136245
_cell_angle_beta	102.593112
_cell_angle_gamma	77.383632
loop_
_atom_site_label
_atom_site_type_symbol
_atom_site_fract_x
_atom_site_fract_y
_atom_site_fract_z
O1	O	0.080154	-0.936533	-0.071459
O2	O	0.580154	-0.436533	0.428541
O3	O	0.080090	-0.734260	-0.083160
O4	O	0.580090	-0.234260	0.416840
O5	O	0.080105	-0.841237	0.023817
O6	O	0.580105	-0.341237	0.523817
O7	O	0.080139	-0.829555	-0.178437
O8	O	0.580139	-0.329555	0.321563
O9	O	-0.079566	-0.810980	-0.006435
O10	O	0.420434	-0.310980	0.493565
O11	O	-0.079581	-0.704003	-0.113413
O12	O	0.420419	-0.204003	0.386587
O13	O	-0.079516	-0.906275	-0.101712
O14	O	0.420484	-0.406275	0.398288
Zn15	Zn	-0.104900	-0.800335	-0.112366
Zn16	Zn	0.395100	-0.300335	0.387634
Zn17	Zn	0.105473	-0.840200	-0.072507
Zn18	Zn	0.605473	-0.340200	0.427493
O19	O	-0.079531	-0.799298	-0.208689
O20	O	0.420469	-0.299298	0.291311
C21	C	0.000246	-0.693253	-0.097912
C22	C	0.500246	-0.193253	0.402088
C23	C	0.000221	-0.616145	-0.096788
C24	C	0.500221	-0.116145	0.403212
N25	N	-0.248473	-0.773133	-0.139568
N26	N	0.251527	-0.273133	0.360432
C27	C	0.000267	-0.825732	0.034567
C28	C	0.500267	-0.325732	0.534567
C29	C	0.000258	-0.824601	0.111669
C30	C	0.500258	-0.324601	0.611669
C31	C	-0.600179	-0.943365	0.030602
C32	C	-0.100179	-0.443365	0.530602
C33	C	-0.700691	-0.924306	0.011561
C34	C	-0.200691	-0.424306	0.511561
C35	C	-0.700716	-0.829549	-0.083142
C36	C	-0.200716	-0.329549	0.416858
C37	C	-0.600202	-0.848602	-0.064111
C38	C	-0.100202	-0.348602	0.435889
C39	C	-0.549942	-0.905510	-0.007238
C40	C	-0.049942	-0.405510	0.492762
C41	C	-0.549965	-0.810747	-0.101951
C42	C	-0.049965	-0.310747	0.398049
C43	C	-0.449460	-0.829797	-0.082919
C44	C	0.050540	-0.329797	0.417081
C45	C	-0.399192	-0.886701	-0.026047
C46	C	0.100808	-0.386701	0.473953
C47	C	-0.449437	-0.924560	0.011794
C48	C	0.050563	-0.424560	0.511794
C49	C	-0.600227	-0.753836	-0.158821
C50	C	-0.100227	-0.253836	0.341179
C51	C	-0.549990	-0.715981	-0.196661
C52	C	-0.049990	-0.215981	0.303339
C53	C	-0.449483	-0.735034	-0.177632
C54	C	0.050517	-0.235034	0.322368
C55	C	-0.399216	-0.791938	-0.120760
C56	C	0.100784	-0.291938	0.379240
C57	C	-0.399239	-0.697175	-0.215473
C58	C	0.100761	-0.197175	0.284527
C59	C	-0.298734	-0.716225	-0.196441
C60	C	0.201266	-0.216225	0.303559
C61	C	-0.298711	-0.810988	-0.101728
C62	C	0.201289	-0.310988	0.398272
N63	N	0.249046	-0.867408	-0.045299
N64	N	0.749046	-0.367408	0.454701
C65	C	0.000329	-0.947283	-0.086960
C66	C	0.500329	-0.447283	0.413040
C67	C	0.000361	-1.024392	-0.088083
C68	C	0.500361	-0.524392	0.411917
C69	C	0.000247	-0.571453	-0.159551
C70	C	0.500247	-0.071453	0.340449
C71	C	0.000257	-0.499008	-0.158488
C72	C	0.500257	0.000992	0.341512
C73	C	0.000261	-0.471262	-0.094655
C74	C	0.500261	0.028738	0.405345
C75	C	0.000230	-0.515962	-0.031885
C76	C	0.500230	-0.015962	0.468115
C77	C	0.000210	-0.588403	-0.032951
C78	C	0.500210	-0.088403	0.467049
C79	C	0.056224	-0.373605	-0.033873
C80	C	0.556224	0.126395	0.466127
C81	C	0.056250	-0.301165	-0.032808
C82	C	0.556250	0.198835	0.467192
C83	C	0.000318	-0.247827	-0.091365
C84	C	0.500318	0.252173	0.408635
C85	C	-0.055627	-0.266938	-0.150996
C86	C	0.444373	0.233062	0.349004
C87	C	-0.055647	-0.339380	-0.152062
C88	C	0.444353	0.160620	0.347938
C89	C	0.000282	-0.392712	-0.093492
C90	C	0.500282	0.107288	0.406508
C91	C	0.000354	-0.124581	-0.152980
C92	C	0.500354	0.375419	0.347020
C93	C	0.000359	-0.052134	-0.151916
C94	C	0.500359	0.447866	0.348084
C95	C	0.000341	-0.069091	-0.025309
C96	C	0.500341	0.430909	0.474691
C97	C	0.000327	-0.141535	-0.026377
C98	C	0.500327	0.358465	0.473623
C99	C	0.000338	-0.169276	-0.090213
C100	C	0.500338	0.330724	0.409787
C101	C	0.000309	-0.814804	-0.219439
C102	C	0.500309	-0.314804	0.280561
C103	C	0.000324	-0.815935	-0.296539
C104	C	0.500324	-0.315935	0.203461
C105	C	0.000273	-0.887372	0.156368
C106	C	0.500273	-0.387372	0.656368
C107	C	0.000288	-0.886314	0.228818
C108	C	0.500288	-0.386314	0.728818
C109	C	0.000268	-0.822478	0.256562
C110	C	0.500268	-0.322478	0.756562
C111	C	0.000258	-0.759700	0.211854
C112	C	0.500258	-0.259700	0.711854
C113	C	0.000253	-0.760762	0.139407
C114	C	0.500253	-0.260762	0.639407
C115	C	-0.055677	-0.761697	0.354249
C116	C	0.444323	-0.261697	0.854249
C117	C	-0.055678	-0.760637	0.426694
C118	C	0.444322	-0.260637	0.926694
C119	C	0.000289	-0.819203	0.480011
C120	C	0.500289	-0.319203	0.980011
C121	C	0.056243	-0.878837	0.460875
C122	C	0.556243	-0.378837	0.960875
C123	C	0.056238	-0.879899	0.388428
C124	C	0.556238	-0.379899	0.888428
C125	C	0.000274	-0.821321	0.335117
C126	C	0.500274	-0.321321	0.835117
C127	C	0.000321	-0.880831	0.603270
C128	C	0.500321	-0.380831	1.103270
C129	C	0.000342	-0.879772	0.675722
C130	C	0.500342	-0.379772	1.175722
C131	C	0.000303	-0.753154	0.658754
C132	C	0.500303	-0.253154	1.158754
C133	C	0.000292	-0.754217	0.586305
C134	C	0.500292	-0.254217	1.086305
C135	C	0.000296	-0.818057	0.558567
C136	C	0.500296	-0.318057	1.058567
H137	H	-0.257787	-0.857333	-0.055421
H138	H	0.242213	-0.357333	0.444579
H139	H	-0.317355	-0.902208	-0.010549
H140	H	0.182645	-0.402208	0.489451
F141	F	0.000237	-0.693950	0.091833
F142	F	0.500237	-0.193950	0.591833
F143	F	0.000229	-0.486430	0.036050
F144	F	0.500229	0.013570	0.536050
F145	F	0.000305	-0.953127	0.276399
F146	F	0.500305	-0.453127	0.776399
F147	F	-0.395943	-0.985135	0.072320
F148	F	0.104057	-0.485135	0.572320
F149	F	-0.546686	-1.003940	0.091128
F150	F	-0.046686	-0.503940	0.591128
H151	H	0.101808	-0.285612	0.015745
H152	H	0.601808	0.214388	0.515745
F153	F	0.000336	-0.039564	0.042625
F154	F	0.500336	0.460436	0.542625
F155	F	0.115791	-0.943362	0.368064
F156	F	0.615791	-0.443362	0.868064
H157	H	-0.741589	-0.955136	0.042381
H158	H	-0.241589	-0.455136	0.542381
H159	H	0.000311	-0.177925	0.024733
H160	H	0.500311	0.322075	0.524733
F161	F	-0.115232	-0.697172	0.447053
F162	F	0.384768	-0.197172	0.947053
H163	H	0.101776	-0.417030	0.013814
H164	H	0.601776	0.082970	0.513814
F165	F	0.000182	-0.635969	0.033853
F166	F	0.500182	-0.135969	0.533853
H167	H	0.000280	-0.939356	0.133789
H168	H	0.500280	-0.439356	0.633789
F169	F	0.000272	-0.687406	0.538730
F170	F	0.500272	-0.187406	1.038730
F171	F	0.000381	-0.004568	-0.218722
F172	F	0.500381	0.495432	0.281278
H173	H	-0.440174	-0.650836	-0.261776
H174	H	0.059826	-0.150836	0.238224
F175	F	-0.245267	-0.675933	-0.236714
F176	F	0.254733	-0.175933	0.263286
F177	F	0.000255	-0.600973	-0.227492
F178	F	0.500255	-0.100973	0.272508
F179	F	-0.115249	-0.699361	0.297509
F180	F	0.384751	-0.199361	0.797509
F181	F	-0.603489	-0.655415	-0.257187
F182	F	-0.103489	-0.155415	0.242813
H183	H	0.101816	-0.926527	0.504286
H184	H	0.601816	-0.426527	1.004286
H185	H	0.000244	-0.707725	0.234448
H186	H	0.500244	-0.207725	0.734448
H187	H	0.000329	-0.932814	0.580685
H188	H	0.500329	-0.432814	1.080685
F189	F	-0.754215	-0.768982	-0.143668
F190	F	-0.254215	-0.268982	0.356332
H191	H	-0.682065	-0.738326	-0.174312
H192	H	-0.182065	-0.238326	0.325688
H193	H	-0.101203	-0.354936	-0.200614
H194	H	0.398797	0.145064	0.299386
F195	F	0.000364	-0.946586	0.723296
F196	F	0.500364	-0.446586	1.223296
H197	H	0.000275	-0.462613	-0.209599
H198	H	0.500275	0.037387	0.290401
F199	F	0.000287	-0.685216	0.688277
F200	F	0.500287	-0.185216	1.188277
F201	F	-0.115158	-0.210176	-0.213321
F202	F	0.384842	0.289824	0.286679
H203	H	0.000349	-0.147167	-0.204962
H204	H	0.500349	0.352833	0.295038
