data_functionalizedCrystal
_audit_creation_method	'MofGen! by Chris Wilmer'
_symmetry_space_group_name_H-M	'P1'
_symmetry_Int_Tables_number	1
_symmetry_cell_setting	triclinic
loop_
_symmetry_equiv_pos_as_xyz
  x,y,z
_cell_length_a	17.019383
_cell_length_b	17.019294
_cell_length_c	16.776229
_cell_angle_alpha	86.114377
_cell_angle_beta	86.116884
_cell_angle_gamma	83.133350
loop_
_atom_site_label
_atom_site_type_symbol
_atom_site_fract_x
_atom_site_fract_y
_atom_site_fract_z
O1	O	1.046559	0.100561	-0.144959
O2	O	0.816882	0.113363	-0.130089
O3	O	0.938128	-0.007878	-0.130077
O4	O	0.925314	0.221802	-0.144971
O5	O	0.938111	-0.007885	0.002502
O6	O	0.816866	0.113356	0.002489
O7	O	1.046543	0.100553	-0.012381
Zn8	Zn	0.931702	0.106953	0.016104
Zn9	Zn	0.931723	0.106963	-0.158573
O10	O	0.925298	0.221794	-0.012393
C11	C	0.787486	0.112872	-0.061751
C12	C	0.699918	0.111409	-0.055646
C13	C	0.658780	0.110728	-0.125040
C14	C	0.576499	0.109367	-0.119293
C15	C	0.535359	0.108681	-0.044151
C16	C	0.576502	0.109364	0.025249
C17	C	0.658781	0.110731	0.019501
C18	C	0.286929	0.104558	-0.023179
C19	C	0.204645	0.103188	-0.017436
C20	C	0.204648	0.103192	-0.161979
C21	C	0.286929	0.104555	-0.167720
C22	C	0.328065	0.105242	-0.098321
C23	C	0.451255	0.107287	-0.038274
C24	C	0.412166	0.106642	-0.104199
C25	C	0.937633	-0.037270	-0.061738
C26	C	0.936175	-0.124839	-0.055629
C27	C	0.935501	-0.165971	-0.125027
C28	C	0.934126	-0.248251	-0.119284
C29	C	0.933431	-0.289398	-0.044143
C30	C	0.934103	-0.248261	0.025260
C31	C	0.935473	-0.165982	0.019517
C32	C	0.929291	-0.537827	-0.023187
C33	C	0.927924	-0.620112	-0.017450
C34	C	0.927946	-0.620097	-0.161995
C35	C	0.929320	-0.537817	-0.167731
C36	C	0.929988	-0.496686	-0.098328
C37	C	0.932028	-0.373502	-0.038272
C38	C	0.931385	-0.412583	-0.104200
C39	C	1.075940	0.101045	-0.080720
C40	C	1.163507	0.102507	-0.086831
C41	C	0.925792	0.251187	-0.080734
C42	C	0.927250	0.338756	-0.086848
N43	N	0.931693	0.106946	0.135316
N44	N	0.931738	0.106964	-0.277786
C45	C	0.985397	0.053283	0.177036
C46	C	0.985402	0.053282	0.260488
C47	C	0.931705	0.106949	0.302218
C48	C	0.877996	0.160615	0.260493
C49	C	0.877988	0.160612	0.177043
C50	C	0.878024	0.160631	0.597037
C51	C	0.878038	0.160632	0.680492
C52	C	0.985438	0.053301	0.680482
C53	C	0.985430	0.053298	0.597032
C54	C	0.931718	0.106960	0.555314
C55	C	0.931713	0.106959	0.464826
C56	C	0.931714	0.106955	0.392704
H57	H	0.445666	0.107205	-0.165380
H58	H	0.171148	0.102652	0.043756
H59	H	0.417749	0.106726	0.022908
H60	H	0.542998	0.108810	0.086431
H61	H	0.936011	-0.132492	0.076029
H62	H	0.936071	-0.132475	-0.186215
O63	O	0.326947	0.105086	-0.240686
C64	C	0.383559	0.037602	-0.244252
H65	H	0.365053	-0.010540	-0.198666
H66	H	0.387521	0.014701	-0.306870
H67	H	0.443878	0.054076	-0.230106
H68	H	0.931945	-0.379077	-0.165379
O69	O	0.933543	-0.288093	-0.186782
C70	C	0.934453	-0.234132	-0.254334
H71	H	0.960359	-0.178765	-0.238708
H72	H	0.972379	-0.262944	-0.305479
H73	H	0.871358	-0.217055	-0.273440
H74	H	1.029157	0.009599	0.563058
O75	O	0.929812	-0.497835	0.044218
C76	C	0.862330	-0.441221	0.049293
H77	H	0.814190	-0.459708	0.012852
H78	H	0.839424	-0.437285	0.114515
H79	H	0.878808	-0.380894	0.024619
O80	O	0.927212	-0.659958	0.055612
C81	C	0.928114	-0.606014	0.115638
H82	H	0.904129	-0.544069	0.091846
H83	H	0.889431	-0.624749	0.170117
H84	H	0.991509	-0.605606	0.133490
H85	H	0.933533	-0.281769	0.086442
H86	H	0.171146	0.102634	-0.218480
O87	O	0.825744	0.212634	0.136490
C88	C	0.777140	0.170407	0.094455
H89	H	0.775885	0.108197	0.123971
H90	H	0.714406	0.202622	0.095608
H91	H	0.801826	0.166258	0.029796
H92	H	0.927400	-0.653594	-0.218499
H93	H	0.692274	0.111289	0.076009
O94	O	0.698614	0.111430	-0.198100
C95	C	0.644658	0.110520	-0.258115
H96	H	0.582716	0.134503	-0.234316
H97	H	0.663379	0.149201	-0.312602
H98	H	0.644249	0.047122	-0.275957
H99	H	0.929887	-0.504320	-0.228919
O100	O	0.931470	-0.413398	0.034759
C101	C	1.000098	-0.402320	0.073243
H102	H	1.023859	-0.345580	0.047168
H103	H	0.984786	-0.397487	0.140077
H104	H	1.047144	-0.454933	0.063604
O105	O	1.037589	0.001073	0.136630
C106	C	1.085002	-0.046278	0.191350
H107	H	1.052667	-0.047150	0.253121
H108	H	1.097107	-0.109285	0.170742
H109	H	1.143569	-0.020693	0.194437
H110	H	0.320413	0.105113	0.033331
H111	H	1.029131	0.009585	0.294456
H112	H	1.029171	0.009603	0.714458
O113	O	0.825792	0.212792	0.720911
C114	C	0.778394	0.260168	0.666195
H115	H	0.777535	0.227825	0.608991
H116	H	0.715390	0.272224	0.693817
H117	H	0.803927	0.318761	0.651532
H118	H	0.834292	0.204326	0.563076
O119	O	0.825911	0.212718	0.301147
C120	C	0.837420	0.201205	0.383750
H121	H	0.900168	0.171692	0.392861
H122	H	0.828577	0.260951	0.411962
H123	H	0.792823	0.161662	0.413223
H124	H	0.543008	0.108812	-0.175802
