data_functionalizedCrystal
_audit_creation_method	'MofGen! by Chris Wilmer'
_symmetry_space_group_name_H-M	'P1'
_symmetry_Int_Tables_number	1
_symmetry_cell_setting	triclinic
loop_
_symmetry_equiv_pos_as_xyz
  x,y,z
_cell_length_a	18.215405
_cell_length_b	12.759401
_cell_length_c	18.215399
_cell_angle_alpha	89.978104
_cell_angle_beta	90.030551
_cell_angle_gamma	89.975841
loop_
_atom_site_label
_atom_site_type_symbol
_atom_site_fract_x
_atom_site_fract_y
_atom_site_fract_z
Zn1	Zn	-0.293006	-1.606160	0.416143
Zn2	Zn	-0.416077	-1.606030	0.293071
Zn3	Zn	-0.293028	-1.430468	0.293086
Zn4	Zn	-0.416034	-1.430420	0.416092
O5	O	-0.354536	-1.518270	0.354598
O6	O	-0.309341	-1.753164	0.399833
O7	O	-0.399782	-1.582707	0.190089
O8	O	-0.190040	-1.453849	0.309437
O9	O	-0.399761	-1.753068	0.309412
O10	O	-0.190025	-1.582930	0.399847
O11	O	-0.309378	-1.453723	0.190100
O12	O	-0.309335	-1.283441	0.309388
O13	O	-0.399687	-1.453766	0.519083
O14	O	-0.399708	-1.283405	0.399759
O15	O	-0.309299	-1.582882	0.519121
O16	O	-0.519056	-1.582659	0.309362
O17	O	-0.519024	-1.453640	0.399745
C18	C	-0.354520	-1.245302	0.354570
C19	C	-0.354530	-1.128525	0.354575
C20	C	-0.401536	-1.073610	0.307431
C21	C	-0.401548	-0.963886	0.307446
C22	C	-0.307541	-0.964003	0.401753
C23	C	-0.307534	-1.073725	0.401740
C24	C	-0.488315	-0.813874	0.281009
C25	C	-0.535315	-0.758954	0.233853
C26	C	-0.546517	-0.794504	0.162020
C27	C	-0.510710	-0.884972	0.137328
C28	C	-0.463705	-0.939886	0.184480
C29	C	-0.452516	-0.904338	0.256324
C30	C	-0.220765	-1.223739	0.428170
C31	C	-0.173756	-1.278655	0.475319
C32	C	-0.162545	-1.243107	0.547153
C33	C	-0.198340	-1.152635	0.571843
C34	C	-0.245349	-1.097719	0.524694
C35	C	-0.256560	-1.133275	0.452860
C36	C	-0.545743	-1.518159	0.354563
C37	C	-0.627541	-1.518207	0.354572
C38	C	-0.815727	-1.585546	0.307596
C39	C	-0.892586	-1.585593	0.307614
C40	C	-0.892593	-1.451128	0.401652
C41	C	-0.815736	-1.451087	0.401638
C42	C	-0.777305	-1.518294	0.354606
C43	C	-0.931021	-1.518382	0.354638
C44	C	-1.014355	-1.518433	0.354658
C45	C	-0.693966	-1.518245	0.354587
C46	C	-0.162583	-1.518410	0.354650
C47	C	-0.080784	-1.518469	0.354672
C48	C	-0.354485	-1.518334	0.546551
C49	C	-0.354464	-1.518361	0.628350
C50	C	-0.354550	-0.792303	0.354618
C51	C	-0.354549	-0.909079	0.354603
C52	C	-0.354534	-1.518266	0.163392
C53	C	-0.354348	-1.518443	0.081593
C54	C	-0.307355	-1.585616	0.816565
C55	C	-0.307333	-1.585628	0.893424
C56	C	-0.401459	-1.451180	0.893373
C57	C	-0.401476	-1.451163	0.816516
C58	C	-0.354425	-1.518387	0.778114
C59	C	-0.354387	-1.518416	0.931830
C60	C	-0.354364	-1.518430	1.015163
C61	C	-0.354447	-1.518373	0.694774
H62	H	-0.584788	-0.749783	0.123627
H63	H	-0.923867	-1.640357	0.269336
H64	H	-0.439806	-1.396410	0.785208
H65	H	-0.434550	-1.013541	0.164376
F66	F	-0.774841	-1.379510	0.451677
H67	H	-0.269276	-0.919371	0.440152
F68	F	-0.257277	-1.657158	0.775697
H69	H	-0.439768	-1.396452	0.924649
H70	H	-0.144605	-1.352316	0.455208
H71	H	-0.923893	-1.396409	0.439943
F72	F	-0.451558	-1.131929	0.257238
F73	F	-0.112502	-1.301547	0.597328
F74	F	-0.522625	-0.922790	0.060868
F75	F	-0.774829	-1.657075	0.257542
H76	H	-0.564468	-0.685294	0.253964
H77	H	-0.479206	-0.784928	0.339504
F78	F	-0.283444	-1.001429	0.550972
H79	H	-0.269003	-1.640371	0.924727
H80	H	-0.189206	-1.123685	0.630334
H81	H	-0.229897	-1.252699	0.369679
