data_functionalizedCrystal
_audit_creation_method	'MofGen! by Chris Wilmer'
_symmetry_space_group_name_H-M	'P1'
_symmetry_Int_Tables_number	1
_symmetry_cell_setting	triclinic
loop_
_symmetry_equiv_pos_as_xyz
  x,y,z
_cell_length_a	10.654558
_cell_length_b	10.654550
_cell_length_c	15.455313
_cell_angle_alpha	92.692163
_cell_angle_beta	87.293400
_cell_angle_gamma	84.486610
loop_
_atom_site_label
_atom_site_type_symbol
_atom_site_fract_x
_atom_site_fract_y
_atom_site_fract_z
O1	O	1.673291	0.171004	-0.072116
O2	O	1.307814	0.187799	-0.072121
O3	O	1.498955	-0.003337	-0.072115
O4	O	1.482150	0.362140	-0.072122
O5	O	1.488025	0.007548	0.072147
O6	O	1.296883	0.198684	0.072141
O7	O	1.662360	0.181889	0.072145
Cu8	Cu	1.478624	0.191280	0.085316
Cu9	Cu	1.491551	0.178408	-0.085291
O10	O	1.471219	0.373025	0.072140
C11	C	1.255551	0.192006	0.000010
C12	C	1.116108	0.188310	0.000008
C13	C	0.925528	0.177181	-0.078629
C14	C	1.056551	0.180643	-0.078630
C15	C	1.044638	0.192503	0.078652
C16	C	0.913618	0.189032	0.078652
C17	C	0.865976	0.169526	-0.157272
C18	C	0.937439	0.165331	-0.235917
C19	C	1.068461	0.168792	-0.235917
C20	C	1.128022	0.176450	-0.157274
C21	C	1.492256	-0.044693	0.000015
C22	C	1.488564	-0.184136	0.000012
C23	C	1.601105	-0.263618	0.000016
C24	C	1.597629	-0.394640	0.000009
C25	C	1.369061	-0.366684	-0.000001
C26	C	1.372539	-0.235666	-0.000001
C27	C	1.717131	-0.212089	0.000028
C28	C	1.829681	-0.291572	0.000033
C29	C	1.826204	-0.422594	0.000027
C30	C	1.710178	-0.474132	0.000016
C31	C	1.714624	0.177682	0.000013
C32	C	1.854067	0.181378	0.000009
C33	C	1.477918	0.414381	0.000008
C34	C	1.481611	0.553824	0.000006
N35	N	1.469541	0.200333	0.205311
N36	N	1.500643	0.169345	-0.205286
C37	C	1.550773	0.119162	0.250707
C38	C	1.543916	0.126020	0.341515
C39	C	1.455831	0.214056	0.386925
C40	C	1.374591	0.295231	0.341522
C41	C	1.381443	0.288366	0.250716
C42	C	1.426255	0.243655	0.658505
C43	C	1.419411	0.250516	0.749318
C44	C	1.588736	0.081303	0.749304
C45	C	1.595585	0.074451	0.658497
C46	C	1.514340	0.155621	0.613102
N47	N	1.448823	0.221071	0.479745
N48	N	1.521343	0.148599	0.520283
H49	H	0.888937	0.159088	-0.299945
O50	O	1.145545	0.164265	-0.320734
H51	H	1.082118	0.158369	-0.375416
O52	O	1.690579	-0.020512	0.609518
H53	H	1.745906	-0.075815	0.656342
O54	O	1.293831	0.375903	0.201737
H55	H	1.309364	0.475282	0.219138
O56	O	1.954819	-0.235994	0.000032
H57	H	2.004505	-0.263422	0.058825
H58	H	1.302864	0.366908	0.378500
O59	O	1.324397	0.345463	0.798305
H60	H	1.227671	0.327212	0.780906
H61	H	1.654880	0.015217	0.786273
H62	H	0.759291	0.166711	-0.157280
H63	H	1.707358	-0.580820	0.000002
H64	H	1.280898	-0.170949	-0.000003
O65	O	1.269340	0.180190	-0.157275
H66	H	1.316903	0.093100	-0.191227
O67	O	1.108867	0.200782	0.163472
H68	H	1.211976	0.202506	0.150260
H69	H	0.855430	0.192473	0.142686
H70	H	1.360104	0.309749	0.621552
H71	H	1.719974	-0.105406	0.000036
O72	O	1.947587	-0.508328	0.000036
H73	H	2.028845	-0.450479	0.000053
H74	H	1.622506	0.047479	0.213741
O75	O	1.243922	-0.422262	0.000004
H76	H	1.260411	-0.526720	0.000017
H77	H	1.610061	0.059924	0.378476
