data_functionalizedCrystal
_audit_creation_method	'MofGen! by Chris Wilmer'
_symmetry_space_group_name_H-M	'P1'
_symmetry_Int_Tables_number	1
_symmetry_cell_setting	triclinic
loop_
_symmetry_equiv_pos_as_xyz
  x,y,z
_cell_length_a	6.817900
_cell_length_b	12.908943
_cell_length_c	17.982865
_cell_angle_alpha	95.940301
_cell_angle_beta	102.450232
_cell_angle_gamma	100.860631
loop_
_atom_site_label
_atom_site_type_symbol
_atom_site_fract_x
_atom_site_fract_y
_atom_site_fract_z
V1	V	-3.991117	-0.329130	-0.104461
O2	O	-3.984602	-0.322399	0.005998
O3	O	-3.937787	-0.327327	-0.208071
O4	O	-3.929494	-0.472471	-0.102425
O5	O	-3.992954	-0.176250	-0.100378
V6	V	-4.477098	-0.310790	-0.091300
O7	O	-4.246986	-0.369360	-0.133332
O8	O	-4.671427	-0.270560	-0.062429
O9	O	-4.307221	-0.312594	0.012309
O10	O	-4.601010	-0.317521	-0.201760
O11	O	-4.592658	-0.463670	-0.095383
O12	O	-4.315515	-0.167449	-0.093336
C13	C	-3.782017	-0.322250	-0.233342
C14	C	-3.819612	-0.321731	-0.318041
C15	C	-4.019565	-0.221860	-0.827328
C16	C	-3.984239	-0.222362	-0.747745
C17	C	-3.997341	-0.319198	-0.718562
C18	C	-4.045751	-0.415539	-0.768966
C19	C	-4.081061	-0.415035	-0.848547
C20	C	-3.903348	-0.417570	-0.448027
C21	C	-3.868039	-0.418066	-0.368440
C22	C	-3.806526	-0.224896	-0.347226
C23	C	-3.841836	-0.224393	-0.426806
C24	C	-3.890232	-0.320733	-0.477203
C25	C	-3.928532	-0.320187	-0.563495
C26	C	-3.959056	-0.319745	-0.632272
C27	C	-3.771436	-0.507395	-0.098580
C28	C	-3.802303	-0.624579	-0.097600
C29	C	-4.223196	-0.855551	-0.103321
C30	C	-4.252207	-0.965656	-0.102401
C31	C	-3.889337	-0.954898	-0.094836
C32	C	-3.860326	-0.844792	-0.095755
C33	C	-4.027264	-0.795123	-0.099999
C34	C	-3.998252	-0.685016	-0.100924
C35	C	-3.635382	-0.674258	-0.093353
C36	C	-3.664394	-0.784364	-0.092434
C37	C	-4.126334	-0.317667	0.037576
C38	C	-4.067976	-0.318193	0.122275
C39	C	-4.136915	-0.132520	-0.097184
C40	C	-4.085287	-0.015334	-0.098160
H41	H	-3.831173	-0.145539	-0.450562
F42	F	-4.132604	-0.517567	-0.902184
F43	F	-4.400864	-0.802688	-0.107847
F44	F	-4.460741	-1.029964	-0.105934
F45	F	-3.755021	-0.122362	-0.293584
F46	F	-3.711696	-1.007778	-0.090322
H47	H	-4.134185	-0.644578	-0.104383
H48	H	-3.878718	-0.496927	-0.344684
H49	H	-3.528484	-0.824820	-0.088976
H50	H	-3.475838	-0.625046	-0.090652
F51	F	-4.059673	-0.518599	-0.737905
F52	F	-4.005628	-0.118792	-0.858379
H53	H	-3.942758	-0.496016	-0.489051
F54	F	-3.932713	-0.119830	-0.694111
