data_functionalizedCrystal
_audit_creation_method	'MofGen! by Chris Wilmer'
_symmetry_space_group_name_H-M	'P1'
_symmetry_Int_Tables_number	1
_symmetry_cell_setting	triclinic
loop_
_symmetry_equiv_pos_as_xyz
  x,y,z
_cell_length_a	6.817900
_cell_length_b	9.514072
_cell_length_c	12.200875
_cell_angle_alpha	89.400980
_cell_angle_beta	107.143593
_cell_angle_gamma	118.843421
loop_
_atom_site_label
_atom_site_type_symbol
_atom_site_fract_x
_atom_site_fract_y
_atom_site_fract_z
V1	V	-4.153270	-0.222570	-0.358561
V2	V	-3.653270	0.277430	0.141439
O3	O	-4.051100	0.010320	-0.350811
O4	O	-3.551100	0.510320	0.149189
O5	O	-4.187859	-0.440958	-0.356998
O6	O	-3.687859	0.059042	0.143002
O7	O	-4.121749	-0.219311	-0.514536
O8	O	-3.621749	0.280689	-0.014536
O9	O	-4.117668	-0.212861	-0.192182
O10	O	-3.617668	0.287139	0.307818
V11	V	-4.623957	-0.194694	-0.338553
V12	V	-4.123957	0.305306	0.161447
O13	O	-4.442685	-0.283718	-0.402451
O14	O	-3.942685	0.216282	0.097549
O15	O	-4.784740	-0.133546	-0.294663
O16	O	-4.284740	0.366454	0.205337
O17	O	-4.366161	0.023694	-0.340116
O18	O	-3.866161	0.523694	0.159884
O19	O	-4.843524	-0.427584	-0.346303
O20	O	-4.343524	0.072416	0.153697
O21	O	-4.776956	-0.204403	-0.504932
O22	O	-4.276956	0.295597	-0.004932
O23	O	-4.432271	-0.197953	-0.182578
O24	O	-3.932271	0.302047	0.317422
C25	C	-4.052503	-0.494191	-0.351571
C26	C	-3.552503	0.005809	0.148429
C27	C	-4.162183	-0.672727	-0.351333
C28	C	-3.662183	-0.172727	0.148667
C29	C	-3.968171	-0.211456	-0.552525
C30	C	-3.468171	0.288544	-0.052525
C31	C	-4.024232	-0.210237	-0.680041
C32	C	-3.524232	0.289763	-0.180041
C33	C	-4.126832	-0.208006	-0.913507
C34	C	-3.626832	0.291994	-0.413507
C35	C	-4.069729	-0.209247	-0.783590
C36	C	-3.569729	0.290753	-0.283590
C37	C	-4.164862	0.076918	-0.345540
C38	C	-3.664862	0.576918	0.154460
C39	C	-4.034422	0.255453	-0.345785
C40	C	-3.534422	0.755453	0.154215
C41	C	-4.249193	-0.205813	-0.144583
C42	C	-3.749193	0.294187	0.355417
C43	C	-4.172367	-0.207024	-0.017065
C44	C	-3.672367	0.292976	0.482935
H45	H	-3.841099	-0.669438	-0.341161
H46	H	-3.341099	-0.169438	0.158839
C47	C	-4.423373	-0.774202	-0.357580
C48	C	-3.923373	-0.274202	0.142420
N49	N	-4.620102	-0.850635	-0.362289
N50	N	-4.120102	-0.350635	0.137711
