data_functionalizedCrystal
_audit_creation_method	'MofGen! by Chris Wilmer'
_symmetry_space_group_name_H-M	'P1'
_symmetry_Int_Tables_number	1
_symmetry_cell_setting	triclinic
loop_
_symmetry_equiv_pos_as_xyz
  x,y,z
_cell_length_a	9.565339
_cell_length_b	19.288864
_cell_length_c	19.288865
_cell_angle_alpha	83.136245
_cell_angle_beta	89.995006
_cell_angle_gamma	89.982617
loop_
_atom_site_label
_atom_site_type_symbol
_atom_site_fract_x
_atom_site_fract_y
_atom_site_fract_z
O1	O	0.116724	-0.921348	-0.086643
O2	O	0.116631	-0.719087	-0.098331
O3	O	0.116652	-0.826062	0.008643
O4	O	0.116702	-0.814373	-0.193617
O5	O	-0.115868	-0.826054	0.008637
O6	O	-0.115889	-0.719079	-0.098338
O7	O	-0.115796	-0.921339	-0.086649
Zn8	Zn	-0.152760	-0.820208	-0.092495
Zn9	Zn	0.153595	-0.820219	-0.092486
O10	O	-0.115818	-0.814365	-0.193624
C11	C	0.000358	-0.693207	-0.097959
C12	C	0.000321	-0.616103	-0.096830
C13	C	0.000388	-0.825682	0.034516
C14	C	0.000375	-0.824553	0.111620
N15	N	-0.361840	-0.820205	-0.092500
C16	C	-0.453053	-0.770718	-0.141956
C17	C	-0.546198	-0.833443	-0.155238
C18	C	-0.546250	-0.757508	-0.079224
C19	C	-0.452933	-0.882962	-0.105813
C20	C	-0.452976	-0.806985	-0.029772
C21	C	-0.546080	-0.869755	-0.043027
N22	N	0.362674	-0.820227	-0.092475
C23	C	0.000480	-0.947220	-0.087022
C24	C	0.000526	-1.024324	-0.088151
C25	C	0.000359	-0.571407	-0.159598
C26	C	0.000374	-0.498960	-0.158537
C27	C	0.000380	-0.471212	-0.094705
C28	C	0.000335	-0.515918	-0.031929
C29	C	0.000305	-0.588364	-0.032991
C30	C	0.081877	-0.362953	-0.044523
C31	C	0.081914	-0.290509	-0.043463
C32	C	0.000464	-0.247767	-0.091425
C33	C	-0.081007	-0.277476	-0.140458
C34	C	-0.081036	-0.349922	-0.141521
C35	C	0.000411	-0.392658	-0.093546
C36	C	0.000516	-0.124514	-0.153047
C37	C	0.000522	-0.052066	-0.151984
C38	C	0.000497	-0.069026	-0.025374
C39	C	0.000476	-0.141473	-0.026439
C40	C	0.000492	-0.169212	-0.090278
C41	C	0.000450	-0.814745	-0.219497
C42	C	0.000472	-0.815874	-0.296601
C43	C	0.000397	-0.887321	0.156316
C44	C	0.000419	-0.886260	0.228763
C45	C	0.000390	-0.822428	0.256511
C46	C	0.000376	-0.759652	0.211805
C47	C	0.000369	-0.760714	0.139359
C48	C	-0.081080	-0.772245	0.364796
C49	C	-0.081081	-0.771185	0.437240
C50	C	0.000420	-0.819148	0.479956
C51	C	0.081904	-0.868182	0.450221
C52	C	0.081896	-0.869245	0.377775
C53	C	0.000400	-0.821269	0.335065
C54	C	0.000468	-0.880770	0.603209
C55	C	0.000498	-0.879707	0.675657
C56	C	0.000441	-0.753097	0.658697
C57	C	0.000425	-0.754162	0.586250
C58	C	0.000432	-0.818000	0.558511
H59	H	-0.412206	-0.728906	-0.183818
H60	H	-0.587145	-0.844640	-0.208274
F61	F	-0.599828	-0.688193	-0.064560
H62	H	0.000276	-0.624756	0.018124
H63	H	-0.586670	-0.911660	-0.001190
H64	H	-0.411997	-0.795769	0.023247
H65	H	0.000399	-0.703049	0.549857
H66	H	0.000375	-0.593987	-0.211580
H67	H	-0.147421	-0.731256	0.461445
H68	H	0.000401	-0.462561	-0.209652
H69	H	0.000425	-0.701123	0.681288
F70	F	0.168634	-0.258895	0.008716
H71	H	-0.412117	-0.936004	-0.117095
F72	F	0.000468	-0.948712	0.573684
H73	H	0.148270	-0.907238	0.484999
H74	H	-0.147377	-0.374109	-0.181443
F75	F	-0.167699	-0.231993	-0.191507
H76	H	0.000508	-0.147101	-0.205028
F77	F	0.168573	-0.408436	0.006528
H78	H	0.000350	-0.709599	0.102967
H79	H	0.000545	-0.015674	-0.203099
H80	H	0.148246	-0.909169	0.353567
F81	F	0.000489	-0.039500	0.042562
F82	F	0.000443	-0.189044	0.040368
F83	F	0.000531	-0.946517	0.723227
H84	H	0.000358	-0.493322	0.020044
H85	H	0.000408	-0.939303	0.133736
F86	F	-0.167832	-0.721194	0.319341
H87	H	0.000356	-0.707679	0.234401
H88	H	0.000443	-0.937375	0.265162
