data_functionalizedCrystal
_audit_creation_method	'MofGen! by Chris Wilmer'
_symmetry_space_group_name_H-M	'P1'
_symmetry_Int_Tables_number	1
_symmetry_cell_setting	triclinic
loop_
_symmetry_equiv_pos_as_xyz
  x,y,z
_cell_length_a	21.395362
_cell_length_b	11.169416
_cell_length_c	21.395355
_cell_angle_alpha	90.010927
_cell_angle_beta	90.043940
_cell_angle_gamma	90.026221
loop_
_atom_site_label
_atom_site_type_symbol
_atom_site_fract_x
_atom_site_fract_y
_atom_site_fract_z
Zn1	Zn	0.957948	-0.477437	0.354619
Zn2	Zn	1.457948	0.022563	0.854619
Zn3	Zn	0.957888	-0.678108	0.249855
Zn4	Zn	1.457888	-0.178108	0.749855
Zn5	Zn	0.853163	-0.477493	0.249820
Zn6	Zn	1.353163	0.022507	0.749820
Zn7	Zn	0.853169	-0.678133	0.354560
Zn8	Zn	1.353169	-0.178133	0.854560
O9	O	0.905542	-0.577793	0.302213
O10	O	1.405542	-0.077793	0.802213
O11	O	1.045618	-0.504023	0.340761
O12	O	1.545618	-0.004023	0.840761
O13	O	0.943968	-0.651509	0.162172
O14	O	1.443968	-0.151509	0.662172
O15	O	0.867086	-0.309536	0.263732
O16	O	1.367086	0.190464	0.763732
O17	O	1.045574	-0.651455	0.263792
O18	O	1.545574	-0.151455	0.763792
O19	O	0.944071	-0.309495	0.340727
O20	O	1.444071	0.190505	0.840727
O21	O	0.867027	-0.504118	0.162147
O22	O	1.367027	-0.004118	0.662147
O23	O	0.765486	-0.504142	0.263675
O24	O	1.265486	-0.004142	0.763675
O25	O	0.867096	-0.651497	0.442246
O26	O	1.367096	-0.151497	0.942246
O27	O	0.765491	-0.651551	0.340627
O28	O	1.265491	-0.151551	0.840627
O29	O	0.944077	-0.504047	0.442289
O30	O	1.444077	-0.004047	0.942289
O31	O	0.943974	-0.846061	0.263734
O32	O	1.443974	-0.346061	0.763734
O33	O	0.867038	-0.846079	0.340661
O34	O	1.367038	-0.346079	0.840661
C35	C	0.742754	-0.577856	0.302141
C36	C	1.242754	-0.077856	0.802141
C37	C	0.673113	-0.577912	0.302124
C38	C	1.173113	-0.077912	0.802124
C39	C	0.905517	-0.889618	0.302209
C40	C	1.405517	-0.389618	0.802209
C41	C	0.905564	-1.023018	0.302228
C42	C	1.405564	-0.523018	0.802228
C43	C	0.640419	-0.654770	0.342133
C44	C	1.140419	-0.154770	0.842133
C45	C	0.574984	-0.654741	0.342161
C46	C	1.074984	-0.154741	0.842161
C47	C	0.542245	-0.577866	0.302169
C48	C	1.042245	-0.077866	0.802169
C49	C	0.574947	-0.500994	0.262157
C50	C	1.074947	-0.000994	0.762157
C51	C	0.640381	-0.501017	0.262135
C52	C	1.140381	-0.001017	0.762135
C53	C	0.438518	-0.568198	0.245763
C54	C	0.938518	-0.068198	0.745763
C55	C	0.373085	-0.568183	0.245784
C56	C	0.873085	-0.068183	0.745784
C57	C	0.340424	-0.577788	0.302238
C58	C	0.840424	-0.077788	0.802238
C59	C	0.373204	-0.587433	0.358673
C60	C	0.873204	-0.087433	0.858673
C61	C	0.438638	-0.587456	0.358650
C62	C	0.938638	-0.087456	0.858650
C63	C	0.471293	-0.577832	0.302189
C64	C	0.971293	-0.077832	0.802189
C65	C	0.236777	-0.654618	0.342281
C66	C	0.736777	-0.154618	0.842281
C67	C	0.171341	-0.654580	0.342310
C68	C	0.671341	-0.154580	0.842310
C69	C	0.171306	-0.500839	0.262300
C70	C	0.671306	-0.000839	0.762300
C71	C	0.236741	-0.500871	0.262277
C72	C	0.736741	-0.000871	0.762277
C73	C	0.269473	-0.577766	0.302266
C74	C	0.769473	-0.077766	0.802266
C75	C	1.068965	-0.577730	0.302287
C76	C	1.568965	-0.077730	0.802287
C77	C	1.138607	-0.577703	0.302318
C78	C	1.638607	-0.077703	0.802318
C79	C	0.905594	-0.577769	0.465637
C80	C	1.405594	-0.077769	0.965637
C81	C	0.905616	-0.577758	0.535278
C82	C	1.405616	-0.077758	1.035278
C83	C	0.905584	-0.264751	0.302232
C84	C	1.405584	0.235249	0.802232
C85	C	0.905602	-0.131351	0.302240
C86	C	1.405602	0.368649	0.802240
C87	C	0.905526	-0.577731	0.139426
C88	C	1.405526	-0.077731	0.639426
C89	C	0.905626	-0.577403	0.069785
C90	C	1.405626	-0.077403	0.569785
C91	C	0.945698	-0.500978	0.568015
C92	C	1.445698	-0.000978	1.068015
C93	C	0.945697	-0.500926	0.633450
C94	C	1.445697	-0.000926	1.133450
C95	C	0.905621	-0.577676	0.666146
C96	C	1.405621	-0.077676	1.166146
C97	C	0.865531	-0.654462	0.633402
C98	C	1.365531	-0.154462	1.133402
C99	C	0.865529	-0.654503	0.567968
C100	C	1.365529	-0.154503	1.067968
C101	C	0.900665	-0.685744	0.769818
C102	C	1.400665	-0.185744	1.269818
C103	C	0.900672	-0.685705	0.835251
C104	C	1.400672	-0.185705	1.335251
C105	C	0.905625	-0.577550	0.867967
C106	C	1.405625	-0.077550	1.367967
C107	C	0.910584	-0.469429	0.835243
C108	C	1.410584	0.030571	1.335243
C109	C	0.910582	-0.469470	0.769809
C110	C	1.410582	0.030530	1.269809
C111	C	0.905619	-0.577640	0.737099
C112	C	1.405619	-0.077640	1.237099
C113	C	0.945708	-0.500707	0.971656
C114	C	1.445708	-0.000707	1.471656
C115	C	0.945703	-0.500653	1.037093
C116	C	1.445703	-0.000653	1.537093
C117	C	0.865540	-0.654200	1.037044
C118	C	1.365540	-0.154200	1.537044
C119	C	0.865542	-0.654243	0.971608
C120	C	1.365542	-0.154243	1.471608
C121	C	0.905630	-0.577498	0.938919
C122	C	1.405630	-0.077498	1.438919
H123	H	0.548359	-0.717327	0.374744
H124	H	1.048359	-0.217327	0.874744
H125	H	0.667065	-0.717383	0.374697
H126	H	1.167065	-0.217383	0.874697
O127	O	0.822281	-0.737303	0.532661
O128	O	1.322281	-0.237303	1.032661
H129	H	0.833003	-0.831494	0.545229
H130	H	1.333003	-0.331494	1.045229
H131	H	0.263361	-0.438291	0.229694
H132	H	0.763361	0.061709	0.729694
O133	O	0.473996	-0.597833	0.419513
O134	O	0.973996	-0.097833	0.919513
H135	H	0.440297	-0.604497	0.458777
H136	H	0.940297	-0.104497	0.958777
H137	H	0.548287	-0.438400	0.229597
H138	H	1.048287	0.061600	0.729597
O139	O	0.988933	-0.418204	0.532757
O140	O	1.488933	0.081796	1.032757
H141	H	0.978201	-0.324004	0.545298
H142	H	1.478201	0.175996	1.045298
O143	O	0.915927	-0.352861	0.734515
O144	O	1.415927	0.147139	1.234515
H145	H	0.915097	-0.371067	0.683520
H146	H	1.415097	0.128933	1.183520
O147	O	0.473740	-0.557834	0.184867
O148	O	0.973740	-0.057834	0.684867
H149	H	0.524747	-0.559457	0.194332
H150	H	1.024747	-0.059457	0.694332
O151	O	0.337989	-0.597784	0.419570
O152	O	0.837989	-0.097784	0.919570
H153	H	0.286981	-0.596130	0.410108
H154	H	0.786981	-0.096130	0.910108
O155	O	0.272077	-0.737525	0.385431
O156	O	0.772077	-0.237525	0.885431
H157	H	0.301940	-0.683888	0.417338
H158	H	0.801940	-0.183888	0.917338
H159	H	0.667001	-0.438427	0.229555
H160	H	1.167001	0.061573	0.729555
O161	O	0.988935	-0.418121	0.668772
O162	O	1.488935	0.081879	1.168772
H163	H	1.016813	-0.364770	0.635047
H164	H	1.516813	0.135230	1.135047
H165	H	0.978346	-0.438210	0.945039
H166	H	1.478346	0.061790	1.445039
O167	O	0.915910	-0.352758	0.870518
O168	O	1.415910	0.147242	1.370518
H169	H	0.915065	-0.370886	0.921516
H170	H	1.415065	0.129114	1.421516
H171	H	0.144650	-0.438241	0.229741
H172	H	0.644650	0.061759	0.729741
O173	O	0.988937	-0.417838	1.072407
O174	O	1.488937	0.082162	1.572407
H175	H	1.016814	-0.364493	1.038680
H176	H	1.516814	0.135507	1.538680
H177	H	0.832903	-0.716679	1.063664
H178	H	1.332903	-0.216679	1.563664
H179	H	0.144722	-0.717164	0.374894
H180	H	0.644722	-0.217164	0.874894
H181	H	0.832907	-0.716773	0.944954
H182	H	1.332907	-0.216773	1.444954
O183	O	0.337731	-0.557774	0.184921
O184	O	0.837731	-0.057774	0.684921
H185	H	0.371434	-0.551072	0.145662
H186	H	0.871434	-0.051072	0.645662
O187	O	0.895317	-0.802311	0.870546
O188	O	1.395317	-0.302311	1.370546
H189	H	0.891857	-0.877523	0.836805
H190	H	1.391857	-0.377523	1.336805
H191	H	0.896464	-0.773795	0.743185
H192	H	1.396464	-0.273795	1.243185
O193	O	0.822303	-0.737243	0.668661
O194	O	1.322303	-0.237243	1.168661
H195	H	0.829042	-0.724323	0.719662
H196	H	1.329042	-0.224323	1.219662
