data_functionalizedCrystal
_audit_creation_method	'MofGen! by Chris Wilmer'
_symmetry_space_group_name_H-M	'P1'
_symmetry_Int_Tables_number	1
_symmetry_cell_setting	triclinic
loop_
_symmetry_equiv_pos_as_xyz
  x,y,z
_cell_length_a	14.908979
_cell_length_b	16.959454
_cell_length_c	14.908308
_cell_angle_alpha	93.269679
_cell_angle_beta	96.371071
_cell_angle_gamma	93.321577
loop_
_atom_site_label
_atom_site_type_symbol
_atom_site_fract_x
_atom_site_fract_y
_atom_site_fract_z
Zn1	Zn	1.354242	-0.267982	-0.432053
Zn2	Zn	1.362880	-0.392085	-0.280708
Zn3	Zn	1.211615	-0.268020	-0.289433
Zn4	Zn	1.202851	-0.408223	-0.440740
O5	O	1.282897	-0.334077	-0.360733
O6	O	1.482050	-0.277675	-0.404690
O7	O	1.350097	-0.368889	-0.155204
O8	O	1.230588	-0.157402	-0.308367
O9	O	1.488397	-0.368852	-0.293497
O10	O	1.335375	-0.157374	-0.413150
O11	O	1.238964	-0.277739	-0.161614
O12	O	1.083790	-0.293388	-0.316791
O13	O	1.215650	-0.396357	-0.566250
O14	O	1.077351	-0.396394	-0.427956
O15	O	1.326877	-0.293323	-0.559867
O16	O	1.341599	-0.504838	-0.301921
O17	O	1.224026	-0.516695	-0.419496
C18	C	1.047728	-0.346647	-0.374263
C19	C	0.947120	-0.352044	-0.380073
C20	C	0.801996	-0.413353	-0.446035
C21	C	0.896525	-0.408282	-0.440584
C22	C	0.903180	-0.300875	-0.325007
C23	C	0.808651	-0.305945	-0.330458
C24	C	0.758062	-0.362186	-0.390975
C25	C	0.663531	-0.367252	-0.396430
C26	C	0.670187	-0.259848	-0.280848
C27	C	0.764717	-0.254778	-0.275397
C28	C	1.282822	-0.539447	-0.360722
C29	C	1.282871	-0.627302	-0.360743
C30	C	1.221761	-1.004975	-0.421944
C31	C	1.344279	-0.992568	-0.299601
C32	C	1.344248	-0.910024	-0.299594
C33	C	1.282972	-0.874951	-0.360763
C34	C	1.221726	-0.922422	-0.421937
C35	C	1.405487	-0.862546	-0.238414
C36	C	1.405457	-0.779996	-0.238405
C37	C	1.344184	-0.744922	-0.299578
C38	C	1.282937	-0.792399	-0.360756
C39	C	1.221660	-0.757326	-0.421925
C40	C	1.160416	-0.804801	-0.483108
C41	C	1.160453	-0.887348	-0.483111
C42	C	1.344147	-0.662375	-0.299575
C43	C	1.221625	-0.674774	-0.421918
C44	C	1.518984	-0.321459	-0.347151
C45	C	1.619590	-0.316082	-0.341363
C46	C	1.269322	-0.346636	-0.596819
C47	C	1.263537	-0.351988	-0.697424
C48	C	1.282996	-0.127906	-0.360763
C49	C	1.283038	-0.040047	-0.360775
C50	C	1.368485	-0.254737	-0.879828
C51	C	1.363052	-0.259763	-0.974356
C52	C	1.247236	-0.367061	-0.981009
C53	C	1.252668	-0.362035	-0.886481
C54	C	1.313296	-0.305872	-0.835894
C55	C	1.318732	-0.300851	-0.741364
C56	C	1.202912	-0.408145	-0.748019
C57	C	1.197480	-0.413170	-0.842547
C58	C	1.296471	-0.321507	-0.125564
C59	C	1.302431	-0.315923	-0.024949
H60	H	0.944386	-0.255092	-0.275730
O61	O	1.181836	-0.427618	-1.035583
H62	H	1.219845	-0.467960	-1.076320
H63	H	1.110521	-0.776236	-0.532908
H64	H	1.455325	-0.741346	-0.188587
O65	O	1.433877	-0.194173	-0.825254
H66	H	1.417340	-0.133927	-0.844287
O67	O	0.819280	-0.194117	-0.210131
H68	H	0.892394	-0.199183	-0.215594
H69	H	1.394007	-0.623724	-0.249757
H70	H	1.368099	-0.255121	-0.700177
O71	O	1.422582	-0.204615	-1.021746
H72	H	1.465655	-0.164724	-0.970685
O73	O	1.132087	-0.473742	-0.897109
H74	H	1.137581	-0.468648	-0.970222
H75	H	1.157975	-0.449785	-0.712238
O76	O	0.747430	-0.474004	-0.511312
H77	H	0.674316	-0.468929	-0.505857
H78	H	0.634406	-0.218181	-0.236017
O79	O	0.609002	-0.427935	-0.461693
H80	H	0.563295	-0.397417	-0.510328
O81	O	0.943916	-0.463464	-0.499976
H82	H	0.892853	-0.503416	-0.542976
H83	H	1.171729	-0.646223	-0.471732
H84	H	1.110591	-0.926010	-0.532922
H85	H	1.171900	-1.043633	-0.471760
O86	O	1.410392	-1.030391	-0.233651
H87	H	1.400138	-1.095767	-0.243944
O88	O	1.471606	-0.900370	-0.172472
H89	H	1.461358	-0.965746	-0.182776
