data_functionalizedCrystal
_audit_creation_method	'MofGen! by Chris Wilmer'
_symmetry_space_group_name_H-M	'P1'
_symmetry_Int_Tables_number	1
_symmetry_cell_setting	triclinic
loop_
_symmetry_equiv_pos_as_xyz
  x,y,z
_cell_length_a	6.817900
_cell_length_b	12.530034
_cell_length_c	21.031658
_cell_angle_alpha	115.765944
_cell_angle_beta	88.332551
_cell_angle_gamma	89.998792
loop_
_atom_site_label
_atom_site_type_symbol
_atom_site_fract_x
_atom_site_fract_y
_atom_site_fract_z
V1	V	-3.805704	-0.380901	-0.095569
O2	O	-3.873499	-0.323265	0.005741
O3	O	-3.685569	-0.426754	-0.190602
O4	O	-3.694273	-0.524916	-0.093596
O5	O	-3.864735	-0.224423	-0.091938
V6	V	-4.306795	-0.356298	-0.083511
O7	O	-4.028427	-0.434869	-0.122020
O8	O	-4.534270	-0.302330	-0.057060
O9	O	-4.203724	-0.310445	0.011522
O10	O	-4.356398	-0.413934	-0.184821
O11	O	-4.365161	-0.512776	-0.087143
O12	O	-4.195020	-0.212282	-0.085485
C13	C	-3.515158	-0.433249	-0.213785
C14	C	-3.497800	-0.471700	-0.291472
C15	C	-3.666699	-0.496880	-0.331500
C16	C	-3.650415	-0.533026	-0.404498
C17	C	-3.465231	-0.543982	-0.437465
C18	C	-3.296320	-0.518802	-0.397432
C19	C	-3.312605	-0.482665	-0.324437
C20	C	-4.026361	-0.178730	-0.089039
C21	C	-4.015705	-0.058459	-0.090042
C22	C	-3.526275	-0.558462	-0.090040
C23	C	-3.515783	-0.678732	-0.089035
V24	V	-3.735274	0.119102	-0.095574
O25	O	-3.676904	0.275580	-0.091941
O26	O	-3.847052	-0.024914	-0.093601
O27	O	-3.838338	0.073249	-0.190607
O28	O	-3.685679	0.176737	0.005737
V29	V	-3.236351	0.143704	-0.083511
O30	O	-3.507798	0.065134	-0.122023
O31	O	-3.013630	0.197672	-0.057058
O32	O	-3.347779	0.287720	-0.085485
O33	O	-3.177324	-0.012774	-0.087142
O34	O	-3.168549	0.086069	-0.184820
O35	O	-3.356493	0.189557	0.011521
C36	C	-4.037475	-0.303949	0.034701
C37	C	-4.034068	-0.265505	0.112387
C38	C	-4.004585	0.066753	-0.213788
C39	C	-4.007987	0.028309	-0.291475
C40	C	-3.526903	0.196051	0.034702
C41	C	-3.544260	0.234497	0.112389
C42	C	-4.210141	-0.240418	0.152413
C43	C	-4.206952	-0.204440	0.225394
C44	C	-4.027683	-0.193575	0.258345
C45	C	-3.851586	-0.218661	0.218310
C46	C	-3.854779	-0.254627	0.145332
C47	C	-3.892200	-0.207982	0.364993
C48	C	-3.889015	-0.172024	0.437970
C49	C	-4.017827	-0.082641	0.483436
C50	C	-4.149859	-0.029234	0.455915
C51	C	-4.153052	-0.065199	0.382937
C52	C	-4.024201	-0.154576	0.337478
C53	C	-4.190455	-0.018540	0.602597
C54	C	-4.187258	0.017445	0.675580
C55	C	-3.831888	0.003211	0.668493
C56	C	-3.835088	-0.032761	0.595513
C57	C	-4.014378	-0.043640	0.562568
C58	C	-3.729465	0.245449	0.145336
C59	C	-3.745803	0.281590	0.218332
C60	C	-3.576932	0.306769	0.258379
C61	C	-3.391713	0.295818	0.225428
C62	C	-3.375379	0.259686	0.152434
H63	H	-3.787971	-0.553520	-0.437083
C64	C	-3.915240	0.217767	0.101298
H65	H	-4.027869	0.229485	0.131384
H66	H	-3.909487	0.137775	0.066500
H67	H	-3.922999	0.268994	0.078853
C68	C	-3.870407	-0.484839	-0.295247
H69	H	-3.855943	-0.459702	-0.246038
H70	H	-3.933686	-0.559291	-0.314838
H71	H	-3.947264	-0.428077	-0.302493
H72	H	-3.896631	0.290498	0.245150
H73	H	-3.451999	-0.573408	-0.496903
H74	H	-4.260552	-0.021709	0.360533
C75	C	-3.654395	-0.206715	0.254553
H76	H	-3.677711	-0.181714	0.303748
H77	H	-3.576242	-0.149900	0.247369
H78	H	-3.587587	-0.281173	0.234905
H79	H	-3.590261	0.336189	0.317815
H80	H	-3.175061	-0.462159	-0.291850
C81	C	-3.205969	0.323514	0.269483
H82	H	-3.093313	0.311828	0.239412
H83	H	-3.198226	0.272300	0.291932
H84	H	-3.211766	0.403516	0.304279
C85	C	-4.291551	0.069091	0.505920
H86	H	-4.270365	0.083094	0.553341
H87	H	-4.423072	0.045053	0.494458
H88	H	-4.268597	0.139796	0.500822
C89	C	-4.387659	-0.030492	0.566356
H90	H	-4.492068	-0.010379	0.600651
H91	H	-4.401967	-0.109858	0.531806
H92	H	-4.390614	0.021411	0.544264
C93	C	-4.380949	0.045037	0.719608
H94	H	-4.488177	0.033393	0.689531
H95	H	-4.381443	0.124994	0.754454
H96	H	-4.392738	-0.006279	0.741993
H97	H	-3.685922	0.012060	0.695321
H98	H	-3.224559	0.250764	0.125614
H99	H	-3.145546	-0.527729	-0.424285
C100	C	-4.407349	-0.252364	0.116180
H101	H	-4.511755	-0.232257	0.150475
H102	H	-4.421659	-0.331727	0.081625
H103	H	-4.410308	-0.200453	0.094093
H104	H	-4.350336	-0.184003	0.257990
C105	C	-3.743790	-0.230770	0.468236
H106	H	-3.667506	-0.289138	0.430709
H107	H	-3.814513	-0.267066	0.493015
H108	H	-3.659722	-0.172344	0.499649
H109	H	-3.691710	-0.053190	0.562923
C110	C	-3.750511	-0.306310	0.314983
H111	H	-3.771309	-0.320076	0.267579
H112	H	-3.773814	-0.377100	0.319942
H113	H	-3.618987	-0.282400	0.326570
H114	H	-3.711395	-0.275062	0.112742
