data_functionalizedCrystal
_audit_creation_method	'MofGen! by Chris Wilmer'
_symmetry_space_group_name_H-M	'P1'
_symmetry_Int_Tables_number	1
_symmetry_cell_setting	triclinic
loop_
_symmetry_equiv_pos_as_xyz
  x,y,z
_cell_length_a	14.971490
_cell_length_b	9.130313
_cell_length_c	14.971486
_cell_angle_alpha	90.001462
_cell_angle_beta	96.385112
_cell_angle_gamma	89.997427
loop_
_atom_site_label
_atom_site_type_symbol
_atom_site_fract_x
_atom_site_fract_y
_atom_site_fract_z
O1	O	-1.186938	0.121879	0.116575
O2	O	-0.686938	0.621879	0.616575
O3	O	-0.926538	0.121865	0.130530
O4	O	-0.426538	0.621865	0.630530
O5	O	-1.063717	0.121862	-0.006648
O6	O	-0.563717	0.621862	0.493352
O7	O	-1.049758	0.121882	0.253752
O8	O	-0.549758	0.621882	0.753752
O9	O	-1.063715	-0.121737	-0.006644
O10	O	-0.563715	0.378263	0.493356
O11	O	-0.926536	-0.121734	0.130534
O12	O	-0.426536	0.378266	0.630534
O13	O	-1.186936	-0.121720	0.116578
O14	O	-0.686936	0.378280	0.616578
Cu15	Cu	-1.056736	-0.143969	0.123556
Cu16	Cu	-0.556736	0.356031	0.623556
Cu17	Cu	-1.056738	0.144115	0.123552
Cu18	Cu	-0.556738	0.644115	0.623552
O19	O	-1.049757	-0.121717	0.253756
O20	O	-0.549757	0.378283	0.753756
C21	C	-0.893212	0.000064	0.129907
C22	C	-0.393212	0.500064	0.629907
C23	C	-0.793915	0.000058	0.128035
C24	C	-0.293915	0.500058	0.628035
N25	N	-1.056741	-0.346592	0.123559
N26	N	-0.556741	0.153408	0.623559
C27	C	-0.366211	0.132871	0.119955
C28	C	0.133789	0.632871	0.619955
C29	C	-0.459511	0.132867	0.121711
C30	C	0.040489	0.632867	0.621711
C31	C	-0.506156	0.000077	0.122597
C32	C	-0.006156	0.500077	0.622597
C33	C	-0.459497	-0.132718	0.121718
C34	C	0.040503	0.367282	0.621718
C35	C	-0.366199	-0.132712	0.119955
C36	C	0.133801	0.367288	0.619955
C37	C	-0.653958	-0.132720	0.125394
C38	C	-0.153958	0.367280	0.625394
C39	C	-0.747263	-0.132727	0.127158
C40	C	-0.247263	0.367273	0.627158
C41	C	-0.747271	0.132859	0.127150
C42	C	-0.247271	0.632859	0.627150
C43	C	-0.653973	0.132864	0.125387
C44	C	-0.153973	0.632864	0.625387
C45	C	-0.607320	0.000069	0.124510
C46	C	-0.107320	0.500069	0.624510
C47	C	-1.117499	-0.423245	0.062837
C48	C	-0.617499	0.076755	0.562837
C49	C	-1.117497	-0.576582	0.062826
C50	C	-0.617497	-0.076582	0.562826
C51	C	-0.995975	-0.576599	0.184267
C52	C	-0.495975	-0.076599	0.684267
C53	C	-0.995974	-0.423265	0.184273
C54	C	-0.495974	0.076735	0.684273
C55	C	-1.178267	-0.346572	0.002123
C56	C	-0.678267	0.153428	0.502123
C57	C	-1.239031	-0.423226	-0.058603
C58	C	-0.739031	0.076774	0.441397
C59	C	-1.239028	-0.576562	-0.058614
C60	C	-0.739028	-0.076562	0.441386
C61	C	-1.178262	-0.653246	0.002102
C62	C	-0.678262	-0.153246	0.502102
C63	C	-0.220261	0.000082	0.117202
C64	C	0.279739	0.500082	0.617202
C65	C	-0.319558	0.000086	0.119078
C66	C	0.180442	0.500086	0.619078
C67	C	-1.063092	0.000063	-0.039971
C68	C	-0.563092	0.500063	0.460029
C69	C	-1.061221	0.000064	-0.139268
C70	C	-0.561221	0.500064	0.360732
N71	N	-1.056740	0.346737	0.123542
N72	N	-0.556740	0.846737	0.623542
C73	C	-1.141810	0.000068	-0.196492
C74	C	-0.641810	0.500068	0.303508
C75	C	-1.140047	0.000082	-0.289791
C76	C	-0.640047	0.500082	0.210209
C77	C	-1.057694	0.000083	-0.325865
C78	C	-0.557694	0.500083	0.174135
C79	C	-0.977099	0.000084	-0.268633
C80	C	-0.477099	0.500084	0.231367
C81	C	-0.978863	0.000080	-0.175336
C82	C	-0.478863	0.500080	0.324664
C83	C	-0.973428	0.000089	-0.463096
C84	C	-0.473428	0.500089	0.036904
C85	C	-0.971663	0.000091	-0.556400
C86	C	-0.471663	0.500091	-0.056400
C87	C	-1.134612	0.000092	-0.577552
C88	C	-0.634612	0.500092	-0.077552
C89	C	-1.136376	0.000087	-0.484254
C90	C	-0.636376	0.500087	0.015746
C91	C	-1.055780	0.000086	-0.427029
C92	C	-0.555780	0.500086	0.072971
C93	C	-1.050382	0.000086	0.287079
C94	C	-0.550382	0.500086	0.787079
C95	C	-1.052252	0.000094	0.386376
C96	C	-0.552252	0.500094	0.886376
H97	H	-0.328238	0.241004	0.119240
H98	H	0.171762	0.741004	0.619240
Br99	Br	-0.913508	-0.319231	0.266678
Br100	Br	-0.413508	0.180769	0.766678
H101	H	-0.328214	-0.240839	0.119251
H102	H	0.171786	0.259161	0.619251
Br103	Br	-0.522800	-0.312936	0.122916
Br104	Br	-0.022800	0.187064	0.622916
H105	H	-1.178276	-0.221718	0.002128
H106	H	-0.678276	0.278282	0.502128
H107	H	-0.615996	0.240994	0.124672
H108	H	-0.115996	0.740994	0.624672
H109	H	-0.913239	0.000077	-0.128744
H110	H	-0.413239	0.500077	0.371256
Br111	Br	-1.321481	-0.680592	-0.141034
Br112	Br	-0.821481	-0.180592	0.358966
Br113	Br	-0.810581	0.313082	0.128357
Br114	Br	-0.310581	0.813082	0.628357
Br115	Br	-1.253581	0.000045	-0.147545
Br116	Br	-0.753581	0.500045	0.352455
H117	H	-1.288500	-0.360782	-0.108040
H118	H	-0.788500	0.139218	0.391960
Br119	Br	-0.522824	0.313082	0.122893
Br120	Br	-0.022824	0.813082	0.622893
Br121	Br	-1.178252	-0.861348	0.002073
Br122	Br	-0.678252	-0.361348	0.502073
Br123	Br	-0.913513	-0.680667	0.266662
Br124	Br	-0.413513	-0.180667	0.766662
Br125	Br	-1.249423	0.000087	-0.367451
Br126	Br	-0.749423	0.500087	0.132549
H127	H	-1.203435	0.000076	-0.454886
H128	H	-0.703435	0.500076	0.045114
Br129	Br	-1.243992	0.000097	-0.655213
Br130	Br	-0.743992	0.500097	-0.155213
H131	H	-0.904604	0.000068	-0.585767
H132	H	-0.404604	0.500068	-0.085767
Br133	Br	-0.865332	0.000110	-0.317589
Br134	Br	-0.365332	0.500110	0.182411
Br135	Br	-0.864047	0.000092	-0.385433
Br136	Br	-0.364047	0.500092	0.114567
Br137	Br	-0.810567	-0.312943	0.128356
Br138	Br	-0.310567	0.187057	0.628356
H139	H	-0.615975	-0.240856	0.124690
H140	H	-0.115975	0.259144	0.624690
