data_functionalizedCrystal
_audit_creation_method	'MofGen! by Chris Wilmer'
_symmetry_space_group_name_H-M	'P1'
_symmetry_Int_Tables_number	1
_symmetry_cell_setting	triclinic
loop_
_symmetry_equiv_pos_as_xyz
  x,y,z
_cell_length_a	12.759395
_cell_length_b	16.120444
_cell_length_c	12.759387
_cell_angle_alpha	92.864319
_cell_angle_beta	89.979491
_cell_angle_gamma	92.928010
loop_
_atom_site_label
_atom_site_type_symbol
_atom_site_fract_x
_atom_site_fract_y
_atom_site_fract_z
Zn1	Zn	1.584980	-0.331830	-0.615172
Zn2	Zn	1.575924	-0.471267	-0.448387
Zn3	Zn	1.409275	-0.331875	-0.439512
Zn4	Zn	1.400328	-0.471207	-0.624022
O5	O	1.492627	-0.401545	-0.531773
O6	O	1.730799	-0.350332	-0.593058
O7	O	1.553773	-0.452820	-0.300191
O8	O	1.440116	-0.215203	-0.455395
O9	O	1.724146	-0.452776	-0.470522
O10	O	1.569206	-0.215170	-0.584452
O11	O	1.431336	-0.350409	-0.293671
O12	O	1.261067	-0.350352	-0.463977
O13	O	1.424868	-0.452675	-0.769867
O14	O	1.254494	-0.452719	-0.599536
O15	O	1.560530	-0.350274	-0.763364
O16	O	1.545097	-0.587925	-0.479104
O17	O	1.416087	-0.587881	-0.608142
C18	C	1.219660	-0.401534	-0.531755
C19	C	1.102882	-0.401550	-0.531773
C20	C	1.096065	-0.508317	-0.672724
C21	C	1.037795	-0.561707	-0.743203
C22	C	0.928073	-0.561717	-0.743217
C23	C	0.876618	-0.508330	-0.672746
C24	C	0.934888	-0.454940	-0.602267
C25	C	1.044613	-0.454937	-0.602259
C26	C	0.941706	-0.348170	-0.461322
C27	C	1.051428	-0.348163	-0.461302
C28	C	0.890251	-0.294782	-0.390851
C29	C	0.948521	-0.241395	-0.320365
C30	C	1.058249	-0.241388	-0.320354
C31	C	1.109697	-0.294773	-0.390823
C32	C	1.478667	-0.618153	-0.545569
C33	C	1.472792	-0.710819	-0.551506
C34	C	1.523365	-0.921763	-0.501201
C35	C	1.462083	-0.880475	-0.562357
C36	C	1.468043	-0.786070	-0.556318
C37	C	1.517406	-1.016177	-0.507238
C38	C	1.766659	-0.401555	-0.531793
C39	C	1.883436	-0.401560	-0.531801
C40	C	1.492711	-0.401463	-0.805802
C41	C	1.492747	-0.401428	-0.922576
C42	C	1.506669	-0.184090	-0.517947
C43	C	1.512653	-0.091424	-0.512054
C44	C	1.634022	-0.294806	-0.915826
C45	C	1.704674	-0.241482	-0.967310
C46	C	1.704702	-0.241452	-1.077030
C47	C	1.634067	-0.294749	-1.135268
C48	C	1.563414	-0.348073	-1.083783
C49	C	1.563397	-0.348099	-0.974061
C50	C	1.422137	-0.454689	-1.090533
C51	C	1.422113	-0.454725	-0.980814
C52	C	1.351502	-0.507987	-1.148771
C53	C	1.280853	-0.561316	-1.097287
C54	C	1.280829	-0.561345	-0.987560
C55	C	1.351460	-0.508049	-0.929329
C56	C	1.492607	-0.401566	-0.258807
C57	C	1.492789	-0.401366	-0.142018
H58	H	1.079702	-0.605173	-0.800581
H59	H	1.405143	-0.916029	-0.619250
O60	O	0.871307	-0.613501	-0.811639
C61	C	0.763431	-0.602073	-0.796514
H62	H	0.752582	-0.537699	-0.758146
H63	H	0.721390	-0.607809	-0.875563
H64	H	0.729089	-0.651469	-0.743604
H65	H	0.787277	-0.508336	-0.672772
O66	O	1.212165	-0.613230	-0.937719
C67	C	1.149819	-0.660246	-1.012652
H68	H	1.192679	-0.663105	-1.091057
H69	H	1.134365	-0.725944	-0.985132
H70	H	1.071999	-0.629709	-1.022360
O71	O	1.202638	-0.508468	-0.672703
C72	C	1.234126	-0.588336	-0.650594
H73	H	1.167808	-0.636376	-0.671513
H74	H	1.306602	-0.603204	-0.698876
H75	H	1.253431	-0.590011	-0.563517
H76	H	1.580301	-0.886213	-0.444310
O77	O	1.115010	-0.189551	-0.251989
C78	C	1.222888	-0.201004	-0.267062
H79	H	1.236153	-0.228391	-0.349823
H80	H	1.268606	-0.138545	-0.256089
H81	H	1.251137	-0.245334	-0.207463
O82	O	1.634110	-0.294709	-0.809237
C83	C	1.711622	-0.236255	-0.768876
H84	H	1.729500	-0.187527	-0.829010
H85	H	1.681957	-0.204637	-0.693453
H86	H	1.786085	-0.269330	-0.751529
O87	O	0.783668	-0.294792	-0.391053
C88	C	0.748418	-0.273472	-0.490429
H89	H	0.810752	-0.287769	-0.551823
H90	H	0.672601	-0.311107	-0.511418
H91	H	0.733397	-0.204302	-0.488405
H92	H	1.762182	-0.198087	-0.919881
O93	O	1.351638	-0.508078	-0.822748
C94	C	1.450932	-0.529530	-0.787479
H95	H	1.512375	-0.515284	-0.849823
H96	H	1.472034	-0.491942	-0.711696
H97	H	1.448677	-0.598709	-0.772398
O98	O	1.351361	-0.507887	-1.255348
C99	C	1.252056	-0.486476	-1.290633
H100	H	1.210962	-0.450135	-1.225091
H101	H	1.262182	-0.446486	-1.361503
H102	H	1.202723	-0.545489	-1.313837
O103	O	1.773431	-0.189627	-1.126884
C104	C	1.835748	-0.142574	-1.051960
H105	H	1.837165	-0.176738	-0.975914
H106	H	1.919106	-0.133683	-1.083116
H107	H	1.801368	-0.079255	-1.036267
O108	O	0.898707	-0.189462	-0.251879
C109	C	0.973659	-0.142356	-0.189643
H110	H	1.052081	-0.139507	-0.232484
H111	H	0.946184	-0.076660	-0.174398
H112	H	0.983321	-0.172807	-0.111722
H113	H	1.223342	-0.604702	-1.144712
O114	O	1.216271	-0.294920	-0.390813
C115	C	1.247769	-0.374787	-0.368711
H116	H	1.181452	-0.422830	-0.389620
H117	H	1.320239	-0.389652	-0.417006
H118	H	1.267089	-0.376462	-0.281638
O119	O	1.634252	-0.294788	-1.241853
C120	C	1.733574	-0.316173	-1.279893
H121	H	1.774647	-0.352544	-1.218985
H122	H	1.723481	-0.356125	-1.355838
H123	H	1.782908	-0.257147	-1.295615
