data_functionalizedCrystal
_audit_creation_method	'MofGen! by Chris Wilmer'
_symmetry_space_group_name_H-M	'P1'
_symmetry_Int_Tables_number	1
_symmetry_cell_setting	triclinic
loop_
_symmetry_equiv_pos_as_xyz
  x,y,z
_cell_length_a	15.944551
_cell_length_b	15.944493
_cell_length_c	13.596369
_cell_angle_alpha	89.999885
_cell_angle_beta	89.999164
_cell_angle_gamma	83.486891
loop_
_atom_site_label
_atom_site_type_symbol
_atom_site_fract_x
_atom_site_fract_y
_atom_site_fract_z
O1	O	1.114502	0.108336	-0.081676
O2	O	1.447836	0.441670	0.251658
O3	O	1.781169	0.775003	0.584991
O4	O	0.869950	0.121693	-0.081699
O5	O	1.203283	0.455026	0.251635
O6	O	1.536617	0.788360	0.584968
O7	O	0.998930	-0.007263	-0.081695
O8	O	1.332263	0.326070	0.251639
O9	O	1.665596	0.659403	0.584972
O10	O	0.985523	0.237293	-0.081680
O11	O	1.318856	0.570626	0.251654
O12	O	1.652189	0.903960	0.584987
O13	O	0.998917	-0.007270	0.081888
O14	O	1.332250	0.326063	0.415221
O15	O	1.665584	0.659396	0.748555
O16	O	0.869937	0.121686	0.081884
O17	O	1.203271	0.455020	0.415218
O18	O	1.536604	0.788353	0.748551
O19	O	1.114490	0.108330	0.081907
O20	O	1.447823	0.441663	0.415240
O21	O	1.781156	0.774996	0.748574
Zn22	Zn	0.992211	0.115007	0.107868
Zn23	Zn	1.325545	0.448340	0.441201
Zn24	Zn	1.658878	0.781673	0.774535
Zn25	Zn	0.992228	0.115016	-0.107660
Zn26	Zn	1.325562	0.448349	0.225674
Zn27	Zn	1.658895	0.781682	0.559007
O28	O	0.985510	0.237286	0.081903
O29	O	1.318843	0.570619	0.415237
O30	O	1.652177	0.903953	0.748570
C31	C	0.838650	0.121135	0.000090
C32	C	1.171983	0.454468	0.333423
C33	C	1.505316	0.787802	0.666756
C34	C	0.745404	0.119473	0.000080
C35	C	1.078737	0.452806	0.333414
C36	C	1.412071	0.786139	0.666747
C37	C	0.530565	0.035566	0.000094
C38	C	0.863898	0.368899	0.333427
C39	C	1.197231	0.702233	0.666761
C40	C	0.469543	0.074533	-0.080558
C41	C	0.802876	0.407866	0.252775
C42	C	1.136210	0.741200	0.586108
C43	C	0.574679	0.116465	0.000092
C44	C	0.908012	0.449799	0.333425
C45	C	1.241346	0.783132	0.666758
C46	C	0.469553	0.074545	0.080721
C47	C	0.802886	0.407879	0.414055
C48	C	1.136219	0.741212	0.747388
C49	C	0.409767	0.113555	0.000107
C50	C	0.743100	0.446888	0.333440
C51	C	1.076433	0.780221	0.666774
C52	C	0.514885	0.155454	-0.080628
C53	C	0.848218	0.488788	0.252706
C54	C	1.181552	0.822121	0.586039
C55	C	0.514901	0.155456	0.080725
C56	C	0.848234	0.488789	0.414058
C57	C	1.181568	0.822122	0.747392
C58	C	0.453897	0.194481	0.000053
C59	C	0.787230	0.527814	0.333386
C60	C	1.120563	0.861148	0.666719
C61	C	0.669681	0.118140	0.000082
C62	C	1.003014	0.451473	0.333415
C63	C	1.336347	0.784807	0.666749
C64	C	0.314766	0.111886	0.000110
C65	C	0.648099	0.445220	0.333443
C66	C	0.981433	0.778553	0.666776
C67	C	0.998375	-0.038562	0.000092
C68	C	1.331709	0.294772	0.333426
C69	C	1.665042	0.628105	0.666759
C70	C	0.996733	-0.131810	0.000080
C71	C	1.330066	0.201523	0.333413
C72	C	1.663399	0.534856	0.666746
C73	C	1.072653	-0.367570	0.000105
C74	C	1.405986	-0.034237	0.333439
C75	C	1.739320	0.299097	0.666772
C76	C	1.031718	-0.418135	-0.080553
C77	C	1.365052	-0.084801	0.252781
C78	C	1.698385	0.248532	0.586114
C79	C	0.993688	-0.302531	0.000092
C80	C	1.327022	0.030802	0.333425
C81	C	1.660355	0.364135	0.666758
C82	C	1.031687	-0.418118	0.080727
C83	C	1.365021	-0.084784	0.414061
C84	C	1.698354	0.248549	0.747394
C85	C	0.990754	-0.467441	0.000107
C86	C	1.324087	-0.134108	0.333441
C87	C	1.657421	0.199226	0.666774
C88	C	0.952775	-0.351868	-0.080633
C89	C	1.286108	-0.018534	0.252700
C90	C	1.619442	0.314799	0.586033
C91	C	0.952756	-0.351847	0.080719
C92	C	1.286089	-0.018514	0.414052
C93	C	1.619422	0.314820	0.747386
C94	C	0.911763	-0.402379	0.000041
C95	C	1.245096	-0.069046	0.333375
C96	C	1.578430	0.264288	0.666708
C97	C	0.995381	-0.207531	0.000082
C98	C	1.328715	0.125802	0.333415
C99	C	1.662048	0.459135	0.666748
C100	C	0.989055	-0.562438	0.000110
C101	C	1.322388	-0.229105	0.333443
C102	C	1.655722	0.104229	0.666777
C103	C	1.145790	0.108887	0.000117
C104	C	1.479123	0.442221	0.333450
C105	C	1.812457	0.775554	0.666783
C106	C	1.239036	0.110550	0.000120
C107	C	1.572369	0.443883	0.333453
C108	C	1.905702	0.777216	0.666786
C109	C	0.986064	0.268584	0.000114
C110	C	1.319398	0.601918	0.333447
C111	C	1.652731	0.935251	0.666781
C112	C	0.987707	0.361833	0.000120
C113	C	1.321040	0.695166	0.333453
C114	C	1.654374	1.028499	0.666787
N115	N	0.992206	0.115000	0.254960
N116	N	1.325539	0.448333	0.588293
N117	N	1.658873	0.781667	0.921626
N118	N	0.992240	0.115016	-0.254751
N119	N	1.325574	0.448349	0.078582
N120	N	1.658907	0.781682	0.411915
C121	C	0.992227	0.115017	0.656251
C122	C	1.325560	0.448350	0.989584
C123	C	1.658894	0.781683	1.322917
C124	C	0.992219	0.115015	0.544599
C125	C	1.325552	0.448348	0.877933
C126	C	1.658885	0.781682	1.211266
C127	C	0.992217	0.115009	0.455609
C128	C	1.325550	0.448342	0.788942
C129	C	1.658884	0.781676	1.122275
C130	C	0.992208	0.115006	0.343950
C131	C	1.325541	0.448339	0.677284
C132	C	1.658874	0.781673	1.010617
H133	H	0.535020	0.189641	0.148918
H134	H	0.868353	0.522975	0.482252
H135	H	1.201687	0.856308	0.815585
H136	H	0.843692	-0.417845	-0.000009
H137	H	1.177025	-0.084512	0.333324
H138	H	1.510359	0.248822	0.666657
H139	H	1.140671	-0.351942	0.000031
H140	H	1.474004	-0.018608	0.333364
H141	H	1.807338	0.314725	0.666697
H142	H	0.919431	-0.322889	0.148907
H143	H	1.252764	0.010444	0.482240
H144	H	1.586098	0.343777	0.815573
H145	H	0.919452	-0.323045	-0.148896
H146	H	1.252785	0.010288	0.184437
H147	H	1.586118	0.343622	0.517770
H148	H	0.449468	0.040310	0.148904
H149	H	0.782802	0.373644	0.482238
H150	H	1.116135	0.706977	0.815571
H151	H	0.563912	-0.031574	-0.000010
H152	H	0.897245	0.301760	0.333324
H153	H	1.230578	0.635093	0.666657
H154	H	0.449445	0.040319	-0.148749
H155	H	0.782779	0.373652	0.184585
H156	H	1.116112	0.706985	0.517918
H157	H	1.065046	-0.447052	0.148913
H158	H	1.398380	-0.113718	0.482246
H159	H	1.731713	0.219615	0.815580
H160	H	0.534871	0.189649	-0.148887
H161	H	0.868204	0.522982	0.184446
H162	H	1.201538	0.856315	0.517779
H163	H	0.420724	0.261690	0.000012
H164	H	0.754058	0.595023	0.333345
H165	H	1.087391	0.928357	0.666678
H166	H	1.065071	-0.447078	-0.148738
H167	H	1.398405	-0.113744	0.184595
H168	H	1.731738	0.219589	0.517929
