data_functionalizedCrystal
_audit_creation_method	'MofGen! by Chris Wilmer'
_symmetry_space_group_name_H-M	'P1'
_symmetry_Int_Tables_number	1
_symmetry_cell_setting	triclinic
loop_
_symmetry_equiv_pos_as_xyz
  x,y,z
_cell_length_a	14.044191
_cell_length_b	19.188928
_cell_length_c	13.101039
_cell_angle_alpha	86.656500
_cell_angle_beta	86.337551
_cell_angle_gamma	91.832205
loop_
_atom_site_label
_atom_site_type_symbol
_atom_site_fract_x
_atom_site_fract_y
_atom_site_fract_z
O1	O	1.262237	-0.164779	-0.085196
O2	O	0.986293	-0.158701	-0.085208
O3	O	1.132228	-0.060600	-0.085176
O4	O	1.116302	-0.262881	-0.085228
O5	O	1.121757	-0.067651	0.085252
O6	O	0.975822	-0.165753	0.085220
O7	O	1.251766	-0.171831	0.085232
Zn8	Zn	1.112132	-0.169911	0.112285
Zn9	Zn	1.125927	-0.160621	-0.112261
O10	O	1.105831	-0.269932	0.085199
C11	C	0.945754	-0.159568	0.000005
C12	C	0.840562	-0.151637	0.000002
C13	C	0.590102	-0.193385	0.000001
C14	C	0.647964	-0.137150	0.000014
C15	C	0.755135	-0.145212	0.000007
C16	C	0.482920	-0.185323	0.000008
C17	C	1.126477	-0.038081	0.000043
C18	C	1.124928	0.039523	0.000056
C19	C	1.210558	0.078919	0.000067
C20	C	1.209105	0.151837	0.000055
C21	C	1.122016	0.185355	0.000052
C22	C	1.036376	0.145950	0.000035
C23	C	1.037832	0.073034	0.000037
N24	N	1.051885	0.295257	0.058055
N25	N	1.050507	0.364525	0.058056
C26	C	1.117624	0.405048	0.000044
N27	N	1.186185	0.373687	-0.057955
N28	N	1.187565	0.304413	-0.057951
C29	C	1.120428	0.264421	0.000049
C30	C	1.201685	0.523511	0.000040
C31	C	1.200229	0.596430	0.000022
C32	C	1.027496	0.590542	0.000013
C33	C	1.028955	0.517624	0.000021
C34	C	1.116052	0.484113	0.000040
C35	C	1.292305	-0.170964	0.000017
C36	C	1.397498	-0.178894	0.000013
N37	N	1.102724	-0.176252	0.265531
C38	C	1.111585	0.707549	-0.000006
C39	C	1.113139	0.629944	0.000017
N40	N	1.135343	-0.154275	-0.265507
C41	C	1.089923	-0.184885	0.474571
C42	C	1.148140	-0.145644	0.525460
C43	C	1.141018	-0.150448	0.641776
C44	C	1.097044	-0.180082	0.358244
H45	H	0.617017	-0.082947	-0.000044
H46	H	0.959226	0.485547	0.000018
Br47	Br	0.921611	0.019564	0.000020
Br48	Br	0.641686	-0.283717	-0.000033
Br49	Br	1.328762	0.033443	0.000064
H50	H	1.278838	0.183920	0.000060
H51	H	1.034738	-0.222085	0.518356
H52	H	0.956587	0.617832	0.000005
H53	H	0.965467	0.173246	0.000031
H54	H	1.269962	0.628506	0.000025
Br55	Br	1.319884	0.478026	0.000076
Br56	Br	1.240527	-0.083957	0.452480
