data_functionalizedCrystal
_audit_creation_method	'MofGen! by Chris Wilmer'
_symmetry_space_group_name_H-M	'P1'
_symmetry_Int_Tables_number	1
_symmetry_cell_setting	triclinic
loop_
_symmetry_equiv_pos_as_xyz
  x,y,z
_cell_length_a	29.839131
_cell_length_b	16.625548
_cell_length_c	16.625539
_cell_angle_alpha	90.020568
_cell_angle_beta	89.967906
_cell_angle_gamma	89.957512
loop_
_atom_site_label
_atom_site_type_symbol
_atom_site_fract_x
_atom_site_fract_y
_atom_site_fract_z
Zn1	Zn	-0.178840	-1.232574	-0.455888
Zn2	Zn	0.154494	-0.899241	-0.122555
Zn3	Zn	0.487827	-0.565908	0.210779
Zn4	Zn	-0.253971	-1.232433	-0.321046
Zn5	Zn	0.079363	-0.899100	0.012287
Zn6	Zn	0.412696	-0.565766	0.345620
Zn7	Zn	-0.178857	-1.097736	-0.321069
Zn8	Zn	0.154476	-0.764403	0.012265
Zn9	Zn	0.487810	-0.431069	0.345598
Zn10	Zn	-0.253945	-1.097662	-0.455836
Zn11	Zn	0.079388	-0.764329	-0.122503
Zn12	Zn	0.412722	-0.430995	0.210830
O13	O	-0.216403	-1.165101	-0.388460
O14	O	0.116930	-0.831768	-0.055126
O15	O	0.450264	-0.498435	0.278207
O16	O	-0.188810	-1.345388	-0.438013
O17	O	0.144524	-1.012055	-0.104680
O18	O	0.477857	-0.678721	0.228653
O19	O	-0.244025	-1.214537	-0.208217
O20	O	0.089309	-0.881204	0.125116
O21	O	0.422642	-0.547870	0.458450
O22	O	-0.115987	-1.115713	-0.338984
O23	O	0.217346	-0.782380	-0.005650
O24	O	0.550679	-0.449046	0.327683
O25	O	-0.244008	-1.345284	-0.338946
O26	O	0.089325	-1.011951	-0.005612
O27	O	0.422659	-0.678617	0.327721
O28	O	-0.115975	-1.214778	-0.438035
O29	O	0.217358	-0.881445	-0.104702
O30	O	0.550692	-0.548111	0.228632
O31	O	-0.188839	-1.115576	-0.208233
O32	O	0.144495	-0.782242	0.125100
O33	O	0.477828	-0.448909	0.458433
O34	O	-0.188814	-0.984894	-0.338933
O35	O	0.144520	-0.651561	-0.005600
O36	O	0.477853	-0.318227	0.327733
O37	O	-0.243964	-1.115586	-0.568676
O38	O	0.089369	-0.782253	-0.235342
O39	O	0.422703	-0.448920	0.097991
O40	O	-0.243981	-0.984839	-0.437947
O41	O	0.089353	-0.651506	-0.104613
O42	O	0.422686	-0.318173	0.228720
O43	O	-0.188785	-1.214706	-0.568714
O44	O	0.144549	-0.881373	-0.235380
O45	O	0.477882	-0.548039	0.097953
O46	O	-0.316834	-1.214465	-0.338896
O47	O	0.016499	-0.881132	-0.005562
O48	O	0.349832	-0.547798	0.327771
O49	O	-0.316815	-1.115449	-0.437925
O50	O	0.016518	-0.782116	-0.104592
O51	O	0.349851	-0.448783	0.228742
C52	C	-0.333126	-1.164956	-0.388420
C53	C	0.000208	-0.831622	-0.055087
C54	C	0.333541	-0.498289	0.278247
C55	C	-0.383060	-1.164967	-0.388430
C56	C	-0.049727	-0.831634	-0.055096
C57	C	0.283607	-0.498301	0.278237
C58	C	-0.216397	-0.955610	-0.388437
C59	C	0.116937	-0.622277	-0.055104
C60	C	0.450270	-0.288944	0.278229
C61	C	-0.216405	-0.865989	-0.388447
C62	C	0.116929	-0.532656	-0.055113
C63	C	0.450262	-0.199323	0.278220
C64	C	-0.216370	-1.165154	-0.598769
C65	C	0.116964	-0.831820	-0.265435
C66	C	0.450297	-0.498487	0.067898
C67	C	-0.216355	-1.165176	-0.688390
C68	C	0.116978	-0.831843	-0.355057
C69	C	0.450311	-0.498509	-0.021723
C70	C	-0.692701	-1.216752	-0.336971
C71	C	-0.359367	-0.883419	-0.003637
C72	C	-0.026034	-0.550086	0.329696
C73	C	-0.880374	-1.216852	-0.337002
C74	C	-0.547040	-0.883519	-0.003668
C75	C	-0.213707	-0.550185	0.329665
O76	O	-0.904636	-1.260766	-0.293219
O77	O	-0.571303	-0.927433	0.040115
O78	O	-0.237969	-0.594100	0.373448
N79	N	-0.903845	-1.165268	-0.388521
N80	N	-0.570512	-0.831935	-0.055187
N81	N	-0.237178	-0.498602	0.278146
C82	C	-0.880395	-1.113660	-0.440039
C83	C	-0.547062	-0.780327	-0.106706
C84	C	-0.213729	-0.446993	0.226628
O85	O	-0.904665	-1.069793	-0.483866
O86	O	-0.571332	-0.736460	-0.150532
O87	O	-0.237999	-0.403127	0.182801
C88	C	-0.692723	-1.113565	-0.440011
C89	C	-0.359390	-0.780232	-0.106678
C90	C	-0.026056	-0.446899	0.226655
C91	C	-0.669254	-1.165146	-0.388483
C92	C	-0.335921	-0.831813	-0.055150
C93	C	-0.002588	-0.498480	0.278183
C94	C	-0.669232	-1.268330	-0.285447
C95	C	-0.335898	-0.934997	0.047886
C96	C	-0.002565	-0.601663	0.381219
C97	C	-0.622316	-1.268302	-0.285437
C98	C	-0.288983	-0.934968	0.047896
C99	C	0.044351	-0.601635	0.381230
C100	C	-0.598870	-1.216695	-0.336950
C101	C	-0.265536	-0.883362	-0.003616
C102	C	0.067797	-0.550029	0.329717
C103	C	-0.622339	-1.165118	-0.388473
C104	C	-0.289005	-0.831785	-0.055140
C105	C	0.044328	-0.498451	0.278194
C106	C	-0.669274	-1.061962	-0.491533
C107	C	-0.335941	-0.728628	-0.158200
C108	C	-0.002608	-0.395295	0.175134
C109	C	-0.622353	-1.061944	-0.491523
C110	C	-0.289020	-0.728611	-0.158190
C111	C	0.044313	-0.395277	0.175144
C112	C	-0.598884	-1.113525	-0.439995
C113	C	-0.265551	-0.780192	-0.106662
C114	C	0.067782	-0.446858	0.226672
C115	C	-0.551977	-1.113483	-0.439975
C116	C	-0.218644	-0.780150	-0.106642
C117	C	0.114690	-0.446817	0.226691
N118	N	-0.528505	-1.165067	-0.388456
N119	N	-0.195172	-0.831734	-0.055123
N120	N	0.138161	-0.498400	0.278210
C121	C	-0.551952	-1.216673	-0.336944
C122	C	-0.218619	-0.883340	-0.003610
C123	C	0.114715	-0.550006	0.329723
C124	C	-0.978926	-1.113712	-0.440049
C125	C	-0.645593	-0.780379	-0.106716
C126	C	-0.312259	-0.447046	0.226618
C127	C	-1.025844	-1.113735	-0.440055
C128	C	-0.692510	-0.780402	-0.106722
C129	C	-0.359177	-0.447068	0.226612
C130	C	-1.025819	-1.216928	-0.337019
C131	C	-0.692485	-0.883595	-0.003685
C132	C	-0.359152	-0.550262	0.329648
C133	C	-0.978900	-1.216901	-0.337009
C134	C	-0.645567	-0.883568	-0.003676
C135	C	-0.312233	-0.550234	0.329658
C136	C	-0.955455	-1.165296	-0.388530
C137	C	-0.622121	-0.831963	-0.055197
C138	C	-0.288788	-0.498629	0.278137
C139	C	-0.453426	-1.216609	-0.336925
C140	C	-0.120093	-0.883275	-0.003592
C141	C	0.213241	-0.549942	0.329742
C142	C	-0.406506	-1.216573	-0.336917
C143	C	-0.073173	-0.883240	-0.003584
C144	C	0.260160	-0.549907	0.329750
C145	C	-0.406535	-1.113383	-0.439956
C146	C	-0.073202	-0.780050	-0.106623
C147	C	0.260131	-0.446717	0.226711
C148	C	-0.453451	-1.113416	-0.439962
C149	C	-0.120118	-0.780082	-0.106628
C150	C	0.213216	-0.446749	0.226705
C151	C	-0.476895	-1.165035	-0.388443
C152	C	-0.143562	-0.831701	-0.055110
C153	C	0.189772	-0.498368	0.278223
O154	O	-0.527685	-1.069599	-0.483742
O155	O	-0.194352	-0.736265	-0.150409
O156	O	0.138981	-0.402932	0.182925
O157	O	-0.527674	-1.260546	-0.293136
O158	O	-0.194340	-0.927212	0.040197
O159	O	0.138993	-0.593879	0.373530
C160	C	-0.739616	-1.216781	-0.336981
C161	C	-0.406283	-0.883448	-0.003648
C162	C	-0.072949	-0.550114	0.329686
C163	C	-0.763085	-1.165203	-0.388504
C164	C	-0.429752	-0.831870	-0.055171
C165	C	-0.096418	-0.498537	0.278163
C166	C	-0.739639	-1.113597	-0.440017
C167	C	-0.406305	-0.780264	-0.106683
C168	C	-0.072972	-0.446931	0.226650
C169	C	-0.810003	-1.165226	-0.388510
C170	C	-0.476670	-0.831893	-0.055177
C171	C	-0.143336	-0.498559	0.278157
C172	C	-0.833449	-1.216832	-0.336997
C173	C	-0.500116	-0.883499	-0.003664
C174	C	-0.166783	-0.550165	0.329669
C175	C	-0.809978	-1.268416	-0.285479
C176	C	-0.476645	-0.935082	0.047855
C177	C	-0.143311	-0.601749	0.381188
C178	C	-0.763062	-1.268387	-0.285468
C179	C	-0.429729	-0.935054	0.047865
C180	C	-0.096396	-0.601720	0.381198
C181	C	-0.763110	-1.062014	-0.491536
C182	C	-0.429777	-0.728680	-0.158202
C183	C	-0.096443	-0.395347	0.175131
C184	C	-0.810026	-1.062046	-0.491541
C185	C	-0.476692	-0.728713	-0.158208
C186	C	-0.143359	-0.395379	0.175125
C187	C	-0.833472	-1.113652	-0.440028
C188	C	-0.500139	-0.780319	-0.106695
C189	C	-0.166805	-0.446985	0.226638
C190	C	-0.099225	-1.165269	-0.388518
C191	C	0.234109	-0.831936	-0.055184
C192	C	0.567442	-0.498603	0.278149
C193	C	-0.049290	-1.165341	-0.388542
C194	C	0.284043	-0.832008	-0.055209
C195	C	0.617376	-0.498674	0.278124
C196	C	-0.216410	-1.375410	-0.388483
C197	C	0.116924	-1.042077	-0.055150
C198	C	0.450257	-0.708743	0.278184
C199	C	-0.216413	-1.465031	-0.388493
C200	C	0.116921	-1.131698	-0.055159
C201	C	0.450254	-0.798365	0.278174
C202	C	-0.216408	-0.537814	-0.388481
C203	C	0.116926	-0.204480	-0.055148
C204	C	0.450259	0.128853	0.278185
C205	C	-0.216406	-0.629122	-0.388469
C206	C	0.116928	-0.295789	-0.055136
C207	C	0.450261	0.037545	0.278198
C208	C	-0.216406	-0.701899	-0.388463
C209	C	0.116927	-0.368565	-0.055130
C210	C	0.450260	-0.035232	0.278203
C211	C	-0.216404	-0.793213	-0.388452
C212	C	0.116929	-0.459880	-0.055119
C213	C	0.450263	-0.126546	0.278214
C214	C	-0.216305	-1.165213	-1.016566
C215	C	0.117028	-0.831880	-0.683233
C216	C	0.450362	-0.498547	-0.349899
C217	C	-0.216320	-1.165201	-0.925257
C218	C	0.117013	-0.831867	-0.591924
C219	C	0.450346	-0.498534	-0.258591
C220	C	-0.216330	-1.165195	-0.852481
C221	C	0.117003	-0.831862	-0.519148
C222	C	0.450336	-0.498528	-0.185814
C223	C	-0.216345	-1.165182	-0.761167
C224	C	0.116988	-0.831848	-0.427833
C225	C	0.450321	-0.498515	-0.094500
C226	C	-0.216404	-1.165095	-0.178969
C227	C	0.116929	-0.831762	0.154364
C228	C	0.450263	-0.498429	0.487698
C229	C	-0.216292	-1.165229	-0.089348
C230	C	0.117042	-0.831896	0.243985
C231	C	0.450375	-0.498563	0.577318
H232	H	-0.472509	-1.258644	-0.294976
H233	H	-0.139175	-0.925310	0.038357
H234	H	0.194158	-0.591977	0.371691
H235	H	-0.472560	-1.071417	-0.481922
H236	H	-0.139227	-0.738083	-0.148589
H237	H	0.194106	-0.404750	0.184744
N238	N	-0.598412	-1.009229	-0.544162
N239	N	-0.265079	-0.675895	-0.210829
N240	N	0.068255	-0.342562	0.122504
N241	N	-0.619376	-0.963185	-0.590163
N242	N	-0.286042	-0.629851	-0.256829
N243	N	0.047291	-0.296518	0.076504
H244	H	-0.602468	-0.925954	-0.627339
H245	H	-0.269135	-0.592620	-0.294006
H246	H	0.064198	-0.259287	0.039327
H247	H	-0.387438	-1.071364	-0.481895
H248	H	-0.054105	-0.738030	-0.148561
H249	H	0.279229	-0.404697	0.184772
N250	N	-1.049814	-1.061027	-0.492671
N251	N	-0.716480	-0.727694	-0.159337
N252	N	-0.383147	-0.394360	0.173996
N253	N	-1.044615	-0.986627	-0.487250
N254	N	-0.711281	-0.653294	-0.153917
N255	N	-0.377948	-0.319960	0.179417
H256	H	-1.061542	-0.949401	-0.524413
H257	H	-0.728209	-0.616068	-0.191080
H258	H	-0.394876	-0.282734	0.142254
H259	H	-0.688375	-1.019955	-0.533489
H260	H	-0.355041	-0.686621	-0.200156
H261	H	-0.021708	-0.353288	0.133178
N262	N	-0.382527	-1.269259	-0.284284
N263	N	-0.049194	-0.935926	0.049049
N264	N	0.284139	-0.602593	0.382382
N265	N	-0.340637	-1.269227	-0.284273
N266	N	-0.007303	-0.935894	0.049060
N267	N	0.326030	-0.602561	0.382393
H268	H	-0.323702	-1.306433	-0.247101
H269	H	0.009631	-0.973100	0.086232
H270	H	0.342965	-0.639767	0.419566
H271	H	-0.603210	-1.310306	-0.243481
H272	H	-0.269877	-0.976972	0.089852
H273	H	0.063456	-0.643639	0.423186
H274	H	-0.688317	-1.310358	-0.243499
H275	H	-0.354983	-0.977025	0.089834
H276	H	-0.021650	-0.643692	0.423167
H277	H	-1.044917	-1.258948	-0.295075
H278	H	-0.711584	-0.925615	0.038258
H279	H	-0.378250	-0.592281	0.371592
N280	N	-0.739100	-1.321079	-0.232826
N281	N	-0.405767	-0.987746	0.100508
N282	N	-0.072433	-0.654413	0.433841
N283	N	-0.760048	-1.367148	-0.186840
N284	N	-0.426714	-1.033814	0.146494
N285	N	-0.093381	-0.700481	0.479827
H286	H	-0.743127	-1.404365	-0.149658
H287	H	-0.409794	-1.071032	0.183676
H288	H	-0.076461	-0.737699	0.517009
H289	H	-0.829076	-1.310433	-0.243533
H290	H	-0.495743	-0.977100	0.089801
H291	H	-0.162410	-0.643766	0.423134
N292	N	-0.833989	-1.009341	-0.544178
N293	N	-0.500655	-0.676008	-0.210845
N294	N	-0.167322	-0.342674	0.122488
N295	N	-0.813043	-0.963271	-0.590166
N296	N	-0.479710	-0.629938	-0.256832
N297	N	-0.146376	-0.296604	0.076501
H298	H	-0.829965	-0.926052	-0.627344
H299	H	-0.496632	-0.592719	-0.294011
H300	H	-0.163298	-0.259385	0.039323
N301	N	-0.954930	-1.269582	-0.284366
N302	N	-0.621597	-0.936248	0.048967
N303	N	-0.288263	-0.602915	0.382301
N304	N	-0.960202	-1.264272	-0.209961
N305	N	-0.626869	-0.930938	0.123372
N306	N	-0.293536	-0.597605	0.456705
H307	H	-0.943275	-1.301480	-0.172779
H308	H	-0.609942	-0.968146	0.160554
H309	H	-0.276609	-0.634813	0.493888
N310	N	-0.954987	-1.060991	-0.492686
N311	N	-0.621654	-0.727658	-0.159353
N312	N	-0.288321	-0.394325	0.173980
N313	N	-0.975955	-1.014943	-0.538677
N314	N	-0.642621	-0.681609	-0.205343
N315	N	-0.309288	-0.348276	0.127990
H316	H	-0.959050	-0.977705	-0.575851
H317	H	-0.625717	-0.644372	-0.242518
H318	H	-0.292384	-0.311039	0.090816
H319	H	-0.744024	-1.019991	-0.533485
H320	H	-0.410690	-0.686657	-0.200151
H321	H	-0.077357	-0.353324	0.133182
