data_functionalizedCrystal
_audit_creation_method	'MofGen! by Chris Wilmer'
_symmetry_space_group_name_H-M	'P1'
_symmetry_Int_Tables_number	1
_symmetry_cell_setting	triclinic
loop_
_symmetry_equiv_pos_as_xyz
  x,y,z
_cell_length_a	16.992694
_cell_length_b	13.339070
_cell_length_c	16.053802
_cell_angle_alpha	93.267614
_cell_angle_beta	87.249047
_cell_angle_gamma	103.148759
loop_
_atom_site_label
_atom_site_type_symbol
_atom_site_fract_x
_atom_site_fract_y
_atom_site_fract_z
O1	O	1.090314	0.214289	-0.069315
O2	O	1.590314	0.714289	0.430685
O3	O	0.861508	0.211892	-0.069340
O4	O	1.361508	0.711892	0.430660
O5	O	0.949651	0.063704	-0.069328
O6	O	1.449651	0.563704	0.430672
O7	O	1.002170	0.362477	-0.069327
O8	O	1.502170	0.862477	0.430673
O9	O	0.944792	0.071825	0.069530
O10	O	1.444792	0.571825	0.569530
O11	O	0.856649	0.220013	0.069518
O12	O	1.356649	0.720013	0.569518
O13	O	1.085454	0.222410	0.069543
O14	O	1.585454	0.722410	0.569543
Zn15	Zn	0.970280	0.222501	0.091577
Zn16	Zn	1.470280	0.722501	0.591577
Zn17	Zn	0.976682	0.211801	-0.091374
Zn18	Zn	1.476682	0.711801	0.408626
O19	O	0.997311	0.370598	0.069531
O20	O	1.497311	0.870598	0.569531
C21	C	0.829196	0.212871	0.000086
C22	C	1.329196	0.712871	0.500086
C23	C	0.740151	0.203676	0.000076
C24	C	1.240151	0.703676	0.500076
C25	C	0.709211	0.292389	0.000077
C26	C	1.209211	0.792389	0.500077
C27	C	0.625543	0.283745	0.000089
C28	C	1.125543	0.783745	0.500089
C29	C	0.572817	0.186385	0.000093
C30	C	1.072817	0.686385	0.500093
C31	C	0.603763	0.097665	0.000095
C32	C	1.103763	0.597665	0.500095
C33	C	0.687429	0.106311	0.000090
C34	C	1.187429	0.606311	0.500090
C35	C	0.321423	0.150552	0.000116
C36	C	0.821423	0.650552	0.500116
C37	C	0.237752	0.141912	0.000119
C38	C	0.737752	0.641912	0.500119
C39	C	0.259538	0.327993	0.000114
C40	C	0.759538	0.827993	0.500114
C41	C	0.343205	0.336630	0.000103
C42	C	0.843205	0.836630	0.500103
C43	C	0.374143	0.247910	0.000109
C44	C	0.874143	0.747910	0.500109
N45	N	0.487295	0.177547	0.000103
N46	N	0.987295	0.677547	0.500103
N47	N	0.459663	0.256750	0.000106
N48	N	0.959663	0.756750	0.500106
C49	C	0.938350	0.029358	0.000099
C50	C	1.438350	0.529358	0.500099
C51	C	0.911906	-0.085082	0.000093
C52	C	1.411906	0.414918	0.500093
C53	C	1.117519	-0.433251	0.000116
C54	C	1.617519	0.066749	0.500116
C55	C	1.142367	-0.325729	0.000126
C56	C	1.642367	0.174271	0.500126
C57	C	1.084754	-0.265562	0.000118
C58	C	1.584754	0.234438	0.500118
C59	C	1.002289	-0.312928	0.000099
C60	C	1.502289	0.187072	0.500099
C61	C	0.977439	-0.420460	0.000095
C62	C	1.477439	0.079540	0.500095
C63	C	0.944673	-0.252771	0.000097
C64	C	1.444673	0.247229	0.500097
C65	C	0.862209	-0.300136	0.000078
C66	C	1.362209	0.199864	0.500078
C67	C	0.837363	-0.407658	0.000074
C68	C	1.337363	0.092342	0.500074
C69	C	0.894976	-0.467825	0.000082
C70	C	1.394976	0.032175	0.500082
C71	C	0.969524	-0.145239	0.000101
C72	C	1.469524	0.354761	0.500101
C73	C	0.829443	-0.132447	0.000080
C74	C	1.329443	0.367553	0.500080
C75	C	0.804596	-0.239970	0.000070
C76	C	1.304596	0.260030	0.500070
C77	C	1.117767	0.221431	0.000115
C78	C	1.617767	0.721431	0.500115
C79	C	1.206811	0.230626	0.000120
C80	C	1.706811	0.730626	0.500120
C81	C	1.008612	0.404944	0.000102
C82	C	1.508612	0.904944	0.500102
C83	C	1.035056	0.519384	0.000103
C84	C	1.535056	1.019384	0.500103
N85	N	0.965916	0.229803	0.216437
N86	N	1.465916	0.729803	0.716437
N87	N	0.981051	0.204492	-0.216234
N88	N	1.481051	0.704492	0.283766
C89	C	1.003445	0.166774	0.260136
C90	C	1.503445	0.666774	0.760136
C91	C	1.000402	0.171892	0.347543
C92	C	1.500402	0.671892	0.847543
C93	C	0.959834	0.240045	0.391248
C94	C	1.459834	0.740045	0.891248
C95	C	0.922300	0.303076	0.347543
C96	C	1.422300	0.803076	0.847543
C97	C	0.925339	0.297952	0.260138
C98	C	1.425339	0.797952	0.760138
C99	C	0.946555	0.262399	0.652656
C100	C	1.446555	0.762399	1.152656
C101	C	0.943522	0.267520	0.740067
C102	C	1.443522	0.767520	1.240067
C103	C	1.021623	0.136334	0.740060
C104	C	1.521623	0.636334	1.240060
C105	C	1.024662	0.131221	0.652654
C106	C	1.524662	0.631221	1.152654
C107	C	0.987124	0.194248	0.608956
C108	C	1.487124	0.694248	1.108956
N109	N	0.956725	0.245281	0.480592
N110	N	1.456725	0.745281	0.980592
N111	N	0.990229	0.189006	0.519615
N112	N	1.490229	0.689006	1.019615
H113	H	0.752136	0.371670	0.000073
H114	H	1.252136	0.871670	0.500073
H115	H	1.104990	-0.178013	0.000126
H116	H	1.604990	0.321987	0.500126
N117	N	1.231303	-0.274642	0.000150
N118	N	1.731303	0.225358	0.500150
H119	H	1.264030	-0.329071	0.000154
H120	H	1.764030	0.170929	0.500154
H121	H	1.246470	-0.233313	-0.051322
H122	H	1.746470	0.266687	0.448678
N123	N	1.179652	-0.498140	0.000140
N124	N	1.679652	0.001860	0.500140
H125	H	1.151394	-0.573443	0.000139
H126	H	1.651394	-0.073443	0.500139
H127	H	1.216388	-0.485157	-0.051329
H128	H	1.716388	0.014843	0.448671
N129	N	0.767292	-0.067573	0.000065
N130	N	1.267292	0.432427	0.500065
H131	H	0.730546	-0.080480	0.051536
H132	H	1.230546	0.419520	0.551536
H133	H	0.795603	0.007706	0.000036
H134	H	1.295603	0.507706	0.500036
N135	N	0.720797	0.010622	0.000086
N136	N	1.220797	0.510622	0.500086
H137	H	0.756820	0.007048	-0.051389
H138	H	1.256820	0.507048	0.448611
H139	H	0.753189	0.013132	0.051595
H140	H	1.253189	0.513132	0.551595
H141	H	1.036484	0.111281	0.224557
H142	H	1.536484	0.611281	0.724557
N143	N	1.040915	0.103949	0.394676
N144	N	1.540915	0.603949	0.894676
H145	H	1.067092	0.060015	0.353726
H146	H	1.567092	0.560015	0.853726
H147	H	1.083512	0.148418	0.430917
H148	H	1.583512	0.648418	0.930917
N149	N	0.878548	0.376584	0.394686
N150	N	1.378548	0.876584	0.894686
H151	H	0.904166	0.449526	0.379465
H152	H	1.404166	0.949526	0.879465
H153	H	0.819850	0.359122	0.379470
H154	H	1.319850	0.859122	0.879470
N155	N	0.592168	0.379434	0.000184
N156	N	1.092168	0.879434	0.500184
H157	H	0.638264	0.442423	0.000206
H158	H	1.138264	0.942423	0.500206
H159	H	0.559691	0.376963	-0.051258
H160	H	1.059691	0.876963	0.448742
H161	H	0.346602	0.078309	0.000121
H162	H	0.846602	0.578309	0.500121
N163	N	0.748423	-0.458758	0.000057
N164	N	1.248423	0.041242	0.500057
H165	H	0.733191	-0.500077	0.051530
H166	H	1.233191	-0.000077	0.551530
H167	H	0.715749	-0.404279	0.000019
H168	H	1.215749	0.095721	0.500019
N169	N	1.068418	0.057714	0.605516
N170	N	1.568418	0.557714	1.105516
H171	H	1.091731	0.018560	0.646463
H172	H	1.591731	0.518560	1.146463
H173	H	1.029217	0.007572	0.569258
H174	H	1.529217	0.507572	1.069258
H175	H	1.052183	0.085019	0.775647
H176	H	1.552183	0.585019	1.275647
N177	N	0.715654	-0.291064	0.000066
N178	N	1.215654	0.208936	0.500066
H179	H	0.682923	-0.236640	0.000062
H180	H	1.182923	0.263360	0.500062
H181	H	0.704097	-0.338408	-0.051412
H182	H	1.204097	0.161592	0.448588
H183	H	0.386130	0.415909	0.000090
H184	H	0.886130	0.915909	0.500090
N185	N	1.058462	-0.094161	0.000123
N186	N	1.558462	0.405839	0.500123
H187	H	1.086562	-0.118679	-0.051348
H188	H	1.586562	0.381321	0.448652
H189	H	1.065396	-0.016926	0.000158
H190	H	1.565396	0.483074	0.500158
N191	N	0.884856	0.365927	0.213001
N192	N	1.384856	0.865927	0.713001
H193	H	0.858695	0.409880	0.253950
H194	H	1.358695	0.909880	0.753950
H195	H	0.926575	0.411819	0.176725
H196	H	1.426575	0.911819	0.676725
H197	H	0.910485	0.323023	0.775648
H198	H	1.410485	0.823023	1.275648
H199	H	0.234339	0.400223	0.000111
H200	H	0.734339	0.900223	0.500111
N201	N	0.906065	0.330369	0.605531
N202	N	1.406065	0.830369	1.105531
H203	H	0.879906	0.374320	0.646484
H204	H	1.379906	0.874320	1.146484
H205	H	0.947780	0.376263	0.569253
H206	H	1.447780	0.876263	1.069253
N207	N	0.180871	0.036904	0.000127
N208	N	0.680871	0.536904	0.500127
H209	H	0.192460	-0.005287	-0.051345
H210	H	0.692460	0.494713	0.448655
H211	H	0.188893	0.000831	0.051639
H212	H	0.688893	0.500831	0.551639
N213	N	0.546898	-0.007345	0.000113
N214	N	1.046898	0.492655	0.500113
H215	H	0.489200	0.000637	0.000117
H216	H	0.989200	0.500637	0.500117
H217	H	0.558558	-0.049480	-0.051360
H218	H	1.058558	0.450520	0.448640
N219	N	0.868173	-0.583799	0.000069
N220	N	1.368173	-0.083799	0.500069
H221	H	0.917186	-0.614722	0.000073
H222	H	1.417186	-0.114722	0.500073
H223	H	0.832871	-0.604098	0.051542
H224	H	1.332871	-0.104098	0.551542
