data_functionalizedCrystal
_audit_creation_method	'MofGen! by Chris Wilmer'
_symmetry_space_group_name_H-M	'P1'
_symmetry_Int_Tables_number	1
_symmetry_cell_setting	triclinic
loop_
_symmetry_equiv_pos_as_xyz
  x,y,z
_cell_length_a	10.489741
_cell_length_b	10.489741
_cell_length_c	8.965430
_cell_angle_alpha	89.999293
_cell_angle_beta	89.998843
_cell_angle_gamma	95.460826
loop_
_atom_site_label
_atom_site_type_symbol
_atom_site_fract_x
_atom_site_fract_y
_atom_site_fract_z
O1	O	1.694053	-0.179958	-0.123946
O2	O	1.322858	-0.196851	-0.123969
O3	O	1.516902	-0.002807	-0.123948
O4	O	1.500009	-0.374003	-0.123967
O5	O	1.516886	-0.002820	0.124130
O6	O	1.322841	-0.196864	0.124110
O7	O	1.694037	-0.179971	0.124133
Cu8	Cu	1.508438	-0.188419	0.146773
Cu9	Cu	1.508457	-0.188404	-0.146609
O10	O	1.499993	-0.374016	0.124112
C11	C	1.275318	-0.195582	0.000067
C12	C	1.133688	-0.191765	0.000059
C13	C	1.065548	-0.068300	0.000079
C14	C	0.973430	-0.126617	-0.122237
C15	C	0.973447	-0.126659	0.122349
C16	C	1.043435	-0.250133	-0.122358
C17	C	1.043462	-0.250158	0.122338
C18	C	0.951371	-0.308564	-0.000007
C19	C	1.515618	0.044718	0.000090
C20	C	1.511801	0.186348	0.000087
C21	C	1.741577	-0.181241	0.000093
C22	C	1.883206	-0.185058	0.000092
C23	C	1.501277	-0.421541	0.000070
C24	C	1.505094	-0.563170	0.000063
N25	N	1.508433	-0.188429	0.353122
C26	C	1.388336	0.254488	0.000069
C27	C	1.446652	0.346604	0.122388
C28	C	1.446697	0.346591	-0.122198
C29	C	1.570167	0.276599	0.122508
C30	C	1.570195	0.276576	-0.122189
C31	C	1.628600	0.368665	0.000161
N32	N	1.508471	-0.188384	-0.352958
C33	C	1.418666	-0.278138	0.450418
C34	C	1.534163	-0.303949	0.549838
C35	C	1.392986	-0.162629	0.549830
C36	C	1.623988	-0.214298	0.450352
C37	C	1.482735	-0.072927	0.450336
C38	C	1.598314	-0.098690	0.549711
H39	H	0.901947	-0.410168	-0.000079
H40	H	1.460937	0.024699	0.406596
H41	H	1.286824	0.204837	0.000185
H42	H	1.074502	-0.302361	0.225749
H43	H	1.555925	-0.401606	0.593543
H44	H	1.674327	-0.022803	0.593034
H45	H	0.942463	-0.074402	0.225758
H46	H	1.721659	-0.236216	0.406840
H47	H	1.295338	-0.140828	0.593530
H48	H	1.394404	0.377610	0.225794
O49	O	1.632343	0.239597	0.245974
C50	C	1.705766	0.063773	0.384453
C51	C	1.635306	0.105501	0.244584
H52	H	1.708208	-0.044643	0.383360
H53	H	1.653480	0.093113	0.488612
H54	H	1.807863	0.111983	0.384883
H55	H	1.533207	0.057312	0.244009
H56	H	1.687692	0.076184	0.140488
O57	O	1.749829	0.427582	0.000506
C58	C	1.951815	0.458652	0.129738
C59	C	1.814553	0.391868	0.129542
H60	H	2.004193	0.429781	0.234036
H61	H	1.948099	0.566914	0.128843
H62	H	2.004802	0.428632	0.026406
H63	H	1.761487	0.421784	0.232857
H64	H	1.818361	0.283618	0.130359
O65	O	1.632661	0.239495	-0.245396
C66	C	1.811461	0.136655	-0.341347
C67	C	1.740876	0.178612	-0.201676
H68	H	1.898951	0.087398	-0.306049
H69	H	1.843251	0.224240	-0.412132
H70	H	1.744369	0.067182	-0.409272
H71	H	1.807894	0.248057	-0.133635
H72	H	1.709065	0.090967	-0.131002
O73	O	1.384196	0.383384	-0.245528
C74	C	1.186854	0.366619	-0.384824
C75	C	1.257503	0.324834	-0.245120
H76	H	1.084402	0.319321	-0.384524
H77	H	1.238411	0.336406	-0.489109
H78	H	1.185429	0.475152	-0.384211
H79	H	1.258948	0.216306	-0.245588
H80	H	1.205922	0.355141	-0.140897
O81	O	1.124645	0.052858	0.000136
C82	C	1.154644	0.255645	0.127794
C83	C	1.087609	0.118486	0.127910
H84	H	1.124747	0.308737	0.231105
H85	H	1.126041	0.308137	0.023457
H86	H	1.262856	0.251570	0.128779
H87	H	0.979385	0.122444	0.126979
H88	H	1.116316	0.066048	0.232240
O89	O	1.328209	-0.368622	0.398138
C90	C	1.226173	-0.469365	0.181874
C91	C	1.328630	-0.366824	0.240883
H92	H	1.226498	-0.467963	0.054728
H93	H	1.127897	-0.448370	0.224385
H94	H	1.248337	-0.567747	0.222841
H95	H	1.306587	-0.268401	0.199940
H96	H	1.426874	-0.387930	0.198384
O97	O	0.936656	-0.064207	-0.245642
C98	C	1.003555	0.047539	-0.471402
C99	C	1.045368	-0.023097	-0.331701
H100	H	1.091422	0.080773	-0.541036
H101	H	0.952788	0.134098	-0.436192
H102	H	0.935472	-0.020050	-0.540456
H103	H	1.113492	0.044391	-0.262585
H104	H	1.096063	-0.109671	-0.367013
H105	H	1.074270	-0.302327	-0.225883
