data_functionalizedCrystal
_audit_creation_method	'MofGen! by Chris Wilmer'
_symmetry_space_group_name_H-M	'P1'
_symmetry_Int_Tables_number	1
_symmetry_cell_setting	triclinic
loop_
_symmetry_equiv_pos_as_xyz
  x,y,z
_cell_length_a	19.077236
_cell_length_b	13.034595
_cell_length_c	19.077174
_cell_angle_alpha	99.147242
_cell_angle_beta	85.294282
_cell_angle_gamma	85.409765
loop_
_atom_site_label
_atom_site_type_symbol
_atom_site_fract_x
_atom_site_fract_y
_atom_site_fract_z
Zn1	Zn	1.127387	-0.377242	-0.475647
Zn2	Zn	1.627387	0.122758	0.024353
Zn3	Zn	1.137555	-0.545224	-0.372754
Zn4	Zn	1.637555	-0.045224	0.127246
Zn5	Zn	1.004770	-0.377258	-0.353032
Zn6	Zn	1.504770	0.122742	0.146968
Zn7	Zn	1.025643	-0.558643	-0.487056
Zn8	Zn	1.525643	-0.058643	0.012944
O9	O	1.073839	-0.464592	-0.422122
O10	O	1.573839	0.035408	0.077878
O11	O	1.226887	-0.393902	-0.465477
O12	O	1.726887	0.106098	0.034523
O13	O	1.115461	-0.517334	-0.270987
O14	O	1.615461	-0.017334	0.229013
O15	O	1.008044	-0.231044	-0.356269
O16	O	1.508044	0.268956	0.143731
O17	O	1.234358	-0.517318	-0.389882
O18	O	1.734358	-0.017318	0.110118
O19	O	1.098131	-0.231032	-0.446354
O20	O	1.598131	0.268968	0.053646
O21	O	1.017904	-0.393930	-0.256497
O22	O	1.517904	0.106070	0.243503
O23	O	0.909387	-0.406942	-0.367331
O24	O	1.409387	0.093058	0.132669
O25	O	1.043619	-0.540189	-0.584694
O26	O	1.543619	-0.040189	-0.084694
O27	O	0.924722	-0.540205	-0.465798
O28	O	1.424722	-0.040205	0.034202
O29	O	1.118370	-0.406914	-0.576312
O30	O	1.618370	0.093086	-0.076312
O31	O	1.135701	-0.693216	-0.400945
O32	O	1.635701	-0.193216	0.099055
O33	O	1.053479	-0.703075	-0.484922
O34	O	1.553479	-0.203075	0.015078
C35	C	0.891605	-0.475032	-0.415663
C36	C	1.391605	0.024968	0.084337
C37	C	0.813648	-0.479524	-0.412919
C38	C	1.313648	0.020476	0.087081
C39	C	0.773147	-0.417489	-0.451067
C40	C	1.273147	0.082511	0.048933
C41	C	0.699897	-0.421704	-0.448482
C42	C	1.199897	0.078296	0.051518
C43	C	0.667150	-0.487962	-0.407752
C44	C	1.167150	0.012038	0.092248
C45	C	0.707656	-0.550000	-0.369600
C46	C	1.207656	-0.050000	0.130400
C47	C	0.780904	-0.545778	-0.372181
C48	C	1.280904	-0.045778	0.127819
C49	C	0.448498	-0.507462	-0.395799
C50	C	0.948498	-0.007462	0.104201
C51	C	0.375245	-0.511681	-0.393223
C52	C	0.875245	-0.011681	0.106777
C53	C	0.367491	-0.383384	-0.472104
C54	C	0.867491	0.116616	0.027896
C55	C	0.440741	-0.379173	-0.474685
C56	C	0.940741	0.120827	0.025315
C57	C	0.481240	-0.441206	-0.436529
C58	C	0.981240	0.058794	0.063471
N59	N	0.592278	-0.492275	-0.405111
N60	N	1.092278	0.007725	0.094889
N61	N	0.556111	-0.436887	-0.439167
N62	N	1.056111	0.063113	0.060833
C63	C	1.097978	-0.736056	-0.446328
C64	C	1.597978	-0.236056	0.053672
C65	C	1.108370	-0.852188	-0.456709
C66	C	1.608370	-0.352188	0.043291
C67	C	1.068471	-0.904048	-0.416738
C68	C	1.568471	-0.404048	0.083262
C69	C	1.079211	-1.024076	-0.427466
C70	C	1.579211	-0.524076	0.072534
C71	C	1.256784	-0.454112	-0.428607
C72	C	1.756784	0.045888	0.071393
C73	C	1.334744	-0.449646	-0.431370
C74	C	1.834744	0.050354	0.068630
C75	C	1.082189	-0.475047	-0.606930
C76	C	1.582189	0.024953	-0.106930
C77	C	1.085747	-0.479502	-0.685684
C78	C	1.585747	0.020498	-0.185684
C79	C	1.049625	-0.192067	-0.397839
C80	C	1.549625	0.307933	0.102161
C81	C	1.039306	-0.075933	-0.387490
C82	C	1.539306	0.424067	0.112510
C83	C	1.036628	-0.417347	-0.715139
C84	C	1.536628	0.082653	-0.215139
C85	C	1.039970	-0.421542	-0.789137
C86	C	1.539970	0.078458	-0.289137
C87	C	1.092434	-0.487888	-0.833680
C88	C	1.592434	0.012112	-0.333680
C89	C	1.141555	-0.550050	-0.804221
C90	C	1.641555	-0.050050	-0.304221
C91	C	1.138210	-0.545860	-0.730224
C92	C	1.638210	-0.045860	-0.230224
C93	C	1.107882	-0.507315	-1.055797
C94	C	1.607882	-0.007315	-0.555797
C95	C	1.111225	-0.511498	-1.129798
C96	C	1.611225	-0.011498	-0.629798
C97	C	1.009638	-0.382990	-1.114710
C98	C	1.509638	0.117010	-0.614710
C99	C	1.006300	-0.378801	-1.040712
C100	C	1.506300	0.121199	-0.540712
C101	C	1.055419	-0.440968	-1.011259
C102	C	1.555419	0.059032	-0.511259
N103	N	1.095852	-0.492175	-0.909318
N104	N	1.595852	0.007825	-0.409318
N105	N	1.051998	-0.436685	-0.935623
N106	N	1.551998	0.063315	-0.435623
C107	C	1.065555	-0.454100	-0.238028
C108	C	1.565555	0.045900	0.261972
C109	C	1.062106	-0.449342	-0.159253
C110	C	1.562106	0.050658	0.340747
H111	H	0.334509	-0.332878	-0.503166
H112	H	0.834509	0.167122	-0.003166
H113	H	0.481464	-0.557975	-0.364731
H114	H	0.981464	-0.057975	0.135269
H115	H	0.348585	-0.565641	-0.360056
H116	H	0.848585	-0.065641	0.139944
C117	C	0.655347	-0.353475	-0.490449
C118	C	1.155347	0.146525	0.009551
H119	H	0.607032	-0.365468	-0.483074
H120	H	1.107032	0.134532	0.016926
H121	H	0.670881	-0.370882	-0.539834
H122	H	1.170881	0.129118	-0.039834
H123	H	0.660635	-0.281970	-0.474319
H124	H	1.160635	0.218030	0.025681
C125	C	0.978912	-0.344374	-0.666149
C126	C	1.478912	0.155626	-0.166149
H127	H	0.950133	-0.307968	-0.694293
H128	H	1.450133	0.192032	-0.194293
H129	H	1.000385	-0.295674	-0.634173
H130	H	1.500385	0.204326	-0.134173
H131	H	0.950599	-0.384474	-0.639766
H132	H	1.450599	0.115526	-0.139766
C133	C	1.165258	-0.912240	-0.513668
C134	C	1.665258	-0.412240	-0.013668
H135	H	1.165011	-0.985035	-0.513410
H136	H	1.665011	-0.485035	-0.013410
H137	H	1.210337	-0.891064	-0.503423
H138	H	1.710337	-0.391064	-0.003423
H139	H	1.155515	-0.897680	-0.559320
H140	H	1.655515	-0.397680	-0.059320
C141	C	1.136102	-1.084124	-0.484429
C142	C	1.636102	-0.584124	0.015571
H143	H	1.135854	-1.156919	-0.484170
H144	H	1.635854	-0.656919	0.015830
H145	H	1.181181	-1.062948	-0.474183
H146	H	1.681181	-0.562948	0.025817
H147	H	1.126358	-1.069564	-0.530080
H148	H	1.626358	-0.569564	-0.030080
H149	H	0.813879	-0.596293	-0.341117
H150	H	1.313879	-0.096293	0.158883
C151	C	0.809166	-0.344609	-0.495870
C152	C	1.309166	0.155391	0.004130
H153	H	0.858592	-0.350985	-0.491951
H154	H	1.358592	0.149015	0.008049
H155	H	0.790445	-0.274493	-0.478896
H156	H	1.290445	0.225507	0.021104
H157	H	0.800690	-0.363402	-0.544413
H158	H	1.300690	0.136598	-0.044413
C159	C	0.948595	-0.305812	-0.991719
C160	C	1.448595	0.194188	-0.491719
H161	H	0.919818	-0.269397	-1.019860
H162	H	1.419818	0.230603	-0.519860
H163	H	0.970084	-0.257121	-0.959753
H164	H	1.470084	0.242879	-0.459753
H165	H	0.920275	-0.345893	-0.965327
H166	H	1.420275	0.154107	-0.465327
C167	C	0.476757	-0.306279	-0.519480
C168	C	0.976757	0.193721	-0.019480
H169	H	0.442143	-0.269928	-0.541824
H170	H	0.942143	0.230072	-0.041824
H171	H	0.510295	-0.346409	-0.554884
H172	H	1.010295	0.153591	-0.054884
H173	H	0.500042	-0.257514	-0.489359
H174	H	1.000042	0.242486	0.010641
C175	C	0.671637	-0.622883	-0.324800
C176	C	1.171637	-0.122883	0.175200
H177	H	0.622213	-0.616522	-0.328731
H178	H	1.122213	-0.116522	0.171269
H179	H	0.680110	-0.604102	-0.276260
H180	H	1.180110	-0.104102	0.223740
H181	H	0.690361	-0.693001	-0.341782
H182	H	1.190361	-0.193001	0.158218
C183	C	1.011582	-0.843996	-0.359779
C184	C	1.511582	-0.343996	0.140221
H185	H	1.011824	-0.771201	-0.360045
H186	H	1.511824	-0.271201	0.139955
H187	H	1.021317	-0.858558	-0.314130
H188	H	1.521317	-0.358558	0.185870
H189	H	0.966502	-0.865171	-0.370034
H190	H	1.466502	-0.365171	0.129966
H191	H	1.184270	-0.604076	-0.840494
H192	H	1.684270	-0.104076	-0.340494
H193	H	1.147872	-0.557947	-1.031827
H194	H	1.647872	-0.057947	-0.531827
H195	H	1.153951	-0.565526	-1.166064
H196	H	1.653951	-0.065526	-0.666064
H197	H	1.178213	-0.596466	-0.706243
H198	H	1.678213	-0.096466	-0.206243
H199	H	0.997196	-1.031477	-0.345322
H200	H	1.497196	-0.531477	0.154678
C201	C	0.985922	-0.353206	-0.821540
C202	C	1.485922	0.146794	-0.321540
H203	H	0.995415	-0.365222	-0.871990
H204	H	1.495415	0.134778	-0.371990
H205	H	0.989380	-0.281720	-0.803535
H206	H	1.489380	0.218280	-0.303535
H207	H	0.939614	-0.370546	-0.809094
H208	H	1.439614	0.129454	-0.309094
C209	C	0.955605	-0.314627	-1.147110
C210	C	1.455605	0.185373	-0.647110
H211	H	0.965105	-0.326629	-1.197559
H212	H	1.465105	0.173371	-0.697559
H213	H	0.959079	-0.243149	-1.129094
H214	H	1.459079	0.256851	-0.629094
H215	H	0.909290	-0.331946	-1.134674
H216	H	1.409290	0.168054	-0.634674
