data_functionalizedCrystal
_audit_creation_method	'MofGen! by Chris Wilmer'
_symmetry_space_group_name_H-M	'P1'
_symmetry_Int_Tables_number	1
_symmetry_cell_setting	triclinic
loop_
_symmetry_equiv_pos_as_xyz
  x,y,z
_cell_length_a	12.759401
_cell_length_b	16.625545
_cell_length_c	12.759393
_cell_angle_alpha	90.032957
_cell_angle_beta	89.980324
_cell_angle_gamma	89.975537
loop_
_atom_site_label
_atom_site_type_symbol
_atom_site_fract_x
_atom_site_fract_y
_atom_site_fract_z
Zn1	Zn	1.606198	0.320953	-0.593967
Zn2	Zn	1.939532	0.654287	-0.260633
Zn3	Zn	2.272865	0.987620	0.072700
Zn4	Zn	1.606061	0.455808	-0.418279
Zn5	Zn	1.939394	0.789141	-0.084946
Zn6	Zn	2.272727	1.122474	0.248387
Zn7	Zn	1.430497	0.320994	-0.418306
Zn8	Zn	1.763830	0.654327	-0.084972
Zn9	Zn	2.097164	0.987660	0.248361
Zn10	Zn	1.430460	0.455749	-0.593920
Zn11	Zn	1.763794	0.789082	-0.260587
Zn12	Zn	2.097127	1.122415	0.072746
O13	O	1.518304	0.388376	-0.506118
O14	O	1.851637	0.721709	-0.172785
O15	O	2.184971	1.055043	0.160549
O16	O	1.753201	0.338850	-0.570670
O17	O	2.086534	0.672183	-0.237336
O18	O	2.419868	1.005517	0.095997
O19	O	1.582730	0.437966	-0.271262
O20	O	1.916063	0.771299	0.062072
O21	O	2.249396	1.104633	0.395405
O22	O	1.453877	0.208156	-0.441638
O23	O	1.787210	0.541489	-0.108305
O24	O	2.120544	0.874823	0.225029
O25	O	1.753100	0.437927	-0.441593
O26	O	2.086433	0.771260	-0.108260
O27	O	2.419767	1.104593	0.225074
O28	O	1.582964	0.208126	-0.570695
O29	O	1.916297	0.541460	-0.237362
O30	O	2.249631	0.874793	0.095971
O31	O	1.453744	0.338919	-0.271281
O32	O	1.787077	0.672252	0.062052
O33	O	2.120410	1.005585	0.395386
O34	O	1.283471	0.338862	-0.441593
O35	O	1.616804	0.672195	-0.108260
O36	O	1.950138	1.005528	0.225074
O37	O	1.453814	0.437826	-0.740948
O38	O	1.787148	0.771160	-0.407614
O39	O	2.120481	1.104493	-0.074281
O40	O	1.283444	0.437865	-0.570616
O41	O	1.616777	0.771199	-0.237283
O42	O	1.950111	1.104532	0.096050
O43	O	1.582928	0.338793	-0.740982
O44	O	1.916262	0.672126	-0.407648
O45	O	2.249595	1.005459	-0.074315
O46	O	1.582694	0.568632	-0.441548
O47	O	1.916027	0.901966	-0.108215
O48	O	2.249361	1.235299	0.225119
O49	O	1.453681	0.568589	-0.570591
O50	O	1.787014	0.901922	-0.237257
O51	O	2.120348	1.235256	0.096076
C52	C	1.245337	0.388362	-0.506103
C53	C	1.578670	0.721695	-0.172770
C54	C	1.912003	1.055029	0.160563
C55	C	1.128560	0.388376	-0.506122
C56	C	1.461893	0.721709	-0.172788
C57	C	1.795227	1.055042	0.160545
C58	C	1.073751	0.336879	-0.573436
C59	C	1.407085	0.670213	-0.240102
C60	C	1.740418	1.003546	0.093231
C61	C	0.964027	0.336888	-0.573443
C62	C	1.297361	0.670221	-0.240109
C63	C	1.630694	1.003554	0.093224
C64	C	0.963930	0.439895	-0.438819
C65	C	1.297264	0.773228	-0.105485
C66	C	1.630597	1.106562	0.227848
C67	C	1.073652	0.439882	-0.438807
C68	C	1.406986	0.773215	-0.105474
C69	C	1.740319	1.106549	0.227859
C70	C	1.518197	0.597867	-0.506084
C71	C	1.851530	0.931200	-0.172751
C72	C	2.184864	1.264533	0.160582
C73	C	1.518247	0.687488	-0.506105
C74	C	1.851581	1.020821	-0.172772
C75	C	2.184914	1.354155	0.160562
C76	C	1.518419	1.015663	-0.506231
C77	C	1.851752	1.348997	-0.172897
C78	C	2.185086	1.682330	0.160436
C79	C	1.518368	0.924355	-0.506199
C80	C	1.851701	1.257688	-0.172865
C81	C	2.185035	1.591022	0.160468
C82	C	1.518332	0.851579	-0.506167
C83	C	1.851666	1.184912	-0.172834
C84	C	2.184999	1.518245	0.160499
C85	C	1.518283	0.760264	-0.506136
C86	C	1.851616	1.093598	-0.172803
C87	C	2.184950	1.426931	0.160530
C88	C	1.792337	0.388390	-0.506134
C89	C	2.125671	0.721724	-0.172800
C90	C	2.459004	1.055057	0.160533
C91	C	1.909114	0.388397	-0.506140
C92	C	2.242447	0.721730	-0.172807
C93	C	2.575781	1.055063	0.160526
C94	C	1.518383	0.388299	-0.780152
C95	C	1.851716	0.721632	-0.446818
C96	C	2.185049	1.054965	-0.113485
C97	C	1.518416	0.388266	-0.896928
C98	C	1.851749	0.721599	-0.563595
C99	C	2.185083	1.054932	-0.230262
C100	C	1.518431	1.178067	-0.506187
C101	C	1.851764	1.511400	-0.172854
C102	C	2.185098	1.844734	0.160479
C103	C	1.518462	1.088446	-0.506248
C104	C	1.851796	1.421779	-0.172915
C105	C	2.185129	1.755113	0.160418
C106	C	1.585651	0.336691	-0.951810
C107	C	1.918984	0.670024	-0.618476
C108	C	2.252317	1.003357	-0.285143
C109	C	1.585669	0.336656	-1.061534
C110	C	1.919002	0.669989	-0.728200
C111	C	2.252335	1.003322	-0.394867
C112	C	1.451214	0.439778	-1.061485
C113	C	1.784547	0.773111	-0.728152
C114	C	2.117881	1.106445	-0.394819
C115	C	1.451192	0.439808	-0.951763
C116	C	1.784525	0.773141	-0.618430
C117	C	2.117859	1.106475	-0.285097
C118	C	1.518286	0.388395	-0.233151
C119	C	1.851619	0.721728	0.100183
C120	C	2.184953	1.055062	0.433516
C121	C	1.518456	0.388201	-0.116375
C122	C	1.851790	0.721534	0.216959
C123	C	2.185123	1.054867	0.550292
H124	H	1.118279	0.481817	-0.383987
H125	H	1.451612	0.815151	-0.050653
H126	H	1.784945	1.148484	0.282680
C127	C	1.659581	0.279986	-0.891494
C128	C	1.992914	0.613320	-0.558161
C129	C	2.326247	0.946653	-0.224828
H130	H	1.699617	0.249259	-0.939899
H131	H	2.032950	0.582593	-0.606565
H132	H	2.366283	0.915926	-0.273232
H133	H	1.705331	0.310838	-0.848686
H134	H	2.038665	0.644172	-0.515352
H135	H	2.371998	0.977505	-0.182019
H136	H	1.619393	0.244862	-0.848701
H137	H	1.952727	0.578195	-0.515367
H138	H	2.286060	0.911529	-0.182034
H139	H	1.118454	0.294937	-0.628244
H140	H	1.451787	0.628270	-0.294911
H141	H	1.785121	0.961604	0.038423
H142	H	1.640416	0.294657	-1.106213
H143	H	1.973749	0.627990	-0.772880
H144	H	2.307083	0.961324	-0.439547
H145	H	1.396485	0.481744	-1.106146
H146	H	1.729818	0.815077	-0.772812
H147	H	2.063152	1.148410	-0.439479
H148	H	1.396434	0.481806	-0.907078
H149	H	1.729767	0.815139	-0.573744
H150	H	2.063101	1.148473	-0.240411
H151	H	0.919211	0.481831	-0.384015
H152	H	1.252544	0.815164	-0.050682
H153	H	1.585878	1.148497	0.282652
C154	C	0.903742	0.280246	-0.647493
C155	C	1.237075	0.613579	-0.314160
C156	C	1.570409	0.946913	0.019173
H157	H	0.952161	0.249576	-0.687584
H158	H	1.285494	0.582909	-0.354251
H159	H	1.618828	0.916242	-0.020917
H160	H	0.860934	0.245079	-0.607395
H161	H	1.194268	0.578412	-0.274062
H162	H	1.527601	0.911746	0.059272
H163	H	0.860950	0.311144	-0.693204
H164	H	1.194283	0.644478	-0.359871
H165	H	1.527616	0.977811	-0.026538
