data_functionalizedCrystal
_audit_creation_method	'MofGen! by Chris Wilmer'
_symmetry_space_group_name_H-M	'P1'
_symmetry_Int_Tables_number	1
_symmetry_cell_setting	triclinic
loop_
_symmetry_equiv_pos_as_xyz
  x,y,z
_cell_length_a	14.560438
_cell_length_b	14.628931
_cell_length_c	14.628931
_cell_angle_alpha	60.000000
_cell_angle_beta	90.001341
_cell_angle_gamma	60.000249
loop_
_atom_site_label
_atom_site_type_symbol
_atom_site_fract_x
_atom_site_fract_y
_atom_site_fract_z
Zr1	Zr	0.884770	1.000562	-0.119933
O2	O	0.738122	1.191270	-0.265899
O3	O	0.929725	0.809855	-0.075187
O4	O	0.929726	1.000560	-0.265892
O5	O	0.738121	1.000565	0.075238
O6	O	1.080867	1.000557	-0.265887
O7	O	0.738121	1.000564	-0.075193
O8	O	1.080866	0.659421	0.075250
O9	O	0.738122	1.341701	-0.265899
O10	O	1.061693	0.888293	-0.056099
O11	O	0.948898	0.888295	0.056162
O12	O	0.948899	1.112826	-0.168369
O13	O	0.836104	1.112828	-0.056107
Zr14	Zr	1.125822	1.000558	0.119996
Zr15	Zr	1.125822	1.000557	-0.119925
Zr16	Zr	0.884770	1.000562	0.119988
Zr17	Zr	0.884770	1.240483	-0.119933
Zr18	Zr	1.125822	0.760636	0.119996
O19	O	1.080867	1.191264	0.075249
O20	O	1.080867	1.191263	-0.265888
O21	O	0.738121	1.191270	0.075238
O22	O	1.272470	0.809850	0.265962
O23	O	1.272471	0.809849	-0.075175
O24	O	0.929725	0.809856	0.265950
O25	O	1.272471	1.000554	-0.075176
O26	O	1.080866	1.000559	0.265955
O27	O	0.929725	1.000562	0.265950
O28	O	1.272471	1.000555	0.075256
O29	O	0.929727	1.341698	-0.265893
O30	O	1.080866	0.659422	0.265956
O31	O	1.272470	0.659418	0.265962
O32	O	1.272470	0.659417	0.075256
O33	O	0.738122	1.341702	-0.075194
O34	O	0.929726	1.341698	-0.075187
O35	O	1.061693	0.888293	0.168432
O36	O	1.174488	0.888291	0.056170
O37	O	1.061694	1.112824	-0.056100
O38	O	0.948899	1.112827	0.056162
C39	C	1.005296	0.700454	0.000032
C40	C	1.005296	0.598601	0.000032
C41	C	0.703776	1.000565	0.000022
C42	C	0.601443	1.000567	0.000018
C43	C	1.061249	0.553191	-0.055657
C44	C	1.061251	0.447921	-0.055659
C45	C	0.553360	1.000569	-0.082854
C46	C	0.457214	1.000557	-0.082839
C47	C	0.457241	1.000546	0.082925
C48	C	0.553389	1.000549	0.082914
C49	C	0.601414	1.000587	-0.165749
C50	C	0.553330	1.000590	-0.248629
C51	C	0.457184	1.000578	-0.248614
C52	C	0.409122	1.000563	-0.165719
C53	C	1.306816	1.000554	0.000041
C54	C	1.409149	1.000552	0.000045
C55	C	1.005297	1.000559	-0.300073
C56	C	1.005297	1.000559	-0.401926
C57	C	1.005297	1.300665	0.000031
C58	C	1.005297	1.402518	0.000031
C59	C	0.949343	1.111942	-0.503029
C60	C	0.949342	1.111944	-0.608300
C61	C	1.005296	1.000561	0.300136
C62	C	1.005296	1.000561	0.401989
C63	C	1.306815	0.700449	0.000042
C64	C	1.409148	0.598594	0.000045
C65	C	1.005295	0.700455	0.300137
C66	C	1.005295	0.598603	0.401990
C67	C	1.306815	0.700450	0.300146
C68	C	1.409148	0.598595	0.402003
C69	C	0.703777	1.300670	-0.300084
C70	C	0.601444	1.402524	-0.401940
C71	C	0.703777	1.300671	0.000021
C72	C	0.601444	1.402525	0.000018
C73	C	1.005297	1.300664	-0.300074
C74	C	1.005297	1.402517	-0.401927
C75	C	1.398818	0.553185	-0.055646
C76	C	1.504583	0.447912	-0.055644
C77	C	1.061249	0.553193	0.503092
C78	C	1.061250	0.447923	0.608364
C79	C	1.510725	0.553184	0.391724
C80	C	1.616492	0.447912	0.496997
H81	H	1.109158	0.592241	-0.103330
H82	H	1.109155	0.408870	0.695095
C83	C	1.734213	0.395154	0.485338
N84	N	1.822885	0.355416	0.476558
C85	C	1.492866	0.395156	-0.120056
N86	N	1.484041	0.355417	-0.168574
C87	C	1.617880	0.455258	0.064465
N88	N	1.626705	0.495000	0.112978
C89	C	0.606210	1.000586	-0.339797
N90	N	0.646041	1.000578	-0.408465
H91	H	0.901432	1.207304	-0.695032
C92	C	1.070078	0.871724	-0.480844
N93	N	1.118896	0.774684	-0.392586
C94	C	0.707178	1.000596	-0.165771
N95	N	0.786840	1.000603	-0.165787
C96	C	0.404305	1.000560	-0.339771
N97	N	0.364478	1.000548	-0.408434
H98	H	0.957387	0.559550	0.393368
C99	C	1.488439	0.455259	0.609758
N100	N	1.399767	0.494999	0.618539
H101	H	1.496294	0.559539	0.047722
C102	C	1.281090	0.605940	-0.120056
N103	N	1.192417	0.645669	-0.168566
C104	C	0.940592	0.455250	0.480907
N105	N	0.891863	0.494968	0.392650
C106	C	0.303360	1.000546	-0.165706
N107	N	0.223698	1.000541	-0.165701
C108	C	1.125968	0.605951	0.514747
N109	N	1.174720	0.645685	0.523528
C110	C	1.522433	0.605942	0.274549
N111	N	1.531254	0.645675	0.186292
H112	H	1.109150	0.408875	-0.103342
H113	H	0.957385	0.441569	0.047706
H114	H	0.592540	1.000546	0.150397
H115	H	1.053203	0.905201	-0.393304
H116	H	0.957395	0.559542	0.047711
H117	H	0.901445	1.207300	-0.511651
C118	C	0.404380	1.000508	0.174113
N119	N	0.364568	1.000474	0.242800
H120	H	1.400487	0.559542	0.488739
