data_functionalizedCrystal
_audit_creation_method	'MofGen! by Chris Wilmer'
_symmetry_space_group_name_H-M	'P1'
_symmetry_Int_Tables_number	1
_symmetry_cell_setting	triclinic
loop_
_symmetry_equiv_pos_as_xyz
  x,y,z
_cell_length_a	21.295417
_cell_length_b	19.805407
_cell_length_c	19.805399
_cell_angle_alpha	89.978275
_cell_angle_beta	90.030843
_cell_angle_gamma	89.968266
loop_
_atom_site_label
_atom_site_type_symbol
_atom_site_fract_x
_atom_site_fract_y
_atom_site_fract_z
Zn1	Zn	-0.250603	-1.034716	0.382743
Zn2	Zn	0.249397	-0.534716	0.882743
Zn3	Zn	-0.355872	-1.034623	0.269548
Zn4	Zn	0.144128	-0.534623	0.769548
Zn5	Zn	-0.250623	-0.921531	0.269563
Zn6	Zn	0.249377	-0.421531	0.769563
Zn7	Zn	-0.355841	-0.921486	0.382691
Zn8	Zn	0.144159	-0.421486	0.882691
O9	O	-0.303235	-0.978089	0.326137
O10	O	0.196765	-0.478089	0.826137
O11	O	-0.264572	-1.129421	0.367743
O12	O	0.235428	-0.629421	0.867743
O13	O	-0.341932	-1.019601	0.174834
O14	O	0.158068	-0.519601	0.674834
O15	O	-0.162531	-0.936603	0.284605
O16	O	0.337469	-0.436603	0.784605
O17	O	-0.341913	-1.129352	0.284580
O18	O	0.158087	-0.629352	0.784580
O19	O	-0.162516	-1.019760	0.367758
O20	O	0.337484	-0.519760	0.867758
O21	O	-0.264606	-0.936513	0.174845
O22	O	0.235394	-0.436513	0.674845
O23	O	-0.264575	-0.826809	0.284555
O24	O	0.235425	-0.326809	0.784555
O25	O	-0.341859	-0.936527	0.477414
O26	O	0.158141	-0.436527	0.977414
O27	O	-0.341878	-0.826776	0.367669
O28	O	0.158122	-0.326776	0.867669
O29	O	-0.264542	-1.019717	0.477453
O30	O	0.235458	-0.519717	0.977453
O31	O	-0.443957	-1.019558	0.284529
O32	O	0.056043	-0.519558	0.784529
O33	O	-0.443934	-0.936437	0.367654
O34	O	0.056066	-0.436437	0.867654
C35	C	-0.303226	-0.802233	0.326108
C36	C	0.196774	-0.302233	0.826108
C37	C	-0.303238	-0.727001	0.326112
C38	C	0.196762	-0.227001	0.826112
C39	C	-0.263031	-0.265249	0.369516
C40	C	0.236969	0.234751	0.869516
C41	C	-0.263032	-0.335938	0.369513
C42	C	0.236968	0.164062	0.869513
C43	C	-0.303237	-0.371240	0.326144
C44	C	0.196763	0.128760	0.826144
C45	C	-0.343447	-0.335849	0.282781
C46	C	0.156553	0.164151	0.782781
C47	C	-0.343448	-0.265162	0.282789
C48	C	0.156552	0.234838	0.782789
C49	C	-0.343446	-0.620922	0.282752
C50	C	0.156554	-0.120922	0.782752
C51	C	-0.343440	-0.691615	0.282747
C52	C	0.156560	-0.191615	0.782747
C53	C	-0.263030	-0.691698	0.369476
C54	C	0.236970	-0.191698	0.869476
C55	C	-0.263031	-0.621011	0.369483
C56	C	0.236969	-0.121011	0.869483
C57	C	-0.303243	-0.585627	0.326123
C58	C	0.196757	-0.085627	0.826123
C59	C	-0.303241	-0.508979	0.326128
C60	C	0.196759	-0.008979	0.826128
C61	C	-0.303236	-0.447887	0.326136
C62	C	0.196764	0.052113	0.826136
C63	C	-0.466786	-0.978001	0.326099
C64	C	0.033214	-0.478001	0.826099
C65	C	-0.536754	-0.978025	0.326106
C66	C	-0.036754	-0.478025	0.826106
C67	C	-0.569612	-1.021344	0.282867
C68	C	-0.069612	-0.521344	0.782867
C69	C	-0.635355	-1.021376	0.282882
C70	C	-0.135355	-0.521376	0.782882
C71	C	-0.668237	-0.978076	0.326129
C72	C	-0.168237	-0.478076	0.826129
C73	C	-0.635371	-0.934753	0.369376
C74	C	-0.135371	-0.434753	0.869376
C75	C	-0.569630	-0.934728	0.369365
C76	C	-0.069630	-0.434728	0.869365
N77	N	-0.771504	-0.918865	0.331279
N78	N	-0.271504	-0.418865	0.831279
N79	N	-0.833955	-0.918892	0.331286
N80	N	-0.333955	-0.418892	0.831286
C81	C	-0.866312	-0.978152	0.326168
C82	C	-0.366312	-0.478152	0.826168
N83	N	-0.833857	-1.037386	0.321028
N84	N	-0.333857	-0.537386	0.821028
N85	N	-0.771400	-1.037358	0.321018
N86	N	-0.271400	-0.537358	0.821018
C87	C	-0.739522	-0.978099	0.326147
C88	C	-0.239522	-0.478099	0.826147
C89	C	-0.970455	-1.021509	0.282943
C90	C	-0.470455	-0.521509	0.782943
C91	C	-1.036198	-1.021542	0.282963
C92	C	-0.536198	-0.521542	0.782963
C93	C	-1.036214	-0.934914	0.369454
C94	C	-0.536214	-0.434914	0.869454
C95	C	-0.970471	-0.934887	0.369438
C96	C	-0.470471	-0.434887	0.869438
C97	C	-0.937596	-0.978184	0.326178
C98	C	-0.437596	-0.478184	0.826178
C99	C	-0.139044	-0.978197	0.326189
C100	C	0.360956	-0.478197	0.826189
C101	C	-0.069076	-0.978243	0.326211
C102	C	0.430924	-0.478243	0.826211
C103	C	-0.303195	-0.978127	0.502679
C104	C	0.196805	-0.478127	1.002679
C105	C	-0.303178	-0.978143	0.577911
C106	C	0.196822	-0.478143	1.077911
C107	C	-0.303241	-0.154632	0.326160
C108	C	0.196759	0.345368	0.826160
C109	C	-0.303236	-0.229864	0.326155
C110	C	0.196764	0.270136	0.826155
C111	C	-0.303229	-0.978090	0.150281
C112	C	0.196771	-0.478090	0.650281
C113	C	-0.303068	-0.978205	0.075049
C114	C	0.196932	-0.478205	0.575049
C115	C	-0.262917	-1.021461	0.613277
C116	C	0.237083	-0.521461	1.113277
C117	C	-0.262899	-1.021468	0.683965
C118	C	0.237101	-0.521468	1.183965
C119	C	-0.303145	-0.978160	0.719287
C120	C	0.196855	-0.478160	1.219287
C121	C	-0.343408	-0.934838	0.683917
C122	C	0.156592	-0.434838	1.183917
C123	C	-0.343423	-0.934828	0.613230
C124	C	0.156577	-0.434828	1.113230
C125	C	-0.343350	-0.934876	0.968990
C126	C	0.156650	-0.434876	1.468990
C127	C	-0.343333	-0.934891	1.039682
C128	C	0.156667	-0.434891	1.539682
C129	C	-0.262825	-1.021516	1.039726
C130	C	0.237175	-0.521516	1.539726
C131	C	-0.262840	-1.021506	0.969039
C132	C	0.237160	-0.521506	1.469039
C133	C	-0.303100	-0.978182	0.933675
C134	C	0.196900	-0.478182	1.433675
C135	C	-0.303119	-0.978174	0.857026
C136	C	0.196881	-0.478174	1.357026
C137	C	-0.303130	-0.978171	0.795934
C138	C	0.196870	-0.478171	1.295934
H139	H	-0.230295	-0.364746	0.404824
H140	H	0.269705	0.135254	0.904824
N141	N	-0.384505	-0.727687	0.238448
N142	N	0.115495	-0.227687	0.738448
N143	N	-0.362304	-0.767123	0.195357
N144	N	0.137696	-0.267123	0.695357
H145	H	-0.391303	-0.792600	0.164072
H146	H	0.108697	-0.292600	0.664072
H147	H	-0.230115	-1.056743	0.712756
H148	H	0.269885	-0.556743	1.212756
N149	N	-0.668966	-0.890532	0.413552
N150	N	-0.168966	-0.390532	0.913552
N151	N	-0.727663	-0.890559	0.413557
N152	N	-0.227663	-0.390559	0.913557
H153	H	-0.751390	-0.859329	0.444759
H154	H	-0.251390	-0.359329	0.944759
N155	N	-0.384511	-0.890598	0.720005
N156	N	0.115489	-0.390598	1.220005
N157	N	-0.384493	-0.890612	0.783118
N158	N	0.115507	-0.390612	1.283118
H159	H	-0.413523	-0.859367	0.808606
H160	H	0.086477	-0.359367	1.308606
H161	H	-0.376188	-0.236352	0.247481
H162	H	0.123812	0.263648	0.747481
H163	H	-0.662112	-1.056654	0.247672
H164	H	-0.162112	-0.556654	0.747672
N165	N	-0.536041	-1.065574	0.238676
N166	N	-0.036041	-0.565574	0.738676
N167	N	-0.565392	-1.104251	0.200073
N168	N	-0.065392	-0.604251	0.700073
H169	H	-0.541682	-1.135489	0.168863
H170	H	-0.041682	-0.635489	0.668863
H171	H	-0.230069	-1.056774	0.940283
H172	H	0.269931	-0.556774	1.440283
N173	N	-0.221683	-1.065765	1.075840
N174	N	0.278317	-0.565765	1.575840
N175	N	-0.185752	-1.104428	1.044293
N176	N	0.314248	-0.604428	1.544293
H177	H	-0.156696	-1.135679	1.069796
H178	H	0.343304	-0.635679	1.569796
N179	N	-0.221804	-1.065690	0.577189
N180	N	0.278196	-0.565690	1.077189
N181	N	-0.221819	-1.065676	0.514076
N182	N	0.278181	-0.565676	1.014076
H183	H	-0.192780	-1.096911	0.488589
H184	H	0.307220	-0.596911	0.988589
H185	H	-0.376201	-0.899547	0.584436
H186	H	0.123799	-0.399547	1.084436
N187	N	-0.384448	-0.890643	1.075754
N188	N	0.115552	-0.390643	1.575754
N189	N	-0.420389	-0.851962	1.044172
N190	N	0.079611	-0.351962	1.544172
H191	H	-0.449425	-0.820712	1.069647
H192	H	0.050575	-0.320712	1.569647
H193	H	-0.542877	-0.899451	0.404576
H194	H	-0.042877	-0.399451	0.904576
H195	H	-0.230290	-0.592272	0.404796
H196	H	0.269710	-0.092272	0.904796
N197	N	-0.384525	-0.584795	0.238461
N198	N	0.115475	-0.084795	0.738461
N199	N	-0.420418	-0.616325	0.199744
N200	N	0.079582	-0.116325	0.699744
H201	H	-0.449433	-0.590808	0.168460
H202	H	0.050567	-0.090808	0.668460
H203	H	-0.943717	-0.899609	0.404644
H204	H	-0.443717	-0.399609	0.904644
N205	N	-0.384477	-0.890619	0.932883
N206	N	0.115523	-0.390619	1.432883
N207	N	-0.420409	-0.851957	0.964431
N208	N	0.079591	-0.351957	1.464431
H209	H	-0.449458	-0.820698	0.938929
H210	H	0.050542	-0.320698	1.438929
H211	H	-0.376185	-0.364597	0.247473
H212	H	0.123815	0.135403	0.747473
N213	N	-0.221969	-0.229200	0.413830
N214	N	0.278031	0.270800	0.913830
N215	N	-0.226229	-0.237126	0.476275
N216	N	0.273771	0.262874	0.976275
H217	H	-0.197231	-0.211666	0.507577
H218	H	0.302769	0.288334	1.007577
N219	N	-0.221957	-0.727854	0.413765
N220	N	0.278043	-0.227854	0.913765
N221	N	-0.221959	-0.790967	0.413756
N222	N	0.278041	-0.290967	0.913756
H223	H	-0.192950	-0.816502	0.445031
H224	H	0.307050	-0.316502	0.945031
N225	N	-0.936878	-1.065738	0.238754
N226	N	-0.436878	-0.565738	0.738754
N227	N	-0.966227	-1.104419	0.200153
N228	N	-0.466227	-0.604419	0.700153
H229	H	-0.942516	-1.135656	0.168943
H230	H	-0.442516	-0.635656	0.668943
N231	N	-1.069754	-1.065807	0.238797
N232	N	-0.569754	-0.565807	0.738797
N233	N	-1.040390	-1.104462	0.200182
N234	N	-0.540390	-0.604462	0.700182
H235	H	-1.064089	-1.135726	0.168989
H236	H	-0.564089	-0.635726	0.668989
N237	N	-1.069804	-0.890691	0.413630
N238	N	-0.569804	-0.390691	0.913630
N239	N	-1.128501	-0.890721	0.413638
N240	N	-0.628501	-0.390721	0.913638
H241	H	-1.152227	-0.859489	0.444840
H242	H	-0.652227	-0.359489	0.944840
