data_functionalizedCrystal
_audit_creation_method	'MofGen! by Chris Wilmer'
_symmetry_space_group_name_H-M	'P1'
_symmetry_Int_Tables_number	1
_symmetry_cell_setting	triclinic
loop_
_symmetry_equiv_pos_as_xyz
  x,y,z
_cell_length_a	31.640172
_cell_length_b	31.640172
_cell_length_c	31.640172
_cell_angle_alpha	60.003368
_cell_angle_beta	90.002706
_cell_angle_gamma	59.994337
loop_
_atom_site_label
_atom_site_type_symbol
_atom_site_fract_x
_atom_site_fract_y
_atom_site_fract_z
Zr1	Zr	0.407156	0.462617	-0.055554
O2	O	0.339661	0.550793	-0.123045
O3	O	0.427849	0.374436	-0.034854
O4	O	0.427842	0.462601	-0.123034
O5	O	0.339670	0.462642	0.034680
O6	O	0.497398	0.462594	-0.123037
O7	O	0.339668	0.462628	-0.034866
O8	O	0.497411	0.304883	0.034701
O9	O	0.339658	0.620353	-0.123057
O10	O	0.488581	0.410703	-0.026041
O11	O	0.436674	0.410718	0.025863
O12	O	0.436665	0.514521	-0.077958
O13	O	0.384758	0.514537	-0.026054
Zr14	Zr	0.518094	0.462628	0.055359
Zr15	Zr	0.518090	0.462606	-0.055559
Zr16	Zr	0.407160	0.462639	0.055363
Zr17	Zr	0.407151	0.573557	-0.055573
Zr18	Zr	0.518099	0.351687	0.055378
O19	O	0.497401	0.550808	0.034658
O20	O	0.497395	0.550777	-0.123052
O21	O	0.339667	0.550825	0.034665
O22	O	0.585589	0.374451	0.122850
O23	O	0.585583	0.374420	-0.034861
O24	O	0.427855	0.374468	0.122856
O25	O	0.585580	0.462603	-0.034876
O26	O	0.497408	0.462643	0.122838
O27	O	0.427852	0.462650	0.122841
O28	O	0.585582	0.462617	0.034670
O29	O	0.427835	0.620344	-0.123061
O30	O	0.497415	0.304900	0.122865
O31	O	0.585592	0.304891	0.122862
O32	O	0.585589	0.304874	0.034697
O33	O	0.339661	0.620371	-0.034893
O34	O	0.427839	0.620362	-0.034896
O35	O	0.488585	0.410723	0.077762
O36	O	0.540492	0.410708	0.025858
O37	O	0.488576	0.514526	-0.026058
O38	O	0.436669	0.514542	0.025845
C39	C	0.462631	0.323853	-0.000074
C40	C	0.462633	0.276756	-0.000066
C41	C	0.424304	0.023078	-0.038426
C42	C	0.424300	-0.153903	-0.038440
O43	O	0.391721	-0.144200	-0.071042
N44	N	0.462622	-0.214352	-0.000121
C45	C	0.500949	-0.230555	0.038202
O46	O	0.533547	-0.286031	0.070791
C47	C	0.500955	-0.053574	0.038214
C48	C	0.462627	0.006875	-0.000105
C49	C	0.385980	0.083523	-0.076741
C50	C	0.385980	0.127766	-0.076735
C51	C	0.424303	0.111562	-0.038414
C52	C	0.462627	0.051117	-0.000099
C53	C	0.539284	-0.069778	0.076534
C54	C	0.539282	-0.025526	0.076533
C55	C	0.500955	0.034922	0.038215
C56	C	0.500950	0.079156	0.038227
N57	N	0.462629	0.139604	-0.000091
C58	C	0.424305	0.155807	-0.038412
C59	C	0.500943	-0.323470	0.038194
C60	C	0.500941	-0.367715	0.038191
C61	C	0.424292	-0.291060	-0.038451
C62	C	0.424292	-0.246814	-0.038446
C63	C	0.462621	-0.263021	-0.000125
C64	C	0.424307	0.248716	-0.038397
C65	C	0.424309	0.292959	-0.038387
C66	C	0.500959	0.216301	0.038254
C67	C	0.500956	0.172062	0.038245
C68	C	0.462628	0.188274	-0.000085
O69	O	0.533516	0.069497	0.070810
O70	O	0.391719	0.211286	-0.071003
C71	C	0.424304	-0.021164	-0.038431
C72	C	0.462628	-0.081610	-0.000116
C73	C	0.500951	-0.097813	0.038205
C74	C	0.462626	-0.125855	-0.000118
C75	C	0.424303	-0.109652	-0.038439
C76	C	0.385981	-0.049203	-0.076758
C77	C	0.385981	-0.004961	-0.076752
C78	C	0.539273	-0.158262	0.076524
C79	C	0.539270	-0.202501	0.076515
C80	C	0.500946	-0.186297	0.038194
C81	C	0.323863	0.462637	-0.000092
C82	C	0.276769	0.462641	-0.000090
C83	C	-0.015238	0.462604	-0.038410
C84	C	-0.192225	0.462596	-0.038414
O85	O	-0.215099	0.462563	-0.070985
N86	N	-0.214354	0.462605	-0.000101
C87	C	-0.192232	0.462612	0.038217
O88	O	-0.215112	0.462613	0.070808
C89	C	-0.015244	0.462615	0.038223
C90	C	0.006880	0.462612	-0.000096
C91	C	0.006886	0.462600	-0.076725
C92	C	0.051128	0.462606	-0.076725
C93	C	0.073247	0.462614	-0.038411
C94	C	0.051122	0.462618	-0.000096
C95	C	0.006880	0.462618	0.076543
C96	C	0.051130	0.462617	0.076542
C97	C	0.073254	0.462614	0.038223
C98	C	0.117483	0.462631	0.038218
N99	N	0.139612	0.462622	-0.000094
C100	C	0.117494	0.462614	-0.038409
C101	C	-0.285153	0.462611	0.038211
C102	C	-0.329401	0.462612	0.038209
C103	C	-0.329390	0.462595	-0.038422
C104	C	-0.285144	0.462599	-0.038421
C105	C	-0.263024	0.462603	-0.000102
C106	C	0.210406	0.462625	-0.038407
C107	C	0.254651	0.462633	-0.038405
C108	C	0.254638	0.462646	0.038227
C109	C	0.210395	0.462642	0.038224
C110	C	0.188281	0.462629	-0.000095
O111	O	0.140387	0.462658	0.070776
O112	O	0.140388	0.462599	-0.070988
C113	C	-0.059480	0.462599	-0.038410
C114	C	-0.081605	0.462602	-0.000095
C115	C	-0.059487	0.462611	0.038220
C116	C	-0.125852	0.462602	-0.000097
C117	C	-0.147970	0.462594	-0.038411
C118	C	-0.125841	0.462585	-0.076724
C119	C	-0.081599	0.462590	-0.076724
C120	C	-0.081616	0.462620	0.076532
C121	C	-0.125858	0.462615	0.076529
C122	C	-0.147977	0.462607	0.038215
C123	C	0.601387	0.462608	-0.000103
C124	C	0.648481	0.462603	-0.000105
C125	C	0.462620	0.462595	-0.138839
C126	C	0.462618	0.462585	-0.185926
C127	C	0.462619	0.601392	-0.000122
C128	C	0.462617	0.648489	-0.000130
C129	C	0.489736	0.408425	-0.495131
C130	C	0.489728	0.408407	-0.318132
O131	O	0.512790	0.362317	-0.272201
N132	N	0.462627	0.462598	-0.323099
C133	C	0.435529	0.516798	-0.372319
O134	O	0.412482	0.562890	-0.372482
C135	C	0.435540	0.516815	-0.549317
C136	C	0.462638	0.462620	-0.544347
C137	C	0.516832	0.354235	-0.490163
C138	C	0.516832	0.354240	-0.534411
C139	C	0.489734	0.408435	-0.583626
C140	C	0.462638	0.462625	-0.588594
C141	C	0.408445	0.571014	-0.598537
C142	C	0.408452	0.571013	-0.642787
C143	C	0.435550	0.516819	-0.637817
C144	C	0.435540	0.516826	-0.682057
N145	N	0.462641	0.462635	-0.677091
C146	C	0.489738	0.408440	-0.627876
C147	C	0.435524	0.516785	-0.279391
C148	C	0.435521	0.516780	-0.235142
C149	C	0.489720	0.408390	-0.180957
C150	C	0.489721	0.408395	-0.225208
C151	C	0.462625	0.462594	-0.274424
C152	C	0.489734	0.408454	-0.720800
C153	C	0.489729	0.408464	-0.765054
C154	C	0.435532	0.516854	-0.819234
C155	C	0.435535	0.516845	-0.774985
C156	C	0.462639	0.462640	-0.725766
O157	O	0.412494	0.562891	-0.728004
O158	O	0.512791	0.362354	-0.627724
C159	C	0.489736	0.408420	-0.450884
C160	C	0.462640	0.462610	-0.455852
C161	C	0.435542	0.516805	-0.505068
C162	C	0.462636	0.462606	-0.411603
C163	C	0.489733	0.408411	-0.362387
C164	C	0.516834	0.354220	-0.357421
C165	C	0.516833	0.354225	-0.401668
C166	C	0.408442	0.570996	-0.510034
C167	C	0.408444	0.570987	-0.465784
C168	C	0.435541	0.516792	-0.416569
C169	C	0.462630	0.462650	0.138643
C170	C	0.462632	0.462659	0.185730
C171	C	0.601392	0.323839	-0.000080
C172	C	0.648489	0.276737	-0.000073
C173	C	0.462636	0.323881	0.138667
C174	C	0.462640	0.276793	0.185762
C175	C	0.601398	0.323866	0.138661
C176	C	0.648496	0.276774	0.185755
C177	C	0.323852	0.601378	-0.138857
C178	C	0.276754	0.648471	-0.185950
C179	C	0.323858	0.601406	-0.000116
C180	C	0.276761	0.648508	-0.000122
C181	C	0.462614	0.601364	-0.138862
C182	C	0.462610	0.648452	-0.185958
C183	C	0.643509	0.254615	-0.027166
C184	C	0.687757	0.210363	-0.027171
C185	C	0.736984	0.188232	-0.000079
C186	C	0.741963	0.210359	0.027014
C187	C	0.697716	0.254612	0.027015
C188	C	0.489739	0.254683	0.234974
C189	C	0.489740	0.210445	0.279229
C190	C	0.462646	0.188315	0.274272
C191	C	0.435544	0.210430	0.225055
C192	C	0.435539	0.254670	0.180800
C193	C	0.697714	0.254650	0.180777
C194	C	0.741972	0.210408	0.225022
C195	C	0.737011	0.188287	0.274244
C196	C	0.687789	0.210415	0.279221
C197	C	0.643532	0.254659	0.234976
C198	C	0.227536	0.670599	-0.180973
C199	C	0.183278	0.714855	-0.225218
C200	C	0.188239	0.736979	-0.274440
C201	C	0.237461	0.714848	-0.279416
C202	C	0.281718	0.670596	-0.235172
C203	C	0.281741	0.670635	0.026966
C204	C	0.237493	0.714898	0.026958
C205	C	0.188266	0.737031	-0.000135
C206	C	0.183287	0.714902	-0.027226
C207	C	0.227534	0.670642	-0.027221
C208	C	0.489710	0.670567	-0.180984
C209	C	0.489716	0.714805	-0.225230
C210	C	0.462620	0.736930	-0.274451
C211	C	0.435519	0.714810	-0.279424
C212	C	0.435516	0.670570	-0.235178
H213	H	0.393095	0.342180	-0.069590
O214	O	-0.261302	0.462620	0.079543
H215	H	-0.220880	0.422097	0.101647
H216	H	0.773009	0.152198	-0.000084
H217	H	0.223472	0.652628	-0.049278
O218	O	0.518983	0.186588	0.332310
H219	H	0.537831	0.209401	0.328318
O220	O	0.130194	0.738713	-0.219841
H221	H	0.100248	0.773208	-0.258873
O222	O	0.379220	0.629468	-0.603907
H223	H	0.349262	0.632076	-0.585058
H224	H	0.241494	0.732867	-0.319498
H225	H	0.152198	0.773012	-0.310463
O226	O	0.242870	0.738750	0.056188
H227	H	0.264368	0.758891	0.040538
O228	O	0.334834	0.646769	0.056187
H229	H	0.356288	0.655249	0.028831
H230	H	0.321792	0.652579	-0.239231
H231	H	-0.143858	0.462581	-0.107923
H232	H	0.782050	0.192333	0.049071
H233	H	0.152241	0.773070	-0.000135
H234	H	-0.143871	0.462622	0.107732
O235	O	0.344645	-0.031729	-0.118091
H236	H	0.346526	-0.004859	-0.156723
H237	H	0.511803	0.272696	0.239021
O238	O	0.590447	0.278515	0.240347
H239	H	0.568993	0.270017	0.221489
H240	H	0.603429	0.272633	-0.049233
O241	O	0.222180	0.646746	-0.127886
H242	H	0.180517	0.669579	-0.131867
H243	H	0.413484	0.192405	0.221026
H244	H	0.511775	0.652560	-0.140910
O245	O	0.518945	0.738660	-0.219861
H246	H	0.537778	0.715848	-0.178201
H247	H	0.143200	0.732929	-0.049284
H248	H	0.462626	0.772953	-0.310475
H249	H	0.413474	0.272666	0.140731
H250	H	-0.267133	0.462596	-0.069623
H251	H	0.683757	0.192397	0.319303
H252	H	-0.347416	0.462623	0.069407
H253	H	0.462654	0.152292	0.310311
H254	H	0.393098	0.261925	-0.069610
O255	O	0.406288	0.738681	-0.332514
H256	H	0.410841	0.773165	-0.362441
H257	H	0.413446	0.652568	-0.239235
H258	H	0.354774	0.176983	-0.107942
H259	H	0.354772	0.096727	-0.107949
H260	H	0.393080	-0.197597	-0.069646
O261	O	-0.016967	0.462602	0.117881
H262	H	0.005860	0.462595	0.144527
H263	H	0.683693	0.192353	-0.049233
H264	H	0.701762	0.272655	0.140702
O265	O	0.580631	-0.134967	0.117863
H266	H	0.562219	-0.156970	0.139967
H267	H	0.393088	-0.277873	-0.069654
H268	H	0.570480	-0.251721	0.107723
H269	H	0.354770	0.044256	-0.107954
H270	H	0.532146	-0.416932	0.069398
O271	O	0.795058	0.186540	0.219650
H272	H	0.791068	0.209349	0.177989
O273	O	0.703091	0.278460	0.056249
H274	H	0.724582	0.298609	0.040595
O275	O	0.542282	-0.340954	0.079531
H276	H	0.568922	-0.390421	0.106176
H277	H	0.272662	0.462632	-0.069610
O278	O	0.580607	-0.175742	0.117860
H279	H	0.607249	-0.225209	0.144503
O280	O	-0.057762	0.462629	0.117859
H281	H	-0.080588	0.462637	0.144496
O282	O	0.074988	0.462623	0.117872
H283	H	0.052165	0.462629	0.144512
O284	O	0.580621	-0.043006	0.117868
H285	H	0.607266	-0.092473	0.144511
O286	O	0.784747	0.140559	0.321964
H287	H	0.819803	0.128890	0.310229
H288	H	0.532160	0.122840	0.069452
O289	O	0.186553	0.462620	-0.079740
H290	H	0.209373	0.462625	-0.106383
O291	O	0.542294	0.198827	0.079585
H292	H	0.580929	0.171954	0.077699
O293	O	0.074990	0.462599	-0.118053
H294	H	0.086766	0.422071	-0.116156
O295	O	-0.016971	0.462599	-0.118057
H296	H	0.005851	0.462602	-0.144698
H297	H	-0.347407	0.462589	-0.069620
O298	O	0.546068	0.295758	-0.304338
H299	H	0.587713	0.269775	-0.299846
O300	O	0.186527	0.462647	0.079550
H301	H	0.209344	0.462651	0.106194
H302	H	0.272652	0.462656	0.069421
O303	O	-0.057736	0.462583	-0.118051
H304	H	-0.080553	0.462571	-0.144688
H305	H	0.511796	0.364331	-0.761001
H306	H	0.511806	0.364316	-0.680730
O307	O	0.546064	0.295785	-0.529043
H308	H	0.541515	0.304883	-0.568077
O309	O	0.406286	0.575235	-0.240508
H310	H	0.376331	0.577835	-0.221657
H311	H	0.511786	0.364265	-0.221156
O312	O	0.546060	0.295782	-0.437078
H313	H	0.530398	0.269803	-0.432586
O314	O	0.518967	0.349934	-0.127870
H315	H	0.514419	0.359041	-0.097940
H316	H	0.413458	0.560922	-0.319464
O317	O	0.379224	0.629472	-0.695872
H318	H	0.360379	0.667151	-0.691889
O319	O	0.406307	0.575295	-0.780340
H320	H	0.387467	0.612980	-0.821998
O321	O	0.406315	0.575307	-0.872320
H322	H	0.410878	0.566200	-0.902251
H323	H	0.538900	0.310094	-0.397615
H324	H	0.386372	0.615122	-0.469840
O325	O	0.379211	0.629452	-0.563116
H326	H	0.360365	0.667129	-0.559129
