data_functionalizedCrystal
_audit_creation_method	'MofGen! by Chris Wilmer'
_symmetry_space_group_name_H-M	'P1'
_symmetry_Int_Tables_number	1
_symmetry_cell_setting	triclinic
loop_
_symmetry_equiv_pos_as_xyz
  x,y,z
_cell_length_a	8.497366
_cell_length_b	11.169417
_cell_length_c	11.169416
_cell_angle_alpha	89.988411
_cell_angle_beta	90.046879
_cell_angle_gamma	89.969226
loop_
_atom_site_label
_atom_site_type_symbol
_atom_site_fract_x
_atom_site_fract_y
_atom_site_fract_z
Zn1	Zn	-0.891917	1.835096	0.477480
Zn2	Zn	-0.391917	2.335096	0.977480
Zn3	Zn	-0.628135	1.834946	0.678277
Zn4	Zn	-0.128135	2.334946	1.178277
Zn5	Zn	-0.628153	1.634342	0.477611
Zn6	Zn	-0.128153	2.134342	0.977611
Zn7	Zn	-0.891875	1.634389	0.678125
Zn8	Zn	-0.391875	2.134389	1.178125
O9	O	-0.760020	1.734693	0.577873
O10	O	-0.260020	2.234693	1.077873
O11	O	-0.856936	2.003025	0.504126
O12	O	-0.356936	2.503025	1.004126
O13	O	-0.407375	1.808253	0.651777
O14	O	0.092625	2.308253	1.151777
O15	O	-0.663167	1.661016	0.309644
O16	O	-0.163167	2.161016	0.809644
O17	O	-0.663137	2.002915	0.651650
O18	O	-0.163137	2.502915	1.151650
O19	O	-0.856953	1.808508	0.309548
O20	O	-0.356953	2.308508	0.809548
O21	O	-0.407388	1.660870	0.504348
O22	O	0.092612	2.160870	1.004348
O23	O	-0.663126	1.466399	0.504200
O24	O	-0.163126	1.966399	1.004200
O25	O	-1.112644	1.661096	0.651390
O26	O	-0.612644	2.161096	1.151390
O27	O	-0.856882	1.466433	0.651517
O28	O	-0.356882	1.966433	1.151517
O29	O	-1.112674	1.808554	0.503978
O30	O	-0.612674	2.308554	1.003978
O31	O	-0.663096	1.808298	0.846206
O32	O	-0.163096	2.308298	1.346206
O33	O	-0.856865	1.660950	0.846094
O34	O	-0.356865	2.160950	1.346094
C35	C	-0.760002	1.422868	0.577857
C36	C	-0.260002	1.922868	1.077857
C37	C	-0.760032	1.289468	0.577879
C38	C	-0.260032	1.789468	1.077879
C39	C	-0.760008	1.734646	0.889698
C40	C	-0.260008	2.234646	1.389698
C41	C	-0.760056	1.734735	1.023098
C42	C	-0.260056	2.234735	1.523098
C43	C	-0.171501	1.734763	0.577764
C44	C	0.328499	2.234763	1.077764
C45	C	-0.350144	1.734604	0.578015
C46	C	0.149856	2.234604	1.078015
C47	C	-0.760039	2.047735	0.577890
C48	C	-0.260039	2.547735	1.077890
C49	C	-0.760047	2.181135	0.577898
C50	C	-0.260047	2.681135	1.077898
C51	C	-0.760067	1.734774	0.264831
C52	C	-0.260067	2.234774	0.764831
C53	C	-0.760087	1.734808	0.131431
C54	C	-0.260087	2.234808	0.631431
