data_functionalizedCrystal
_audit_creation_method	'MofGen! by Chris Wilmer'
_symmetry_space_group_name_H-M	'P1'
_symmetry_Int_Tables_number	1
_symmetry_cell_setting	triclinic
loop_
_symmetry_equiv_pos_as_xyz
  x,y,z
_cell_length_a	21.395364
_cell_length_b	29.839126
_cell_length_c	21.395361
_cell_angle_alpha	90.025490
_cell_angle_beta	89.973528
_cell_angle_gamma	89.980118
loop_
_atom_site_label
_atom_site_type_symbol
_atom_site_fract_x
_atom_site_fract_y
_atom_site_fract_z
Zn1	Zn	0.957830	-0.254004	0.249557
Zn2	Zn	0.957741	-0.178872	0.354324
Zn3	Zn	0.853054	-0.178886	0.249557
Zn4	Zn	0.853015	-0.253973	0.354293
O5	O	0.905410	-0.216434	0.301933
O6	O	1.045496	-0.244044	0.263468
O7	O	0.943833	-0.116007	0.340440
O8	O	0.867006	-0.188870	0.161879
O9	O	1.045431	-0.188845	0.340440
O10	O	0.943985	-0.244058	0.161879
O11	O	0.866920	-0.116017	0.263467
O12	O	0.765371	-0.188840	0.263437
O13	O	0.866939	-0.316845	0.340387
O14	O	0.765342	-0.244006	0.340387
O15	O	0.943947	-0.316867	0.263438
O16	O	0.943795	-0.188816	0.441998
O17	O	0.866853	-0.243992	0.441975
C18	C	0.742622	-0.216421	0.301909
C19	C	0.672981	-0.216427	0.301914
C20	C	0.171218	-0.245229	0.261948
C21	C	0.236654	-0.245229	0.261944
C22	C	0.269343	-0.216444	0.301952
C23	C	0.236591	-0.187665	0.341980
C24	C	0.171157	-0.187669	0.341988
C25	C	0.372984	-0.175956	0.306808
C26	C	0.438417	-0.175951	0.306795
C27	C	0.471164	-0.216432	0.301931
C28	C	0.438469	-0.256919	0.297066
C29	C	0.373035	-0.256923	0.297074
C30	C	0.340295	-0.216437	0.301948
C31	C	0.574860	-0.245211	0.261904
C32	C	0.640297	-0.245212	0.261904
C33	C	0.640233	-0.187643	0.341937
C34	C	0.574797	-0.187647	0.341940
C35	C	0.542115	-0.216430	0.301921
C36	C	0.905449	-0.333612	0.301909
C37	C	0.905465	-0.383547	0.301899
C38	C	0.865429	-0.693199	0.261757
C39	C	0.865447	-0.880872	0.261713
O40	O	0.831375	-0.905144	0.227645
N41	N	0.905495	-0.904332	0.301781
C42	C	0.945539	-0.880871	0.341866
O43	O	0.979598	-0.905132	0.375950
C44	C	0.945517	-0.693199	0.341912
C45	C	0.905471	-0.669741	0.301837
C46	C	0.825385	-0.669741	0.221685
C47	C	0.825384	-0.622825	0.221694
C48	C	0.865426	-0.599368	0.261774
C49	C	0.905469	-0.622826	0.301846
C50	C	0.985558	-0.669739	0.381999
C51	C	0.985548	-0.622818	0.382009
C52	C	0.945501	-0.599360	0.341933
C53	C	0.945510	-0.552453	0.341935
N54	N	0.905462	-0.528992	0.301867
C55	C	0.865420	-0.552450	0.261787
C56	C	0.945548	-0.979402	0.341838
C57	C	0.945554	-1.026320	0.341826
C58	C	0.865461	-1.026317	0.261674
C59	C	0.865459	-0.979398	0.261683
C60	C	0.905500	-0.955942	0.301770
C61	C	0.865420	-0.453924	0.261808
C62	C	0.865423	-0.407004	0.261818
C63	C	0.945514	-0.407011	0.341973
C64	C	0.945513	-0.453927	0.341960
C65	C	0.905460	-0.477382	0.301876
O66	O	0.979559	-0.528152	0.375990
O67	O	0.831355	-0.528181	0.227718
C68	C	0.865431	-0.740114	0.261748
C69	C	0.905474	-0.763572	0.301819
C70	C	0.945516	-0.740114	0.341899
C71	C	0.905481	-0.810490	0.301807
C72	C	0.865438	-0.833947	0.261727
C73	C	0.825390	-0.810487	0.221659
C74	C	0.825389	-0.763572	0.221668
C75	C	0.985565	-0.763575	0.381967
C76	C	0.985563	-0.810490	0.381955
C77	C	0.945521	-0.833948	0.341875
C78	C	1.068833	-0.216447	0.301958
C79	C	1.138474	-0.216452	0.301968
C80	C	0.905327	-0.216409	0.464721
C81	C	0.905349	-0.216413	0.534362
C82	C	0.905407	-0.099711	0.301912
C83	C	0.905512	-0.049777	0.301745
C84	C	0.905510	-0.216469	0.138510
C85	C	0.905553	-0.216484	0.068868
C86	C	0.945449	-0.187712	0.567066
C87	C	0.945478	-0.187722	0.632502
C88	C	0.905396	-0.216429	0.665230
C89	C	0.865294	-0.245135	0.632518
C90	C	0.865271	-0.245128	0.567084
C91	C	0.848981	-0.219949	0.768941
C92	C	0.849004	-0.219954	0.834374
C93	C	0.905469	-0.216455	0.867051
C94	C	0.961914	-0.212942	0.834287
C95	C	0.961891	-0.212935	0.768853
C96	C	0.905418	-0.216440	0.736183
C97	C	0.945604	-0.187763	0.970708
C98	C	0.945634	-0.187777	1.036144
C99	C	0.865445	-0.245187	1.036160
C100	C	0.865420	-0.245176	0.970724
C101	C	0.905499	-0.216462	0.938002
H102	H	0.346327	-0.142989	0.310771
H103	H	1.018159	-0.603722	0.414649
Cl104	Cl	1.032846	-0.208523	0.727666
Cl105	Cl	0.815003	-0.281258	0.929608
H106	H	0.144612	-0.268669	0.229364
H107	H	0.978134	-0.164351	0.659134
H108	H	0.263319	-0.268662	0.229352
H109	H	0.832806	-0.473016	0.229167
H110	H	1.007894	-0.210093	0.860891
Cl111	Cl	0.814855	-0.281211	0.525968
Cl112	Cl	0.479511	-0.125053	0.312899
H113	H	0.802997	-0.222800	0.742342
H114	H	1.018180	-0.829586	0.414588
Cl115	Cl	0.681321	-0.151460	0.392239
Cl116	Cl	0.995842	-0.151621	0.525933
H117	H	0.346418	-0.289889	0.293114
Cl118	Cl	1.035900	-0.699217	0.432388
H119	H	0.832812	-0.268562	1.062807
H120	H	0.263211	-0.164229	0.374557
Cl121	Cl	0.814909	-0.281225	0.673662
Cl122	Cl	0.775054	-0.839985	0.171271
H123	H	0.465130	-0.289882	0.293102
Cl124	Cl	0.533771	-0.281396	0.211597
H125	H	0.803043	-0.222810	0.861045
Cl126	Cl	0.815076	-0.377517	0.211433
Cl127	Cl	0.533631	-0.151461	0.392244
Cl128	Cl	0.681461	-0.281396	0.211594
H129	H	0.792775	-0.688835	0.189047
Cl130	Cl	0.815122	-1.055815	0.211288
H131	H	1.018170	-0.744480	0.414609
H132	H	0.978155	-0.960308	0.374485
H133	H	0.978117	-0.387904	0.374603
H134	H	0.144497	-0.164235	0.374578
Cl135	Cl	0.775041	-0.734089	0.171285
Cl136	Cl	0.996054	-0.151695	1.077259
Cl137	Cl	0.815111	-0.949913	0.211303
Cl138	Cl	0.995909	-1.055804	0.392200
Cl139	Cl	0.775033	-0.593342	0.171315
Cl140	Cl	0.995868	-0.483417	0.392330
Cl141	Cl	0.995987	-0.151666	0.929568
