data_functionalizedCrystal
_audit_creation_method	'MofGen! by Chris Wilmer'
_symmetry_space_group_name_H-M	'P1'
_symmetry_Int_Tables_number	1
_symmetry_cell_setting	triclinic
loop_
_symmetry_equiv_pos_as_xyz
  x,y,z
_cell_length_a	12.827893
_cell_length_b	16.120484
_cell_length_c	12.827885
_cell_angle_alpha	87.136072
_cell_angle_beta	90.019272
_cell_angle_gamma	92.925431
loop_
_atom_site_label
_atom_site_type_symbol
_atom_site_fract_x
_atom_site_fract_y
_atom_site_fract_z
Zn1	Zn	1.576504	-0.331866	0.611895
Zn2	Zn	2.076504	0.168134	1.111895
Zn3	Zn	1.567505	-0.471301	0.445998
Zn4	Zn	2.067505	0.028699	0.945998
Zn5	Zn	1.401742	-0.331907	0.437171
Zn6	Zn	1.901742	0.168093	0.937171
Zn7	Zn	1.392841	-0.471239	0.620694
Zn8	Zn	1.892841	0.028761	1.120694
O9	O	1.484648	-0.401579	0.528940
O10	O	1.984648	0.098421	1.028940
O11	O	1.721545	-0.350372	0.589900
O12	O	2.221545	0.149628	1.089900
O13	O	1.545475	-0.452853	0.298594
O14	O	2.045475	0.047147	0.798594
O15	O	1.432416	-0.215236	0.452972
O16	O	1.932416	0.284764	0.952972
O17	O	1.714934	-0.452814	0.468017
O18	O	2.214934	0.047186	0.968017
O19	O	1.560812	-0.215206	0.581341
O20	O	2.060812	0.284794	1.081341
O21	O	1.423690	-0.350441	0.292109
O22	O	1.923690	0.149559	0.792109
O23	O	1.254326	-0.350381	0.461505
O24	O	1.754326	0.149619	0.961505
O25	O	1.417245	-0.452708	0.765761
O26	O	1.917245	0.047292	1.265761
O27	O	1.247787	-0.452748	0.596338
O28	O	1.747787	0.047252	1.096338
O29	O	1.552181	-0.350311	0.759296
O30	O	2.052181	0.149689	1.259296
O31	O	1.536844	-0.587959	0.476549
O32	O	2.036844	-0.087959	0.976549
O33	O	1.408520	-0.587913	0.604897
O34	O	1.908520	-0.087913	1.104897
C35	C	1.213139	-0.401562	0.528919
C36	C	1.713139	0.098438	1.028919
C37	C	1.096985	-0.401576	0.528936
C38	C	1.596985	0.098424	1.028936
C39	C	1.041987	-0.452309	0.595563
C40	C	1.541987	0.047691	1.095563
C41	C	0.921936	-0.452324	0.595582
C42	C	1.421936	0.047676	1.095582
C43	C	1.470768	-0.618186	0.542658
C44	C	1.970768	-0.118186	1.042658
C45	C	1.464925	-0.710851	0.548562
C46	C	1.964925	-0.210851	1.048562
C47	C	1.454265	-0.880512	0.559362
C48	C	1.954265	-0.380512	1.059362
C49	C	1.515219	-0.921804	0.498534
C50	C	2.015219	-0.421804	0.998534
C51	C	1.509287	-1.016209	0.504544
C52	C	2.009287	-0.516209	1.004544
C53	C	1.460195	-0.786099	0.553355
C54	C	1.960195	-0.286099	1.053355
C55	C	1.757217	-0.401595	0.528962
C56	C	2.257217	0.098405	1.028962
C57	C	1.873370	-0.401602	0.528971
C58	C	2.373370	0.098398	1.028971
C59	C	1.484724	-0.401498	0.801505
C60	C	1.984724	0.098502	1.301505
C61	C	1.484757	-0.401464	0.917656
C62	C	1.984757	0.098536	1.417656
C63	C	1.498611	-0.184125	0.515191
C64	C	1.998611	0.315875	1.015191
C65	C	1.504561	-0.091460	0.509332
C66	C	2.004561	0.408540	1.009332
C67	C	1.484636	-0.401598	0.257431
C68	C	1.984636	0.098402	0.757431
C69	C	1.484821	-0.401397	0.141266
C70	C	1.984821	0.098603	0.641266
C71	C	1.551535	-0.350785	0.966241
C72	C	2.051535	0.149215	1.466241
C73	C	1.551570	-0.350749	1.086289
C74	C	2.051570	0.149251	1.586289
H75	H	1.571857	-0.886255	0.441944
H76	H	2.071857	-0.386255	0.941944
H77	H	1.397630	-0.916059	0.615947
H78	H	1.897630	-0.416059	1.115947
O79	O	0.865575	-0.504262	0.663536
O80	O	1.365575	-0.004262	1.163536
C81	C	0.886868	-0.587348	0.645833
C82	C	1.386868	-0.087348	1.145833
H83	H	0.916632	-0.591501	0.562626
H84	H	1.416632	-0.091501	1.062626
H85	H	0.812415	-0.628502	0.657309
H86	H	1.312415	-0.128502	1.157309
H87	H	0.948772	-0.609228	0.703249
H88	H	1.448772	-0.109228	1.203249
H89	H	1.608676	-0.307421	0.918962
H90	H	2.108676	0.192579	1.418962
O91	O	1.619676	-0.299008	1.136303
O92	O	2.119676	0.200992	1.636303
C93	C	1.604560	-0.310499	1.245031
C94	C	2.104560	0.189501	1.745031
H95	H	1.522152	-0.337809	1.261555
H96	H	2.022152	0.162191	1.761555
H97	H	1.615625	-0.248069	1.282638
H98	H	2.115625	0.251931	1.782638
H99	H	1.663677	-0.354910	1.278820
H100	H	2.163677	0.145090	1.778820
O101	O	1.416576	-0.453248	1.091588
O102	O	1.916576	0.046752	1.591588
C103	C	1.354505	-0.500320	1.166022
C104	C	1.854505	-0.000320	1.666022
H105	H	1.397068	-0.503235	1.244043
H106	H	1.897068	-0.003235	1.744043
H107	H	1.339171	-0.565995	1.138561
H108	H	1.839171	-0.065995	1.638561
H109	H	1.277087	-0.469796	1.175648
H110	H	1.777087	0.030204	1.675648
H111	H	1.427605	-0.444820	0.964935
H112	H	1.927605	0.055180	1.464935
H113	H	1.055194	-0.358148	0.471913
H114	H	1.555194	0.141852	0.971913
O115	O	1.091794	-0.504027	0.663745
O116	O	1.591794	-0.004027	1.163745
C117	C	1.066386	-0.485941	0.766817
C118	C	1.566386	0.014059	1.266817
H119	H	1.040568	-0.419371	0.768044
H120	H	1.540568	0.080629	1.268044
H121	H	1.137780	-0.493108	0.818808
H122	H	1.637780	0.006892	1.318808
H123	H	1.000266	-0.530720	0.796944
H124	H	1.500266	-0.030720	1.296944
O125	O	0.929873	-0.349896	0.460869
O126	O	1.429873	0.150104	0.960869
C127	C	0.989921	-0.397338	0.396311
C128	C	1.489921	0.102662	0.896311
H129	H	1.002140	-0.460563	0.437054
H130	H	1.502140	0.039437	0.937054
H131	H	1.068880	-0.363415	0.380284
H132	H	1.568880	0.136585	0.880284
H133	H	0.947303	-0.406399	0.319392
H134	H	1.447303	0.093601	0.819392
