data_functionalizedCrystal
_audit_creation_method	'MofGen! by Chris Wilmer'
_symmetry_space_group_name_H-M	'P1'
_symmetry_Int_Tables_number	1
_symmetry_cell_setting	triclinic
loop_
_symmetry_equiv_pos_as_xyz
  x,y,z
_cell_length_a	10.967874
_cell_length_b	11.026607
_cell_length_c	9.730223
_cell_angle_alpha	89.999947
_cell_angle_beta	77.871080
_cell_angle_gamma	96.380181
loop_
_atom_site_label
_atom_site_type_symbol
_atom_site_fract_x
_atom_site_fract_y
_atom_site_fract_z
O1	O	1.693981	0.170503	-0.515478
O2	O	1.334353	0.186827	-0.430308
O3	O	1.484361	0.001764	-0.465829
O4	O	1.543973	0.355566	-0.479957
O5	O	1.484360	0.001769	-0.237249
O6	O	1.334351	0.186832	-0.201728
O7	O	1.693980	0.170507	-0.286897
Zn8	Zn	1.514165	0.178670	-0.208021
Zn9	Zn	1.514167	0.178664	-0.509185
O10	O	1.543971	0.355571	-0.251376
C11	C	1.287596	0.185642	-0.304945
C12	C	1.148275	0.182090	-0.271950
C13	C	1.086162	0.180503	-0.375651
C14	C	0.942167	0.176831	-0.341552
C15	C	1.473363	-0.043536	-0.348936
C16	C	1.440580	-0.178523	-0.341177
C17	C	1.531100	-0.251575	-0.362617
C18	C	1.497219	-0.391092	-0.354598
C19	C	1.740736	0.171692	-0.412264
C20	C	1.880057	0.175245	-0.445268
C21	C	1.554969	0.400871	-0.368272
C22	C	1.587752	0.535857	-0.376040
N23	N	1.514173	0.178674	-0.002486
N24	N	1.514167	0.178651	-0.714721
C25	C	1.580625	0.096756	0.053705
C26	C	1.580619	0.096741	0.197589
C27	C	1.447707	0.260573	0.229080
C28	C	1.447707	0.260581	0.085200
C29	C	1.657365	0.002172	0.035524
C30	C	1.657358	0.002157	0.179408
H31	H	1.633680	-0.210831	-0.386902
H32	H	1.139590	0.181870	-0.489678
H33	H	1.754351	0.031769	-0.032072
C34	C	1.792960	0.030299	0.200076
C35	C	1.850828	-0.062960	0.277360
C36	C	1.986420	-0.034808	0.298036
C37	C	2.064145	0.086602	0.241428
C38	C	2.006278	0.179869	0.164139
C39	C	1.870686	0.151718	0.143463
H40	H	1.793290	-0.152842	0.319269
H41	H	2.029256	-0.103851	0.355251
H42	H	2.164518	0.107442	0.256733
H43	H	2.063815	0.269752	0.122229
H44	H	1.827850	0.220761	0.086248
C45	C	1.358628	-0.446115	-0.321778
C46	C	1.307126	-0.529640	-0.190889
C47	C	1.168539	-0.584665	-0.158071
C48	C	1.081453	-0.556164	-0.256141
C49	C	1.132953	-0.472634	-0.387039
C50	C	1.271541	-0.417610	-0.419857
H51	H	1.371594	-0.550742	-0.118284
H52	H	1.130415	-0.646499	-0.061171
H53	H	0.978862	-0.596897	-0.231847
H54	H	1.068485	-0.451532	-0.459644
H55	H	1.309664	-0.355775	-0.516757
C56	C	1.726345	-0.409125	-0.408860
C57	C	1.777848	-0.325609	-0.302359
C58	C	1.916439	-0.270593	-0.335179
C59	C	2.003526	-0.299093	-0.474499
C60	C	1.952025	-0.382613	-0.581010
C61	C	1.813434	-0.437629	-0.548190
H62	H	1.713380	-0.304508	-0.199218
H63	H	1.954563	-0.208766	-0.256332
H64	H	2.106119	-0.258367	-0.498794
H65	H	2.016493	-0.403714	-0.684151
H66	H	1.775310	-0.499456	-0.627037
C67	C	1.601347	-0.124057	-0.003980
C68	C	1.663585	-0.238628	0.019504
C69	C	1.607567	-0.364852	-0.020000
C70	C	1.489311	-0.376505	-0.082987
C71	C	1.427067	-0.261930	-0.106475
C72	C	1.483085	-0.135706	-0.066971
H73	H	1.751131	-0.230005	0.066134
H74	H	1.653645	-0.449668	-0.002613
H75	H	1.447843	-0.469944	-0.112230
H76	H	1.339520	-0.270553	-0.153105
H77	H	1.437007	-0.050890	-0.084358
H78	H	0.933479	0.176613	-0.559303
H79	H	0.888745	0.175478	-0.227517
H80	H	1.393591	0.327259	0.300489
H81	H	1.338000	-0.219267	-0.316892
H82	H	1.094849	0.180736	-0.157923
H83	H	1.393584	0.327274	0.039455
H84	H	1.607994	-0.086146	0.235717
