data_functionalizedCrystal
_audit_creation_method	'MofGen! by Chris Wilmer'
_symmetry_space_group_name_H-M	'P1'
_symmetry_Int_Tables_number	1
_symmetry_cell_setting	triclinic
loop_
_symmetry_equiv_pos_as_xyz
  x,y,z
_cell_length_a	19.077105
_cell_length_b	19.077174
_cell_length_c	18.215405
_cell_angle_alpha	92.269720
_cell_angle_beta	87.721119
_cell_angle_gamma	85.483752
loop_
_atom_site_label
_atom_site_type_symbol
_atom_site_fract_x
_atom_site_fract_y
_atom_site_fract_z
Zn1	Zn	1.093703	-0.441824	-0.357575
Zn2	Zn	1.427037	-0.108491	-0.024242
Zn3	Zn	1.760370	0.224842	0.309092
Zn4	Zn	1.088887	-0.323930	-0.475490
Zn5	Zn	1.422221	0.009403	-0.142157
Zn6	Zn	1.755554	0.342736	0.191177
Zn7	Zn	0.971088	-0.319222	-0.347287
Zn8	Zn	1.304422	0.014111	-0.013954
Zn9	Zn	1.637755	0.347444	0.319379
Zn10	Zn	0.975781	-0.437048	-0.475442
Zn11	Zn	1.309115	-0.103715	-0.142108
Zn12	Zn	1.642448	0.229618	0.191225
O13	O	1.032365	-0.380506	-0.413949
O14	O	1.365698	-0.047173	-0.080615
O15	O	1.699032	0.286160	0.252718
O16	O	1.191715	-0.430155	-0.377542
O17	O	1.525048	-0.096821	-0.044209
O18	O	1.858381	0.236512	0.289125
O19	O	1.069282	-0.224656	-0.454198
O20	O	1.402615	0.108677	-0.120865
O21	O	1.735948	0.442010	0.212468
O22	O	0.987405	-0.335514	-0.245671
O23	O	1.320738	-0.002181	0.087662
O24	O	1.654072	0.331152	0.420995
O25	O	1.188176	-0.343538	-0.464174
O26	O	1.521510	-0.010205	-0.130840
O27	O	1.854843	0.323128	0.202493
O28	O	1.077490	-0.425590	-0.253229
O29	O	1.410823	-0.092256	0.080104
O30	O	1.744156	0.241077	0.413437
O31	O	0.982735	-0.221197	-0.360009
O32	O	1.316069	0.112136	-0.026675
O33	O	1.649402	0.445469	0.306658
O34	O	0.873061	-0.330883	-0.359962
O35	O	1.206394	0.002450	-0.026629
O36	O	1.539727	0.335783	0.306705
O37	O	0.995403	-0.536331	-0.464092
O38	O	1.328737	-0.202998	-0.130758
O39	O	1.662070	0.130335	0.202575
O40	O	0.876509	-0.417449	-0.454116
O41	O	1.209842	-0.084116	-0.120783
O42	O	1.543175	0.249217	0.212550
O43	O	1.082040	-0.539840	-0.377495
O44	O	1.415373	-0.206507	-0.044162
O45	O	1.748707	0.126826	0.289171
O46	O	1.073832	-0.338907	-0.578464
O47	O	1.407166	-0.005574	-0.245131
O48	O	1.740499	0.327760	0.088202
O49	O	0.990734	-0.422014	-0.578429
O50	O	1.324067	-0.088681	-0.245096
O51	O	1.657400	0.244652	0.088238
C52	C	0.849206	-0.373137	-0.405918
C53	C	1.182539	-0.039804	-0.072585
C54	C	1.515873	0.293529	0.260749
C55	C	0.770850	-0.370002	-0.402501
C56	C	1.104184	-0.036668	-0.069168
C57	C	1.437517	0.296665	0.264165
C58	C	0.735849	-0.413528	-0.449985
C59	C	1.069183	-0.080195	-0.116652
C60	C	1.402516	0.253139	0.216682
C61	C	0.662226	-0.410585	-0.446765
C62	C	0.995559	-0.077252	-0.113431
C63	C	1.328893	0.256082	0.219902
C64	C	0.623605	-0.364112	-0.396064
C65	C	0.956938	-0.030778	-0.062731
C66	C	1.290271	0.302555	0.270603
C67	C	0.658611	-0.320584	-0.348575
C68	C	0.991944	0.012750	-0.015242
C69	C	1.325278	0.346083	0.318092
C70	C	0.732233	-0.323531	-0.351792
C71	C	1.065566	0.009803	-0.018459
C72	C	1.398900	0.343136	0.314874
C73	C	0.403224	-0.350476	-0.381175
C74	C	0.736557	-0.017143	-0.047841
C75	C	1.069891	0.316191	0.285492
C76	C	0.329597	-0.347531	-0.377963
C77	C	0.662930	-0.014197	-0.044629
C78	C	0.996263	0.319136	0.288704
C79	C	0.333217	-0.437533	-0.476152
C80	C	0.666550	-0.104200	-0.142819
C81	C	0.999884	0.229133	0.190515
C82	C	0.406840	-0.440473	-0.479367
C83	C	0.740174	-0.107140	-0.146034
C84	C	1.073507	0.226193	0.187299
C85	C	0.441840	-0.396948	-0.431876
C86	C	0.775173	-0.063615	-0.098543
C87	C	1.108507	0.269719	0.234791
N88	N	0.548350	-0.361101	-0.392773
N89	N	0.881683	-0.027768	-0.059439
N90	N	1.215017	0.305566	0.273894
N91	N	0.517094	-0.399963	-0.435164
N92	N	0.850427	-0.066629	-0.101831
N93	N	1.183760	0.266704	0.231502
C94	C	1.039782	-0.564380	-0.421936
C95	C	1.373116	-0.231046	-0.088602
C96	C	1.706449	0.102287	0.244731
C97	C	1.042943	-0.642736	-0.425339
C98	C	1.376277	-0.309402	-0.092006
C99	C	1.709610	0.023931	0.241327
C100	C	0.999370	-0.677746	-0.377900
C101	C	1.332703	-0.344413	-0.044566
C102	C	1.666037	-0.011079	0.288767
C103	C	1.002337	-0.751370	-0.381104
C104	C	1.335671	-0.418036	-0.047770
C105	C	1.669004	-0.084703	0.285563
C106	C	1.048882	-0.789982	-0.431744
C107	C	1.382215	-0.456648	-0.098411
C108	C	1.715548	-0.123315	0.234922
C109	C	1.092457	-0.754966	-0.479189
C110	C	1.425790	-0.421633	-0.145856
C111	C	1.759123	-0.088299	0.187478
C112	C	1.089485	-0.681344	-0.475988
C113	C	1.422819	-0.348010	-0.142655
C114	C	1.756152	-0.014677	0.190679
C115	C	1.062597	-1.010362	-0.446580
C116	C	1.395930	-0.677029	-0.113246
C117	C	1.729263	-0.343695	0.220087
C118	C	1.065566	-1.083990	-0.449776
C119	C	1.398899	-0.750656	-0.116442
C120	C	1.732233	-0.417323	0.216891
C121	C	0.975445	-1.080388	-0.351691
C122	C	1.308779	-0.747055	-0.018358
C123	C	1.642112	-0.413721	0.314976
C124	C	0.972481	-1.006764	-0.348492
C125	C	1.305815	-0.673431	-0.015158
C126	C	1.639148	-0.340098	0.318175
C127	C	1.016054	-0.971755	-0.395939
C128	C	1.349387	-0.638422	-0.062605
C129	C	1.682720	-0.305089	0.270728
N130	N	1.051917	-0.865237	-0.435019
N131	N	1.385251	-0.531903	-0.101686
N132	N	1.718584	-0.198570	0.231648
N133	N	1.013014	-0.896501	-0.392667
N134	N	1.346347	-0.563168	-0.059334
N135	N	1.679680	-0.229835	0.274000
C136	C	1.216239	-0.387904	-0.422011
C137	C	1.549573	-0.054571	-0.088677
C138	C	1.882906	0.278762	0.244656
C139	C	1.294596	-0.391057	-0.425446
C140	C	1.627929	-0.057724	-0.092113
C141	C	1.961262	0.275610	0.241220
C142	C	1.032289	-0.380469	-0.605150
C143	C	1.365623	-0.047136	-0.271817
C144	C	1.698956	0.286197	0.061517
C145	C	1.032322	-0.380480	-0.686951
C146	C	1.365656	-0.047146	-0.353617
C147	C	1.698989	0.286187	-0.020284
C148	C	1.025017	-0.197350	-0.405941
C149	C	1.358351	0.135983	-0.072608
C150	C	1.691684	0.469317	0.260726
C151	C	1.021993	-0.119000	-0.402336
C152	C	1.355326	0.214333	-0.069003
C153	C	1.688660	0.547667	0.264330
C154	C	1.075701	-0.337293	-0.875147
C155	C	1.409034	-0.003960	-0.541814
C156	C	1.742368	0.329374	-0.208480
C157	C	1.075733	-0.337311	-0.952008
C158	C	1.409066	-0.003978	-0.618674
C159	C	1.742400	0.329355	-0.285341
C160	C	0.989121	-0.423774	-0.952004
C161	C	1.322455	-0.090441	-0.618671
C162	C	1.655788	0.242893	-0.285338
C163	C	0.989093	-0.423759	-0.875145
C164	C	1.322427	-0.090425	-0.541812
C165	C	1.655760	0.242908	-0.208478
C166	C	1.032382	-0.380514	-0.836718
C167	C	1.365715	-0.047181	-0.503385
C168	C	1.699049	0.286152	-0.170052
C169	C	1.032442	-0.380548	-0.990438
C170	C	1.365776	-0.047214	-0.657105
C171	C	1.699109	0.286119	-0.323772
C172	C	1.032477	-0.380568	-1.073774
C173	C	1.365810	-0.047235	-0.740441
C174	C	1.699143	0.286099	-0.407107
C175	C	1.032349	-0.380495	-0.753377
C176	C	1.365682	-0.047162	-0.420044
C177	C	1.699015	0.286172	-0.086710
C178	C	1.032461	-0.380560	-0.222002
C179	C	1.365794	-0.047226	0.111332
C180	C	1.699128	0.286107	0.444665
C181	C	1.032502	-0.380582	-0.140206
C182	C	1.365835	-0.047249	0.193128
C183	C	1.699169	0.286084	0.526461
H184	H	0.431712	-0.315029	-0.342509
H185	H	0.765045	0.018304	-0.009176
H186	H	1.098378	0.351638	0.324157
Cl187	Cl	0.934702	-0.478133	-1.000317
Cl188	Cl	1.268036	-0.144799	-0.666984
Cl189	Cl	1.601369	0.188534	-0.333651
Cl190	Cl	1.130122	-0.282931	-0.826842
Cl191	Cl	1.463456	0.050402	-0.493508
Cl192	Cl	1.796789	0.383736	-0.160175
H193	H	0.767289	-0.451369	-0.491273
H194	H	1.100623	-0.118036	-0.157940
H195	H	1.433956	0.215297	0.175393
Cl196	Cl	0.618228	-0.465307	-0.506462
Cl197	Cl	0.951561	-0.131973	-0.173128
Cl198	Cl	1.284895	0.201360	0.160205
Cl199	Cl	0.455387	-0.498897	-0.543110
Cl200	Cl	0.788721	-0.165564	-0.209777
Cl201	Cl	1.122054	0.167769	0.123556
H202	H	0.966853	-0.779872	-0.342476
H203	H	1.300186	-0.446538	-0.009143
H204	H	1.633519	-0.113205	0.324191
H205	H	0.627160	-0.282747	-0.307290
H206	H	0.960493	0.050586	0.026043
H207	H	1.293826	0.383919	0.359376
Cl208	Cl	0.289213	-0.492246	-0.535852
Cl209	Cl	0.622546	-0.158913	-0.202519
Cl210	Cl	0.955880	0.174420	0.130814
Cl211	Cl	0.281045	-0.289098	-0.314225
Cl212	Cl	0.614378	0.044236	0.019108
Cl213	Cl	0.947712	0.377569	0.352442
H214	H	1.103471	-1.115426	-0.491014
H215	H	1.436805	-0.782092	-0.157681
H216	H	1.770138	-0.448759	0.175652
H217	H	1.111009	-0.302117	-0.983293
H218	H	1.444342	0.031216	-0.649960
H219	H	1.777675	0.364549	-0.316626
Cl220	Cl	0.776234	-0.268811	-0.292094
Cl221	Cl	1.109568	0.064522	0.041239
Cl222	Cl	1.442901	0.397855	0.374573
H223	H	0.953818	-0.458958	-0.843854
H224	H	1.287151	-0.125625	-0.510521
H225	H	1.620485	0.207709	-0.177188
H226	H	0.961473	-0.646313	-0.336659
H227	H	1.294806	-0.312980	-0.003325
H228	H	1.628139	0.020353	0.330008
Cl229	Cl	0.913967	-0.958229	-0.284825
Cl230	Cl	1.247300	-0.624896	0.048508
Cl231	Cl	1.580634	-0.291562	0.381842
Cl232	Cl	0.920670	-1.124404	-0.292050
Cl233	Cl	1.254003	-0.791070	0.041283
Cl234	Cl	1.587336	-0.457737	0.374617
H235	H	1.124973	-0.652839	-0.514613
H236	H	1.458306	-0.319506	-0.181280
H237	H	1.791639	0.013827	0.152054
Cl238	Cl	1.117379	-0.966360	-0.506223
Cl239	Cl	1.450712	-0.633027	-0.172890
Cl240	Cl	1.784046	-0.299694	0.160444
H241	H	1.130351	-0.786410	-0.520425
H242	H	1.463684	-0.453076	-0.187092
H243	H	1.797017	-0.119743	0.146241
