data_functionalizedCrystal
_audit_creation_method	'MofGen! by Chris Wilmer'
_symmetry_space_group_name_H-M	'P1'
_symmetry_Int_Tables_number	1
_symmetry_cell_setting	triclinic
loop_
_symmetry_equiv_pos_as_xyz
  x,y,z
_cell_length_a	6.817900
_cell_length_b	17.982959
_cell_length_c	16.015572
_cell_angle_alpha	78.160019
_cell_angle_beta	104.485554
_cell_angle_gamma	102.451857
loop_
_atom_site_label
_atom_site_type_symbol
_atom_site_fract_x
_atom_site_fract_y
_atom_site_fract_z
V1	V	-3.990110	-0.030701	-0.269498
O2	O	-3.983612	0.078252	-0.263997
O3	O	-3.936788	-0.134716	-0.268012
O4	O	-3.928046	0.003460	-0.386873
O5	O	-3.992415	-0.060880	-0.144313
V6	V	-4.476146	-0.021650	-0.254482
O7	O	-4.245855	-0.050556	-0.302438
O8	O	-4.670598	-0.001794	-0.221542
O9	O	-4.306261	0.082365	-0.255968
O10	O	-4.600040	-0.130603	-0.259983
O11	O	-4.591237	0.008529	-0.379667
O12	O	-4.315003	-0.055810	-0.137107
C13	C	-3.781034	-0.161125	-0.263852
C14	C	-3.818633	-0.245942	-0.263419
C15	C	-4.017712	-0.288472	-0.267535
C16	C	-4.053030	-0.368165	-0.267133
C17	C	-3.889265	-0.405328	-0.262610
C18	C	-3.690172	-0.362791	-0.258496
C19	C	-3.654858	-0.283099	-0.258904
C20	C	-3.832583	-0.684183	-0.256852
C21	C	-3.867912	-0.763882	-0.256442
C22	C	-4.230755	-0.769250	-0.265081
C23	C	-4.195442	-0.689557	-0.265489
C24	C	-3.996354	-0.647027	-0.261380
C25	C	-3.958061	-0.560614	-0.261817
C26	C	-3.927554	-0.491740	-0.262166
C27	C	-3.769881	0.015132	-0.415470
C28	C	-3.800388	0.042374	-0.511427
C29	C	-4.077582	-0.199424	-0.889887
C30	C	-4.106253	-0.173801	-0.980049
C31	C	-4.035538	-0.041239	-0.954889
C32	C	-4.006849	-0.066850	-0.864723
C33	C	-4.027878	-0.145944	-0.832230
C34	C	-3.957145	-0.013370	-0.807065
C35	C	-3.928470	-0.038980	-0.716907
C36	C	-3.949500	-0.118070	-0.684407
C37	C	-3.999203	-0.171553	-0.742072
C38	C	-3.936132	0.065723	-0.839560
C39	C	-3.886428	0.119203	-0.781902
C40	C	-3.857738	0.093593	-0.691742
C41	C	-3.878767	0.014503	-0.659242
C42	C	-3.808035	0.147077	-0.634077
C43	C	-3.779360	0.121467	-0.543920
C44	C	-3.850093	-0.011106	-0.569085
C45	C	-4.125357	0.108770	-0.260125
C46	C	-4.066996	0.193587	-0.260564
C47	C	-4.136511	-0.067486	-0.108505
C48	C	-4.085242	-0.094725	-0.012547
H49	H	-4.392866	-0.803887	-0.268428
O50	O	-3.963665	0.090698	-0.927115
C51	C	-3.781472	0.138054	-0.946152
H52	H	-3.686846	0.162820	-0.885455
H53	H	-3.688208	0.102416	-0.967170
C54	C	-3.952486	0.174051	-1.095097
C55	C	-3.836272	0.204474	-1.020549
H56	H	-3.986286	0.215020	-1.140990
H57	H	-4.075231	0.142144	-1.082272
H58	H	-3.874749	0.144353	-1.112600
H59	H	-3.914019	0.234163	-1.003040
H60	H	-3.713540	0.236388	-1.033372
O61	O	-4.018916	-0.248375	-0.710485
C62	C	-3.874726	-0.279825	-0.735963
H63	H	-3.828489	-0.241597	-0.796558
H64	H	-3.732789	-0.283081	-0.680613
C65	C	-4.028205	-0.408373	-0.682288
C66	C	-3.971428	-0.361424	-0.756715
H67	H	-4.087849	-0.458709	-0.695085
H68	H	-4.125344	-0.387185	-0.665120
H69	H	-3.909912	-0.411077	-0.636170
H70	H	-4.089724	-0.358713	-0.802828
H71	H	-3.874311	-0.382614	-0.773892
O72	O	-3.639057	-0.642998	-0.252812
C73	C	-3.502104	-0.692888	-0.248750
H74	H	-3.569894	-0.754317	-0.222255
H75	H	-3.476887	-0.690821	-0.316983
C76	C	-3.211732	-0.591748	-0.220471
C77	C	-3.294986	-0.667195	-0.187923
H78	H	-3.083968	-0.575898	-0.182953
H79	H	-3.303999	-0.558134	-0.223210
H80	H	-3.190736	-0.590035	-0.277331
H81	H	-3.316004	-0.668905	-0.131069
H82	H	-3.202717	-0.700808	-0.185172
O83	O	-3.866345	0.196033	-0.813440
C84	C	-4.010145	0.227652	-0.787915
H85	H	-4.143419	0.180113	-0.773410
H86	H	-3.932474	0.254675	-0.726795
C87	C	-3.928428	0.348292	-0.880009
C88	C	-4.092125	0.289905	-0.862200
H89	H	-3.978991	0.386695	-0.925828
H90	H	-3.831540	0.326991	-0.897203
H91	H	-3.863716	0.370802	-0.829069
H92	H	-4.156817	0.267389	-0.913135
H93	H	-4.189026	0.311203	-0.845016
H94	H	-4.094678	-0.263829	-0.863430
H95	H	-4.151070	-0.258222	-0.271210
H96	H	-4.328798	-0.659304	-0.269168
H97	H	-3.926155	-0.138920	-0.610995
O98	O	-3.787968	0.223906	-0.665617
C99	C	-3.931777	0.255519	-0.640090
H100	H	-4.065036	0.207975	-0.625579
H101	H	-3.854107	0.282546	-0.578971
C102	C	-3.850104	0.376159	-0.732190
C103	C	-4.013784	0.317766	-0.714375
H104	H	-3.900684	0.414559	-0.778009
H105	H	-3.753211	0.354863	-0.749386
H106	H	-3.785393	0.398673	-0.681252
H107	H	-4.078474	0.295247	-0.765308
H108	H	-4.110690	0.339060	-0.697189
H109	H	-3.734546	-0.794136	-0.252764
H110	H	-3.738887	0.165016	-0.496973
H111	H	-3.556836	-0.393055	-0.254819
O112	O	-4.246397	-0.409461	-0.270969
C113	C	-4.319172	-0.402090	-0.198559
H114	H	-4.183056	-0.385952	-0.143630
H115	H	-4.418315	-0.355126	-0.218471
C116	C	-4.615791	-0.499101	-0.234229
C117	C	-4.448610	-0.479286	-0.166762
H118	H	-4.695643	-0.546718	-0.214617
H119	H	-4.566766	-0.504065	-0.283015
H120	H	-4.698387	-0.459959	-0.250816
H121	H	-4.366004	-0.518424	-0.150184
H122	H	-4.497624	-0.474330	-0.117972
O123	O	-3.461375	-0.241837	-0.254747
C124	C	-3.330675	-0.270181	-0.176888
H125	H	-3.426304	-0.300994	-0.126783
H126	H	-3.244590	-0.312391	-0.190945
C127	C	-3.057556	-0.164652	-0.202074
C128	C	-3.175009	-0.202492	-0.140531
H129	H	-2.961527	-0.122900	-0.179649
H130	H	-3.145608	-0.145558	-0.254531
H131	H	-2.985838	-0.199836	-0.213783
H132	H	-3.246744	-0.167312	-0.128832
H133	H	-3.086966	-0.221579	-0.088071
O134	O	-3.869806	-0.087928	-0.537498
C135	C	-3.725616	-0.119378	-0.562976
H136	H	-3.679379	-0.081150	-0.623570
H137	H	-3.583679	-0.122634	-0.507626
C138	C	-3.879095	-0.247926	-0.509300
C139	C	-3.822318	-0.200977	-0.583728
H140	H	-3.938739	-0.298262	-0.522098
H141	H	-3.976234	-0.226738	-0.492132
H142	H	-3.760801	-0.250630	-0.463182
H143	H	-3.940614	-0.198266	-0.629841
H144	H	-3.725201	-0.222167	-0.600904
H145	H	-4.146720	-0.217357	-1.026993
H146	H	-4.018429	0.023159	-0.981357
