data_functionalizedCrystal
_audit_creation_method	'MofGen! by Chris Wilmer'
_symmetry_space_group_name_H-M	'P1'
_symmetry_Int_Tables_number	1
_symmetry_cell_setting	triclinic
loop_
_symmetry_equiv_pos_as_xyz
  x,y,z
_cell_length_a	15.944551
_cell_length_b	14.971486
_cell_length_c	14.048226
_cell_angle_alpha	90.006640
_cell_angle_beta	90.001970
_cell_angle_gamma	83.556433
loop_
_atom_site_label
_atom_site_type_symbol
_atom_site_fract_x
_atom_site_fract_y
_atom_site_fract_z
O1	O	-1.114636	-0.115362	-0.079062
O2	O	-0.870100	-0.129584	-0.079086
O3	O	-0.998922	0.007734	-0.079066
O4	O	-0.985814	-0.252680	-0.079081
O5	O	-0.998907	0.007742	0.079255
O6	O	-0.870085	-0.129576	0.079236
O7	O	-1.114621	-0.115354	0.079260
Zn8	Zn	-0.992350	-0.122464	0.104385
Zn9	Zn	-0.992371	-0.122474	-0.104211
O10	O	-0.985798	-0.252672	0.079240
C11	C	-0.998328	0.041062	0.000094
C12	C	-0.996572	0.140357	0.000093
C13	C	-0.838798	-0.128990	0.000072
C14	C	-0.745550	-0.127220	0.000063
C15	C	-1.145923	-0.115948	0.000100
C16	C	-1.239171	-0.117718	0.000102
C17	C	-0.530608	-0.037872	0.000087
C18	C	-0.469635	-0.079366	-0.077976
C19	C	-0.574821	-0.124017	0.000075
C20	C	-0.469642	-0.079379	0.078116
C21	C	-0.409905	-0.120918	0.000090
C22	C	-0.515076	-0.165535	-0.078053
C23	C	-0.515090	-0.165535	0.078110
C24	C	-0.454134	-0.207092	0.000027
C25	C	-0.669825	-0.125801	0.000065
C26	C	-0.314903	-0.119141	0.000093
C27	C	-0.986392	-0.286000	0.000078
C28	C	-0.988149	-0.385295	0.000073
N29	N	-0.992342	-0.122456	0.246745
C30	C	-1.072251	0.197664	0.000101
C31	C	-1.070595	0.290962	0.000091
C32	C	-0.993259	0.326951	0.000080
C33	C	-0.917574	0.269637	0.000069
C34	C	-0.919230	0.176341	0.000072
C35	C	-0.914127	0.464095	0.000066
C36	C	-0.912470	0.557398	0.000065
C37	C	-1.065491	0.578717	0.000085
C38	C	-1.067148	0.485421	0.000088
C39	C	-0.991462	0.428113	0.000078
N40	N	-0.992385	-0.122475	-0.246571
C41	C	-1.049403	-0.061676	0.296572
C42	C	-1.049408	-0.061676	0.396230
C43	C	-0.992357	-0.122460	0.446059
C44	C	-0.935290	-0.183242	0.396225
C45	C	-0.935281	-0.183238	0.296569
C46	C	-0.935315	-0.183249	0.603939
C47	C	-0.935325	-0.183255	0.703602
C48	C	-1.049442	-0.061687	0.703600
C49	C	-1.049433	-0.061682	0.603944
C50	C	-0.992367	-0.122466	0.554117
H51	H	-0.449497	-0.042934	-0.143969
H52	H	-1.095871	-0.012184	0.436798
O53	O	-0.414554	-0.292426	-0.000151
C54	C	-0.363196	-0.305547	-0.081776
H55	H	-0.346773	-0.237800	-0.108651
H56	H	-0.398566	-0.339367	-0.139663
C57	C	-0.301673	-0.448917	-0.023430
C58	C	-0.281496	-0.365709	-0.056433
H59	H	-0.251279	-0.486031	-0.007800
H60	H	-0.336276	-0.440079	0.031561
H61	H	-0.331150	-0.477089	-0.071675
H62	H	-0.252030	-0.337535	-0.008185
H63	H	-0.246887	-0.374544	-0.111415
H64	H	-1.132222	0.337618	0.000100
H65	H	-0.852495	0.417437	0.000056
H66	H	-0.535105	-0.201947	-0.144121
H67	H	-1.130122	0.456122	0.000103
O68	O	-0.842501	0.304700	-0.000069
C69	C	-0.836965	0.358003	-0.082077
H70	H	-0.903148	0.381233	-0.109407
H71	H	-0.799852	0.316781	-0.139498
C72	C	-0.710362	0.412001	-0.023606
C73	C	-0.791649	0.440539	-0.057169
H74	H	-0.682405	0.462911	-0.008244
H75	H	-0.714089	0.376087	0.031643
H76	H	-0.679445	0.377649	-0.071463
H77	H	-0.822568	0.474880	-0.009308
H78	H	-0.787926	0.476460	-0.112409
O79	O	-1.139035	0.634346	0.000256
C80	C	-1.185983	0.618035	0.082249
H81	H	-1.141665	0.586158	0.139555
H82	H	-1.234655	0.570527	0.063723
C83	C	-1.285820	0.746605	0.049044
C84	C	-1.231386	0.707460	0.119432
H85	H	-1.313829	0.801765	0.071979
H86	H	-1.254192	0.757593	-0.006198
H87	H	-1.326371	0.707006	0.033612
H88	H	-1.190829	0.747053	0.134854
H89	H	-1.263007	0.696481	0.174678
H90	H	-0.535249	-0.201938	0.144106
H91	H	-0.449515	-0.042924	0.144110
O92	O	-1.147356	0.162667	0.000279
C93	C	-1.152882	0.109331	0.082264
H94	H	-1.108961	0.131400	0.139572
H95	H	-1.133586	0.035757	0.063726
C96	C	-1.298256	0.093540	0.049062
C97	C	-1.244317	0.120651	0.119452
H98	H	-1.354658	0.100518	0.072000
H99	H	-1.294534	0.129470	-0.006175
H100	H	-1.282166	0.032229	0.033621
H101	H	-1.260401	0.181963	0.134884
H102	H	-1.248045	0.084731	0.174693
O103	O	-1.104884	-0.002553	0.555685
C104	C	-1.155267	0.051082	0.621030
H105	H	-1.120841	0.052117	0.692077
H106	H	-1.217690	0.021994	0.631611
C107	C	-1.214765	0.146291	0.494885
C108	C	-1.172479	0.147569	0.582143
H109	H	-1.225387	0.205807	0.470897
H110	H	-1.180824	0.110154	0.450860
H111	H	-1.266780	0.122047	0.503714
H112	H	-1.120461	0.171801	0.573311
H113	H	-1.206412	0.183711	0.626166
H114	H	-0.849496	0.586696	0.000071
O115	O	-0.570371	0.047384	-0.000122
C116	C	-0.621784	0.060316	-0.081722
H117	H	-0.638059	-0.007512	-0.108543
H118	H	-0.586529	0.094195	-0.139653
C119	C	-0.683591	0.203606	-0.023428
C120	C	-0.703587	0.120300	-0.056365
H121	H	-0.734050	0.240611	-0.007790
H122	H	-0.648951	0.194896	0.031546
H123	H	-0.654211	0.231828	-0.071710
H124	H	-0.732957	0.092075	-0.008080
H125	H	-0.738234	0.129007	-0.111331
O126	O	-0.879835	-0.242164	0.444734
C127	C	-0.827967	-0.194227	0.502380
H128	H	-0.861356	-0.124257	0.517315
H129	H	-0.765880	-0.188105	0.463988
C130	C	-0.769067	-0.330586	0.578695
C131	C	-0.810079	-0.244651	0.597045
H132	H	-0.758029	-0.361691	0.637087
H133	H	-0.804009	-0.362883	0.539855
H134	H	-0.717333	-0.325472	0.546699
H135	H	-0.861816	-0.249766	0.629029
H136	H	-0.775145	-0.212355	0.635893
H137	H	-0.857604	0.129681	0.000066
H138	H	-1.095906	-0.012195	0.744174
O139	O	-0.879783	-0.242198	0.751971
C140	C	-0.796625	-0.227594	0.727623
H141	H	-0.796159	-0.155981	0.700229
H142	H	-0.771981	-0.277157	0.669783
C143	C	-0.740283	-0.329385	0.849812
C144	C	-0.739709	-0.241426	0.816173
H145	H	-0.705173	-0.337921	0.904431
H146	H	-0.796307	-0.339227	0.866213
H147	H	-0.719748	-0.370677	0.801603
H148	H	-0.760254	-0.200136	0.864377
H149	H	-0.683687	-0.231577	0.799782
O150	O	-0.879967	-0.242418	0.555578
C151	C	-0.893697	-0.330972	0.579929
H152	H	-0.960946	-0.331453	0.607316
H153	H	-0.847172	-0.357218	0.637776
C154	C	-0.798104	-0.391010	0.457755
C155	C	-0.880703	-0.391602	0.491385
H156	H	-0.790086	-0.428411	0.403139
H157	H	-0.788851	-0.331350	0.441351
H158	H	-0.759343	-0.412879	0.505969
H159	H	-0.919462	-0.369723	0.443176
H160	H	-0.889962	-0.451260	0.507779
O161	O	-0.879824	-0.242368	0.248312
C162	C	-0.829456	-0.296005	0.313660
H163	H	-0.863900	-0.297044	0.384692
H164	H	-0.767036	-0.266918	0.324275
C165	C	-0.769926	-0.391208	0.187506
C166	C	-0.812234	-0.392490	0.274747
H167	H	-0.759298	-0.450723	0.163503
H168	H	-0.803856	-0.355070	0.143479
H169	H	-0.717914	-0.366964	0.196364
H170	H	-0.864249	-0.416723	0.265886
H171	H	-0.778311	-0.428635	0.318772
H172	H	-1.095864	-0.012183	0.256007
