data_functionalizedCrystal
_audit_creation_method	'MofGen! by Chris Wilmer'
_symmetry_space_group_name_H-M	'P1'
_symmetry_Int_Tables_number	1
_symmetry_cell_setting	triclinic
loop_
_symmetry_equiv_pos_as_xyz
  x,y,z
_cell_length_a	19.288864
_cell_length_b	15.944551
_cell_length_c	18.366186
_cell_angle_alpha	89.992809
_cell_angle_beta	89.977106
_cell_angle_gamma	83.317492
loop_
_atom_site_label
_atom_site_type_symbol
_atom_site_fract_x
_atom_site_fract_y
_atom_site_fract_z
O1	O	0.921629	0.104784	-0.060785
O2	O	1.421629	0.604784	0.439215
O3	O	0.719405	0.118919	-0.060735
O4	O	1.219405	0.618919	0.439265
O5	O	0.826039	-0.010445	-0.060755
O6	O	1.326039	0.489555	0.439245
O7	O	0.814995	0.234147	-0.060765
O8	O	1.314995	0.734147	0.439235
O9	O	0.826021	-0.010451	0.060345
O10	O	1.326021	0.489549	0.560345
O11	O	0.719387	0.118912	0.060364
O12	O	1.219387	0.618912	0.560364
O13	O	0.921611	0.104777	0.060315
O14	O	1.421611	0.604777	0.560315
Zn15	Zn	0.820496	0.111844	0.079567
Zn16	Zn	1.320496	0.611844	0.579567
Zn17	Zn	0.820520	0.111852	-0.079987
Zn18	Zn	1.320520	0.611852	0.420013
O19	O	0.814977	0.234141	0.060334
O20	O	1.314977	0.734141	0.560334
C21	C	0.693519	0.118461	-0.000179
C22	C	1.193519	0.618461	0.499821
C23	C	0.616411	0.117095	-0.000160
C24	C	1.116411	0.617095	0.499840
C25	C	0.571915	0.193000	-0.000175
C26	C	1.071915	0.693000	0.499825
C27	C	0.499465	0.191717	-0.000183
C28	C	0.999465	0.691717	0.499817
C29	C	0.471514	0.114526	-0.000191
C30	C	0.971514	0.614526	0.499809
C31	C	0.516020	0.038611	-0.000172
C32	C	1.016020	0.538611	0.499828
C33	C	0.588469	0.039896	-0.000156
C34	C	1.088469	0.539896	0.499844
C35	C	0.363098	0.053847	-0.042639
C36	C	0.863098	0.553847	0.457361
C37	C	0.290650	0.052565	-0.042659
C38	C	0.790650	0.552565	0.457341
C39	C	0.248058	0.110560	-0.000234
C40	C	0.748058	0.610560	0.499766
C41	C	0.277920	0.169850	0.042200
C42	C	0.777920	0.669850	0.542200
C43	C	0.350369	0.171135	0.042216
C44	C	0.850369	0.671135	0.542216
C45	C	0.392956	0.113124	-0.000207
C46	C	0.892956	0.613124	0.499793
C47	C	0.125002	0.185079	-0.000257
C48	C	0.625002	0.685079	0.499743
C49	C	0.052550	0.183793	-0.000260
C50	C	0.552550	0.683793	0.499740
C51	C	0.069107	0.030684	-0.000257
C52	C	0.569107	0.530684	0.499743
C53	C	0.141557	0.031972	-0.000246
C54	C	0.641557	0.531972	0.499754
C55	C	0.169500	0.109172	-0.000249
C56	C	0.669500	0.609172	0.499751
C57	C	0.825572	-0.041740	-0.000205
C58	C	1.325572	0.458260	0.499795
C59	C	0.824197	-0.134981	-0.000204
C60	C	1.324197	0.365019	0.499796
C61	C	0.754815	-0.349571	-0.000197
C62	C	1.254815	0.150429	0.499803
C63	C	0.787025	-0.410715	0.059504
C64	C	1.287025	0.089285	0.559504
C65	C	0.821710	-0.305697	-0.000209
C66	C	1.321710	0.194303	0.499791
C67	C	0.787058	-0.410692	-0.059890
C68	C	1.287058	0.089308	0.440110
C69	C	0.819303	-0.470601	-0.000217
C70	C	1.319303	0.029399	0.499783
C71	C	0.853939	-0.365614	0.059542
C72	C	1.353939	0.134386	0.559542
C73	C	0.853963	-0.365585	-0.059906
C74	C	1.353963	0.134415	0.440094
C75	C	0.886222	-0.426712	-0.000190
C76	C	1.386222	0.073288	0.499810
C77	C	0.823095	-0.210700	-0.000204
C78	C	1.323095	0.289300	0.499796
C79	C	0.817924	-0.565597	-0.000217
C80	C	1.317924	-0.065597	0.499783
C81	C	0.947497	0.105235	-0.000243
C82	C	1.447497	0.605235	0.499757
C83	C	1.024605	0.106600	-0.000267
C84	C	1.524605	0.606600	0.499733
C85	C	0.815444	0.265436	-0.000217
C86	C	1.315444	0.765436	0.499783
C87	C	0.816819	0.358677	-0.000223
C88	C	1.316819	0.858677	0.499777
N89	N	0.820485	0.111838	0.188458
N90	N	1.320485	0.611838	0.688458
N91	N	0.820537	0.111852	-0.188878
N92	N	1.320537	0.611852	0.311122
C93	C	0.867718	0.054583	0.226549
C94	C	1.367718	0.554583	0.726549
C95	C	0.867722	0.054580	0.302777
C96	C	1.367722	0.554580	0.802777
C97	C	0.820500	0.111844	0.340910
C98	C	1.320500	0.611844	0.840910
C99	C	0.773258	0.169103	0.302810
C100	C	1.273258	0.669103	0.802810
C101	C	0.773251	0.169100	0.226583
C102	C	1.273251	0.669100	0.726583
C103	C	0.811404	0.188378	0.461669
C104	C	1.311404	0.688378	0.961669
C105	C	0.811416	0.188383	0.537894
C106	C	1.311416	0.688383	1.037894
C107	C	0.820520	0.111855	0.576018
C108	C	1.320520	0.611855	1.076018
C109	C	0.829626	0.035320	0.537908
C110	C	1.329626	0.535320	1.037908
C111	C	0.829618	0.035316	0.461681
C112	C	1.329618	0.535316	0.961681
C113	C	0.820503	0.111854	0.423565
C114	C	1.320503	0.611854	0.923565
C115	C	0.867760	0.054592	0.696765
C116	C	1.367760	0.554592	1.196765
C117	C	0.867760	0.054587	0.772994
C118	C	1.367760	0.554587	1.272994
C119	C	0.773299	0.169118	0.773025
C120	C	1.273299	0.669118	1.273025
C121	C	0.773296	0.169115	0.696797
C122	C	1.273296	0.669115	1.196797
C123	C	0.820531	0.111853	0.658671
C124	C	1.320531	0.611853	1.158671
H125	H	0.624699	-0.021917	-0.000145
H126	H	1.124699	0.478083	0.499855
N127	N	0.409031	-0.008711	-0.088401
N128	N	0.909031	0.491289	0.411599
H129	H	0.435776	0.022673	-0.124675
H130	H	0.935776	0.522673	0.375325
H131	H	0.442930	-0.044241	-0.055845
H132	H	0.942930	0.455759	0.444155
H133	H	0.243242	0.217075	0.076747
H134	H	0.743242	0.717075	0.576747
N135	N	0.602043	0.276268	-0.000168
N136	N	1.102043	0.776268	0.499832
H137	H	0.631706	0.280216	0.044730
H138	H	1.131706	0.780216	0.544730
H139	H	0.631724	0.280172	-0.045083
H140	H	1.131724	0.780172	0.454917
N141	N	0.918668	-0.007171	0.343880
N142	N	1.418668	0.492829	0.843880
H143	H	0.910675	-0.066766	0.330632
H144	H	1.410675	0.433234	0.830632
H145	H	0.967938	0.002430	0.330573
H146	H	1.467938	0.502430	0.830573
H147	H	0.699288	-0.316049	-0.000124
H148	H	1.199288	0.183951	0.499876
N149	N	0.451460	0.273588	-0.000200
N150	N	0.951460	0.773588	0.499800
H151	H	0.480155	0.322688	-0.000200
H152	H	0.980155	0.822688	0.499800
H153	H	0.421068	0.276382	-0.045102
H154	H	0.921068	0.776382	0.454898
H155	H	0.147754	0.247939	-0.000249
H156	H	0.647754	0.747939	0.499751
H157	H	0.016321	0.245606	-0.000268
H158	H	0.516321	0.745606	0.499732
N159	N	0.918718	-0.007155	0.814083
N160	N	1.418718	0.492845	1.314083
H161	H	0.948643	-0.043420	0.778361
H162	H	1.448643	0.456580	1.278361
H163	H	0.949415	0.024934	0.845681
H164	H	1.449415	0.524934	1.345681
N165	N	0.891420	-0.339060	-0.126785
N166	N	1.391420	0.160940	0.373215
H167	H	0.858790	-0.298010	-0.156168
H168	H	1.358790	0.201990	0.343832
H169	H	0.933457	-0.311046	-0.111528
H170	H	1.433457	0.188954	0.388472
N171	N	0.038965	-0.052571	-0.000264
N172	N	0.538965	0.447429	0.499736
H173	H	0.055216	-0.085814	-0.045151
H174	H	0.555216	0.414186	0.454849
H175	H	0.055175	-0.085748	0.044662
H176	H	0.555175	0.414252	0.544662
H177	H	0.177787	-0.029838	-0.000238
H178	H	0.677787	0.470162	0.499762
N179	N	0.722329	0.230870	0.343936
N180	N	1.222329	0.730870	0.843936
H181	H	0.692404	0.267141	0.308235
H182	H	1.192404	0.767141	0.808235
H183	H	0.691630	0.198806	0.375585
H184	H	1.191630	0.698806	0.875585
H185	H	0.493258	-0.024239	-0.000188
H186	H	0.993258	0.475761	0.499812
H187	H	0.734787	0.215724	0.195568
H188	H	1.234787	0.715724	0.695568
N189	N	0.839437	-0.047224	0.420575
N190	N	1.339437	0.452776	0.920575
H191	H	0.845206	-0.095708	0.456288
H192	H	1.345206	0.404292	0.956288
H193	H	0.797239	-0.051998	0.388972
H194	H	1.297239	0.448002	0.888972
H195	H	0.803978	0.250700	0.430635
H196	H	1.303978	0.750700	0.930635
N197	N	0.258442	-0.011379	-0.088423
N198	N	0.758442	0.488621	0.411577
H199	H	0.270237	-0.003339	-0.141361
H200	H	0.770237	0.496661	0.358639
H201	H	0.277443	-0.070224	-0.072511
H202	H	0.777443	0.429776	0.427489
H203	H	0.758723	-0.430717	0.109991
H204	H	1.258723	0.069283	0.609991
H205	H	0.804006	0.250702	0.568917
H206	H	1.304006	0.750702	1.068917
H207	H	0.837039	-0.026997	0.568947
H208	H	1.337039	0.473003	1.068947
N209	N	0.891380	-0.339293	0.126472
N210	N	1.391380	0.160707	0.626472
H211	H	0.892056	-0.276051	0.126073
H212	H	1.392056	0.223949	0.626073
H213	H	0.866275	-0.356143	0.171484
H214	H	1.366275	0.143857	0.671484
N215	N	0.722360	0.230878	0.814143
N216	N	1.222360	0.730878	1.314143
H217	H	0.729530	0.222191	0.868213
H218	H	1.229530	0.722191	1.368213
H219	H	0.730381	0.290442	0.800807
H220	H	1.230381	0.790442	1.300807
N221	N	0.959834	-0.470923	-0.000171
N222	N	1.459834	0.029077	0.499829
H223	H	0.984997	-0.454549	0.044941
H224	H	1.484997	0.045451	0.544941
H225	H	0.958452	-0.534046	-0.000627
H226	H	1.458452	-0.034046	0.499373
H227	H	0.758763	-0.430658	-0.110366
H228	H	1.258763	0.069342	0.389634
N229	N	0.918657	-0.007179	0.185428
N230	N	1.418657	0.492821	0.685428
H231	H	0.967951	0.002347	0.198667
H232	H	1.467951	0.502347	0.698667
H233	H	0.910600	-0.066742	0.198725
H234	H	1.410600	0.433258	0.698725
N235	N	0.382580	0.235074	0.087983
N236	N	0.882580	0.735074	0.587983
H237	H	0.344610	0.271622	0.114859
H238	H	0.844610	0.771622	0.614859
H239	H	0.415961	0.204692	0.124227
H240	H	0.915961	0.704692	0.624227
N241	N	0.918700	-0.007167	0.655637
N242	N	1.418700	0.492833	1.155637
H243	H	0.948620	-0.043444	0.691338
H244	H	1.448620	0.456556	1.191338
H245	H	0.892108	-0.044219	0.624026
H246	H	1.392108	0.455781	1.124026
N247	N	0.722352	0.230868	0.655706
N248	N	1.222352	0.730868	1.155706
H249	H	0.692435	0.267145	0.691428
H250	H	1.192435	0.767145	1.191428
H251	H	0.748935	0.267921	0.624058
H252	H	1.248935	0.767921	1.124058
