data_functionalizedCrystal
_audit_creation_method	'MofGen! by Chris Wilmer'
_symmetry_space_group_name_H-M	'P1'
_symmetry_Int_Tables_number	1
_symmetry_cell_setting	triclinic
loop_
_symmetry_equiv_pos_as_xyz
  x,y,z
_cell_length_a	11.026607
_cell_length_b	15.944545
_cell_length_c	10.065875
_cell_angle_alpha	98.787614
_cell_angle_beta	79.302338
_cell_angle_gamma	96.041094
loop_
_atom_site_label
_atom_site_type_symbol
_atom_site_fract_x
_atom_site_fract_y
_atom_site_fract_z
O1	O	1.627940	0.342075	-0.113523
O2	O	1.274631	0.302023	-0.113521
O3	O	1.460935	0.201234	-0.113506
O4	O	1.441636	0.442863	-0.113538
O5	O	1.425410	0.220552	0.113480
O6	O	1.239106	0.321340	0.113465
O7	O	1.592414	0.361393	0.113463
Zn8	Zn	1.410120	0.344434	0.149503
Zn9	Zn	1.456926	0.318982	-0.149561
O10	O	1.406111	0.462181	0.113448
C11	C	1.211657	0.304292	-0.000028
C12	C	1.076942	0.282266	-0.000027
C13	C	1.442372	0.179478	-0.000012
C14	C	1.439973	0.085869	-0.000008
C15	C	1.003141	0.343085	-0.000036
C16	C	0.863905	0.320321	-0.000034
C17	C	1.317329	-0.203306	-0.000035
C18	C	1.393976	-0.153307	-0.111952
C19	C	1.431425	-0.251071	-0.000046
C20	C	1.358981	-0.134283	0.111839
C21	C	1.435618	-0.085521	-0.000025
C22	C	1.508057	-0.202312	-0.112056
C23	C	1.473029	-0.183286	0.111835
C24	C	1.549764	-0.133309	-0.000109
C25	C	1.429007	-0.346440	-0.000060
C26	C	1.438048	0.009846	-0.000022
C27	C	1.655389	0.359122	-0.000033
C28	C	1.790105	0.381148	-0.000043
C29	C	1.424674	0.483937	-0.000050
C30	C	1.427075	0.577545	-0.000062
N31	N	1.378184	0.361805	0.353606
N32	N	1.488871	0.301605	-0.353664
C33	C	1.445807	0.325019	0.421390
C34	C	1.421238	0.338396	0.578555
H35	H	1.043036	0.412008	-0.000037
N36	N	1.325779	0.390322	0.651720
N37	N	1.305952	0.401111	0.779287
H38	H	1.238534	0.437782	0.830964
H39	H	0.824020	0.251391	-0.000060
H40	H	1.037051	0.213341	-0.000052
N41	N	1.514822	-0.200383	0.230544
N42	N	1.445167	-0.242678	0.313222
H43	H	1.474672	-0.254755	0.397071
H44	H	1.302096	0.403198	0.411925
N45	N	1.673131	-0.095231	-0.000154
N46	N	1.728429	-0.101880	0.095026
H47	H	1.815558	-0.074989	0.094991
H48	H	0.829993	0.450076	-0.000044
H49	H	1.295969	-0.104604	0.206453
H50	H	1.219086	-0.233821	-0.000144
H51	H	1.360600	-0.139709	-0.206569
N52	N	1.587063	-0.239435	-0.230872
N53	N	1.597952	-0.317807	-0.250076
H54	H	1.653749	-0.344028	-0.333988
N55	N	1.584311	0.249663	0.573174
N56	N	1.604133	0.238865	0.445607
H57	H	1.671536	0.202181	0.393933
N58	N	1.541242	0.273080	0.348220
N59	N	1.561061	0.262284	0.220653
H60	H	1.628463	0.225600	0.168976
