data_functionalizedCrystal
_audit_creation_method	'MofGen! by Chris Wilmer'
_symmetry_space_group_name_H-M	'P1'
_symmetry_Int_Tables_number	1
_symmetry_cell_setting	triclinic
loop_
_symmetry_equiv_pos_as_xyz
  x,y,z
_cell_length_a	26.210047
_cell_length_b	9.065218
_cell_length_c	9.065218
_cell_angle_alpha	85.015885
_cell_angle_beta	90.006429
_cell_angle_gamma	89.990767
loop_
_atom_site_label
_atom_site_type_symbol
_atom_site_fract_x
_atom_site_fract_y
_atom_site_fract_z
O1	O	0.042428	-1.960413	-0.216336
O2	O	0.042429	-1.531129	-0.234082
O3	O	0.042427	-1.754644	-0.010567
O4	O	0.042429	-1.736898	-0.439851
O5	O	-0.042431	-1.754601	-0.010601
O6	O	-0.042429	-1.531085	-0.234117
O7	O	-0.042430	-1.960370	-0.216371
Cu8	Cu	-0.050178	-1.745724	-0.225247
Cu9	Cu	0.050177	-1.745775	-0.225206
O10	O	-0.042429	-1.736854	-0.439886
C11	C	-0.000000	-1.476120	-0.232394
C12	C	-0.000000	-1.312277	-0.227294
N13	N	-0.120762	-1.745698	-0.225275
C14	C	-0.000001	-1.752917	0.044403
C15	C	0.000001	-1.747817	0.208245
C16	C	-0.473277	-1.844738	-0.126256
C17	C	-0.686935	-1.844770	-0.126236
O18	O	-0.714558	-1.928920	-0.042051
N19	N	-0.713656	-1.745782	-0.225174
C20	C	-0.686959	-1.646773	-0.324117
O21	O	-0.714589	-1.562568	-0.408259
C22	C	-0.473301	-1.646735	-0.324129
C23	C	-0.446583	-1.745739	-0.225194
C24	C	-0.446559	-1.943733	-0.027328
C25	C	-0.393147	-1.943729	-0.027340
C26	C	-0.366454	-1.844731	-0.126279
C27	C	-0.393172	-1.745735	-0.225206
C28	C	-0.446605	-1.547720	-0.423064
C29	C	-0.393187	-1.547716	-0.423055
C30	C	-0.366469	-1.646720	-0.324121
C31	C	-0.313067	-1.646733	-0.324156
N32	N	-0.286346	-1.745721	-0.225218
C33	C	-0.313039	-1.844719	-0.126279
C34	C	-0.799132	-1.646802	-0.324106
C35	C	-0.852546	-1.646813	-0.324105
C36	C	-0.852519	-1.844808	-0.126221
C37	C	-0.799104	-1.844803	-0.126231
C38	C	-0.772411	-1.745790	-0.225168
C39	C	-0.200872	-1.844705	-0.126312
C40	C	-0.147455	-1.844697	-0.126336
C41	C	-0.147487	-1.646697	-0.324214
C42	C	-0.200899	-1.646710	-0.324196
C43	C	-0.227590	-1.745719	-0.225232
O44	O	-0.285411	-1.562616	-0.408285
O45	O	-0.285400	-1.928889	-0.042128
C46	C	-0.526688	-1.844741	-0.126244
C47	C	-0.553406	-1.745746	-0.225172
C48	C	-0.526712	-1.646748	-0.324110
C49	C	-0.606820	-1.745757	-0.225171
C50	C	-0.633514	-1.844756	-0.126232
C51	C	-0.606793	-1.943744	-0.027294
C52	C	-0.553381	-1.943740	-0.027305
C53	C	-0.553433	-1.547760	-0.423048
C54	C	-0.606845	-1.547773	-0.423030
C55	C	-0.633538	-1.646771	-0.324091
N56	N	0.120760	-1.745812	-0.225166
C57	C	0.000000	-2.015378	-0.218059
C58	C	0.000003	-2.179221	-0.223158
C59	C	0.000001	-1.738582	-0.494855
C60	C	0.000002	-1.743681	-0.658698
H61	H	-0.125703	-1.925323	-0.045772
Br62	Br	-0.517129	-2.078110	0.106968
H63	H	-0.468288	-2.024349	0.053246
H64	H	-0.222653	-1.566106	-0.404771
H65	H	-0.628595	-1.467155	-0.503607
H66	H	-0.777402	-1.566171	-0.404676
H67	H	-0.468351	-1.467101	-0.503624
H68	H	-0.222597	-1.925326	-0.045725
Br69	Br	-0.356893	-2.078089	0.106940
H70	H	-0.531703	-1.467141	-0.503615
H71	H	-0.371456	-1.467082	-0.503621
Br72	Br	-0.643030	-2.078105	0.106972
Br73	Br	-0.762850	-1.979171	0.008042
Br74	Br	-0.888757	-1.979163	0.008051
H75	H	-0.874296	-1.566210	-0.404682
H76	H	-0.125745	-1.566098	-0.404773
