data_functionalizedCrystal
_audit_creation_method	'MofGen! by Chris Wilmer'
_symmetry_space_group_name_H-M	'P1'
_symmetry_Int_Tables_number	1
_symmetry_cell_setting	triclinic
loop_
_symmetry_equiv_pos_as_xyz
  x,y,z
_cell_length_a	11.026607
_cell_length_b	14.853559
_cell_length_c	9.482900
_cell_angle_alpha	99.349447
_cell_angle_beta	78.636152
_cell_angle_gamma	96.108735
loop_
_atom_site_label
_atom_site_type_symbol
_atom_site_fract_x
_atom_site_fract_y
_atom_site_fract_z
O1	O	1.629678	0.366574	-0.120882
O2	O	1.276302	0.323574	-0.120886
O3	O	1.462434	0.215368	-0.120882
O4	O	1.443545	0.474780	-0.120885
O5	O	1.424626	0.237460	0.120910
O6	O	1.238494	0.345666	0.120906
O7	O	1.591870	0.388666	0.120910
Cu8	Cu	1.411730	0.369183	0.142985
Cu9	Cu	1.456442	0.343057	-0.142961
O10	O	1.405738	0.496872	0.120906
C11	C	1.212174	0.326687	0.000010
C12	C	1.077421	0.303039	0.000008
C13	C	1.003723	0.368334	0.000007
C14	C	0.864449	0.343895	0.000005
C15	C	1.442677	0.192687	0.000011
C16	C	1.440119	0.092189	0.000003
C17	C	1.449871	-0.344780	-0.131798
C18	C	1.408651	-0.320690	0.131813
C19	C	1.411066	-0.226267	0.131814
C20	C	1.432881	-0.191096	0.000007
C21	C	1.452282	-0.250349	-0.131801
C22	C	1.391653	-0.167008	0.263619
C23	C	1.394065	-0.072578	0.263626
C24	C	1.415890	-0.037406	0.131818
C25	C	1.435293	-0.096665	0.000004
C26	C	1.457108	-0.061495	-0.131802
C27	C	1.476520	-0.120752	-0.263617
C28	C	1.474107	-0.215177	-0.263609
C29	C	1.418303	0.057019	0.131810
C30	C	1.459520	0.032936	-0.131805
C31	C	1.655998	0.385552	0.000011
C32	C	1.790753	0.409199	0.000003
C33	C	1.425496	0.519553	0.000010
C34	C	1.428055	0.620049	0.000009
N35	N	1.380291	0.387560	0.344105
N36	N	1.487890	0.324674	-0.344081
C37	C	1.447160	0.348471	0.416305
C38	C	1.421011	0.363769	0.583722
H39	H	0.830757	0.483200	0.000012
C40	C	1.023859	0.204419	-0.000067
C41	C	0.896376	0.199780	-0.000105
C42	C	0.847001	0.108943	-0.000195
H43	H	1.037129	0.182849	0.084226
H44	H	1.063564	0.167516	-0.084421
H45	H	0.856683	0.236670	0.084240
H46	H	0.883072	0.221332	-0.084392
H47	H	0.886706	0.072040	-0.084549
H48	H	0.860279	0.087381	0.084100
H49	H	0.760501	0.105782	-0.000235
C50	C	1.056933	0.467018	-0.000219
C51	C	1.036996	0.498447	-0.124599
C52	C	1.085978	0.589356	-0.124846
H53	H	1.143460	0.470450	-0.000291
H54	H	1.017136	0.503940	0.084054
H55	H	1.076797	0.461535	-0.208850
H56	H	0.950481	0.495038	-0.124553
H57	H	1.046181	0.626278	-0.040572
H58	H	1.172502	0.592779	-0.124914
H59	H	1.072448	0.610694	-0.209228
C60	C	1.372968	-0.008101	0.406581
C61	C	1.379725	0.082120	0.378374
C62	C	1.360286	0.141541	0.510028
H63	H	1.434800	-0.013913	0.460844
H64	H	1.293347	-0.023175	0.460751
H65	H	1.459336	0.097189	0.324227
H66	H	1.317896	0.087961	0.324133
H67	H	1.280665	0.126468	0.564198
H68	H	1.422120	0.135721	0.564281
H69	H	1.364856	0.202762	0.490908
H70	H	1.477290	0.061564	-0.239140
C71	C	1.589771	0.264776	0.572838
C72	C	1.595311	0.261378	0.423303
C73	C	1.689037	0.206113	0.346724
H74	H	1.572203	0.204730	0.597721
H75	H	1.667170	0.289652	0.597429
H76	H	1.517929	0.236499	0.398722
H77	H	1.612895	0.321410	0.398376
H78	H	1.766436	0.230990	0.371315
H79	H	1.671460	0.146071	0.371619
H80	H	1.692816	0.203808	0.245257
H81	H	1.494274	-0.092105	-0.370934
H82	H	1.303678	0.432347	0.406234
C83	C	1.367720	-0.205169	0.406749
C84	C	1.251509	-0.181763	0.486266
C85	C	1.229420	-0.216920	0.618116
H86	H	1.430264	-0.180175	0.461082
H87	H	1.369001	-0.269898	0.387910
H88	H	1.250239	-0.117046	0.505109
H89	H	1.188942	-0.206756	0.431977
H90	H	1.230700	-0.281650	0.599277
H91	H	1.291970	-0.191924	0.672436
H92	H	1.150565	-0.201052	0.672079
H93	H	0.824447	0.269892	-0.000031
H94	H	1.465680	-0.393031	-0.239119
H95	H	1.489910	-0.263432	-0.370926
H96	H	1.390882	-0.349332	0.239124
H97	H	1.402471	0.105260	0.239131
H98	H	1.523764	0.303675	0.354179
H99	H	1.344394	0.408559	0.645846
