data_functionalizedCrystal
_audit_creation_method	'MofGen! by Chris Wilmer'
_symmetry_space_group_name_H-M	'P1'
_symmetry_Int_Tables_number	1
_symmetry_cell_setting	triclinic
loop_
_symmetry_equiv_pos_as_xyz
  x,y,z
_cell_length_a	10.540535
_cell_length_b	14.971486
_cell_length_c	14.048226
_cell_angle_alpha	89.996377
_cell_angle_beta	90.008451
_cell_angle_gamma	84.068886
loop_
_atom_site_label
_atom_site_type_symbol
_atom_site_fract_x
_atom_site_fract_y
_atom_site_fract_z
O1	O	0.165426	1.187870	0.079054
O2	O	0.665426	1.687870	0.579054
O3	O	0.185235	0.927582	0.079080
O4	O	0.685235	1.427582	0.579080
O5	O	-0.009444	1.063666	0.079057
O6	O	0.490556	1.563666	0.579057
O7	O	0.360105	1.051786	0.079077
O8	O	0.860105	1.551786	0.579077
O9	O	-0.009460	1.063663	-0.079264
O10	O	0.490540	1.563663	0.420736
O11	O	0.185219	0.927579	-0.079241
O12	O	0.685219	1.427579	0.420759
O13	O	0.165410	1.187867	-0.079267
O14	O	0.665410	1.687867	0.420733
Zn15	Zn	0.175312	1.057723	-0.104391
Zn16	Zn	0.675312	1.557723	0.395609
Zn17	Zn	0.175333	1.057726	0.104204
Zn18	Zn	0.675333	1.557726	0.604204
O19	O	0.360089	1.051783	-0.079244
O20	O	0.860089	1.551783	0.420756
C21	C	0.184342	0.894250	-0.000077
C22	C	0.684342	1.394250	0.499923
C23	C	0.181687	0.794938	-0.000067
C24	C	0.681687	1.294938	0.499933
C25	C	-0.056745	1.062775	-0.000104
C26	C	0.443255	1.562775	0.499896
C27	C	-0.197663	1.060112	-0.000105
C28	C	0.302337	1.560112	0.499895
C29	C	0.296055	0.738356	-0.000062
C30	C	0.796055	1.238356	0.499938
C31	C	0.293553	0.645043	-0.000077
C32	C	0.793553	1.145043	0.499923
C33	C	0.176681	0.608313	-0.000089
C34	C	0.676681	1.108313	0.499911
C35	C	0.062304	0.664903	-0.000097
C36	C	0.562304	1.164903	0.499903
C37	C	0.064807	0.758214	-0.000090
C38	C	0.564807	1.258214	0.499910
C39	C	0.057094	0.470411	-0.000110
C40	C	0.557094	0.970411	0.499890
C41	C	0.054590	0.377093	-0.000116
C42	C	0.554590	0.877093	0.499884
C43	C	0.285840	0.357239	-0.000098
C44	C	0.785840	0.857239	0.499902
C45	C	0.288343	0.450551	-0.000090
C46	C	0.788343	0.950551	0.499910
C47	C	0.173965	0.507134	-0.000096
C48	C	0.673965	1.007134	0.499904
C49	C	-0.233206	0.960753	-0.000088
C50	C	0.266794	1.460753	0.499912
C51	C	-0.379775	0.957951	0.000288
C52	C	0.120225	1.457951	0.500288
C53	C	-0.407493	1.105469	0.090145
C54	C	0.092507	1.605469	0.590145
C55	C	-0.260752	1.107583	0.090204
C56	C	0.239248	1.607583	0.590204
C57	C	-0.260925	1.109025	-0.089844
C58	C	0.239075	1.609025	0.410156
C59	C	-0.407219	1.104430	-0.091012
C60	C	0.092781	1.604430	0.408988
C61	C	0.407390	1.052674	-0.000081
C62	C	0.907390	1.552674	0.499919
C63	C	0.548308	1.055337	-0.000074
C64	C	1.048308	1.555337	0.499926
C65	C	0.166304	1.221199	-0.000108
C66	C	0.666304	1.721199	0.499892
C67	C	0.168958	1.320511	-0.000111
C68	C	0.668958	1.820511	0.499889
N69	N	0.175338	1.057730	0.246565
N70	N	0.675338	1.557730	0.746565
N71	N	0.175297	1.057726	-0.246752
N72	N	0.675297	1.557726	0.253248
C73	C	0.089304	1.118102	0.296373
C74	C	0.589304	1.618102	0.796373
C75	C	0.089300	1.118106	0.396030
C76	C	0.589300	1.618106	0.896030
C77	C	0.175325	1.057732	0.445878
C78	C	0.675325	1.557732	0.945878
C79	C	0.261368	0.997356	0.396064
C80	C	0.761368	1.497356	0.896064
C81	C	0.261378	0.997358	0.296408
C82	C	0.761378	1.497358	0.796408
C83	C	0.261341	0.997356	0.603778
C84	C	0.761341	1.497356	1.103778
C85	C	0.261331	0.997354	0.703441
C86	C	0.761331	1.497354	1.203441
C87	C	0.089264	1.118105	0.703400
C88	C	0.589264	1.618105	1.203400
C89	C	0.089273	1.118106	0.603744
C90	C	0.589273	1.618106	1.103744
C91	C	0.175315	1.057729	0.553937
C92	C	0.675315	1.557729	1.053937
H93	H	0.391226	0.768253	-0.000052
H94	H	0.891226	1.268253	0.499948
H95	H	-0.028324	0.804284	-0.000093
H96	H	0.471676	1.304284	0.499907
Cl97	Cl	-0.424410	0.897414	-0.099537
Cl98	Cl	0.075590	1.397414	0.400463
H99	H	-0.040578	0.347191	-0.000128
H100	H	0.459422	0.847191	0.499872
Cl101	Cl	-0.086698	0.541543	-0.000120
Cl102	Cl	0.413302	1.041543	0.499880
H103	H	0.386684	0.598977	-0.000072
H104	H	0.886684	1.098977	0.499928
H105	H	-0.032856	0.634990	-0.000121
H106	H	0.467144	1.134990	0.499879
Cl107	Cl	0.429630	0.286107	-0.000092
Cl108	Cl	0.929630	0.786107	0.499908
H109	H	-0.190817	0.922597	-0.064780
H110	H	0.309183	1.422597	0.435220
Cl111	Cl	0.435271	0.496724	-0.000064
Cl112	Cl	0.935271	0.996724	0.499936
H113	H	-0.189308	0.923239	0.064522
H114	H	0.310692	1.423239	0.564522
Cl115	Cl	-0.423008	0.897726	0.100750
Cl116	Cl	0.076992	1.397726	0.600750
H117	H	-0.220181	1.073730	0.157910
H118	H	0.279819	1.573730	0.657910
Cl119	Cl	-0.450763	1.048107	-0.194066
Cl120	Cl	0.049237	1.548107	0.305934
H121	H	-0.238547	1.180421	0.094039
H122	H	0.261453	1.680421	0.594039
Cl123	Cl	-0.481858	1.216176	0.094929
Cl124	Cl	0.018142	1.716176	0.594929
H125	H	-0.239559	1.182126	-0.090731
H126	H	0.260441	1.682126	0.409269
Cl127	Cl	-0.018903	1.194004	0.766019
Cl128	Cl	0.481097	1.694004	1.266019
Cl129	Cl	-0.454573	1.052373	0.194226
Cl130	Cl	0.045427	1.552373	0.694226
Cl131	Cl	-0.484100	1.214198	-0.099820
Cl132	Cl	0.015900	1.714198	0.400180
Cl133	Cl	-0.194857	1.061153	-0.195466
Cl134	Cl	0.305143	1.561153	0.304534
Cl135	Cl	0.369545	0.921460	0.233793
Cl136	Cl	0.869545	1.421460	0.733793
Cl137	Cl	-0.018855	1.194002	0.233717
Cl138	Cl	0.481145	1.694002	0.733717
H139	H	0.019246	1.167266	0.436583
H140	H	0.519246	1.667266	0.936583
Cl141	Cl	-0.018880	1.193999	0.541076
Cl142	Cl	0.481120	1.693999	1.041076
H143	H	0.331383	0.948192	0.744022
H144	H	0.831383	1.448192	1.244022
Cl145	Cl	0.369515	0.921454	0.541166
Cl146	Cl	0.869515	1.421454	1.041166
Cl147	Cl	0.369522	0.921460	0.458728
Cl148	Cl	0.869522	1.421460	0.958728
