data_functionalizedCrystal
_audit_creation_method	'MofGen! by Chris Wilmer'
_symmetry_space_group_name_H-M	'P1'
_symmetry_Int_Tables_number	1
_symmetry_cell_setting	triclinic
loop_
_symmetry_equiv_pos_as_xyz
  x,y,z
_cell_length_a	17.038272
_cell_length_b	10.654550
_cell_length_c	9.130313
_cell_angle_alpha	90.004369
_cell_angle_beta	89.997839
_cell_angle_gamma	87.798243
loop_
_atom_site_label
_atom_site_type_symbol
_atom_site_fract_x
_atom_site_fract_y
_atom_site_fract_z
O1	O	-1.038890	-0.272864	-0.121616
O2	O	-0.538890	0.227136	0.378384
O3	O	-0.811235	-0.268532	-0.121659
O4	O	-0.311235	0.231468	0.378341
O5	O	-0.930297	-0.088445	-0.121627
O6	O	-0.430297	0.411555	0.378373
O7	O	-0.919828	-0.452951	-0.121647
O8	O	-0.419828	0.047049	0.378353
O9	O	-0.930288	-0.088438	0.121972
O10	O	-0.430288	0.411562	0.621972
O11	O	-0.811227	-0.268525	0.121940
O12	O	-0.311227	0.231475	0.621940
O13	O	-1.038882	-0.272858	0.121983
O14	O	-0.538882	0.227142	0.621983
Cu15	Cu	-0.925053	-0.270691	0.144204
Cu16	Cu	-0.425053	0.229309	0.644204
Cu17	Cu	-0.925063	-0.270699	-0.143880
Cu18	Cu	-0.425063	0.229301	0.356120
O19	O	-0.919820	-0.452945	0.121951
O20	O	-0.419820	0.047055	0.621951
C21	C	-0.782081	-0.264588	0.000135
C22	C	-0.282081	0.235412	0.500135
C23	C	-0.695222	-0.252831	0.000119
C24	C	-0.195222	0.247169	0.500119
C25	C	-0.929524	-0.041572	0.000171
C26	C	-0.429524	0.458428	0.500171
C27	C	-0.927224	0.098084	0.000169
C28	C	-0.427224	0.598084	0.500169
C29	C	-1.068036	-0.276802	0.000186
C30	C	-0.568036	0.223198	0.500186
C31	C	-1.154895	-0.288559	0.000193
C32	C	-0.654895	0.211441	0.500193
C33	C	-0.645711	-0.360775	0.000114
C34	C	-0.145711	0.139225	0.500114
C35	C	-0.564098	-0.349720	0.000135
C36	C	-0.064098	0.150280	0.500135
C37	C	-0.531999	-0.230720	0.000150
C38	C	-0.031999	0.269280	0.500150
C39	C	-0.581517	-0.122768	0.000159
C40	C	-0.081517	0.377232	0.500159
C41	C	-0.663127	-0.133824	0.000149
C42	C	-0.163127	0.366176	0.500149
C43	C	-0.286023	-0.191663	0.000192
C44	C	0.213977	0.308337	0.500192
C45	C	-0.204406	-0.180615	0.000197
C46	C	0.295594	0.319385	0.500197
C47	C	-0.186993	-0.407568	0.000176
C48	C	0.313007	0.092432	0.500176
C49	C	-0.268606	-0.418614	0.000157
C50	C	0.231394	0.081386	0.500157
C51	C	-0.318117	-0.310661	0.000174
C52	C	0.181883	0.189339	0.500174
C53	C	-0.448578	-0.219418	0.000167
C54	C	0.051422	0.280582	0.500167
C55	C	-0.401536	-0.321965	0.000167
C56	C	0.098464	0.178035	0.500167
C57	C	-0.920593	-0.499817	0.000150
C58	C	-0.420593	0.000183	0.500150
C59	C	-0.922892	-0.639474	0.000143
C60	C	-0.422892	-0.139474	0.500143
N61	N	-0.925052	-0.270686	0.346827
N62	N	-0.425052	0.229314	0.846827
C63	C	-0.997326	0.171061	0.000182
C64	C	-0.497326	0.671061	0.500182
C65	C	-0.995160	0.302283	0.000163
C66	C	-0.495160	0.802283	0.500163
C67	C	-0.852785	0.287540	0.000126
C68	C	-0.352785	0.787540	0.500126
C69	C	-0.854952	0.156320	0.000133
C70	C	-0.354952	0.656320	0.500133
N71	N	-0.925070	-0.270695	-0.346502
N72	N	-0.425070	0.229305	0.153498
C73	C	-0.977791	-0.190981	0.423493
C74	C	-0.477791	0.309019	0.923493
C75	C	-0.977798	-0.190982	0.576829
C76	C	-0.477798	0.309018	1.076829
C77	C	-0.872326	-0.350403	0.576821
C78	C	-0.372326	0.149597	1.076821
C79	C	-0.872316	-0.350395	0.423487
C80	C	-0.372316	0.149605	0.923487
H81	H	-0.671839	-0.457677	0.000101
H82	H	-0.171839	0.042323	0.500101
Br83	Br	-1.049371	-0.082800	0.680874
Br84	Br	-0.549371	0.417200	1.180874
Br85	Br	-1.095409	0.092030	0.000230
Br86	Br	-0.595409	0.592030	0.500230
Br87	Br	-0.496907	-0.496223	0.000123
Br88	Br	0.003093	0.003777	0.500123
H89	H	-1.020731	-0.126075	0.361080
H90	H	-0.520731	0.373925	0.861080
H91	H	-0.829390	-0.415303	0.639253
H92	H	-0.329390	0.084697	1.139253
H93	H	-0.829366	-0.415300	0.361061
H94	H	-0.329366	0.084700	0.861061
H95	H	-1.052244	0.361695	0.000170
H96	H	-0.552244	0.861695	0.500170
Br97	Br	-0.754706	0.366582	0.000073
Br98	Br	-0.254706	0.866582	0.500073
H99	H	-0.294735	-0.515516	0.000127
H100	H	0.205265	-0.015516	0.500127
H101	H	-0.178274	-0.083706	0.000208
H102	H	0.321726	0.416294	0.500208
Br103	Br	-0.119797	-0.554066	0.000154
Br104	Br	0.380203	-0.054066	0.500154
H105	H	-0.703439	-0.045924	0.000152
H106	H	-0.203439	0.454076	0.500152
H107	H	-0.326325	-0.103759	0.000207
H108	H	0.173675	0.396241	0.500207
H109	H	-0.555375	-0.025876	0.000193
H110	H	-0.055375	0.474124	0.500193
H111	H	-0.422434	-0.122528	0.000221
H112	H	0.077566	0.377472	0.500221
Br113	Br	-0.759807	0.057272	0.000096
Br114	Br	-0.259807	0.557272	0.500096
H115	H	-0.427675	-0.418854	0.000163
H116	H	0.072325	0.081146	0.500163
