data_functionalizedCrystal
_audit_creation_method	'MofGen! by Chris Wilmer'
_symmetry_space_group_name_H-M	'P1'
_symmetry_Int_Tables_number	1
_symmetry_cell_setting	triclinic
loop_
_symmetry_equiv_pos_as_xyz
  x,y,z
_cell_length_a	12.837943
_cell_length_b	10.654550
_cell_length_c	11.892095
_cell_angle_alpha	93.928097
_cell_angle_beta	85.689438
_cell_angle_gamma	89.656922
loop_
_atom_site_label
_atom_site_type_symbol
_atom_site_fract_x
_atom_site_fract_y
_atom_site_fract_z
O1	O	1.384377	0.319511	-0.093978
O2	O	1.082456	0.303370	-0.093985
O3	O	1.240358	0.129459	-0.093977
O4	O	1.226475	0.493422	-0.093986
O5	O	1.227192	0.143935	0.094030
O6	O	1.069290	0.317845	0.094022
O7	O	1.371211	0.333987	0.094029
Zn8	Zn	1.218160	0.328214	0.123876
Zn9	Zn	1.235507	0.309142	-0.123831
O10	O	1.213309	0.507898	0.094021
C11	C	1.037213	0.305155	0.000018
C12	C	0.922020	0.288892	0.000015
C13	C	1.232756	0.089788	0.000025
C14	C	1.229706	-0.049989	0.000021
C15	C	0.682466	0.484397	0.000027
C16	C	0.574230	0.469123	0.000025
C17	C	0.597310	0.243071	0.000018
C18	C	0.705546	0.258345	0.000020
C19	C	0.748119	0.379012	0.000023
C20	C	0.856358	0.394285	0.000016
C21	C	0.879435	0.168234	0.000017
C22	C	0.771199	0.152960	0.000016
C23	C	1.322676	-0.119329	0.000027
C24	C	1.319805	-0.250664	0.000019
C25	C	1.130985	-0.243306	0.000004
C26	C	1.133858	-0.111974	0.000004
C27	C	1.418525	-0.057343	0.000044
C28	C	1.511502	-0.126683	0.000050
C29	C	1.508631	-0.258018	0.000042
C30	C	1.412782	-0.320013	0.000028
C31	C	1.416454	0.332202	0.000024
C32	C	1.531648	0.348464	0.000019
C33	C	1.220912	0.547569	0.000017
C34	C	1.223962	0.687345	0.000013
N35	N	1.206330	0.341231	0.292929
N36	N	1.247346	0.296117	-0.292885
C37	C	1.329670	0.205471	0.529583
C38	C	1.321408	0.214579	0.647925
C39	C	1.181539	0.368549	0.647956
C40	C	1.189801	0.359440	0.529614
C41	C	1.263870	0.277900	0.470432
C42	C	1.272137	0.268799	0.352089
C43	C	1.132263	0.422761	0.352122
C44	C	1.124001	0.431870	0.470463
H45	H	0.891019	0.492538	0.000020
C46	C	1.409620	-0.464479	0.000012
H47	H	1.339223	-0.491465	-0.000001
H48	H	1.439247	-0.490510	0.065571
H49	H	1.448427	-0.500585	-0.065561
C50	C	0.729302	0.617120	0.000019
H51	H	0.674698	0.677699	0.000024
H52	H	0.775636	0.622725	-0.065542
H53	H	0.766452	0.632827	0.065590
C54	C	1.025561	-0.311496	0.000002
H55	H	1.037165	-0.399643	0.000014
H56	H	0.991828	-0.293512	-0.065560
H57	H	0.982653	-0.283413	0.065573
H58	H	0.736520	0.054717	0.000027
H59	H	1.584339	-0.314472	0.000036
H60	H	1.078687	0.481742	0.303948
C61	C	0.550465	0.110353	0.000028
H62	H	0.476601	0.116356	0.000026
H63	H	0.568357	0.071463	0.065589
H64	H	0.577526	0.061366	-0.065544
H65	H	1.374988	0.155599	0.696082
H66	H	0.932903	0.082421	0.000006
H67	H	1.589541	-0.076201	0.000034
H68	H	0.520778	0.554939	0.000032
H69	H	1.332450	0.202409	0.303903
H70	H	1.420873	0.049596	0.000054
H71	H	1.058153	-0.055516	0.000001
H72	H	1.389987	0.139087	0.481396
C73	C	1.100069	0.458229	0.713069
H74	H	1.104579	0.453280	0.792020
H75	H	1.032084	0.434761	0.693690
H76	H	1.113300	0.541986	0.693680
H77	H	1.063692	0.498255	0.518663
