data_functionalizedCrystal
_audit_creation_method	'MofGen! by Chris Wilmer'
_symmetry_space_group_name_H-M	'P1'
_symmetry_Int_Tables_number	1
_symmetry_cell_setting	triclinic
loop_
_symmetry_equiv_pos_as_xyz
  x,y,z
_cell_length_a	12.759401
_cell_length_b	12.759400
_cell_length_c	12.759393
_cell_angle_alpha	89.969639
_cell_angle_beta	89.980663
_cell_angle_gamma	90.013730
loop_
_atom_site_label
_atom_site_type_symbol
_atom_site_fract_x
_atom_site_fract_y
_atom_site_fract_z
Zn1	Zn	1.606262	-0.418235	-0.593993
Zn2	Zn	1.606155	-0.593953	-0.418316
Zn3	Zn	1.430562	-0.418285	-0.418332
Zn4	Zn	1.430553	-0.593870	-0.593956
O5	O	1.518383	-0.506086	-0.506149
O6	O	1.753269	-0.441558	-0.570698
O7	O	1.582821	-0.570706	-0.271297
O8	O	1.453918	-0.271258	-0.441656
O9	O	1.753190	-0.570657	-0.441628
O10	O	1.583004	-0.271221	-0.570714
O11	O	1.453814	-0.441644	-0.271309
O12	O	1.283540	-0.441564	-0.441620
O13	O	1.453902	-0.570516	-0.740982
O14	O	1.283533	-0.570565	-0.570651
O15	O	1.582995	-0.441478	-0.741009
O16	O	1.582812	-0.740963	-0.441592
O17	O	1.453798	-0.740902	-0.570635
C18	C	1.245415	-0.506061	-0.506134
C19	C	1.128639	-0.506076	-0.506152
C20	C	0.964081	-0.439000	-0.573470
C21	C	1.073805	-0.438980	-0.573463
C22	C	1.073742	-0.573205	-0.438852
C23	C	0.964020	-0.573230	-0.438865
C24	C	1.518321	-0.779053	-0.506131
C25	C	1.518390	-0.895830	-0.506158
C26	C	1.585576	-0.950583	-0.573415
C27	C	1.585635	-1.060307	-0.573444
C28	C	1.451319	-1.060515	-0.438948
C29	C	1.451256	-0.950793	-0.438926
C30	C	1.792416	-0.506111	-0.506165
C31	C	1.909193	-0.506122	-0.506172
C32	C	1.518459	-0.505982	-0.780183
C33	C	1.518492	-0.505938	-0.896959
C34	C	1.518474	-0.232053	-0.506191
C35	C	1.518513	-0.115276	-0.506209
C36	C	1.585737	-0.438698	-1.061569
C37	C	1.585717	-0.438738	-0.951844
C38	C	1.451290	-0.573109	-0.951804
C39	C	1.451316	-0.573073	-1.061526
C40	C	1.518367	-0.506113	-0.233182
C41	C	1.518538	-0.505861	-0.116406
H42	H	1.118491	-0.384323	-0.628264
O43	O	1.386065	-1.114026	-0.373781
C44	C	1.318197	-1.177489	-0.433549
H45	H	1.355217	-1.193838	-0.513205
H46	H	1.304189	-1.254689	-0.390756
H47	H	1.240306	-1.135262	-0.445015
H48	H	1.118397	-0.627841	-0.384050
H49	H	1.640342	-1.104882	-0.628214
O50	O	0.910705	-0.373968	-0.638908
C51	C	0.847288	-0.433882	-0.706686
H52	H	0.830831	-0.513460	-0.669493
H53	H	0.770139	-0.391123	-0.720852
H54	H	0.889611	-0.445513	-0.784518
O55	O	0.910857	-0.638469	-0.373388
C56	C	0.982775	-0.697708	-0.313990
H57	H	1.060988	-0.654655	-0.310410
H58	H	0.951029	-0.708826	-0.231200
H59	H	0.994461	-0.777543	-0.352327
H60	H	1.640239	-0.905834	-0.628161
O61	O	1.386115	-0.638547	-0.898530
C62	C	1.409045	-0.743248	-0.925343
H63	H	1.492978	-0.748536	-0.955527
H64	H	1.399983	-0.795175	-0.853170
H65	H	1.352718	-0.770697	-0.989010
H66	H	1.640473	-0.383969	-1.106248
H67	H	1.396540	-0.906210	-0.384157
H68	H	1.640438	-0.384048	-0.907201
H69	H	1.396594	-0.627771	-1.106176
