data_functionalizedCrystal
_audit_creation_method	'MofGen! by Chris Wilmer'
_symmetry_space_group_name_H-M	'P1'
_symmetry_Int_Tables_number	1
_symmetry_cell_setting	triclinic
loop_
_symmetry_equiv_pos_as_xyz
  x,y,z
_cell_length_a	16.992694
_cell_length_b	14.472310
_cell_length_c	16.992695
_cell_angle_alpha	90.000759
_cell_angle_beta	90.668223
_cell_angle_gamma	90.007614
loop_
_atom_site_label
_atom_site_type_symbol
_atom_site_fract_x
_atom_site_fract_y
_atom_site_fract_z
O1	O	1.050861	0.076726	0.166912
O2	O	0.822461	0.076753	0.165081
O3	O	0.935745	0.076732	0.051796
O4	O	0.937576	0.076747	0.280196
O5	O	0.935714	-0.076950	0.051801
O6	O	0.822430	-0.076929	0.165086
O7	O	1.050830	-0.076956	0.166917
Cu8	Cu	0.936627	-0.090975	0.166002
Cu9	Cu	0.936663	0.090772	0.165996
O10	O	0.937546	-0.076935	0.280201
C11	C	0.793085	-0.000084	0.162727
C12	C	0.705600	-0.000074	0.155699
N13	N	0.936607	-0.218806	0.166006
C14	C	0.659610	-0.000071	0.223517
C15	C	0.577409	-0.000084	0.216908
C16	C	0.541201	-0.000094	0.142480
C17	C	0.587198	-0.000100	0.074657
C18	C	0.669397	-0.000094	0.081267
C19	C	0.295886	-0.000120	0.115086
C20	C	0.213681	-0.000124	0.108481
C21	C	0.203898	-0.000109	0.250732
C22	C	0.286099	-0.000097	0.257336
C23	C	0.332089	-0.000108	0.189512
N24	N	0.457178	-0.000104	0.135723
N25	N	0.416110	-0.000105	0.196270
C26	C	0.936662	-0.592897	0.165993
C27	C	0.875815	-0.553720	0.226378
C28	C	0.875980	-0.446632	0.226623
C29	C	0.936634	-0.407306	0.165999
C30	C	1.019894	-0.446151	0.189086
C31	C	1.019558	-0.553273	0.189521
C32	C	0.914970	-0.553429	0.082375
C33	C	0.913120	-0.446301	0.082808
C34	C	0.936624	-0.302418	0.166002
C35	C	0.936678	-0.697785	0.165992
C36	C	1.080205	-0.000116	0.169270
C37	C	1.167690	-0.000121	0.176299
C38	C	0.933374	-0.000108	0.022439
C39	C	0.926345	-0.000107	-0.065046
N40	N	0.936689	0.218603	0.165986
C41	C	0.994163	-0.000116	-0.111037
C42	C	0.987554	-0.000107	-0.193238
C43	C	0.913126	-0.000095	-0.229446
C44	C	0.845303	-0.000083	-0.183449
C45	C	0.851913	-0.000086	-0.101250
C46	C	0.885732	-0.000079	-0.474760
C47	C	0.879127	-0.000079	-0.556966
C48	C	1.021379	-0.000101	-0.566749
C49	C	1.027982	-0.000109	-0.484547
C50	C	0.960159	-0.000092	-0.438558
N51	N	0.906369	-0.000088	-0.313468
N52	N	0.966917	-0.000093	-0.354537
C53	C	0.939917	-0.000093	0.309559
C54	C	0.946945	-0.000088	0.397044
H55	H	0.689084	-0.000062	0.284124
C56	C	1.095979	-0.000109	-0.617335
H57	H	1.141251	-0.000122	-0.583997
H58	H	1.096369	0.053484	-0.649603
H59	H	1.096349	-0.053708	-0.649605
C60	C	1.062152	-0.000107	-0.243828
H61	H	1.047558	-0.000089	-0.297968
H62	H	1.092452	-0.053702	-0.232375
H63	H	1.092464	0.053490	-0.232358
C64	C	0.346465	-0.000126	0.040483
H65	H	0.313125	-0.000123	-0.004788
H66	H	0.378729	-0.053717	0.040104
H67	H	0.378738	0.053474	0.040100
C68	C	0.830346	-0.412010	0.059298
H69	H	0.810196	-0.374081	0.100004
H70	H	0.796498	-0.463507	0.051401
H71	H	0.833281	-0.377266	0.011990
H72	H	0.813906	-0.579501	0.212028
H73	H	0.315574	-0.000078	0.317942
H74	H	0.166444	-0.000102	0.305950
H75	H	0.184203	-0.000131	0.047870
H76	H	0.818516	-0.000084	-0.586443
C77	C	0.974819	-0.587660	0.021581
H78	H	0.961407	-0.563580	-0.028827
H79	H	0.973935	-0.653254	0.019740
H80	H	1.026043	-0.567250	0.036323
C81	C	1.109850	-0.000129	-0.444720
H82	H	1.104073	-0.000140	-0.389178
H83	H	1.138010	0.053456	-0.460196
H84	H	1.137972	-0.053735	-0.460206
C85	C	0.811129	-0.000077	-0.424182
H86	H	0.765859	-0.000082	-0.457521
H87	H	0.810754	0.053513	-0.391909
H88	H	0.810743	-0.053678	-0.391917
C89	C	0.895420	-0.411992	0.310300
H90	H	0.903256	-0.463389	0.344275
H91	H	0.853045	-0.375558	0.328948
H92	H	0.941970	-0.375670	0.309303
C93	C	0.547371	-0.000110	-0.007212
H94	H	0.491829	-0.000103	-0.001436
H95	H	0.562848	-0.053702	-0.035352
H96	H	0.562858	0.053489	-0.035351
H97	H	0.706842	-0.000096	0.026042
H98	H	1.054770	-0.000132	-0.081563
C99	C	0.792597	-0.411148	0.207031
H100	H	0.758316	-0.462203	0.198853
H101	H	0.793993	-0.374557	0.160658
H102	H	0.774031	-0.374808	0.249509
H103	H	1.037888	-0.578247	0.250660
C104	C	0.968571	-0.410157	0.018719
H105	H	1.006962	-0.370639	0.041963
H106	H	0.938967	-0.376714	-0.019538
H107	H	0.994012	-0.460829	-0.005797
H108	H	0.784703	-0.000067	-0.212936
H109	H	0.890036	-0.580627	0.287968
C110	C	0.777314	-0.000078	-0.050660
H111	H	0.732040	-0.000079	-0.083995
H112	H	0.776947	0.053514	-0.018389
H113	H	0.776924	-0.053678	-0.018392
H114	H	1.066524	-0.579187	0.147548
C115	C	1.082816	-0.411734	0.131550
H116	H	1.058810	-0.373272	0.092847
H117	H	1.106749	-0.463158	0.106652
H118	H	1.121701	-0.377518	0.159658
H119	H	0.539966	-0.000080	0.272133
C120	C	1.045075	-0.409903	0.270780
H121	H	1.095538	-0.433792	0.284227
H122	H	1.007986	-0.429224	0.308805
H123	H	1.047247	-0.344322	0.269701
C124	C	0.834339	-0.589947	0.054126
H125	H	0.813149	-0.629609	0.093070
H126	H	0.840511	-0.623313	0.006455
H127	H	0.799604	-0.539440	0.045448
