data_functionalizedCrystal
_audit_creation_method	'MofGen! by Chris Wilmer'
_symmetry_space_group_name_H-M	'P1'
_symmetry_Int_Tables_number	1
_symmetry_cell_setting	triclinic
loop_
_symmetry_equiv_pos_as_xyz
  x,y,z
_cell_length_a	16.625548
_cell_length_b	19.121063
_cell_length_c	19.120904
_cell_angle_alpha	94.741613
_cell_angle_beta	92.422750
_cell_angle_gamma	92.470058
loop_
_atom_site_label
_atom_site_type_symbol
_atom_site_fract_x
_atom_site_fract_y
_atom_site_fract_z
Zn1	Zn	1.198001	-0.297091	-0.409769
Zn2	Zn	1.531334	0.036242	-0.076436
Zn3	Zn	1.864668	0.369575	0.256897
Zn4	Zn	1.197901	-0.409738	-0.297120
Zn5	Zn	1.531235	-0.076405	0.036213
Zn6	Zn	1.864568	0.256928	0.369547
Zn7	Zn	1.069179	-0.292094	-0.292122
Zn8	Zn	1.402512	0.041239	0.041211
Zn9	Zn	1.735845	0.374573	0.374544
Zn10	Zn	1.057117	-0.414721	-0.414741
Zn11	Zn	1.390450	-0.081387	-0.081407
Zn12	Zn	1.723783	0.251946	0.251926
O13	O	1.130549	-0.353411	-0.353438
O14	O	1.463883	-0.020078	-0.020105
O15	O	1.797216	0.313256	0.313229
O16	O	1.310819	-0.312040	-0.394837
O17	O	1.644153	0.021293	-0.061504
O18	O	1.977486	0.354626	0.271829
O19	O	1.185832	-0.389956	-0.197997
O20	O	1.519166	-0.056623	0.135337
O21	O	1.852499	0.276711	0.468670
O22	O	1.091357	-0.194294	-0.303556
O23	O	1.424690	0.139039	0.029777
O24	O	1.758024	0.472373	0.363110
O25	O	1.310746	-0.394801	-0.312074
O26	O	1.644079	-0.061468	0.021259
O27	O	1.977413	0.271865	0.354592
O28	O	1.186002	-0.197966	-0.389991
O29	O	1.519336	0.135368	-0.056658
O30	O	1.852669	0.468701	0.276676
O31	O	1.091260	-0.303523	-0.194325
O32	O	1.424594	0.029810	0.139008
O33	O	1.757927	0.363143	0.472342
O34	O	0.954747	-0.308355	-0.308377
O35	O	1.288080	0.024979	0.024956
O36	O	1.621414	0.358312	0.358290
O37	O	1.070799	-0.403293	-0.512542
O38	O	1.404132	-0.069960	-0.179208
O39	O	1.737466	0.263373	0.154125
O40	O	0.945885	-0.398448	-0.398464
O41	O	1.279219	-0.065114	-0.065131
O42	O	1.612552	0.268219	0.268203
O43	O	1.174306	-0.316871	-0.508889
O44	O	1.507640	0.016462	-0.175556
O45	O	1.840973	0.349795	0.157778
O46	O	1.174136	-0.508862	-0.316895
O47	O	1.507469	-0.175529	0.016439
O48	O	1.840803	0.157805	0.349772
O49	O	1.070702	-0.512522	-0.403310
O50	O	1.404036	-0.179189	-0.069977
O51	O	1.737369	0.154144	0.263356
C52	C	0.921060	-0.353400	-0.353418
C53	C	1.254393	-0.020067	-0.020085
C54	C	1.587727	0.313267	0.313249
C55	C	0.831438	-0.353413	-0.353427
C56	C	1.164771	-0.020080	-0.020093
C57	C	1.498105	0.313254	0.313240
C58	C	1.121121	-0.536223	-0.361200
C59	C	1.454454	-0.202890	-0.027866
C60	C	1.787787	0.130444	0.305467
C61	C	1.117159	-0.614432	-0.364544
C62	C	1.450493	-0.281099	-0.031210
C63	C	1.783826	0.052235	0.302123
C64	C	0.503261	-0.353419	-0.353457
C65	C	0.836594	-0.020086	-0.020124
C66	C	1.169927	0.313248	0.313210
C67	C	0.594570	-0.353415	-0.353446
C68	C	0.927903	-0.020082	-0.020113
C69	C	1.261236	0.313251	0.313220
C70	C	0.667346	-0.353416	-0.353441
C71	C	1.000680	-0.020083	-0.020108
C72	C	1.334013	0.313250	0.313225
C73	C	0.758661	-0.353412	-0.353432
C74	C	1.091995	-0.020079	-0.020098
C75	C	1.425328	0.313255	0.313235
C76	C	1.169189	-0.649247	-0.321160
C77	C	1.502522	-0.315914	0.012173
C78	C	1.835856	0.017420	0.345507
C79	C	1.165468	-0.722733	-0.324309
C80	C	1.498802	-0.389399	0.009024
C81	C	1.832135	-0.056066	0.342358
C82	C	1.109713	-0.761402	-0.370839
C83	C	1.443047	-0.428069	-0.037505
C84	C	1.776380	-0.094735	0.295828
C85	C	1.057681	-0.726582	-0.414227
C86	C	1.391015	-0.393249	-0.080894
C87	C	1.724348	-0.059915	0.252440
C88	C	1.061407	-0.653098	-0.411081
C89	C	1.394740	-0.319764	-0.077748
C90	C	1.728073	0.013569	0.255586
C91	C	1.095772	-0.983374	-0.382590
C92	C	1.429106	-0.650040	-0.049257
C93	C	1.762439	-0.316707	0.284077
C94	C	1.092049	-1.056863	-0.385731
C95	C	1.425383	-0.723530	-0.052398
C96	C	1.758716	-0.390196	0.280935
C97	C	1.199838	-1.053009	-0.295814
C98	C	1.533171	-0.719675	0.037519
C99	C	1.866505	-0.386342	0.370853
C100	C	1.203555	-0.979523	-0.292669
C101	C	1.536888	-0.646190	0.040664
C102	C	1.870222	-0.312856	0.373998
C103	C	1.151526	-0.944710	-0.336060
C104	C	1.484859	-0.611376	-0.002727
C105	C	1.818193	-0.278043	0.330607
C106	C	1.105907	-0.836516	-0.374057
C107	C	1.439240	-0.503183	-0.040724
C108	C	1.772573	-0.169850	0.292609
C109	C	1.155337	-0.869597	-0.332845
C110	C	1.488670	-0.536263	0.000489
C111	C	1.822004	-0.202930	0.333822
C112	C	1.340857	-0.353422	-0.353459
C113	C	1.674190	-0.020089	-0.020125
C114	C	2.007523	0.313244	0.313208
C115	C	1.430477	-0.353427	-0.353467
C116	C	1.763811	-0.020094	-0.020134
C117	C	2.097144	0.313239	0.313199
C118	C	1.121218	-0.361196	-0.536959
C119	C	1.454552	-0.027862	-0.203625
C120	C	1.787885	0.305471	0.129708
C121	C	1.117242	-0.364513	-0.615164
C122	C	1.450575	-0.031180	-0.281831
C123	C	1.783909	0.302154	0.051502
C124	C	1.140036	-0.169886	-0.345662
C125	C	1.473370	0.163448	-0.012328
C126	C	1.806703	0.496781	0.321005
C127	C	1.144079	-0.091678	-0.342348
C128	C	1.477412	0.241655	-0.009014
C129	C	1.810746	0.574989	0.324319
C130	C	1.169262	-0.321078	-0.650005
C131	C	1.502595	0.012255	-0.316672
C132	C	1.835928	0.345588	0.016662
C133	C	1.165516	-0.324193	-0.723488
C134	C	1.498849	0.009141	-0.390154
C135	C	1.832182	0.342474	-0.056821
C136	C	1.109753	-0.370746	-0.762128
C137	C	1.443087	-0.037412	-0.428795
C138	C	1.776420	0.295921	-0.095461
C139	C	1.057728	-0.414182	-0.727282
C140	C	1.391061	-0.080849	-0.393949
C141	C	1.724395	0.252485	-0.060615
C142	C	1.061471	-0.411064	-0.653801
C143	C	1.394804	-0.077730	-0.320468
C144	C	1.728137	0.255603	0.012866
C145	C	1.095753	-0.382409	-0.984089
C146	C	1.429087	-0.049075	-0.650755
C147	C	1.762420	0.284258	-0.317422
C148	C	1.092016	-0.385525	-1.057575
C149	C	1.425350	-0.052192	-0.724241
C150	C	1.758683	0.281142	-0.390908
C151	C	1.199804	-0.295534	-1.053775
C152	C	1.533137	0.037799	-0.720442
C153	C	1.866470	0.371132	-0.387108
C154	C	1.203544	-0.292423	-0.980293
C155	C	1.536878	0.040910	-0.646959
C156	C	1.870211	0.374244	-0.313626
C157	C	1.151516	-0.335857	-0.945453
C158	C	1.484850	-0.002524	-0.612120
C159	C	1.818183	0.330810	-0.278787
C160	C	1.105925	-0.373932	-0.837239
C161	C	1.439258	-0.040598	-0.503906
C162	C	1.772591	0.292735	-0.170572
C163	C	1.155342	-0.332667	-0.870344
C164	C	1.488675	0.000666	-0.537010
C165	C	1.822008	0.334000	-0.203677
C166	C	1.139893	-0.345606	-0.170629
C167	C	1.473227	-0.012273	0.162704
C168	C	1.806560	0.321061	0.496037
C169	C	1.144036	-0.342090	-0.092416
C170	C	1.477369	-0.008757	0.240918
C171	C	1.810703	0.324576	0.574251
H172	H	1.214587	-0.617767	-0.283268
H173	H	1.547921	-0.284434	0.050066
H174	H	1.881254	0.048900	0.383399
Cl175	Cl	1.225433	-0.274138	-0.821766
Cl176	Cl	1.558766	0.059195	-0.488432
Cl177	Cl	1.892099	0.392529	-0.155099
H178	H	1.053407	-0.955034	-0.417919
H179	H	1.386740	-0.621701	-0.084586
H180	H	1.720073	-0.288368	0.248747
H181	H	1.053400	-0.417786	-0.955732
H182	H	1.386733	-0.084452	-0.622398
H183	H	1.720066	0.248881	-0.289065
Cl184	Cl	1.265203	-0.240933	-1.097577
Cl185	Cl	1.598536	0.092400	-0.764244
Cl186	Cl	1.931870	0.425734	-0.430911
H187	H	1.060526	-0.411838	-0.868708
H188	H	1.393860	-0.078505	-0.535375
H189	H	1.727193	0.254828	-0.202042
Cl190	Cl	0.987623	-0.472704	-0.775859
Cl191	Cl	1.320957	-0.139370	-0.442525
Cl192	Cl	1.654290	0.193963	-0.109192
H193	H	1.242198	-1.081362	-0.260489
H194	H	1.575531	-0.748029	0.072845
H195	H	1.908865	-0.414695	0.406178
Cl196	Cl	1.273649	-0.233897	-0.931721
Cl197	Cl	1.606983	0.099436	-0.598388
Cl198	Cl	1.940316	0.432769	-0.265055
H199	H	1.046656	-1.088346	-0.423634
H200	H	1.379989	-0.755013	-0.090300
H201	H	1.713323	-0.421680	0.243033
H202	H	1.019103	-0.446426	-0.625434
H203	H	1.352436	-0.113092	-0.292101
H204	H	1.685769	0.220241	0.041232
H205	H	1.207836	-0.751076	-0.288981
H206	H	1.541169	-0.417742	0.044352
H207	H	1.874503	-0.084409	0.377686
H208	H	1.046605	-0.423436	-1.089034
H209	H	1.379939	-0.090103	-0.755701
H210	H	1.713272	0.243231	-0.422367
Cl211	Cl	0.987593	-0.775195	-0.472726
Cl212	Cl	1.320926	-0.441862	-0.139393
Cl213	Cl	1.654260	-0.108528	0.193941
Cl214	Cl	1.273661	-0.930916	-0.234182
Cl215	Cl	1.606994	-0.597583	0.099151
Cl216	Cl	1.940328	-0.264249	0.432485
Cl217	Cl	0.995997	-0.609330	-0.465625
Cl218	Cl	1.329331	-0.275997	-0.132292
Cl219	Cl	1.662664	0.057337	0.201042
H220	H	1.200736	-0.838110	-0.294963
H221	H	1.534069	-0.504777	0.038371
H222	H	1.867402	-0.171444	0.371704
Cl223	Cl	1.035816	-0.885135	-0.432549
Cl224	Cl	1.369149	-0.551802	-0.099216
Cl225	Cl	1.702483	-0.218468	0.234118
Cl226	Cl	1.239371	-0.262555	-0.601436
Cl227	Cl	1.572704	0.070779	-0.268103
Cl228	Cl	1.906037	0.404112	0.065231
H229	H	1.207878	-0.288825	-0.751851
H230	H	1.541211	0.044508	-0.418518
H231	H	1.874544	0.377842	-0.085185
