data_functionalizedCrystal
_audit_creation_method	'MofGen! by Chris Wilmer'
_symmetry_space_group_name_H-M	'P1'
_symmetry_Int_Tables_number	1
_symmetry_cell_setting	triclinic
loop_
_symmetry_equiv_pos_as_xyz
  x,y,z
_cell_length_a	6.817900
_cell_length_b	16.255699
_cell_length_c	17.110486
_cell_angle_alpha	96.302418
_cell_angle_beta	99.060439
_cell_angle_gamma	103.489404
loop_
_atom_site_label
_atom_site_type_symbol
_atom_site_fract_x
_atom_site_fract_y
_atom_site_fract_z
V1	V	-3.976888	-0.116837	-0.246982
O2	O	-3.965374	0.005874	-0.242010
O3	O	-3.928724	-0.231918	-0.245553
O4	O	-3.906746	-0.114926	-0.354581
O5	O	-3.987504	-0.111928	-0.132227
V6	V	-4.463303	-0.102173	-0.233225
O7	O	-4.231804	-0.149004	-0.277159
O8	O	-4.658585	-0.070006	-0.203048
O9	O	-4.288260	0.012908	-0.234654
O10	O	-4.592214	-0.224884	-0.238197
O11	O	-4.570084	-0.107082	-0.347980
O12	O	-4.310238	-0.104084	-0.125626
C13	C	-3.774486	-0.259976	-0.241723
C14	C	-3.816248	-0.354055	-0.241272
C15	C	-3.746450	-0.110740	-0.380799
C16	C	-3.770386	-0.109939	-0.468763
C17	C	-3.727872	-0.576887	-0.236099
C18	C	-3.824390	-0.624571	-0.172334
C19	C	-3.892807	-0.526310	-0.240484
C20	C	-3.870725	-0.646259	-0.303452
C21	C	-3.966747	-0.692700	-0.239725
C22	C	-3.988757	-0.572745	-0.176671
C23	C	-4.035083	-0.594439	-0.307847
C24	C	-4.131723	-0.642098	-0.244069
C25	C	-3.850207	-0.430456	-0.240920
C26	C	-4.009360	-0.788551	-0.239284
C27	C	-3.962927	-0.113786	-0.514130
C28	C	-3.985406	-0.113033	-0.596781
C29	C	-3.815344	-0.108439	-0.634066
C30	C	-3.622786	-0.104589	-0.588693
C31	C	-3.600307	-0.105336	-0.506042
C32	C	-3.874143	-0.105966	-0.883415
C33	C	-3.896639	-0.105222	-0.966072
C34	C	-4.259257	-0.113665	-0.974155
C35	C	-4.236763	-0.114417	-0.891503
C36	C	-4.044207	-0.110562	-0.846137
C37	C	-3.838317	-0.107672	-0.718549
C38	C	-4.021232	-0.111324	-0.761654
C39	C	-4.105841	0.040961	-0.238481
C40	C	-4.043316	0.135039	-0.238938
C41	C	-4.133878	-0.108273	-0.099404
C42	C	-4.089180	-0.109070	-0.011439
H43	H	-3.735760	-0.638235	-0.115035
O44	O	-3.654947	-0.102758	-0.758789
H45	H	-3.592091	-0.158832	-0.749562
H46	H	-4.038212	-0.540833	-0.123036
H47	H	-4.302881	-0.670427	-0.247419
O48	O	-4.152377	-0.576293	-0.383740
H49	H	-4.102618	-0.605919	-0.436266
H50	H	-3.821193	-0.678271	-0.357015
H51	H	-4.101417	-0.117533	-0.483780
H52	H	-4.142187	-0.116161	-0.633715
O53	O	-4.420175	-0.119351	-0.851285
H54	H	-4.557835	-0.121887	-0.896716
O55	O	-4.466930	-0.117808	-1.023081
H56	H	-4.453996	-0.116507	-1.086816
H57	H	-3.717370	-0.102858	-0.846492
O58	O	-3.501194	-0.539132	-0.231535
H59	H	-3.477750	-0.508987	-0.285628
H60	H	-3.758142	-0.101478	-0.996426
H61	H	-3.484318	-0.100843	-0.619055
O62	O	-3.392642	-0.101192	-0.457105
H63	H	-3.278166	-0.097881	-0.496917
H64	H	-4.159693	-0.115062	-0.731293
