data_functionalizedCrystal
_audit_creation_method	'MofGen! by Chris Wilmer'
_symmetry_space_group_name_H-M	'P1'
_symmetry_Int_Tables_number	1
_symmetry_cell_setting	triclinic
loop_
_symmetry_equiv_pos_as_xyz
  x,y,z
_cell_length_a	16.109298
_cell_length_b	14.971507
_cell_length_c	14.048226
_cell_angle_alpha	89.994195
_cell_angle_beta	89.997285
_cell_angle_gamma	96.458575
loop_
_atom_site_label
_atom_site_type_symbol
_atom_site_fract_x
_atom_site_fract_y
_atom_site_fract_z
O1	O	0.108426	-1.186776	0.079173
O2	O	0.121383	-0.926360	0.079169
O3	O	-0.006117	-1.063723	0.079178
O4	O	0.235926	-1.049412	0.079164
O5	O	-0.006116	-1.063710	-0.079143
O6	O	0.121384	-0.926347	-0.079153
O7	O	0.108427	-1.186763	-0.079148
Zn8	Zn	0.114906	-1.056553	-0.104287
Zn9	Zn	0.114904	-1.056570	0.104308
O10	O	0.235928	-1.049399	-0.079157
C11	C	0.120801	-0.893030	0.000007
C12	C	0.119055	-0.793736	0.000006
C13	C	0.187297	-0.355354	0.000006
C14	C	0.188931	-0.448652	0.000011
C15	C	0.114020	-0.505981	0.000012
C16	C	0.037470	-0.470008	0.000017
C17	C	0.035837	-0.376712	0.000018
C18	C	0.040878	-0.664466	0.000012
C19	C	0.042511	-0.757769	0.000008
C20	C	0.193973	-0.736406	0.000004
C21	C	0.192340	-0.643110	0.000006
C22	C	0.115789	-0.607144	0.000009
C23	C	-0.037092	-1.063137	0.000021
C24	C	-0.129390	-1.061401	0.000032
C25	C	-0.428467	-1.055741	0.086313
C26	C	-0.341745	-1.057385	0.086320
C27	C	-0.341729	-1.057384	-0.086291
C28	C	-0.428450	-1.055747	-0.086297
C29	C	-0.471816	-1.054921	0.000008
C30	C	-0.298373	-1.058202	0.000021
C31	C	-0.204345	-1.059984	0.000027
C32	C	-0.565851	-1.053140	0.000002
C33	C	0.266903	-1.049985	0.000002
C34	C	0.359200	-1.051722	-0.000003
C35	C	0.109009	-0.220093	0.000011
C36	C	0.110753	-0.319387	0.000008
N37	N	0.114906	-1.056548	-0.246648
C38	C	0.064384	-1.002354	-0.703513
C39	C	0.064381	-1.002350	-0.603856
C40	C	0.114897	-1.056571	-0.554018
C41	C	0.165413	-1.110806	-0.603843
C42	C	0.165411	-1.110813	-0.703499
C43	C	0.165416	-1.110785	-0.396129
C44	C	0.165420	-1.110776	-0.296466
C45	C	0.064387	-1.002322	-0.296486
C46	C	0.064384	-1.002329	-0.396142
C47	C	0.114901	-1.056563	-0.445960
N48	N	0.114897	-1.056582	0.246669
H49	H	0.251261	-0.477932	0.000018
H50	H	0.206558	-1.154924	-0.255891
H51	H	-0.021457	-0.635186	0.000019
Cl52	Cl	-0.287252	-1.058420	0.194823
H53	H	0.023256	-0.958161	-0.255919
H54	H	-0.463773	-1.055068	0.156588
H55	H	-0.306410	-1.058055	-0.156557
H56	H	-0.023524	-0.516693	0.000023
H57	H	-0.463747	-1.055081	-0.156581
Cl58	Cl	0.281477	-0.283292	-0.000003
Cl59	Cl	0.000878	-0.934182	-0.766157
H60	H	0.253339	-0.596435	-0.000001
Cl61	Cl	0.228916	-1.178974	-0.541190
Cl62	Cl	0.000901	-0.934146	-0.541231
Cl63	Cl	0.290207	-0.781621	-0.000010
Cl64	Cl	0.000884	-0.934157	-0.458794
H65	H	-0.018488	-0.804444	0.000017
Cl66	Cl	0.228921	-1.178969	-0.458756
H67	H	0.206544	-1.154972	-0.744059
H68	H	-0.026493	-0.347429	0.000022
