data_functionalizedCrystal
_audit_creation_method	'MofGen! by Chris Wilmer'
_symmetry_space_group_name_H-M	'P1'
_symmetry_Int_Tables_number	1
_symmetry_cell_setting	triclinic
loop_
_symmetry_equiv_pos_as_xyz
  x,y,z
_cell_length_a	19.077212
_cell_length_b	18.050589
_cell_length_c	19.077237
_cell_angle_alpha	92.275368
_cell_angle_beta	85.294935
_cell_angle_gamma	92.320484
loop_
_atom_site_label
_atom_site_type_symbol
_atom_site_fract_x
_atom_site_fract_y
_atom_site_fract_z
Zn1	Zn	1.093705	-0.268145	-0.442029
Zn2	Zn	1.427038	0.065188	-0.108696
Zn3	Zn	1.760372	0.398521	0.224637
Zn4	Zn	1.088889	-0.387549	-0.324149
Zn5	Zn	1.422222	-0.054216	0.009184
Zn6	Zn	1.755555	0.279118	0.342517
Zn7	Zn	0.971092	-0.268158	-0.319409
Zn8	Zn	1.304425	0.065175	0.013925
Zn9	Zn	1.637759	0.398509	0.347258
Zn10	Zn	0.975773	-0.397083	-0.437249
Zn11	Zn	1.309106	-0.063749	-0.103915
Zn12	Zn	1.642439	0.269584	0.229418
O13	O	1.032364	-0.330234	-0.380709
O14	O	1.365698	0.003100	-0.047376
O15	O	1.699031	0.336433	0.285958
O16	O	1.191719	-0.279989	-0.430377
O17	O	1.525053	0.053344	-0.097044
O18	O	1.858386	0.386677	0.236290
O19	O	1.069288	-0.367727	-0.224871
O20	O	1.402622	-0.034393	0.108463
O21	O	1.735955	0.298940	0.441796
O22	O	0.987413	-0.164230	-0.335691
O23	O	1.320747	0.169103	-0.002358
O24	O	1.654080	0.502437	0.330975
O25	O	1.188181	-0.367715	-0.343771
O26	O	1.521514	-0.034381	-0.010438
O27	O	1.854848	0.298952	0.322896
O28	O	1.077497	-0.164221	-0.425780
O29	O	1.410830	0.169113	-0.092447
O30	O	1.744163	0.502446	0.240886
O31	O	0.982743	-0.280011	-0.221388
O32	O	1.316077	0.053323	0.111946
O33	O	1.649410	0.386656	0.445279
O34	O	0.873059	-0.289255	-0.331056
O35	O	1.206393	0.044078	0.002278
O36	O	1.539726	0.377411	0.335611
O37	O	0.995391	-0.383964	-0.536533
O38	O	1.328724	-0.050630	-0.203199
O39	O	1.662058	0.282703	0.130134
O40	O	0.876498	-0.383976	-0.417632
O41	O	1.209832	-0.050643	-0.084299
O42	O	1.543165	0.282691	0.249034
O43	O	1.082035	-0.289234	-0.540045
O44	O	1.415369	0.044099	-0.206712
O45	O	1.748702	0.377433	0.126622
O46	O	1.073827	-0.492740	-0.339135
O47	O	1.407160	-0.159407	-0.005802
O48	O	1.740494	0.173927	0.327531
O49	O	0.990721	-0.499744	-0.422229
O50	O	1.324054	-0.166411	-0.088896
O51	O	1.657388	0.166922	0.244438
C52	C	0.849199	-0.337652	-0.373311
C53	C	1.182532	-0.004319	-0.039978
C54	C	1.515866	0.329015	0.293356
C55	C	0.770841	-0.340844	-0.370163
C56	C	1.104174	-0.007511	-0.036830
C57	C	1.437507	0.325822	0.296504
C58	C	0.329569	-0.363709	-0.347617
C59	C	0.662902	-0.030375	-0.014283
C60	C	0.996235	0.302958	0.319050
C61	C	0.403194	-0.360705	-0.350569
C62	C	0.736528	-0.027372	-0.017236
C63	C	1.069861	0.305962	0.316097
C64	C	0.441855	-0.313610	-0.397210
C65	C	0.775188	0.019723	-0.063877
C66	C	1.108521	0.353057	0.269456
C67	C	0.406885	-0.269510	-0.440897
C68	C	0.740218	0.063823	-0.107563
C69	C	1.073552	0.397156	0.225770
C70	C	0.333260	-0.272510	-0.437940
C71	C	0.666594	0.060823	-0.104607
C72	C	0.999927	0.394156	0.228727
C73	C	0.662247	-0.299745	-0.410893
C74	C	0.995580	0.033589	-0.077559
C75	C	1.328913	0.366922	0.255774
C76	C	0.735876	-0.296749	-0.413847
C77	C	1.069210	0.036584	-0.080514
C78	C	1.402543	0.369917	0.252819
C79	C	0.732181	-0.387944	-0.323519
C80	C	1.065514	-0.054610	0.009814
C81	C	1.398847	0.278723	0.343148
C82	C	0.658555	-0.390943	-0.320569
C83	C	0.991888	-0.057609	0.012764
C84	C	1.325221	0.275724	0.346097
C85	C	0.623592	-0.346840	-0.364253
C86	C	0.956925	-0.013507	-0.030920
C87	C	1.290258	0.319827	0.302414
N88	N	0.517112	-0.310540	-0.400231
N89	N	0.850445	0.022793	-0.066898
N90	N	1.183779	0.356126	0.266436
N91	N	0.548335	-0.349906	-0.361228
N92	N	0.881669	-0.016573	-0.027895
N93	N	1.215002	0.316760	0.305439
C94	C	1.032279	-0.523189	-0.380694
C95	C	1.365612	-0.189856	-0.047361
C96	C	1.698946	0.143478	0.285973
C97	C	1.032308	-0.605734	-0.380714
C98	C	1.365641	-0.272401	-0.047380
C99	C	1.698974	0.060932	0.285953
C100	C	0.987160	-0.809018	-0.425885
C101	C	1.320494	-0.475685	-0.092552
C102	C	1.653827	-0.142352	0.240781
C103	C	0.967398	-0.856539	-0.360866
C104	C	1.300732	-0.523206	-0.027533
C105	C	1.634065	-0.189873	0.305801
C106	C	1.032377	-0.756862	-0.380726
C107	C	1.365711	-0.423529	-0.047392
C108	C	1.699044	-0.090195	0.285941
C109	C	1.052174	-0.856422	-0.445754
C110	C	1.385507	-0.523088	-0.112420
C111	C	1.718841	-0.189755	0.220913
C112	C	1.032444	-0.902845	-0.380743
C113	C	1.365777	-0.569512	-0.047409
C114	C	1.699110	-0.236178	0.285924
C115	C	1.012580	-0.803296	-0.315671
C116	C	1.345914	-0.469963	0.017663
C117	C	1.679247	-0.136629	0.350996
C118	C	1.097388	-0.803175	-0.400603
C119	C	1.430721	-0.469841	-0.067270
C120	C	1.764054	-0.136508	0.266064
C121	C	1.077648	-0.850670	-0.335540
C122	C	1.410982	-0.517337	-0.002207
C123	C	1.744315	-0.184004	0.331126
C124	C	1.032338	-0.672765	-0.380716
C125	C	1.365671	-0.339432	-0.047383
C126	C	1.699004	-0.006099	0.285950
C127	C	1.032483	-0.986940	-0.380745
C128	C	1.365817	-0.653607	-0.047411
C129	C	1.699150	-0.320273	0.285922
C130	C	1.216245	-0.322787	-0.388136
C131	C	1.549579	0.010546	-0.054803
C132	C	1.882912	0.343880	0.278531
C133	C	1.294604	-0.319614	-0.391301
C134	C	1.627938	0.013720	-0.057968
C135	C	1.961271	0.347053	0.275365
C136	C	1.039772	-0.337661	-0.564583
C137	C	1.373106	-0.004327	-0.231250
C138	C	1.706439	0.329006	0.102084
C139	C	1.042929	-0.340826	-0.642939
C140	C	1.376263	-0.007492	-0.309606
C141	C	1.709596	0.325841	0.023728
C142	C	1.032470	-0.136525	-0.380740
C143	C	1.365804	0.196808	-0.047407
C144	C	1.699137	0.530142	0.285926
C145	C	1.032515	-0.053978	-0.380754
C146	C	1.365849	0.279355	-0.047420
C147	C	1.699182	0.612689	0.285913
C148	C	1.065576	-0.363580	-1.084197
C149	C	1.398909	-0.030247	-0.750863
C150	C	1.732242	0.303087	-0.417530
C151	C	1.062599	-0.360602	-1.010572
C152	C	1.395932	-0.027269	-0.677239
C153	C	1.729266	0.306065	-0.343906
C154	C	1.016056	-0.313440	-0.971955
C155	C	1.349389	0.019893	-0.638621
C156	C	1.682722	0.353226	-0.305288
C157	C	0.972481	-0.269259	-1.006965
C158	C	1.305814	0.064074	-0.673632
C159	C	1.639148	0.397407	-0.340298
C160	C	0.975455	-0.272242	-1.080588
C161	C	1.308788	0.061092	-0.747254
C162	C	1.642121	0.394425	-0.413921
C163	C	1.002328	-0.299627	-0.751572
C164	C	1.335661	0.033706	-0.418239
C165	C	1.668995	0.367040	-0.084905
C166	C	0.999359	-0.296646	-0.677944
C167	C	1.332693	0.036687	-0.344611
C168	C	1.666026	0.370020	-0.011278
C169	C	1.089477	-0.387991	-0.681557
C170	C	1.422810	-0.054657	-0.348223
C171	C	1.756144	0.278676	-0.014890
C172	C	1.092449	-0.390965	-0.755181
C173	C	1.425782	-0.057632	-0.421847
C174	C	1.759116	0.275701	-0.088514
C175	C	1.048872	-0.346787	-0.790185
C176	C	1.382205	-0.013454	-0.456851
C177	C	1.715539	0.319879	-0.123518
N178	N	1.013014	-0.310394	-0.896699
N179	N	1.346347	0.022940	-0.563366
N180	N	1.679680	0.356273	-0.230032
N181	N	1.051911	-0.349839	-0.865439
N182	N	1.385244	-0.016505	-0.532106
N183	N	1.718578	0.316828	-0.198772
C184	C	1.025026	-0.322780	-0.197552
C185	C	1.358359	0.010553	0.135781
C186	C	1.691693	0.343886	0.469115
C187	C	1.022006	-0.319401	-0.119202
C188	C	1.355339	0.013933	0.214131
C189	C	1.688672	0.347266	0.547465
H190	H	0.627082	-0.429292	-0.282588
H191	H	0.960416	-0.095958	0.050745
H192	H	1.293749	0.237375	0.384078
H193	H	1.152322	-0.779785	-0.417431
H194	H	1.485656	-0.446452	-0.084098
H195	H	1.818989	-0.113118	0.249236
O196	O	0.769894	-0.435501	-0.276401
O197	O	1.103228	-0.102168	0.056932
O198	O	1.436561	0.231166	0.390266
H199	H	0.730642	-0.468755	-0.243475
H200	H	1.063975	-0.135422	0.089858
H201	H	1.397309	0.197912	0.423192
O202	O	0.922282	-0.218391	-0.965313
O203	O	1.255615	0.114942	-0.631979
O204	O	1.588948	0.448275	-0.298646
H205	H	0.892480	-0.188176	-1.002025
H206	H	1.225813	0.145157	-0.668692
H207	H	1.559147	0.478490	-0.335358
O208	O	0.777579	-0.245947	-0.464150
O209	O	1.110912	0.087386	-0.130817
O210	O	1.444245	0.420720	0.202516
H211	H	0.740898	-0.215777	-0.494025
H212	H	1.074231	0.117556	-0.160692
H213	H	1.407565	0.450889	0.172642
H214	H	0.304793	-0.236601	-0.473510
H215	H	0.638127	0.096732	-0.140177
H216	H	0.971460	0.430066	0.193157
O217	O	1.142648	-0.441845	-0.796818
O218	O	1.475981	-0.108512	-0.463485
O219	O	1.809315	0.224821	-0.130152
H220	H	1.179900	-0.408521	-0.831812
H221	H	1.513233	-0.075188	-0.498478
H222	H	1.846567	0.258146	-0.165145
H223	H	1.115914	-0.868946	-0.297312
H224	H	1.449247	-0.535613	0.036022
H225	H	1.782580	-0.202279	0.369355
O226	O	1.074325	-0.887248	-0.518588
O227	O	1.407658	-0.553915	-0.185255
O228	O	1.740992	-0.220582	0.148078
H229	H	1.036674	-0.870675	-0.555957
H230	H	1.370007	-0.537342	-0.222624
H231	H	1.703341	-0.204009	0.110709
H232	H	0.633789	-0.263837	-0.446466
H233	H	0.967122	0.069497	-0.113133
H234	H	1.300455	0.402830	0.220201
H235	H	0.438368	-0.231161	-0.478870
H236	H	0.771701	0.102172	-0.145536
H237	H	1.105035	0.435505	0.187797
H238	H	1.124954	-0.423959	-0.653049
H239	H	1.458287	-0.090625	-0.319715
H240	H	1.791621	0.242708	0.013618
O241	O	0.928473	-0.224574	-1.118344
O242	O	1.261807	0.108759	-0.785011
O243	O	1.595140	0.442092	-0.451677
H244	H	0.938359	-0.234571	-1.176026
H245	H	1.271692	0.098762	-0.842692
H246	H	1.605026	0.432095	-0.509359
H247	H	0.912453	-0.879933	-0.344068
H248	H	1.245786	-0.546599	-0.010735
H249	H	1.579119	-0.213266	0.322598
O250	O	0.287871	-0.414500	-0.297307
O251	O	0.621205	-0.081167	0.036026
O252	O	0.954538	0.252167	0.369360
H253	H	0.324556	-0.444650	-0.267421
H254	H	0.657890	-0.111317	0.065912
H255	H	0.991223	0.222017	0.399246
H256	H	1.103480	-0.401981	-1.115634
H257	H	1.436813	-0.068647	-0.782301
H258	H	1.770146	0.264686	-0.448967
H259	H	1.098070	-0.396587	-0.982074
H260	H	1.431403	-0.063254	-0.648741
H261	H	1.764736	0.270080	-0.315407
H262	H	0.431659	-0.396611	-0.314996
H263	H	0.764992	-0.063277	0.018337
H264	H	1.098326	0.270056	0.351671
H265	H	0.948861	-0.790603	-0.464017
H266	H	1.282194	-0.457270	-0.130683
H267	H	1.615528	-0.123936	0.202650
H268	H	0.995799	-0.780114	-0.260667
H269	H	1.329133	-0.446780	0.072667
H270	H	1.662466	-0.113447	0.406000
O271	O	0.949151	-0.245784	-0.636287
O272	O	1.282484	0.087549	-0.302954
O273	O	1.615817	0.420882	0.030379
H274	H	0.919342	-0.215572	-0.672995
H275	H	1.252675	0.117762	-0.339662
H276	H	1.586008	0.451095	-0.006329
O277	O	0.955339	-0.251971	-0.789323
O278	O	1.288672	0.081363	-0.455990
O279	O	1.622005	0.414696	-0.122657
H280	H	0.922484	-0.218668	-0.750099
H281	H	1.255817	0.114665	-0.416766
H282	H	1.589151	0.447998	-0.083433
