data_functionalizedCrystal
_audit_creation_method	'MofGen! by Chris Wilmer'
_symmetry_space_group_name_H-M	'P1'
_symmetry_Int_Tables_number	1
_symmetry_cell_setting	triclinic
loop_
_symmetry_equiv_pos_as_xyz
  x,y,z
_cell_length_a	16.098538
_cell_length_b	19.288864
_cell_length_c	19.288865
_cell_angle_alpha	83.136245
_cell_angle_beta	92.708117
_cell_angle_gamma	87.256992
loop_
_atom_site_label
_atom_site_type_symbol
_atom_site_fract_x
_atom_site_fract_y
_atom_site_fract_z
O1	O	0.069533	-0.924481	-0.083521
O2	O	0.569533	-0.424481	0.416479
O3	O	0.069478	-0.722217	-0.095213
O4	O	0.569478	-0.222217	0.404787
O5	O	0.069491	-0.829193	0.011763
O6	O	0.569491	-0.329193	0.511763
O7	O	0.069520	-0.817505	-0.190497
O8	O	0.569520	-0.317505	0.309503
O9	O	-0.069023	-0.822944	0.005538
O10	O	0.430977	-0.322944	0.505538
O11	O	-0.069036	-0.715969	-0.101437
O12	O	0.430964	-0.215969	0.398563
O13	O	-0.068980	-0.918232	-0.089746
O14	O	0.431020	-0.418232	0.410254
Zn15	Zn	-0.091000	-0.816108	-0.096580
Zn16	Zn	0.409000	-0.316108	0.403420
Zn17	Zn	0.091498	-0.824341	-0.088379
Zn18	Zn	0.591498	-0.324341	0.411621
O19	O	-0.068993	-0.811256	-0.196721
O20	O	0.431007	-0.311256	0.303279
C21	C	0.000213	-0.693216	-0.097949
C22	C	0.500213	-0.193216	0.402051
C23	C	0.000192	-0.616112	-0.096821
C24	C	0.500192	-0.116112	0.403179
C25	C	0.000231	-0.825692	0.034527
C26	C	0.500231	-0.325692	0.534527
C27	C	0.000224	-0.824563	0.111630
C28	C	0.500224	-0.324563	0.611630
N29	N	-0.215550	-0.810494	-0.102176
N30	N	0.284450	-0.310494	0.397824
C31	C	-0.259130	-0.855915	-0.056788
C32	C	0.240870	-0.355915	0.443212
C33	C	-0.346319	-0.851994	-0.060709
C34	C	0.153681	-0.351994	0.439291
C35	C	-0.389927	-0.802655	-0.110023
C36	C	0.110073	-0.302655	0.389977
C37	C	-0.346342	-0.757230	-0.155414
C38	C	0.153658	-0.257230	0.344586
C39	C	-0.259154	-0.761147	-0.151489
C40	C	0.240846	-0.261147	0.348511
C41	C	-0.653179	-0.788453	-0.124242
C42	C	-0.153179	-0.288453	0.375758
C43	C	-0.740373	-0.784539	-0.128165
C44	C	-0.240373	-0.284539	0.371835
C45	C	-0.740344	-0.879304	-0.033459
C46	C	-0.240344	-0.379304	0.466541
C47	C	-0.653155	-0.883220	-0.029541
C48	C	-0.153155	-0.383220	0.470459
C49	C	-0.609577	-0.837792	-0.074929
C50	C	-0.109577	-0.337792	0.425071
C51	C	-0.479049	-0.798648	-0.114035
C52	C	0.020951	-0.298648	0.385965
C53	C	-0.520457	-0.841796	-0.070914
C54	C	-0.020457	-0.341796	0.429086
N55	N	0.216047	-0.829961	-0.082777
N56	N	0.716047	-0.329961	0.417223
C57	C	0.000286	-0.947233	-0.087009
C58	C	0.500286	-0.447233	0.412991
C59	C	0.000313	-1.024338	-0.088137
C60	C	0.500313	-0.524338	0.411863
C61	C	0.000214	-0.571416	-0.159588
C62	C	0.500214	-0.071416	0.340412
C63	C	0.000223	-0.498970	-0.158527
C64	C	0.500223	0.001030	0.341473
C65	C	0.000226	-0.471222	-0.094695
C66	C	0.500226	0.028778	0.405305
C67	C	0.000199	-0.515927	-0.031920
C68	C	0.500199	-0.015927	0.468080
C69	C	0.000182	-0.588372	-0.032983
C70	C	0.500182	-0.088372	0.467017
C71	C	0.048774	-0.365151	-0.042334
C72	C	0.548774	0.134849	0.457666
C73	C	0.048797	-0.292707	-0.041273
C74	C	0.548797	0.207293	0.458727
C75	C	0.000276	-0.247779	-0.091413
C76	C	0.500276	0.252221	0.408587
C77	C	-0.048256	-0.275302	-0.142625
C78	C	0.451744	0.224698	0.357375
C79	C	-0.048274	-0.347747	-0.143688
C80	C	0.451726	0.152253	0.356312
C81	C	0.000245	-0.392669	-0.093535
C82	C	0.500245	0.107331	0.406465
C83	C	0.000307	-0.124528	-0.153033
C84	C	0.500307	0.375472	0.346967
C85	C	0.000311	-0.052080	-0.151970
C86	C	0.500311	0.447920	0.348030
C87	C	0.000296	-0.069040	-0.025360
C88	C	0.500296	0.430960	0.474640
C89	C	0.000284	-0.141486	-0.026426
C90	C	0.500284	0.358514	0.473574
C91	C	0.000293	-0.169225	-0.090264
C92	C	0.500293	0.330775	0.409736
C93	C	0.000268	-0.814757	-0.219485
C94	C	0.500268	-0.314757	0.280515
C95	C	0.000281	-0.815887	-0.296588
C96	C	0.500281	-0.315887	0.203412
C97	C	0.000237	-0.887331	0.156327
C98	C	0.500237	-0.387331	0.656327
C99	C	0.000250	-0.886271	0.228775
C100	C	0.500250	-0.386271	0.728775
C101	C	0.000233	-0.822438	0.256521
C102	C	0.500233	-0.322438	0.756521
C103	C	0.000224	-0.759662	0.211815
C104	C	0.500224	-0.259662	0.711815
C105	C	0.000220	-0.760724	0.139369
C106	C	0.500220	-0.260724	0.639369
C107	C	-0.048300	-0.770069	0.362628
C108	C	0.451700	-0.270069	0.862628
C109	C	-0.048300	-0.769009	0.435072
C110	C	0.451700	-0.269009	0.935072
C111	C	0.000250	-0.819159	0.479968
C112	C	0.500250	-0.319159	0.979968
C113	C	0.048791	-0.870381	0.452411
C114	C	0.548791	-0.370381	0.952411
C115	C	0.048786	-0.871443	0.379965
C116	C	0.548786	-0.371443	0.879965
C117	C	0.000238	-0.821279	0.335076
C118	C	0.500238	-0.321279	0.835076
C119	C	0.000279	-0.880783	0.603221
C120	C	0.500279	-0.380783	1.103221
C121	C	0.000297	-0.879720	0.675670
C122	C	0.500297	-0.379720	1.175670
C123	C	0.000263	-0.753109	0.658708
C124	C	0.500263	-0.253109	1.158708
C125	C	0.000253	-0.754173	0.586262
C126	C	0.500253	-0.254173	1.086262
C127	C	0.000257	-0.818012	0.558522
C128	C	0.500257	-0.318012	1.058522
H129	H	-0.381801	-0.888979	-0.023750
H130	H	0.118199	-0.388979	0.476250
H131	H	-0.223672	-0.724160	-0.188448
H132	H	0.276328	-0.224160	0.311552
N133	N	0.101158	-0.924479	0.500823
N134	N	0.601158	-0.424479	1.000823
H135	H	0.093801	-0.916034	0.550898
H136	H	0.593801	-0.416034	1.050898
H137	H	0.161684	-0.920902	0.489996
H138	H	0.661684	-0.420902	0.989996
N139	N	0.000292	-0.039118	0.043486
N140	N	0.500292	0.460882	0.543486
H141	H	0.051644	-0.011772	0.049059
H142	H	0.551644	0.488228	0.549059
H143	H	0.000246	-0.078465	0.083048
H144	H	0.500246	0.421535	0.583048
N145	N	0.000259	-0.189698	0.041273
N146	N	0.500259	0.310302	0.541273
H147	H	0.000262	-0.161130	0.081873
H148	H	0.500262	0.338870	0.581873
H149	H	0.051599	-0.222462	0.045899
H150	H	0.551599	0.277538	0.545899
N151	N	0.000186	-0.693019	0.091156
N152	N	0.500186	-0.193019	0.591156
H153	H	0.000179	-0.703378	0.041053
H154	H	0.500179	-0.203378	0.541053
H155	H	0.051527	-0.667501	0.102409
H156	H	0.551527	-0.167501	0.602409
H157	H	0.000253	-0.701135	0.681299
H158	H	0.500253	-0.201135	1.181299
H159	H	-0.617705	-0.751464	-0.161200
H160	H	-0.117705	-0.251464	0.338800
H161	H	0.000243	-0.939314	0.133747
H162	H	0.500243	-0.439314	0.633747
H163	H	-0.514562	-0.758476	-0.154188
H164	H	-0.014562	-0.258476	0.345812
H165	H	-0.381853	-0.717053	-0.195564
H166	H	0.118147	-0.217053	0.304436
N167	N	0.000305	-0.947423	0.723884
N168	N	0.500305	-0.447423	1.223884
H169	H	0.051657	-0.952127	0.756618
H170	H	0.551657	-0.452127	1.256618
H171	H	0.000273	-0.987982	0.695265
H172	H	0.500273	-0.487982	1.195265
N173	N	0.000286	-0.003888	-0.219688
N174	N	0.500286	0.496112	0.280312
H175	H	0.051623	-0.015115	-0.245257
H176	H	0.551623	0.484885	0.254743
H177	H	0.000244	0.046205	-0.209297
H178	H	0.500244	0.546205	0.290703
H179	H	0.000286	-0.932764	0.580635
H180	H	0.500286	-0.432764	1.080635
N181	N	-0.212087	-0.909127	-0.003601
N182	N	0.287913	-0.409127	0.496399
H183	H	-0.227227	-0.957718	-0.012153
H184	H	0.272773	-0.457718	0.487847
H185	H	-0.227296	-0.900539	0.044970
H186	H	0.272704	-0.400539	0.544970
N187	N	0.000234	-0.686472	0.538047
N188	N	0.500234	-0.186472	1.038047
H189	H	0.000225	-0.645872	0.566615
H190	H	0.500225	-0.145872	1.066615
H191	H	-0.051118	-0.681839	0.505320
H192	H	0.448882	-0.181839	1.005320
N193	N	-0.606126	-0.936439	0.023648
N194	N	-0.106126	-0.436439	0.523648
H195	H	-0.621276	-0.985024	0.015087
H196	H	-0.121276	-0.485024	0.515087
H197	H	-0.621338	-0.927855	0.072219
H198	H	-0.121338	-0.427855	0.572219
H199	H	-0.087767	-0.238723	-0.183453
H200	H	0.412233	0.261277	0.316547
H201	H	-0.484948	-0.881966	-0.030760
H202	H	0.015052	-0.381966	0.469240
N203	N	0.000196	-0.690810	0.241732
N204	N	0.500196	-0.190810	0.741732
H205	H	0.051536	-0.665636	0.227719
H206	H	0.551536	-0.165636	0.727719
H207	H	0.000165	-0.699715	0.294403
H208	H	0.500165	-0.199715	0.794403
H209	H	0.088318	-0.270304	0.000424
H210	H	0.588318	0.229696	0.500424
N211	N	0.101108	-0.413606	0.011751
N212	N	0.601108	0.086394	0.511751
H213	H	0.131860	-0.385179	0.044349
H214	H	0.631860	0.114821	0.544349
H215	H	0.142553	-0.442125	-0.012388
H216	H	0.642553	0.057875	0.487612
H217	H	-0.087820	-0.727299	0.457503
H218	H	0.412180	-0.227299	0.957503
N219	N	0.000230	-0.601336	-0.228438
N220	N	0.500230	-0.101336	0.271562
H221	H	0.000248	-0.562024	-0.268040
H222	H	0.500248	-0.062024	0.231960
H223	H	-0.051123	-0.628691	-0.233952
H224	H	0.448877	-0.128691	0.266048
N225	N	0.000193	-0.486005	0.036929
N226	N	0.500193	0.013995	0.536929
H227	H	0.000208	-0.433329	0.028079
H228	H	0.500208	0.066671	0.528079
H229	H	0.051532	-0.504705	0.066698
H230	H	0.551532	-0.004705	0.566698
H231	H	0.000239	-0.462572	-0.209641
H232	H	0.500239	0.037428	0.290359
N233	N	-0.100618	-0.377435	-0.198916
N234	N	0.399382	0.122565	0.301084
H235	H	-0.131356	-0.337986	-0.230520
H236	H	0.368644	0.162014	0.269480
H237	H	-0.142076	-0.409030	-0.175656
H238	H	0.357924	0.090970	0.324344
H239	H	-0.087840	-0.729229	0.326078
H240	H	0.412160	-0.229229	0.826078
N241	N	0.000313	-0.154454	-0.221883
N242	N	0.500313	0.345546	0.278117
H243	H	0.000322	-0.115143	-0.261486
H244	H	0.500322	0.384857	0.238514
H245	H	-0.051040	-0.181811	-0.227388
H246	H	0.448960	0.318189	0.272612
H247	H	-0.775834	-0.916289	0.003494
H248	H	-0.275834	-0.416289	0.503494
H249	H	0.000164	-0.624764	0.018131
H250	H	0.500164	-0.124764	0.518131
N251	N	-0.787420	-0.731327	-0.181356
N252	N	-0.287420	-0.231327	0.318644
H253	H	-0.772226	-0.739849	-0.229950
H254	H	-0.272226	-0.239849	0.270050
H255	H	-0.772271	-0.682757	-0.172740
H256	H	-0.272271	-0.182757	0.327260
N257	N	0.000259	-0.953970	0.277000
N258	N	0.500259	-0.453970	0.777000
H259	H	0.051608	-0.984155	0.270405
H260	H	0.551608	-0.484155	0.770405
H261	H	-0.051120	-0.979452	0.265778
H262	H	0.448880	-0.479452	0.765778
N263	N	0.101137	-0.926682	0.350241
N264	N	0.601137	-0.426682	0.850241
H265	H	0.131896	-0.958294	0.389670
H266	H	0.631896	-0.458294	0.889670
H267	H	0.142576	-0.903431	0.318615
H268	H	0.642576	-0.403431	0.818615
