data_functionalizedCrystal
_audit_creation_method	'MofGen! by Chris Wilmer'
_symmetry_space_group_name_H-M	'P1'
_symmetry_Int_Tables_number	1
_symmetry_cell_setting	triclinic
loop_
_symmetry_equiv_pos_as_xyz
  x,y,z
_cell_length_a	11.026607
_cell_length_b	13.339070
_cell_length_c	10.065875
_cell_angle_alpha	101.189098
_cell_angle_beta	79.302338
_cell_angle_gamma	112.107656
loop_
_atom_site_label
_atom_site_type_symbol
_atom_site_fract_x
_atom_site_fract_y
_atom_site_fract_z
O1	O	1.775693	0.438892	-0.113488
O2	O	1.405085	0.387504	-0.113490
O3	O	1.547855	0.258189	-0.113485
O4	O	1.632923	0.568207	-0.113493
O5	O	1.520673	0.282974	0.113503
O6	O	1.377903	0.412289	0.113498
O7	O	1.748512	0.463677	0.113500
Zn8	Zn	1.558892	0.441918	0.149538
Zn9	Zn	1.594705	0.409263	-0.149528
O10	O	1.605742	0.592992	0.113495
C11	C	1.343091	0.390416	0.000003
C12	C	1.198862	0.362155	0.000002
C13	C	1.151330	0.440188	-0.000000
C14	C	1.002262	0.410981	-0.000001
C15	C	1.519895	0.230276	0.000007
C16	C	1.477063	0.110173	0.000001
C17	C	1.810105	-0.193970	0.000004
C18	C	1.850350	-0.081127	0.000017
C19	C	1.757032	-0.033296	0.000013
C20	C	1.623461	-0.098320	-0.000004
C21	C	1.583210	-0.211174	-0.000006
C22	C	1.530137	-0.050500	0.000002
C23	C	1.396566	-0.115524	-0.000014
C24	C	1.356322	-0.228366	-0.000018
C25	C	1.449641	-0.276197	-0.000013
C26	C	1.570388	0.062354	0.000005
C27	C	1.343493	0.045150	-0.000006
C28	C	1.303248	-0.067693	-0.000019
C29	C	1.810506	0.460765	0.000004
C30	C	1.954736	0.489025	-0.000004
C31	C	1.633702	0.620905	0.000000
C32	C	1.676535	0.741007	-0.000003
N33	N	1.534460	0.464206	0.353643
N34	N	1.619144	0.386969	-0.353633
C35	C	1.586194	0.417009	0.421424
C36	C	1.567403	0.434172	0.578590
H37	H	1.024396	0.577461	0.000003
H38	H	1.267505	0.084094	-0.000003
O39	O	1.688209	0.323305	0.576796
C40	C	1.605984	0.235326	0.494385
H41	H	1.522169	0.257897	0.473001
H42	H	1.665963	0.216770	0.393890
H43	H	1.563333	0.160171	0.549621
H44	H	1.476251	0.517315	0.411967
H45	H	1.129200	0.273722	-0.000030
O46	O	1.700174	0.125437	-0.000232
C47	C	1.773433	0.090237	-0.117773
H48	H	1.705830	0.045216	-0.199940
H49	H	1.856090	0.164039	-0.157234
H50	H	1.817619	0.032995	-0.091193
H51	H	1.220995	0.528618	0.000005
H52	H	1.416879	-0.368083	-0.000029
H53	H	1.644391	0.363890	0.363101
H54	H	1.247559	-0.281305	-0.000021
H55	H	1.959103	-0.028192	0.000033
H56	H	1.886068	-0.232924	0.000019
O57	O	0.918991	0.305525	-0.000061
C58	C	0.788690	0.299841	-0.000027
H59	H	0.790628	0.373532	-0.042999
H60	H	0.733720	0.221681	-0.065927
H61	H	0.736357	0.299713	0.108871
O62	O	1.796354	0.076328	-0.000044
C63	C	1.934252	0.123467	0.000003
H64	H	1.980447	0.058613	-0.042960
H65	H	1.975968	0.192289	-0.065900
H66	H	1.957848	0.157618	0.108903
O67	O	1.497839	0.497400	0.648305
C68	C	1.388645	0.434256	0.730950
H69	H	1.408923	0.361492	0.752204
H70	H	1.371533	0.486483	0.831494
H71	H	1.297182	0.403737	0.675983
H72	H	1.194492	-0.120651	-0.000032
