data_functionalizedCrystal
_audit_creation_method	'MofGen! by Chris Wilmer'
_symmetry_space_group_name_H-M	'P1'
_symmetry_Int_Tables_number	1
_symmetry_cell_setting	triclinic
loop_
_symmetry_equiv_pos_as_xyz
  x,y,z
_cell_length_a	19.805407
_cell_length_b	10.686285
_cell_length_c	19.805398
_cell_angle_alpha	85.612478
_cell_angle_beta	89.984135
_cell_angle_gamma	85.631507
loop_
_atom_site_label
_atom_site_type_symbol
_atom_site_fract_x
_atom_site_fract_y
_atom_site_fract_z
Zn1	Zn	1.055477	-0.502394	-0.362110
Zn2	Zn	1.064121	-0.713398	-0.240265
Zn3	Zn	0.942300	-0.502423	-0.248933
Zn4	Zn	0.950975	-0.713337	-0.353414
O5	O	1.003218	-0.607888	-0.301181
O6	O	1.151341	-0.530398	-0.345958
O7	O	1.047949	-0.685449	-0.146697
O8	O	0.950066	-0.325844	-0.271213
O9	O	1.157692	-0.685421	-0.256440
O10	O	1.033216	-0.325823	-0.354363
O11	O	0.958448	-0.530446	-0.153065
O12	O	0.848734	-0.530387	-0.262781
O13	O	0.964850	-0.685318	-0.449286
O14	O	0.855107	-0.685345	-0.339543
O15	O	1.041628	-0.530339	-0.455674
O16	O	1.056360	-0.889964	-0.248008
O17	O	0.973232	-0.889920	-0.331139
C18	C	0.827361	-0.607864	-0.301160
C19	C	0.752130	-0.607884	-0.301166
C20	C	1.016693	-0.935726	-0.287704
C21	C	1.022520	-1.075976	-0.281961
C22	C	0.720127	-0.688692	-0.341061
C23	C	0.649439	-0.688694	-0.341070
C24	C	0.610755	-0.607894	-0.301180
C25	C	0.642763	-0.527077	-0.261284
C26	C	0.713450	-0.527069	-0.261279
C27	C	0.357691	-0.527105	-0.261305
C28	C	0.286999	-0.527121	-0.261312
C29	C	0.293680	-0.688730	-0.341097
C30	C	0.364367	-0.688722	-0.341091
C31	C	0.396368	-0.607901	-0.301198
C32	C	0.473016	-0.607898	-0.301189
C33	C	0.534108	-0.607902	-0.301185
C34	C	1.179762	-0.607913	-0.301202
C35	C	1.254995	-0.607924	-0.301211
C36	C	1.003242	-0.607818	-0.477726
C37	C	1.003252	-0.607788	-0.552960
C38	C	0.989709	-0.278770	-0.314725
C39	C	0.983952	-0.138519	-0.320496
C40	C	1.043303	-0.526867	-1.018087
C41	C	1.043294	-0.526906	-0.947397
C42	C	1.003314	-0.607613	-0.908729
C43	C	0.963347	-0.688295	-0.940753
C44	C	0.963360	-0.688262	-1.011442
C45	C	0.963294	-0.688432	-0.655674
C46	C	0.963282	-0.688456	-0.584981
C47	C	1.043227	-0.527076	-0.591630
C48	C	1.043240	-0.527043	-0.662318
C49	C	1.003276	-0.607729	-0.694336
C50	C	1.003287	-0.607688	-0.770987
C51	C	1.003299	-0.607648	-0.832080
C52	C	1.003230	-0.607867	-0.125325
C53	C	1.003336	-0.607541	-0.050107
H54	H	0.751619	-0.754493	-0.373541
O55	O	1.067157	-1.140059	-0.237267
C56	C	1.101800	-1.180692	-0.120531
C57	C	1.051194	-1.108051	-0.171064
H58	H	1.088921	-1.154820	-0.066997
H59	H	1.098679	-1.286184	-0.123640
H60	H	1.155302	-1.154784	-0.133559
H61	H	0.997670	-1.133853	-0.158071
H62	H	1.054375	-1.002577	-0.167946
O63	O	0.605087	-0.448698	-0.222555
C64	C	0.493229	-0.377020	-0.187238
C65	C	0.535814	-0.465870	-0.231118
H66	H	0.437213	-0.390854	-0.194157
H67	H	0.507962	-0.399033	-0.131719
H68	H	0.502992	-0.275320	-0.203390
H69	H	0.526073	-0.567601	-0.215025
H70	H	0.521073	-0.443749	-0.286628
O71	O	0.924527	-0.766576	-0.903093
C72	C	0.889102	-0.838202	-0.791247
C73	C	0.933087	-0.749466	-0.833814
H74	H	0.896018	-0.824418	-0.735226
H75	H	0.833603	-0.816028	-0.806005
H76	H	0.905160	-0.939929	-0.801001
H77	H	0.917089	-0.647709	-0.824082
H78	H	0.988577	-0.771748	-0.819049
H79	H	1.075854	-0.461138	-1.049567
O80	O	1.082139	-0.448605	-0.699777
C81	C	1.161409	-0.288489	-0.698912
C82	C	1.117398	-0.377273	-0.656409
H83	H	1.189916	-0.230775	-0.663867
H84	H	1.199227	-0.346353	-0.729609
H85	H	1.127624	-0.222546	-0.734735
H86	H	1.151129	-0.443234	-0.620548
H87	H	1.079575	-0.319330	-0.625758
O88	O	0.744434	-0.448539	-0.222458
C89	C	0.730349	-0.288197	-0.143345
C90	C	0.695176	-0.377092	-0.187266
H91	H	0.690540	-0.230390	-0.114892
H92	H	0.765787	-0.345979	-0.105481
H93	H	0.760766	-0.222345	-0.177192
H94	H	0.664723	-0.442961	-0.153473
H95	H	0.659777	-0.319231	-0.225135
H96	H	1.075840	-0.461217	-0.921330
H97	H	0.383738	-0.461305	-0.228816
O98	O	0.401980	-0.767341	-0.379739
C99	C	0.488831	-0.937652	-0.381697
C100	C	0.446270	-0.848721	-0.337842
H101	H	0.524660	-1.003452	-0.347843
H102	H	0.453850	-0.995501	-0.410200
H103	H	0.519526	-0.879770	-0.419526
H104	H	0.415570	-0.906506	-0.299976
H105	H	0.481287	-0.790868	-0.309387
H106	H	0.946476	-1.084771	-0.357882
H107	H	1.075770	-0.461380	-0.565552
O108	O	0.924435	-0.766992	-0.547516
C109	C	0.845124	-0.927039	-0.548377
C110	C	0.889093	-0.838188	-0.590887
H111	H	0.816529	-0.984605	-0.583425
H112	H	0.878882	-0.993107	-0.512587
H113	H	0.807373	-0.869109	-0.517644
H114	H	0.926850	-0.896017	-0.621661
H115	H	0.855294	-0.772116	-0.626634
H116	H	0.255504	-0.461316	-0.228829
H117	H	0.930816	-0.753956	-1.037511
O118	O	0.618462	-0.767325	-0.379832
C119	C	0.632547	-0.927605	-0.458980
C120	C	0.667715	-0.838631	-0.415104
H121	H	0.672352	-0.985261	-0.487520
H122	H	0.602176	-0.993584	-0.425161
H123	H	0.597066	-0.869765	-0.496781
H124	H	0.703229	-0.896370	-0.377298
H125	H	0.698043	-0.772649	-0.448965
O126	O	0.262483	-0.767114	-0.379840
C127	C	0.156551	-0.838811	-0.415183
C128	C	0.191790	-0.749957	-0.371292
H129	H	0.099391	-0.824990	-0.408277
H130	H	0.169516	-0.816791	-0.470699
H131	H	0.174667	-0.940510	-0.399030
H132	H	0.173693	-0.648229	-0.387385
H133	H	0.178826	-0.772086	-0.315786
H134	H	0.930751	-0.754131	-0.681735
