data_functionalizedCrystal
_audit_creation_method	'MofGen! by Chris Wilmer'
_symmetry_space_group_name_H-M	'P1'
_symmetry_Int_Tables_number	1
_symmetry_cell_setting	triclinic
loop_
_symmetry_equiv_pos_as_xyz
  x,y,z
_cell_length_a	29.839131
_cell_length_b	18.050591
_cell_length_c	18.050582
_cell_angle_alpha	89.977259
_cell_angle_beta	90.025477
_cell_angle_gamma	89.965147
loop_
_atom_site_label
_atom_site_type_symbol
_atom_site_fract_x
_atom_site_fract_y
_atom_site_fract_z
Zn1	Zn	-0.178961	-1.135224	0.420052
Zn2	Zn	-0.254083	-1.135106	0.295856
Zn3	Zn	-0.178959	-1.011044	0.295860
Zn4	Zn	-0.254056	-1.010963	0.419988
O5	O	-0.216514	-1.073084	0.357939
O6	O	-0.188938	-1.239133	0.403603
O7	O	-0.244128	-1.118634	0.191932
O8	O	-0.116092	-1.027599	0.312363
O9	O	-0.244130	-1.239047	0.312357
O10	O	-0.116093	-1.118835	0.403607
O11	O	-0.188935	-1.027485	0.191934
O12	O	-0.188909	-0.907108	0.312300
O13	O	-0.244083	-1.027462	0.523921
O14	O	-0.244082	-0.907049	0.403496
O15	O	-0.188911	-1.118756	0.523968
O16	O	-0.316946	-1.118555	0.312294
O17	O	-0.316926	-1.027348	0.403493
C18	C	-0.216493	-0.880132	0.357892
C19	C	-0.216494	-0.797586	0.357889
C20	C	-0.186452	-0.548772	0.308401
C21	C	-0.175516	-0.598208	0.376181
C22	C	-0.216507	-0.500466	0.357934
C23	C	-0.227416	-0.598112	0.290137
C24	C	-0.216500	-0.646451	0.357909
C25	C	-0.205550	-0.548815	0.425750
C26	C	-0.257469	-0.548715	0.339660
C27	C	-0.246549	-0.598128	0.407487
C28	C	-0.216511	-0.416368	0.357948
C29	C	-0.216496	-0.730548	0.357902
C30	C	-0.333237	-1.072950	0.357902
C31	C	-0.383172	-1.072961	0.357911
C32	C	-0.692813	-1.120663	0.310521
C33	C	-0.880486	-1.120754	0.310550
O34	O	-0.904749	-1.161205	0.270229
N35	N	-0.903957	-1.073238	0.357995
C36	C	-0.880506	-1.025700	0.405440
O37	O	-0.904776	-0.985292	0.445801
C38	C	-0.692834	-1.025612	0.405414
C39	C	-0.669366	-1.073126	0.357960
C40	C	-0.669344	-1.168173	0.263072
C41	C	-0.622429	-1.168147	0.263062
C42	C	-0.598982	-1.120610	0.310502
C43	C	-0.622450	-1.073100	0.357951
C44	C	-0.669385	-0.978078	0.452862
C45	C	-0.622464	-0.978062	0.452853
C46	C	-0.598995	-1.025575	0.405399
C47	C	-0.552088	-1.025537	0.405381
N48	N	-0.528617	-1.073053	0.357936
C49	C	-0.552064	-1.120589	0.310496
C50	C	-0.979037	-1.025748	0.405449
C51	C	-1.025955	-1.025769	0.405454
C52	C	-1.025931	-1.120824	0.310565
C53	C	-0.979012	-1.120799	0.310557
C54	C	-0.955566	-1.073264	0.358004
C55	C	-0.453538	-1.120530	0.310479
C56	C	-0.406618	-1.120497	0.310472
C57	C	-0.406646	-1.025445	0.405363
C58	C	-0.453562	-1.025474	0.405368
C59	C	-0.477007	-1.073023	0.357924
O60	O	-0.527796	-0.985113	0.445687
O61	O	-0.527786	-1.161002	0.270153
C62	C	-0.739728	-1.120689	0.310531
C63	C	-0.763197	-1.073178	0.357980
C64	C	-0.739750	-1.025642	0.405419
C65	C	-0.810114	-1.073199	0.357985
C66	C	-0.833561	-1.120736	0.310546
C67	C	-0.810090	-1.168252	0.263101
C68	C	-0.763175	-1.168225	0.263091
C69	C	-0.763220	-0.978126	0.452864
C70	C	-0.810136	-0.978155	0.452869
C71	C	-0.833583	-1.025692	0.405430
C72	C	-0.099336	-1.073239	0.357992
C73	C	-0.049402	-1.073305	0.358015
C74	C	-0.216495	-1.073113	0.551645
C75	C	-0.216486	-1.073126	0.634190
C76	C	-0.216529	-0.266790	0.357974
C77	C	-0.216515	-0.349336	0.357955
C78	C	-0.216502	-1.073098	0.164987
C79	C	-0.216384	-1.073230	0.082441
C80	C	-0.246448	-1.023518	0.833615
C81	C	-0.257434	-1.091269	0.883015
C82	C	-0.216452	-1.073162	0.785321
C83	C	-0.205453	-1.005449	0.883003
C84	C	-0.216420	-1.073192	0.931306
C85	C	-0.227460	-1.140949	0.833633
C86	C	-0.175460	-1.055083	0.833617
C87	C	-0.186430	-1.122881	0.882994
C88	C	-0.216472	-1.073145	0.701223
C89	C	-0.216400	-1.073217	1.015403
H90	H	-0.161019	-0.527101	0.266575
H91	H	-0.196164	-0.948172	0.904690
C92	C	-0.280884	-0.627222	0.464120
C93	C	-0.320209	-0.675950	0.438149
C94	C	-0.354543	-0.705043	0.494784
C95	C	-0.349552	-0.685407	0.577389
C96	C	-0.310226	-0.636677	0.603364
C97	C	-0.275892	-0.607584	0.546730
H98	H	-0.323904	-0.690488	0.376996
H99	H	-0.383655	-0.741116	0.475555
H100	H	-0.374969	-0.706943	0.619313
H101	H	-0.306530	-0.622139	0.664517
H102	H	-0.246780	-0.571511	0.565958
H103	H	-0.292086	-1.106579	0.904713
H104	H	-0.196280	-0.527250	0.483092
H105	H	-0.161050	-1.164925	0.904538
H106	H	-0.387512	-1.159189	0.271827
H107	H	-0.236645	-0.619768	0.232811
H108	H	-0.688430	-1.206887	0.224441
C109	C	-0.953199	-1.173069	0.258363
C110	C	-0.959682	-1.167069	0.173932
C111	C	-0.933871	-1.219343	0.121737
C112	C	-0.901578	-1.277617	0.153973
C113	C	-0.895093	-1.283620	0.238408
C114	C	-0.920904	-1.231346	0.290603
H115	H	-0.983589	-1.123928	0.150065
H116	H	-0.938672	-1.214898	0.059232
H117	H	-0.882471	-1.316314	0.115335
H118	H	-0.871186	-1.326761	0.262275
H119	H	-0.916103	-1.235791	0.353107
C120	C	-0.128716	-0.627585	0.397053
C121	C	-0.122731	-0.676424	0.466327
C122	C	-0.075932	-0.705799	0.487194
C123	C	-0.035117	-0.686334	0.438786
C124	C	-0.041101	-0.637493	0.369508
C125	C	-0.087900	-0.608118	0.348641
H126	H	-0.152946	-0.690834	0.502166
H127	H	-0.071502	-0.741954	0.538479
H128	H	-0.000473	-0.708080	0.454233
H129	H	-0.010886	-0.623082	0.333669
H130	H	-0.092330	-0.571962	0.297357
H131	H	-0.236788	-1.198243	0.812038
C132	C	-1.051728	-1.173120	0.258384
C133	C	-1.103336	-1.173140	0.258401
C134	C	-1.129135	-1.225437	0.206228
C135	C	-1.103327	-1.277713	0.154038
C136	C	-1.051716	-1.277694	0.154020
C137	C	-1.025917	-1.225398	0.206193
H138	H	-1.122443	-1.134440	0.297036
H139	H	-1.167341	-1.225450	0.206241
H140	H	-1.122425	-1.316426	0.115416
H141	H	-1.032609	-1.316394	0.115384
H142	H	-0.987711	-1.225384	0.206179
C143	C	-0.737432	-0.925829	0.505047
C144	C	-0.705139	-0.957942	0.563387
C145	C	-0.679352	-0.905638	0.615570
C146	C	-0.685858	-0.821221	0.609413
C147	C	-0.718152	-0.789104	0.551070
C148	C	-0.743939	-0.841408	0.498887
H149	H	-0.700322	-1.020436	0.567947
H150	H	-0.655446	-0.929413	0.658759
H151	H	-0.666769	-0.782503	0.648041
H152	H	-0.722969	-0.726610	0.546510
H153	H	-0.767845	-0.817633	0.455698
H154	H	-0.744070	-1.206916	0.224450
H155	H	-0.271847	-0.981575	0.811935
H156	H	-0.292103	-0.526960	0.324190
C157	C	-0.128661	-1.034376	0.804273
C158	C	-0.108033	-0.958654	0.823711
C159	C	-0.061234	-0.937937	0.794364
C160	C	-0.035064	-0.992942	0.745580
C161	C	-0.055691	-1.068668	0.726140
C162	C	-0.102490	-1.089385	0.755486
H163	H	-0.127406	-0.917932	0.859826
H164	H	-0.045964	-0.881879	0.808756
H165	H	-0.000420	-0.977606	0.723856
H166	H	-0.036318	-1.109390	0.690024
H167	H	-0.117760	-1.145444	0.741095
C168	C	-0.835947	-0.925885	0.505073
C169	C	-0.829543	-0.841460	0.498931
C170	C	-0.855353	-0.789197	0.551139
C171	C	-0.887566	-0.821359	0.609489
C172	C	-0.893971	-0.905789	0.615633
C173	C	-0.868162	-0.958052	0.563426
H174	H	-0.805696	-0.817648	0.455735
H175	H	-0.850611	-0.726697	0.546590
H176	H	-0.906671	-0.782671	0.648136
H177	H	-0.917818	-0.929601	0.658830
H178	H	-0.872904	-1.020552	0.567975
C179	C	-0.479323	-1.172828	0.258286
C180	C	-0.472898	-1.166810	0.173855
C181	C	-0.498683	-1.219103	0.121658
C182	C	-0.530893	-1.277414	0.153893
C183	C	-0.537319	-1.283434	0.238328
C184	C	-0.511534	-1.231141	0.290525
H185	H	-0.449053	-1.123643	0.149989
H186	H	-0.493925	-1.214646	0.059153
H187	H	-0.549980	-1.316124	0.115254
H188	H	-0.561164	-1.326601	0.262194
H189	H	-0.516292	-1.235598	0.353030
C190	C	-1.051767	-0.973497	0.457648
C191	C	-1.025969	-0.921214	0.509831
C192	C	-1.051780	-0.868944	0.562030
C193	C	-1.103387	-0.868957	0.562047
C194	C	-1.129188	-0.921243	0.509862
C195	C	-1.103378	-0.973512	0.457663
H196	H	-0.987764	-0.921202	0.509820
H197	H	-1.032680	-0.830239	0.600661
H198	H	-1.122494	-0.830264	0.600688
H199	H	-1.167394	-0.921254	0.509873
H200	H	-1.122477	-1.012217	0.419032
H201	H	-0.603323	-1.206838	0.224424
H202	H	-0.959950	-0.987037	0.444087
H203	H	-0.688485	-0.939383	0.491500
H204	H	-0.472671	-0.986787	0.444011
C205	C	-0.596673	-0.925767	0.505043
C206	C	-0.603176	-0.841349	0.498895
C207	C	-0.577386	-0.789054	0.551083
C208	C	-0.545094	-0.821176	0.609419
C209	C	-0.538590	-0.905599	0.615569
C210	C	-0.564380	-0.957894	0.563381
H211	H	-0.627081	-0.817566	0.455710
H212	H	-0.582201	-0.726559	0.546530
H213	H	-0.526003	-0.782464	0.648051
H214	H	-0.514684	-0.929381	0.658755
H215	H	-0.559565	-1.020389	0.567935
H216	H	-0.387549	-0.986739	0.443986
H217	H	-0.829189	-1.206956	0.224472
