data_functionalizedCrystal
_audit_creation_method	'MofGen! by Chris Wilmer'
_symmetry_space_group_name_H-M	'P1'
_symmetry_Int_Tables_number	1
_symmetry_cell_setting	triclinic
loop_
_symmetry_equiv_pos_as_xyz
  x,y,z
_cell_length_a	13.185408
_cell_length_b	14.044190
_cell_length_c	11.804365
_cell_angle_alpha	102.923601
_cell_angle_beta	82.233045
_cell_angle_gamma	72.582639
loop_
_atom_site_label
_atom_site_type_symbol
_atom_site_fract_x
_atom_site_fract_y
_atom_site_fract_z
O1	O	1.443177	-0.265086	-0.098903
O2	O	1.134809	-0.171341	-0.098936
O3	O	1.284356	-0.355011	-0.098896
O4	O	1.293630	-0.081416	-0.098942
O5	O	1.244982	-0.306695	0.099149
O6	O	1.095435	-0.123025	0.099110
O7	O	1.403803	-0.216771	0.099143
Cu8	Cu	1.246024	-0.165486	0.117209
Cu9	Cu	1.292588	-0.222625	-0.117002
O10	O	1.254256	-0.033100	0.099103
C11	C	1.075419	-0.137679	0.000083
C12	C	0.957116	-0.109373	0.000071
C13	C	0.897058	-0.008581	0.000052
C14	C	0.785902	0.018022	0.000058
C15	C	0.734796	-0.056167	0.000075
C16	C	0.794856	-0.156963	0.000086
C17	C	0.906020	-0.183566	0.000089
C18	C	0.743758	-0.231151	0.000111
C19	C	0.803818	-0.331947	0.000122
C20	C	0.914972	-0.358546	0.000124
C21	C	0.966078	-0.284358	0.000108
C22	C	0.632594	-0.204548	0.000108
C23	C	0.641557	-0.379533	0.000145
C24	C	0.752712	-0.406136	0.000138
C25	C	1.260615	-0.365133	0.000130
C26	C	1.248523	-0.467272	0.000139
C27	C	1.312174	-0.733804	0.000099
C28	C	1.226445	-0.654306	0.000098
C29	C	1.238732	-0.550231	0.000121
C30	C	1.299889	-0.837889	0.000076
C31	C	1.463194	-0.250433	0.000121
C32	C	1.581498	-0.278741	0.000125
C33	C	1.277998	-0.022979	0.000075
C34	C	1.290091	0.079158	0.000058
N35	N	1.213281	-0.125300	0.281941
N36	N	1.325339	-0.262820	-0.281734
C37	C	1.403964	-0.359339	0.655940
C38	C	1.428733	-0.389743	0.531285
C39	C	1.374872	-0.323635	0.468943
C40	C	1.296239	-0.227118	0.531269
C41	C	1.271474	-0.196707	0.655936
C42	C	1.242381	-0.161003	0.468939
C43	C	1.163748	-0.064486	0.531264
C44	C	1.138987	-0.034080	0.655919
C45	C	1.192848	-0.100188	0.718261
C46	C	1.267146	-0.191414	0.344271
C47	C	1.134656	-0.028782	0.344267
C48	C	1.109887	0.001622	0.468922
H49	H	0.801628	-0.488205	0.000147
H50	H	0.583703	-0.122479	0.000101
H51	H	1.143821	-0.664407	0.000082
O52	O	1.462061	-0.430633	0.723174
H53	H	1.401617	-0.450335	0.779981
H54	H	1.172679	-0.075436	0.819766
O55	O	1.076559	0.042526	0.277035
H56	H	1.017734	0.114756	0.341315
H57	H	1.074969	0.044515	0.706664
O58	O	1.421615	-0.720431	0.000122
H59	H	1.449397	-0.736273	0.080842
O60	O	0.614908	-0.027474	0.000073
H61	H	0.571486	-0.038530	0.080802
H62	H	1.045863	0.080210	0.519683
H63	H	0.599957	-0.439957	0.000103
H64	H	1.331169	-0.269998	0.293537
H65	H	1.395042	-0.348395	0.367443
H66	H	0.737009	0.100090	0.000049
O67	O	1.513528	-0.493843	0.464071
H68	H	1.592873	-0.497343	0.487997
O69	O	0.952174	0.071432	0.000040
H70	H	1.039559	0.035996	0.000040
H71	H	0.963867	-0.440617	0.000148
O72	O	1.085970	-0.313054	0.000112
H73	H	1.111411	-0.244529	0.000103
