data_functionalizedCrystal
_audit_creation_method	'MofGen! by Chris Wilmer'
_symmetry_space_group_name_H-M	'P1'
_symmetry_Int_Tables_number	1
_symmetry_cell_setting	triclinic
loop_
_symmetry_equiv_pos_as_xyz
  x,y,z
_cell_length_a	18.215407
_cell_length_b	29.839132
_cell_length_c	18.215399
_cell_angle_alpha	89.966912
_cell_angle_beta	90.017368
_cell_angle_gamma	89.957293
loop_
_atom_site_label
_atom_site_type_symbol
_atom_site_fract_x
_atom_site_fract_y
_atom_site_fract_z
Zn1	Zn	1.124968	0.178889	0.416041
Zn2	Zn	1.124832	0.254018	0.292964
Zn3	Zn	1.001900	0.178899	0.292994
Zn4	Zn	1.001822	0.253989	0.415994
O5	O	1.063381	0.216449	0.354498
O6	O	1.227934	0.188862	0.399722
O7	O	1.108501	0.244070	0.189983
O8	O	1.018315	0.116031	0.309349
O9	O	1.227835	0.244059	0.309297
O10	O	1.108732	0.116023	0.399751
O11	O	1.018183	0.188881	0.190005
O12	O	0.898906	0.188853	0.309303
O13	O	1.018182	0.244010	0.518985
O14	O	0.898848	0.244021	0.399671
O15	O	1.108656	0.188834	0.519019
O16	O	1.108426	0.316881	0.309252
O17	O	1.018051	0.316860	0.399642
C18	C	0.872174	0.216435	0.354485
C19	C	0.790376	0.216440	0.354497
C20	C	0.602232	0.187758	0.401656
C21	C	0.525374	0.187762	0.401658
C22	C	0.525281	0.245152	0.307354
C23	C	0.602138	0.245146	0.307348
C24	C	0.640612	0.216449	0.354503
C25	C	0.486896	0.216460	0.354511
C26	C	0.403562	0.216464	0.354514
C27	C	0.723951	0.216444	0.354500
C28	C	1.063235	0.333171	0.354454
C29	C	1.063240	0.383106	0.354460
C30	C	1.110472	0.692748	0.307471
C31	C	1.110542	0.880421	0.307488
O32	O	1.150622	0.904684	0.267523
N33	N	1.063458	0.903891	0.354510
C34	C	1.016356	0.880440	0.401535
O35	O	0.976314	0.904709	0.441537
C36	C	1.016290	0.692768	0.401522
C37	C	1.063372	0.669300	0.354491
C38	C	1.157551	0.669280	0.260444
C39	C	1.157530	0.622364	0.260438
C40	C	1.110430	0.598917	0.307458
C41	C	1.063351	0.622384	0.354484
C42	C	0.969192	0.669318	0.448550
C43	C	0.969181	0.622397	0.448544
C44	C	1.016263	0.598929	0.401513
C45	C	1.016230	0.552021	0.401498
N46	N	1.063315	0.528551	0.354475
C47	C	1.110415	0.551999	0.307455
C48	C	1.016393	0.978970	0.401538
C49	C	1.016408	1.025888	0.401541
C50	C	1.110596	1.025866	0.307494
C51	C	1.110576	0.978947	0.307488
C52	C	1.063477	0.955500	0.354515
C53	C	1.110367	0.453473	0.307445
C54	C	1.110340	0.406553	0.307440
C55	C	1.016155	0.406580	0.401490
C56	C	1.016179	0.453495	0.401492
C57	C	1.063291	0.476941	0.354467
O58	O	0.976178	0.527729	0.441448
O59	O	1.150462	0.527722	0.267471
C60	C	1.110493	0.739663	0.307477
C61	C	1.063414	0.763131	0.354504
C62	C	1.016314	0.739683	0.401524
C63	C	1.063429	0.810049	0.354507
C64	C	1.110529	0.833496	0.307486
C65	C	1.157614	0.810026	0.260464
C66	C	1.157593	0.763111	0.260457
C67	C	0.969229	0.763153	0.448547
C68	C	0.969253	0.810069	0.448549
C69	C	1.016353	0.833516	0.401529
C70	C	1.255334	0.216463	0.354512
C71	C	1.337132	0.216469	0.354517
C72	C	1.063426	0.216418	0.546451
C73	C	1.063445	0.216405	0.628250
C74	C	1.063519	1.099270	0.354542
C75	C	1.063508	1.049336	0.354521
C76	C	1.063378	0.216447	0.163292
C77	C	1.063502	0.216334	0.081493
C78	C	1.110572	0.187648	0.816463
C79	C	1.110580	0.187634	0.893322
C80	C	1.016370	0.245092	0.893275
C81	C	1.016358	0.245103	0.816417
C82	C	1.063463	0.216381	0.778014
C83	C	1.063484	0.216357	0.931730
C84	C	1.063493	0.216343	1.015064
C85	C	1.063453	0.216394	0.694675
H86	H	0.493946	0.268516	0.268962
H87	H	1.148947	1.044965	0.269208
O88	O	0.923562	0.692155	0.494280
C89	C	0.965449	0.719238	0.541866
H90	H	1.021231	0.726252	0.515952
H91	H	0.935475	0.752241	0.551725
H92	H	0.973511	0.701123	0.596400
O93	O	1.156398	0.159809	0.779123
C94	C	1.203880	0.185391	0.734642
H95	H	1.208388	0.220771	0.757782
H96	H	1.260534	0.169142	0.733786
H97	H	1.181113	0.186946	0.676389
H98	H	0.633555	0.164390	0.440050
O99	O	0.639458	0.272955	0.261465
C100	C	0.683937	0.247337	0.214020
H101	H	0.660806	0.211953	0.209580
H102	H	0.684776	0.263542	0.157336
H103	H	0.742195	0.245800	0.236777
O104	O	1.156308	0.159661	0.930589
C105	C	1.140271	0.114887	0.911839
H106	H	1.111973	0.113965	0.856032
H107	H	1.193412	0.094747	0.909225
H108	H	1.102464	0.099745	0.955097
O109	O	1.203239	0.599622	0.214656
C110	C	1.187195	0.611119	0.141294
H111	H	1.158907	0.645198	0.139749
H112	H	1.240332	0.612714	0.108349
H113	H	1.149376	0.584742	0.116461
O114	O	0.488206	0.159878	0.447533
C115	C	0.538648	0.134541	0.489135
H116	H	0.593416	0.152942	0.491624
H117	H	0.516467	0.129796	0.547134
H118	H	0.546849	0.100400	0.462289
O119	O	0.970571	0.273059	0.779176
C120	C	0.928990	0.298402	0.829551
H121	H	0.959138	0.299954	0.884343
H122	H	0.921089	0.333800	0.807320
H123	H	0.873121	0.281947	0.837726
H124	H	1.148680	0.387447	0.269139
O125	O	0.970687	0.272978	0.930696
C126	C	0.980786	0.266801	1.006777
H127	H	1.037602	0.252090	1.017291
H128	H	0.975753	0.300448	1.035966
H129	H	0.937170	0.242872	1.028596
O130	O	0.923435	0.740330	0.494119
C131	C	0.875901	0.713248	0.452172
H132	H	0.901890	0.706221	0.396426
H133	H	0.865998	0.680251	0.482138
H134	H	0.821381	0.731370	0.444034
H135	H	1.148732	0.472557	0.269154
H136	H	1.195910	0.688366	0.222155
H137	H	1.148915	0.959842	0.269192
H138	H	1.195962	0.829125	0.222176
O139	O	0.923465	0.599669	0.494331
C140	C	0.939530	0.611088	0.567693
H141	H	0.967834	0.645136	0.569242
H142	H	0.886402	0.612714	0.600650
H143	H	0.977343	0.584650	0.592508
O144	O	0.970419	0.476225	0.447243
C145	C	0.928828	0.445466	0.488727
H146	H	0.958952	0.412001	0.491289
H147	H	0.920955	0.459000	0.546708
H148	H	0.872946	0.440526	0.461730
H149	H	0.978062	1.044992	0.439831
H150	H	0.930907	0.829172	0.486846
O151	O	0.970514	0.383776	0.447243
C152	C	1.012389	0.356586	0.494786
H153	H	1.070350	0.370695	0.499378
H154	H	0.985748	0.356041	0.551402
H155	H	1.014931	0.321037	0.472023
O156	O	0.970562	0.956267	0.447242
C157	C	0.929024	0.987049	0.488750
H158	H	0.926517	1.020505	0.458601
H159	H	0.871027	0.973529	0.496544
H160	H	0.955938	0.992003	0.544669
H161	H	1.195932	0.744007	0.222160
