data_functionalizedCrystal
_audit_creation_method	'MofGen! by Chris Wilmer'
_symmetry_space_group_name_H-M	'P1'
_symmetry_Int_Tables_number	1
_symmetry_cell_setting	triclinic
loop_
_symmetry_equiv_pos_as_xyz
  x,y,z
_cell_length_a	17.640280
_cell_length_b	19.805407
_cell_length_c	19.805399
_cell_angle_alpha	90.019197
_cell_angle_beta	78.776890
_cell_angle_gamma	101.203588
loop_
_atom_site_label
_atom_site_type_symbol
_atom_site_fract_x
_atom_site_fract_y
_atom_site_fract_z
Zn1	Zn	-0.314765	-1.089295	-0.328295
Zn2	Zn	0.185235	-0.589295	0.171705
Zn3	Zn	-0.446941	-1.112121	-0.192256
Zn4	Zn	0.053059	-0.612121	0.307744
Zn5	Zn	-0.314778	-0.976112	-0.215118
Zn6	Zn	0.185222	-0.476112	0.284882
Zn7	Zn	-0.446890	-0.998975	-0.305413
Zn8	Zn	0.053110	-0.498975	0.194587
O9	O	-0.380843	-1.044126	-0.260271
O10	O	0.119157	-0.544126	0.239729
O11	O	-0.332314	-1.187042	-0.310258
O12	O	0.167686	-0.687042	0.189742
O13	O	-0.429436	-1.094063	-0.100568
O14	O	0.070564	-0.594063	0.399432
O15	O	-0.204171	-0.972005	-0.249276
O16	O	0.295829	-0.472005	0.250724
O17	O	-0.429423	-1.203812	-0.210311
O18	O	0.070577	-0.703812	0.289689
O19	O	-0.204161	-1.055161	-0.332427
O20	O	0.295839	-0.555161	0.167573
O21	O	-0.332336	-0.994138	-0.117365
O22	O	0.167664	-0.494138	0.382635
O23	O	-0.332287	-0.884426	-0.227088
O24	O	0.167713	-0.384426	0.272912
O25	O	-0.429336	-1.010972	-0.403169
O26	O	0.070664	-0.510972	0.096831
O27	O	-0.429349	-0.901223	-0.293426
O28	O	0.070651	-0.401223	0.206574
O29	O	-0.332265	-1.077330	-0.419981
O30	O	0.167735	-0.577330	0.080019
O31	O	-0.557539	-1.116233	-0.188122
O32	O	-0.057539	-0.616233	0.311878
O33	O	-0.557502	-1.033105	-0.271258
O34	O	-0.057502	-0.533105	0.228742
C35	C	-0.380814	-0.868265	-0.260255
C36	C	0.119186	-0.368265	0.239745
C37	C	-0.380821	-0.793034	-0.260261
C38	C	0.119179	-0.293034	0.239739
C39	C	-0.330345	-0.748974	-0.312353
C40	C	0.169655	-0.248974	0.187647
C41	C	-0.330348	-0.678286	-0.312354
C42	C	0.169652	-0.178286	0.187646
C43	C	-0.380831	-0.651660	-0.260264
C44	C	0.119169	-0.151660	0.239736
C45	C	-0.431309	-0.695726	-0.208167
C46	C	0.068691	-0.195726	0.291833
C47	C	-0.431302	-0.766412	-0.208164
C48	C	0.068698	-0.266412	0.291836
C49	C	-0.431338	-0.410657	-0.208175
C50	C	0.068662	0.089343	0.291825
C51	C	-0.431342	-0.339966	-0.208183
C52	C	0.068658	0.160034	0.291817
C53	C	-0.330383	-0.322532	-0.312365
C54	C	0.169617	0.177468	0.187635
C55	C	-0.330376	-0.393218	-0.312363
C56	C	0.169624	0.106782	0.187637
C57	C	-0.380851	-0.437276	-0.260263
C58	C	0.119149	0.062724	0.239737
C59	C	-0.380847	-0.513924	-0.260263
C60	C	0.119153	-0.013924	0.239737
C61	C	-0.380840	-0.575015	-0.260267
C62	C	0.119160	-0.075015	0.239733
C63	C	-0.586199	-1.079645	-0.224741
C64	C	-0.086199	-0.579645	0.275259
C65	C	-0.674051	-1.094902	-0.209563
C66	C	-0.174051	-0.594902	0.290437
C67	C	-0.963026	-0.928497	-0.375817
C68	C	-0.463026	-0.428497	0.124183
C69	C	-1.045576	-0.942834	-0.361534
C70	C	-0.545576	-0.442834	0.138466
C71	C	-1.045550	-1.029449	-0.275052
C72	C	-0.545550	-0.529449	0.224948
C73	C	-0.962998	-1.015121	-0.289330
C74	C	-0.462998	-0.515121	0.210670
C75	C	-0.921742	-0.964643	-0.339713
C76	C	-0.421742	-0.464643	0.160287
C77	C	-0.921714	-1.051267	-0.253226
C78	C	-0.421714	-0.551267	0.246774
C79	C	-0.839169	-1.036938	-0.267501
C80	C	-0.339169	-0.536938	0.232499
C81	C	-0.797908	-0.986461	-0.317879
C82	C	-0.297908	-0.486461	0.182121
C83	C	-0.839197	-0.950314	-0.353987
C84	C	-0.339197	-0.450314	0.146013
C85	C	-0.962971	-1.101741	-0.202841
C86	C	-0.462971	-0.601741	0.297159
C87	C	-0.921687	-1.137888	-0.166737
C88	C	-0.421687	-0.637888	0.333263
C89	C	-0.839141	-1.123562	-0.181014
C90	C	-0.339141	-0.623562	0.318986
C91	C	-0.797880	-1.073085	-0.231393
C92	C	-0.297880	-0.573085	0.268607
C93	C	-0.797852	-1.159709	-0.144907
C94	C	-0.297852	-0.659709	0.355093
C95	C	-0.715307	-1.145379	-0.159181
C96	C	-0.215307	-0.645379	0.340819
C97	C	-0.715335	-1.058755	-0.245667
C98	C	-0.215335	-0.558755	0.254333
C99	C	-0.174686	-1.008487	-0.295954
C100	C	0.325314	-0.508487	0.204046
C101	C	-0.086834	-0.993299	-0.311160
C102	C	0.413166	-0.493299	0.188840
C103	C	-0.380794	-1.044155	-0.436822
C104	C	0.119206	-0.544155	0.063178
C105	C	-0.380772	-1.044168	-0.512058
C106	C	0.119228	-0.544168	-0.012058
C107	C	-0.380867	-0.220673	-0.260282
C108	C	0.119133	0.279327	0.239718
C109	C	-0.380862	-0.295904	-0.260273
C110	C	0.119138	0.204096	0.239727
C111	C	-0.330225	-1.078721	-0.556157
C112	C	0.169775	-0.578721	-0.056157
C113	C	-0.330202	-1.078724	-0.626850
C114	C	0.169798	-0.578724	-0.126850
C115	C	-0.380731	-1.044177	-0.653441
C116	C	0.119269	-0.544177	-0.153441
C117	C	-0.431281	-1.009620	-0.609336
C118	C	0.068719	-0.509620	-0.109336
C119	C	-0.431299	-1.009613	-0.538645
C120	C	0.068701	-0.509613	-0.038645
C121	C	-0.431207	-1.009645	-0.894422
C122	C	0.068793	-0.509645	-0.394422
C123	C	-0.431187	-1.009656	-0.965117
C124	C	0.068813	-0.509656	-0.465117
C125	C	-0.330110	-1.078756	-0.982626
C126	C	0.169890	-0.578756	-0.482626
C127	C	-0.330128	-1.078749	-0.911936
C128	C	0.169872	-0.578749	-0.411936
C129	C	-0.380675	-1.044189	-0.867838
C130	C	0.119325	-0.544189	-0.367838
C131	C	-0.380698	-1.044185	-0.791185
C132	C	0.119302	-0.544185	-0.291185
C133	C	-0.380712	-1.044185	-0.730091
C134	C	0.119288	-0.544185	-0.230091
C135	C	-0.380836	-1.044126	-0.084416
C136	C	0.119164	-0.544126	0.415584
C137	C	-0.380634	-1.044206	-0.009219
C138	C	0.119366	-0.544206	0.490781
H139	H	-0.472404	-0.802285	-0.165745
H140	H	0.027596	-0.302285	0.334255
H141	H	-0.730695	-0.974790	-0.329496
H142	H	-0.230695	-0.474790	0.170504
H143	H	-0.472420	-0.981489	-0.630992
H144	H	0.027580	-0.481489	-0.130992
F145	F	-0.485097	-0.972835	-0.491711
F146	F	0.014903	-0.472835	0.008289
F147	F	-0.484969	-0.972885	-0.993415
F148	F	0.015031	-0.472885	-0.493415
F149	F	-0.276617	-0.777305	-0.367798
F150	F	0.223383	-0.277305	0.132202
F151	F	-0.276351	-1.115521	-0.883640
F152	F	0.223649	-0.615521	-0.383640
F153	F	-0.485033	-0.667386	-0.152726
F154	F	0.014967	-0.167386	0.347274
H155	H	-0.289080	-1.106855	-0.534513
H156	H	0.210920	-0.606855	-0.034513
H157	H	-0.472377	-0.981516	-0.858523
H158	H	0.027623	-0.481516	-0.358523
F159	F	-0.671423	-1.005037	-0.299296
F160	F	-0.171423	-0.505037	0.200704
F161	F	-0.919114	-0.874778	-0.429445
F162	F	-0.419114	-0.374778	0.070555
F163	F	-0.795286	-0.896595	-0.407616
F164	F	-0.295286	-0.396595	0.092384
H165	H	-1.079151	-1.070545	-0.234029
H166	H	-0.579151	-0.570545	0.265971
F167	F	-0.485044	-0.457537	-0.152718
F168	F	0.014956	0.042463	0.347282
H169	H	-0.289270	-0.414892	-0.354781
H170	H	0.210730	0.085108	0.145219
H171	H	-0.289246	-0.642415	-0.354774
H172	H	0.210754	-0.142415	0.145226
H173	H	-0.289281	-0.286650	-0.354785
H174	H	0.210719	0.213350	0.145215
F175	F	-0.671367	-1.183846	-0.120750
F176	F	-0.171367	-0.683846	0.379250
H177	H	-0.289043	-1.106862	-0.662753
H178	H	0.210957	-0.606862	-0.162753
F179	F	-0.485075	-0.311631	-0.152738
F180	F	0.014925	0.188369	0.347262
H181	H	-0.288949	-1.106894	-1.018541
H182	H	0.211051	-0.606894	-0.518541
F183	F	-1.089511	-0.904352	-0.399958
F184	F	-0.589511	-0.404352	0.100042
H185	H	-1.030184	-1.113408	-0.191222
H186	H	-0.530184	-0.613408	0.308778
H187	H	-0.955289	-1.178984	-0.125714
H188	H	-0.455289	-0.678984	0.374286
F189	F	-0.841769	-1.213425	-0.091284
F190	F	-0.341769	-0.713425	0.408716
