data_functionalizedCrystal
_audit_creation_method	'MofGen! by Chris Wilmer'
_symmetry_space_group_name_H-M	'P1'
_symmetry_Int_Tables_number	1
_symmetry_cell_setting	triclinic
loop_
_symmetry_equiv_pos_as_xyz
  x,y,z
_cell_length_a	17.077404
_cell_length_b	14.908520
_cell_length_c	17.077396
_cell_angle_alpha	93.268321
_cell_angle_beta	89.980499
_cell_angle_gamma	93.320938
loop_
_atom_site_label
_atom_site_type_symbol
_atom_site_fract_x
_atom_site_fract_y
_atom_site_fract_z
Zn1	Zn	1.182024	-0.359154	-0.461868
Zn2	Zn	1.515357	-0.025821	-0.128534
Zn3	Zn	1.848690	0.307513	0.204799
Zn4	Zn	1.174357	-0.510026	-0.338173
Zn5	Zn	1.507690	-0.176692	-0.004840
Zn6	Zn	1.841023	0.156641	0.328493
Zn7	Zn	1.050754	-0.359186	-0.330617
Zn8	Zn	1.384087	-0.025852	0.002716
Zn9	Zn	1.717421	0.307481	0.336050
Zn10	Zn	1.043152	-0.509972	-0.469394
Zn11	Zn	1.376485	-0.176639	-0.136061
Zn12	Zn	1.709819	0.156695	0.197273
O13	O	1.112572	-0.434584	-0.400013
O14	O	1.445905	-0.101251	-0.066680
O15	O	1.779238	0.232082	0.266654
O16	O	1.290853	-0.379177	-0.445472
O17	O	1.624186	-0.045843	-0.112138
O18	O	1.957520	0.287490	0.221195
O19	O	1.157933	-0.490052	-0.227326
O20	O	1.491266	-0.156719	0.106008
O21	O	1.824600	0.176615	0.439341
O22	O	1.074557	-0.232937	-0.341715
O23	O	1.407891	0.100397	-0.008382
O24	O	1.741224	0.433730	0.324951
O25	O	1.285220	-0.490021	-0.354594
O26	O	1.618553	-0.156688	-0.021261
O27	O	1.951887	0.176645	0.312073
O28	O	1.171001	-0.232913	-0.438145
O29	O	1.504334	0.100420	-0.104811
O30	O	1.837667	0.433753	0.228522
O31	O	1.067123	-0.379231	-0.221774
O32	O	1.400456	-0.045897	0.111559
O33	O	1.733790	0.287436	0.444892
O34	O	0.939899	-0.379179	-0.349014
O35	O	1.273232	-0.045845	-0.015680
O36	O	1.606566	0.287488	0.317653
O37	O	1.061601	-0.489930	-0.578241
O38	O	1.394934	-0.156597	-0.244908
O39	O	1.728268	0.176737	0.088426
O40	O	0.934314	-0.489961	-0.450973
O41	O	1.267647	-0.156627	-0.117639
O42	O	1.600981	0.176706	0.215694
O43	O	1.163629	-0.379125	-0.572711
O44	O	1.496963	-0.045791	-0.239378
O45	O	1.830296	0.287542	0.093956
O46	O	1.150562	-0.636263	-0.361892
O47	O	1.483895	-0.302930	-0.028559
O48	O	1.817228	0.030403	0.304774
O49	O	1.054166	-0.636224	-0.458300
O50	O	1.387500	-0.302891	-0.124966
O51	O	1.720833	0.030443	0.208367
C52	C	0.908625	-0.434568	-0.399990
C53	C	1.241958	-0.101235	-0.066657
C54	C	1.575291	0.232099	0.266676
C55	C	0.821374	-0.434583	-0.400001
C56	C	1.154707	-0.101249	-0.066667
C57	C	1.488041	0.232084	0.266666
C58	C	0.777492	-0.492354	-0.453014
C59	C	1.110825	-0.159021	-0.119681
C60	C	1.444158	0.174313	0.213652
C61	C	0.695511	-0.492356	-0.453027
C62	C	1.028845	-0.159023	-0.119694
C63	C	1.362178	0.174311	0.213640
C64	C	0.657414	-0.434591	-0.400022
C65	C	0.990748	-0.101257	-0.066688
C66	C	1.324081	0.232076	0.266645
C67	C	0.701302	-0.376813	-0.347005
C68	C	1.034636	-0.043480	-0.013672
C69	C	1.367969	0.289854	0.319662
C70	C	0.783282	-0.376807	-0.346997
C71	C	1.116615	-0.043474	-0.013664
C72	C	1.449948	0.289860	0.319670
C73	C	0.530432	-0.376831	-0.347025
C74	C	0.863765	-0.043497	-0.013692
C75	C	1.197098	0.289836	0.319642
C76	C	0.448447	-0.376837	-0.347032
C77	C	0.781780	-0.043504	-0.013699
C78	C	1.115113	0.289829	0.319635
C79	C	0.442661	-0.492380	-0.453055
C80	C	0.775994	-0.159046	-0.119722
C81	C	1.109328	0.174287	0.213611
C82	C	0.524640	-0.492374	-0.453047
C83	C	0.857974	-0.159040	-0.119714
C84	C	1.191307	0.174293	0.213620
C85	C	0.568523	-0.434597	-0.400029
C86	C	0.901856	-0.101264	-0.066696
C87	C	1.235190	0.232070	0.266637
C88	C	1.100728	-0.668978	-0.411750
C89	C	1.434062	-0.335644	-0.078416
C90	C	1.767395	-0.002311	0.254917
C91	C	1.095734	-0.769252	-0.416797
C92	C	1.429067	-0.435919	-0.083464
C93	C	1.762400	-0.102585	0.249870
C94	C	1.186828	-0.957658	-0.325973
C95	C	1.520161	-0.624325	0.007360
C96	C	1.853495	-0.290992	0.340693
C97	C	1.182137	-1.051875	-0.330713
C98	C	1.515471	-0.718542	0.002620
C99	C	1.848804	-0.385208	0.335954
C100	C	1.081667	-1.051904	-0.431020
C101	C	1.415000	-0.718571	-0.097687
C102	C	1.748334	-0.385237	0.235647
C103	C	1.086357	-0.957687	-0.426280
C104	C	1.419691	-0.624354	-0.092947
C105	C	1.753024	-0.291021	0.240387
C106	C	1.138939	-0.910568	-0.373754
C107	C	1.472272	-0.577234	-0.040421
C108	C	1.805605	-0.243901	0.292912
C109	C	1.143625	-0.816349	-0.369011
C110	C	1.476958	-0.483016	-0.035678
C111	C	1.810291	-0.149683	0.297656
C112	C	1.043159	-0.816380	-0.469321
C113	C	1.376492	-0.483047	-0.135988
C114	C	1.709825	-0.149713	0.197345
C115	C	1.038468	-0.910597	-0.474061
C116	C	1.371802	-0.577263	-0.140728
C117	C	1.705135	-0.243930	0.192606
C118	C	1.317315	-0.434601	-0.400036
C119	C	1.650648	-0.101268	-0.066703
C120	C	1.983982	0.232065	0.266631
C121	C	1.404564	-0.434609	-0.400046
C122	C	1.737898	-0.101275	-0.066713
C123	C	2.071231	0.232058	0.266621
C124	C	1.112622	-0.434518	-0.604754
C125	C	1.445956	-0.101185	-0.271421
C126	C	1.779289	0.232149	0.061913
C127	C	1.112644	-0.434490	-0.692002
C128	C	1.445977	-0.101156	-0.358669
C129	C	1.779311	0.232177	-0.025336
C130	C	1.124482	-0.199276	-0.388248
C131	C	1.457816	0.134058	-0.054914
C132	C	1.791149	0.467391	0.278419
C133	C	1.129558	-0.099001	-0.383234
C134	C	1.462891	0.234332	-0.049901
C135	C	1.796225	0.567665	0.283433
C136	C	1.165772	-0.376788	-0.730114
C137	C	1.499106	-0.043455	-0.396781
C138	C	1.832439	0.289878	-0.063448
C139	C	1.165783	-0.376758	-0.812093
C140	C	1.499117	-0.043425	-0.478760
C141	C	1.832450	0.289908	-0.145427
C142	C	1.112669	-0.434435	-0.855959
C143	C	1.446002	-0.101101	-0.522626
C144	C	1.779336	0.232232	-0.189293
C145	C	1.059535	-0.492138	-0.817842
C146	C	1.392868	-0.158805	-0.484508
C147	C	1.726202	0.174528	-0.151175
C148	C	1.059521	-0.492163	-0.735864
C149	C	1.392854	-0.158830	-0.402531
C150	C	1.726188	0.174503	-0.069197
C151	C	1.059569	-0.492084	-0.988709
C152	C	1.392903	-0.158751	-0.655376
C153	C	1.726236	0.174582	-0.322043
C154	C	1.059584	-0.492061	-1.070693
C155	C	1.392918	-0.158727	-0.737359
C156	C	1.726251	0.174606	-0.404026
C157	C	1.165832	-0.376679	-1.064938
C158	C	1.499165	-0.043346	-0.731605
C159	C	1.832498	0.289987	-0.398272
C160	C	1.165818	-0.376704	-0.982961
C161	C	1.499151	-0.043371	-0.649627
C162	C	1.832484	0.289963	-0.316294
C163	C	1.112684	-0.434409	-0.944849
C164	C	1.446018	-0.101076	-0.611516
C165	C	1.779351	0.232257	-0.278182
C166	C	1.112569	-0.434585	-0.196065
C167	C	1.445903	-0.101252	0.137268
C168	C	1.779236	0.232081	0.470601
C169	C	1.112713	-0.434360	-0.108804
C170	C	1.446046	-0.101026	0.224529
C171	C	1.779379	0.232307	0.557862
H172	H	0.566159	-0.329775	-0.303859
H173	H	0.899492	0.003559	0.029474
H174	H	1.232826	0.336892	0.362808
O175	O	1.002240	-0.554341	-0.865150
O176	O	1.335573	-0.221007	-0.531817
O177	O	1.668906	0.112326	-0.198484
H178	H	1.035051	-0.600240	-0.904797
H179	H	1.368385	-0.266906	-0.571464
H180	H	1.701718	0.066427	-0.238130
O181	O	1.002209	-0.554385	-0.694751
O182	O	1.335543	-0.221052	-0.361417
O183	O	1.668876	0.112281	-0.028084
H184	H	0.965278	-0.594488	-0.739024
H185	H	1.298611	-0.261155	-0.405691
H186	H	1.631944	0.072178	-0.072357
H187	H	0.670278	-0.329775	-0.303850
H188	H	1.003611	0.003558	0.029483
H189	H	1.336944	0.336891	0.362816
H190	H	1.186437	-0.777985	-0.326240
H191	H	1.519770	-0.444652	0.007094
H192	H	1.853103	-0.111319	0.340427
H193	H	1.004162	-0.778028	-0.508225
H194	H	1.337495	-0.444695	-0.174892
H195	H	1.670828	-0.111362	0.158441
H196	H	1.209027	-0.329824	-0.694404
H197	H	1.542360	0.003509	-0.361071
H198	H	1.875693	0.336842	-0.027738
H199	H	1.038863	-1.090285	-0.473789
H200	H	1.372197	-0.756952	-0.140456
H201	H	1.705530	-0.423619	0.192878
O202	O	0.565734	-0.554671	-0.510221
O203	O	0.899067	-0.221338	-0.176887
O204	O	1.232400	0.111995	0.156446
H205	H	0.546419	-0.625460	-0.500211
H206	H	0.879752	-0.292126	-0.166878
H207	H	1.213085	0.041207	0.166455
H208	H	0.406928	-0.539421	-0.496226
H209	H	0.740261	-0.206087	-0.162893
H210	H	1.073595	0.127246	0.170440
O211	O	1.233799	-1.102655	-0.279178
O212	O	1.567132	-0.769322	0.054156
O213	O	1.900466	-0.435988	0.387489
H214	H	1.271586	-1.145502	-0.316512
H215	H	1.604919	-0.812168	0.016822
H216	H	1.938252	-0.478835	0.350155
H217	H	0.995660	-0.948974	-0.516828
H218	H	1.328994	-0.615641	-0.183495
H219	H	1.662327	-0.282308	0.149839
H220	H	1.209072	-0.329744	-0.947247
H221	H	1.542405	0.003589	-0.613914
H222	H	1.875739	0.336923	-0.280581
H223	H	1.229636	-0.919293	-0.283199
H224	H	1.562970	-0.585960	0.050134
H225	H	1.896303	-0.252626	0.383468
O226	O	0.818582	-0.554655	-0.510188
O227	O	1.151915	-0.221322	-0.176855
O228	O	1.485249	0.112012	0.156479
H229	H	0.774292	-0.594819	-0.547060
H230	H	1.107625	-0.261486	-0.213726
H231	H	1.440958	0.071847	0.119607
H232	H	1.209048	-0.329774	-0.843120
H233	H	1.542381	0.003559	-0.509787
H234	H	1.875714	0.336892	-0.176453
H235	H	0.659786	-0.539400	-0.496196
H236	H	0.993119	-0.206067	-0.162862
H237	H	1.326452	0.127267	0.170471
H238	H	0.417431	-0.329789	-0.303879
H239	H	0.750764	0.003544	0.029454
H240	H	1.084098	0.336878	0.362788
O241	O	0.830618	-0.314508	-0.289810
O242	O	1.163951	0.018825	0.043524
O243	O	1.497284	0.352159	0.376857
H244	H	0.790355	-0.274349	-0.252945
H245	H	1.123688	0.058984	0.080388
H246	H	1.457022	0.392318	0.413722
H247	H	1.209094	-0.329692	-1.095973
H248	H	1.542427	0.003641	-0.762639
H249	H	1.875760	0.336974	-0.429306
H250	H	1.016332	-0.539024	-1.106406
H251	H	1.349666	-0.205691	-0.773073
H252	H	1.682999	0.127643	-0.439740
O253	O	1.002258	-0.554316	-0.947598
O254	O	1.335592	-0.220982	-0.614264
O255	O	1.668925	0.112351	-0.280931
H256	H	0.965330	-0.594422	-0.991871
H257	H	1.298663	-0.261089	-0.658538
H258	H	1.631997	0.072244	-0.325205
