data_functionalizedCrystal
_audit_creation_method	'MofGen! by Chris Wilmer'
_symmetry_space_group_name_H-M	'P1'
_symmetry_Int_Tables_number	1
_symmetry_cell_setting	triclinic
loop_
_symmetry_equiv_pos_as_xyz
  x,y,z
_cell_length_a	19.188925
_cell_length_b	19.188924
_cell_length_c	9.130313
_cell_angle_alpha	89.996698
_cell_angle_beta	89.998826
_cell_angle_gamma	83.142256
loop_
_atom_site_label
_atom_site_type_symbol
_atom_site_fract_x
_atom_site_fract_y
_atom_site_fract_z
O1	O	0.926141	0.087147	-0.121837
O2	O	1.426141	0.587147	0.378163
O3	O	0.722829	0.098885	-0.121834
O4	O	1.222829	0.598885	0.378166
O5	O	0.830355	-0.008640	-0.121819
O6	O	1.330355	0.491360	0.378181
O7	O	0.818615	0.194672	-0.121853
O8	O	1.318615	0.694672	0.378147
O9	O	0.830353	-0.008637	0.121780
O10	O	1.330353	0.491363	0.621780
O11	O	0.722828	0.098888	0.121764
O12	O	1.222828	0.598888	0.621764
O13	O	0.926140	0.087150	0.121761
O14	O	1.426140	0.587150	0.621761
Cu15	Cu	0.824484	0.093019	0.144005
Cu16	Cu	1.324484	0.593019	0.644005
Cu17	Cu	0.824485	0.093016	-0.144078
Cu18	Cu	1.324485	0.593016	0.355922
O19	O	0.818614	0.194675	0.121746
O20	O	1.318614	0.694675	0.621746
C21	C	0.696817	0.098507	-0.000034
C22	C	1.196817	0.598507	0.499966
C23	C	0.619313	0.097368	-0.000033
C24	C	1.119313	0.597368	0.499967
C25	C	0.057541	0.152832	-0.000045
C26	C	0.557541	0.652832	0.499955
C27	C	0.130364	0.153908	-0.000053
C28	C	0.630364	0.653908	0.499947
C29	C	0.175300	0.090816	-0.000040
C30	C	0.675300	0.590816	0.499960
C31	C	0.147408	0.026642	-0.000056
C32	C	0.647408	0.526642	0.499944
C33	C	0.074586	0.025568	-0.000063
C34	C	0.574586	0.525568	0.499937
N35	N	0.295978	0.045141	0.082890
N36	N	0.795978	0.545141	0.582890
N37	N	0.365155	0.046166	0.082900
N38	N	0.865155	0.546166	0.582900
C39	C	0.394709	0.094050	-0.000023
C40	C	0.894709	0.594050	0.499977
N41	N	0.352471	0.140881	-0.082938
N42	N	0.852471	0.640881	0.417062
N43	N	0.283287	0.139858	-0.082941
N44	N	0.783287	0.639858	0.417059
C45	C	0.254264	0.091974	-0.000034
C46	C	0.754264	0.591974	0.499966
C47	C	0.501557	0.159387	-0.000026
C48	C	1.001557	0.659387	0.499974
C49	C	0.574381	0.160461	-0.000043
C50	C	1.074381	0.660461	0.499957
C51	C	0.591424	0.033193	-0.000032
C52	C	1.091424	0.533193	0.499968
C53	C	0.518600	0.032121	-0.000029
C54	C	1.018600	0.532121	0.499971
C55	C	0.473671	0.095220	-0.000020
C56	C	0.973671	0.595220	0.499980
C57	C	0.829975	-0.034650	-0.000018
C58	C	1.329975	0.465350	0.499982
C59	C	0.828836	-0.112155	-0.000014
C60	C	1.328836	0.387845	0.499986
C61	C	0.828305	-0.148555	-0.132800
C62	C	1.328305	0.351445	0.367200
C63	C	0.827225	-0.221378	-0.132811
C64	C	1.327225	0.278622	0.367189
C65	C	0.826690	-0.257799	-0.000029
C66	C	1.326690	0.242201	0.499971
C67	C	0.827217	-0.221389	0.132775
C68	C	1.327217	0.278611	0.632775
C69	C	0.828290	-0.148567	0.132782
C70	C	1.328290	0.351433	0.632782
N71	N	0.864737	-0.377462	0.098798
N72	N	1.364737	0.122538	0.598798
N73	N	0.863720	-0.446640	0.098782
N74	N	1.363720	0.053360	0.598782
C75	C	0.823456	-0.477208	-0.000043
C76	C	1.323456	0.022792	0.499957
N77	N	0.784257	-0.435986	-0.098873
N78	N	1.284257	0.064014	0.401127
N79	N	0.785278	-0.366802	-0.098861
N80	N	1.285278	0.133198	0.401139
C81	C	0.825526	-0.336763	-0.000022
C82	C	1.325526	0.163237	0.499978
C83	C	0.821753	-0.592571	-0.132850
C84	C	1.321753	-0.092571	0.367150
C85	C	0.820669	-0.665395	-0.132856
C86	C	1.320669	-0.165395	0.367144
C87	C	0.820668	-0.665406	0.132734
C88	C	1.320668	-0.165406	0.632734
C89	C	0.821745	-0.592583	0.132736
C90	C	1.321745	-0.092583	0.632736
C91	C	0.822291	-0.556170	-0.000060
C92	C	1.322291	-0.056170	0.499940
C93	C	0.952151	0.087528	-0.000042
C94	C	1.452151	0.587528	0.499958
C95	C	1.029656	0.088667	-0.000053
C96	C	1.529656	0.588667	0.499947
C97	C	0.818994	0.220684	-0.000058
C98	C	1.318994	0.720684	0.499942
C99	C	0.820133	0.298189	-0.000072
C100	C	1.320133	0.798189	0.499928
N101	N	0.824488	0.093021	0.346628
N102	N	1.324488	0.593021	0.846628
N103	N	0.824487	0.093008	-0.346701
N104	N	1.324487	0.593008	0.153299
C105	C	0.872112	0.045425	0.423287
C106	C	1.372112	0.545425	0.923287
C107	C	0.872110	0.045416	0.576624
C108	C	1.372110	0.545416	1.076624
C109	C	0.776857	0.140606	0.576629
C110	C	1.276857	0.640606	1.076629
C111	C	0.776856	0.140611	0.423295
C112	C	1.276856	0.640611	0.923295
C113	C	0.919743	-0.002165	0.346620
C114	C	1.419743	0.497835	0.846620
C115	C	0.967372	-0.049765	0.423279
C116	C	1.467372	0.450235	0.923279
C117	C	0.967370	-0.049773	0.576616
C118	C	1.467370	0.450227	1.076616
C119	C	0.919740	-0.002182	0.653293
C120	C	1.419740	0.497818	1.153293
H121	H	0.020963	0.204212	-0.000045
H122	H	0.520963	0.704212	0.499955
Br123	Br	0.829007	-0.099162	0.313006
Br124	Br	1.329007	0.400838	0.813006
Br125	Br	1.032002	-0.114358	0.319223
Br126	Br	1.532002	0.385642	0.819223
Br127	Br	0.829043	-0.099141	-0.313022
Br128	Br	1.329043	0.400859	0.186978
Br129	Br	0.208390	-0.058984	-0.000051
Br130	Br	0.708390	0.441016	0.499949
H131	H	0.826789	-0.251020	-0.240945
H132	H	1.326789	0.248980	0.259055
Br133	Br	0.822462	-0.543178	0.312956
Br134	Br	1.322462	-0.043178	0.812956
H135	H	0.919737	-0.002198	0.778151
H136	H	1.419737	0.497802	1.278151
H137	H	0.738075	0.179368	0.360879
H138	H	1.238075	0.679368	0.860879
H139	H	0.919750	-0.002162	0.221765
H140	H	1.419750	0.497838	0.721765
Br141	Br	0.036739	-0.061520	-0.000083
Br142	Br	0.536739	0.438480	0.499917
H143	H	0.464973	0.210766	-0.000021
H144	H	0.964973	0.710766	0.499979
H145	H	0.628010	-0.018178	-0.000032
H146	H	1.128010	0.481822	0.499968
Br147	Br	0.480753	-0.054965	-0.000052
Br148	Br	0.980753	0.445035	0.499948
Br149	Br	1.032000	-0.114378	0.680653
Br150	Br	1.532000	0.385622	1.180653
H151	H	0.738079	0.179354	0.639070
H152	H	1.238079	0.679354	1.139070
Br153	Br	0.826482	-0.270815	0.312981
Br154	Br	1.326482	0.229185	0.812981
H155	H	0.153073	0.206161	-0.000033
H156	H	0.653073	0.706161	0.499967
H157	H	0.822194	-0.562922	-0.240981
H158	H	1.322194	-0.062922	0.259019
H159	H	0.597083	0.212714	-0.000049
H160	H	1.097083	0.712714	0.499951
H161	H	0.820233	-0.695030	-0.240990
H162	H	1.320233	-0.195030	0.259010
Br163	Br	0.819935	-0.714826	0.312943
Br164	Br	1.319935	-0.214826	0.812943
