data_functionalizedCrystal
_audit_creation_method	'MofGen! by Chris Wilmer'
_symmetry_space_group_name_H-M	'P1'
_symmetry_Int_Tables_number	1
_symmetry_cell_setting	triclinic
loop_
_symmetry_equiv_pos_as_xyz
  x,y,z
_cell_length_a	12.594517
_cell_length_b	12.594516
_cell_length_c	15.296720
_cell_angle_alpha	80.349469
_cell_angle_beta	80.339807
_cell_angle_gamma	90.015485
loop_
_atom_site_label
_atom_site_type_symbol
_atom_site_fract_x
_atom_site_fract_y
_atom_site_fract_z
Zn1	Zn	1.523036	-0.527896	0.510135
Zn2	Zn	2.023036	-0.027896	1.010135
Zn3	Zn	1.553746	-0.675105	0.359296
Zn4	Zn	2.053746	-0.175105	0.859296
Zn5	Zn	1.375860	-0.497139	0.359295
Zn6	Zn	1.875860	0.002861	0.859295
Zn7	Zn	1.345030	-0.705823	0.510097
Zn8	Zn	1.845030	-0.205823	1.010097
O9	O	1.449418	-0.601491	0.434706
O10	O	1.949418	-0.101491	0.934706
O11	O	1.676052	-0.547440	0.490142
O12	O	2.176052	-0.047440	0.990142
O13	O	1.555904	-0.625769	0.233058
O14	O	2.055904	-0.125769	0.733058
O15	O	1.395433	-0.352276	0.379319
O16	O	1.895433	0.147724	0.879319
O17	O	1.698615	-0.655593	0.379322
O18	O	2.198615	-0.155593	0.879322
O19	O	1.503563	-0.374873	0.490141
O20	O	2.003563	0.125127	0.990141
O21	O	1.425211	-0.495018	0.233057
O22	O	1.925211	0.004982	0.733057
O23	O	1.222828	-0.524805	0.379282
O24	O	1.722828	-0.024805	0.879282
O25	O	1.342888	-0.707949	0.636339
O26	O	1.842888	-0.207949	1.136339
O27	O	1.200177	-0.678125	0.490076
O28	O	1.700177	-0.178125	0.990076
O29	O	1.473669	-0.577226	0.636367
O30	O	1.973669	-0.077226	1.136367
O31	O	1.526010	-0.828122	0.379285
O32	O	2.026010	-0.328122	0.879285
O33	O	1.372667	-0.850691	0.490077
O34	O	1.872667	-0.350691	0.990077
C35	C	1.172883	-0.601461	0.434675
C36	C	1.672883	-0.101461	0.934675
C37	C	1.054576	-0.601479	0.434684
C38	C	1.554576	-0.101479	0.934684
C39	C	0.926820	-0.518038	0.374561
C40	C	1.426820	-0.018038	0.874561
C41	C	0.980859	-0.508914	0.456878
C42	C	1.480859	-0.008914	0.956878
C43	C	1.002106	-0.610557	0.352375
C44	C	1.502106	-0.110557	0.852375
C45	C	0.897808	-0.592369	0.517111
C46	C	1.397808	-0.092369	1.017111
C47	C	0.919060	-0.694045	0.412552
C48	C	1.419060	-0.194045	0.912552
C49	C	0.973056	-0.684970	0.494926
C50	C	1.473056	-0.184970	0.994926
C51	C	1.449350	-0.878030	0.434697
C52	C	1.949350	-0.378030	0.934697
C53	C	1.449412	-0.996341	0.434723
C54	C	1.949412	-0.496341	0.934723
C55	C	1.366011	-1.077899	0.494941
C56	C	1.866011	-0.577899	0.994941
C57	C	1.356896	-1.131955	0.412625
C58	C	1.856896	-0.631955	0.912625
C59	C	1.458621	-1.153086	0.517053
C60	C	1.958621	-0.653086	1.017053
C61	C	1.440255	-1.048830	0.352363
C62	C	1.940255	-0.548830	0.852363
C63	C	1.542014	-1.069966	0.456848
C64	C	2.042014	-0.569966	0.956848
C65	C	1.532948	-1.123979	0.374475
C66	C	2.032948	-0.623979	0.874475
C67	C	1.727033	-0.601521	0.434736
C68	C	2.227033	-0.101521	0.934736
C69	C	1.845335	-0.601534	0.434750
C70	C	2.345335	-0.101534	0.934750
C71	C	1.401414	-0.649445	0.670001
C72	C	1.901414	-0.149445	1.170001
C73	C	1.380957	-0.669880	0.770269
C74	C	1.880957	-0.169880	1.270269
C75	C	1.449511	-0.323876	0.434734
C76	C	1.949511	0.176124	0.934734
C77	C	1.449551	-0.205573	0.434746
C78	C	1.949551	0.294427	0.934746
C79	C	1.497297	-0.553646	0.200326
C80	C	1.997297	-0.053646	0.700326
C81	C	1.517959	-0.532911	0.100058
C82	C	2.017959	-0.032911	0.600058
C83	C	1.595664	-0.455251	1.052969
C84	C	2.095664	0.044749	1.552969
C85	C	1.614891	-0.436053	0.958761
C86	C	2.114891	0.063947	1.458761
C87	C	1.556409	-0.494507	0.911634
C88	C	2.056409	0.005493	1.411634
C89	C	1.478697	-0.572164	0.958723
C90	C	1.978697	-0.072164	1.458723
C91	C	1.459475	-0.591370	1.052939
C92	C	1.959475	-0.091370	1.552939
C93	C	1.420219	-0.630627	0.911604
C94	C	1.920219	-0.130627	1.411604
C95	C	1.342508	-0.708284	0.958693
C96	C	1.842508	-0.208284	1.458693
C97	C	1.323288	-0.727486	1.052901
C98	C	1.823288	-0.227486	1.552901
C99	C	1.381770	-0.669031	1.100028
C100	C	1.881770	-0.169031	1.600028
C101	C	1.439442	-0.611421	0.817388
C102	C	1.939442	-0.111421	1.317388
C103	C	1.303253	-0.747541	0.817358
C104	C	1.803253	-0.247541	1.317358
C105	C	1.284026	-0.766739	0.911566
C106	C	1.784026	-0.266739	1.411566
H107	H	0.906105	-0.447420	0.323752
H108	H	1.406105	0.052580	0.823752
Br109	Br	1.007219	-0.802642	0.579807
Br110	Br	1.507219	-0.302642	1.079807
H111	H	1.220752	-0.829967	0.949919
H112	H	1.720752	-0.329967	1.449919
H113	H	1.295388	-1.057247	0.545791
H114	H	1.795388	-0.557247	1.045791
Br115	Br	1.026333	-0.378483	0.488145
Br116	Br	1.526333	0.121517	0.988145
H117	H	0.852674	-0.584620	0.586766
H118	H	1.352674	-0.084620	1.086766
Br119	Br	1.650626	-1.158032	0.289522
Br120	Br	2.150626	-0.658032	0.789522
Br121	Br	1.544906	-0.506034	0.753492
Br122	Br	2.044906	-0.006034	1.253492
H123	H	0.891750	-0.772273	0.393775
H124	H	1.391750	-0.272273	0.893775
Br125	Br	1.355683	-0.695087	1.227887
Br126	Br	1.855683	-0.195087	1.727887
H127	H	1.047367	-0.618213	0.282740
H128	H	1.547367	-0.118213	0.782740
H129	H	1.278648	-1.159356	0.393931
H130	H	1.778648	-0.659356	0.893931
H131	H	1.620235	-1.042576	0.475581
H132	H	2.120235	-0.542576	0.975581
Br133	Br	1.427218	-0.973643	0.236297
Br134	Br	1.927218	-0.473643	0.736297
Br135	Br	1.471511	-1.228497	0.633082
Br136	Br	1.971511	-0.728497	1.133082
Br137	Br	1.720354	-0.330668	0.894861
Br138	Br	2.220354	0.169332	1.394861
Br139	Br	1.675036	-0.375942	1.116930
Br140	Br	2.175036	0.124058	1.616930
H141	H	1.572068	-0.478872	0.834926
H142	H	2.072068	0.021128	1.334926
Br143	Br	1.217845	-0.832899	1.116806
Br144	Br	1.717845	-0.332899	1.616806
H145	H	1.255634	-0.795141	0.778987
H146	H	1.755634	-0.295141	1.278987
