data_functionalizedCrystal
_audit_creation_method	'MofGen! by Chris Wilmer'
_symmetry_space_group_name_H-M	'P1'
_symmetry_Int_Tables_number	1
_symmetry_cell_setting	triclinic
loop_
_symmetry_equiv_pos_as_xyz
  x,y,z
_cell_length_a	11.169417
_cell_length_b	19.805405
_cell_length_c	11.169409
_cell_angle_alpha	89.960143
_cell_angle_beta	89.980487
_cell_angle_gamma	90.027660
loop_
_atom_site_label
_atom_site_type_symbol
_atom_site_fract_x
_atom_site_fract_y
_atom_site_fract_z
Zn1	Zn	1.834828	-0.269386	-0.678470
Zn2	Zn	1.834661	-0.382595	-0.477761
Zn3	Zn	1.634114	-0.269428	-0.477805
Zn4	Zn	1.634065	-0.382541	-0.678407
O5	O	1.734417	-0.325987	-0.578111
O6	O	2.002756	-0.284408	-0.651853
O7	O	1.808009	-0.367624	-0.309817
O8	O	1.660830	-0.174706	-0.504469
O9	O	2.002633	-0.367583	-0.504393
O10	O	1.808293	-0.174675	-0.651897
O11	O	1.660668	-0.284480	-0.309850
O12	O	1.466158	-0.284427	-0.504408
O13	O	1.660746	-0.367490	-0.846365
O14	O	1.466122	-0.367531	-0.651789
O15	O	1.808246	-0.284356	-0.846411
O16	O	1.807962	-0.477304	-0.504331
O17	O	1.660585	-0.477265	-0.651745
C18	C	1.422593	-0.325978	-0.578097
C19	C	1.289193	-0.325991	-0.578120
C20	C	1.734282	-0.501843	-0.578053
C21	C	1.734334	-0.577075	-0.578068
C22	C	1.811148	-0.612418	-0.501390
C23	C	1.811199	-0.683106	-0.501416
C24	C	1.734429	-0.718451	-0.578116
C25	C	1.657612	-0.683104	-0.654802
C26	C	1.657568	-0.612416	-0.654781
C27	C	1.657789	-0.968177	-0.654891
C28	C	1.657837	-1.038869	-0.654904
C29	C	1.811420	-1.038867	-0.501527
C30	C	1.811376	-0.968179	-0.501505
C31	C	1.734564	-0.932838	-0.578196
C32	C	1.734511	-0.856190	-0.578168
C33	C	1.734475	-0.795098	-0.578139
C34	C	2.047460	-0.325997	-0.578125
C35	C	2.180860	-0.326001	-0.578131
C36	C	1.734509	-0.325912	-0.891153
C37	C	1.734549	-0.325880	-1.024553
C38	C	1.734586	-0.149445	-0.578195
C39	C	1.734657	-0.074213	-0.578231
C40	C	1.734395	-0.326013	-0.266286
C41	C	1.734588	-0.325855	-0.132887
H42	H	1.873748	-0.711879	-0.438977
H43	H	1.873885	-0.939404	-0.439046
C44	C	1.573391	-1.077750	-0.739286
C45	C	1.573438	-1.155503	-0.739299
C46	C	1.488997	-1.194384	-0.823674
C47	C	1.404509	-1.155512	-0.908035
C48	C	1.404459	-1.077755	-0.908025
C49	C	1.488900	-1.038874	-0.823650
H50	H	1.635984	-1.184282	-0.676847
H51	H	1.489034	-1.251946	-0.823681
H52	H	1.342001	-1.184295	-0.970494
H53	H	1.341914	-1.048976	-0.970477
H54	H	1.488863	-0.981312	-0.823643
H55	H	1.595020	-0.583641	-0.717221
H56	H	1.595244	-0.939407	-0.717333
C57	C	1.573165	-0.721982	-0.739173
C58	C	1.436726	-0.712331	-0.729263
C59	C	1.352274	-0.751209	-0.813632
C60	C	1.404261	-0.799737	-0.907912
C61	C	1.540707	-0.809391	-0.917826
C62	C	1.625159	-0.770513	-0.833456
H63	H	1.398236	-0.676405	-0.659468
H64	H	1.251268	-0.744062	-0.806292
H65	H	1.341745	-0.828517	-0.970367
H66	H	1.579198	-0.845317	-0.987620
H67	H	1.726166	-0.777659	-0.840796
C68	C	1.895598	-0.573541	-0.417018
C69	C	1.885886	-0.583334	-0.280575
C70	C	1.970342	-0.544459	-0.196204
C71	C	2.064508	-0.495793	-0.248277
C72	C	2.074223	-0.485998	-0.384728
C73	C	1.989768	-0.524873	-0.469099
H74	H	1.816175	-0.619361	-0.242021
H75	H	1.963149	-0.551710	-0.095194
H76	H	2.127027	-0.467016	-0.185821
H77	H	2.143935	-0.449971	-0.423282
H78	H	1.996961	-0.517622	-0.570109
H79	H	1.873969	-1.067650	-0.439086
