data_functionalizedCrystal
_audit_creation_method	'MofGen! by Chris Wilmer'
_symmetry_space_group_name_H-M	'P1'
_symmetry_Int_Tables_number	1
_symmetry_cell_setting	triclinic
loop_
_symmetry_equiv_pos_as_xyz
  x,y,z
_cell_length_a	27.731993
_cell_length_b	27.732064
_cell_length_c	17.666332
_cell_angle_alpha	89.997589
_cell_angle_beta	90.002180
_cell_angle_gamma	82.634907
loop_
_atom_site_label
_atom_site_type_symbol
_atom_site_fract_x
_atom_site_fract_y
_atom_site_fract_z
O1	O	0.640951	0.057392	-0.062739
O2	O	1.140951	0.557392	0.437261
O3	O	0.500154	0.066165	-0.062784
O4	O	1.000154	0.566165	0.437216
O5	O	0.574921	-0.008619	-0.062763
O6	O	1.074921	0.491381	0.437237
O7	O	0.566184	0.132175	-0.062760
O8	O	1.066184	0.632175	0.437240
O9	O	0.574908	-0.008623	0.063134
O10	O	1.074908	0.491377	0.563134
O11	O	0.500141	0.066161	0.063113
O12	O	1.000141	0.566161	0.563113
O13	O	0.640938	0.057388	0.063158
O14	O	1.140938	0.557388	0.563158
Cu15	Cu	0.570539	0.061774	0.074631
Cu16	Cu	1.070539	0.561774	0.574631
Cu17	Cu	0.570554	0.061779	-0.074256
Cu18	Cu	1.070554	0.561779	0.425744
O19	O	0.566171	0.132171	0.063137
O20	O	1.066171	0.632171	0.563137
C21	C	0.482141	0.065983	0.000159
C22	C	0.982141	0.565983	0.500159
C23	C	0.428484	0.065441	0.000141
C24	C	0.928484	0.565441	0.500141
C25	C	0.045331	0.061512	-0.068448
C26	C	0.545331	0.561512	0.431552
C27	C	0.246988	0.063579	-0.068469
C28	C	0.746988	0.563579	0.431531
O29	O	0.273068	0.063829	-0.126834
O30	O	0.773068	0.563829	0.373166
N31	N	0.272202	0.063836	0.000156
N32	N	0.772202	0.563836	0.500156
C33	C	0.246998	0.063572	0.068791
C34	C	0.746998	0.563572	0.568791
O35	O	0.273071	0.063833	0.127160
O36	O	0.773071	0.563833	0.627160
C37	C	0.045342	0.061502	0.068810
C38	C	0.545342	0.561502	0.568810
C39	C	0.020130	0.061250	0.000181
C40	C	0.520130	0.561250	0.500181
C41	C	0.020120	0.061260	-0.137072
C42	C	0.520120	0.561260	0.362928
C43	C	-0.030292	0.060746	-0.137066
C44	C	0.469708	0.560746	0.362934
C45	C	-0.055493	0.060484	-0.068437
C46	C	0.444507	0.560484	0.431563
C47	C	-0.030281	0.060736	0.000187
C48	C	0.469719	0.560736	0.500187
C49	C	0.020139	0.061235	0.137444
C50	C	0.520139	0.561235	0.637444
C51	C	-0.030278	0.060716	0.137443
C52	C	0.469722	0.560716	0.637443
C53	C	-0.055489	0.060464	0.068814
C54	C	0.444511	0.560464	0.568814
C55	C	-0.105894	0.059960	0.068822
C56	C	0.394106	0.559960	0.568822
N57	N	-0.131107	0.059703	0.000197
N58	N	0.368893	0.559703	0.500197
C59	C	-0.105906	0.059965	-0.068432
C60	C	0.394094	0.559965	0.431568
C61	C	0.352870	0.064660	0.068775
C62	C	0.852870	0.564660	0.568775
C63	C	0.403284	0.065179	0.068771
C64	C	0.903284	0.565179	0.568771
C65	C	0.403271	0.065185	-0.068489
C66	C	0.903271	0.565185	0.431511
C67	C	0.352856	0.064670	-0.068484
C68	C	0.852856	0.564670	0.431516
C69	C	0.327657	0.064404	0.000151
C70	C	0.827657	0.564404	0.500151
C71	C	-0.211775	0.058886	-0.068415
C72	C	0.288225	0.558886	0.431585
C73	C	-0.262191	0.058374	-0.068403
C74	C	0.237809	0.558374	0.431597
C75	C	-0.262174	0.058366	0.068857
C76	C	0.237826	0.558366	0.568857
C77	C	-0.211762	0.058880	0.068845
C78	C	0.288238	0.558880	0.568845
C79	C	-0.186563	0.059139	0.000203
C80	C	0.313437	0.559139	0.500203
O81	O	-0.132003	0.059705	0.127157
O82	O	0.367997	0.559705	0.627157
O83	O	-0.131987	0.059694	-0.126793
O84	O	0.368013	0.559694	0.373207
C85	C	0.095743	0.062026	-0.068454
C86	C	0.595743	0.562026	0.431546
C87	C	0.120954	0.062278	0.000169
C88	C	0.620954	0.562278	0.500169
C89	C	0.095753	0.062016	0.068799
C90	C	0.595753	0.562016	0.568799
C91	C	0.171368	0.062797	0.000165
C92	C	0.671368	0.562797	0.500165
C93	C	0.196568	0.063059	-0.068465
C94	C	0.696568	0.563059	0.431535
C95	C	0.171355	0.062802	-0.137090
C96	C	0.671355	0.562802	0.362910
C97	C	0.120943	0.062288	-0.137084
C98	C	0.620943	0.562288	0.362916
C99	C	0.120967	0.062273	0.137424
C100	C	0.620967	0.562273	0.637424
C101	C	0.171378	0.062787	0.137412
C102	C	0.671378	0.562787	0.637412
C103	C	0.196579	0.063049	0.068783
C104	C	0.696579	0.563049	0.568783
C105	C	0.574730	-0.026627	0.000183
C106	C	1.074730	0.473373	0.500183
C107	C	0.574174	-0.080282	0.000176
C108	C	1.074174	0.419718	0.500176
C109	C	0.526206	-0.457345	0.000158
C110	C	1.026206	0.042655	0.500158
C111	C	0.528252	-0.255685	0.000157
C112	C	1.028252	0.244315	0.500157
O113	O	0.491030	-0.224425	0.000115
O114	O	0.991030	0.275575	0.500115
N115	N	0.572588	-0.236566	0.000172
N116	N	1.072588	0.263434	0.500172
C117	C	0.616415	-0.267866	0.000181
C118	C	1.116415	0.232134	0.500181
O119	O	0.654172	-0.246977	0.000185
O120	O	1.154172	0.253023	0.500185
C121	C	0.614368	-0.469525	0.000176
C122	C	1.114368	0.030475	0.500176
C123	C	0.570030	-0.488641	0.000169
C124	C	1.070030	0.011359	0.500169
C125	C	0.481871	-0.476461	0.000150
C126	C	0.981871	0.023539	0.500150
C127	C	0.481360	-0.526873	0.000155
C128	C	0.981360	-0.026873	0.500155
C129	C	0.525184	-0.558169	0.000166
C130	C	1.025184	-0.058169	0.500166
C131	C	0.569518	-0.539053	0.000173
C132	C	1.069518	-0.039053	0.500173
C133	C	0.658194	-0.500824	0.000180
C134	C	1.158194	-0.000824	0.500180
C135	C	0.657679	-0.551241	0.000176
C136	C	1.157679	-0.051241	0.500176
C137	C	0.613340	-0.570357	0.000170
C138	C	1.113340	-0.070357	0.500170
C139	C	0.612831	-0.620761	0.000189
C140	C	1.112831	-0.120761	0.500189
N141	N	0.568496	-0.639879	0.000175
N142	N	1.068496	-0.139879	0.500175
C143	C	0.524672	-0.608584	0.000163
C144	C	1.024672	-0.108584	0.500163
C145	C	0.617486	-0.161992	0.000185
C146	C	1.117486	0.338008	0.500185
C147	C	0.617998	-0.111577	0.000188
C148	C	1.117998	0.388423	0.500188
C149	C	0.529835	-0.099400	0.000163
C150	C	1.029835	0.400600	0.500163
C151	C	0.529324	-0.149815	0.000166
C152	C	1.029324	0.350185	0.500166
C153	C	0.573151	-0.181111	0.000171
C154	C	1.073151	0.318889	0.500171
C155	C	0.523602	-0.714453	0.000173
C156	C	1.023602	-0.214453	0.500173
C157	C	0.523095	-0.764870	0.000180
C158	C	1.023095	-0.264870	0.500180
C159	C	0.611257	-0.777043	0.000201
C160	C	1.111257	-0.277043	0.500201
C161	C	0.611765	-0.726630	0.000198
C162	C	1.111765	-0.226630	0.500198
C163	C	0.567933	-0.695336	0.000181
C164	C	1.067933	-0.195336	0.500181
O165	O	0.650033	-0.652049	0.000223
O166	O	1.150033	-0.152049	0.500223
O167	O	0.486920	-0.629482	0.000142
O168	O	0.986920	-0.129482	0.500142
C169	C	0.526717	-0.406933	0.000153
C170	C	1.026717	0.093067	0.500153
C171	C	0.571052	-0.387817	0.000161
C172	C	1.071052	0.112183	0.500161
C173	C	0.614875	-0.419112	0.000172
C174	C	1.114875	0.080888	0.500172
C175	C	0.571564	-0.337402	0.000163
C176	C	1.071564	0.162598	0.500163
C177	C	0.527740	-0.306107	0.000152
C178	C	1.027740	0.193893	0.500152
C179	C	0.483404	-0.325225	0.000138
C180	C	0.983404	0.174775	0.500138
C181	C	0.482893	-0.375637	0.000142
C182	C	0.982893	0.124363	0.500142
C183	C	0.659211	-0.399994	0.000186
C184	C	1.159211	0.100006	0.500186
C185	C	0.659718	-0.349581	0.000183
C186	C	1.159718	0.150419	0.500183
C187	C	0.615895	-0.318285	0.000172
C188	C	1.115895	0.181715	0.500172
C189	C	0.658952	0.057570	0.000214
C190	C	1.158952	0.557570	0.500214
C191	C	0.712608	0.058112	0.000227
C192	C	1.212608	0.558112	0.500227
C193	C	0.566362	0.150180	0.000190
C194	C	1.066362	0.650180	0.500190
C195	C	0.566918	0.203834	0.000192
C196	C	1.066918	0.703834	0.500192
N197	N	0.570531	0.061770	0.179350
N198	N	1.070531	0.561770	0.679350
N199	N	0.570565	0.061778	-0.178976
N200	N	1.070565	0.561778	0.321024
C201	C	0.603649	0.028672	0.218969
C202	C	1.103649	0.528672	0.718969
C203	C	0.603652	0.028670	0.298217
C204	C	1.103652	0.528670	0.798217
C205	C	0.570542	0.061774	0.337843
C206	C	1.070542	0.561774	0.837843
C207	C	0.537418	0.094875	0.298214
C208	C	1.037418	0.594875	0.798214
C209	C	0.537413	0.094873	0.218968
C210	C	1.037413	0.594873	0.718968
N211	N	0.564071	0.104594	0.462261
N212	N	1.064071	0.604594	0.962261
N213	N	0.564079	0.104594	0.537541
N214	N	1.064079	0.604594	1.037541
C215	C	0.570554	0.061781	0.576607
C216	C	1.070554	0.561781	1.076607
N217	N	0.577031	0.018966	0.537547
N218	N	1.077031	0.518966	1.037547
N219	N	0.577026	0.018966	0.462260
N220	N	1.077026	0.518966	0.962260
C221	C	0.570543	0.061780	0.423772
C222	C	1.070543	0.561780	0.923772
C223	C	0.603677	0.028677	0.702155
C224	C	1.103677	0.528677	1.202155
C225	C	0.603676	0.028674	0.781404
C226	C	1.103676	0.528674	1.281404
C227	C	0.537445	0.094883	0.781399
C228	C	1.037445	0.594883	1.281399
C229	C	0.537443	0.094882	0.702152
C230	C	1.037443	0.594882	1.202152
C231	C	0.570561	0.061780	0.662534
C232	C	1.070561	0.561780	1.162534
H233	H	-0.050814	0.060539	-0.192951
H234	H	0.449186	0.560539	0.307049
H235	H	0.446789	-0.391196	0.000137
H236	H	0.946789	0.108804	0.500137
H237	H	0.694299	-0.485269	0.000184
H238	H	1.194299	0.014731	0.500184
H239	H	0.693369	-0.576720	0.000177
H240	H	1.193369	-0.076720	0.500177
H241	H	0.630615	0.001717	0.186715
H242	H	1.130615	0.501717	0.686715
H243	H	0.486988	-0.780431	0.000179
H244	H	0.986988	-0.280431	0.500179
H245	H	0.630621	0.001717	0.330481
H246	H	1.130621	0.501717	0.830481
H247	H	0.510459	0.121828	0.330481
H248	H	1.010459	0.621828	0.830481
H249	H	-0.191264	0.059097	-0.124309
H250	H	0.308736	0.559097	0.375691
H251	H	0.487910	-0.688978	0.000159
H252	H	0.987910	-0.188978	0.500159
H253	H	0.446183	-0.450985	0.000138
H254	H	0.946183	0.049015	0.500138
H255	H	0.445255	-0.542432	0.000143
H256	H	0.945255	-0.042432	0.500143
H257	H	-0.282701	0.058154	0.124733
H258	H	0.217299	0.558154	0.624733
H259	H	0.100454	0.062057	0.193311
H260	H	0.600454	0.562057	0.693311
H261	H	0.423805	0.065391	0.124656
H262	H	0.923805	0.565391	0.624656
H263	H	0.510484	0.121835	0.813662
H264	H	1.010484	0.621835	1.313662
H265	H	0.040633	0.061472	-0.192962
H266	H	0.540633	0.561472	0.307038
H267	H	0.493220	-0.165376	0.000163
H268	H	0.993220	0.334624	0.500163
H269	H	0.332332	0.064465	-0.124368
H270	H	0.832332	0.564465	0.375632
H271	H	0.494152	-0.073910	0.000157
H272	H	0.994152	0.426090	0.500157
H273	H	0.694898	-0.425470	0.000195
H274	H	1.194898	0.074530	0.500195
H275	H	0.510444	0.121826	0.186709
H276	H	1.010444	0.621826	0.686709
H277	H	0.654103	-0.096018	0.000205
H278	H	1.154103	0.403982	0.500205
H279	H	-0.050793	0.060503	0.193335
H280	H	0.449207	0.560503	0.693335
H281	H	0.630642	0.001722	0.669897
H282	H	1.130642	0.501722	1.169897
H283	H	0.630643	0.001719	0.813662
H284	H	1.130643	0.501719	1.313662
H285	H	0.647868	-0.711066	0.000214
H286	H	1.147868	-0.211066	0.500214
H287	H	0.510478	0.121836	0.669892
H288	H	1.010478	0.621836	1.169892
H289	H	0.653177	-0.187469	0.000190
H290	H	1.153177	0.312531	0.500190
H291	H	0.447722	-0.299735	0.000133
H292	H	0.947722	0.200265	0.500133
H293	H	-0.282716	0.058171	-0.124291
H294	H	0.217284	0.558171	0.375709
H295	H	0.332358	0.064442	0.124669
H296	H	0.832358	0.564442	0.624669
H297	H	0.423798	0.065399	-0.124370
H298	H	0.923798	0.565399	0.375630
H299	H	0.040658	0.061438	0.193330
H300	H	0.540658	0.561438	0.693330
H301	H	-0.191235	0.059095	0.124729
H302	H	0.308765	0.559095	0.624729
H303	H	0.646937	-0.802533	0.000214
H304	H	1.146937	-0.302533	0.500214
H305	H	0.100421	0.062083	-0.192969
H306	H	0.600421	0.562083	0.307031
H307	H	0.191900	0.062996	0.193303
H308	H	0.691900	0.562996	0.693303
H309	H	0.191881	0.063018	-0.192970
H310	H	0.691881	0.563018	0.307030
H311	H	0.695827	-0.334022	0.000194
H312	H	1.195827	0.165978	0.500194
