data_functionalizedCrystal
_audit_creation_method	'MofGen! by Chris Wilmer'
_symmetry_space_group_name_H-M	'P1'
_symmetry_Int_Tables_number	1
_symmetry_cell_setting	triclinic
loop_
_symmetry_equiv_pos_as_xyz
  x,y,z
_cell_length_a	14.519731
_cell_length_b	13.596369
_cell_length_c	14.519709
_cell_angle_alpha	89.998664
_cell_angle_beta	96.315501
_cell_angle_gamma	90.006024
loop_
_atom_site_label
_atom_site_type_symbol
_atom_site_fract_x
_atom_site_fract_y
_atom_site_fract_z
O1	O	1.223858	0.081796	-0.120979
O2	O	1.473858	0.331796	0.129021
O3	O	1.723858	0.581796	0.379021
O4	O	1.973858	0.831796	0.629021
O5	O	0.955384	0.081797	-0.135195
O6	O	1.205384	0.331797	0.114805
O7	O	1.455384	0.581797	0.364805
O8	O	1.705384	0.831797	0.614805
O9	O	1.096739	0.081788	0.006151
O10	O	1.346739	0.331788	0.256151
O11	O	1.596739	0.581788	0.506151
O12	O	1.846739	0.831788	0.756151
O13	O	1.082503	0.081805	-0.262325
O14	O	1.332503	0.331805	-0.012325
O15	O	1.582503	0.581805	0.237675
O16	O	1.832503	0.831805	0.487675
O17	O	1.096722	-0.081795	0.006143
O18	O	1.346722	0.168205	0.256143
O19	O	1.596722	0.418205	0.506143
O20	O	1.846722	0.668205	0.756143
O21	O	0.955366	-0.081785	-0.135203
O22	O	1.205366	0.168215	0.114797
O23	O	1.455366	0.418215	0.364797
O24	O	1.705366	0.668215	0.614797
O25	O	1.223841	-0.081787	-0.120986
O26	O	1.473841	0.168213	0.129014
O27	O	1.723841	0.418213	0.379014
O28	O	1.973841	0.668213	0.629014
Zn29	Zn	1.089601	-0.107759	-0.128096
Zn30	Zn	1.339601	0.142241	0.121904
Zn31	Zn	1.589601	0.392241	0.371904
Zn32	Zn	1.839601	0.642241	0.621904
Zn33	Zn	1.089624	0.107769	-0.128085
Zn34	Zn	1.339624	0.357769	0.121915
Zn35	Zn	1.589624	0.607769	0.371915
Zn36	Zn	1.839624	0.857769	0.621915
O37	O	1.082485	-0.081777	-0.262332
O38	O	1.332485	0.168223	-0.012332
O39	O	1.582485	0.418223	0.237668
O40	O	1.832485	0.668223	0.487668
C41	C	0.921016	0.000006	-0.134532
C42	C	1.171016	0.250006	0.115468
C43	C	1.421016	0.500006	0.365468
C44	C	1.671016	0.750006	0.615468
C45	C	0.818635	0.000007	-0.132536
C46	C	1.068635	0.250007	0.117464
C47	C	1.318635	0.500007	0.367464
C48	C	1.568635	0.750007	0.617464
C49	C	0.735491	0.000010	-0.130915
C50	C	0.985491	0.250010	0.119085
C51	C	1.235491	0.500010	0.369085
C52	C	1.485491	0.750010	0.619085
C53	C	0.631182	0.000011	-0.128888
C54	C	0.881182	0.250011	0.121112
C55	C	1.131182	0.500011	0.371112
C56	C	1.381182	0.750011	0.621112
C57	C	0.548043	0.000010	-0.127280
C58	C	0.798043	0.250010	0.122720
C59	C	1.048043	0.500010	0.372720
C60	C	1.298043	0.750010	0.622720
C61	C	0.443728	0.000012	-0.125253
C62	C	0.693728	0.250012	0.124747
C63	C	0.943728	0.500012	0.374747
C64	C	1.193728	0.750012	0.624747
N65	N	1.089592	-0.254851	-0.128102
N66	N	1.339592	-0.004851	0.121898
N67	N	1.589592	0.245149	0.371898
N68	N	1.839592	0.495149	0.621898
C69	C	1.089596	-0.343848	-0.128104
C70	C	1.339596	-0.093848	0.121896
C71	C	1.589596	0.156152	0.371896
C72	C	1.839596	0.406152	0.621896
C73	C	1.089605	-0.455500	-0.128098
C74	C	1.339605	-0.205500	0.121902
C75	C	1.589605	0.044500	0.371902
C76	C	1.839605	0.294500	0.621902
C77	C	1.089617	-0.544490	-0.128088
C78	C	1.339617	-0.294490	0.121912
C79	C	1.589617	-0.044490	0.371912
C80	C	1.839617	0.205510	0.621912
C81	C	1.089628	-0.656149	-0.128082
C82	C	1.339628	-0.406149	0.121918
C83	C	1.589628	-0.156149	0.371918
C84	C	1.839628	0.093851	0.621918
C85	C	1.258209	0.000006	-0.121649
C86	C	1.508209	0.250006	0.128351
C87	C	1.758209	0.500006	0.378351
C88	C	2.008209	0.750006	0.628351
C89	C	1.360589	0.000012	-0.123645
C90	C	1.610589	0.250012	0.126355
C91	C	1.860589	0.500012	0.376355
C92	C	2.110589	0.750012	0.626355
C93	C	1.096067	-0.000004	0.040507
C94	C	1.346067	0.249996	0.290507
C95	C	1.596067	0.499996	0.540507
C96	C	1.846067	0.749996	0.790507
C97	C	1.094079	-0.000005	0.142889
C98	C	1.344079	0.249995	0.392889
C99	C	1.594079	0.499995	0.642889
C100	C	1.844079	0.749995	0.892889
N101	N	1.089640	0.254861	-0.128072
N102	N	1.339640	0.504861	0.121928
N103	N	1.589640	0.754861	0.371928
N104	N	1.839640	1.004861	0.621928
C105	C	1.083157	0.000016	-0.296688
C106	C	1.333157	0.250016	-0.046688
C107	C	1.583157	0.500016	0.203312
C108	C	1.833157	0.750016	0.453312
C109	C	1.085146	0.000023	-0.399070
C110	C	1.335146	0.250023	-0.149070
C111	C	1.585146	0.500023	0.100930
C112	C	1.835146	0.750023	0.350930
C113	C	1.086759	0.000021	0.517785
C114	C	1.336759	0.250021	0.767785
C115	C	1.586759	0.500021	1.017785
C116	C	1.836759	0.750021	1.267785
C117	C	1.088792	0.000014	0.413477
C118	C	1.338792	0.250014	0.663477
C119	C	1.588792	0.500014	0.913477
C120	C	1.838792	0.750014	1.163477
C121	C	1.090419	0.000007	0.330340
C122	C	1.340419	0.250007	0.580340
C123	C	1.590419	0.500007	0.830340
C124	C	1.840419	0.750007	1.080340
C125	C	1.092452	0.000002	0.226025
C126	C	1.342452	0.250002	0.476025
C127	C	1.592452	0.500002	0.726025
C128	C	1.842452	0.750002	0.976025
