data_functionalizedCrystal
_audit_creation_method	'MofGen! by Chris Wilmer'
_symmetry_space_group_name_H-M	'P1'
_symmetry_Int_Tables_number	1
_symmetry_cell_setting	triclinic
loop_
_symmetry_equiv_pos_as_xyz
  x,y,z
_cell_length_a	11.792254
_cell_length_b	17.038272
_cell_length_c	10.268362
_cell_angle_alpha	89.994496
_cell_angle_beta	89.995475
_cell_angle_gamma	87.655077
loop_
_atom_site_label
_atom_site_type_symbol
_atom_site_fract_x
_atom_site_fract_y
_atom_site_fract_z
O1	O	1.516299	0.107255	-0.108301
O2	O	2.016299	0.607255	0.391699
O3	O	1.186927	0.118293	-0.108304
O4	O	1.686927	0.618293	0.391696
O5	O	1.349655	-0.001050	-0.108292
O6	O	1.849655	0.498950	0.391708
O7	O	1.353570	0.226598	-0.108313
O8	O	1.853570	0.726598	0.391687
O9	O	1.349639	-0.001055	0.108309
O10	O	1.849639	0.498945	0.608309
O11	O	1.186911	0.118288	0.108297
O12	O	1.686911	0.618288	0.608297
O13	O	1.516283	0.107250	0.108300
O14	O	2.016283	0.607250	0.608300
Cu15	Cu	1.351596	0.112768	0.128076
Cu16	Cu	1.851596	0.612768	0.628076
Cu17	Cu	1.351614	0.112774	-0.128080
Cu18	Cu	1.851614	0.612774	0.371920
O19	O	1.353555	0.226593	0.108288
O20	O	1.853555	0.726593	0.608288
C21	C	1.144567	0.117595	-0.000004
C22	C	1.644567	0.617595	0.499996
C23	C	1.018372	0.115514	-0.000005
C24	C	1.518372	0.615514	0.499995
C25	C	0.915887	0.113823	-0.000010
C26	C	1.415887	0.613823	0.499990
C27	C	0.787315	0.111708	-0.000011
C28	C	1.287315	0.611708	0.499989
C29	C	1.346086	-0.030197	0.000008
C30	C	1.846086	0.469803	0.500008
C31	C	1.335462	-0.117037	0.000008
C32	C	1.835462	0.382963	0.500008
C33	C	1.433002	-0.166717	0.000010
C34	C	1.933002	0.333283	0.500010
C35	C	1.423013	-0.248312	-0.000002
C36	C	1.923013	0.251688	0.499998
C37	C	1.315483	-0.280225	-0.000008
C38	C	1.815483	0.219775	0.499992
C39	C	1.217937	-0.230539	-0.000014
C40	C	1.717937	0.269461	0.499986
C41	C	1.227927	-0.148946	-0.000011
C42	C	1.727927	0.351054	0.499989
C43	C	1.280190	-0.526140	-0.000026
C44	C	1.780190	-0.026140	0.499974
C45	C	1.270208	-0.607740	-0.000025
C46	C	1.770208	-0.107740	0.499975
C47	C	1.475285	-0.625508	-0.000016
C48	C	1.975285	-0.125508	0.499984
C49	C	1.485266	-0.543912	-0.000005
C50	C	1.985266	-0.043912	0.499995
C51	C	1.387719	-0.494233	-0.000018
C52	C	1.887719	0.005767	0.499982
C53	C	1.305271	-0.363628	-0.000016
C54	C	1.805271	0.136372	0.499984
C55	C	1.397933	-0.410831	-0.000019
C56	C	1.897933	0.089169	0.499981
C57	C	1.558642	0.107947	-0.000003
C58	C	2.058642	0.607947	0.499997
C59	C	1.684838	0.110029	-0.000011
C60	C	2.184838	0.610029	0.499989
C61	C	1.357123	0.255740	-0.000015
C62	C	1.857123	0.755740	0.499985
C63	C	1.367747	0.342580	-0.000023
C64	C	1.867747	0.842580	0.499977
N65	N	1.351591	0.112764	0.308242
N66	N	1.851591	0.612764	0.808242
N67	N	1.351627	0.112773	-0.308245
N68	N	1.851627	0.612773	0.191755
C69	C	1.351608	0.112773	0.573912
C70	C	1.851608	0.612773	1.073912
C71	C	1.351595	0.112770	0.426074
C72	C	1.851595	0.612770	0.926074
H73	H	1.520564	-0.140740	0.000022
H74	H	2.020564	0.359260	0.500022
H75	H	1.502440	-0.288759	0.000002
H76	H	2.002440	0.211241	0.500002
H77	H	1.217719	-0.389621	-0.000018
H78	H	1.717719	0.110379	0.499982
H79	H	1.485483	-0.384844	-0.000043
H80	H	1.985483	0.115156	0.499957
H81	H	1.554702	-0.665965	-0.000008
H82	H	2.054702	-0.165965	0.499992
Br83	Br	1.631204	-0.500607	-0.000040
Br84	Br	2.131204	-0.000607	0.499960
Br85	Br	1.124265	-0.651051	-0.000019
Br86	Br	1.624265	-0.151051	0.499981
Br87	Br	1.147804	-0.458729	-0.000052
Br88	Br	1.647804	0.041271	0.499948
Br89	Br	1.072002	-0.273849	-0.000043
Br90	Br	1.572002	0.226151	0.499957
Br91	Br	1.095546	-0.081521	-0.000024
Br92	Br	1.595546	0.418479	0.499976
