data_functionalizedCrystal
_audit_creation_method	'MofGen! by Chris Wilmer'
_symmetry_space_group_name_H-M	'P1'
_symmetry_Int_Tables_number	1
_symmetry_cell_setting	triclinic
loop_
_symmetry_equiv_pos_as_xyz
  x,y,z
_cell_length_a	14.044220
_cell_length_b	14.044220
_cell_length_c	13.101039
_cell_angle_alpha	86.332523
_cell_angle_beta	86.340132
_cell_angle_gamma	86.811122
loop_
_atom_site_label
_atom_site_type_symbol
_atom_site_fract_x
_atom_site_fract_y
_atom_site_fract_z
O1	O	1.281968	-0.225348	-0.085109
O2	O	1.005298	-0.217041	-0.085135
O3	O	1.139480	-0.082860	-0.085112
O4	O	1.147787	-0.359530	-0.085132
O5	O	1.129854	-0.092504	0.085316
O6	O	0.995673	-0.226686	0.085293
O7	O	1.272343	-0.234993	0.085319
Zn8	Zn	1.132479	-0.232371	0.112365
Zn9	Zn	1.145162	-0.219663	-0.112181
O10	O	1.138161	-0.369175	0.085296
C11	C	0.964864	-0.218228	0.000076
C12	C	0.858722	-0.207383	0.000066
C13	C	1.131031	-0.052060	0.000102
C14	C	1.120187	0.054083	0.000102
C15	C	0.664383	-0.187558	0.000088
C16	C	0.613253	-0.264472	0.000087
C17	C	0.505116	-0.253441	0.000099
C18	C	0.772529	-0.198587	0.000076
C19	C	1.312777	-0.233806	0.000106
C20	C	1.418920	-0.244651	0.000109
C21	C	1.146610	-0.399974	0.000080
C22	C	1.157455	-0.506116	0.000073
N23	N	1.123831	-0.241043	0.265612
C24	C	1.100362	0.248421	0.000086
C25	C	1.177276	0.299551	0.000090
C26	C	1.166245	0.407688	0.000080
C27	C	1.111391	0.140275	0.000095
N28	N	1.153817	-0.210984	-0.265428
C29	C	1.112065	-0.252851	0.474653
C30	C	1.165580	-0.199179	0.525538
C31	C	1.159034	-0.205749	0.641855
C32	C	1.118610	-0.246282	0.358325
H33	H	0.626945	-0.113431	0.000099
H34	H	1.216314	-0.148295	0.481744
H35	H	1.061336	-0.303733	0.518442
O36	O	0.658066	-0.352840	0.000004
C37	C	0.757624	-0.344329	0.000008
H38	H	0.776400	-0.269932	-0.032228
H39	H	0.795826	-0.400261	-0.049509
H40	H	0.781152	-0.355910	0.081760
O41	O	1.265645	0.254739	0.000153
C42	C	1.257134	0.155182	0.000135
H43	H	1.182749	0.136395	0.032388
H44	H	1.313087	0.116967	0.049631
H45	H	1.268686	0.131677	-0.081624
O46	O	1.011992	0.293226	0.000127
C47	C	1.020515	0.392785	0.000097
H48	H	1.091259	0.407922	0.032360
H49	H	0.958976	0.425416	0.049577
H50	H	1.018202	0.425524	-0.081667
