data_functionalizedCrystal
_audit_creation_method	'MofGen! by Chris Wilmer'
_symmetry_space_group_name_H-M	'P1'
_symmetry_Int_Tables_number	1
_symmetry_cell_setting	triclinic
loop_
_symmetry_equiv_pos_as_xyz
  x,y,z
_cell_length_a	11.792241
_cell_length_b	19.288840
_cell_length_c	18.366186
_cell_angle_alpha	89.983729
_cell_angle_beta	89.993644
_cell_angle_gamma	83.659716
loop_
_atom_site_label
_atom_site_type_symbol
_atom_site_fract_x
_atom_site_fract_y
_atom_site_fract_z
O1	O	0.141447	0.922167	-0.060672
O2	O	0.160576	0.720013	-0.060646
O3	O	-0.014235	0.825996	-0.060655
O4	O	0.316257	0.816184	-0.060664
O5	O	-0.014243	0.825978	0.060445
O6	O	0.160567	0.719995	0.060453
O7	O	0.141438	0.922149	0.060428
Zn8	Zn	0.151001	0.821069	0.079667
Zn9	Zn	0.151012	0.821093	-0.079886
O10	O	0.316248	0.816166	0.060436
C11	C	0.159961	0.694124	-0.000094
C12	C	0.158127	0.617009	-0.000084
C13	C	0.157251	0.580810	-0.066097
C14	C	0.155516	0.508353	-0.066106
C15	C	0.154634	0.472100	-0.000098
C16	C	0.155516	0.508307	0.065924
C17	C	0.157263	0.580761	0.065931
C18	C	0.085386	0.362371	0.050465
C19	C	0.083632	0.289918	0.050456
C20	C	0.149251	0.248625	-0.000117
C21	C	0.216610	0.279795	-0.050691
C22	C	0.218356	0.352250	-0.050684
C23	C	0.152740	0.393535	-0.000098
C24	C	0.146495	0.133861	-0.066144
C25	C	0.144767	0.061402	-0.066150
C26	C	0.144756	0.061358	0.065882
C27	C	0.146496	0.133814	0.065886
C28	C	0.147360	0.170062	-0.000129
C29	C	-0.056520	0.825370	-0.000105
C30	C	-0.182506	0.823526	-0.000106
C31	C	-0.413166	0.820134	-0.000117
C32	C	-0.284810	0.822018	-0.000111
C33	C	0.358534	0.816792	-0.000115
C34	C	0.484519	0.818636	-0.000120
C35	C	0.142053	0.948038	-0.000127
C36	C	0.143887	1.025153	-0.000141
N37	N	0.150993	0.821058	0.188559
N38	N	0.151012	0.821110	-0.188777
C39	C	0.073625	0.868003	0.226655
C40	C	0.073620	0.868007	0.302883
C41	C	0.151002	0.821073	0.341011
C42	C	0.228376	0.774120	0.302905
C43	C	0.228371	0.774112	0.226679
C44	C	0.254415	0.812362	0.461770
C45	C	0.254421	0.812375	0.537994
C46	C	0.151016	0.821093	0.576119
C47	C	0.047601	0.829813	0.538009
C48	C	0.047597	0.829806	0.461783
C49	C	0.151015	0.821076	0.423666
C50	C	0.073636	0.868045	0.696871
C51	C	0.073630	0.868045	0.773100
C52	C	0.228396	0.774161	0.773120
C53	C	0.228393	0.774158	0.696893
C54	C	0.151014	0.821104	0.658772
H55	H	0.144045	0.031840	0.119627
H56	H	0.144060	0.031930	-0.119908
O57	O	0.303701	0.728557	0.339858
C58	C	0.416005	0.740271	0.321227
H59	H	0.415748	0.767037	0.265871
H60	H	0.450963	0.774977	0.364110
C61	C	0.492124	0.637155	0.385715
C62	C	0.491808	0.670024	0.317722
H63	H	0.538885	0.593824	0.383555
H64	H	0.416463	0.629263	0.398269
H65	H	0.521252	0.666083	0.421443
H66	H	0.462667	0.641100	0.281997
H67	H	0.567467	0.677909	0.305161
H68	H	0.291375	0.735883	0.195660
H69	H	0.157955	0.610318	-0.119851
H70	H	-0.036607	0.836904	0.430756
O71	O	0.147149	0.169120	-0.130249
C72	C	0.049898	0.218549	-0.134192
H73	H	-0.019321	0.201950	-0.096734
H74	H	0.073434	0.271759	-0.116454
C75	C	0.090395	0.243477	-0.259068
C76	C	0.005375	0.223086	-0.213065
H77	H	0.062933	0.246279	-0.307720
H78	H	0.155917	0.210178	-0.256411
H79	H	0.110000	0.287817	-0.244277
H80	H	-0.014218	0.178743	-0.227850
H81	H	-0.060152	0.256378	-0.215726
O82	O	-0.052955	0.838331	0.574919
C83	C	-0.144226	0.846012	0.524938
H84	H	-0.112912	0.865198	0.470590
H85	H	-0.178556	0.793569	0.516859
C86	C	-0.278312	0.875762	0.621424
C87	C	-0.239854	0.899333	0.554673
H88	H	-0.337302	0.908650	0.639766
H89	H	-0.216822	0.870584	0.655098
H90	H	-0.306912	0.832059	0.614682
H91	H	-0.211242	0.943030	0.561418
H92	H	-0.301341	0.904519	0.521001
O93	O	0.018059	0.259626	0.099482
C94	C	-0.062201	0.223776	0.062194
H95	H	-0.076559	0.246769	0.005323
H96	H	-0.028652	0.166199	0.057716
C97	C	-0.158162	0.203092	0.174187
C98	C	-0.175804	0.231336	0.104338
H99	H	-0.228236	0.207752	0.200184
H100	H	-0.104086	0.227242	0.199309
H101	H	-0.130201	0.155113	0.170445
H102	H	-0.203750	0.279316	0.108081
H103	H	-0.229887	0.207194	0.079218
H104	H	0.154801	0.478784	0.119668
O105	O	-0.001643	0.913666	0.659948
C106	C	-0.069923	0.955110	0.709924
H107	H	-0.071082	0.926633	0.764271
H108	H	-0.033295	1.006845	0.718008
C109	C	-0.191000	1.003941	0.613428
C110	C	-0.192431	0.968962	0.680177
H111	H	-0.266568	1.012488	0.595078
H112	H	-0.144997	0.976021	0.579757
H113	H	-0.160472	1.047049	0.620174
H114	H	-0.222945	0.925852	0.673428
H115	H	-0.238443	0.996875	0.713845
H116	H	0.010616	0.906227	0.195620
H117	H	0.291398	0.735944	0.804164
H118	H	0.291398	0.735934	0.665872
H119	H	0.157978	0.610234	0.119689
O120	O	-0.001643	0.913554	0.810141
C121	C	-0.071494	0.876106	0.854266
H122	H	-0.073184	0.821324	0.831316
H123	H	-0.035959	0.872601	0.912036
C124	C	-0.191437	0.981222	0.883618
C125	C	-0.193520	0.913939	0.855427
H126	H	-0.266707	1.004560	0.884337
H127	H	-0.144375	1.006452	0.853892
H128	H	-0.161819	0.978292	0.931757
H129	H	-0.223124	0.916870	0.807286
H130	H	-0.240590	0.888710	0.885145
O131	O	0.147280	0.168879	0.130077
C132	C	0.146159	0.121344	0.188338
H133	H	0.108993	0.072447	0.168981
H134	H	0.237005	0.106677	0.208633
C135	C	0.118071	0.215342	0.274483
C136	C	0.072413	0.155287	0.250711
H137	H	0.072585	0.236279	0.312960
H138	H	0.118830	0.247367	0.235233
H139	H	0.193774	0.203111	0.291391
H140	H	-0.003283	0.167520	0.233796
H141	H	0.071639	0.123265	0.289960
O142	O	0.280375	0.239799	-0.099900
C143	C	0.340212	0.282845	-0.144525
H144	H	0.294450	0.338085	-0.144419
H145	H	0.430585	0.283649	-0.122745
C146	C	0.401521	0.186311	-0.222963
C147	C	0.345309	0.254157	-0.222839
H148	H	0.404670	0.168614	-0.271271
H149	H	0.361211	0.157309	-0.192897
H150	H	0.476826	0.186991	-0.204810
H151	H	0.270002	0.253476	-0.240983
H152	H	0.385606	0.283158	-0.252910
H153	H	0.031947	0.395987	0.091651
H154	H	0.338627	0.805279	0.569018
H155	H	0.338624	0.805251	0.430735
H156	H	0.154804	0.478874	-0.119863
O157	O	-0.001587	0.913675	0.339788
C158	C	-0.069909	0.955092	0.289796
H159	H	-0.023385	0.956050	0.235454
H160	H	-0.154124	0.932224	0.281706
C161	C	-0.150767	1.028754	0.386268
C162	C	-0.093621	1.029936	0.319526
H163	H	-0.165399	1.074921	0.404607
H164	H	-0.104741	1.000850	0.419949
H165	H	-0.220940	1.009694	0.379517
H166	H	-0.023444	1.048987	0.326279
H167	H	-0.139636	1.057845	0.285846
O168	O	0.283864	0.382599	-0.099705
C169	C	0.364147	0.418424	-0.062409
H170	H	0.331771	0.431746	-0.005060
H171	H	0.449000	0.383966	-0.059139
C172	C	0.420718	0.469748	-0.173990
C173	C	0.380949	0.486115	-0.103555
H174	H	0.431087	0.511501	-0.199372
H175	H	0.366633	0.445610	-0.199118
H176	H	0.491425	0.441032	-0.171255
H177	H	0.310237	0.514823	-0.106291
H178	H	0.435022	0.510260	-0.078428
