data_functionalizedCrystal
_audit_creation_method	'MofGen! by Chris Wilmer'
_symmetry_space_group_name_H-M	'P1'
_symmetry_Int_Tables_number	1
_symmetry_cell_setting	triclinic
loop_
_symmetry_equiv_pos_as_xyz
  x,y,z
_cell_length_a	17.077404
_cell_length_b	25.639239
_cell_length_c	17.077396
_cell_angle_alpha	90.031074
_cell_angle_beta	90.019501
_cell_angle_gamma	90.038911
loop_
_atom_site_label
_atom_site_type_symbol
_atom_site_fract_x
_atom_site_fract_y
_atom_site_fract_z
Zn1	Zn	1.199968	-0.208148	0.443829
Zn2	Zn	1.199839	-0.295585	0.312557
Zn3	Zn	1.068700	-0.208166	0.312576
Zn4	Zn	1.068632	-0.295554	0.443780
O5	O	1.134285	-0.251863	0.378185
O6	O	1.309798	-0.219752	0.426427
O7	O	1.182418	-0.284010	0.202712
O8	O	1.086196	-0.134998	0.330016
O9	O	1.309703	-0.283992	0.329982
O10	O	1.182638	-0.134985	0.426446
O11	O	1.086071	-0.219783	0.202727
O12	O	0.958844	-0.219753	0.329969
O13	O	1.086080	-0.283939	0.553634
O14	O	0.958794	-0.283957	0.426364
O15	O	1.182572	-0.219722	0.553669
O16	O	1.182352	-0.368746	0.329935
O17	O	1.085954	-0.368724	0.426345
C18	C	0.930337	-0.251854	0.378164
C19	C	0.843087	-0.251862	0.378173
C20	C	0.802092	-0.285344	0.428285
C21	C	0.720111	-0.285345	0.428298
C22	C	0.679128	-0.251867	0.378194
C23	C	0.720129	-0.218382	0.328079
C24	C	0.802108	-0.218378	0.328071
C25	C	0.549259	-0.218392	0.328098
C26	C	0.467275	-0.218396	0.328105
C27	C	0.467262	-0.285358	0.428325
C28	C	0.549241	-0.285355	0.428317
C29	C	0.590237	-0.251871	0.378201
C30	C	1.134153	-0.387706	0.378150
C31	C	1.134168	-0.445820	0.378160
C32	C	1.184610	-0.806182	0.328071
C33	C	1.184641	-0.860787	0.328081
O34	O	1.227391	-0.889023	0.285454
N35	N	1.134423	-0.888102	0.378237
C36	C	1.084177	-0.860811	0.428392
O37	O	1.041467	-0.889059	0.471056
C38	C	1.084151	-0.806208	0.428385
C39	C	1.134367	-0.778895	0.378220
C40	C	1.234822	-0.778869	0.277910
C41	C	1.234790	-0.724269	0.277899
C42	C	1.184547	-0.696981	0.328048
C43	C	1.134335	-0.724294	0.378209
C44	C	1.033910	-0.778917	0.478543
C45	C	1.033889	-0.724310	0.478532
C46	C	1.084104	-0.696997	0.428367
C47	C	1.084060	-0.642406	0.428346
N48	N	1.134278	-0.615090	0.378190
C49	C	1.184521	-0.642378	0.328041
C50	C	1.084236	-0.975482	0.428404
C51	C	1.084258	-1.030084	0.428408
C52	C	1.184722	-1.030056	0.328098
C53	C	1.184696	-0.975452	0.328091
C54	C	1.134454	-0.948166	0.378248
C55	C	1.184450	-0.527713	0.328020
C56	C	1.184412	-0.473107	0.328011
C57	C	1.083951	-0.473140	0.428324
C58	C	1.083986	-0.527741	0.428331
C59	C	1.134242	-0.555026	0.378176
O60	O	1.041334	-0.614135	0.470954
O61	O	1.227232	-0.614123	0.285392
C62	C	1.339029	-0.251873	0.378208
C63	C	1.426279	-0.251877	0.378217
C64	C	1.134333	-0.251825	0.582930
C65	C	1.134353	-0.251808	0.670180
C66	C	1.134439	-0.115490	0.378239
C67	C	1.134505	-0.057376	0.378261
C68	C	1.134283	-0.251864	0.174238
C69	C	1.134415	-0.251733	0.086988
C70	C	1.184598	-0.218368	0.711190
C71	C	1.184608	-0.218350	0.793170
C72	C	1.134375	-0.251777	0.834139
C73	C	1.084124	-0.285219	0.793123
C74	C	1.084111	-0.285233	0.711144
C75	C	1.084156	-0.285187	0.963994
C76	C	1.084169	-0.285174	1.045978
C77	C	1.184652	-0.218304	1.046019
C78	C	1.184639	-0.218319	0.964040
C79	C	1.134389	-0.251762	0.923030
H80	H	0.835454	-0.312607	0.469084
O81	O	0.841813	-0.185841	0.279313
C82	C	0.833179	-0.119406	0.179937
C83	C	0.788118	-0.156239	0.235102
H84	H	0.789786	-0.095455	0.144189
H85	H	0.871497	-0.143351	0.138771
H86	H	0.871623	-0.092118	0.216057
H87	H	0.749631	-0.183534	0.199045
H88	H	0.749849	-0.132262	0.276269
H89	H	0.992977	-0.702096	0.519379
H90	H	1.225506	-0.191150	0.677838
O91	O	0.427584	-0.185824	0.279414
C92	C	0.436242	-0.119422	0.179985
C93	C	0.481290	-0.156274	0.235100
H94	H	0.479644	-0.095529	0.144131
H95	H	0.397922	-0.092085	0.216071
H96	H	0.397801	-0.143400	0.138909
H97	H	0.519773	-0.132338	0.276186
H98	H	0.519560	-0.183612	0.198965
O99	O	1.035440	-0.317753	0.924184
C100	C	0.997240	-0.406698	0.899083
C101	C	1.052458	-0.369873	0.944207
H102	H	1.010969	-0.448843	0.915267
H103	H	1.005873	-0.401010	0.833446
H104	H	0.933955	-0.397494	0.915171
H105	H	1.115764	-0.379053	0.928184
H106	H	1.043758	-0.375567	1.009833
H107	H	1.225547	-0.191103	0.930685
O108	O	1.283653	-0.805452	0.229310
C109	C	1.328306	-0.889551	0.184912
C110	C	1.272949	-0.859516	0.239982
H111	H	1.319660	-0.933267	0.193510
H112	H	1.391582	-0.878778	0.198818
H113	H	1.314620	-0.878836	0.121592
H114	H	1.286565	-0.870215	0.303321
H115	H	1.209690	-0.870291	0.226010
O116	O	1.233121	-0.446495	0.279305
C117	C	1.277637	-0.362368	0.234857
C118	C	1.222423	-0.392438	0.290040
H119	H	1.269019	-0.318657	0.243529
H120	H	1.263894	-0.373105	0.171534
H121	H	1.340922	-0.373086	0.248695
H122	H	1.159121	-0.381736	0.276272
H123	H	1.236234	-0.381698	0.353346
H124	H	0.582636	-0.191121	0.287296
O125	O	1.233290	-0.554131	0.279224
C126	C	1.332957	-0.548326	0.179755
C127	C	1.277679	-0.518343	0.234967
H128	H	1.368871	-0.519404	0.143970
H129	H	1.296995	-0.573918	0.138626
H130	H	1.373968	-0.573860	0.215841
H131	H	1.236656	-0.492780	0.198944
H132	H	1.313690	-0.492784	0.276098
O133	O	1.233381	-0.185792	0.832915
C134	C	1.271565	-0.096850	0.858055
C135	C	1.216291	-0.133667	0.812987
H136	H	1.257757	-0.054699	0.841973
H137	H	1.334859	-0.105998	0.841927
H138	H	1.262964	-0.102601	0.923683
H139	H	1.224823	-0.127937	0.747349
H140	H	1.153017	-0.124510	0.829180
H141	H	1.225586	-0.953217	0.287242
H142	H	1.275682	-0.702034	0.237052
O143	O	1.233382	-0.185827	1.085973
C144	C	1.277951	-0.156177	1.212285
C145	C	1.222717	-0.192974	1.167131
H146	H	1.269359	-0.161950	1.277909
H147	H	1.264205	-0.114011	1.196231
H148	H	1.341228	-0.165355	1.196134
H149	H	1.159421	-0.183842	1.183258
H150	H	1.236531	-0.235129	1.183189
H151	H	1.043099	-0.549980	0.469182
H152	H	0.433879	-0.312621	0.469133
O153	O	0.588932	-0.317893	0.477059
C154	C	0.580274	-0.384333	0.576431
C155	C	0.535226	-0.347503	0.521282
H156	H	0.536872	-0.408291	0.612188
H157	H	0.618673	-0.360386	0.617589
H158	H	0.618635	-0.411615	0.540298
H159	H	0.496823	-0.320214	0.557353
H160	H	0.496876	-0.371483	0.480122
H161	H	1.225636	-1.052283	0.287266
O162	O	1.035447	-1.056532	0.477206
C163	C	0.935766	-1.050781	0.576666
C164	C	0.991014	-1.020767	0.521449
H165	H	0.899815	-1.021879	0.612438
H166	H	0.971754	-1.076287	0.617806
H167	H	0.894787	-1.076405	0.540584
H168	H	1.032004	-0.995116	0.557467
H169	H	0.954977	-0.995295	0.480306
O170	O	1.035478	-0.317690	1.085817
C171	C	1.024828	-0.388229	1.178400
C172	C	1.080064	-0.351449	1.133314
H173	H	1.060853	-0.415524	1.216824
H174	H	0.988912	-0.412169	1.135050
H175	H	0.983815	-0.364191	1.216745
H176	H	1.121124	-0.375445	1.094968
H177	H	1.115924	-0.327506	1.176706
O178	O	1.035215	-0.317634	0.832882
C179	C	0.901668	-0.343025	0.857894
C180	C	0.956966	-0.306272	0.812836
H181	H	0.838393	-0.333860	0.841690
H182	H	0.910239	-0.337272	0.923541
H183	H	0.915443	-0.385184	0.841766
H184	H	0.943225	-0.264099	0.828898
H185	H	0.948384	-0.312071	0.747199
H186	H	1.043317	-0.953267	0.469246
H187	H	0.993016	-0.801146	0.519390
O188	O	1.035397	-0.317796	0.671335
C189	C	0.997176	-0.406737	0.646234
C190	C	1.052405	-0.369918	0.691355
H191	H	1.010896	-0.448884	0.662416
H192	H	1.005803	-0.401048	0.580597
H193	H	0.933894	-0.397528	0.662329
H194	H	1.115708	-0.379104	0.675326
H195	H	1.043710	-0.375613	0.756981
H196	H	0.686736	-0.312609	0.469104
O197	O	1.035039	-0.446654	0.476961
C198	C	0.901497	-0.430036	0.515003
C199	C	0.956791	-0.460055	0.459852
H200	H	0.838223	-0.440869	0.501201
H201	H	0.910039	-0.386312	0.506378
H202	H	0.915304	-0.440731	0.578305
H203	H	0.943018	-0.449404	0.396529
H204	H	0.948239	-0.503772	0.468544
H205	H	0.686754	-0.191121	0.287287
