data_functionalizedCrystal
_audit_creation_method	'MofGen! by Chris Wilmer'
_symmetry_space_group_name_H-M	'P1'
_symmetry_Int_Tables_number	1
_symmetry_cell_setting	triclinic
loop_
_symmetry_equiv_pos_as_xyz
  x,y,z
_cell_length_a	6.817900
_cell_length_b	11.102149
_cell_length_c	12.200863
_cell_angle_alpha	92.492319
_cell_angle_beta	107.143441
_cell_angle_gamma	108.603080
loop_
_atom_site_label
_atom_site_type_symbol
_atom_site_fract_x
_atom_site_fract_y
_atom_site_fract_z
V1	V	-4.103920	-0.396382	-0.158700
O2	O	-4.070887	-0.388704	0.007639
O3	O	-4.073257	-0.393799	-0.314688
O4	O	-4.080800	-0.569200	-0.156254
O5	O	-4.063292	-0.212089	-0.151892
V6	V	-4.581974	-0.374324	-0.138805
O7	O	-4.377175	-0.444770	-0.202343
O8	O	-4.758916	-0.325937	-0.095163
O9	O	-4.389430	-0.376907	0.017183
O10	O	-4.732403	-0.382002	-0.305144
O11	O	-4.739998	-0.558618	-0.145613
O12	O	-4.381887	-0.201506	-0.141252
C13	C	-3.921755	-0.387579	-0.352715
C14	C	-3.978140	-0.386619	-0.480237
C15	C	-4.081336	-0.384872	-0.713713
C16	C	-4.023902	-0.385844	-0.583790
C17	C	-3.931375	-0.611319	-0.150614
C18	C	-3.993873	-0.752599	-0.149646
C19	C	-4.137174	-0.969953	-0.253355
C20	C	-4.078406	-0.837202	-0.254250
C21	C	-3.968086	-0.800753	-0.044140
C22	C	-4.026839	-0.933502	-0.043246
C23	C	-4.200875	-0.990996	-0.374661
C24	C	-4.142107	-0.858244	-0.375556
C25	C	-4.204274	-0.383124	0.055203
C26	C	-4.127129	-0.384092	0.182724
C27	C	-4.194654	-0.159381	-0.146894
C28	C	-4.111394	-0.018099	-0.147857
H29	H	-4.005803	-0.972694	0.042662
O30	O	-3.970584	-0.810919	-0.415604
C31	C	-3.832145	-0.817912	-0.575216
C32	C	-4.026571	-0.871586	-0.530016
H33	H	-3.877324	-0.866957	-0.667715
H34	H	-3.791255	-0.709884	-0.574223
H35	H	-3.683840	-0.837218	-0.517128
H36	H	-4.174999	-0.852373	-0.588066
H37	H	-4.067271	-0.979598	-0.530983
H38	H	-3.899231	-0.731858	0.041031
H39	H	-4.100221	-1.030138	-0.416600
O40	O	-4.419848	-1.053832	-0.424718
C41	C	-4.771184	-1.035896	-0.519540
C42	C	-4.523232	-0.964578	-0.462915
H43	H	-4.854849	-0.963763	-0.550416
H44	H	-4.801707	-1.109034	-0.596729
H45	H	-4.840579	-1.087694	-0.453313
H46	H	-4.453671	-0.912706	-0.529054
H47	H	-4.492859	-0.891513	-0.385705
H48	H	-4.291670	-0.835257	-0.426768
