data_functionalizedCrystal
_audit_creation_method	'MofGen! by Chris Wilmer'
_symmetry_space_group_name_H-M	'P1'
_symmetry_Int_Tables_number	1
_symmetry_cell_setting	triclinic
loop_
_symmetry_equiv_pos_as_xyz
  x,y,z
_cell_length_a	11.792254
_cell_length_b	10.268362
_cell_length_c	10.654550
_cell_angle_alpha	90.005126
_cell_angle_beta	84.341764
_cell_angle_gamma	90.004525
loop_
_atom_site_label
_atom_site_type_symbol
_atom_site_fract_x
_atom_site_fract_y
_atom_site_fract_z
O1	O	1.507298	0.108299	0.172212
O2	O	2.007298	0.608299	0.672212
O3	O	1.177000	0.108302	0.189936
O4	O	1.677000	0.608302	0.689936
O5	O	1.349743	0.108292	-0.001686
O6	O	1.849743	0.608292	0.498314
O7	O	1.334555	0.108308	0.363834
O8	O	1.834555	0.608308	0.863834
O9	O	1.349728	-0.108309	-0.001694
O10	O	1.849728	0.391691	0.498306
O11	O	1.176985	-0.108299	0.189928
O12	O	1.676985	0.391701	0.689928
O13	O	1.507283	-0.108302	0.172204
O14	O	2.007283	0.391698	0.672204
Cu15	Cu	1.342132	-0.128078	0.181065
Cu16	Cu	1.842132	0.371922	0.681065
Cu17	Cu	1.342150	0.128078	0.181075
Cu18	Cu	1.842150	0.628078	0.681075
O19	O	1.334540	-0.108292	0.363826
O20	O	1.834540	0.391708	0.863826
C21	C	1.134699	0.000002	0.188815
C22	C	1.634699	0.500002	0.688815
C23	C	1.008678	0.000003	0.185474
C24	C	1.508678	0.500003	0.685474
N25	N	1.342128	-0.308244	0.181058
N26	N	1.842128	0.191756	0.681058
C27	C	0.906335	0.000008	0.182758
C28	C	1.406335	0.500008	0.682758
C29	C	0.777941	0.000009	0.179363
C30	C	1.277941	0.500009	0.679363
C31	C	1.342145	-0.573914	0.181072
C32	C	1.842145	-0.073914	0.681072
C33	C	1.342132	-0.426076	0.181068
C34	C	1.842132	0.073924	0.681068
C35	C	1.549584	0.000001	0.173325
C36	C	2.049584	0.500001	0.673325
C37	C	1.675605	0.000009	0.176666
C38	C	2.175605	0.500009	0.676666
C39	C	1.348620	-0.000008	-0.048485
C40	C	1.848620	0.499992	0.451515
C41	C	1.345284	-0.000006	-0.187919
C42	C	1.845284	0.499994	0.312081
N43	N	1.342164	0.308243	0.181072
N44	N	1.842164	0.808243	0.681072
C45	C	1.446992	-0.000006	-0.267687
C46	C	1.946992	0.499994	0.232313
C47	C	1.443850	0.000010	-0.398699
C48	C	1.943850	0.500010	0.101301
C49	C	1.237283	0.000021	-0.370162
C50	C	1.737283	0.500021	0.129838
C51	C	1.240426	0.000015	-0.239153
C52	C	1.740426	0.500015	0.260847
C53	C	1.563644	0.075901	-0.594874
C54	C	2.063644	0.575901	-0.094874
C55	C	1.665358	0.075878	-0.674648
C56	C	2.165358	0.575878	-0.174648
C57	C	1.757559	-0.000028	-0.644735
C58	C	2.257559	0.499972	-0.144735
C59	C	1.748051	-0.075943	-0.535051
C60	C	2.248051	0.424057	-0.035051
C61	C	1.646335	-0.075932	-0.455284
C62	C	2.146335	0.424068	0.044716
C63	C	1.554138	0.000005	-0.485196
C64	C	2.054138	0.500005	0.014804
C65	C	1.120639	-0.075887	-0.042977
C66	C	1.620639	0.424113	0.457023
C67	C	1.018922	-0.075886	0.036793
C68	C	1.518922	0.424114	0.536793
C69	C	0.926712	0.000013	0.006884
C70	C	1.426712	0.500013	0.506884
C71	C	0.936209	0.075908	-0.102803
C72	C	1.436209	0.575908	0.397197
C73	C	1.037926	0.075906	-0.182572
C74	C	1.537926	0.575906	0.317428
C75	C	1.130137	0.000010	-0.152654
C76	C	1.630137	0.500010	0.347346
C77	C	1.335662	0.000010	0.410625
C78	C	1.835662	0.500010	0.910625
C79	C	1.338999	0.000017	0.550059
C80	C	1.838999	0.500017	1.050059
H81	H	1.532374	-0.000020	-0.225978
H82	H	2.032374	0.499980	0.274022
N83	N	1.636629	-0.153480	-0.343262
N84	N	2.136629	0.346520	0.156738
N85	N	1.718957	-0.221264	-0.316570
N86	N	2.218957	0.278736	0.183430
H87	H	1.712108	-0.276032	-0.237449
H88	H	2.212108	0.223968	0.262551
H89	H	1.823129	-0.137762	-0.510714
H90	H	2.323129	0.362238	-0.010714
H91	H	1.011191	-0.137701	0.126098
H92	H	1.511191	0.362299	0.626098
H93	H	0.843883	-0.000009	0.071835
H94	H	1.343883	0.499991	0.571835
N95	N	1.675052	0.153424	-0.786680
N96	N	2.175052	0.653424	-0.286680
N97	N	1.592725	0.221211	-0.813371
N98	N	2.092725	0.721211	-0.313371
H99	H	1.599572	0.275971	-0.892496
H100	H	2.099572	0.775971	-0.392496
H101	H	1.151911	0.000035	-0.411893
H102	H	1.651911	0.500035	0.088107
N103	N	1.469474	0.153451	-0.625454
N104	N	1.969474	0.653451	-0.125454
N105	N	1.426300	0.134339	-0.726401
N106	N	1.926300	0.634339	-0.226401
H107	H	1.359792	0.189109	-0.748006
H108	H	1.859792	0.689109	-0.248006
H109	H	1.195733	-0.137666	-0.018595
H110	H	1.695733	0.362334	0.481405
H111	H	1.045659	0.137724	-0.271876
H112	H	1.545659	0.637724	0.228124
N113	N	0.842014	0.153421	-0.133380
N114	N	1.342014	0.653421	0.366620
N115	N	0.749188	0.100410	-0.149744
N116	N	1.249188	0.600410	0.350256
H117	H	0.682657	0.155148	-0.171341
H118	H	1.182657	0.655148	0.328659
H119	H	1.840377	-0.000045	-0.709696
H120	H	2.340377	0.499955	-0.209696
