data_functionalizedCrystal
_audit_creation_method	'MofGen! by Chris Wilmer'
_symmetry_space_group_name_H-M	'P1'
_symmetry_Int_Tables_number	1
_symmetry_cell_setting	triclinic
loop_
_symmetry_equiv_pos_as_xyz
  x,y,z
_cell_length_a	14.519709
_cell_length_b	13.596369
_cell_length_c	14.519709
_cell_angle_alpha	89.993066
_cell_angle_beta	96.319855
_cell_angle_gamma	89.999709
loop_
_atom_site_label
_atom_site_type_symbol
_atom_site_fract_x
_atom_site_fract_y
_atom_site_fract_z
O1	O	-1.223868	-0.081665	0.120893
O2	O	-0.973868	0.168335	0.370893
O3	O	-0.723868	0.418335	0.620893
O4	O	-0.473868	0.668335	0.870893
O5	O	-0.955392	-0.081696	0.135129
O6	O	-0.705392	0.168304	0.385129
O7	O	-0.455392	0.418304	0.635129
O8	O	-0.205392	0.668304	0.885129
O9	O	-1.096748	-0.081671	-0.006227
O10	O	-0.846748	0.168329	0.243773
O11	O	-0.596748	0.418329	0.493773
O12	O	-0.346748	0.668329	0.743773
O13	O	-1.082512	-0.081690	0.262249
O14	O	-0.832512	0.168310	0.512249
O15	O	-0.582512	0.418310	0.762249
O16	O	-0.332512	0.668310	1.012249
O17	O	-1.096734	0.081912	-0.006235
O18	O	-0.846734	0.331912	0.243765
O19	O	-0.596734	0.581912	0.493765
O20	O	-0.346734	0.831912	0.743765
O21	O	-0.955377	0.081887	0.135122
O22	O	-0.705377	0.331887	0.385122
O23	O	-0.455377	0.581887	0.635122
O24	O	-0.205377	0.831887	0.885122
O25	O	-1.223854	0.081917	0.120885
O26	O	-0.973854	0.331917	0.370885
O27	O	-0.723854	0.581917	0.620885
O28	O	-0.473854	0.831917	0.870885
Zn29	Zn	-1.089614	0.107875	0.128002
Zn30	Zn	-0.839614	0.357875	0.378002
Zn31	Zn	-0.589614	0.607875	0.628002
Zn32	Zn	-0.339614	0.857875	0.878002
Zn33	Zn	-1.089632	-0.107653	0.128012
Zn34	Zn	-0.839632	0.142347	0.378012
Zn35	Zn	-0.589632	0.392347	0.628012
Zn36	Zn	-0.339632	0.642347	0.878012
O37	O	-1.082498	0.081893	0.262242
O38	O	-0.832498	0.331893	0.512242
O39	O	-0.582498	0.581893	0.762242
O40	O	-0.332498	0.831893	1.012242
C41	C	-0.921025	0.000092	0.134462
C42	C	-0.671025	0.250092	0.384462
C43	C	-0.421025	0.500092	0.634462
C44	C	-0.171025	0.750092	0.884462
C45	C	-0.818643	0.000081	0.132474
C46	C	-0.568643	0.250081	0.382474
C47	C	-0.318643	0.500081	0.632474
C48	C	-0.068643	0.750081	0.882474
N49	N	-1.089608	0.254966	0.127995
N50	N	-0.839608	0.504966	0.377995
N51	N	-0.589608	0.754966	0.627995
N52	N	-0.339608	1.004966	0.877995
C53	C	-1.096078	0.000121	-0.040591
C54	C	-0.846078	0.250121	0.209409
C55	C	-0.596078	0.500121	0.459409
C56	C	-0.346078	0.750121	0.709409
C57	C	-1.094090	0.000121	-0.142972
C58	C	-0.844090	0.250121	0.107028
C59	C	-0.594090	0.500121	0.357028
C60	C	-0.344090	0.750121	0.607028
C61	C	-1.258221	0.000128	0.121553
C62	C	-1.008221	0.250128	0.371553
C63	C	-0.758221	0.500128	0.621553
C64	C	-0.508221	0.750128	0.871553
C65	C	-1.360602	0.000132	0.123541
C66	C	-1.110602	0.250132	0.373541
C67	C	-0.860602	0.500132	0.623541
C68	C	-0.610602	0.750132	0.873541
C69	C	-0.443748	0.000126	0.125154
C70	C	-0.193748	0.250126	0.375154
C71	C	0.056252	0.500126	0.625154
C72	C	0.306252	0.750126	0.875154
C73	C	-0.548056	0.000113	0.127187
C74	C	-0.298056	0.250113	0.377187
C75	C	-0.048056	0.500113	0.627187
C76	C	0.201944	0.750113	0.877187
C77	C	-0.631192	0.000102	0.128814
C78	C	-0.381192	0.250102	0.378814
C79	C	-0.131192	0.500102	0.628814
C80	C	0.118808	0.750102	0.878814
C81	C	-0.735507	0.000091	0.130847
C82	C	-0.485507	0.250091	0.380847
C83	C	-0.235507	0.500091	0.630847
C84	C	0.014493	0.750091	0.880847
N85	N	-1.089645	-0.254745	0.128012
N86	N	-0.839645	-0.004745	0.378012
N87	N	-0.589645	0.245255	0.628012
N88	N	-0.339645	0.495255	0.878012
C89	C	-1.089631	0.656257	0.128013
C90	C	-0.839631	0.906257	0.378013
C91	C	-0.589631	1.156257	0.628013
C92	C	-0.339631	1.406257	0.878013
C93	C	-1.089622	0.544606	0.128011
C94	C	-0.839622	0.794606	0.378011
C95	C	-0.589622	1.044606	0.628011
C96	C	-0.339622	1.294606	0.878011
C97	C	-1.089620	0.455615	0.128005
C98	C	-0.839620	0.705615	0.378005
C99	C	-0.589620	0.955615	0.628005
C100	C	-0.339620	1.205615	0.878005
C101	C	-1.089610	0.343957	0.128001
C102	C	-0.839610	0.593957	0.378001
C103	C	-0.589610	0.843957	0.628001
C104	C	-0.339610	1.093957	0.878001
C105	C	-1.086770	0.000095	-0.517868
C106	C	-0.836770	0.250095	-0.267868
C107	C	-0.586770	0.500095	-0.017868
C108	C	-0.336770	0.750095	0.232132
C109	C	-1.088803	0.000102	-0.413560
C110	C	-0.838803	0.250102	-0.163560
C111	C	-0.588803	0.500102	0.086440
C112	C	-0.338803	0.750102	0.336440
C113	C	-1.090430	0.000109	-0.330423
C114	C	-0.840430	0.250109	-0.080423
C115	C	-0.590430	0.500109	0.169577
C116	C	-0.340430	0.750109	0.419577
C117	C	-1.092463	0.000114	-0.226109
C118	C	-0.842463	0.250114	0.023891
C119	C	-0.592463	0.500114	0.273891
C120	C	-0.342463	0.750114	0.523891
C121	C	-1.083168	0.000099	0.296605
C122	C	-0.833168	0.250099	0.546605
C123	C	-0.583168	0.500099	0.796605
C124	C	-0.333168	0.750099	1.046605
C125	C	-1.085156	0.000092	0.398987
C126	C	-0.835156	0.250092	0.648987
C127	C	-0.585156	0.500092	0.898987
C128	C	-0.335156	0.750092	1.148987
