data_functionalizedCrystal
_audit_creation_method	'MofGen! by Chris Wilmer'
_symmetry_space_group_name_H-M	'P1'
_symmetry_Int_Tables_number	1
_symmetry_cell_setting	triclinic
loop_
_symmetry_equiv_pos_as_xyz
  x,y,z
_cell_length_a	13.635800
_cell_length_b	12.908942
_cell_length_c	13.466016
_cell_angle_alpha	77.958548
_cell_angle_beta	68.884940
_cell_angle_gamma	79.139444
loop_
_atom_site_label
_atom_site_type_symbol
_atom_site_fract_x
_atom_site_fract_y
_atom_site_fract_z
V1	V	1.815564	-0.148001	0.331645
O2	O	1.819669	0.004897	0.325942
O3	O	1.786344	-0.291331	0.328790
O4	O	1.707977	-0.146697	0.476554
O5	O	1.898579	-0.140739	0.177154
V6	V	2.068833	-0.129598	0.313238
O7	O	1.920950	-0.188370	0.372022
O8	O	2.188546	-0.089229	0.272861
O9	O	1.986449	0.013732	0.316093
O10	O	2.123427	-0.282496	0.318941
O11	O	2.044517	-0.136861	0.467728
O12	O	2.064817	-0.130903	0.168328
V13	V	2.315564	-0.148001	0.331645
O14	O	2.319669	0.004897	0.325942
O15	O	2.286344	-0.291331	0.328790
O16	O	2.207977	-0.146697	0.476554
O17	O	2.398579	-0.140739	0.177154
V18	V	2.568833	-0.129598	0.313238
O19	O	2.420950	-0.188370	0.372022
O20	O	2.688546	-0.089229	0.272861
O21	O	2.486449	0.013732	0.316093
O22	O	2.623427	-0.282496	0.318941
O23	O	2.544517	-0.136861	0.467728
O24	O	2.564817	-0.130903	0.168328
C25	C	1.710322	-0.326242	0.323407
C26	C	1.726519	-0.443422	0.322039
C27	C	1.932481	-0.674427	0.330080
C28	C	1.947705	-0.784529	0.328795
C29	C	1.772187	-0.773730	0.318190
C30	C	1.756964	-0.663629	0.319476
C31	C	1.837116	-0.613981	0.325419
C32	C	1.821894	-0.503876	0.326697
C33	C	1.646375	-0.493081	0.316100
C34	C	1.661598	-0.603182	0.314815
C35	C	1.610357	-0.141745	0.511894
C36	C	1.563001	-0.141627	0.630354
C37	C	1.547865	-0.238214	0.700818
C38	C	1.503384	-0.238119	0.812128
C39	C	1.474034	-0.141436	0.852970
C40	C	1.489176	-0.044841	0.782497
C41	C	1.533663	-0.044937	0.671190
C42	C	1.894144	0.048637	0.321473
C43	C	1.867562	0.165816	0.322848
C44	C	1.994111	-0.135858	0.132984
C45	C	2.031087	-0.135971	0.014522
C46	C	1.921235	-0.146751	-0.197281
C47	C	1.955973	-0.146858	-0.308586
C48	C	2.135297	-0.136285	-0.319395
C49	C	2.100559	-0.136178	-0.208090
C50	C	1.993527	-0.141413	-0.147037
C51	C	1.958791	-0.141313	-0.035729
C52	C	2.138114	-0.130732	-0.046541
C53	C	2.172851	-0.130839	-0.157846
C54	C	2.110357	-0.141745	0.511894
C55	C	2.063001	-0.141627	0.630354
C56	C	2.210322	-0.326242	0.323407
C57	C	2.226519	-0.443422	0.322039
C58	C	2.394144	0.048637	0.321473
C59	C	2.367562	0.165816	0.322848
C60	C	2.494111	-0.135858	0.132984
C61	C	2.531087	-0.135971	0.014522
C62	C	2.432481	-0.674427	0.330080
C63	C	2.447705	-0.784529	0.328795
C64	C	2.272187	-0.773730	0.318190
C65	C	2.256964	-0.663629	0.319476
C66	C	2.337116	-0.613981	0.325419
C67	C	2.321894	-0.503876	0.326697
C68	C	2.146375	-0.493081	0.316100
C69	C	2.161598	-0.603182	0.314815
C70	C	2.565273	-0.232667	-0.026289
C71	C	2.600005	-0.232790	-0.137592
C72	C	2.600557	-0.136216	-0.208084
C73	C	2.566363	-0.039512	-0.167266
C74	C	2.531625	-0.039391	-0.055964
H75	H	1.887161	-0.463454	0.331528
H76	H	2.196978	-0.126391	-0.005620
C77	C	1.486729	-0.344377	0.889636
C78	C	1.374553	-0.365843	0.965095
C79	C	1.357900	-0.472099	1.042601
C80	C	1.453422	-0.556888	1.044649
C81	C	1.565605	-0.535425	0.969188
C82	C	1.582258	-0.429169	0.891681
H83	H	1.303835	-0.303074	0.963581
H84	H	1.274855	-0.487987	1.098462
H85	H	1.441095	-0.635545	1.102024
H86	H	1.636324	-0.598193	0.970701
H87	H	1.665304	-0.413281	0.835820
H88	H	1.437807	-0.141372	0.943605
H89	H	2.096343	-0.643621	0.309980
H90	H	1.596343	-0.643621	0.309980
C91	C	1.580153	-0.344575	0.655908
C92	C	1.663448	-0.429315	0.688589
C93	C	1.695741	-0.535683	0.643688
C94	C	1.644739	-0.557310	0.566106
C95	C	1.561439	-0.472568	0.533420
C96	C	1.529146	-0.366201	0.578321
H97	H	1.701207	-0.413307	0.746024
H98	H	1.757405	-0.598414	0.667884
H99	H	1.668644	-0.636050	0.532867
H100	H	1.523680	-0.488576	0.475985
H101	H	1.467482	-0.303469	0.554125
C102	C	2.566984	0.066716	-0.244816
C103	C	2.605210	0.066567	-0.367242
C104	C	2.605840	0.172794	-0.444796
C105	C	2.568244	0.279171	-0.399924
C106	C	2.530016	0.279324	-0.277491
C107	C	2.529386	0.173097	-0.199937
H108	H	2.633042	-0.012183	-0.400465
H109	H	2.634139	0.172680	-0.535429
H110	H	2.568711	0.357807	-0.457334
H111	H	2.502183	0.358075	-0.244268
H112	H	2.501086	0.173211	-0.109304
H113	H	2.068720	-0.443853	0.312303
H114	H	1.997750	-0.634001	0.334903
H115	H	2.025359	-0.833741	0.332592
H116	H	2.503797	0.039354	-0.022746
H117	H	1.897102	-0.151197	-0.349491
H118	H	2.222439	-0.132000	-0.369127
H119	H	1.871641	-0.145578	0.013980
H120	H	2.259997	-0.126572	-0.207571
H121	H	1.706933	-0.814174	0.313361
H122	H	1.465273	0.033875	0.815768
H123	H	1.568720	-0.443853	0.312303
H124	H	1.545978	0.033718	0.613824
H125	H	2.206933	-0.814174	0.313361
H126	H	1.834087	-0.151021	-0.147569
H127	H	2.387161	-0.463454	0.331528
H128	H	2.497750	-0.634001	0.334903
H129	H	2.525359	-0.833741	0.332592
H130	H	2.564830	-0.311314	0.031093
H131	H	2.627845	-0.311541	-0.170809
H132	H	2.628844	-0.136330	-0.298711
