data_functionalizedCrystal
_audit_creation_method	'MofGen! by Chris Wilmer'
_symmetry_space_group_name_H-M	'P1'
_symmetry_Int_Tables_number	1
_symmetry_cell_setting	triclinic
loop_
_symmetry_equiv_pos_as_xyz
  x,y,z
_cell_length_a	11.792241
_cell_length_b	11.792241
_cell_length_c	13.448316
_cell_angle_alpha	90.002345
_cell_angle_beta	90.004318
_cell_angle_gamma	84.193416
loop_
_atom_site_label
_atom_site_type_symbol
_atom_site_fract_x
_atom_site_fract_y
_atom_site_fract_z
O1	O	1.506916	0.155563	0.082596
O2	O	1.176575	0.171596	0.082619
O3	O	1.349762	-0.001591	0.082600
O4	O	1.333729	0.328750	0.082615
O5	O	1.349732	-0.001587	-0.082784
O6	O	1.176545	0.171600	-0.082765
O7	O	1.506887	0.155567	-0.082788
Cu8	Cu	1.341713	0.163584	-0.097877
Cu9	Cu	1.341748	0.163579	0.097708
O10	O	1.333700	0.328754	-0.082769
C11	C	1.134269	0.170591	-0.000070
C12	C	1.008255	0.167576	-0.000061
C13	C	0.777543	0.162034	-0.000090
C14	C	0.905928	0.165113	-0.000074
C15	C	1.348740	-0.043880	-0.000092
C16	C	1.345726	-0.169894	-0.000091
C17	C	1.340183	-0.400606	-0.000074
C18	C	1.343262	-0.272221	-0.000083
C19	C	1.549192	0.156572	-0.000097
C20	C	1.675206	0.159587	-0.000099
C21	C	1.334721	0.371043	-0.000075
C22	C	1.337736	0.497057	-0.000070
N23	N	1.341697	0.163587	-0.235442
C24	C	1.418472	0.086911	-0.712669
C25	C	1.418462	0.086919	-0.608565
C26	C	1.341748	0.163578	-0.556523
C27	C	1.265046	0.240242	-0.608589
C28	C	1.265061	0.240239	-0.712691
C29	C	1.265016	0.240241	-0.391609
C30	C	1.264999	0.240243	-0.287501
C31	C	1.418417	0.086921	-0.287484
C32	C	1.418433	0.086918	-0.391585
C33	C	1.341729	0.163581	-0.443644
N34	N	1.341773	0.163567	0.235272
H35	H	1.480936	0.024482	-0.755035
H36	H	1.202587	0.302664	-0.566210
C37	C	1.113344	0.391778	-0.381174
C38	C	1.180692	0.324499	-0.448835
H39	H	1.061280	0.443783	-0.416506
H40	H	1.160823	0.432937	-0.340569
H41	H	1.072241	0.344238	-0.340573
H42	H	1.221803	0.372039	-0.489431
H43	H	1.133207	0.283337	-0.489458
C44	C	1.113399	0.391774	-0.702258
C45	C	1.180744	0.324493	-0.769918
H46	H	1.061341	0.443786	-0.737589
H47	H	1.160880	0.432926	-0.661648
H48	H	1.072288	0.344237	-0.661660
H49	H	1.221861	0.372029	-0.810511
H50	H	1.133256	0.283338	-0.810544
H51	H	1.480916	0.024501	-0.566179
C52	C	1.570091	-0.064623	-0.381118
C53	C	1.502762	0.002659	-0.448793
H54	H	1.622159	-0.116633	-0.416438
H55	H	1.522599	-0.105778	-0.340529
H56	H	1.611190	-0.017087	-0.340501
H57	H	1.461656	-0.044877	-0.489405
H58	H	1.550259	0.043817	-0.489398
H59	H	1.480872	0.024500	-0.245091
H60	H	1.202531	0.302667	-0.245133
