data_functionalizedCrystal
_audit_creation_method	'MofGen! by Chris Wilmer'
_symmetry_space_group_name_H-M	'P1'
_symmetry_Int_Tables_number	1
_symmetry_cell_setting	triclinic
loop_
_symmetry_equiv_pos_as_xyz
  x,y,z
_cell_length_a	14.519709
_cell_length_b	14.519709
_cell_length_c	16.053802
_cell_angle_alpha	92.569364
_cell_angle_beta	87.419624
_cell_angle_gamma	83.680145
loop_
_atom_site_label
_atom_site_type_symbol
_atom_site_fract_x
_atom_site_fract_y
_atom_site_fract_z
O1	O	1.227746	0.117021	-0.069322
O2	O	1.477746	0.367021	0.180678
O3	O	1.727746	0.617021	0.430678
O4	O	1.977746	0.867021	0.680678
O5	O	0.959270	0.131256	-0.069348
O6	O	1.209270	0.381256	0.180652
O7	O	1.459270	0.631256	0.430652
O8	O	1.709270	0.881256	0.680652
O9	O	1.100626	-0.010100	-0.069327
O10	O	1.350626	0.239900	0.180673
O11	O	1.600626	0.489900	0.430673
O12	O	1.850626	0.739900	0.680673
O13	O	1.086390	0.258376	-0.069343
O14	O	1.336390	0.508376	0.180657
O15	O	1.586390	0.758376	0.430657
O16	O	1.836390	1.008376	0.680657
O17	O	1.092845	-0.002351	0.069531
O18	O	1.342845	0.247649	0.319531
O19	O	1.592845	0.497649	0.569531
O20	O	1.842845	0.747649	0.819531
O21	O	0.951490	0.139004	0.069510
O22	O	1.201490	0.389004	0.319510
O23	O	1.451490	0.639004	0.569510
O24	O	1.701490	0.889004	0.819510
O25	O	1.219965	0.124769	0.069536
O26	O	1.469965	0.374769	0.319536
O27	O	1.719965	0.624769	0.569536
O28	O	1.969965	0.874769	0.819536
Zn29	Zn	1.084492	0.133117	0.091570
Zn30	Zn	1.334492	0.383117	0.341570
Zn31	Zn	1.584492	0.633117	0.591570
Zn32	Zn	1.834492	0.883117	0.841570
Zn33	Zn	1.094743	0.122908	-0.091381
Zn34	Zn	1.344743	0.372908	0.158619
Zn35	Zn	1.594743	0.622908	0.408619
Zn36	Zn	1.844743	0.872908	0.658619
O37	O	1.078610	0.266125	0.069515
O38	O	1.328610	0.516125	0.319515
O39	O	1.578610	0.766125	0.569515
O40	O	1.828610	1.016125	0.819515
C41	C	0.921020	0.134466	0.000078
C42	C	1.171020	0.384466	0.250078
C43	C	1.421020	0.634466	0.500078
C44	C	1.671020	0.884466	0.750078
C45	C	0.818640	0.132478	0.000068
C46	C	1.068640	0.382478	0.250068
C47	C	1.318640	0.632478	0.500068
C48	C	1.568640	0.882478	0.750068
C49	C	0.443742	0.125160	0.000107
C50	C	0.693742	0.375160	0.250107
C51	C	0.943742	0.625160	0.500107
C52	C	1.193742	0.875160	0.750107
C53	C	0.548050	0.127192	0.000096
C54	C	0.798050	0.377192	0.250096
C55	C	1.048050	0.627192	0.500096
C56	C	1.298050	0.877192	0.750096
C57	C	0.631187	0.128819	0.000087
C58	C	0.881187	0.378819	0.250087
C59	C	1.131187	0.628819	0.500087
C60	C	1.381187	0.878819	0.750087
C61	C	0.735502	0.130851	0.000077
C62	C	0.985502	0.380851	0.250077
C63	C	1.235502	0.630851	0.500077
C64	C	1.485502	0.880851	0.750077
C65	C	1.096072	-0.040585	0.000102
C66	C	1.346072	0.209415	0.250102
C67	C	1.596072	0.459415	0.500102
C68	C	1.846072	0.709415	0.750102
C69	C	1.094084	-0.142966	0.000103
C70	C	1.344084	0.107034	0.250103
C71	C	1.594084	0.357034	0.500103
C72	C	1.844084	0.607034	0.750103
C73	C	1.086766	-0.517864	0.000080
C74	C	1.336766	-0.267864	0.250080
C75	C	1.586766	-0.017864	0.500080
C76	C	1.836766	0.232136	0.750080
C77	C	1.088798	-0.413555	0.000087
C78	C	1.338798	-0.163555	0.250087
C79	C	1.588798	0.086445	0.500087
C80	C	1.838798	0.336445	0.750087
C81	C	1.090424	-0.330418	0.000092
C82	C	1.340424	-0.080418	0.250092
C83	C	1.590424	0.169582	0.500092
C84	C	1.840424	0.419582	0.750092
C85	C	1.092457	-0.226103	0.000097
C86	C	1.342457	0.023897	0.250097
C87	C	1.592457	0.273897	0.500097
C88	C	1.842457	0.523897	0.750097
C89	C	1.258215	0.121559	0.000108
C90	C	1.508215	0.371559	0.250108
C91	C	1.758215	0.621559	0.500108
C92	C	2.008215	0.871559	0.750108
C93	C	1.360596	0.123547	0.000112
C94	C	1.610596	0.373547	0.250112
C95	C	1.860596	0.623547	0.500112
C96	C	2.110596	0.873547	0.750112
C97	C	1.083163	0.296610	0.000084
C98	C	1.333163	0.546610	0.250084
C99	C	1.583163	0.796610	0.500084
C100	C	1.833163	1.046610	0.750084
C101	C	1.085152	0.398991	0.000078
C102	C	1.335152	0.648991	0.250078
C103	C	1.585152	0.898991	0.500078
C104	C	1.835152	1.148991	0.750078
N105	N	1.077502	0.140084	0.216429
N106	N	1.327502	0.390084	0.466429
N107	N	1.577502	0.640084	0.716429
N108	N	1.827502	0.890084	0.966429
N109	N	1.101740	0.115934	-0.216241
N110	N	1.351740	0.365934	0.033759
N111	N	1.601740	0.615934	0.283759
N112	N	1.851740	0.865934	0.533759
C113	C	1.137671	0.079958	0.260132
C114	C	1.387671	0.329958	0.510132
C115	C	1.637671	0.579958	0.760132
C116	C	1.887671	0.829958	1.010132
C117	C	1.132791	0.084840	0.347538
C118	C	1.382791	0.334840	0.597538
C119	C	1.632791	0.584840	0.847538
C120	C	1.882791	0.834840	1.097538
C121	C	1.067745	0.149853	0.391239
C122	C	1.317745	0.399853	0.641239
C123	C	1.567745	0.649853	0.891239
C124	C	1.817745	0.899853	1.141239
C125	C	1.007570	0.209981	0.347530
C126	C	1.257570	0.459981	0.597530
C127	C	1.507570	0.709981	0.847530
C128	C	1.757570	0.959981	1.097530
C129	C	1.012446	0.205094	0.260126
C130	C	1.262446	0.455094	0.510126
C131	C	1.512446	0.705094	0.760126
C132	C	1.762446	0.955094	1.010126
C133	C	1.046442	0.171175	0.652646
C134	C	1.296442	0.421175	0.902646
C135	C	1.546442	0.671175	1.152646
C136	C	1.796442	0.921175	1.402646
C137	C	1.041571	0.176059	0.740056
C138	C	1.291571	0.426059	0.990056
C139	C	1.541571	0.676059	1.240056
C140	C	1.791571	0.926059	1.490056
C141	C	1.166792	0.050917	0.740058
C142	C	1.416792	0.300917	0.990058
C143	C	1.666792	0.550917	1.240058
C144	C	1.916792	0.800917	1.490058
C145	C	1.171667	0.046039	0.652652
C146	C	1.421667	0.296039	0.902652
C147	C	1.671667	0.546039	1.152652
C148	C	1.921667	0.796039	1.402652
C149	C	1.111488	0.106164	0.608950
C150	C	1.361488	0.356164	0.858950
C151	C	1.611488	0.606164	1.108950
C152	C	1.861488	0.856164	1.358950
N153	N	1.062756	0.154847	0.480582
N154	N	1.312756	0.404847	0.730582
N155	N	1.562756	0.654847	0.980582
N156	N	1.812756	0.904847	1.230582
N157	N	1.116473	0.101165	0.519609
N158	N	1.366473	0.351165	0.769609
N159	N	1.616473	0.601165	1.019609
N160	N	1.866473	0.851165	1.269609
H161	H	1.190643	0.027022	0.224556
H162	H	1.440643	0.277022	0.474556
H163	H	1.690643	0.527022	0.724556
H164	H	1.940643	0.777022	0.974556
H165	H	0.997443	0.220133	0.617071
H166	H	1.247443	0.470133	0.867071
H167	H	1.497443	0.720133	1.117071
H168	H	1.747443	0.970133	1.367071
C169	C	1.198960	0.018675	0.395607
C170	C	1.448960	0.268675	0.645607
C171	C	1.698960	0.518675	0.895607
C172	C	1.948960	0.768675	1.145607
N173	N	1.248793	-0.031173	0.431812
N174	N	1.498793	0.218827	0.681812
N175	N	1.748793	0.468827	0.931812
N176	N	1.998793	0.718827	1.181812
H177	H	1.224632	-0.006899	0.617072
H178	H	1.474632	0.243101	0.867072
H179	H	1.724632	0.493101	1.117072
H180	H	1.974632	0.743101	1.367072
C181	C	0.970010	0.247579	0.788126
C182	C	1.220010	0.497579	1.038126
C183	C	1.470010	0.747579	1.288126
C184	C	1.720010	0.997579	1.538126
N185	N	0.916113	0.301445	0.824333
N186	N	1.166113	0.551445	1.074333
N187	N	1.416113	0.801445	1.324333
N188	N	1.666113	1.051445	1.574333
H189	H	0.963449	0.254054	0.224544
H190	H	1.213449	0.504054	0.474544
H191	H	1.463449	0.754054	0.724544
H192	H	1.713449	1.004054	0.974544
C193	C	1.232976	-0.015223	0.788136
C194	C	1.482976	0.234777	1.038136
C195	C	1.732976	0.484777	1.288136
C196	C	1.982976	0.734777	1.538136
N197	N	1.282826	-0.065046	0.824349
N198	N	1.532826	0.184954	1.074349
N199	N	1.782826	0.434954	1.324349
N200	N	2.032826	0.684954	1.574349
C201	C	0.936009	0.281488	0.395605
C202	C	1.186009	0.531488	0.645605
C203	C	1.436009	0.781488	0.895605
C204	C	1.686009	1.031488	1.145605
N205	N	0.882108	0.335347	0.431814
N206	N	1.132108	0.585347	0.681814
N207	N	1.382108	0.835347	0.931814
N208	N	1.632108	1.085347	1.181814
