data_functionalizedCrystal
_audit_creation_method	'MofGen! by Chris Wilmer'
_symmetry_space_group_name_H-M	'P1'
_symmetry_Int_Tables_number	1
_symmetry_cell_setting	triclinic
loop_
_symmetry_equiv_pos_as_xyz
  x,y,z
_cell_length_a	14.044220
_cell_length_b	27.732048
_cell_length_c	13.101039
_cell_angle_alpha	93.329410
_cell_angle_beta	86.340132
_cell_angle_gamma	87.915767
loop_
_atom_site_label
_atom_site_type_symbol
_atom_site_fract_x
_atom_site_fract_y
_atom_site_fract_z
O1	O	1.261246	0.114020	-0.085126
O2	O	1.594579	0.447354	0.248207
O3	O	1.927912	0.780687	0.581540
O4	O	0.985339	0.109817	-0.085151
O5	O	1.318673	0.443151	0.248182
O6	O	1.652006	0.776484	0.581515
O7	O	1.131860	0.041925	-0.085119
O8	O	1.465194	0.375258	0.248215
O9	O	1.798527	0.708591	0.581548
O10	O	1.114725	0.181913	-0.085159
O11	O	1.448058	0.515246	0.248174
O12	O	1.781391	0.848579	0.581507
O13	O	1.121348	0.046805	0.085309
O14	O	1.454681	0.380138	0.418642
O15	O	1.788014	0.713471	0.751976
O16	O	0.974827	0.114697	0.085276
O17	O	1.308160	0.448031	0.418609
O18	O	1.641493	0.781364	0.751943
O19	O	1.250733	0.118900	0.085301
O20	O	1.584066	0.452234	0.418635
O21	O	1.917399	0.785567	0.751968
Zn22	Zn	1.111111	0.117574	0.112348
Zn23	Zn	1.444444	0.450907	0.445681
Zn24	Zn	1.777777	0.784240	0.779014
Zn25	Zn	1.124962	0.111144	-0.112198
Zn26	Zn	1.458295	0.444477	0.221135
Zn27	Zn	1.791628	0.777811	0.554469
O28	O	1.104212	0.186793	0.085268
O29	O	1.437545	0.520126	0.418602
O30	O	1.770879	0.853459	0.751935
C31	C	0.944796	0.110418	0.000059
C32	C	1.278129	0.443751	0.333393
C33	C	1.611462	0.777084	0.666726
C34	C	0.839651	0.104930	0.000051
C35	C	1.172984	0.438264	0.333384
C36	C	1.506318	0.771597	0.666717
C37	C	0.647135	0.094899	0.000074
C38	C	0.980468	0.428233	0.333407
C39	C	1.313802	0.761566	0.666740
C40	C	0.588932	0.133816	0.000067
C41	C	0.922266	0.467149	0.333400
C42	C	1.255599	0.800483	0.666734
C43	C	0.481810	0.128235	0.000080
C44	C	0.815143	0.461568	0.333413
C45	C	1.148476	0.794901	0.666746
C46	C	0.754268	0.100480	0.000061
C47	C	1.087601	0.433813	0.333394
C48	C	1.420934	0.767147	0.666728
C49	C	1.126244	0.026341	0.000098
C50	C	1.459577	0.359674	0.333431
C51	C	1.792911	0.693008	0.666765
C52	C	1.125160	-0.027364	0.000106
C53	C	1.458494	0.305969	0.333440
C54	C	1.791827	0.639302	0.666773
C55	C	1.204929	-0.362438	0.000061
C56	C	1.538262	-0.029104	0.333394
C57	C	1.871595	0.304229	0.666728
C58	C	1.200910	-0.564286	0.000046
C59	C	1.534244	-0.230953	0.333380
C60	C	1.867577	0.102380	0.666713
O61	O	1.273853	-0.592120	0.000008
O62	O	1.607186	-0.258787	0.333341
O63	O	1.940519	0.074547	0.666675
N64	N	1.114029	-0.587487	0.000039
N65	N	1.447362	-0.254154	0.333373
N66	N	1.780695	0.079179	0.666706
C67	C	1.028146	-0.560223	0.000029
C68	C	1.361479	-0.226890	0.333363
C69	C	1.694813	0.106443	0.666696
O70	O	0.954156	-0.584589	0.000012
O71	O	1.287490	-0.251256	0.333346
O72	O	1.620823	0.082077	0.666679
C73	C	1.032166	-0.358376	0.000037
C74	C	1.365499	-0.025043	0.333370
C75	C	1.698832	0.308291	0.666703
C76	C	1.119052	-0.335177	0.000054
C77	C	1.452386	-0.001844	0.333387
C78	C	1.785719	0.331490	0.666721
C79	C	1.291808	-0.339239	0.000077
C80	C	1.625142	-0.005905	0.333410
C81	C	1.958475	0.327428	0.666744
C82	C	1.292812	-0.288779	0.000086
C83	C	1.626145	0.044554	0.333420
C84	C	1.959478	0.377887	0.666753
C85	C	1.206935	-0.261519	0.000079
C86	C	1.540269	0.071814	0.333413
C87	C	1.873602	0.405148	0.666746
C88	C	1.120056	-0.284718	0.000063
C89	C	1.453389	0.048616	0.333397
C90	C	1.786722	0.381949	0.666730
C91	C	0.946285	-0.331113	0.000019
C92	C	1.279618	0.002220	0.333353
C93	C	1.612951	0.335554	0.666686
C94	C	0.947297	-0.280648	0.000018
C95	C	1.280631	0.052685	0.333352
C96	C	1.613964	0.386018	0.666685
C97	C	1.034184	-0.257449	0.000036
C98	C	1.367517	0.075884	0.333369
C99	C	1.700851	0.409217	0.666703
C100	C	1.035183	-0.206998	0.000066
C101	C	1.368516	0.126335	0.333399
C102	C	1.701849	0.459669	0.666732
N103	N	1.122064	-0.183797	0.000072
N104	N	1.455398	0.149536	0.333406
N105	N	1.788731	0.482870	0.666739
C106	C	1.207941	-0.211057	0.000079
C107	C	1.541274	0.122276	0.333413
C108	C	1.874607	0.455609	0.666746
C109	C	1.026042	-0.666196	0.000027
C110	C	1.359375	-0.332863	0.333361
C111	C	1.692708	0.000470	0.666694
C112	C	1.025036	-0.716658	0.000027
C113	C	1.358370	-0.383325	0.333361
C114	C	1.691703	-0.049991	0.666694
C115	C	1.197801	-0.720717	0.000043
C116	C	1.531134	-0.387384	0.333376
C117	C	1.864468	-0.054051	0.666709
C118	C	1.198805	-0.670255	0.000050
C119	C	1.532138	-0.336921	0.333383
C120	C	1.865472	-0.003588	0.666717
C121	C	1.112923	-0.642995	0.000034
C122	C	1.446256	-0.309662	0.333368
C123	C	1.779590	0.023672	0.666701
C124	C	1.210041	-0.105089	0.000100
C125	C	1.543374	0.228244	0.333433
C126	C	1.876708	0.561578	0.666766
C127	C	1.211037	-0.054625	0.000113
C128	C	1.544370	0.278709	0.333447
C129	C	1.877703	0.612042	0.666780
C130	C	1.038273	-0.050570	0.000093
C131	C	1.371606	0.282763	0.333426
C132	C	1.704939	0.616097	0.666759
C133	C	1.037276	-0.101030	0.000085
C134	C	1.370610	0.232304	0.333418
C135	C	1.703943	0.565637	0.666751
C136	C	1.123168	-0.128288	0.000085
C137	C	1.456502	0.205045	0.333418
C138	C	1.789835	0.538379	0.666751
O139	O	0.962280	-0.179134	0.000092
O140	O	1.295614	0.154199	0.333426
O141	O	1.628947	0.487532	0.666759
O142	O	1.281921	-0.186683	0.000073
O143	O	1.615254	0.146650	0.333407
O144	O	1.948588	0.479984	0.666740
C145	C	1.203925	-0.412897	0.000052
C146	C	1.537259	-0.079564	0.333385
C147	C	1.870592	0.253770	0.666718
C148	C	1.117046	-0.436096	0.000035
C149	C	1.450379	-0.102762	0.333369
C150	C	1.783712	0.230571	0.666702
C151	C	1.031169	-0.408835	0.000029
C152	C	1.364503	-0.075502	0.333362
C153	C	1.697836	0.257831	0.666695
C154	C	1.116040	-0.486557	0.000035
C155	C	1.449374	-0.153224	0.333369
C156	C	1.782707	0.180109	0.666702
C157	C	1.201917	-0.513818	0.000042
C158	C	1.535250	-0.180484	0.333376
C159	C	1.868583	0.152849	0.666709
C160	C	1.288798	-0.490617	0.000049
C161	C	1.622132	-0.157283	0.333383
C162	C	1.955465	0.176050	0.666716
C163	C	1.289802	-0.440157	0.000059
C164	C	1.623135	-0.106824	0.333392
C165	C	1.956468	0.226509	0.666725
C166	C	0.944288	-0.432037	0.000022
C167	C	1.277621	-0.098703	0.333355
C168	C	1.610955	0.234630	0.666688
C169	C	0.943292	-0.482496	0.000013
C170	C	1.276625	-0.149163	0.333347
C171	C	1.609958	0.184171	0.666680
C172	C	1.029168	-0.509756	0.000020
C173	C	1.362501	-0.176423	0.333354
C174	C	1.695834	0.156910	0.666687
C175	C	1.291277	0.118300	0.000088
C176	C	1.624610	0.451633	0.333421
C177	C	1.957943	0.784967	0.666755
C178	C	1.396422	0.123787	0.000090
C179	C	1.729755	0.457120	0.333423
C180	C	2.063089	0.790454	0.666757
C181	C	1.109828	0.202376	0.000050
C182	C	1.443162	0.535710	0.333383
C183	C	1.776495	0.869043	0.666716
C184	C	1.110913	0.256082	0.000034
C185	C	1.444246	0.589415	0.333368
C186	C	1.777579	0.922748	0.666701
N187	N	1.101664	0.121962	0.265594
N188	N	1.434998	0.455295	0.598927
N189	N	1.768331	0.788628	0.932261
N190	N	1.134415	0.106752	-0.265444
N191	N	1.467749	0.440086	0.067889
N192	N	1.801082	0.773419	0.401222
C193	C	1.088813	0.127936	0.474634
C194	C	1.422146	0.461269	0.807967
C195	C	1.755479	0.794603	1.141300
C196	C	1.147264	0.100779	0.525523
C197	C	1.480597	0.434113	0.858856
C198	C	1.813931	0.767446	1.192189
C199	C	1.140113	0.104104	0.641839
C200	C	1.473446	0.437437	0.975173
C201	C	1.806780	0.770770	1.308506
C202	C	1.095962	0.124612	0.358306
C203	C	1.429296	0.457946	0.691640
C204	C	1.762629	0.791279	1.024973
H205	H	0.619555	0.171325	0.000051
H206	H	0.952888	0.504659	0.333384
H207	H	1.286221	0.837992	0.666718
H208	H	1.269556	-0.651370	0.000063
H209	H	1.602889	-0.318036	0.333396
H210	H	1.936222	0.015297	0.666730
H211	H	1.033404	0.153681	0.518418
H212	H	1.366738	0.487014	0.851752
H213	H	1.700071	0.820348	1.185085
H214	H	0.872532	-0.501380	0.000008
H215	H	1.205866	-0.168046	0.333342
H216	H	1.539199	0.165287	0.666675
H217	H	1.202677	0.075033	0.481733
H218	H	1.536010	0.408367	0.815066
H219	H	1.869344	0.741700	1.148399
H220	H	1.267725	-0.742921	0.000049
H221	H	1.601058	-0.409588	0.333382
H222	H	1.934391	-0.076255	0.666715
H223	H	0.956102	-0.644006	0.000015
H224	H	1.289435	-0.310673	0.333348
H225	H	1.622769	0.022661	0.666682
H226	H	0.616514	0.057393	0.000090
H227	H	0.949847	0.390726	0.333424
H228	H	1.283181	0.724060	0.666757
H229	H	1.281793	-0.035739	0.000130
H230	H	1.615126	0.297594	0.333463
H231	H	1.948460	0.630928	0.666797
H232	H	1.279983	-0.127277	0.000096
H233	H	1.613316	0.206056	0.333429
H234	H	1.946650	0.539390	0.666762
H235	H	1.363564	-0.269896	0.000096
H236	H	1.696897	0.063438	0.333430
H237	H	2.030230	0.396771	0.666763
H238	H	0.875533	-0.349993	-0.000001
H239	H	1.208866	-0.016659	0.333332
H240	H	1.542199	0.316674	0.666666
H241	H	1.361743	-0.361429	0.000079
H242	H	1.695077	-0.028096	0.333412
H243	H	2.028410	0.305238	0.666746
H244	H	0.954283	-0.735541	0.000031
H245	H	1.287617	-0.402208	0.333364
H246	H	1.620950	-0.068875	0.666698
H247	H	0.877360	-0.258456	0.000004
H248	H	1.210694	0.074877	0.333338
H249	H	1.544027	0.408211	0.666671
H250	H	0.966524	-0.119918	0.000099
H251	H	1.299858	0.213415	0.333432
H252	H	1.633191	0.546749	0.666766
H253	H	1.360554	-0.421273	0.000072
H254	H	1.693887	-0.087940	0.333406
H255	H	2.027220	0.245393	0.666739
H256	H	0.968354	-0.028365	0.000091
H257	H	1.301688	0.304968	0.333424
H258	H	1.635021	0.638301	0.666757
H259	H	0.874355	-0.409846	0.000014
H260	H	1.207689	-0.076513	0.333347
H261	H	1.541022	0.256821	0.666680
H262	H	1.358722	-0.512821	0.000060
H263	H	1.692055	-0.179487	0.333393
H264	H	2.025388	0.153846	0.666726
