data_functionalizedCrystal
_audit_creation_method	'MofGen! by Chris Wilmer'
_symmetry_space_group_name_H-M	'P1'
_symmetry_Int_Tables_number	1
_symmetry_cell_setting	triclinic
loop_
_symmetry_equiv_pos_as_xyz
  x,y,z
_cell_length_a	17.639504
_cell_length_b	14.908520
_cell_length_c	14.908308
_cell_angle_alpha	83.639235
_cell_angle_beta	98.635970
_cell_angle_gamma	105.081037
loop_
_atom_site_label
_atom_site_type_symbol
_atom_site_fract_x
_atom_site_fract_y
_atom_site_fract_z
Zn1	Zn	-1.161811	0.136904	-0.786529
Zn2	Zn	-0.828478	0.470237	-0.453196
Zn3	Zn	-0.495144	0.803570	-0.119863
Zn4	Zn	-1.161721	0.279569	-0.643880
Zn5	Zn	-0.828388	0.612902	-0.310547
Zn6	Zn	-0.495055	0.946235	0.022787
Zn7	Zn	-1.037719	0.155226	-0.608062
Zn8	Zn	-0.704385	0.488559	-0.274728
Zn9	Zn	-0.371052	0.821892	0.058605
Zn10	Zn	-1.021502	0.318773	-0.764538
Zn11	Zn	-0.688168	0.652106	-0.431205
Zn12	Zn	-0.354835	0.985439	-0.097871
O13	O	-1.095688	0.222618	-0.700752
O14	O	-0.762355	0.555951	-0.367419
O15	O	-0.429022	0.889284	-0.034086
O16	O	-1.272414	0.131754	-0.791800
O17	O	-0.939081	0.465087	-0.458467
O18	O	-0.605748	0.798420	-0.125133
O19	O	-1.152021	0.254335	-0.513943
O20	O	-0.818688	0.587668	-0.180610
O21	O	-0.485355	0.921002	0.152723
O22	O	-1.061004	0.024645	-0.625949
O23	O	-0.727671	0.357978	-0.292616
O24	O	-0.394338	0.691311	0.040718
O25	O	-1.272348	0.236569	-0.686996
O26	O	-0.939015	0.569902	-0.353663
O27	O	-0.605682	0.903236	-0.020329
O28	O	-1.152174	0.011184	-0.757068
O29	O	-0.818841	0.344517	-0.423735
O30	O	-0.485508	0.677850	-0.090402
O31	O	-1.060917	0.162981	-0.487628
O32	O	-0.727584	0.496314	-0.154294
O33	O	-0.394251	0.829648	0.179039
O34	O	-0.924952	0.200995	-0.604625
O35	O	-0.591619	0.534329	-0.271292
O36	O	-0.258286	0.867662	0.062042
O37	O	-1.033365	0.303387	-0.892641
O38	O	-0.700031	0.636720	-0.559307
O39	O	-0.366698	0.970053	-0.225974
O40	O	-0.913038	0.321153	-0.719588
O41	O	-0.579704	0.654486	-0.386254
O42	O	-0.246371	0.987819	-0.052921
O43	O	-1.136449	0.169768	-0.908797
O44	O	-0.803116	0.503102	-0.575464
O45	O	-0.469783	0.836435	-0.242131
O46	O	-1.136296	0.412920	-0.665672
O47	O	-0.802963	0.746253	-0.332339
O48	O	-0.469630	1.079586	0.000994
O49	O	-1.033278	0.441723	-0.754319
O50	O	-0.699944	0.775056	-0.420986
O51	O	-0.366611	1.108389	-0.087653
C52	C	-0.890314	0.267317	-0.655834
C53	C	-0.556980	0.600650	-0.322501
C54	C	-0.223647	0.933984	0.010833
C55	C	-0.802451	0.286463	-0.636640
C56	C	-0.469118	0.619797	-0.303306
C57	C	-0.135784	0.953130	0.030027
C58	C	-0.513578	0.077095	-0.846769
C59	C	-0.180244	0.410428	-0.513436
C60	C	0.153089	0.743762	-0.180102
C61	C	-0.431017	0.095107	-0.828716
C62	C	-0.097684	0.428441	-0.495383
C63	C	0.235649	0.761774	-0.162050
C64	C	-0.430990	0.204046	-0.719410
C65	C	-0.097656	0.537379	-0.386077
C66	C	0.235677	0.870712	-0.052744
C67	C	-0.513551	0.186046	-0.737457
C68	C	-0.180218	0.519379	-0.404124
C69	C	0.153115	0.852712	-0.070791
C70	C	-0.554839	0.122569	-0.801137
C71	C	-0.221506	0.455902	-0.467803
C72	C	0.111828	0.789235	-0.134470
C73	C	-0.554813	0.231519	-0.691825
C74	C	-0.221479	0.564853	-0.358492
C75	C	0.111854	0.898186	-0.025158
C76	C	-0.637368	0.213517	-0.709867
C77	C	-0.304034	0.546850	-0.376534
C78	C	0.029299	0.880184	-0.043200
C79	C	-0.678661	0.150041	-0.773542
C80	C	-0.345328	0.483374	-0.440208
C81	C	-0.011995	0.816708	-0.106875
C82	C	-0.637394	0.104566	-0.819179
C83	C	-0.304061	0.437900	-0.485846
C84	C	0.029273	0.771233	-0.152512
C85	C	-0.513524	0.294991	-0.628141
C86	C	-0.180191	0.628325	-0.294808
C87	C	0.153142	0.961658	0.038526
C88	C	-0.554786	0.340465	-0.582509
C89	C	-0.221452	0.673798	-0.249175
C90	C	0.111881	1.007132	0.084158
C91	C	-0.637341	0.322468	-0.600555
C92	C	-0.304008	0.655801	-0.267222
C93	C	0.029325	0.989135	0.066111
C94	C	-0.678635	0.258992	-0.664230
C95	C	-0.345302	0.592325	-0.330897
C96	C	-0.011968	0.925658	0.002437
C97	C	-0.678609	0.367943	-0.554918
C98	C	-0.345275	0.701276	-0.221585
C99	C	-0.011942	1.034609	0.111749
C100	C	-0.761164	0.349940	-0.572960
C101	C	-0.427830	0.683274	-0.239627
C102	C	-0.094497	1.016607	0.093706
C103	C	-0.761190	0.240989	-0.682272
C104	C	-0.427856	0.574323	-0.348939
C105	C	-0.094523	0.907656	-0.015605
C106	C	-1.083038	0.460546	-0.711520
C107	C	-0.749705	0.793879	-0.378187
C108	C	-0.416371	1.127213	-0.044854
C109	C	-1.077697	0.562319	-0.716173
C110	C	-0.744363	0.895652	-0.382840
C111	C	-0.411030	1.228986	-0.049506
C112	C	-1.083108	0.238907	-0.934086
C113	C	-0.749775	0.572240	-0.600752
C114	C	-0.416441	0.905573	-0.267419
C115	C	-1.077747	0.245848	-1.033518
C116	C	-0.744414	0.579182	-0.700185
C117	C	-0.411081	0.912515	-0.366852
C118	C	-0.301865	0.177731	-0.745843
C119	C	0.031468	0.511064	-0.412509
C120	C	0.364801	0.844398	-0.079176
C121	C	-0.389728	0.158568	-0.765048
C122	C	-0.056395	0.491901	-0.431715
C123	C	0.276938	0.825235	-0.098381
C124	C	-1.108408	-0.016243	-0.689966
C125	C	-0.775075	0.317090	-0.356633
C126	C	-0.441742	0.650424	-0.023300
C127	C	-1.113829	-0.118031	-0.685370
C128	C	-0.780496	0.215302	-0.352036
C129	C	-0.447162	0.548636	-0.018703
C130	C	-1.175032	0.723492	-0.632722
C131	C	-0.841699	1.056825	-0.299389
C132	C	-0.508366	1.390158	0.033945
C133	C	-1.170017	0.819116	-0.637091
C134	C	-0.836684	1.152449	-0.303758
C135	C	-0.503350	1.485782	0.029576
C136	C	-1.062654	0.849192	-0.729285
C137	C	-0.729321	1.182526	-0.395952
C138	C	-0.395988	1.515859	-0.062618
C139	C	-1.067670	0.753568	-0.724916
C140	C	-0.734337	1.086902	-0.391583
C141	C	-0.401003	1.420235	-0.058249
C142	C	-1.123860	0.690721	-0.676632
C143	C	-0.790527	1.024054	-0.343298
C144	C	-0.457193	1.357387	-0.009965
C145	C	-1.128871	0.595096	-0.672258
C146	C	-0.795538	0.928429	-0.338924
C147	C	-0.462205	1.261762	-0.005591
C148	C	-1.021513	0.625173	-0.764456
C149	C	-0.688180	0.958507	-0.431123
C150	C	-0.354846	1.291840	-0.097790
C151	C	-1.016497	0.720797	-0.768826
C152	C	-0.683164	1.054131	-0.435492
C153	C	-0.349831	1.387464	-0.102159
C154	C	-1.175014	0.119734	-1.237187
C155	C	-0.841681	0.453068	-0.903854
C156	C	-0.508348	0.786401	-0.570521
C157	C	-1.169980	0.126253	-1.330614
C158	C	-0.836647	0.459586	-0.997280
C159	C	-0.503313	0.792919	-0.663947
C160	C	-1.062641	0.265399	-1.313798
C161	C	-0.729308	0.598732	-0.980465
C162	C	-0.395974	0.932066	-0.647132
C163	C	-1.067675	0.258881	-1.220372
C164	C	-0.734342	0.592214	-0.887039
C165	C	-0.401009	0.925547	-0.553705
C166	C	-1.123865	0.186047	-1.182070
C167	C	-0.790531	0.519380	-0.848737
C168	C	-0.457198	0.852713	-0.515404
C169	C	-1.128902	0.179533	-1.088643
C170	C	-0.795569	0.512866	-0.755310
C171	C	-0.462236	0.846199	-0.421977
C172	C	-1.021560	0.318674	-1.071828
C173	C	-0.688227	0.652008	-0.738495
C174	C	-0.354893	0.985341	-0.405162
C175	C	-1.016526	0.325193	-1.165255
C176	C	-0.683192	0.658526	-0.831921
C177	C	-0.349859	0.991859	-0.498588
C178	C	-1.108268	0.206316	-0.468333
C179	C	-0.774935	0.539649	-0.135000
C180	C	-0.441602	0.872983	0.198333
C181	C	-1.113796	0.199083	-0.368923
C182	C	-0.780463	0.532417	-0.035590
C183	C	-0.447129	0.865750	0.297744
H184	H	-0.794808	0.189304	-0.734130
H185	H	-0.461475	0.522637	-0.400796
H186	H	-0.128142	0.855970	-0.067463
H187	H	-0.397426	0.058067	-0.865876
H188	H	-0.064092	0.391401	-0.532542
H189	H	0.269241	0.724734	-0.199209
H190	H	-1.220780	0.672321	-0.593400
H191	H	-0.887446	1.005654	-0.260066
H192	H	-0.554113	1.338987	0.073267
H193	H	-0.979912	0.372673	-1.026942
H194	H	-0.646579	0.706006	-0.693609
H195	H	-0.313245	1.039339	-0.360275
H196	H	-0.970751	0.771980	-0.808140
H197	H	-0.637418	1.105313	-0.474807
H198	H	-0.304084	1.438647	-0.141473
H199	H	-1.220770	0.060434	-1.206003
H200	H	-0.887436	0.393767	-0.872670
H201	H	-0.554103	0.727101	-0.539336
H202	H	-0.745883	0.135381	-0.788227
H203	H	-0.412550	0.468715	-0.454894
H204	H	-0.079216	0.802048	-0.121560
F205	F	-0.387040	0.271597	-0.651637
F206	F	-0.053707	0.604930	-0.318304
F207	F	0.279626	0.938264	0.015029
F208	F	-0.681339	0.037014	-0.886961
F209	F	-0.348006	0.370347	-0.553628
F210	F	-0.014672	0.703681	-0.220295
H211	H	-0.547196	0.025409	-0.898627
H212	H	-0.213863	0.358743	-0.565293
H213	H	0.119471	0.692076	-0.231960
F214	F	-1.224483	0.853989	-0.590359
F215	F	-0.891150	1.187322	-0.257025
F216	F	-0.557817	1.520655	0.076308
H217	H	-0.979843	0.598482	-0.800208
H218	H	-0.646509	0.931815	-0.466874
H219	H	-0.313176	1.265149	-0.133541
H220	H	-1.211629	0.072252	-1.375487
H221	H	-0.878296	0.405586	-1.042154
H222	H	-0.544963	0.738919	-0.708820
F223	F	-0.425661	0.314144	-0.608935
F224	F	-0.092328	0.647478	-0.275602
F225	F	0.241005	0.980811	0.057732
F226	F	-0.510836	0.408016	-0.514736
F227	F	-0.177503	0.741350	-0.181402
F228	F	0.155830	1.074683	0.151931
F229	F	-1.002840	0.342902	-1.354576
F230	F	-0.669507	0.676236	-1.021242
F231	F	-0.336174	1.009569	-0.687909
F232	F	-0.634658	0.435487	-0.487139
F233	F	-0.301325	0.768821	-0.153806
F234	F	0.032008	1.102154	0.179527
H235	H	-0.794759	0.386970	-0.535802
H236	H	-0.461426	0.720303	-0.202469
H237	H	-0.128093	1.053636	0.130865
H238	H	-1.174622	0.543926	-0.632940
H239	H	-0.841289	0.877259	-0.299606
H240	H	-0.507956	1.210592	0.033727
F241	F	-1.188705	0.102020	-1.047882
F242	F	-0.855372	0.435353	-0.714548
F243	F	-0.522038	0.768686	-0.381215
F244	F	-1.002866	0.916091	-0.780680
F245	F	-0.669533	1.249425	-0.447347
F246	F	-0.336199	1.582758	-0.114013
F247	F	-0.956727	0.402702	-1.206028
F248	F	-0.623394	0.736035	-0.872694
F249	F	-0.290060	1.069369	-0.539361
