data_functionalizedCrystal
_audit_creation_method	'MofGen! by Chris Wilmer'
_symmetry_space_group_name_H-M	'P1'
_symmetry_Int_Tables_number	1
_symmetry_cell_setting	triclinic
loop_
_symmetry_equiv_pos_as_xyz
  x,y,z
_cell_length_a	12.827893
_cell_length_b	12.827892
_cell_length_c	19.076919
_cell_angle_alpha	92.275535
_cell_angle_beta	92.282940
_cell_angle_gamma	90.015553
loop_
_atom_site_label
_atom_site_type_symbol
_atom_site_fract_x
_atom_site_fract_y
_atom_site_fract_z
Zn1	Zn	1.573891	-0.439788	-0.397934
Zn2	Zn	2.073891	0.060212	0.102066
Zn3	Zn	1.580818	-0.607524	-0.280248
Zn4	Zn	2.080818	-0.107524	0.219752
Zn5	Zn	1.406164	-0.432799	-0.280257
Zn6	Zn	1.906164	0.067201	0.219743
Zn7	Zn	1.399119	-0.614487	-0.397907
Zn8	Zn	1.899119	-0.114487	0.102093
O9	O	1.489998	-0.523650	-0.339086
O10	O	1.989998	-0.023650	0.160914
O11	O	1.721045	-0.462050	-0.382330
O12	O	2.221045	0.037950	0.117670
O13	O	1.563496	-0.578507	-0.181759
O14	O	2.063496	-0.078507	0.318241
O15	O	1.428463	-0.287491	-0.295882
O16	O	1.928463	0.212509	0.204118
O17	O	1.726134	-0.585285	-0.295866
O18	O	2.226134	-0.085285	0.204134
O19	O	1.551691	-0.292626	-0.382339
O20	O	2.051691	0.207374	0.117661
O21	O	1.435179	-0.450137	-0.181766
O22	O	1.935179	0.049863	0.318234
O23	O	1.258994	-0.456889	-0.295856
O24	O	1.758994	0.043111	0.204144
O25	O	1.416456	-0.597152	-0.496400
O26	O	1.916456	-0.097152	0.003600
O27	O	1.253818	-0.590374	-0.382293
O28	O	1.753818	-0.090374	0.117707
O29	O	1.544860	-0.468802	-0.496420
O30	O	2.044860	0.031198	0.003580
O31	O	1.556665	-0.754683	-0.295841
O32	O	2.056665	-0.254683	0.204159
O33	O	1.423172	-0.759799	-0.382285
O34	O	1.923172	-0.259799	0.117715
C35	C	1.218489	-0.523630	-0.339073
C36	C	1.718489	-0.023630	0.160927
C37	C	1.102335	-0.523647	-0.339084
C38	C	1.602335	-0.023647	0.160916
C39	C	0.933027	-0.584543	-0.296255
C40	C	1.433027	-0.084543	0.203745
C41	C	1.053078	-0.584526	-0.296242
C42	C	1.553078	-0.084526	0.203758
C43	C	1.489933	-0.795159	-0.339074
C44	C	1.989933	-0.295159	0.160926
C45	C	1.490000	-0.911313	-0.339092
C46	C	1.990000	-0.411313	0.160908
C47	C	1.556129	-0.960534	-0.296364
C48	C	2.056129	-0.460534	0.203636
C49	C	1.556199	-1.080586	-0.296382
C50	C	2.056199	-0.580586	0.203618
C51	C	1.762567	-0.523670	-0.339100
C52	C	2.262567	-0.023670	0.160900
C53	C	1.878720	-0.523679	-0.339106
C54	C	2.378720	-0.023679	0.160894
C55	C	1.479100	-0.534533	-0.522661
C56	C	1.979100	-0.034533	-0.022661
C57	C	1.474455	-0.539172	-0.600890
C58	C	1.974455	-0.039172	-0.100890
C59	C	1.490090	-0.251081	-0.339114
C60	C	1.990090	0.248919	0.160886
C61	C	1.490130	-0.134929	-0.339126
C62	C	1.990130	0.365071	0.160874
C63	C	1.539123	-0.474528	-0.637654
C64	C	2.039123	0.025472	-0.137654
C65	C	1.534747	-0.478882	-0.711158
C66	C	2.034747	0.021118	-0.211158
C67	C	1.465707	-0.547886	-0.747897
C68	C	1.965707	-0.047886	-0.247897
C69	C	1.401032	-0.612531	-0.711129
C70	C	1.901032	-0.112531	-0.211129
C71	C	1.405404	-0.608171	-0.637626
C72	C	1.905404	-0.108171	-0.137626
C73	C	1.445458	-0.568086	-0.967726
C74	C	1.945458	-0.068086	-0.467726
C75	C	1.441093	-0.572443	-1.041234
C76	C	1.941093	-0.072443	-0.541234
C77	C	1.574807	-0.438792	-1.041258
C78	C	2.074807	0.061208	-0.541258
C79	C	1.579177	-0.434443	-0.967754
C80	C	2.079177	0.065557	-0.467754
C81	C	1.514498	-0.499085	-0.930992
C82	C	2.014498	0.000915	-0.430992
N83	N	1.461234	-0.552340	-0.823030
N84	N	1.961234	-0.052340	-0.323030
N85	N	1.518967	-0.494624	-0.855860
N86	N	2.018967	0.005376	-0.355860
C87	C	1.500914	-0.512733	-0.156226
C88	C	2.000914	-0.012733	0.343774
C89	C	1.505761	-0.507800	-0.077997
C90	C	2.005761	-0.007800	0.422003
H91	H	0.890644	-0.636658	-0.259574
H92	H	1.390644	-0.136658	0.240426
C93	C	1.334266	-0.679286	-0.597186
C94	C	1.834266	-0.179286	-0.097186
N95	N	1.280680	-0.732850	-0.566728
N96	N	1.780680	-0.232850	-0.066728
H97	H	1.099771	-0.636640	-0.259559
H98	H	1.599771	-0.136640	0.240441
H99	H	1.433441	-0.958050	-0.375689
H100	H	1.933441	-0.458050	0.124311
H101	H	1.612697	-0.913800	-0.259773
H102	H	2.112697	-0.413800	0.240227
H103	H	1.595346	-0.418342	-0.607746
H104	H	2.095346	0.081658	-0.107746
C105	C	1.632685	-1.137781	-0.246960
C106	C	2.132685	-0.637781	0.253040
N107	N	1.690297	-1.180863	-0.209733
N108	N	2.190297	-0.680863	0.290267
H109	H	1.587409	-0.426246	-0.741087
H110	H	2.087409	0.073754	-0.241087
H111	H	1.433507	-1.092597	-0.375706
H112	H	1.933507	-0.592597	0.124294
H113	H	1.635399	-0.378256	-0.937845
H114	H	2.135399	0.121744	-0.437845
C115	C	1.039265	-0.453241	-0.388647
C116	C	1.539265	0.046759	0.111353
N117	N	0.991753	-0.400208	-0.425976
N118	N	1.491753	0.099792	0.074024
H119	H	1.627463	-0.386163	-1.071198
H120	H	2.127463	0.113837	-0.571198
C121	C	1.374306	-0.639191	-0.927297
C122	C	1.874306	-0.139191	-0.427297
N123	N	1.320708	-0.692750	-0.896844
N124	N	1.820708	-0.192750	-0.396844
C125	C	1.365137	-0.648352	-1.081646
C126	C	1.865137	-0.148352	-0.581646
N127	N	1.307931	-0.705524	-1.112084
N128	N	1.807931	-0.205524	-0.612084
C129	C	1.325077	-0.688426	-0.751545
C130	C	1.825077	-0.188426	-0.251545
N131	N	1.267866	-0.745590	-0.781985
N132	N	1.767866	-0.245590	-0.281985
H133	H	0.921103	-0.471555	-0.375781
H134	H	1.421103	0.028445	0.124219
