data_functionalizedCrystal
_audit_creation_method	'MofGen! by Chris Wilmer'
_symmetry_space_group_name_H-M	'P1'
_symmetry_Int_Tables_number	1
_symmetry_cell_setting	triclinic
loop_
_symmetry_equiv_pos_as_xyz
  x,y,z
_cell_length_a	16.120484
_cell_length_b	12.759395
_cell_length_c	12.759395
_cell_angle_alpha	89.993112
_cell_angle_beta	87.115561
_cell_angle_gamma	87.073908
loop_
_atom_site_label
_atom_site_type_symbol
_atom_site_fract_x
_atom_site_fract_y
_atom_site_fract_z
Zn1	Zn	-0.332034	-1.584809	0.615228
Zn2	Zn	0.167966	-1.084809	1.115228
Zn3	Zn	-0.471420	-1.575805	0.448437
Zn4	Zn	0.028580	-1.075805	0.948437
Zn5	Zn	-0.332025	-1.409155	0.439559
Zn6	Zn	0.167975	-0.909155	0.939559
Zn7	Zn	-0.471412	-1.400158	0.624070
Zn8	Zn	0.028588	-0.900158	1.124070
O9	O	-0.401723	-1.492481	0.531824
O10	O	0.098277	-0.992481	1.031824
O11	O	-0.350532	-1.730635	0.593118
O12	O	0.149468	-1.230635	1.093118
O13	O	-0.452929	-1.553695	0.300239
O14	O	0.047071	-1.053695	0.800239
O15	O	-0.215358	-1.439989	0.455446
O16	O	0.284642	-0.939989	0.955446
O17	O	-0.452938	-1.724020	0.470578
O18	O	0.047062	-1.224020	0.970578
O19	O	-0.215365	-1.569041	0.584509
O20	O	0.284635	-1.069041	1.084509
O21	O	-0.350515	-1.431258	0.293716
O22	O	0.149485	-0.931258	0.793716
O23	O	-0.350507	-1.260941	0.464020
O24	O	0.149493	-0.760941	0.964020
O25	O	-0.452923	-1.424655	0.769918
O26	O	0.047077	-0.924655	1.269918
O27	O	-0.452914	-1.254331	0.599579
O28	O	0.047086	-0.754331	1.099579
O29	O	-0.350523	-1.560317	0.763422
O30	O	0.149477	-1.060317	1.263422
O31	O	-0.588087	-1.544971	0.479152
O32	O	-0.088087	-1.044971	0.979152
O33	O	-0.588080	-1.415925	0.608188
O34	O	-0.088080	-0.915925	1.108188
C35	C	-0.401709	-1.219515	0.531796
C36	C	0.098291	-0.719515	1.031796
C37	C	-0.401723	-1.102737	0.531811
C38	C	0.098277	-0.602737	1.031811
C39	C	-0.618334	-1.478523	0.545616
C40	C	-0.118334	-0.978523	1.045616
C41	C	-0.711001	-1.472648	0.551551
C42	C	-0.211001	-0.972648	1.051551
C43	C	-0.508532	-1.095882	0.672763
C44	C	-0.008532	-0.595882	1.172763
C45	C	-0.561942	-1.037593	0.743240
C46	C	-0.061942	-0.537593	1.243240
C47	C	-0.561951	-0.927871	0.743250
C48	C	-0.061951	-0.427871	1.243250
C49	C	-0.508542	-0.876436	0.672777
C50	C	-0.008542	-0.376436	1.172777
C51	C	-0.455131	-0.934724	0.602300
C52	C	0.044869	-0.434724	1.102300
C53	C	-0.455130	-1.044449	0.602295
C54	C	0.044870	-0.544449	1.102295
C55	C	-0.348320	-0.941580	0.461355
C56	C	0.151680	-0.441580	0.961355
C57	C	-0.348314	-1.051302	0.461338
C58	C	0.151686	-0.551302	0.961338
C59	C	-0.294911	-0.890144	0.390881
C60	C	0.205089	-0.390144	0.890881
C61	C	-0.241503	-0.948433	0.320397
C62	C	0.258497	-0.448433	0.820397
C63	C	-0.241498	-1.058162	0.320389
C64	C	0.258502	-0.558162	0.820389
C65	C	-0.294904	-1.109591	0.390860
C66	C	0.205096	-0.609591	0.890860
C67	C	-0.880666	-1.461927	0.562409
C68	C	-0.380666	-0.961927	1.062409
C69	C	-0.921939	-1.523224	0.501255
C70	C	-0.421939	-1.023224	1.001255
C71	C	-1.016346	-1.517259	0.507297
C72	C	-0.516346	-1.017259	1.007297
C73	C	-0.786250	-1.467891	0.556369
C74	C	-0.286250	-0.967891	1.056369
C75	C	-0.184265	-1.506523	0.518001
C76	C	0.315735	-1.006523	1.018001
C77	C	-0.091598	-1.512507	0.512110
C78	C	0.408402	-1.012507	1.012110
C79	C	-0.401723	-1.492487	0.805857
C80	C	0.098277	-0.992487	1.305857
C81	C	-0.401724	-1.492490	0.922634
C82	C	0.098276	-0.992490	1.422634
C83	C	-0.401734	-0.766514	0.531844
C84	C	0.098266	-0.266514	1.031844
C85	C	-0.401730	-0.883291	0.531832
C86	C	0.098270	-0.383291	1.031832
C87	C	-0.295101	-1.633763	0.915889
C88	C	0.204899	-1.133763	1.415889
C89	C	-0.241794	-1.704400	0.967378
C90	C	0.258206	-1.204400	1.467378
C91	C	-0.241797	-1.704396	1.077100
C92	C	0.258203	-1.204396	1.577100
C93	C	-0.295111	-1.633745	1.135336
C94	C	0.204889	-1.133745	1.635336
C95	C	-0.348418	-1.563109	1.083847
C96	C	0.151582	-1.063109	1.583847
C97	C	-0.348411	-1.563123	0.974122
C98	C	0.151589	-1.063123	1.474122
C99	C	-0.455034	-1.421832	1.090591
C100	C	0.044966	-0.921832	1.590591
C101	C	-0.455037	-1.421839	0.980870
C102	C	0.044963	-0.921839	1.480870
C103	C	-0.508348	-1.351182	1.148827
C104	C	-0.008348	-0.851182	1.648827
C105	C	-0.561660	-1.280549	1.097338
C106	C	-0.061660	-0.780549	1.597338
C107	C	-0.561656	-1.280556	0.987610
C108	C	-0.061656	-0.780556	1.487610
C109	C	-0.508344	-1.351203	0.929381
C110	C	-0.008344	-0.851203	1.429381
C111	C	-0.401737	-1.492468	1.258857
C112	C	0.098263	-0.992468	1.758857
C113	C	-0.401727	-1.492468	1.142080
C114	C	0.098273	-0.992468	1.642080
H115	H	-0.508536	-1.185223	0.672754
H116	H	-0.008536	-0.685223	1.172754
H117	H	-0.198386	-1.761920	0.919951
H118	H	0.301614	-1.261920	1.419951
Br119	Br	-0.294906	-1.258500	0.390848
Br120	Br	0.205094	-0.758500	0.890848
Br121	Br	-0.634427	-1.107401	0.838873
Br122	Br	-0.134427	-0.607401	1.338873
H123	H	-0.295101	-1.633740	1.224676
H124	H	0.204899	-1.133740	1.724676
Br125	Br	-0.634429	-0.848761	0.838907
Br126	Br	-0.134429	-0.348761	1.338907
Br127	Br	-0.508539	-0.727527	0.672810
Br128	Br	-0.008539	-0.227527	1.172810
H129	H	-0.886373	-1.580181	0.444361
H130	H	-0.386373	-1.080181	0.944361
Br131	Br	-0.294914	-0.741235	0.390902
Br132	Br	0.205086	-0.241235	0.890902
Br133	Br	-0.939942	-1.366998	0.657230
Br134	Br	-0.439942	-0.866998	1.157230
H135	H	-0.295102	-1.633783	0.826548
H136	H	0.204898	-1.133783	1.326548
Br137	Br	-0.508340	-1.351226	0.780471
Br138	Br	-0.008340	-0.851226	1.280471
Br139	Br	-0.169019	-0.878625	0.224776
Br140	Br	0.330981	-0.378625	0.724776
H141	H	-0.198385	-1.761908	1.119021
H142	H	0.301615	-1.261908	1.619021
Br143	Br	-0.169001	-1.137259	0.224743
Br144	Br	0.330999	-0.637259	0.724743
Br145	Br	-0.508351	-1.351172	1.297736
Br146	Br	-0.008351	-0.851172	1.797736
Br147	Br	-0.634000	-1.184668	1.176375
Br148	Br	-0.134000	-0.684668	1.676375
H149	H	-0.605056	-1.223025	0.945694
H150	H	-0.105056	-0.723025	1.445694
