data_functionalizedCrystal
_audit_creation_method	'MofGen! by Chris Wilmer'
_symmetry_space_group_name_H-M	'P1'
_symmetry_Int_Tables_number	1
_symmetry_cell_setting	triclinic
loop_
_symmetry_equiv_pos_as_xyz
  x,y,z
_cell_length_a	11.169416
_cell_length_b	16.120490
_cell_length_c	11.169409
_cell_angle_alpha	92.919204
_cell_angle_beta	90.030874
_cell_angle_gamma	87.103007
loop_
_atom_site_label
_atom_site_type_symbol
_atom_site_fract_x
_atom_site_fract_y
_atom_site_fract_z
Zn1	Zn	-0.570970	1.274675	0.771562
Zn2	Zn	-0.237637	1.608009	1.104895
Zn3	Zn	0.095696	1.941342	1.438228
Zn4	Zn	-0.771705	1.274598	0.570878
Zn5	Zn	-0.438372	1.607932	0.904211
Zn6	Zn	-0.105039	1.941265	1.237545
Zn7	Zn	-0.560839	1.135247	0.560723
Zn8	Zn	-0.227506	1.468580	0.894056
Zn9	Zn	0.105827	1.801914	1.227389
Zn10	Zn	-0.761409	1.135252	0.761355
Zn11	Zn	-0.428076	1.468586	1.094689
Zn12	Zn	-0.094743	1.801919	1.428022
O13	O	-0.666231	1.204943	0.666129
O14	O	-0.332898	1.538277	0.999463
O15	O	0.000435	1.871610	1.332796
O16	O	-0.606147	1.391333	0.753462
O17	O	-0.272814	1.724666	1.086795
O18	O	0.060520	2.058000	1.420128
O19	O	-0.743803	1.256079	0.401579
O20	O	-0.410469	1.589412	0.734912
O21	O	-0.077136	1.922745	1.068245
O22	O	-0.394236	1.153773	0.588712
O23	O	-0.060902	1.487106	0.922045
O24	O	0.272431	1.820439	1.255379
O25	O	-0.753626	1.391277	0.606020
O26	O	-0.420293	1.724610	0.939354
O27	O	-0.086960	2.057943	1.272687
O28	O	-0.401679	1.256210	0.743615
O29	O	-0.068346	1.589543	1.076948
O30	O	0.264988	1.922876	1.410281
O31	O	-0.588880	1.153698	0.394117
O32	O	-0.255547	1.487031	0.727451
O33	O	0.077786	1.820365	1.060784
O34	O	-0.578897	1.018580	0.578816
O35	O	-0.245563	1.351913	0.912149
O36	O	0.087770	1.685247	1.245482
O37	O	-0.736078	1.153781	0.930662
O38	O	-0.402745	1.487115	1.263995
O39	O	-0.069412	1.820448	1.597328
O40	O	-0.726255	1.018584	0.726220
O41	O	-0.392921	1.351917	1.059553
O42	O	-0.059588	1.685250	1.392886
O43	O	-0.596164	1.256215	0.938160
O44	O	-0.262830	1.589548	1.271493
O45	O	0.070503	1.922881	1.604827
O46	O	-0.938287	1.256084	0.596124
O47	O	-0.604954	1.589417	0.929457
O48	O	-0.271620	1.922750	1.262791
O49	O	-0.930723	1.153707	0.736067
O50	O	-0.597389	1.487040	1.069400
O51	O	-0.264056	1.820374	1.402734
C52	C	-0.978053	1.204910	0.666118
C53	C	-0.644720	1.538244	0.999451
C54	C	-0.311387	1.871577	1.332785
C55	C	-1.111458	1.204972	0.666159
C56	C	-0.778125	1.538306	0.999492
C57	C	-0.444791	1.871639	1.332825
C58	C	-0.650360	0.988331	0.650309
C59	C	-0.317027	1.321664	0.983642
C60	C	0.016307	1.654998	1.316976
C61	C	-0.643599	0.895663	0.643569
C62	C	-0.310266	1.228997	0.976903
C63	C	0.023068	1.562330	1.310236
C64	C	-0.701292	0.684734	0.701091
C65	C	-0.367958	1.018067	1.034424
C66	C	-0.034625	1.351400	1.367758
C67	C	-0.631266	0.726004	0.631263
C68	C	-0.297933	1.059337	0.964596
C69	C	0.035400	1.392671	1.297929
C70	C	-0.638130	0.820411	0.638112
C71	C	-0.304797	1.153745	0.971445
C72	C	0.028536	1.487078	1.304779
C73	C	-0.694429	0.590318	0.694243
C74	C	-0.361096	0.923651	1.027576
C75	C	-0.027763	1.256985	1.360910
C76	C	-0.353193	1.204999	0.666169
C77	C	-0.019860	1.538332	0.999502
C78	C	0.313474	1.871666	1.332836
C79	C	-0.219795	1.205023	0.666186
C80	C	0.113539	1.538356	0.999519
C81	C	0.446872	1.871690	1.332852
C82	C	-0.666103	1.205007	0.979177
C83	C	-0.332769	1.538341	1.312510
C84	C	0.000564	1.871674	1.645843
C85	C	-0.666048	1.205035	1.112579
C86	C	-0.332714	1.538368	1.445912
C87	C	0.000619	1.871701	1.779245
C88	C	-0.682165	1.422401	0.682012
C89	C	-0.348832	1.755735	1.015346
C90	C	-0.015499	2.089068	1.348679
C91	C	-0.688955	1.515069	0.688781
C92	C	-0.355622	1.848402	1.022114
C93	C	-0.022289	2.181736	1.355447
C94	C	-0.666276	1.204927	0.354303
C95	C	-0.332943	1.538261	0.687637
C96	C	0.000390	1.871594	1.020970
C97	C	-0.666005	1.205062	0.220914
C98	C	-0.332671	1.538395	0.554247
C99	C	0.000662	1.871728	0.887581
H100	H	-0.566161	0.690434	0.566337
H101	H	-0.232828	1.023768	0.899670
H102	H	0.100506	1.357101	1.233003
H103	H	-0.766393	0.720301	0.766011
H104	H	-0.433059	1.053635	1.099344
H105	H	-0.099726	1.386968	1.432677
