data_functionalizedCrystal
_audit_creation_method	'MofGen! by Chris Wilmer'
_symmetry_space_group_name_H-M	'P1'
_symmetry_Int_Tables_number	1
_symmetry_cell_setting	triclinic
loop_
_symmetry_equiv_pos_as_xyz
  x,y,z
_cell_length_a	10.540539
_cell_length_b	10.540539
_cell_length_c	13.596369
_cell_angle_alpha	89.996161
_cell_angle_beta	89.996748
_cell_angle_gamma	84.525492
loop_
_atom_site_label
_atom_site_type_symbol
_atom_site_fract_x
_atom_site_fract_y
_atom_site_fract_z
O1	O	1.685889	0.178903	-0.081740
O2	O	1.316476	0.195758	-0.081752
O3	O	1.509610	0.002624	-0.081744
O4	O	1.492754	0.372037	-0.081747
O5	O	1.509591	0.002614	0.081839
O6	O	1.316456	0.195748	0.081831
O7	O	1.685869	0.178892	0.081843
Zn8	Zn	1.501159	0.187318	0.107809
Zn9	Zn	1.501185	0.187332	-0.107718
O10	O	1.492735	0.372027	0.081836
C11	C	1.269163	0.194489	0.000038
C12	C	1.128215	0.190707	0.000034
C13	C	0.944788	0.045790	0.000417
C14	C	1.091406	0.049624	0.000038
C15	C	1.066553	0.258608	-0.093377
C16	C	0.920009	0.253793	-0.093445
C17	C	0.919498	0.256652	0.092579
C18	C	1.066480	0.257951	0.093804
C19	C	1.508336	-0.044684	0.000045
C20	C	1.504554	-0.185632	0.000040
C21	C	1.359637	-0.369059	-0.000332
C22	C	1.363471	-0.222441	0.000037
C23	C	1.572439	-0.247296	0.093456
C24	C	1.567624	-0.393840	0.093534
C25	C	1.570515	-0.394347	-0.092490
C26	C	1.571815	-0.247365	-0.093725
C27	C	1.733182	0.180161	0.000051
C28	C	1.874130	0.183943	0.000049
C29	C	1.494008	0.419335	0.000044
C30	C	1.497790	0.560283	0.000043
N31	N	1.501151	0.187308	0.254901
N32	N	1.501203	0.187332	-0.254810
C33	C	1.501183	0.187334	0.656192
C34	C	1.501171	0.187331	0.544541
C35	C	1.501168	0.187322	0.455550
C36	C	1.501154	0.187317	0.343892
H37	H	0.887943	0.210989	0.163384
H38	H	0.914589	-0.009706	-0.066199
F39	F	1.119883	0.193011	0.184129
F40	F	1.507401	-0.193360	-0.184066
F41	F	1.286798	-0.406432	-0.087894
H42	H	1.674676	-0.223143	-0.099362
F43	F	1.098136	0.392399	0.101174
F44	F	1.510783	-0.191625	0.184318
F45	F	1.703710	-0.456075	-0.093309
H46	H	1.669089	-0.441809	0.097776
F47	F	1.510835	-0.435569	-0.185036
F48	F	1.293138	-0.167862	0.087703
H49	H	1.517438	-0.422044	0.163362
H50	H	1.134012	-0.003803	0.066999
H51	H	0.916195	-0.009950	0.067407
F52	F	1.145951	-0.020405	-0.087773
H53	H	0.872271	0.358555	0.093209
F54	F	1.095799	0.394022	-0.097940
F55	F	1.293652	-0.166746	-0.087491
F56	F	1.707862	-0.218081	0.098004
H57	H	0.891807	0.203617	-0.163270
H58	H	0.872040	0.355259	-0.097686
H59	H	1.304125	-0.399271	0.066280
H60	H	1.109150	0.211449	-0.162895
