data_functionalizedCrystal
_audit_creation_method	'MofGen! by Chris Wilmer'
_symmetry_space_group_name_H-M	'P1'
_symmetry_Int_Tables_number	1
_symmetry_cell_setting	triclinic
loop_
_symmetry_equiv_pos_as_xyz
  x,y,z
_cell_length_a	8.559649
_cell_length_b	14.044220
_cell_length_c	7.088929
_cell_angle_alpha	83.206932
_cell_angle_beta	95.325015
_cell_angle_gamma	81.483771
loop_
_atom_site_label
_atom_site_type_symbol
_atom_site_fract_x
_atom_site_fract_y
_atom_site_fract_z
O1	O	2.100735	-0.021003	-0.158955
O2	O	1.642435	0.027448	-0.158968
O3	O	1.864708	-0.134262	-0.158943
O4	O	1.878463	0.140708	-0.158981
O5	O	1.894406	-0.155917	0.159035
O6	O	1.672134	0.005793	0.159010
O7	O	2.130433	-0.042657	0.159023
Cu8	Cu	1.903995	-0.020409	0.188051
Cu9	Cu	1.868874	0.005200	-0.187996
O10	O	1.908161	0.119053	0.158998
C11	C	1.598278	0.020292	0.000019
C12	C	1.422455	0.031222	0.000015
C13	C	1.873535	-0.179966	0.000047
C14	C	1.855571	-0.283884	0.000048
C15	C	1.822727	-0.474153	0.000020
C16	C	1.950133	-0.541060	0.000018
C17	C	1.931858	-0.646933	0.000002
C18	C	1.841000	-0.368270	0.000036
C19	C	2.174590	-0.035501	0.000031
C20	C	2.350412	-0.046430	0.000023
C21	C	1.899334	0.164757	0.000004
C22	C	1.917296	0.268676	-0.000011
N23	N	1.928709	-0.038422	0.452541
N24	N	1.844171	0.023205	-0.452487
H25	H	1.423242	-0.121272	0.000024
H26	H	1.349615	0.106070	-0.000005
C27	C	1.559414	-0.456376	-0.163438
C28	C	1.656960	-0.504161	0.000016
H29	H	1.457083	-0.474917	-0.163438
H30	H	1.550099	-0.388140	-0.163416
H31	H	1.604898	-0.473680	-0.274316
H32	H	1.611482	-0.486852	0.110895
H33	H	1.666270	-0.572412	0.000011
C34	C	1.769065	0.196560	0.485514
C35	C	1.725885	0.109421	0.437291
H36	H	1.696043	0.249786	0.417448
H37	H	1.767377	0.197787	0.618992
H38	H	1.873054	0.201210	0.452774
H39	H	1.621900	0.104767	0.470044
H40	H	1.727557	0.108193	0.303782
H41	H	2.072921	-0.518820	-0.000107
C42	C	2.003821	-0.211781	0.514539
C43	C	2.047002	-0.124643	0.562770
H44	H	2.076854	-0.265008	0.582583
H45	H	1.899850	-0.216436	0.547283
H46	H	2.005501	-0.213001	0.381040
H47	H	2.045310	-0.123421	0.696268
H48	H	2.151000	-0.119988	0.530038
