data_functionalizedCrystal
_audit_creation_method	'MofGen! by Chris Wilmer'
_symmetry_space_group_name_H-M	'P1'
_symmetry_Int_Tables_number	1
_symmetry_cell_setting	triclinic
loop_
_symmetry_equiv_pos_as_xyz
  x,y,z
_cell_length_a	16.625547
_cell_length_b	16.120256
_cell_length_c	16.625546
_cell_angle_alpha	92.872129
_cell_angle_beta	90.022405
_cell_angle_gamma	92.874068
loop_
_atom_site_label
_atom_site_type_symbol
_atom_site_fract_x
_atom_site_fract_y
_atom_site_fract_z
Zn1	Zn	1.209553	-0.471468	-0.344158
Zn2	Zn	1.542886	-0.138135	-0.010825
Zn3	Zn	1.876219	0.195198	0.322508
Zn4	Zn	1.216295	-0.332053	-0.472154
Zn5	Zn	1.549628	0.001280	-0.138821
Zn6	Zn	1.882961	0.334613	0.194513
Zn7	Zn	1.081553	-0.332062	-0.337339
Zn8	Zn	1.414886	0.001271	-0.004006
Zn9	Zn	1.748220	0.334605	0.329327
Zn10	Zn	1.074688	-0.471408	-0.478950
Zn11	Zn	1.408021	-0.138075	-0.145616
Zn12	Zn	1.741354	0.195258	0.187717
O13	O	1.145522	-0.401748	-0.408150
O14	O	1.478855	-0.068415	-0.074817
O15	O	1.812189	0.264919	0.258516
O16	O	1.323278	-0.452996	-0.361147
O17	O	1.656612	-0.119663	-0.027814
O18	O	1.989945	0.213671	0.305520
O19	O	1.204116	-0.215392	-0.448573
O20	O	1.537449	0.117942	-0.115239
O21	O	1.870782	0.451275	0.218094
O22	O	1.098584	-0.350583	-0.225413
O23	O	1.431917	-0.017250	0.107921
O24	O	1.765251	0.316084	0.441254
O25	O	1.328232	-0.350569	-0.455185
O26	O	1.661565	-0.017235	-0.121851
O27	O	1.994898	0.316098	0.211482
O28	O	1.192625	-0.453004	-0.230423
O29	O	1.525958	-0.119671	0.102911
O30	O	1.859291	0.213662	0.436244
O31	O	1.105122	-0.215398	-0.349525
O32	O	1.438455	0.117935	-0.016192
O33	O	1.771788	0.451269	0.317142
O34	O	0.967811	-0.350525	-0.356114
O35	O	1.301144	-0.017192	-0.022781
O36	O	1.634478	0.316142	0.310552
O37	O	1.086883	-0.588079	-0.466767
O38	O	1.420216	-0.254746	-0.133434
O39	O	1.753550	0.078588	0.199900
O40	O	0.962767	-0.452902	-0.460155
O41	O	1.296100	-0.119569	-0.126822
O42	O	1.629434	0.213764	0.206512
O43	O	1.185968	-0.588123	-0.367737
O44	O	1.519301	-0.254790	-0.034403
O45	O	1.852634	0.078544	0.298930
O46	O	1.197459	-0.350511	-0.585886
O47	O	1.530792	-0.017177	-0.252553
O48	O	1.864125	0.316156	0.080780
O49	O	1.093421	-0.452894	-0.590879
O50	O	1.426754	-0.119561	-0.257546
O51	O	1.760087	0.213773	0.075788
C52	C	0.936033	-0.401709	-0.408133
C53	C	1.269366	-0.068375	-0.074799
C54	C	1.602700	0.264958	0.258534
C55	C	0.846412	-0.401712	-0.408146
C56	C	1.179745	-0.068378	-0.074812
C57	C	1.513078	0.264955	0.258521
C58	C	0.773629	-0.401722	-0.408148
C59	C	1.106962	-0.068389	-0.074814
C60	C	1.440296	0.264945	0.258519
C61	C	0.682319	-0.401743	-0.408153
C62	C	1.015653	-0.068409	-0.074820
C63	C	1.348986	0.264924	0.258514
C64	C	0.609542	-0.401764	-0.408161
C65	C	0.942875	-0.068431	-0.074828
C66	C	1.276209	0.264903	0.258505
C67	C	0.518227	-0.401784	-0.408168
C68	C	0.851560	-0.068451	-0.074835
C69	C	1.184893	0.264883	0.258499
C70	C	1.134907	-0.619196	-0.418771
C71	C	1.468241	-0.285863	-0.085437
C72	C	1.801574	0.047470	0.247896
C73	C	1.130384	-0.711860	-0.423296
C74	C	1.463717	-0.378526	-0.089963
C75	C	1.797051	-0.045193	0.243370
C76	C	1.169109	-0.922826	-0.384529
C77	C	1.502442	-0.589492	-0.051195
C78	C	1.835776	-0.256159	0.282138
C79	C	1.122099	-0.881512	-0.431526
C80	C	1.455432	-0.548178	-0.098192
C81	C	1.788765	-0.214845	0.235141
C82	C	1.126710	-0.787109	-0.426945
C83	C	1.460043	-0.453775	-0.093612
C84	C	1.793377	-0.120442	0.239721
C85	C	1.164499	-1.017237	-0.389108
C86	C	1.497832	-0.683904	-0.055774
C87	C	1.831165	-0.350571	0.277559
C88	C	1.355829	-0.401788	-0.408169
C89	C	1.689162	-0.068455	-0.074835
C90	C	2.022496	0.264879	0.258498
C91	C	1.445449	-0.401805	-0.408176
C92	C	1.778782	-0.068472	-0.074843
C93	C	2.112116	0.264862	0.258490
C94	C	1.145447	-0.401713	-0.617639
C95	C	1.478781	-0.068380	-0.284306
C96	C	1.812114	0.264954	0.049027
C97	C	1.145488	-0.401726	-0.707261
C98	C	1.478821	-0.068393	-0.373928
C99	C	1.812155	0.264941	-0.040595
C100	C	1.156142	-0.185146	-0.397513
C101	C	1.489475	0.148188	-0.064180
C102	C	1.822808	0.481521	0.269153
C103	C	1.160821	-0.092483	-0.392760
C104	C	1.494154	0.240851	-0.059427
C105	C	1.827488	0.574184	0.273906
C106	C	1.145624	-0.401813	-1.035441
C107	C	1.478958	-0.068480	-0.702108
C108	C	1.812291	0.264854	-0.368774
C109	C	1.145584	-0.401791	-0.944131
C110	C	1.478917	-0.068458	-0.610798
C111	C	1.812250	0.264876	-0.277465
C112	C	1.145555	-0.401769	-0.871354
C113	C	1.478889	-0.068436	-0.538021
C114	C	1.812222	0.264898	-0.204687
C115	C	1.145516	-0.401748	-0.780039
C116	C	1.478849	-0.068415	-0.446705
C117	C	1.812183	0.264919	-0.113372
C118	C	1.145618	-0.401801	-0.197844
C119	C	1.478951	-0.068468	0.135489
C120	C	1.812285	0.264865	0.468823
C121	C	1.145659	-0.401824	-0.108224
C122	C	1.478992	-0.068491	0.225109
C123	C	1.812325	0.264843	0.558443
H124	H	1.078384	-0.917041	-0.475196
H125	H	1.411718	-0.583707	-0.141863
H126	H	1.745051	-0.250374	0.191470
C127	C	1.228159	-0.874829	-0.325533
C128	C	1.561493	-0.541496	0.007801
C129	C	1.894826	-0.208163	0.341134
N130	N	1.272638	-0.838669	-0.281100
N131	N	1.605971	-0.505336	0.052233
N132	N	1.939304	-0.172003	0.385566
