data_functionalizedCrystal
_audit_creation_method	'MofGen! by Chris Wilmer'
_symmetry_space_group_name_H-M	'P1'
_symmetry_Int_Tables_number	1
_symmetry_cell_setting	triclinic
loop_
_symmetry_equiv_pos_as_xyz
  x,y,z
_cell_length_a	14.044220
_cell_length_b	14.044220
_cell_length_c	8.140239
_cell_angle_alpha	89.995422
_cell_angle_beta	90.002157
_cell_angle_gamma	93.188878
loop_
_atom_site_label
_atom_site_type_symbol
_atom_site_fract_x
_atom_site_fract_y
_atom_site_fract_z
O1	O	1.277166	0.230166	-0.136445
O2	O	1.000494	0.221860	-0.136487
O3	O	1.134677	0.087677	-0.136450
O4	O	1.142983	0.364349	-0.136482
O5	O	1.134669	0.087675	0.136777
O6	O	1.000486	0.221858	0.136740
O7	O	1.277157	0.230164	0.136782
Zn8	Zn	1.138820	0.226010	0.180142
Zn9	Zn	1.138831	0.226013	-0.179847
O10	O	1.142974	0.364346	0.136746
C11	C	0.964868	0.218223	0.000122
C12	C	0.858725	0.207379	0.000106
C13	C	0.664388	0.187553	0.000141
C14	C	0.613258	0.264467	0.000140
C15	C	0.505122	0.253435	0.000159
C16	C	0.772534	0.198583	0.000122
C17	C	1.131037	0.052054	0.000163
C18	C	1.120193	-0.054088	0.000164
C19	C	1.100366	-0.248426	0.000137
C20	C	1.177281	-0.299556	0.000144
C21	C	1.166249	-0.407692	0.000129
C22	C	1.111397	-0.140280	0.000152
C23	C	1.312783	0.233800	0.000170
C24	C	1.418926	0.244645	0.000174
C25	C	1.146614	0.399969	0.000128
C26	C	1.157459	0.506112	0.000117
N27	N	1.138820	0.226008	0.425824
N28	N	1.138839	0.226009	-0.425529
H29	H	0.626951	0.113425	0.000159
O30	O	1.265654	-0.254748	0.000246
C31	C	1.257142	-0.155189	0.000217
H32	H	1.184577	-0.138228	0.051924
H33	H	1.264079	-0.127057	-0.130857
C34	C	1.425622	-0.128182	0.043893
C35	C	1.336499	-0.107350	0.107413
H36	H	1.474576	-0.098670	0.110010
H37	H	1.431359	-0.195256	0.043907
H38	H	1.431390	-0.104737	-0.065334
H39	H	1.330728	-0.130805	0.216630
H40	H	1.330764	-0.040278	0.107421
O41	O	1.011980	-0.293191	-0.000088
C42	C	1.001021	-0.350623	-0.141619
H43	H	1.074208	-0.368931	-0.188801
H44	H	0.962427	-0.310263	-0.240703
C45	C	0.852429	-0.420662	-0.040687
C46	C	0.942319	-0.443155	-0.098629
H47	H	0.816216	-0.477739	-0.014173
H48	H	0.859810	-0.381967	0.054662
H49	H	0.820281	-0.387027	-0.123267
H50	H	0.974471	-0.476779	-0.016043
H51	H	0.934942	-0.481859	-0.193964
O52	O	0.657800	0.352963	-0.000119
C53	C	0.631057	0.402817	-0.141662
H54	H	0.559745	0.371058	-0.188806
H55	H	0.687720	0.396535	-0.240763
C56	C	0.709220	0.547670	-0.040819
C57	C	0.621629	0.508668	-0.098714
H58	H	0.703408	0.612964	-0.014331
H59	H	0.727241	0.514082	0.054539
H60	H	0.756430	0.542425	-0.123413
H61	H	0.574424	0.513901	-0.016114
H62	H	0.603600	0.542259	-0.194057
