data_functionalizedCrystal
_audit_creation_method	'MofGen! by Chris Wilmer'
_symmetry_space_group_name_H-M	'P1'
_symmetry_Int_Tables_number	1
_symmetry_cell_setting	triclinic
loop_
_symmetry_equiv_pos_as_xyz
  x,y,z
_cell_length_a	10.654554
_cell_length_b	10.654551
_cell_length_c	9.730223
_cell_angle_alpha	90.001301
_cell_angle_beta	90.000454
_cell_angle_gamma	84.486053
loop_
_atom_site_label
_atom_site_type_symbol
_atom_site_fract_x
_atom_site_fract_y
_atom_site_fract_z
O1	O	1.667834	0.176425	0.114238
O2	O	1.302356	0.193225	0.114249
O3	O	1.493497	0.002086	0.114244
O4	O	1.476693	0.367564	0.114243
O5	O	1.493490	0.002081	-0.114336
O6	O	1.302349	0.193220	-0.114331
O7	O	1.667827	0.176420	-0.114342
Zn8	Zn	1.485087	0.184819	-0.150628
Zn9	Zn	1.485096	0.184826	0.150535
O10	O	1.476686	0.367559	-0.114337
C11	C	1.255555	0.191988	-0.000039
C12	C	1.116112	0.188294	-0.000035
C13	C	0.905604	0.297367	-0.000048
C14	C	1.036625	0.300839	-0.000037
C15	C	1.064571	0.072269	-0.000029
C16	C	0.933552	0.068799	-0.000030
C17	C	0.826123	0.409919	-0.000064
C18	C	0.877654	0.525944	-0.000066
C19	C	1.008676	0.529416	-0.000056
C20	C	1.088166	0.416863	-0.000042
C21	C	1.492260	-0.044714	-0.000043
C22	C	1.488567	-0.184158	-0.000034
C23	C	1.486839	-0.249667	0.124563
C24	C	1.483359	-0.380687	0.124557
C25	C	1.483340	-0.380678	-0.124654
C26	C	1.486812	-0.249659	-0.124646
C27	C	1.488594	-0.184166	0.249175
C28	C	1.486867	-0.249675	0.373782
C29	C	1.483387	-0.380696	0.373776
C30	C	1.481634	-0.446206	0.249163
C31	C	1.714628	0.177657	-0.000051
C32	C	1.854071	0.181351	-0.000046
C33	C	1.477923	0.414360	-0.000047
C34	C	1.481616	0.553803	-0.000047
N35	N	1.485090	0.184814	-0.356165
C36	C	1.408271	0.107930	-0.428110
C37	C	1.408274	0.107936	-0.571993
C38	C	1.561925	0.261714	-0.571973
C39	C	1.561915	0.261714	-0.428092
C40	C	1.331446	0.031030	-0.356183
C41	C	1.254622	-0.045862	-0.428128
C42	C	1.254625	-0.045856	-0.572011
C43	C	1.331452	0.031043	-0.643949
N44	N	1.485103	0.184821	0.356072
H45	H	1.194851	0.419699	-0.000005
H46	H	1.192064	-0.108461	-0.369548
H47	H	1.050629	0.623888	-0.000046
H48	H	1.192062	-0.108455	-0.630586
H49	H	1.488192	-0.196317	-0.226103
C50	C	1.331447	0.031048	-0.802225
N51	N	1.331447	0.031046	-0.921437
C52	C	1.646439	0.346286	-0.651109
N53	N	1.710101	0.409982	-0.710715
H54	H	0.812926	0.617580	-0.000067
H55	H	0.719437	0.407105	-0.000077
C56	C	1.152014	-0.051530	-0.000035
N57	N	1.217876	-0.144777	-0.000047
H58	H	0.891594	-0.025671	-0.000027
C59	C	1.492303	-0.040026	0.249194
N60	N	1.495054	0.068545	0.249206
C61	C	1.646423	0.346288	-0.348948
N62	N	1.710074	0.409993	-0.289336
H63	H	1.481968	-0.434029	0.475236
C64	C	1.488795	-0.177611	0.510848
N65	N	1.490250	-0.123334	0.614090
H66	H	1.481914	-0.434028	-0.226107
C67	C	1.477805	-0.590334	0.249164
N68	N	1.474930	-0.698890	0.249166
H69	H	1.331437	0.031014	-0.239026
