data_functionalizedCrystal
_audit_creation_method	'MofGen! by Chris Wilmer'
_symmetry_space_group_name_H-M	'P1'
_symmetry_Int_Tables_number	1
_symmetry_cell_setting	triclinic
loop_
_symmetry_equiv_pos_as_xyz
  x,y,z
_cell_length_a	10.654550
_cell_length_b	16.992695
_cell_length_c	9.730223
_cell_angle_alpha	89.998169
_cell_angle_beta	89.996251
_cell_angle_gamma	87.576563
loop_
_atom_site_label
_atom_site_type_symbol
_atom_site_fract_x
_atom_site_fract_y
_atom_site_fract_z
O1	O	1.677356	0.110186	-0.114405
O2	O	1.312785	0.120685	-0.114384
O3	O	1.493609	0.001285	-0.114383
O4	O	1.496532	0.229586	-0.114405
O5	O	1.493607	0.001288	0.114196
O6	O	1.312783	0.120688	0.114196
O7	O	1.677354	0.110189	0.114175
Zn8	Zn	1.495068	0.115439	0.150477
Zn9	Zn	1.495071	0.115435	-0.150686
O10	O	1.496530	0.229589	0.114174
C11	C	1.265919	0.119915	-0.000091
C12	C	1.126277	0.117609	-0.000082
C13	C	1.489848	-0.027947	-0.000093
C14	C	1.478628	-0.115052	-0.000093
C15	C	1.052866	0.187910	-0.000109
C16	C	0.921658	0.185738	-0.000132
C17	C	0.937282	0.042959	-0.000108
C18	C	1.068488	0.045131	-0.000075
C19	C	1.043844	0.270342	-0.000129
C20	C	0.912636	0.268171	-0.000152
C21	C	1.586879	-0.164704	-0.000098
C22	C	1.576330	-0.246548	-0.000111
C23	C	1.457529	-0.278738	-0.000108
C24	C	1.349270	-0.229080	-0.000107
C25	C	1.359820	-0.147237	-0.000105
C26	C	1.413802	-0.522574	-0.000124
C27	C	1.403260	-0.604422	-0.000123
C28	C	1.630321	-0.621884	-0.000129
C29	C	1.640861	-0.540040	-0.000118
C30	C	1.532602	-0.490389	-0.000124
N31	N	1.446743	-0.362396	-0.000116
N32	N	1.543389	-0.406733	-0.000126
C33	C	1.724220	0.110959	-0.000121
C34	C	1.863862	0.113265	-0.000139
C35	C	1.500291	0.258821	-0.000119
C36	C	1.511510	0.345926	-0.000128
N37	N	1.495075	0.115441	0.356014
N38	N	1.495073	0.115427	-0.356223
C39	C	1.575168	0.062589	0.427940
C40	C	1.575164	0.062580	0.571823
C41	C	1.414971	0.168281	0.571841
C42	C	1.414970	0.168286	0.427961
C43	C	1.667658	0.001565	0.427931
C44	C	1.667654	0.001556	0.571814
H45	H	1.128255	-0.012114	-0.000033
O46	O	0.881203	-0.027462	0.000132
C47	C	0.918014	-0.070367	0.118510
H48	H	0.949490	-0.027998	0.201257
H49	H	0.835262	-0.104177	0.158232
H50	H	0.999051	-0.113618	0.091766
O51	O	1.254793	-0.098891	-0.000156
C52	C	1.289578	-0.019752	-0.000123
H53	H	1.388589	-0.016080	-0.043401
H54	H	1.221086	0.016931	-0.066485
H55	H	1.287187	0.003885	0.109538
O56	O	1.308516	-0.474462	-0.000051
C57	C	1.201402	-0.520428	-0.000073
H58	H	1.227173	-0.581329	0.043194
H59	H	1.125050	-0.490680	0.066302
H60	H	1.165367	-0.526444	-0.109730
H61	H	1.075960	0.302583	0.095534
H62	H	1.718459	-0.662319	-0.000126
H63	H	1.632216	-0.055428	0.616437
H64	H	1.641004	-0.058735	0.388884
H65	H	1.081769	0.296589	-0.098819
O66	O	0.860872	0.297812	0.117710
C67	C	0.906696	0.253328	0.230730
H68	H	1.000370	0.222660	0.202421
H69	H	0.920461	0.294057	0.322103
H70	H	0.836312	0.207298	0.259056
O71	O	0.866174	0.305329	-0.114239
C72	C	0.901737	0.384312	-0.114006
H73	H	0.989036	0.389900	-0.047572
H74	H	0.923114	0.403338	-0.223595
H75	H	0.821822	0.423566	-0.070666
H76	H	1.683620	-0.138501	-0.000092
H77	H	1.349741	0.211316	0.369400
O78	O	1.784204	0.017452	0.618477
C79	C	1.831545	-0.046104	0.698955
H80	H	1.782249	-0.101868	0.669228
H81	H	1.936822	-0.055131	0.680429
H82	H	1.813846	-0.032706	0.812283
H83	H	1.349751	0.211306	0.630436
O84	O	1.681579	-0.294696	-0.000292
C85	C	1.753216	-0.280014	-0.118688
H86	H	1.728589	-0.218107	-0.158152
H87	H	1.857433	-0.285198	-0.092058
H88	H	1.731555	-0.324863	-0.201589
O89	O	1.233962	-0.260477	-0.000044
C90	C	1.247859	-0.343361	-0.000077
H91	H	1.343985	-0.362045	0.043193
H92	H	1.171344	-0.368888	0.066290
H93	H	1.239485	-0.366171	-0.109738
O94	O	1.756199	-0.508684	-0.000313
C95	C	1.769113	-0.461879	-0.118713
H96	H	1.672126	-0.442030	-0.158174
H97	H	1.824585	-0.408026	-0.092089
H98	H	1.821069	-0.497729	-0.201614
H99	H	1.306513	-0.630628	-0.000099
H100	H	1.760493	0.020673	0.383297
