data_functionalizedCrystal
_audit_creation_method	'MofGen! by Chris Wilmer'
_symmetry_space_group_name_H-M	'P1'
_symmetry_Int_Tables_number	1
_symmetry_cell_setting	triclinic
loop_
_symmetry_equiv_pos_as_xyz
  x,y,z
_cell_length_a	17.019372
_cell_length_b	12.837942
_cell_length_c	15.500235
_cell_angle_alpha	86.858894
_cell_angle_beta	91.043238
_cell_angle_gamma	90.902748
loop_
_atom_site_label
_atom_site_type_symbol
_atom_site_fract_x
_atom_site_fract_y
_atom_site_fract_z
O1	O	1.056284	-0.132463	0.006682
O2	O	1.556284	0.367537	0.506682
O3	O	0.828663	-0.148172	-0.010263
O4	O	1.328663	0.351828	0.489737
O5	O	0.937426	0.010602	-0.002161
O6	O	1.437426	0.510602	0.497839
O7	O	0.947521	-0.291238	-0.001420
O8	O	1.447521	0.208762	0.498580
O9	O	0.930854	0.000971	0.141238
O10	O	1.430854	0.500971	0.641238
O11	O	0.822091	-0.157803	0.133136
O12	O	1.322091	0.342197	0.633136
O13	O	1.049712	-0.142095	0.150081
O14	O	1.549712	0.357905	0.650081
Cu15	Cu	0.935301	-0.150829	0.154702
Cu16	Cu	1.435301	0.349171	0.654702
Cu17	Cu	0.943073	-0.139438	-0.014884
Cu18	Cu	1.443073	0.360562	0.485116
O19	O	0.940949	-0.300869	0.141979
O20	O	1.440949	0.199131	0.641979
C21	C	0.796040	-0.152203	0.059253
C22	C	1.296040	0.347797	0.559253
C23	C	0.708625	-0.149854	0.052746
C24	C	1.208625	0.350146	0.552746
C25	C	0.930730	0.044419	0.069285
C26	C	1.430730	0.544419	0.569285
C27	C	0.920559	0.159532	0.068526
C28	C	1.420559	0.659532	0.568526
C29	C	0.214406	-0.136266	0.011962
C30	C	0.714406	0.363734	0.511962
C31	C	0.296542	-0.138474	0.018088
C32	C	0.796542	0.361526	0.518088
C33	C	0.334019	-0.144836	0.099318
C34	C	0.834019	0.355164	0.599318
C35	C	0.289356	-0.148980	0.174428
C36	C	0.789356	0.351020	0.674428
C37	C	0.207223	-0.146764	0.168301
C38	C	0.707223	0.353236	0.668301
C39	C	0.581829	-0.151782	0.121728
C40	C	1.081829	0.348218	0.621728
C41	C	0.663969	-0.154000	0.127849
C42	C	1.163969	0.346000	0.627849
C43	C	0.671149	-0.143493	-0.028491
C44	C	1.171149	0.356507	0.471509
C45	C	0.589013	-0.141284	-0.034611
C46	C	1.089013	0.358716	0.465389
C47	C	0.544358	-0.145422	0.040498
C48	C	1.044358	0.354578	0.540498
C49	C	0.417974	-0.147097	0.105582
C50	C	0.917974	0.352903	0.605582
C51	C	0.460404	-0.143154	0.034234
C52	C	0.960404	0.356846	0.534234
C53	C	1.082334	-0.138063	0.080564
C54	C	1.582334	0.361937	0.580564
C55	C	1.169750	-0.140412	0.087066
C56	C	1.669750	0.359588	0.587066
N57	N	0.929840	-0.158840	0.273980
N58	N	1.429840	0.341160	0.773980
C59	C	0.947645	-0.334686	0.070532
C60	C	1.447645	0.165314	0.570532
C61	C	0.957816	-0.449798	0.071285
C62	C	1.457816	0.050202	0.571285
C63	C	1.042828	0.400066	0.077610
C64	C	1.542828	0.900066	0.577610
C65	C	1.033275	0.508225	0.076898
C66	C	1.533275	1.008225	0.576898
C67	C	0.891904	0.484012	0.066382
C68	C	1.391904	0.984012	0.566382
C69	C	0.901456	0.375853	0.067095
C70	C	1.401456	0.875853	0.567095
C71	C	0.976920	0.333884	0.072710
C72	C	1.476920	0.833884	0.572710
C73	C	0.986472	0.225722	0.073429
C74	C	1.486472	0.725722	0.573429
C75	C	0.845101	0.201511	0.062908
C76	C	1.345101	0.701511	0.562908
C77	C	0.835548	0.309671	0.062195
C78	C	1.335548	0.809671	0.562195
N79	N	0.948540	-0.131419	-0.134161
N80	N	1.448540	0.368581	0.365839
C81	C	0.902440	-0.198680	0.817127
C82	C	1.402440	0.301320	1.317127
C83	C	0.906589	-0.192641	0.726863
C84	C	1.406589	0.307359	1.226863
C85	C	0.956842	-0.119346	0.685314
C86	C	1.456842	0.380654	1.185314
C87	C	1.002943	-0.052079	0.734032
C88	C	1.502943	0.447921	1.234032
C89	C	0.998790	-0.058113	0.824294
C90	C	1.498790	0.441887	1.324294
C91	C	0.971788	-0.097606	0.412960
C92	C	1.471788	0.402394	0.912960
C93	C	0.975940	-0.091579	0.322692
C94	C	1.475940	0.408421	0.822692
C95	C	0.879584	-0.232141	0.315530
C96	C	1.379584	0.267859	0.815530
C97	C	0.875439	-0.238173	0.405794
C98	C	1.375439	0.261827	0.905794
C99	C	0.921537	-0.170902	0.454504
C100	C	1.421537	0.329098	0.954504
C101	C	0.961085	-0.113174	0.593050
C102	C	1.461085	0.386826	1.093050
C103	C	0.917289	-0.177069	0.546766
C104	C	1.417289	0.322931	1.046766
H105	H	0.183899	-0.131093	-0.054185
H106	H	0.683899	0.368907	0.445815
H107	H	0.332898	-0.135091	-0.043070
H108	H	0.832898	0.364909	0.456930
H109	H	1.104273	0.365894	0.082191
H110	H	1.604273	0.865894	0.582191
H111	H	0.876370	-0.236742	0.580598
H112	H	1.376370	0.263258	1.080598
H113	H	1.047918	0.191553	0.078004
H114	H	1.547918	0.691553	0.578004
H115	H	0.842052	-0.286909	0.275862
H116	H	1.342052	0.213091	0.775862
H117	H	1.086944	0.562108	0.080885
H118	H	1.586944	1.062108	0.580885
H119	H	0.774107	0.343857	0.057620
H120	H	1.274107	0.843857	0.557620
H121	H	0.830464	0.518203	0.061801
H122	H	1.330464	1.018203	0.561801
H123	H	0.791434	0.147613	0.058925
H124	H	1.291434	0.647613	0.558925
H125	H	0.448497	-0.152278	0.171720
H126	H	0.948497	0.347722	0.671720
H127	H	1.016865	-0.031890	0.288867
H128	H	1.516865	0.468110	0.788867
H129	H	0.861523	-0.258368	0.850951
H130	H	1.361523	0.241632	1.350951
H131	H	0.869050	-0.247409	0.687202
H132	H	1.369050	0.252591	1.187202
H133	H	0.834519	-0.297855	0.439621
H134	H	1.334519	0.202145	0.939621
H135	H	1.009325	-0.042833	0.452614
H136	H	1.509325	0.457167	0.952614
H137	H	0.707515	-0.140122	-0.089641
H138	H	1.207515	0.359878	0.410359
H139	H	1.002004	-0.053498	0.559213
H140	H	1.502004	0.446502	1.059213
H141	H	1.043857	0.007605	0.700197
H142	H	1.543857	0.507605	1.200197
H143	H	1.036328	-0.003341	0.863954
H144	H	1.536328	0.496659	1.363954
H145	H	0.558505	-0.136102	-0.100758
H146	H	1.058505	0.363898	0.399242
H147	H	0.545481	-0.155136	0.182888
H148	H	1.045481	0.344864	0.682888
H149	H	0.694480	-0.159188	0.194000
H150	H	1.194480	0.340812	0.694000
H151	H	0.170864	-0.150151	0.229459
H152	H	0.670864	0.349849	0.729459
H153	H	0.319877	-0.154153	0.240568
H154	H	0.819877	0.345847	0.740568
H155	H	0.429887	-0.137970	-0.031904
H156	H	0.929887	0.362030	0.468096
