data_functionalizedCrystal
_audit_creation_method	'MofGen! by Chris Wilmer'
_symmetry_space_group_name_H-M	'P1'
_symmetry_Int_Tables_number	1
_symmetry_cell_setting	triclinic
loop_
_symmetry_equiv_pos_as_xyz
  x,y,z
_cell_length_a	21.295419
_cell_length_b	25.639234
_cell_length_c	21.295417
_cell_angle_alpha	90.027023
_cell_angle_beta	89.954692
_cell_angle_gamma	89.979419
loop_
_atom_site_label
_atom_site_type_symbol
_atom_site_fract_x
_atom_site_fract_y
_atom_site_fract_z
Zn1	Zn	0.962331	-0.295612	0.250399
Zn2	Zn	0.962241	-0.208173	0.355661
Zn3	Zn	0.857061	-0.208190	0.250436
Zn4	Zn	0.857024	-0.295577	0.355661
O5	O	0.909664	-0.251888	0.303039
O6	O	1.050408	-0.284021	0.264346
O7	O	0.948266	-0.135010	0.341718
O8	O	0.871079	-0.219808	0.162342
O9	O	1.050342	-0.219780	0.341681
O10	O	0.948420	-0.284037	0.162314
O11	O	0.870992	-0.135022	0.264410
O12	O	0.768967	-0.219774	0.264411
O13	O	0.871015	-0.368747	0.341683
O14	O	0.768939	-0.283977	0.341719
O15	O	0.948384	-0.368773	0.264347
O16	O	0.948230	-0.219746	0.443750
O17	O	0.870927	-0.283961	0.443751
C18	C	0.746113	-0.251873	0.303070
C19	C	0.676144	-0.251880	0.303098
C20	C	0.643335	-0.285382	0.262895
C21	C	0.577592	-0.285384	0.262878
C22	C	0.544662	-0.251889	0.303075
C23	C	0.577479	-0.218381	0.343281
C24	C	0.643221	-0.218376	0.343292
N25	N	0.441387	-0.247803	0.358153
N26	N	0.378935	-0.247810	0.358140
C27	C	0.346587	-0.251901	0.303043
N28	N	0.379050	-0.255993	0.247956
N29	N	0.441507	-0.255988	0.247970
C30	C	0.473377	-0.251890	0.303067
C31	C	0.242492	-0.285407	0.262818
C32	C	0.176748	-0.285405	0.262800
C33	C	0.176637	-0.218405	0.343208
C34	C	0.242379	-0.218404	0.343221
C35	C	0.275303	-0.251907	0.303026
C36	C	0.909705	-0.388261	0.303011
C37	C	0.909722	-0.446375	0.302998
C38	C	0.869503	-0.806750	0.262669
C39	C	0.869507	-0.861354	0.262658
O40	O	0.835279	-0.889601	0.228438
N41	N	0.909743	-0.888658	0.302900
C42	C	0.949975	-0.861354	0.343160
O43	O	0.984199	-0.889592	0.377388
C44	C	0.949968	-0.806751	0.343174
C45	C	0.909733	-0.779450	0.302925
C46	C	0.829271	-0.779450	0.222424
C47	C	0.829269	-0.724849	0.222435
C48	C	0.869498	-0.697549	0.262691
C49	C	0.909731	-0.724850	0.302936
C50	C	0.990196	-0.779448	0.383437
C51	C	0.990185	-0.724841	0.383448
C52	C	0.949950	-0.697540	0.343199
C53	C	0.949958	-0.642949	0.343203
N54	N	0.909721	-0.615646	0.302961
C55	C	0.869491	-0.642946	0.262705
C56	C	0.949986	-0.976025	0.343128
C57	C	0.949997	-1.030627	0.343111
C58	C	0.869527	-1.030624	0.262610
C59	C	0.869520	-0.976020	0.262624
C60	C	0.909749	-0.948721	0.302886
C61	C	0.869490	-0.528281	0.262730
C62	C	0.869493	-0.473675	0.262743
C63	C	0.949959	-0.473683	0.343246
C64	C	0.949959	-0.528284	0.343232
C65	C	0.909719	-0.555581	0.302971
O66	O	0.984166	-0.614668	0.377407
O67	O	0.835267	-0.614701	0.228488
C68	C	1.073854	-0.251903	0.303010
C69	C	1.143823	-0.251910	0.302997
C70	C	0.909582	-0.251859	0.466591
C71	C	0.909604	-0.251864	0.536559
C72	C	0.909660	-0.116046	0.303023
C73	C	0.909764	-0.057932	0.302857
C74	C	0.909764	-0.251929	0.138849
C75	C	0.909807	-0.251946	0.068881
C76	C	0.949891	-0.218462	0.569405
C77	C	0.949921	-0.218474	0.635147
C78	C	0.909652	-0.251882	0.668042
C79	C	0.869362	-0.285291	0.635188
C80	C	0.869338	-0.285282	0.569447
N81	N	0.854584	-0.255863	0.771322
N82	N	0.854609	-0.255869	0.833773
C83	C	0.909722	-0.251912	0.866116
N84	N	0.964811	-0.247940	0.833648
N85	N	0.964786	-0.247932	0.771191
C86	C	0.909673	-0.251896	0.739327
C87	C	0.950045	-0.218521	0.970247
C88	C	0.950075	-0.218536	1.035991
C89	C	0.869511	-0.285351	1.036031
C90	C	0.869486	-0.285338	0.970288
C91	C	0.909752	-0.251920	0.937401
H92	H	0.836729	-0.451449	0.229964
O93	O	0.830316	-0.554734	0.223651
C94	C	0.767567	-0.541377	0.237430
H95	H	0.766249	-0.501728	0.261644
H96	H	0.739372	-0.539505	0.192003
H97	H	0.746340	-0.572097	0.269784
H98	H	0.982730	-0.191273	0.661895
O99	O	0.274352	-0.185882	0.382222
C100	C	0.339437	-0.193070	0.373625
H101	H	0.348472	-0.210266	0.325074
H102	H	0.364399	-0.153900	0.377838
H103	H	0.358070	-0.220857	0.411012
H104	H	0.269300	-0.312684	0.230086
H105	H	0.669934	-0.191094	0.376031
O106	O	0.790121	-0.698414	0.183320
C107	C	0.754629	-0.734228	0.147782
H108	H	0.752446	-0.773142	0.173562
H109	H	0.705032	-0.718448	0.141080
H110	H	0.777709	-0.740053	0.099967
H111	H	0.836726	-0.312555	1.062813
O112	O	0.830331	-0.317769	0.667208
C113	C	0.866162	-0.351578	0.705158
H114	H	0.913883	-0.333175	0.714966
H115	H	0.840533	-0.358571	0.751412
H116	H	0.873045	-0.390327	0.679786
O117	O	0.790275	-0.806023	0.183288
C118	C	0.826140	-0.837614	0.142601
H119	H	0.873831	-0.845806	0.164790
H120	H	0.800504	-0.876004	0.134154
H121	H	0.833085	-0.816578	0.095958
O122	O	0.545642	-0.317956	0.223914
C123	C	0.507612	-0.351677	0.259813
H124	H	0.497713	-0.333158	0.307484
H125	H	0.461408	-0.358728	0.234182
H126	H	0.532961	-0.390410	0.266802
O127	O	0.989154	-0.186105	1.067997
C128	C	0.953395	-0.152306	1.106123
H129	H	0.905656	-0.170676	1.115987
H130	H	0.979065	-0.145392	1.152338
H131	H	0.946549	-0.113522	1.080876
H132	H	0.836531	-0.312483	0.542704
H133	H	0.982834	-0.191311	0.943469
H134	H	0.982767	-1.052851	0.375879
O135	O	0.675386	-0.317849	0.223817
C136	C	0.713424	-0.288141	0.183105
H137	H	0.723229	-0.248483	0.205241
H138	H	0.759673	-0.309446	0.174712
H139	H	0.688128	-0.282471	0.136442
O140	O	0.830342	-0.949526	0.223598
C141	C	0.767599	-0.962868	0.237355
H142	H	0.764395	-0.977866	0.287641
H143	H	0.736493	-0.926956	0.231947
H144	H	0.751173	-0.994569	0.203602
H145	H	0.982715	-0.451446	0.376020
H146	H	0.836678	-0.312536	0.943544
H147	H	0.982680	-0.191252	0.542629
H148	H	0.836770	-1.052861	0.229831
H149	H	0.550663	-0.191109	0.376009
O150	O	0.144972	-0.317999	0.223724
C151	C	0.188132	-0.347558	0.188242
H152	H	0.234970	-0.349325	0.214039
H153	H	0.169164	-0.388763	0.181595
H154	H	0.195163	-0.328488	0.140401
O155	O	0.144629	-0.185943	0.382325
C156	C	0.106566	-0.215649	0.423014
H157	H	0.126394	-0.256821	0.426973
H158	H	0.105765	-0.196665	0.471428
H159	H	0.056761	-0.217481	0.403546
H160	H	0.982729	-0.550513	0.375999
O161	O	0.989132	-0.949589	0.382256
C162	C	1.024632	-0.985402	0.417778
H163	H	1.026826	-1.024329	0.391980
H164	H	1.074226	-0.969640	0.424488
H165	H	1.001553	-0.991195	0.465590
O166	O	1.029369	-0.805897	0.422508
C167	C	1.092114	-0.792573	0.408734
H168	H	1.093421	-0.752939	0.384532
H169	H	1.120307	-0.790685	0.454163
H170	H	1.113350	-0.823320	0.376372
O171	O	1.029233	-0.698380	0.422648
C172	C	1.015422	-0.711696	0.485386
H173	H	0.991224	-0.751335	0.486682
H174	H	1.060833	-0.713570	0.513607
H175	H	0.983042	-0.680951	0.506599
