data_functionalizedCrystal
_audit_creation_method	'MofGen! by Chris Wilmer'
_symmetry_space_group_name_H-M	'P1'
_symmetry_Int_Tables_number	1
_symmetry_cell_setting	triclinic
loop_
_symmetry_equiv_pos_as_xyz
  x,y,z
_cell_length_a	11.026660
_cell_length_b	10.967829
_cell_length_c	15.186229
_cell_angle_alpha	77.868373
_cell_angle_beta	89.997038
_cell_angle_gamma	96.379957
loop_
_atom_site_label
_atom_site_type_symbol
_atom_site_fract_x
_atom_site_fract_y
_atom_site_fract_z
O1	O	1.614515	0.523494	-0.152669
O2	O	2.114515	1.023494	0.347331
O3	O	1.260714	0.463885	-0.143625
O4	O	1.760714	0.963885	0.356375
O5	O	1.445774	0.313872	-0.120857
O6	O	1.945774	0.813872	0.379143
O7	O	1.429456	0.673507	-0.175437
O8	O	1.929456	1.173507	0.324563
O9	O	1.445761	0.313867	0.025601
O10	O	1.945761	0.813867	0.525601
O11	O	1.260702	0.463880	0.002833
O12	O	1.760702	0.963880	0.502833
O13	O	1.614503	0.523488	-0.006211
O14	O	2.114503	1.023488	0.493789
Zn15	Zn	1.437600	0.493683	0.021564
Zn16	Zn	1.937600	0.993683	0.521564
Zn17	Zn	1.437617	0.493690	-0.171400
Zn18	Zn	1.937617	0.993690	0.328600
O19	O	1.429443	0.673501	-0.028979
O20	O	1.929443	1.173501	0.471021
C21	C	1.215406	0.452886	-0.068727
C22	C	1.715406	0.952886	0.431273
C23	C	1.080419	0.420103	-0.063753
C24	C	1.580419	0.920103	0.436247
C25	C	0.867852	0.476751	-0.072352
C26	C	1.367852	0.976751	0.427648
C27	C	1.007367	0.510636	-0.077493
C28	C	1.507367	1.010636	0.422507
C29	C	1.444579	0.267113	-0.040533
C30	C	1.944579	0.767113	0.459467
C31	C	1.441024	0.127790	-0.019394
C32	C	1.941024	0.627790	0.480606
C33	C	1.439446	0.065684	-0.085840
C34	C	1.939446	0.565684	0.414160
C35	C	1.435771	-0.078314	-0.063994
C36	C	1.935771	0.421686	0.436006
C37	C	1.659811	0.534488	-0.081111
C38	C	2.159811	1.034488	0.418889
C39	C	1.794798	0.567270	-0.086091
C40	C	2.294798	1.067270	0.413909
C41	C	1.430638	0.720261	-0.109305
C42	C	1.930638	1.220261	0.390695
C43	C	1.434193	0.859584	-0.130449
C44	C	1.934193	1.359584	0.369551
N45	N	1.437598	0.493679	0.153258
N46	N	1.937598	0.993679	0.653258
N47	N	1.437629	0.493686	-0.303092
N48	N	1.937629	0.993686	0.196908
C49	C	1.519571	0.427289	0.389057
C50	C	2.019571	0.927289	0.889057
C51	C	1.519574	0.427287	0.481247
C52	C	2.019574	0.927287	0.981247
C53	C	1.355647	0.560079	0.461102
C54	C	1.855647	1.060079	0.961102
C55	C	1.355638	0.560073	0.368914
C56	C	1.855638	1.060073	0.868914
C57	C	1.437607	0.493681	0.332894
C58	C	1.937607	0.993681	0.832894
C59	C	1.437620	0.493685	0.517271
C60	C	1.937620	0.993685	1.017271
C61	C	1.437623	0.493683	0.617227
C62	C	1.937623	0.993683	1.117227
C63	C	1.437602	0.493681	0.232932
C64	C	1.937602	0.993681	0.732932
H65	H	0.835541	0.669853	-0.101654
H66	H	1.335541	1.169853	0.398346
H67	H	0.827109	0.374169	-0.056771
H68	H	1.327109	0.874169	0.443229
C69	C	1.062389	0.649224	-0.098529
C70	C	1.562389	1.149224	0.401471
H71	H	1.148941	0.653818	-0.099232
H72	H	1.648941	1.153818	0.400768
H73	H	1.036088	0.689679	-0.053599
H74	H	1.536088	1.189679	0.446401
H75	H	1.036098	0.689670	-0.155750
H76	H	1.536098	1.189670	0.344250
C77	C	1.025400	0.281514	-0.042727
C78	C	1.525400	0.781514	0.457273
H79	H	0.938848	0.276917	-0.042039
H80	H	1.438848	0.776917	0.457961
H81	H	1.051691	0.241052	0.014483
H82	H	1.551691	0.741052	0.514483
H83	H	1.051704	0.241078	-0.087673
H84	H	1.551704	0.741078	0.412327
C85	C	1.441296	0.137852	-0.184542
C86	C	1.941296	0.637852	0.315458
H87	H	1.439822	0.080214	-0.223397
H88	H	1.939822	0.580214	0.276603
H89	H	1.513372	0.195309	-0.196532
H90	H	2.013372	0.695309	0.303468
H91	H	1.371816	0.182539	-0.194595
H92	H	1.871816	0.682539	0.305405
C93	C	1.433921	-0.150483	0.034711
C94	C	1.933921	0.349517	0.534711
H95	H	1.431701	-0.237797	0.036446
H96	H	1.931701	0.262203	0.536446
H97	H	1.363691	-0.135474	0.065258
H98	H	1.863691	0.364526	0.565258
H99	H	1.505248	-0.122713	0.063319
H100	H	2.005248	0.377287	0.563319
C101	C	1.436038	-0.068256	-0.229157
C102	C	1.936038	0.431744	0.270843
H103	H	1.434563	-0.125897	-0.268010
H104	H	1.934563	0.374103	0.231990
H105	H	1.508113	-0.010797	-0.241150
H106	H	2.008113	0.489203	0.258850
H107	H	1.366556	-0.023572	-0.239208
H108	H	1.866556	0.476428	0.260792
C109	C	1.439173	0.055616	0.079306
C110	C	1.939173	0.555616	0.579306
H111	H	1.436954	-0.031698	0.081041
H112	H	1.936954	0.468302	0.581041
H113	H	1.368944	0.070625	0.109853
H114	H	1.868944	0.570625	0.609853
H115	H	1.510500	0.083386	0.107914
H116	H	2.010500	0.583386	0.607914
H117	H	1.586313	0.373226	0.359732
H118	H	2.086313	0.873226	0.859732
H119	H	1.586315	0.373222	0.526973
H120	H	2.086315	0.873222	1.026973
C121	C	1.265501	0.633119	0.500725
C122	C	1.765501	1.133119	1.000725
H123	H	1.277252	0.623626	0.563671
H124	H	1.777252	1.123626	1.063671
H125	H	1.184247	0.601275	0.490461
H126	H	1.684247	1.101275	0.990461
H127	H	1.279408	0.719533	0.472495
H128	H	1.779408	1.219533	0.972495
C129	C	1.265477	0.633112	0.307131
C130	C	1.765477	1.133112	0.807131
H131	H	1.216673	0.672669	0.341783
H132	H	1.716673	1.172669	0.841783
H133	H	1.214495	0.576741	0.279729
H134	H	1.714495	1.076741	0.779729
H135	H	1.309650	0.695004	0.261770
H136	H	1.809650	1.195004	0.761770
