data_functionalizedCrystal
_audit_creation_method	'MofGen! by Chris Wilmer'
_symmetry_space_group_name_H-M	'P1'
_symmetry_Int_Tables_number	1
_symmetry_cell_setting	triclinic
loop_
_symmetry_equiv_pos_as_xyz
  x,y,z
_cell_length_a	11.026660
_cell_length_b	12.503572
_cell_length_c	11.026607
_cell_angle_alpha	85.701682
_cell_angle_beta	108.585426
_cell_angle_gamma	94.293564
loop_
_atom_site_label
_atom_site_type_symbol
_atom_site_fract_x
_atom_site_fract_y
_atom_site_fract_z
O1	O	1.732457	0.089322	0.527838
O2	O	1.365880	0.089323	0.467078
O3	O	1.518787	0.089318	0.314169
O4	O	1.579550	0.089326	0.680747
O5	O	1.507293	-0.089323	0.325693
O6	O	1.354386	-0.089319	0.478602
O7	O	1.720963	-0.089320	0.539362
Cu8	Cu	1.536625	-0.105631	0.510034
Cu9	Cu	1.550218	0.105634	0.496406
O10	O	1.568056	-0.089316	0.692271
C11	C	1.312474	0.000002	0.461631
C12	C	1.170461	0.000002	0.428216
C13	C	0.970035	0.000007	0.485957
C14	C	1.116813	0.000005	0.520496
N15	N	1.527073	-0.254223	0.519621
C16	C	1.513025	-0.473338	0.533734
C17	C	1.573823	-0.526667	0.472701
C18	C	1.566006	-0.648590	0.480554
C19	C	1.520840	-0.351404	0.525883
C20	C	1.774369	0.000003	0.544809
C21	C	1.916382	0.000010	0.578224
C22	C	1.501830	-0.000001	0.272271
C23	C	1.468414	0.000003	0.130257
N24	N	1.559778	0.254226	0.486811
C25	C	1.560683	0.000004	0.076607
C26	C	1.526147	0.000008	-0.070172
C27	C	1.585013	0.000006	0.734169
C28	C	1.618430	0.000009	0.876182
H29	H	1.179538	0.000001	0.625066
C30	C	1.780082	-0.491490	0.443415
C31	C	1.651896	-0.464566	0.394166
H32	H	1.828238	-0.453113	0.394917
H33	H	1.813817	-0.473159	0.530322
H34	H	1.785123	-0.566459	0.438384
H35	H	1.646854	-0.389598	0.399206
H36	H	1.618151	-0.482890	0.307237
C37	C	0.956782	0.000015	0.280149
C38	C	1.085798	0.000009	0.287046
H39	H	0.904519	0.000028	0.192997
H40	H	0.935150	-0.062279	0.325384
H41	H	0.943180	0.062314	0.317372
H42	H	1.099403	-0.062294	0.249831
H43	H	1.107438	0.062310	0.241792
C44	C	1.272411	0.091843	0.065664
C45	C	1.327254	0.000009	0.045582
H46	H	1.185266	0.091849	0.013383
H47	H	1.277098	0.091830	0.153183
H48	H	1.317666	0.154132	0.044022
H49	H	1.282005	-0.062280	0.067233
H50	H	1.322559	0.000013	-0.041957
H51	H	1.455108	-0.519244	0.591882
H52	H	1.665244	-0.000003	0.139339
C53	C	1.130069	0.000028	0.726277
C54	C	1.001054	0.000024	0.719385
H55	H	1.182337	0.000046	0.813426
H56	H	1.143683	-0.062270	0.689081
H57	H	1.151686	0.062323	0.681012
H58	H	0.979434	-0.062276	0.764641
H59	H	0.987433	0.062328	0.756598
H60	H	1.421579	0.000015	-0.132900
C61	C	1.826262	0.091842	-0.071071
C62	C	1.759598	0.000008	-0.039152
H63	H	1.913409	0.091842	-0.018796
H64	H	1.821569	0.091835	-0.158591
H65	H	1.789029	0.154131	-0.057453
H66	H	1.796826	-0.062281	-0.052779
H67	H	1.764299	0.000006	0.048389
H68	H	0.907304	-0.000011	0.381395
