data_functionalizedCrystal
_audit_creation_method	'MofGen! by Chris Wilmer'
_symmetry_space_group_name_H-M	'P1'
_symmetry_Int_Tables_number	1
_symmetry_cell_setting	triclinic
loop_
_symmetry_equiv_pos_as_xyz
  x,y,z
_cell_length_a	19.288864
_cell_length_b	16.109301
_cell_length_c	17.766277
_cell_angle_alpha	89.992214
_cell_angle_beta	89.976791
_cell_angle_gamma	83.298863
loop_
_atom_site_label
_atom_site_type_symbol
_atom_site_fract_x
_atom_site_fract_y
_atom_site_fract_z
O1	O	0.921601	0.103716	-0.062838
O2	O	0.719373	0.117707	-0.062787
O3	O	0.826042	-0.010338	-0.062806
O4	O	0.814932	0.231761	-0.062819
O5	O	0.826024	-0.010345	0.062382
O6	O	0.719355	0.117701	0.062402
O7	O	0.921582	0.103710	0.062351
Cu8	Cu	0.820467	0.110704	0.073807
Cu9	Cu	0.820489	0.110712	-0.074243
O10	O	0.814913	0.231755	0.062370
C11	C	0.693487	0.117254	-0.000186
C12	C	0.616380	0.115902	-0.000166
C13	C	0.571863	0.191034	-0.000182
C14	C	0.499413	0.189764	-0.000190
C15	C	0.471483	0.113359	-0.000198
C16	C	0.516009	0.038218	-0.000178
C17	C	0.588458	0.039489	-0.000162
C18	C	0.363084	0.053298	-0.044079
C19	C	0.290636	0.052029	-0.044100
C20	C	0.248028	0.109433	-0.000243
C21	C	0.277874	0.168120	0.043624
C22	C	0.350323	0.169391	0.043640
C23	C	0.392925	0.111971	-0.000214
C24	C	0.124952	0.183193	-0.000267
C25	C	0.052501	0.181920	-0.000270
C26	C	0.069099	0.030372	-0.000266
C27	C	0.141548	0.031647	-0.000254
C28	C	0.169470	0.108060	-0.000259
C29	C	0.825583	-0.041315	-0.000211
C30	C	0.824234	-0.133606	-0.000210
C31	C	0.884391	-0.356084	-0.000237
C32	C	0.883118	-0.442800	-0.000243
C33	C	0.756559	-0.422493	-0.000208
C34	C	0.757833	-0.335778	-0.000208
C35	C	0.821751	-0.302577	-0.000218
C36	C	0.819204	-0.476007	-0.000225
C37	C	0.817823	-0.570028	-0.000231
C38	C	0.823133	-0.208549	-0.000213
C39	C	0.947469	0.104163	-0.000252
C40	C	1.024576	0.105514	-0.000277
C41	C	0.815372	0.262732	-0.000227
C42	C	0.816722	0.355022	-0.000233
N43	N	0.820456	0.110699	0.177937
N44	N	0.820505	0.110711	-0.178373
C45	C	0.867704	0.054028	0.217315
C46	C	0.867708	0.054024	0.296117
C47	C	0.820471	0.110705	0.335538
C48	C	0.773214	0.167380	0.296150
C49	C	0.773206	0.167377	0.217350
C50	C	0.811353	0.186459	0.460373
C51	C	0.811365	0.186463	0.539172
C52	C	0.820489	0.110715	0.578584
C53	C	0.829616	0.034960	0.539188
C54	C	0.829609	0.034956	0.460387
C55	C	0.820473	0.110715	0.420983
C56	C	0.867745	0.054035	0.703408
C57	C	0.867744	0.054030	0.782212
C58	C	0.773252	0.167394	0.782243
C59	C	0.773250	0.167392	0.703441
C60	C	0.820500	0.110713	0.664028
H61	H	0.397771	0.006551	-0.079797
H62	H	0.177795	-0.029534	-0.000246
C63	C	0.686253	-0.459023	-0.000182
N64	N	0.633296	-0.486537	-0.000156
H65	H	0.906217	0.007878	0.814274
H66	H	0.706821	-0.292210	-0.000194
C67	C	0.952028	-0.501655	-0.000257
N68	N	1.003933	-0.545985	-0.000266
C69	C	0.839639	-0.048373	0.417054
N70	N	0.847190	-0.111138	0.384416
H71	H	0.906216	0.007882	0.671317
H72	H	0.837046	-0.026722	0.571275
H73	H	0.016255	0.243104	-0.000279
H74	H	0.906176	0.007875	0.185228
C75	C	0.257813	-0.012531	-0.092349
N76	N	0.233093	-0.061163	-0.128688
C77	C	0.450435	0.272417	-0.000216
N78	N	0.413547	0.334672	-0.000240
H79	H	0.906185	0.007874	0.328185
H80	H	0.493264	-0.023992	-0.000194
C81	C	0.721290	0.229745	0.825600
N82	N	0.682151	0.276709	0.858262
C83	C	0.721322	0.229795	0.660123
N84	N	0.682224	0.276819	0.627496
C85	C	0.801318	0.269795	0.582501
N86	N	0.793747	0.332563	0.615134
C87	C	0.801315	0.269793	0.417028
N88	N	0.793755	0.332558	0.384381
C89	C	0.637429	-0.043165	-0.000150
N90	N	0.674315	-0.105421	-0.000143
H91	H	0.734751	0.213530	0.328250
H92	H	0.734730	0.213526	0.185287
H93	H	0.374621	0.217173	0.079360
C94	C	0.602572	0.275090	-0.000171
N95	N	0.625704	0.338403	-0.000159
C96	C	0.231010	0.231267	0.091873
N97	N	0.195709	0.278827	0.128212
H98	H	0.046359	-0.031839	-0.000318
C99	C	0.155668	0.267248	-0.000262
N100	N	0.178801	0.330559	-0.000257
H101	H	0.936438	-0.329054	-0.000247
