data_functionalizedCrystal
_audit_creation_method	'MofGen! by Chris Wilmer'
_symmetry_space_group_name_H-M	'P1'
_symmetry_Int_Tables_number	1
_symmetry_cell_setting	triclinic
loop_
_symmetry_equiv_pos_as_xyz
  x,y,z
_cell_length_a	12.759395
_cell_length_b	13.897447
_cell_length_c	12.759387
_cell_angle_alpha	90.031440
_cell_angle_beta	90.020509
_cell_angle_gamma	90.021067
loop_
_atom_site_label
_atom_site_type_symbol
_atom_site_fract_x
_atom_site_fract_y
_atom_site_fract_z
Zn1	Zn	1.606233	-0.383924	0.594000
Zn2	Zn	1.606109	-0.545252	0.418319
Zn3	Zn	1.430532	-0.383977	0.418337
Zn4	Zn	1.430509	-0.545184	0.593958
O5	O	1.518346	-0.464584	0.506154
O6	O	1.753238	-0.405332	0.570706
O7	O	1.582776	-0.523909	0.271300
O8	O	1.453900	-0.248988	0.441665
O9	O	1.753147	-0.523858	0.441633
O10	O	1.582988	-0.248950	0.570724
O11	O	1.453780	-0.405421	0.271314
O12	O	1.283508	-0.405355	0.441624
O13	O	1.453862	-0.523741	0.740985
O14	O	1.283491	-0.523792	0.570651
O15	O	1.582966	-0.405265	0.741016
O16	O	1.582754	-0.680225	0.441592
O17	O	1.453742	-0.680174	0.570634
C18	C	1.245378	-0.464573	0.506136
C19	C	1.128602	-0.464591	0.506153
C20	C	1.128623	-0.588119	0.640292
C21	C	1.073773	-0.649891	0.707365
C22	C	0.964051	-0.649903	0.707378
C23	C	0.909177	-0.588134	0.640313
C24	C	0.964027	-0.526362	0.573240
C25	C	1.073752	-0.526359	0.573232
C26	C	0.964006	-0.402830	0.439108
C27	C	1.073728	-0.402822	0.439088
C28	C	0.909132	-0.341061	0.372043
C29	C	0.963982	-0.279293	0.304963
C30	C	1.073710	-0.279284	0.304953
C31	C	1.128578	-0.341050	0.372015
C32	C	1.518260	-0.715199	0.506129
C33	C	1.518320	-0.822413	0.506154
C34	C	1.518371	-0.909482	0.506178
C35	C	1.518444	-1.018715	0.506205
C36	C	1.792379	-0.464597	0.506172
C37	C	1.909156	-0.464602	0.506180
C38	C	1.518425	-0.464490	0.780187
C39	C	1.518459	-0.464449	0.896964
C40	C	1.518460	-0.212991	0.506201
C41	C	1.518509	-0.105777	0.506221
C42	C	1.518327	-0.464609	0.233186
C43	C	1.518497	-0.464377	0.116410
C44	C	1.652904	-0.341088	0.897016
C45	C	1.720141	-0.279393	0.951903
C46	C	1.720167	-0.279358	1.061625
C47	C	1.652946	-0.341022	1.116462
C48	C	1.585709	-0.402718	1.061575
C49	C	1.585692	-0.402748	0.951851
C50	C	1.451260	-0.526072	1.061523
C51	C	1.451238	-0.526114	0.951801
C52	C	1.384039	-0.587737	1.116360
C53	C	1.316805	-0.649438	1.061473
C54	C	1.316783	-0.649472	0.951745
C55	C	1.384001	-0.587809	0.896914
H56	H	1.118363	-0.228975	0.250341
N57	N	1.652987	-0.340974	1.228539
N58	N	1.734942	-0.361122	1.277523
H59	H	1.734972	-0.361088	1.356679
H60	H	1.118463	-0.700181	0.761969
N61	N	1.383982	-0.587821	0.784837
N62	N	1.362060	-0.512583	0.735888
H63	H	1.362047	-0.512585	0.656732
H64	H	1.774869	-0.229186	0.907243
N65	N	1.788841	-0.216323	1.117680
N66	N	1.848846	-0.161265	1.068714
H67	H	1.897346	-0.116744	1.108302
H68	H	1.262074	-0.699636	1.106130
N69	N	1.384066	-0.587683	1.228438
N70	N	1.444102	-0.532595	1.277434
H71	H	1.444122	-0.532558	1.356590
N72	N	0.907915	-0.216202	0.236482
N73	N	0.809950	-0.216213	0.236513
H74	H	0.770348	-0.171654	0.188147
H75	H	1.262019	-0.699701	0.907062
H76	H	1.217964	-0.588123	0.640281
H77	H	1.217919	-0.341052	0.372010
H78	H	0.819791	-0.341071	0.372063
N79	N	1.652903	-0.341121	0.784939
N80	N	1.712926	-0.286067	0.735990
H81	H	1.712927	-0.286087	0.656834
H82	H	0.919393	-0.700198	0.761999
N83	N	0.797100	-0.588144	0.640353
N84	N	0.748140	-0.643293	0.700253
H85	H	0.668984	-0.643299	0.700283
