data_functionalizedCrystal
_audit_creation_method	'MofGen! by Chris Wilmer'
_symmetry_space_group_name_H-M	'P1'
_symmetry_Int_Tables_number	1
_symmetry_cell_setting	triclinic
loop_
_symmetry_equiv_pos_as_xyz
  x,y,z
_cell_length_a	12.594517
_cell_length_b	19.077068
_cell_length_c	19.076919
_cell_angle_alpha	94.470751
_cell_angle_beta	92.280660
_cell_angle_gamma	92.326860
loop_
_atom_site_label
_atom_site_type_symbol
_atom_site_fract_x
_atom_site_fract_y
_atom_site_fract_z
Zn1	Zn	1.584210	-0.296687	-0.409856
Zn2	Zn	1.584078	-0.409840	-0.296701
Zn3	Zn	1.413675	-0.291971	-0.291986
Zn4	Zn	1.398715	-0.414536	-0.414544
O5	O	1.495169	-0.353258	-0.353272
O6	O	1.733137	-0.311705	-0.394858
O7	O	1.567679	-0.390265	-0.197428
O8	O	1.442612	-0.193947	-0.303686
O9	O	1.733040	-0.394838	-0.311723
O10	O	1.567904	-0.197412	-0.390285
O11	O	1.442485	-0.303667	-0.193964
O12	O	1.262746	-0.308221	-0.308231
O13	O	1.417116	-0.402843	-0.512569
O14	O	1.251755	-0.398269	-0.398274
O15	O	1.553398	-0.316259	-0.509125
O16	O	1.553174	-0.509112	-0.316268
O17	O	1.416988	-0.512563	-0.402847
C18	C	1.483471	-0.536417	-0.360593
C19	C	1.478562	-0.614774	-0.363749
C20	C	1.218631	-0.353244	-0.353250
C21	C	1.100324	-0.353255	-0.353259
C22	C	1.547211	-0.649768	-0.320192
C23	C	1.542600	-0.723392	-0.323164
C24	C	1.469335	-0.762022	-0.369690
C25	C	1.400683	-0.727023	-0.413252
C26	C	1.405300	-0.653400	-0.410283
C27	C	1.447923	-0.982408	-0.383404
C28	C	1.443309	-1.056036	-0.386368
C29	C	1.585229	-1.052400	-0.296281
C30	C	1.589835	-0.978776	-0.293313
C31	C	1.521187	-0.943783	-0.336877
N32	N	1.464618	-0.837278	-0.372728
N33	N	1.525910	-0.868528	-0.333843
C34	C	1.037016	-0.304217	-0.304371
C35	C	0.963220	-0.367822	-0.289607
C36	C	0.963318	-0.289681	-0.368036
C37	C	1.028086	-0.416893	-0.338462
C38	C	1.028191	-0.338709	-0.416919
C39	C	0.954423	-0.402360	-0.402181
C40	C	1.772788	-0.353274	-0.353294
C41	C	1.891092	-0.353281	-0.353303
C42	C	1.483603	-0.360601	-0.537140
C43	C	1.478674	-0.363729	-0.615494
C44	C	1.506942	-0.169386	-0.345937
C45	C	1.511958	-0.091030	-0.342811
C46	C	1.547309	-0.320122	-0.650513
C47	C	1.542665	-0.323059	-0.724135
C48	C	1.469390	-0.369608	-0.762736
C49	C	1.400747	-0.413217	-0.727712
C50	C	1.405387	-0.410276	-0.654092
C51	C	1.447900	-0.383235	-0.983110
C52	C	1.443268	-0.386174	-1.056736
C53	C	1.585185	-0.296015	-1.053153
C54	C	1.589823	-0.293081	-0.979532
C55	C	1.521176	-0.336687	-0.944514
N56	N	1.464643	-0.372613	-0.837990
N57	N	1.525918	-0.333678	-0.869262
C58	C	1.506756	-0.345894	-0.170116
C59	C	1.511903	-0.342567	-0.091755
H60	H	1.606867	-0.618320	-0.282303
N61	N	1.364283	-1.097703	-0.436552
H62	H	1.321496	-1.064365	-0.463700
H63	H	1.403607	-1.129519	-0.470426
N64	N	1.084815	-0.249340	-0.249550
H65	H	1.129725	-0.213736	-0.273119
H66	H	1.025965	-0.224807	-0.224402
N67	N	1.321663	-0.768684	-0.463437
H68	H	1.329150	-0.820634	-0.458708
H69	H	1.247158	-0.755418	-0.451901
H70	H	1.392018	-0.418753	-0.954608
N71	N	1.373876	-0.944671	-0.430383
H72	H	1.326759	-0.980316	-0.460302
H73	H	1.328377	-0.913017	-0.400424
H74	H	1.649493	-0.947325	-0.255428
H75	H	0.934716	-0.235913	-0.380493
H76	H	1.641072	-0.260512	-1.081673
N77	N	1.616691	-0.276033	-0.761916
H78	H	1.573598	-0.244583	-0.791150
H79	H	1.663811	-0.246143	-0.726257
H80	H	1.598501	-0.751881	-0.287695
N81	N	1.668817	-0.242859	-0.937884
H82	H	1.718233	-0.270280	-0.908478
H83	H	1.711522	-0.215676	-0.971273
N84	N	0.925285	-0.384147	-0.218325
H85	H	0.954991	-0.346849	-0.181468
H86	H	0.845013	-0.384902	-0.219187
H87	H	1.056507	-0.470681	-0.325922
N88	N	1.321708	-0.463428	-0.769334
H89	H	1.247172	-0.451958	-0.756072
H90	H	1.329267	-0.458660	-0.821275
H91	H	1.641119	-1.080899	-0.260815
N92	N	0.906890	-0.457361	-0.456973
H93	H	0.930514	-0.505346	-0.445736
H94	H	0.826745	-0.456733	-0.456946
N95	N	1.626349	-0.269920	-0.608881
H96	H	1.669123	-0.242740	-0.642240
H97	H	1.587040	-0.236073	-0.577028
N98	N	1.364235	-0.436385	-1.098373
H99	H	1.321451	-0.463563	-1.065019
H100	H	1.314898	-0.408905	-1.127772
H101	H	1.349400	-0.624908	-0.445752
H102	H	1.349486	-0.445779	-0.625580
H103	H	1.056855	-0.326370	-0.470719
