data_functionalizedCrystal
_audit_creation_method	'MofGen! by Chris Wilmer'
_symmetry_space_group_name_H-M	'P1'
_symmetry_Int_Tables_number	1
_symmetry_cell_setting	triclinic
loop_
_symmetry_equiv_pos_as_xyz
  x,y,z
_cell_length_a	14.044220
_cell_length_b	8.597299
_cell_length_c	7.681452
_cell_angle_alpha	88.672268
_cell_angle_beta	84.078585
_cell_angle_gamma	90.777327
loop_
_atom_site_label
_atom_site_type_symbol
_atom_site_fract_x
_atom_site_fract_y
_atom_site_fract_z
O1	O	1.250057	-0.359144	0.200715
O2	O	0.974072	-0.345669	0.198715
O3	O	1.119391	-0.128045	0.165673
O4	O	1.104738	-0.576769	0.233757
O5	O	1.135424	-0.156389	-0.122887
O6	O	0.990105	-0.374013	-0.089845
O7	O	1.266090	-0.387488	-0.087846
Zn8	Zn	1.130643	-0.385251	-0.134660
Zn9	Zn	1.109519	-0.347907	0.245530
O10	O	1.120771	-0.605113	-0.054803
C11	C	0.946768	-0.353944	0.053546
C12	C	0.841524	-0.336354	0.050895
C13	C	1.126728	-0.084443	0.012631
C14	C	1.124690	0.087708	-0.013477
C15	C	0.648834	-0.304202	0.045982
C16	C	0.591322	-0.428947	0.064902
C17	C	0.484102	-0.411057	0.062168
C18	C	0.756063	-0.322089	0.048715
C19	C	1.293393	-0.379213	0.057327
C20	C	1.398637	-0.396802	0.059990
N21	N	1.145066	-0.410737	-0.394131
C22	C	1.113435	0.351286	0.098243
C23	C	1.115474	0.179137	0.124365
N24	N	1.095103	-0.322409	0.504999
H25	H	0.622609	-0.549181	0.083153
H26	H	0.617549	-0.183978	0.027731
O27	O	1.107085	0.108393	0.307168
H28	H	1.172109	0.040316	0.325033
O29	O	1.133087	0.158459	-0.196289
H30	H	1.130124	0.287105	-0.188816
O31	O	1.212643	-0.530138	-0.475616
H32	H	1.210782	-0.526801	-0.619759
H33	H	1.044089	-0.232265	-0.433461
