data_functionalizedCrystal
_audit_creation_method	'MofGen! by Chris Wilmer'
_symmetry_space_group_name_H-M	'P1'
_symmetry_Int_Tables_number	1
_symmetry_cell_setting	triclinic
loop_
_symmetry_equiv_pos_as_xyz
  x,y,z
_cell_length_a	13.032831
_cell_length_b	16.625546
_cell_length_c	13.033429
_cell_angle_alpha	82.778950
_cell_angle_beta	89.091437
_cell_angle_gamma	82.826778
loop_
_atom_site_label
_atom_site_type_symbol
_atom_site_fract_x
_atom_site_fract_y
_atom_site_fract_z
Zn1	Zn	1.498517	-0.391465	-0.780838
Zn2	Zn	1.998517	0.108535	-0.280838
Zn3	Zn	1.520229	-0.545312	-0.608832
Zn4	Zn	2.020229	-0.045312	-0.108832
Zn5	Zn	1.348357	-0.395765	-0.587067
Zn6	Zn	1.848357	0.104235	-0.087067
Zn7	Zn	1.326494	-0.511523	-0.758969
Zn8	Zn	1.826494	-0.011523	-0.258969
O9	O	1.423399	-0.461016	-0.683927
O10	O	1.923399	0.038984	-0.183927
O11	O	1.645318	-0.424215	-0.776282
O12	O	2.145318	0.075785	-0.276282
O13	O	1.515666	-0.541414	-0.462018
O14	O	2.015666	-0.041414	0.037982
O15	O	1.368339	-0.282364	-0.612815
O16	O	1.868339	0.217636	-0.112815
O17	O	1.661270	-0.537245	-0.649909
O18	O	2.161270	-0.037245	-0.149909
O19	O	1.478661	-0.279205	-0.755178
O20	O	1.978661	0.220795	-0.255178
O21	O	1.389392	-0.431542	-0.446028
O22	O	1.889392	0.068458	0.053972
O23	O	1.201535	-0.398779	-0.591610
O24	O	1.701535	0.101221	-0.091610
O25	O	1.331077	-0.479657	-0.905797
O26	O	1.831077	0.020343	-0.405797
O27	O	1.185473	-0.483826	-0.717905
O28	O	1.685473	0.016174	-0.217905
O29	O	1.457462	-0.391452	-0.921864
O30	O	1.957462	0.108548	-0.421864
O31	O	1.494467	-0.653660	-0.628704
O32	O	1.994467	-0.153660	-0.128704
O33	O	1.352130	-0.628836	-0.739009
O34	O	1.852130	-0.128836	-0.239009
C35	C	1.156187	-0.438103	-0.650024
C36	C	1.656187	0.061897	-0.150024
C37	C	1.041869	-0.428318	-0.635544
C38	C	1.541869	0.071682	-0.135544
C39	C	1.423307	-0.670504	-0.683871
C40	C	1.923307	-0.170504	-0.183871
C41	C	1.423358	-0.760127	-0.683894
C42	C	1.923358	-0.260127	-0.183894
C43	C	0.982995	-0.466124	-0.691484
C44	C	1.482995	0.033876	-0.191484
C45	C	0.864842	-0.456011	-0.676520
C46	C	1.364842	0.043989	-0.176520
C47	C	1.423523	-1.088307	-0.684024
C48	C	1.923523	-0.588307	-0.184024
C49	C	1.423474	-0.996996	-0.683990
C50	C	1.923474	-0.496996	-0.183990
C51	C	1.423440	-0.924220	-0.683958
C52	C	1.923440	-0.424220	-0.183958
C53	C	1.423392	-0.832904	-0.683926
C54	C	1.923392	-0.332904	-0.183926
C55	C	1.691655	-0.484019	-0.717963
C56	C	2.191655	0.015981	-0.217963
C57	C	1.805969	-0.493822	-0.732467
C58	C	2.305969	0.006178	-0.232467
C59	C	1.389409	-0.431306	-0.952193
C60	C	1.889409	0.068694	-0.452193
C61	C	1.374924	-0.418645	-1.066512
C62	C	1.874924	0.081355	-0.566512
C63	C	1.423516	-0.250711	-0.684008
C64	C	1.923516	0.249289	-0.184008
C65	C	1.423567	-0.161091	-0.684043
C66	C	1.923567	0.338909	-0.184043
C67	C	1.415981	-0.454290	-1.243542
C68	C	1.915981	0.045710	-0.743542
C69	C	1.430951	-0.467371	-1.125387
C70	C	1.930951	0.032629	-0.625387
C71	C	1.457316	-0.490558	-0.416712
C72	C	1.957316	0.009442	0.083288
C73	C	1.472000	-0.503009	-0.302419
C74	C	1.972000	-0.003009	0.197581
H75	H	0.827778	-0.416150	-0.617550
H76	H	1.327778	0.083850	-0.117550
H77	H	1.490003	-0.518766	-1.088326
H78	H	1.990003	-0.018766	-0.588326
N79	N	1.032087	-0.518922	-0.769592
N80	N	1.532087	-0.018922	-0.269592
H81	H	0.976564	-0.542764	-0.804866
H82	H	1.476564	-0.042764	-0.304866
H83	H	1.070643	-0.484670	-0.822873
H84	H	1.570643	0.015330	-0.322873
H85	H	1.531048	-0.554401	-1.265353
H86	H	2.031048	-0.054401	-0.765353
N87	N	0.855061	-0.546619	-0.810581
N88	N	1.355061	-0.046619	-0.310581
H89	H	0.838437	-0.604408	-0.792127
H90	H	1.338437	-0.104408	-0.292127
H91	H	0.827106	-0.524397	-0.881726
H92	H	1.327106	-0.024397	-0.381726
N93	N	0.992784	-0.375530	-0.557422
N94	N	1.492784	0.124470	-0.057422
H95	H	0.915337	-0.375792	-0.557802
H96	H	1.415337	0.124208	-0.057802
H97	H	1.020804	-0.397728	-0.486295
H98	H	1.520804	0.102272	0.013705
N99	N	1.337748	-0.386222	-1.292623
N100	N	1.837748	0.113778	-0.792623
H101	H	1.338132	-0.386533	-1.370071
H102	H	1.838132	0.113467	-0.870071
H103	H	1.266655	-0.394554	-1.264561
H104	H	1.766655	0.105446	-0.764561
H105	H	1.315881	-0.367243	-1.103573
H106	H	1.815881	0.132757	-0.603573
