data_functionalizedCrystal
_audit_creation_method	'MofGen! by Chris Wilmer'
_symmetry_space_group_name_H-M	'P1'
_symmetry_Int_Tables_number	1
_symmetry_cell_setting	triclinic
loop_
_symmetry_equiv_pos_as_xyz
  x,y,z
_cell_length_a	16.974897
_cell_length_b	10.489716
_cell_length_c	16.053802
_cell_angle_alpha	87.404351
_cell_angle_beta	96.225225
_cell_angle_gamma	83.964219
loop_
_atom_site_label
_atom_site_type_symbol
_atom_site_fract_x
_atom_site_fract_y
_atom_site_fract_z
O1	O	1.056752	0.151761	0.140749
O2	O	1.556752	0.651761	0.640749
O3	O	0.825923	0.173653	0.125170
O4	O	1.325923	0.673653	0.625170
O5	O	0.946600	-0.023007	0.133318
O6	O	1.446600	0.476993	0.633318
O7	O	0.936075	0.348421	0.132601
O8	O	1.436075	0.848421	0.632601
O9	O	0.939958	-0.012227	-0.005990
O10	O	1.439958	0.487773	0.494010
O11	O	0.819281	0.184434	-0.014138
O12	O	1.319281	0.684434	0.485862
O13	O	1.050109	0.162541	0.001442
O14	O	1.550109	0.662541	0.501442
Zn15	Zn	0.933640	0.175199	-0.028466
Zn16	Zn	1.433640	0.675199	0.471534
Zn17	Zn	0.942392	0.160995	0.155078
Zn18	Zn	1.442392	0.660995	0.655078
O19	O	0.929432	0.359201	-0.006706
O20	O	1.429432	0.859201	0.493294
C21	C	0.793044	0.178408	0.053521
C22	C	1.293044	0.678408	0.553521
C23	C	0.704973	0.176498	0.047577
C24	C	1.204973	0.676498	0.547577
C25	C	0.667209	0.169728	0.120715
C26	C	1.167209	0.669728	0.620715
C27	C	0.584454	0.167955	0.115118
C28	C	1.084454	0.667955	0.615118
C29	C	0.539465	0.172943	0.036382
C30	C	1.039465	0.672943	0.536382
C31	C	0.577233	0.179717	-0.036761
C32	C	1.077233	0.679717	0.463239
C33	C	0.659986	0.181499	-0.031163
C34	C	1.159986	0.681499	0.468837
C35	C	0.291582	0.168252	0.011497
C36	C	0.791582	0.668252	0.511497
C37	C	0.208823	0.166466	0.005904
C38	C	0.708823	0.666466	0.505904
C39	C	0.216050	0.154706	0.157784
C40	C	0.716050	0.654706	0.657784
C41	C	0.298805	0.156481	0.163375
C42	C	0.798805	0.656481	0.663375
C43	C	0.336566	0.163262	0.090232
C44	C	0.836566	0.663262	0.590232
N45	N	0.454876	0.171127	0.030659
N46	N	0.954876	0.671127	0.530659
N47	N	0.421152	0.165087	0.095956
N48	N	0.921152	0.665087	0.595956
C49	C	0.942488	-0.065132	0.063613
C50	C	1.442488	0.434868	0.563613
C51	C	0.940123	-0.206712	0.063461
C52	C	1.440123	0.293288	0.563461
C53	C	1.014125	-0.305989	0.068448
C54	C	1.514125	0.194011	0.568448
C55	C	0.978295	-0.387817	0.134493
C56	C	1.478295	0.112183	0.634493
C57	C	0.971729	-0.377152	-0.002855
C58	C	1.471729	0.122848	0.497145
C59	C	0.904327	-0.286681	0.129564
C60	C	1.404327	0.213319	0.629564
C61	C	0.897768	-0.276006	-0.007844
C62	C	1.397768	0.223994	0.492156
C63	C	0.861885	-0.357786	0.058213
C64	C	1.361885	0.142214	0.558213
C65	C	1.082988	0.157787	0.073092
C66	C	1.582988	0.657787	0.573092
C67	C	1.171060	0.159696	0.079042
C68	C	1.671060	0.659696	0.579042
C69	C	0.933544	0.401326	0.063000
C70	C	1.433544	0.901326	0.563000
C71	C	0.935910	0.542906	0.063158
C72	C	1.435910	1.042906	0.563158
N73	N	0.927673	0.184892	-0.153729
N74	N	1.427673	0.684892	0.346271
C75	C	0.979040	0.101242	-0.193955
C76	C	1.479040	0.601242	0.306045
C77	C	0.974874	0.108034	-0.281643
C78	C	1.474874	0.608034	0.218357
C79	C	0.919343	0.198483	-0.329103
C80	C	1.419343	0.698483	0.170897
C81	C	0.867970	0.282137	-0.288872
C82	C	1.367970	0.782137	0.211128
C83	C	0.872134	0.275337	-0.201186
C84	C	1.372134	0.775337	0.298814
C85	C	0.901156	0.228147	-0.591741
C86	C	1.401156	0.728147	-0.091741
C87	C	0.896998	0.234942	-0.679433
C88	C	1.396998	0.734942	-0.179433
C89	C	1.003901	0.060837	-0.672198
C90	C	1.503901	0.560837	-0.172198
C91	C	1.008063	0.054051	-0.584510
C92	C	1.508063	0.554051	-0.084510
C93	C	0.956688	0.137700	-0.544286
C94	C	1.456688	0.637700	-0.044286
N95	N	0.915084	0.205431	-0.418735
N96	N	1.415084	0.705431	0.081265
N97	N	0.960943	0.130746	-0.454657
N98	N	1.460943	0.630746	0.045343
N99	N	0.948366	0.151293	0.280341
N100	N	1.448366	0.651293	0.780341
H101	H	0.703835	0.165662	0.184831
H102	H	1.203835	0.665662	0.684831
H103	H	1.078498	-0.282712	0.072863
H104	H	1.578498	0.217288	0.572863
H105	H	0.797468	-0.380824	0.053903
H106	H	1.297468	0.119176	0.553903
O107	O	0.543710	0.160641	0.193994
O108	O	1.043710	0.660641	0.693994
H109	H	0.512748	0.072627	0.195497
H110	H	1.012748	0.572627	0.695497
H111	H	0.335431	0.152410	0.227490
H112	H	0.835431	0.652410	0.727490
O113	O	0.852758	-0.211491	-0.087551
O114	O	1.352758	0.288509	0.412449
H115	H	0.880901	-0.247782	-0.142405
H116	H	1.380901	0.252218	0.357595
O117	O	1.009450	-0.429667	-0.076985
O118	O	1.509450	0.070333	0.423015
H119	H	1.072593	-0.409388	-0.072572
H120	H	1.572593	0.090612	0.427428
O121	O	0.845754	0.318382	-0.548366
O122	O	1.345754	0.818382	-0.048366
H123	H	0.808788	0.261832	-0.511057
H124	H	1.308788	0.761832	-0.011057
H125	H	1.045728	-0.007267	-0.704956
H126	H	1.545728	0.492733	-0.204956
H127	H	0.822752	0.355778	-0.327520
H128	H	1.322752	0.855778	0.172480
O129	O	1.023338	-0.452310	0.214196
O130	O	1.523338	0.047690	0.714196
H131	H	1.086475	-0.432045	0.218317
H132	H	1.586475	0.067955	0.718317
H133	H	0.185296	0.149188	0.217333
H134	H	0.685296	0.649188	0.717333
O135	O	0.866641	-0.234399	0.203778
O136	O	1.366641	0.265601	0.703778
H137	H	0.899876	-0.280364	0.262726
H138	H	1.399876	0.219636	0.762726
O139	O	1.038932	0.003681	-0.142766
O140	O	1.538932	0.503681	0.357234
H141	H	1.073944	-0.053354	-0.185473
H142	H	1.573944	0.446646	0.314527
H143	H	0.172192	0.170564	-0.058216
H144	H	0.672192	0.670564	0.441784
H145	H	1.016700	0.039919	-0.314394
H146	H	1.516700	0.539919	0.185606
O147	O	0.332302	0.175611	-0.067390
O148	O	0.832302	0.675611	0.432610
H149	H	0.287112	0.178785	-0.123077
H150	H	0.787112	0.678785	0.376923
O151	O	0.528656	0.185885	-0.121689
O152	O	1.028656	0.685885	0.378311
H153	H	0.464747	0.183782	-0.113297
H154	H	0.964747	0.683782	0.386703
H155	H	0.851776	0.308602	-0.718072
H156	H	1.351776	0.808602	-0.218072
H157	H	0.690731	0.187018	-0.090720
H158	H	1.190731	0.687018	0.409280
H159	H	1.053281	-0.019599	-0.545869
H160	H	1.553281	0.480401	-0.045869
O161	O	0.816735	0.365564	-0.157792
O162	O	1.316735	0.865564	0.342208
H163	H	0.777427	0.429611	-0.205524
H164	H	1.277427	0.929611	0.294476
