data_functionalizedCrystal
_audit_creation_method	'MofGen! by Chris Wilmer'
_symmetry_space_group_name_H-M	'P1'
_symmetry_Int_Tables_number	1
_symmetry_cell_setting	triclinic
loop_
_symmetry_equiv_pos_as_xyz
  x,y,z
_cell_length_a	12.759394
_cell_length_b	18.215407
_cell_length_c	18.215399
_cell_angle_alpha	90.019833
_cell_angle_beta	89.976598
_cell_angle_gamma	89.984983
loop_
_atom_site_label
_atom_site_type_symbol
_atom_site_fract_x
_atom_site_fract_y
_atom_site_fract_z
Zn1	Zn	-0.418265	-1.125125	-0.416139
Zn2	Zn	0.081735	-0.625125	0.083861
Zn3	Zn	-0.593962	-1.125055	-0.293083
Zn4	Zn	-0.093962	-0.625055	0.206917
Zn5	Zn	-0.418299	-1.002057	-0.293087
Zn6	Zn	0.081701	-0.502057	0.206913
Zn7	Zn	-0.593904	-1.002045	-0.416108
Zn8	Zn	-0.093904	-0.502045	0.083892
O9	O	-0.506107	-1.063571	-0.354604
O10	O	-0.006107	-0.563571	0.145396
O11	O	-0.441581	-1.228100	-0.399827
O12	O	0.058419	-0.728100	0.100173
O13	O	-0.570699	-1.108715	-0.190099
O14	O	-0.070699	-0.608715	0.309901
O15	O	-0.271273	-1.018417	-0.309425
O16	O	0.228727	-0.518417	0.190575
O17	O	-0.570666	-1.228049	-0.309418
O18	O	-0.070666	-0.728049	0.190582
O19	O	-0.271248	-1.108834	-0.399831
O20	O	0.228752	-0.608834	0.100169
O21	O	-0.441640	-1.018349	-0.190102
O22	O	0.058360	-0.518349	0.309898
O23	O	-0.441583	-0.899071	-0.309394
O24	O	0.058417	-0.399071	0.190606
O25	O	-0.570566	-1.018396	-0.519096
O26	O	-0.070566	-0.518396	-0.019096
O27	O	-0.570599	-0.899063	-0.399777
O28	O	-0.070599	-0.399063	0.100223
O29	O	-0.441525	-1.108822	-0.519119
O30	O	0.058475	-0.608822	-0.019119
O31	O	-0.740975	-1.108704	-0.309387
O32	O	-0.240975	-0.608704	0.190613
O33	O	-0.740932	-1.018329	-0.399773
O34	O	-0.240932	-0.518329	0.100227
C35	C	-0.506089	-0.872364	-0.354583
C36	C	-0.006089	-0.372364	0.145417
C37	C	-0.506107	-0.790565	-0.354591
C38	C	-0.006107	-0.290565	0.145409
C39	C	-0.506035	-1.063615	-0.546557
C40	C	-0.006035	-0.563615	-0.046557
C41	C	-0.506004	-1.063635	-0.628356
C42	C	-0.006004	-0.563635	-0.128356
C43	C	-0.779075	-1.063527	-0.354592
C44	C	-0.279075	-0.563527	0.145408
C45	C	-0.895852	-1.063576	-0.354612
C46	C	-0.395852	-0.563576	0.145388
C47	C	-1.115487	-0.969580	-0.260433
C48	C	-0.615487	-0.469580	0.239567
C49	C	-1.060722	-0.922521	-0.213316
C50	C	-0.560722	-0.422521	0.286684
C51	C	-0.951000	-0.922479	-0.213296
C52	C	-0.451000	-0.422479	0.286704
C53	C	-0.896042	-0.969500	-0.260399
C54	C	-0.396042	-0.469500	0.239601
C55	C	-0.950807	-1.016559	-0.307516
C56	C	-0.450807	-0.516559	0.192484
C57	C	-1.060532	-1.016597	-0.307529
C58	C	-0.560532	-0.516597	0.192471
C59	C	-0.950617	-1.110635	-0.401729
C60	C	-0.450617	-0.610635	0.098271
C61	C	-1.060339	-1.110682	-0.401747
C62	C	-0.560339	-0.610682	0.098253
C63	C	-0.895659	-1.157656	-0.448832
C64	C	-0.395659	-0.657656	0.051168
C65	C	-0.950425	-1.204720	-0.495946
C66	C	-0.450425	-0.704720	0.004054
C67	C	-1.060153	-1.204760	-0.495964
C68	C	-0.560153	-0.704760	0.004036
C69	C	-1.115105	-1.157741	-0.448863
C70	C	-0.615105	-0.657741	0.051137
C71	C	-0.232074	-1.063634	-0.354632
C72	C	0.267926	-0.563634	0.145368
C73	C	-0.115297	-1.063661	-0.354643
C74	C	0.384703	-0.563661	0.145357
C75	C	-0.506126	-1.255524	-0.354626
C76	C	-0.006126	-0.755524	0.145374
C77	C	-0.506134	-1.337322	-0.354635
C78	C	-0.006134	-0.837322	0.145365
C79	C	-0.573391	-0.602386	-0.401595
C80	C	-0.073391	-0.102386	0.098405
C81	C	-0.573395	-0.525528	-0.401604
C82	C	-0.073395	-0.025528	0.098396
C83	C	-0.438843	-0.525507	-0.307629
C84	C	0.061157	-0.025507	0.192371
C85	C	-0.438835	-0.602364	-0.307624
C86	C	0.061165	-0.102364	0.192376
C87	C	-0.506115	-0.640802	-0.354606
C88	C	-0.006115	-0.140802	0.145394
C89	C	-0.506126	-0.487086	-0.354620
C90	C	-0.006126	0.012914	0.145380
C91	C	-0.506129	-0.403752	-0.354630
C92	C	-0.006129	0.096248	0.145370
C93	C	-0.506111	-0.724141	-0.354598
C94	C	-0.006111	-0.224141	0.145402
C95	C	-0.438749	-1.110736	-0.816563
C96	C	0.061251	-0.610736	-0.316563
C97	C	-0.438719	-1.110745	-0.893422
C98	C	0.061281	-0.610745	-0.393422
C99	C	-0.573096	-1.016585	-0.893387
C100	C	-0.073096	-0.516585	-0.393387
C101	C	-0.573121	-1.016573	-0.816529
C102	C	-0.073121	-0.516573	-0.316529
C103	C	-0.505949	-1.063653	-0.778119
C104	C	-0.005949	-0.563653	-0.278119
C105	C	-0.505894	-1.063674	-0.931836
C106	C	-0.005894	-0.563674	-0.431836
C107	C	-0.505861	-1.063683	-1.015169
C108	C	-0.005861	-0.563683	-0.515169
C109	C	-0.505980	-1.063643	-0.694780
C110	C	-0.005980	-0.563643	-0.194780
C111	C	-0.506104	-1.063568	-0.163398
C112	C	-0.006104	-0.563568	0.336602
C113	C	-0.505839	-1.063692	-0.081599
C114	C	-0.005839	-0.563692	0.418401
H115	H	-1.105481	-0.884237	-0.174967
H116	H	-0.605481	-0.384237	0.325033
O117	O	-0.373473	-1.156411	-0.930880
O118	O	0.126527	-0.656411	-0.430880
C119	C	-0.387863	-1.146339	-1.006953
C120	C	0.112137	-0.646339	-0.506953
H121	H	-0.422269	-1.089540	-1.017434
H122	H	0.077731	-0.589540	-0.517434
H123	H	-0.309154	-1.151347	-1.036169
H124	H	0.190846	-0.651347	-0.536169
H125	H	-0.443801	-1.189984	-1.028770
H126	H	0.056199	-0.689984	-0.528770
O127	O	-0.638385	-0.970790	-0.930585
O128	O	-0.138385	-0.470790	-0.430585
C129	C	-0.697721	-0.929243	-0.880170
C130	C	-0.197721	-0.429243	-0.380170
H131	H	-0.654703	-0.926692	-0.825389
H132	H	-0.154703	-0.426692	-0.325389
H133	H	-0.708924	-0.871262	-0.902365
H134	H	-0.208924	-0.371262	-0.402365
H135	H	-0.777515	-0.956178	-0.871988
H136	H	-0.277515	-0.456178	-0.371988
H137	H	-1.104737	-1.243075	-0.534339
H138	H	-0.604737	-0.743075	-0.034339
H139	H	-0.627842	-0.978227	-0.785227
H140	H	-0.127842	-0.478227	-0.285227
O141	O	-0.638800	-0.488130	-0.447145
O142	O	-0.138800	0.011870	0.052855
C143	C	-0.706602	-0.443657	-0.405170
C144	C	-0.206602	0.056343	0.094830
H145	H	-0.669447	-0.432122	-0.349444
H146	H	-0.169447	0.067878	0.150556
H147	H	-0.720741	-0.389622	-0.435136
H148	H	-0.220741	0.110378	0.064864
H149	H	-0.784443	-0.473262	-0.396989
H150	H	-0.284443	0.026738	0.103011
O151	O	-0.373591	-0.488053	-0.262016
O152	O	0.126409	0.011947	0.237984
C153	C	-0.388003	-0.411979	-0.272108
C154	C	0.111997	0.088021	0.227892
H155	H	-0.469129	-0.401480	-0.296113
H156	H	0.030871	0.098520	0.203887
H157	H	-0.380775	-0.382747	-0.216995
H158	H	0.119225	0.117253	0.283005
H159	H	-0.325760	-0.390194	-0.311376
H160	H	0.174240	0.109806	0.188624
O161	O	-1.221687	-1.157660	-0.448945
O162	O	-0.721687	-0.657660	0.051055
C163	C	-1.258399	-1.087123	-0.467766
C164	C	-0.758399	-0.587123	0.032234
H165	H	-1.195170	-1.056660	-0.499811
H166	H	-0.695170	-0.556660	0.000189
H167	H	-1.331767	-1.092394	-0.503070
H168	H	-0.831767	-0.592394	-0.003070
H169	H	-1.277946	-1.055277	-0.415637
H170	H	-0.777946	-0.555277	0.084363
O171	O	-0.789459	-0.969386	-0.260268
O172	O	-0.289459	-0.469386	0.239732
C173	C	-0.752907	-0.917750	-0.208600
C174	C	-0.252907	-0.417750	0.291400
H175	H	-0.816185	-0.907491	-0.165602
H176	H	-0.316185	-0.407491	0.334398
H177	H	-0.679498	-0.939941	-0.180684
H178	H	-0.179498	-0.439941	0.319316
H179	H	-0.733479	-0.864066	-0.237733
H180	H	-0.233479	-0.364066	0.262267
H181	H	-0.384044	-0.633643	-0.269361
H182	H	0.115956	-0.133643	0.230639
H183	H	-1.204828	-0.969615	-0.260439
H184	H	-0.704828	-0.469615	0.239561
H185	H	-0.628173	-0.633680	-0.439852
H186	H	-0.128173	-0.133680	0.060148
H187	H	-0.906410	-0.884157	-0.174932
H188	H	-0.406410	-0.384157	0.325068
O189	O	-0.373396	-1.156486	-0.779365
O190	O	0.126604	-0.656486	-0.279365
C191	C	-0.314095	-1.198057	-0.829782
C192	C	0.185905	-0.698057	-0.329782
H193	H	-0.310442	-1.167921	-0.884563
H194	H	0.189558	-0.667921	-0.384563
H195	H	-0.231324	-1.205919	-0.807589
H196	H	0.268676	-0.705919	-0.307589
H197	H	-0.352566	-1.253944	-0.837962
H198	H	0.147434	-0.753944	-0.337962
H199	H	-0.806318	-1.157615	-0.448816
H200	H	-0.306318	-0.657615	0.051184
H201	H	-0.905671	-1.242997	-0.534297
H202	H	-0.405671	-0.742997	-0.034297
