data_functionalizedCrystal
_audit_creation_method	'MofGen! by Chris Wilmer'
_symmetry_space_group_name_H-M	'P1'
_symmetry_Int_Tables_number	1
_symmetry_cell_setting	triclinic
loop_
_symmetry_equiv_pos_as_xyz
  x,y,z
_cell_length_a	14.628931
_cell_length_b	14.628931
_cell_length_c	14.560438
_cell_angle_alpha	59.999101
_cell_angle_beta	89.999575
_cell_angle_gamma	59.999836
loop_
_atom_site_label
_atom_site_type_symbol
_atom_site_fract_x
_atom_site_fract_y
_atom_site_fract_z
Zr1	Zr	0.880617	1.000580	-0.120527
O2	O	0.734655	1.191289	-0.267176
O3	O	0.925362	0.809873	-0.075571
O4	O	0.925361	1.000583	-0.267176
O5	O	0.734656	1.000577	0.075569
O6	O	1.075794	1.000582	-0.267175
O7	O	0.734656	1.000580	-0.075571
O8	O	1.075795	0.659438	0.075571
O9	O	0.734655	1.341721	-0.267177
O10	O	1.056711	0.888313	-0.056398
O11	O	0.944445	0.888311	0.056397
O12	O	0.944445	1.112847	-0.169193
O13	O	0.832179	1.112845	-0.056398
Zr14	Zr	1.120539	1.000575	0.120526
Zr15	Zr	1.120539	1.000579	-0.120527
Zr16	Zr	0.880617	1.000576	0.120525
Zr17	Zr	0.880616	1.240502	-0.120527
Zr18	Zr	1.120539	0.760653	0.120526
O19	O	1.075794	1.191282	0.075570
O20	O	1.075793	1.191288	-0.267176
O21	O	0.734656	1.191283	0.075569
O22	O	1.266501	0.809866	0.267175
O23	O	1.266500	0.809872	-0.075570
O24	O	0.925363	0.809867	0.267174
O25	O	1.266500	1.000578	-0.075571
O26	O	1.075794	1.000573	0.267174
O27	O	0.925362	1.000573	0.267174
O28	O	1.266500	1.000576	0.075570
O29	O	0.925361	1.341721	-0.267176
O30	O	1.075795	0.659434	0.267175
O31	O	1.266501	0.659434	0.267175
O32	O	1.266501	0.659437	0.075571
O33	O	0.734655	1.341718	-0.075572
O34	O	0.925361	1.341717	-0.075572
O35	O	1.056711	0.888309	0.169192
O36	O	1.168977	0.888310	0.056397
O37	O	1.056710	1.112844	-0.056398
O38	O	0.944445	1.112843	0.056396
C39	C	1.000578	0.700472	0.000000
C40	C	1.000579	0.598619	0.000000
C41	C	0.700472	1.000578	-0.000001
C42	C	0.598619	1.000579	-0.000001
C43	C	1.079337	0.369185	0.079129
C44	C	1.079338	0.474453	0.079131
C45	C	0.608902	0.889195	0.055953
C46	C	0.503632	0.889193	0.055954
C47	C	1.300684	1.000577	-0.000000
C48	C	1.402537	1.000576	-0.000000
C49	C	1.000577	1.000583	-0.301520
C50	C	1.000577	1.000585	-0.403853
C51	C	1.000577	1.300683	-0.000001
C52	C	1.000577	1.402537	-0.000001
C53	C	1.083451	1.000586	-0.451929
C54	C	1.083455	1.000574	-0.548075
C55	C	0.917700	1.000566	-0.548064
C56	C	0.917702	1.000568	-0.451915
C57	C	1.000578	1.000572	0.301519
C58	C	1.000578	1.000571	0.403852
C59	C	1.300684	0.700471	0.000000
C60	C	1.402537	0.598617	0.000001
C61	C	1.000579	0.700466	0.301520
C62	C	1.000579	0.598611	0.403853
C63	C	1.300685	0.700466	0.301520
C64	C	1.402538	0.598610	0.403853
C65	C	0.700471	1.300690	-0.301521
C66	C	0.598618	1.402545	-0.403855
C67	C	0.700472	1.300684	-0.000002
C68	C	0.598618	1.402538	-0.000002
C69	C	1.000577	1.300689	-0.301521
C70	C	1.000576	1.402544	-0.403854
C71	C	1.391790	0.550765	-0.058874
C72	C	1.487496	0.455071	-0.058878
C73	C	1.604694	0.455086	0.058878
C74	C	1.508989	0.550785	0.058874
C75	C	1.059180	0.550757	0.510807
C76	C	1.059168	0.455062	0.606956
C77	C	0.941952	0.455082	0.489183
C78	C	0.941959	0.550781	0.393036
C79	C	1.508991	0.550757	0.393055
C80	C	1.604689	0.455062	0.489212
C81	C	1.487469	0.455077	0.606962
C82	C	1.391773	0.550777	0.510806
H83	H	1.146763	0.446074	0.146882
H84	H	0.894233	0.589748	0.305943
O85	O	1.477215	0.408420	0.710939
C86	C	1.584505	0.313710	0.793496
H87	H	1.647945	0.271851	0.756032
H88	H	1.583443	0.233202	0.867640
H89	H	1.608885	0.359491	0.823574
O90	O	0.884947	0.408620	0.478828
C91	C	0.802678	0.432023	0.530897
H92	H	0.827301	0.443941	0.596423
H93	H	0.795594	0.347010	0.573590
H94	H	0.718618	0.524040	0.464784
O95	O	0.920061	0.632369	-0.080668
C96	C	0.859482	0.581929	-0.029604
H97	H	0.912929	0.495678	0.061346
H98	H	0.836947	0.549624	-0.077347
H99	H	0.779586	0.659696	-0.031519
H100	H	1.305116	0.589719	-0.106824
H101	H	1.691365	0.416104	0.480412
H102	H	0.695638	0.793837	0.103861
H103	H	0.933153	0.509024	-0.067750
O104	O	0.513738	0.775538	0.113090
C105	C	0.406383	0.800838	0.100356
H106	H	0.343025	0.901592	0.078659
H107	H	0.407339	0.726048	0.182276
H108	H	0.381976	0.795329	0.029840
O109	O	0.392280	1.114319	-0.056975
C110	C	0.444211	1.121216	0.018660
H111	H	0.448545	1.054751	0.107342
H112	H	0.393559	1.224877	-0.006857
H113	H	0.532521	1.089599	0.016655
O114	O	1.163838	1.000760	-0.405260
C115	C	1.113163	1.112072	-0.405516
H116	H	1.027232	1.189960	-0.473617
H117	H	1.167823	1.149385	-0.423137
H118	H	1.103456	1.086881	-0.320004
O119	O	1.164010	1.000636	-0.594664
C120	C	1.237170	1.000615	-0.531604
H121	H	1.192517	1.041327	-0.483518
H122	H	1.263919	1.063041	-0.590749
H123	H	1.314232	0.897464	-0.469554
H124	H	1.517762	0.589702	0.305973
O125	O	0.495123	1.114312	-0.057299
C126	C	0.436295	1.121207	-0.139862
H127	H	0.498426	1.054748	-0.161770
H128	H	0.383281	1.224869	-0.218494
H129	H	0.379608	1.089582	-0.106088
O130	O	1.116194	0.408674	0.710767
C131	C	1.167906	0.471441	0.699688
H132	H	1.179514	0.510873	0.613889
H133	H	1.253033	0.399641	0.768652
H134	H	1.112991	0.554561	0.707565
O135	O	1.708183	0.408429	0.116055
C136	C	1.790353	0.313721	0.103415
H137	H	1.753064	0.271861	0.081734
H138	H	1.864149	0.233212	0.185369
H139	H	1.820290	0.359503	0.032923
O140	O	1.288415	0.597288	0.521437
C141	C	1.276133	0.652679	0.580721
H142	H	1.362279	0.609441	0.633799
H143	H	1.225786	0.631707	0.637867
H144	H	1.230404	0.761678	0.518439
H145	H	1.146769	0.262698	0.146871
O146	O	1.519626	0.597092	0.116169
C147	C	1.634103	0.534370	0.168117
H148	H	1.685152	0.437362	0.179785
H149	H	1.647431	0.517890	0.253642
H150	H	1.662296	0.597136	0.112935
H151	H	0.850215	1.000563	-0.412767
O152	O	0.837340	1.000388	-0.594775
C153	C	0.888058	0.889015	-0.594425
H154	H	0.978578	0.851890	-0.590180
H155	H	0.840459	0.914060	-0.674620
H156	H	0.886148	0.811036	-0.518197
O157	O	1.476855	0.408685	-0.116083
C158	C	1.362376	0.471454	-0.168068
H159	H	1.311338	0.510885	-0.121886
H160	H	1.349047	0.399656	-0.164895
H161	H	1.334172	0.554574	-0.259457
H162	H	1.106908	0.589702	0.519620
