data_functionalizedCrystal
_audit_creation_method	'MofGen! by Chris Wilmer'
_symmetry_space_group_name_H-M	'P1'
_symmetry_Int_Tables_number	1
_symmetry_cell_setting	triclinic
loop_
_symmetry_equiv_pos_as_xyz
  x,y,z
_cell_length_a	21.295420
_cell_length_b	21.295417
_cell_length_c	21.295411
_cell_angle_alpha	90.020597
_cell_angle_beta	90.024592
_cell_angle_gamma	90.025484
loop_
_atom_site_label
_atom_site_type_symbol
_atom_site_fract_x
_atom_site_fract_y
_atom_site_fract_z
Zn1	Zn	0.962359	-0.250752	0.355917
Zn2	Zn	1.462359	0.249248	0.855917
Zn3	Zn	0.962263	-0.356004	0.250644
Zn4	Zn	1.462263	0.143996	0.750644
Zn5	Zn	0.857082	-0.250744	0.250661
Zn6	Zn	1.357082	0.249256	0.750661
Zn7	Zn	0.857053	-0.355979	0.355875
Zn8	Zn	1.357053	0.144021	0.855875
O9	O	0.909689	-0.303370	0.303274
O10	O	1.409689	0.196630	0.803274
O11	O	1.050435	-0.264727	0.341962
O12	O	1.550435	0.235273	0.841962
O13	O	0.948282	-0.342048	0.162557
O14	O	1.448282	0.157952	0.662557
O15	O	0.871100	-0.162656	0.264648
O16	O	1.371100	0.337344	0.764648
O17	O	1.050365	-0.342055	0.264618
O18	O	1.550365	0.157945	0.764618
O19	O	0.948446	-0.162661	0.341979
O20	O	1.448446	0.337339	0.841979
O21	O	0.871006	-0.264714	0.162570
O22	O	1.371006	0.235286	0.662570
O23	O	0.768989	-0.264691	0.264609
O24	O	1.268989	0.235309	0.764609
O25	O	0.871050	-0.342014	0.443970
O26	O	1.371050	0.157986	0.943970
O27	O	0.768967	-0.342006	0.341909
O28	O	1.268967	0.157994	0.841909
O29	O	0.948418	-0.264703	0.444000
O30	O	1.448418	0.235297	0.944000
O31	O	0.948254	-0.444090	0.264578
O32	O	1.448254	0.055910	0.764578
O33	O	0.870957	-0.444072	0.341892
O34	O	1.370957	0.055928	0.841892
C35	C	0.746138	-0.303346	0.303257
C36	C	1.246138	0.196654	0.803257
C37	C	0.676169	-0.303351	0.303264
C38	C	1.176169	0.196649	0.803264
C39	C	0.176748	-0.263200	0.343622
C40	C	0.676748	0.236800	0.843622
C41	C	0.242490	-0.263195	0.343622
C42	C	0.742490	0.236805	0.843622
C43	C	0.275330	-0.303389	0.303289
C44	C	0.775330	0.196611	0.803289
C45	C	0.242422	-0.343602	0.262965
C46	C	0.742422	0.156398	0.762965
C47	C	0.176681	-0.343610	0.262970
C48	C	0.676681	0.156390	0.762970
N49	N	0.378520	-0.308125	0.248169
N50	N	0.878520	0.191875	0.748169
N51	N	0.440971	-0.308113	0.248166
N52	N	0.940971	0.191887	0.748166
C53	C	0.473405	-0.303368	0.303270
C54	C	0.973405	0.196632	0.803270
N55	N	0.441027	-0.298623	0.358380
N56	N	0.941027	0.201377	0.858380
N57	N	0.378570	-0.298631	0.358383
N58	N	0.878570	0.201369	0.858383
C59	C	0.346615	-0.303385	0.303279
C60	C	0.846615	0.196615	0.803279
C61	C	0.577590	-0.263156	0.343595
C62	C	1.077590	0.236844	0.843595
C63	C	0.643334	-0.263156	0.343596
C64	C	1.143334	0.236844	0.843596
C65	C	0.643265	-0.343559	0.262933
C66	C	1.143265	0.156441	0.762933
C67	C	0.577522	-0.343562	0.262938
C68	C	1.077522	0.156438	0.762938
C69	C	0.544689	-0.303358	0.303268
C70	C	1.044689	0.196642	0.803268
C71	C	0.909609	-0.466921	0.303242
C72	C	1.409609	0.033079	0.803242
C73	C	0.909632	-0.536890	0.303250
C74	C	1.409632	-0.036890	0.803250
C75	C	0.949883	-0.569702	0.343545
C76	C	1.449883	-0.069702	0.843545
C77	C	0.949906	-0.635444	0.343560
C78	C	1.449906	-0.135444	0.843560
C79	C	0.909683	-0.668372	0.303270
C80	C	1.409683	-0.168372	0.803270
C81	C	0.869424	-0.635552	0.262972
C82	C	1.369424	-0.135552	0.762972
C83	C	0.869399	-0.569811	0.262962
C84	C	1.369399	-0.069811	0.762962
N85	N	0.904924	-0.771624	0.248179
N86	N	1.404924	-0.271624	0.748179
N87	N	0.904952	-0.834075	0.248190
N88	N	1.404952	-0.334075	0.748190
C89	C	0.909757	-0.866447	0.303298
C90	C	1.409757	-0.366447	0.803298
N91	N	0.914545	-0.834007	0.358396
N92	N	1.414545	-0.334007	0.858396
N93	N	0.914520	-0.771550	0.358384
N94	N	1.414520	-0.271550	0.858384
C95	C	0.909706	-0.739657	0.303276
C96	C	1.409706	-0.239657	0.803276
C97	C	0.950034	-0.970544	0.343613
C98	C	1.450034	-0.470544	0.843613
C99	C	0.950052	-1.036288	0.343630
C100	C	1.450052	-0.536288	0.843630
C101	C	0.869574	-1.036394	0.263036
C102	C	1.369574	-0.536394	0.763036
C103	C	0.869553	-0.970652	0.263025
C104	C	1.369553	-0.470652	0.763025
C105	C	0.909786	-0.937731	0.303313
C106	C	1.409786	-0.437731	0.803313
C107	C	1.073879	-0.303394	0.303293
C108	C	1.573879	0.196606	0.803293
C109	C	1.143847	-0.303405	0.303300
C110	C	1.643847	0.196595	0.803300
C111	C	0.909741	-0.303357	0.467465
C112	C	1.409741	0.196643	0.967465
C113	C	0.909764	-0.303351	0.537433
C114	C	1.409764	0.196649	1.037433
C115	C	0.909787	-0.139180	0.303320
C116	C	1.409787	0.360820	0.803320
C117	C	0.909828	-0.069211	0.303340
C118	C	1.409828	0.430789	0.803340
C119	C	0.909673	-0.303338	0.139723
C120	C	1.409673	0.196662	0.639723
C121	C	0.909773	-0.303166	0.069755
C122	C	1.409773	0.196834	0.569755
C123	C	0.950047	-0.263094	0.570316
C124	C	1.450047	0.236906	1.070316
C125	C	0.950046	-0.263066	0.636059
C126	C	1.450046	0.236934	1.136059
C127	C	0.909769	-0.303308	0.668915
C128	C	1.409769	0.196692	1.168915
C129	C	0.869477	-0.343568	0.636024
C130	C	1.369477	0.156432	1.136024
C131	C	0.869475	-0.343589	0.570283
C132	C	1.369475	0.156411	1.070283
N133	N	0.904913	-0.358375	0.772132
N134	N	1.404913	0.141625	1.272132
N135	N	0.904919	-0.358353	0.834583
N136	N	1.404919	0.141647	1.334583
C137	C	0.909773	-0.303244	0.866990
C138	C	1.409773	0.196756	1.366990
N139	N	0.914632	-0.248157	0.834586
N140	N	1.414632	0.251843	1.334586
N141	N	0.914630	-0.248180	0.772129
N142	N	1.414630	0.251820	1.272129
C143	C	0.909766	-0.303288	0.740201
C144	C	1.409766	0.196712	1.240201
C145	C	0.950057	-0.262953	0.971159
C146	C	1.450057	0.237047	1.471159
C147	C	0.950052	-0.262925	1.036903
C148	C	1.450052	0.237075	1.536903
C149	C	0.869486	-0.343432	1.036867
C150	C	1.369486	0.156568	1.536867
C151	C	0.869488	-0.343455	0.971125
C152	C	1.369488	0.156545	1.471125
C153	C	0.909777	-0.303216	0.938275
C154	C	1.409777	0.196784	1.438275
H155	H	0.670120	-0.230418	0.376436
H156	H	1.170120	0.269582	0.876436
H157	H	0.982849	-0.230281	0.662838
H158	H	1.482849	0.269719	1.162838
H159	H	0.982860	-0.230185	0.944411
H160	H	1.482860	0.269815	1.444411
O161	O	0.545533	-0.382681	0.223854
O162	O	1.045533	0.117319	0.723854
C163	C	0.507499	-0.423384	0.259623
C164	C	1.007499	0.076616	0.759623
H165	H	0.527334	-0.427340	0.309193
H166	H	1.027334	0.072660	0.809193
H167	H	0.506727	-0.471797	0.236770
H168	H	1.006727	0.028203	0.736770
H169	H	0.457682	-0.403931	0.261829
H170	H	0.957682	0.096069	0.761829
H171	H	0.982855	-0.230139	1.063675
H172	H	1.482855	0.269861	1.563675
O173	O	0.675255	-0.382546	0.223776
O174	O	1.175255	0.117454	0.723776
C175	C	0.740335	-0.373933	0.232430
C176	C	1.240335	0.126067	0.732430
H177	H	0.749342	-0.325381	0.253130
H178	H	1.249342	0.174619	0.753130
H179	H	0.765296	-0.378136	0.185270
H180	H	1.265296	0.121864	0.685270
H181	H	0.758994	-0.411316	0.265886
H182	H	1.258994	0.088684	0.765886
H183	H	0.150019	-0.230465	0.376464
H184	H	0.650019	0.269535	0.876464
O185	O	0.830277	-0.382611	0.538310
O186	O	1.330277	0.117389	1.038310
C187	C	0.789652	-0.346782	0.500251
C188	C	1.289652	0.153218	1.000251
H189	H	0.785792	-0.297195	0.520060
H190	H	1.285792	0.202805	1.020060
H191	H	0.741194	-0.369543	0.499484
H192	H	1.241194	0.130457	0.999484
H193	H	0.809117	-0.344635	0.450436
H194	H	1.309117	0.155365	0.950436
H195	H	0.550856	-0.230419	0.376434
H196	H	1.050856	0.269581	0.876434
O197	O	0.989185	-1.068235	0.382686
O198	O	1.489185	-0.568235	0.882686
C199	C	1.029879	-1.106238	0.346886
C200	C	1.529879	-0.606238	0.846886
H201	H	1.007699	-1.116128	0.299164
H202	H	1.507699	-0.616128	0.799164
H203	H	1.038320	-1.152447	0.372541
H204	H	1.538320	-0.652447	0.872541
H205	H	1.076523	-1.080869	0.340004
H206	H	1.576523	-0.580869	0.840004
H207	H	0.269283	-0.230453	0.376456
H208	H	0.769283	0.269547	0.876456
O209	O	0.830320	-0.537836	0.223875
O210	O	1.330320	-0.037836	0.723875
C211	C	0.838937	-0.472752	0.232492
C212	C	1.338937	0.027248	0.732492
H213	H	0.859527	-0.463731	0.281089
H214	H	1.359527	0.036269	0.781089
H215	H	0.791779	-0.447805	0.228174
H216	H	1.291779	0.052195	0.728174
H217	H	0.872471	-0.454090	0.195180
H218	H	1.372471	0.045910	0.695180
O219	O	0.988983	-0.537821	0.382740
O220	O	1.488983	-0.037821	0.882740
C221	C	1.024526	-0.580885	0.418297
C222	C	1.524526	-0.080885	0.918297
H223	H	0.998759	-0.627767	0.420461
H224	H	1.498759	-0.127767	0.920461
H225	H	1.031214	-0.561861	0.467898
H226	H	1.531214	-0.061861	0.967898
H227	H	1.072347	-0.587849	0.395287
H228	H	1.572347	-0.087849	0.895287
H229	H	0.982793	-0.943739	0.376420
H230	H	1.482793	-0.443739	0.876420
O231	O	0.988916	-0.667360	0.382768
O232	O	1.488916	-0.167360	0.882768
C233	C	0.953071	-0.705410	0.423385
C234	C	1.453071	-0.205410	0.923385
H235	H	0.903486	-0.685632	0.427232
H236	H	1.403486	-0.185632	0.927232
H237	H	0.975819	-0.706123	0.471849
H238	H	1.475819	-0.206123	0.971849
H239	H	0.950924	-0.755242	0.403920
H240	H	1.450924	-0.255242	0.903920
H241	H	0.836673	-0.662366	0.230169
H242	H	1.336673	-0.162366	0.730169
O243	O	0.830466	-1.068440	0.223987
O244	O	1.330466	-0.568440	0.723987
C245	C	0.789794	-1.106466	0.259799
C246	C	1.289794	-0.606466	0.759799
H247	H	0.811979	-1.116274	0.307524
H248	H	1.311979	-0.616274	0.807524
H249	H	0.781382	-1.152715	0.234159
H250	H	1.281382	-0.652715	0.734159
H251	H	0.743135	-1.081160	0.266672
H252	H	1.243135	-0.581160	0.766672
O253	O	0.830438	-0.938872	0.223817
O254	O	1.330438	-0.438872	0.723817
C255	C	0.794930	-0.982029	0.188268
C256	C	1.294930	-0.482029	0.688268
H257	H	0.820731	-1.028872	0.186121
H258	H	1.320731	-0.528872	0.686121
H259	H	0.788234	-0.963066	0.138662
H260	H	1.288234	-0.463066	0.638662
H261	H	0.747111	-0.989048	0.211276
H262	H	1.247111	-0.489048	0.711276
H263	H	0.982853	-0.230328	0.543574
H264	H	1.482853	0.269672	1.043574
O265	O	0.830443	-0.382727	0.667966
O266	O	1.330443	0.117273	1.167966
C267	C	0.866259	-0.423369	0.706015
C268	C	1.366259	0.076631	1.206015
H269	H	0.915834	-0.427270	0.686221
H270	H	1.415834	0.072730	1.186221
H271	H	0.843463	-0.471809	0.706749
H272	H	1.343463	0.028191	1.206749
H273	H	0.868443	-0.403892	0.755841
H274	H	1.368443	0.096108	1.255841
H275	H	0.836685	-0.376191	1.063618
H276	H	1.336685	0.123809	1.563618
O277	O	0.830339	-0.382624	0.939275
O278	O	1.330339	0.117376	1.439275
C279	C	0.794775	-0.418124	0.982370
C280	C	1.294775	0.081876	1.482370
H281	H	0.820559	-0.420295	1.029243
H282	H	1.320559	0.079705	1.529243
H283	H	0.788027	-0.467726	0.963370
H284	H	1.288027	0.032274	1.463370
H285	H	0.746981	-0.395061	0.989345
H286	H	1.246981	0.104939	1.489345
H287	H	0.149894	-0.376351	0.230135
H288	H	0.649894	0.123649	0.730135
O289	O	0.274389	-0.382676	0.223872
O290	O	0.774389	0.117324	0.723872
C291	C	0.312412	-0.423388	0.259637
C292	C	0.812412	0.076612	0.759637
H293	H	0.322292	-0.401252	0.307380
H294	H	0.822292	0.098748	0.807380
H295	H	0.358626	-0.431781	0.233977
H296	H	0.858626	0.068219	0.733977
H297	H	0.287066	-0.470051	0.266473
H298	H	0.787066	0.029949	0.766473
