data_functionalizedCrystal
_audit_creation_method	'MofGen! by Chris Wilmer'
_symmetry_space_group_name_H-M	'P1'
_symmetry_Int_Tables_number	1
_symmetry_cell_setting	triclinic
loop_
_symmetry_equiv_pos_as_xyz
  x,y,z
_cell_length_a	19.121112
_cell_length_b	19.121175
_cell_length_c	12.759394
_cell_angle_alpha	92.416444
_cell_angle_beta	87.569250
_cell_angle_gamma	85.213640
loop_
_atom_site_label
_atom_site_type_symbol
_atom_site_fract_x
_atom_site_fract_y
_atom_site_fract_z
Zn1	Zn	1.092683	-0.443678	-0.516438
Zn2	Zn	1.087604	-0.326018	-0.684300
Zn3	Zn	0.970006	-0.321017	-0.500800
Zn4	Zn	0.975004	-0.438632	-0.684231
O5	O	1.031325	-0.382336	-0.596442
O6	O	1.190474	-0.432276	-0.545278
O7	O	1.067788	-0.226892	-0.653443
O8	O	0.986313	-0.337307	-0.355857
O9	O	1.186742	-0.345831	-0.668606
O10	O	1.076444	-0.427426	-0.367346
O11	O	0.981389	-0.223217	-0.518627
O12	O	0.872205	-0.332414	-0.518560
O13	O	0.994832	-0.537765	-0.668489
O14	O	0.875877	-0.418825	-0.653326
O15	O	1.081290	-0.541472	-0.545211
O16	O	1.072634	-0.340938	-0.831309
O17	O	0.989907	-0.423675	-0.831258
C18	C	0.848511	-0.374529	-0.584239
C19	C	0.770303	-0.371206	-0.579045
C20	C	0.327877	-0.350158	-0.546093
C21	C	0.401362	-0.353284	-0.550980
C22	C	0.440029	-0.399764	-0.623694
C23	C	0.405208	-0.443125	-0.691519
C24	C	0.331725	-0.440002	-0.686627
C25	C	0.661998	-0.411444	-0.641977
C26	C	0.735486	-0.414563	-0.646867
C27	C	0.731635	-0.324722	-0.506325
C28	C	0.658151	-0.321600	-0.501444
C29	C	0.623336	-0.364964	-0.569265
C30	C	0.515143	-0.402959	-0.628693
C31	C	0.548224	-0.361772	-0.564260
C32	C	1.039185	-0.565863	-0.608587
C33	C	1.042535	-0.644071	-0.613762
C34	C	0.999127	-0.678899	-0.546002
C35	C	1.002272	-0.752384	-0.550874
C36	C	1.048828	-0.791039	-0.623499
C37	C	1.092237	-0.756205	-0.691266
C38	C	1.089089	-0.682722	-0.686399
C39	C	1.060582	-1.013007	-0.641710
C40	C	1.063729	-1.086495	-0.646570
C41	C	0.973762	-1.082669	-0.506178
C42	C	0.970621	-1.009185	-0.501314
C43	C	1.014027	-0.974357	-0.569084
C44	C	1.052045	-0.866152	-0.628478
C45	C	1.010806	-0.899245	-0.564109
C46	C	1.214852	-0.390174	-0.608694
C47	C	1.293061	-0.393514	-0.613915
C48	C	1.031282	-0.382318	-0.869406
C49	C	1.031329	-0.382336	-0.986187
C50	C	1.023535	-0.199526	-0.584272
C51	C	1.020322	-0.121324	-0.578811
C52	C	1.117542	-0.296253	-0.986195
C53	C	1.160668	-0.253220	-1.041062
C54	C	1.160710	-0.253241	-1.150788
C55	C	1.117623	-0.296300	-1.205649
C56	C	1.074498	-0.339333	-1.150782
C57	C	1.074459	-0.339306	-1.041054
C58	C	0.988289	-0.425419	-1.150774
C59	C	0.988242	-0.425396	-1.041048
C60	C	0.945202	-0.468479	-1.205636
C61	C	0.902072	-0.511509	-1.150769
C62	C	0.902031	-0.511485	-1.041036
C63	C	0.945116	-0.468428	-0.986182
C64	C	1.031388	-0.382372	-0.322415
C65	C	1.031414	-0.382386	-0.205641
H66	H	0.296400	-0.312308	-0.486882
O67	O	1.097367	-0.903632	-0.698968
C68	C	1.218010	-0.931271	-0.759394
C69	C	1.166763	-0.888769	-0.679516
H70	H	1.274129	-0.919282	-0.743682
H71	H	1.205077	-0.916276	-0.842351
H72	H	1.212759	-0.989768	-0.751240
H73	H	1.171986	-0.830263	-0.687575
H74	H	1.179710	-0.903824	-0.596592
H75	H	0.932708	-0.977717	-0.442176
O76	O	0.860243	-0.553268	-1.204219
C77	C	0.822141	-0.591491	-1.373265
C78	C	0.869535	-0.544153	-1.312858
H79	H	0.829648	-0.584150	-1.461111
H80	H	0.764857	-0.576664	-1.347254
H81	H	0.836868	-0.648750	-1.356143
H82	H	0.854871	-0.486881	-1.329950
H83	H	0.926807	-0.559041	-1.338877
H84	H	0.516738	-0.323931	-0.505052
H85	H	0.866916	-0.546531	-0.996370
H86	H	1.101644	-1.117966	-0.705712
H87	H	0.759989	-0.289419	-0.451108
H88	H	0.429706	-0.317975	-0.495756
O89	O	0.960081	-0.786107	-0.484940
C90	C	0.870491	-0.774556	-0.345212
C91	C	0.918246	-0.736278	-0.419806
H92	H	0.836644	-0.734286	-0.292547
H93	H	0.904249	-0.810327	-0.294644
H94	H	0.835189	-0.807400	-0.393284
H95	H	0.953556	-0.703396	-0.371817
H96	H	0.884445	-0.700549	-0.470377
O97	O	0.298012	-0.482148	-0.752613
C98	C	0.309584	-0.571627	-0.892469
C99	C	0.347850	-0.523918	-0.817825
H100	H	0.349862	-0.605421	-0.945197
H101	H	0.273796	-0.537836	-0.942971
H102	H	0.276758	-0.606982	-0.844439
H103	H	0.380714	-0.488555	-0.865772
H104	H	0.383596	-0.557751	-0.767320
H105	H	0.626672	-0.283746	-0.442239
H106	H	1.195830	-0.218204	-1.195461
O107	O	0.773130	-0.459755	-0.717364
C108	C	0.860164	-0.558278	-0.743521
C109	C	0.817589	-0.507141	-0.663575
H110	H	0.896108	-0.596611	-0.700063
H111	H	0.893211	-0.527406	-0.798514
H112	H	0.822647	-0.588704	-0.791177
H113	H	0.855054	-0.476701	-0.615847
H114	H	0.784532	-0.538052	-0.608653
H115	H	0.633661	-0.446752	-0.697206
H116	H	0.436697	-0.480973	-0.750721
H117	H	0.961220	-0.647432	-0.486857
O118	O	0.552785	-0.448141	-0.699195
C119	C	0.639815	-0.546667	-0.725361
C120	C	0.597239	-0.495534	-0.645410
H121	H	0.675755	-0.585006	-0.681906
H122	H	0.672867	-0.515792	-0.780344
H123	H	0.602299	-0.577087	-0.773028
H124	H	0.634704	-0.465101	-0.597671
H125	H	0.564178	-0.526449	-0.590498
O126	O	0.931622	-1.116611	-0.440465
C127	C	0.896623	-1.228121	-0.385701
C128	C	0.944379	-1.189772	-0.460198
H129	H	0.906930	-1.287279	-0.401613
H130	H	0.839250	-1.211298	-0.399414
H131	H	0.908368	-1.214170	-0.300862
H132	H	0.932697	-1.203704	-0.545064
H133	H	1.001737	-1.206598	-0.446393
H134	H	1.095920	-0.984659	-0.696904
H135	H	1.130141	-0.787684	-0.750405
O136	O	1.131223	-0.648961	-0.752369
C137	C	1.164333	-0.627873	-0.931870
C138	C	1.116589	-0.666161	-0.857272
H139	H	1.152508	-0.641753	-1.016700
H140	H	1.221707	-0.644756	-0.918260
H141	H	1.154094	-0.568717	-0.915866
H142	H	1.126766	-0.725323	-0.873232
H143	H	1.059231	-0.649220	-0.870898
H144	H	0.972898	-0.867769	-0.504981
O145	O	1.202454	-0.211412	-0.987604
C146	C	1.240631	-0.173252	-0.818573
C147	C	1.193261	-0.220619	-0.878975
H148	H	1.233226	-0.180690	-0.730738
H149	H	1.225891	-0.115970	-0.835547
H150	H	1.297890	-0.188068	-0.844733
H151	H	1.135988	-0.205866	-0.852850
H152	H	1.208062	-0.277888	-0.861999
O153	O	1.117730	-0.296218	-1.312234
C154	C	1.165134	-0.249056	-1.469705
C155	C	1.165070	-0.249067	-1.348997
H156	H	1.203414	-0.210950	-1.499466
H157	H	1.110060	-0.232055	-1.495034
H158	H	1.182010	-0.304202	-1.503982
H159	H	1.148224	-0.193939	-1.314633
H160	H	1.220151	-0.266108	-1.323742
H161	H	1.117503	-0.296222	-0.896850
H162	H	0.945083	-0.468400	-0.896837
H163	H	0.945243	-0.468496	-1.294981
