data_functionalizedCrystal
_audit_creation_method	'MofGen! by Chris Wilmer'
_symmetry_space_group_name_H-M	'P1'
_symmetry_Int_Tables_number	1
_symmetry_cell_setting	triclinic
loop_
_symmetry_equiv_pos_as_xyz
  x,y,z
_cell_length_a	12.837943
_cell_length_b	14.853559
_cell_length_c	11.295483
_cell_angle_alpha	94.102887
_cell_angle_beta	85.461227
_cell_angle_gamma	89.230197
loop_
_atom_site_label
_atom_site_type_symbol
_atom_site_fract_x
_atom_site_fract_y
_atom_site_fract_z
O1	O	1.382756	0.228927	-0.098992
O2	O	1.080934	0.217348	-0.099000
O3	O	1.239912	0.092591	-0.098995
O4	O	1.223778	0.353683	-0.098998
O5	O	1.225948	0.103530	0.099056
O6	O	1.066971	0.228287	0.099050
O7	O	1.368792	0.239866	0.099058
Cu8	Cu	1.216607	0.235075	0.117138
Cu9	Cu	1.233120	0.222139	-0.117080
O10	O	1.209815	0.364622	0.099053
C11	C	1.035327	0.218906	0.000024
C12	C	0.920233	0.207239	0.000021
C13	C	0.679471	0.347487	0.000037
C14	C	0.571330	0.336530	0.000035
C15	C	0.595807	0.174369	0.000024
C16	C	0.703948	0.185326	0.000026
C17	C	0.745776	0.271888	0.000030
C18	C	0.853920	0.282844	0.000024
C19	C	0.878395	0.120685	0.000021
C20	C	0.770254	0.109727	0.000019
C21	C	1.232201	0.064410	0.000028
C22	C	1.230015	-0.035860	0.000021
C23	C	1.228353	-0.465784	-0.107936
C24	C	1.213130	-0.453853	0.107986
C25	C	1.215192	-0.359645	0.107987
C26	C	1.223834	-0.318502	0.000025
C27	C	1.230413	-0.371567	-0.107938
C28	C	1.208603	-0.306572	0.215948
C29	C	1.210664	-0.212358	0.215954
C30	C	1.219313	-0.171213	0.107990
C31	C	1.225893	-0.224285	0.000023
C32	C	1.234535	-0.183142	-0.107940
C33	C	1.241123	-0.236212	-0.215909
C34	C	1.239062	-0.330423	-0.215902
C35	C	1.221374	-0.077003	0.107984
C36	C	1.236594	-0.088925	-0.107942
C37	C	1.414400	0.238308	0.000031
C38	C	1.529494	0.249974	0.000026
C39	C	1.217526	0.392804	0.000027
C40	C	1.219712	0.493073	0.000026
N41	N	1.205000	0.244174	0.281874
N42	N	1.244735	0.213033	-0.281816
C43	C	1.328289	0.147484	0.531167
C44	C	1.319524	0.154367	0.655830
C45	C	1.178703	0.264818	0.655866
C46	C	1.187467	0.257935	0.531203
C47	C	1.262263	0.199267	0.468858
C48	C	1.271032	0.192389	0.344192
C49	C	1.130206	0.302835	0.344230
C50	C	1.121442	0.309718	0.468893
H51	H	0.713527	0.417969	0.000039
H52	H	0.887973	0.353327	0.000030
Br53	Br	0.539021	0.056903	0.000039
H54	H	0.736181	0.039252	0.000029
H55	H	0.517347	0.398091	0.000043
Br56	Br	1.212428	-0.004983	0.254500
Br57	Br	0.968388	0.018078	-0.000012
H58	H	1.243636	-0.055434	-0.195859
H59	H	1.373287	0.112199	0.706560
Br60	Br	1.019932	0.389332	0.553511
Br61	Br	1.252851	-0.180364	-0.362423
H62	H	1.117799	0.312578	0.706644
H63	H	1.201562	-0.340077	0.303845
H64	H	1.244425	-0.373641	-0.303804
H65	H	1.233721	-0.508998	-0.195842
Br66	Br	1.040606	0.373124	0.259656
H67	H	1.206088	-0.487357	0.195884
H68	H	1.205303	-0.169156	0.303868
H69	H	1.389197	0.099720	0.480405
Br70	Br	1.372544	0.112774	0.259582
