data_functionalizedCrystal
_audit_creation_method	'MofGen! by Chris Wilmer'
_symmetry_space_group_name_H-M	'P1'
_symmetry_Int_Tables_number	1
_symmetry_cell_setting	triclinic
loop_
_symmetry_equiv_pos_as_xyz
  x,y,z
_cell_length_a	14.971487
_cell_length_b	14.971486
_cell_length_c	14.048226
_cell_angle_alpha	90.006640
_cell_angle_beta	90.000286
_cell_angle_gamma	83.614266
loop_
_atom_site_label
_atom_site_type_symbol
_atom_site_fract_x
_atom_site_fract_y
_atom_site_fract_z
O1	O	-1.186947	-0.116567	-0.079025
O2	O	-0.926547	-0.130526	-0.079057
O3	O	-1.063726	0.006654	-0.079033
O4	O	-1.049767	-0.253747	-0.079048
O5	O	-1.063709	0.006662	0.079288
O6	O	-0.926530	-0.130518	0.079265
O7	O	-1.186930	-0.116559	0.079297
Zn8	Zn	-1.056727	-0.123537	0.104418
Zn9	Zn	-1.056749	-0.123548	-0.104178
O10	O	-1.049751	-0.253738	0.079273
C11	C	-0.893214	-0.129897	0.000100
C12	C	-0.793917	-0.128026	0.000088
N13	N	-1.056719	-0.123529	0.246778
C14	C	-0.736691	-0.208615	0.000083
C15	C	-0.643392	-0.206852	0.000096
C16	C	-0.607320	-0.124499	0.000106
C17	C	-0.664552	-0.043903	0.000113
C18	C	-0.757850	-0.045668	0.000108
C19	C	-0.470090	-0.040232	0.000122
C20	C	-0.376786	-0.038467	0.000126
C21	C	-0.355632	-0.201416	0.000110
C22	C	-0.448929	-0.203181	0.000105
C23	C	-0.506156	-0.122585	0.000110
C24	C	-1.063094	0.039982	0.000127
C25	C	-1.061223	0.139279	0.000126
C26	C	-0.220263	-0.117187	0.000132
C27	C	-0.319560	-0.119056	0.000121
C28	C	-1.050383	-0.287067	0.000111
C29	C	-1.052254	-0.386364	0.000105
C30	C	-1.141812	0.196504	0.000137
C31	C	-1.140049	0.289804	0.000127
C32	C	-1.057696	0.325876	0.000113
C33	C	-0.977100	0.268644	0.000100
C34	C	-0.978864	0.175346	0.000103
C35	C	-0.973429	0.463107	0.000096
C36	C	-0.971665	0.556411	0.000095
C37	C	-1.134614	0.577564	0.000120
C38	C	-1.136378	0.484266	0.000123
C39	C	-1.055782	0.427040	0.000111
N40	N	-1.056765	-0.123549	-0.246538
C41	C	-1.117481	-0.062812	0.296607
C42	C	-1.117487	-0.062811	0.396264
C43	C	-1.056735	-0.123533	0.446092
C44	C	-0.995966	-0.184254	0.396256
C45	C	-0.995957	-0.184250	0.296600
C46	C	-0.995992	-0.184261	0.603970
C47	C	-0.996002	-0.184266	0.703633
C48	C	-1.117523	-0.062822	0.703634
C49	C	-1.117513	-0.062818	0.603979
C50	C	-1.056745	-0.123540	0.554150
H51	H	-0.766053	-0.275677	0.000075
O52	O	-0.531809	0.046699	0.000128
H53	H	-0.574818	0.049802	0.064660
H54	H	-0.907799	0.416515	0.000084
O55	O	-0.819578	0.041252	0.000110
H56	H	-0.778823	0.098815	0.000109
O57	O	-1.183004	0.002686	0.242865
H58	H	-1.225249	0.044913	0.294261
O59	O	-1.183071	0.002677	0.757363
H60	H	-1.145389	0.046226	0.802770
H61	H	-1.205673	0.336394	0.000138
H62	H	-1.166964	-0.013369	0.436834
H63	H	-0.635175	0.023150	0.000135
H64	H	-0.946531	-0.233712	0.744198
O65	O	-0.581673	-0.293776	0.000094
H66	H	-0.538648	-0.296870	-0.064427
O67	O	-1.230636	0.157598	0.000142
H68	H	-1.286378	0.213069	0.000136
H69	H	-0.913240	0.128754	0.000094
O70	O	-1.225198	0.445353	0.000126
H71	H	-1.280946	0.500818	0.000120
H72	H	-0.946505	-0.233704	0.563403
H73	H	-1.166987	-0.013377	0.563409
H74	H	-1.200238	0.624162	0.000127
H75	H	-0.904606	0.585777	0.000099
O76	O	-0.888276	0.307550	0.000096
H77	H	-0.883581	0.349553	-0.064427
O78	O	-0.930444	-0.249757	0.449992
H79	H	-0.886942	-0.212042	0.495418
O80	O	-0.930425	-0.249741	0.242849
H81	H	-0.888187	-0.291973	0.294237
H82	H	-0.478296	-0.270240	0.000087
H83	H	-0.309033	-0.267040	0.000110
H84	H	-0.347419	0.028592	0.000135
