data_functionalizedCrystal
_audit_creation_method	'MofGen! by Chris Wilmer'
_symmetry_space_group_name_H-M	'P1'
_symmetry_Int_Tables_number	1
_symmetry_cell_setting	triclinic
loop_
_symmetry_equiv_pos_as_xyz
  x,y,z
_cell_length_a	17.699083
_cell_length_b	15.021413
_cell_length_c	17.699092
_cell_angle_alpha	89.994305
_cell_angle_beta	83.284691
_cell_angle_gamma	90.001270
loop_
_atom_site_label
_atom_site_type_symbol
_atom_site_fract_x
_atom_site_fract_y
_atom_site_fract_z
O1	O	1.004083	0.073904	0.095701
O2	O	0.783705	0.073933	0.108153
O3	O	0.900117	0.073915	-0.008262
O4	O	0.887671	0.073921	0.212116
O5	O	0.900098	-0.074149	-0.008245
O6	O	0.783686	-0.074132	0.108170
O7	O	1.004064	-0.074160	0.095717
Zn8	Zn	0.893872	-0.097654	0.101946
Zn9	Zn	0.893897	0.097427	0.101924
O10	O	0.887652	-0.074143	0.212132
C11	C	0.755499	-0.000096	0.107715
C12	C	0.671480	-0.000085	0.106377
N13	N	0.893861	-0.230792	0.101961
C14	C	0.622862	-0.000083	0.174710
C15	C	0.543918	-0.000095	0.173448
C16	C	0.513595	-0.000101	0.103851
C17	C	0.562220	-0.000106	0.035513
C18	C	0.641162	-0.000100	0.036776
C19	C	0.243857	-0.000128	0.030418
C20	C	0.164909	-0.000130	0.029160
C21	C	0.146613	-0.000122	0.167089
C22	C	0.225555	-0.000117	0.168352
C23	C	0.274173	-0.000126	0.100014
C24	C	0.359772	-0.000115	0.101384
C25	C	0.427998	-0.000106	0.102481
C26	C	0.840024	-0.470467	0.155766
C27	C	0.908388	-0.529810	0.170330
C28	C	0.893881	-0.412399	0.101942
C29	C	0.825535	-0.529797	0.087395
C30	C	0.893893	-0.587823	0.101925
C31	C	0.962279	-0.470435	0.116540
C32	C	0.879381	-0.470417	0.033575
C33	C	0.947795	-0.529734	0.048110
C34	C	0.893872	-0.311341	0.101953
C35	C	0.893909	-0.688878	0.101913
C36	C	1.032271	-0.000130	0.096155
C37	C	1.116289	-0.000135	0.097494
C38	C	0.899661	-0.000115	-0.036450
C39	C	0.898319	-0.000111	-0.120468
N40	N	0.893914	0.230564	0.101904
C41	C	0.897701	0.080600	-0.159945
C42	C	0.896436	0.080601	-0.238888
C43	C	0.895795	-0.000109	-0.278353
C44	C	0.896411	-0.080827	-0.238871
C45	C	0.897671	-0.080827	-0.159929
C46	C	0.891331	-0.080827	-0.557236
C47	C	0.890073	-0.080821	-0.636184
C48	C	0.890096	0.080601	-0.636195
C49	C	0.891356	0.080601	-0.557253
C50	C	0.891968	-0.000116	-0.517777
C51	C	0.893338	-0.000116	-0.432178
C52	C	0.894430	-0.000110	-0.363952
C53	C	0.888109	-0.000110	0.240321
C54	C	0.889450	-0.000109	0.324339
H55	H	0.504335	-0.000092	0.229091
C56	C	0.863095	-0.435717	-0.043554
C57	C	0.918844	-0.467067	-0.099915
C58	C	0.903851	-0.435126	-0.170975
H59	H	0.863696	-0.372487	-0.043229
H60	H	0.814506	-0.456031	-0.053858
H61	H	0.967420	-0.446748	-0.089613
H62	H	0.918253	-0.530293	-0.100265
H63	H	0.855262	-0.455440	-0.181279
H64	H	0.904452	-0.371897	-0.170641
H65	H	0.941670	-0.456399	-0.209225
C66	C	0.258329	-0.000156	0.243992
C67	C	0.198853	-0.000182	0.303567
C68	C	0.229014	-0.000235	0.373258
H69	H	0.288733	0.051464	0.247455
H70	H	0.288722	-0.051809	0.247396
H71	H	0.168473	0.051465	0.300165
H72	H	0.168444	-0.051799	0.300129
H73	H	0.259407	-0.051888	0.376662
H74	H	0.259417	0.051386	0.376713
H75	H	0.188665	-0.000261	0.413688
H76	H	0.920663	-0.555898	0.228139
H77	H	0.891882	0.146323	-0.525124
H78	H	0.891844	-0.146552	-0.525106
C79	C	0.895678	-0.168550	-0.281576
C80	C	0.896469	-0.239234	-0.230101
C81	C	0.895786	-0.320060	-0.269410
H82	H	0.939294	-0.172039	-0.318223
H83	H	0.851051	-0.171948	-0.306501
H84	H	0.941091	-0.235838	-0.205188
H85	H	0.852856	-0.235775	-0.193453
H86	H	0.851159	-0.323457	-0.294336
H87	H	0.939403	-0.323539	-0.306056
H88	H	0.896315	-0.368028	-0.234490
C89	C	0.898185	-0.168427	-0.117000
C90	C	0.833805	-0.173134	-0.063062
C91	C	0.834243	-0.253824	-0.023507
H92	H	0.942742	-0.171875	-0.091985
H93	H	0.897582	-0.216526	-0.151777
H94	H	0.834415	-0.125049	-0.028290
H95	H	0.789238	-0.169701	-0.088057
H96	H	0.833640	-0.301922	-0.058284
H97	H	0.878803	-0.257265	0.001503
H98	H	0.790559	-0.257032	0.013089
H99	H	0.107018	-0.000120	0.222733
C100	C	0.895845	0.168324	-0.281622
C101	C	0.896718	0.239006	-0.230169
C102	C	0.896199	0.319833	-0.269510
H103	H	0.851257	0.171845	-0.306583
H104	H	0.939502	0.171692	-0.318245
H105	H	0.853066	0.235641	-0.193559
H106	H	0.941302	0.235515	-0.205205
H107	H	0.939856	0.323201	-0.306134
H108	H	0.851611	0.323345	-0.294470
H109	H	0.896798	0.367801	-0.234607
H110	H	0.647544	-0.000077	0.231383
C111	C	0.889261	0.168208	-0.679080
C112	C	0.823435	0.172936	-0.715747
C113	C	0.822635	0.253626	-0.755252
H114	H	0.932833	0.171642	-0.715787
H115	H	0.889783	0.216306	-0.644293
H116	H	0.822920	0.124851	-0.750531
H117	H	0.779852	0.169517	-0.679058
H118	H	0.823157	0.301725	-0.720465
H119	H	0.866210	0.257053	-0.791955
H120	H	0.777970	0.256849	-0.780129
C121	C	0.748388	-0.564440	0.071097
C122	C	0.692223	-0.534389	0.127622
C123	C	0.621144	-0.566270	0.112635
H124	H	0.748980	-0.627671	0.070766
H125	H	0.737674	-0.543202	0.022919
H126	H	0.702934	-0.555632	0.175787
H127	H	0.691607	-0.471162	0.127963
H128	H	0.610430	-0.545032	0.064457
H129	H	0.621743	-0.629500	0.112303
H130	H	0.583026	-0.545878	0.150980
C131	C	0.132133	-0.000189	-0.046484
C132	C	0.191606	-0.000221	-0.106062
C133	C	0.161441	-0.000286	-0.175750
H134	H	0.101730	0.051429	-0.049960
H135	H	0.101738	-0.051844	-0.049871
H136	H	0.221988	0.051429	-0.102676
H137	H	0.222013	-0.051835	-0.102611
H138	H	0.131045	-0.051941	-0.179138
H139	H	0.131038	0.051333	-0.179218
H140	H	0.201788	-0.000316	-0.216182
C141	C	0.296762	-0.000167	-0.043694
C142	C	0.372387	-0.000184	-0.027700
C143	C	0.421147	-0.000228	-0.095956
H144	H	0.287678	0.051454	-0.072294
H145	H	0.287628	-0.051820	-0.072241
H146	H	0.381517	0.051463	0.000835
H147	H	0.381494	-0.051801	0.000889
H148	H	0.412014	-0.051881	-0.124503
H149	H	0.412057	0.051393	-0.124551
H150	H	0.472465	-0.000248	-0.085114
C151	C	0.529448	-0.000155	-0.040128
C152	C	0.588926	-0.000178	-0.099701
C153	C	0.558768	-0.000230	-0.169393
H154	H	0.499046	0.051465	-0.043600
H155	H	0.499054	-0.051809	-0.043524
H156	H	0.619308	0.051471	-0.096306
H157	H	0.619333	-0.051793	-0.096254
H158	H	0.528373	-0.051884	-0.172789
H159	H	0.528366	0.051390	-0.172858
H160	H	0.599118	-0.000254	-0.209822
H161	H	0.680748	-0.000101	-0.018868
C162	C	1.039289	-0.435647	0.133118
C163	C	1.038358	-0.342446	0.133011
C164	C	1.109271	-0.310367	0.148319
H165	H	1.077663	-0.456301	0.095157
H166	H	1.049643	-0.456446	0.181548
H167	H	1.028013	-0.321655	0.084588
H168	H	0.999999	-0.321769	0.170972
H169	H	1.119625	-0.331166	0.196749
H170	H	1.147639	-0.331026	0.110356
H171	H	1.108647	-0.247127	0.148255
C172	C	0.779452	-0.435805	0.216617
C173	C	0.795006	-0.465883	0.288065
C174	C	0.739233	-0.433959	0.344141
H175	H	0.730956	-0.456981	0.206871
H176	H	0.779574	-0.372563	0.215945
H177	H	0.794875	-0.529112	0.288737
H178	H	0.843491	-0.444710	0.297836
H179	H	0.739356	-0.370717	0.343468
H180	H	0.690742	-0.455137	0.334387
H181	H	0.749783	-0.454356	0.392625
C182	C	0.898266	0.168171	-0.116993
C183	C	0.833904	0.172876	-0.063033
C184	C	0.834395	0.253532	-0.023449
H185	H	0.897673	0.216308	-0.151725
H186	H	0.942851	0.171546	-0.091998
H187	H	0.789331	0.169510	-0.088027
H188	H	0.834483	0.124758	-0.028284
H189	H	0.878979	0.256907	0.001546
H190	H	0.833803	0.301663	-0.058188
H191	H	0.790730	0.256732	0.013172
H192	H	0.993394	-0.555593	0.002583
C193	C	0.889334	-0.168548	-0.678892
C194	C	0.890118	-0.239237	-0.627423
C195	C	0.889428	-0.320059	-0.666737
H196	H	0.932950	-0.172039	-0.715540
H197	H	0.844707	-0.171936	-0.703818
H198	H	0.934740	-0.235851	-0.602509
H199	H	0.846505	-0.235776	-0.590774
H200	H	0.844800	-0.323447	-0.691663
H201	H	0.933044	-0.323540	-0.703383
H202	H	0.889952	-0.368031	-0.631820
