data_functionalizedCrystal
_audit_creation_method	'MofGen! by Chris Wilmer'
_symmetry_space_group_name_H-M	'P1'
_symmetry_Int_Tables_number	1
_symmetry_cell_setting	triclinic
loop_
_symmetry_equiv_pos_as_xyz
  x,y,z
_cell_length_a	12.594517
_cell_length_b	12.594516
_cell_length_c	18.215399
_cell_angle_alpha	89.977894
_cell_angle_beta	89.979999
_cell_angle_gamma	90.015853
loop_
_atom_site_label
_atom_site_type_symbol
_atom_site_fract_x
_atom_site_fract_y
_atom_site_fract_z
Zn1	Zn	1.627253	-0.423759	-0.416149
Zn2	Zn	1.627148	-0.601756	-0.293095
Zn3	Zn	1.449261	-0.423792	-0.293096
Zn4	Zn	1.449239	-0.601695	-0.416120
O5	O	1.538225	-0.512750	-0.354615
O6	O	1.776185	-0.447382	-0.399838
O7	O	1.603516	-0.578188	-0.190111
O8	O	1.472925	-0.274841	-0.309432
O9	O	1.776108	-0.578156	-0.309431
O10	O	1.603695	-0.274817	-0.399838
O11	O	1.472823	-0.447438	-0.190112
O12	O	1.300312	-0.447379	-0.309404
O13	O	1.472888	-0.578052	-0.519108
O14	O	1.300296	-0.578084	-0.399789
O15	O	1.603674	-0.447323	-0.519129
O16	O	1.603495	-0.750694	-0.309402
O17	O	1.472786	-0.750649	-0.399788
C18	C	1.261684	-0.512729	-0.354593
C19	C	1.143379	-0.512746	-0.354602
C20	C	1.074104	-0.441558	-0.305535
C21	C	1.003293	-0.538645	-0.287436
C22	C	1.003390	-0.415706	-0.372713
C23	C	1.074127	-0.609883	-0.336467
C24	C	1.074230	-0.486879	-0.421776
C25	C	1.003452	-0.584033	-0.403702
C26	C	1.538156	-0.789291	-0.354608
C27	C	1.538223	-0.907597	-0.354629
C28	C	1.467124	-0.976864	-0.403756
C29	C	1.441192	-1.047722	-0.336603
C30	C	1.564251	-1.047537	-0.421794
C31	C	1.512241	-0.976897	-0.287441
C32	C	1.635344	-0.976706	-0.372677
C33	C	1.609450	-1.047532	-0.305478
C34	C	1.815846	-0.512773	-0.354637
C35	C	1.934152	-0.512782	-0.354647
C36	C	1.538290	-0.512677	-0.546568
C37	C	1.538318	-0.512646	-0.628367
C38	C	1.538324	-0.235129	-0.354638
C39	C	1.538367	-0.116824	-0.354648
C40	C	1.606443	-0.444511	-0.816573
C41	C	1.606455	-0.444480	-0.893432
C42	C	1.470268	-0.580615	-0.893399
C43	C	1.470251	-0.580640	-0.816541
C44	C	1.538344	-0.512590	-0.778131
C45	C	1.538374	-0.512534	-0.931847
C46	C	1.538387	-0.512501	-1.015180
C47	C	1.538330	-0.512621	-0.694792
C48	C	1.538222	-0.512747	-0.163409
C49	C	1.538401	-0.512478	-0.081610
H50	H	1.105413	-0.464949	-0.478548
O51	O	1.733308	-0.939589	-0.390821
C52	C	1.808462	-0.977140	-0.339679
H53	H	1.776980	-1.052268	-0.312353
H54	H	1.886099	-0.995722	-0.369187
H55	H	1.823080	-0.913797	-0.296144
O56	O	1.681239	-1.084508	-0.255927
C57	C	1.681118	-1.196447	-0.256888
H58	H	1.649437	-1.225571	-0.311933
H59	H	1.765544	-1.226844	-0.248723
H60	H	1.628276	-1.227443	-0.210787
H61	H	1.414790	-0.636077	-0.785240
O62	O	1.590579	-1.084683	-0.489488
C63	C	1.683860	-1.146129	-0.484492
H64	H	1.693360	-1.176684	-0.425944
H65	H	1.678267	-1.216272	-0.523841
H66	H	1.755381	-1.095122	-0.499651
O67	O	1.343353	-1.084994	-0.318272
C68	C	1.350808	-1.146614	-0.253841
H69	H	1.424703	-1.122402	-0.221826
H70	H	1.277352	-1.133055	-0.218483
H71	H	1.356395	-1.234209	-0.269112
O72	O	1.404285	-0.646835	-0.930746
C73	C	1.464871	-0.715551	-0.975216
H74	H	1.548693	-0.722137	-0.952064
H75	H	1.426349	-0.797461	-0.976075
H76	H	1.468564	-0.682623	-1.033469
O77	O	1.395192	-0.940014	-0.453254
C78	C	1.344229	-1.026480	-0.487521
H79	H	1.349766	-1.099408	-0.450633
H80	H	1.257205	-1.006094	-0.497367
H81	H	1.384504	-1.043858	-0.542272
O82	O	1.486105	-0.940093	-0.219622
C83	C	1.560754	-0.976962	-0.167893
H84	H	1.638260	-0.997156	-0.197053
H85	H	1.575914	-0.912555	-0.125205
H86	H	1.528452	-1.050985	-0.139593
O87	O	1.672612	-0.378303	-0.779374
C88	C	1.732737	-0.318227	-0.829790
H89	H	1.689152	-0.314525	-0.884571
H90	H	1.744110	-0.234372	-0.807596
H91	H	1.813565	-0.357202	-0.837971
H92	H	1.105126	-0.381416	-0.263990
H93	H	0.972625	-0.644319	-0.445216
O94	O	1.672656	-0.378497	-0.930858
C95	C	1.741407	-0.439079	-0.975310
H96	H	1.703846	-0.519737	-0.986810
H97	H	1.755690	-0.395704	-1.029362
H98	H	1.820278	-0.450786	-0.945703
H99	H	0.972136	-0.560546	-0.230647
H100	H	0.972263	-0.333637	-0.387988
O101	O	1.111209	-0.707759	-0.318114
C102	C	1.223151	-0.706553	-0.318301
H103	H	1.252454	-0.621715	-0.310206
H104	H	1.254013	-0.758710	-0.271812
H105	H	1.253505	-0.738259	-0.373033
