data_functionalizedCrystal
_audit_creation_method	'MofGen! by Chris Wilmer'
_symmetry_space_group_name_H-M	'P1'
_symmetry_Int_Tables_number	1
_symmetry_cell_setting	triclinic
loop_
_symmetry_equiv_pos_as_xyz
  x,y,z
_cell_length_a	15.995350
_cell_length_b	14.519709
_cell_length_c	13.596369
_cell_angle_alpha	89.999709
_cell_angle_beta	89.996243
_cell_angle_gamma	96.413740
loop_
_atom_site_label
_atom_site_type_symbol
_atom_site_fract_x
_atom_site_fract_y
_atom_site_fract_z
O1	O	0.109760	-1.223669	-0.081658
O2	O	0.609760	-0.723669	0.418342
O3	O	0.122685	-0.955169	-0.081688
O4	O	0.622685	-0.455169	0.418312
O5	O	-0.005654	-1.096759	-0.081671
O6	O	0.494346	-0.596759	0.418329
O7	O	0.238099	-1.082079	-0.081675
O8	O	0.738099	-0.582079	0.418325
O9	O	-0.005661	-1.096744	0.081912
O10	O	0.494339	-0.596744	0.581912
O11	O	0.122679	-0.955155	0.081895
O12	O	0.622679	-0.455155	0.581895
O13	O	0.109753	-1.223655	0.081925
O14	O	0.609753	-0.723655	0.581925
Zn15	Zn	0.116215	-1.089403	0.107882
Zn16	Zn	0.616215	-0.589403	0.607882
Zn17	Zn	0.116224	-1.089421	-0.107645
Zn18	Zn	0.616224	-0.589421	0.392355
O19	O	0.238093	-1.082065	0.081908
O20	O	0.738093	-0.582065	0.581908
C21	C	0.122080	-0.920803	0.000100
C22	C	0.622080	-0.420803	0.500100
C23	C	0.120275	-0.818425	0.000088
C24	C	0.620275	-0.318425	0.500088
C25	C	-0.036853	-1.096145	0.000118
C26	C	0.463147	-0.596145	0.500118
C27	C	-0.129806	-1.094325	0.000112
C28	C	0.370194	-0.594325	0.500112
N29	N	0.116208	-1.089397	0.254974
N30	N	0.616208	-0.589397	0.754974
C31	C	-0.467563	-1.087791	0.000115
C32	C	0.032437	-0.587791	0.500115
C33	C	-0.420280	-0.986954	-0.000263
C34	C	0.079720	-0.486954	0.499737
C35	C	-0.323587	-0.988773	0.000106
C36	C	0.176413	-0.488773	0.500106
C37	C	-0.299998	-1.091032	0.000113
C38	C	0.200002	-0.591032	0.500113
C39	C	-0.341005	-1.140761	0.093531
C40	C	0.158995	-0.640761	0.593531
C41	C	-0.437644	-1.138228	0.093609
C42	C	0.062356	-0.638228	0.593609
C43	C	-0.437992	-1.140327	-0.092415
C44	C	0.062008	-0.640327	0.407585
C45	C	-0.341046	-1.140303	-0.093650
C46	C	0.158954	-0.640303	0.406350
C47	C	-0.205298	-1.092869	0.000115
C48	C	0.294702	-0.592869	0.500115
C49	C	-0.562264	-1.085957	0.000119
C50	C	-0.062264	-0.585957	0.500119
C51	C	0.269292	-1.082679	0.000116
C52	C	0.769292	-0.582679	0.500116
C53	C	0.362245	-1.084498	0.000116
C54	C	0.862245	-0.584498	0.500116
C55	C	0.110359	-1.258021	0.000135
C56	C	0.610359	-0.758021	0.500135
C57	C	0.112164	-1.360399	0.000140
C58	C	0.612164	-0.860399	0.500140
C59	C	0.113629	-0.443541	0.000133
C60	C	0.613629	0.056459	0.500133
C61	C	0.115475	-0.547846	0.000120
C62	C	0.615475	-0.047846	0.500120
C63	C	0.116952	-0.630980	0.000110
C64	C	0.616952	-0.130980	0.500110
C65	C	0.118797	-0.735291	0.000099
C66	C	0.618797	-0.235291	0.500099
N67	N	0.116224	-1.089434	-0.254737
N68	N	0.616224	-0.589434	0.245263
C69	C	0.116225	-1.089420	0.656265
C70	C	0.616225	-0.589420	1.156265
C71	C	0.116223	-1.089411	0.544614
C72	C	0.616223	-0.589411	1.044614
C73	C	0.116217	-1.089409	0.455623
C74	C	0.616217	-0.589409	0.955623
C75	C	0.116214	-1.089399	0.343965
C76	C	0.616214	-0.589399	0.843965
H77	H	-0.295221	-0.949683	-0.066860
H78	H	0.204779	-0.449683	0.433140
H79	H	-0.469641	-1.214674	-0.093038
H80	H	0.030359	-0.714674	0.406962
Cl81	Cl	-0.280655	-0.927994	0.103657
Cl82	Cl	0.219345	-0.427994	0.603657
H83	H	-0.469782	-1.212261	0.097852
H84	H	0.030218	-0.712261	0.597852
H85	H	-0.458578	-1.107364	-0.163220
H86	H	0.041422	-0.607364	0.336780
Cl87	Cl	-0.448978	-0.924731	-0.103694
Cl88	Cl	0.051022	-0.424731	0.396306
Cl89	Cl	-0.297276	-1.087419	0.200857
Cl90	Cl	0.202724	-0.587419	0.700857
H91	H	-0.439937	-0.946823	0.066347
H92	H	0.060063	-0.446823	0.566347
Cl93	Cl	-0.298566	-1.084630	-0.200365
Cl94	Cl	0.201434	-0.584630	0.299635
Cl95	Cl	-0.465992	-1.082218	0.201410
Cl96	Cl	0.034008	-0.582218	0.701410
H97	H	-0.326767	-1.215888	0.097010
H98	H	0.173233	-0.715888	0.597010
Cl99	Cl	-0.317153	-1.255437	-0.102357
Cl100	Cl	0.182847	-0.755437	0.397643
