data_functionalizedCrystal
_audit_creation_method	'MofGen! by Chris Wilmer'
_symmetry_space_group_name_H-M	'P1'
_symmetry_Int_Tables_number	1
_symmetry_cell_setting	triclinic
loop_
_symmetry_equiv_pos_as_xyz
  x,y,z
_cell_length_a	14.971507
_cell_length_b	14.971486
_cell_length_c	14.048226
_cell_angle_alpha	89.998499
_cell_angle_beta	89.991410
_cell_angle_gamma	83.618396
loop_
_atom_site_label
_atom_site_type_symbol
_atom_site_fract_x
_atom_site_fract_y
_atom_site_fract_z
O1	O	-0.116563	-1.186956	0.079056
O2	O	-0.130522	-0.926557	0.079082
O3	O	0.006656	-1.063726	0.079057
O4	O	-0.253742	-1.049787	0.079081
O5	O	0.006664	-1.063709	-0.079264
O6	O	-0.130514	-0.926540	-0.079239
O7	O	-0.116555	-1.186939	-0.079266
Zn8	Zn	-0.123533	-1.056737	-0.104389
Zn9	Zn	-0.123544	-1.056759	0.104206
O10	O	-0.253734	-1.049770	-0.079240
C11	C	-0.129894	-0.893224	-0.000075
C12	C	-0.128023	-0.793926	-0.000065
C13	C	0.039984	-1.063091	-0.000105
C14	C	0.139281	-1.061213	-0.000107
C15	C	0.577563	-1.134630	-0.000145
C16	C	0.484263	-1.136387	-0.000145
C17	C	0.427043	-1.055795	-0.000130
C18	C	0.463127	-0.973440	-0.000125
C19	C	0.556426	-0.971683	-0.000132
C20	C	0.268664	-0.977107	-0.000108
C21	C	0.175359	-0.978864	-0.000099
C22	C	0.196501	-1.141811	-0.000121
C23	C	0.289800	-1.140055	-0.000128
C24	C	0.325878	-1.057699	-0.000121
C25	C	-0.117184	-1.220272	-0.000106
C26	C	-0.119054	-1.319569	-0.000109
C27	C	0.712938	-1.050404	-0.000094
C28	C	0.613642	-1.052281	-0.000137
C29	C	-0.208612	-0.736707	-0.000059
C30	C	-0.206848	-0.643408	-0.000074
C31	C	-0.124496	-0.607329	-0.000087
C32	C	-0.043901	-0.664556	-0.000096
C33	C	-0.045665	-0.757853	-0.000089
C34	C	-0.040230	-0.470093	-0.000110
C35	C	-0.038466	-0.376789	-0.000116
C36	C	-0.201413	-0.355647	-0.000095
C37	C	-0.203177	-0.448945	-0.000087
C38	C	-0.122582	-0.506165	-0.000094
N39	N	-0.123526	-1.056729	-0.246750
C40	C	-0.062808	-1.117486	-0.296579
C41	C	-0.062808	-1.117492	-0.396237
C42	C	-0.123530	-1.056744	-0.446063
C43	C	-0.184250	-0.995980	-0.396227
C44	C	-0.184245	-0.995971	-0.296571
C45	C	-0.184256	-0.996006	-0.603941
C46	C	-0.184262	-0.996017	-0.703604
C47	C	-0.062819	-1.117528	-0.703607
C48	C	-0.062814	-1.117518	-0.603951
C49	C	-0.123536	-1.056755	-0.554122
N50	N	-0.123545	-1.056774	0.246567
H51	H	0.624146	-1.200258	-0.000150
Cl52	Cl	0.151147	-1.245344	-0.000129
H53	H	0.416531	-0.907820	-0.000118
Cl54	Cl	0.061091	-0.542026	-0.000121
H55	H	0.028593	-0.347417	-0.000128
H56	H	-0.270236	-0.478316	-0.000067
H57	H	0.454893	-1.203444	-0.000153
H58	H	-0.267037	-0.309053	-0.000093
Cl59	Cl	0.059628	-0.619200	-0.000120
H60	H	-0.275672	-0.766074	-0.000047
H61	H	0.019958	-0.804441	-0.000093
Cl62	Cl	0.013529	-1.193864	-0.233951
H63	H	0.585799	-0.904626	-0.000133
Cl64	Cl	0.013516	-1.193892	-0.541310
H65	H	-0.233707	-0.946548	-0.744168
H66	H	-0.013367	-1.166965	-0.436807
Cl67	Cl	0.013514	-1.193916	-0.766253
H68	H	-0.233700	-0.946523	-0.563373
H69	H	-0.233688	-0.946514	-0.436802
H70	H	-0.233686	-0.946495	-0.256001
H71	H	0.336387	-1.205680	-0.000135
H72	H	0.128772	-0.913238	-0.000092
H73	H	0.298035	-0.910045	-0.000115
Cl74	Cl	-0.308165	-0.571478	-0.000060
