data_functionalizedCrystal
_audit_creation_method	'MofGen! by Chris Wilmer'
_symmetry_space_group_name_H-M	'P1'
_symmetry_Int_Tables_number	1
_symmetry_cell_setting	triclinic
loop_
_symmetry_equiv_pos_as_xyz
  x,y,z
_cell_length_a	18.050589
_cell_length_b	18.215407
_cell_length_c	18.215407
_cell_angle_alpha	89.989764
_cell_angle_beta	90.007870
_cell_angle_gamma	89.971331
loop_
_atom_site_label
_atom_site_type_symbol
_atom_site_fract_x
_atom_site_fract_y
_atom_site_fract_z
Zn1	Zn	-0.295774	-1.124985	0.416138
Zn2	Zn	-0.419934	-1.124907	0.293081
Zn3	Zn	-0.295764	-1.001938	0.293085
Zn4	Zn	-0.419927	-1.001876	0.416106
O5	O	-0.357850	-1.063427	0.354602
O6	O	-0.312251	-1.227959	0.399826
O7	O	-0.403462	-1.108588	0.190097
O8	O	-0.191840	-1.018319	0.309424
O9	O	-0.403471	-1.227902	0.309416
O10	O	-0.191848	-1.108721	0.399830
O11	O	-0.312234	-1.018244	0.190100
O12	O	-0.312227	-0.898946	0.309393
O13	O	-0.403459	-1.018214	0.519094
O14	O	-0.403450	-0.898900	0.399775
O15	O	-0.312244	-1.108661	0.519118
O16	O	-0.523858	-1.108528	0.309385
O17	O	-0.523853	-1.018138	0.399771
C18	C	-0.550802	-1.063338	0.354590
C19	C	-0.633348	-1.063367	0.354610
C20	C	-0.357837	-0.872220	0.354581
C21	C	-0.357849	-0.790422	0.354590
C22	C	-0.357852	-1.063439	0.546555
C23	C	-0.357853	-1.063445	0.628354
C24	C	-0.832822	-1.014261	0.403744
C25	C	-0.882244	-0.996333	0.336590
C26	C	-0.784478	-1.063440	0.354619
C27	C	-0.882138	-1.081404	0.421781
C28	C	-0.930463	-1.063508	0.354634
C29	C	-0.832813	-1.045476	0.287430
C30	C	-0.832702	-1.130578	0.372666
C31	C	-0.882101	-1.112675	0.305465
C32	C	-0.700380	-1.063398	0.354611
C33	C	-1.014560	-1.063549	0.354635
C34	C	-0.164144	-1.063536	0.354631
C35	C	-0.081598	-1.063583	0.354643
C36	C	-0.357863	-1.255380	0.354624
C37	C	-0.357869	-1.337179	0.354633
C38	C	-0.405424	-0.602223	0.401593
C39	C	-0.405426	-0.525364	0.401602
C40	C	-0.310289	-0.525382	0.307628
C41	C	-0.310284	-0.602240	0.307623
C42	C	-0.357855	-0.640658	0.354604
C43	C	-0.357863	-0.486942	0.354619
C44	C	-0.357865	-0.403608	0.354628
C45	C	-0.357852	-0.723997	0.354596
C46	C	-0.310365	-1.110526	0.816562
C47	C	-0.310364	-1.110522	0.893420
C48	C	-0.405351	-1.016340	0.893385
C49	C	-0.405347	-1.016340	0.816527
C50	C	-0.357855	-1.063438	0.778118
C51	C	-0.357859	-1.063433	0.931834
C52	C	-0.357859	-1.063428	1.015167
C53	C	-0.357854	-1.063442	0.694779
C54	C	-0.357864	-1.063414	1.163396
C55	C	-0.357861	-1.063426	1.081597
H56	H	-0.811183	-0.972612	0.445229
H57	H	-0.271543	-0.633534	0.269359
H58	H	-0.271692	-1.148865	0.924718
H59	H	-0.271691	-1.148874	0.785291
O60	O	-0.803854	-1.205726	0.392908
H61	H	-0.770029	-1.227708	0.347015
O62	O	-0.456575	-0.965544	0.934811
H63	H	-0.448605	-0.973457	0.994714
O64	O	-0.258998	-0.483931	0.256952
H65	H	-0.200726	-0.498694	0.269666
O66	O	-0.456550	-0.965529	0.775054
H67	H	-0.489575	-0.932779	0.814673
O68	O	-0.910835	-1.101502	0.497007
H69	H	-0.891098	-1.060562	0.537667
H70	H	-0.904022	-0.939588	0.321340
H71	H	-0.444157	-0.633501	0.439850
H72	H	-0.811236	-1.030243	0.230622
O73	O	-0.456814	-0.483907	0.452200
H74	H	-0.489922	-0.523536	0.484833
H75	H	-0.903603	-1.154293	0.263880
