data_functionalizedCrystal
_audit_creation_method	'MofGen! by Chris Wilmer'
_symmetry_space_group_name_H-M	'P1'
_symmetry_Int_Tables_number	1
_symmetry_cell_setting	triclinic
loop_
_symmetry_equiv_pos_as_xyz
  x,y,z
_cell_length_a	15.995350
_cell_length_b	11.792241
_cell_length_c	10.268362
_cell_angle_alpha	90.005428
_cell_angle_beta	90.000938
_cell_angle_gamma	83.842895
loop_
_atom_site_label
_atom_site_type_symbol
_atom_site_fract_x
_atom_site_fract_y
_atom_site_fract_z
O1	O	-1.111650	-0.146296	-0.108190
O2	O	-0.867956	-0.164362	-0.108217
O3	O	-0.995717	0.009891	-0.108194
O4	O	-0.983889	-0.320549	-0.108214
O5	O	-0.995706	0.009898	0.108407
O6	O	-0.867945	-0.164355	0.108383
O7	O	-1.111638	-0.146289	0.108410
Cu8	Cu	-0.989791	-0.155321	0.128174
Cu9	Cu	-0.989804	-0.155330	-0.127981
O10	O	-0.983878	-0.320542	0.108387
C11	C	-0.994968	0.052179	0.000106
C12	C	-0.992745	0.178174	0.000104
C13	C	-0.836753	-0.163612	0.000080
C14	C	-0.743792	-0.161372	0.000070
C15	C	-1.142842	-0.147040	0.000110
C16	C	-1.235803	-0.149279	0.000112
C17	C	-0.406008	-0.153331	0.000097
C18	C	-0.452879	-0.029232	0.000588
C19	C	-0.549579	-0.031471	0.000090
C20	C	-0.573587	-0.157320	0.000084
C21	C	-0.532784	-0.218534	-0.123604
C22	C	-0.436134	-0.215417	-0.123698
C23	C	-0.435794	-0.217972	0.122617
C24	C	-0.532739	-0.217943	0.124243
C25	C	-0.668295	-0.159581	0.000073
C26	C	-0.311300	-0.151074	0.000100
C27	C	-0.984627	-0.362830	0.000084
C28	C	-0.986850	-0.488825	0.000077
N29	N	-0.989788	-0.155315	0.308340
C30	C	-0.988655	0.408852	0.000082
C31	C	-0.990927	0.280486	0.000094
N32	N	-0.989814	-0.155327	-0.308147
C33	C	-0.989800	-0.155328	0.574011
C34	C	-0.989790	-0.155324	0.426173
H35	H	-0.577785	0.016646	0.088756
C36	C	-0.355882	-0.243733	0.320386
C37	C	-0.407830	-0.163097	0.249125
H38	H	-0.338616	-0.209812	0.398459
H39	H	-0.385982	-0.306534	0.341135
H40	H	-0.307808	-0.269525	0.269896
H41	H	-0.455907	-0.137311	0.299611
H42	H	-0.377729	-0.100275	0.228379
H43	H	-0.559848	-0.173257	0.215747
C44	C	-0.643930	0.125452	-0.079133
C45	C	-0.586905	0.033902	-0.119811
H46	H	-0.666968	0.165812	-0.153162
H47	H	-0.687851	0.097399	-0.030510
H48	H	-0.615639	0.175244	-0.026156
H49	H	-0.615198	-0.015895	-0.172781
H50	H	-0.542977	0.061955	-0.168456
H51	H	-0.434127	0.020377	0.089290
H52	H	-0.417628	-0.170782	-0.216153
C53	C	-0.468303	0.147798	-0.116933
C54	C	-0.426133	0.037434	-0.118480
H55	H	-0.451786	0.188952	-0.190439
H56	H	-0.527245	0.143613	-0.119848
H57	H	-0.454465	0.185682	-0.039471
H58	H	-0.439976	-0.000453	-0.195939
H59	H	-0.367179	0.041615	-0.115577
H60	H	-0.404299	-0.306528	-0.129316
H61	H	-0.548521	-0.309715	0.131709
C62	C	-0.596418	-0.360841	-0.244727
C63	C	-0.552419	-0.343348	-0.129838
H64	H	-0.608535	-0.437898	-0.248575
H65	H	-0.647478	-0.311639	-0.245865
H66	H	-0.563072	-0.344868	-0.317658
H67	H	-0.585768	-0.359314	-0.056906
H68	H	-0.501351	-0.392567	-0.128689
H69	H	-0.404448	-0.309470	0.123449
H70	H	-0.560970	-0.176023	-0.215650
