data_functionalizedCrystal
_audit_creation_method	'MofGen! by Chris Wilmer'
_symmetry_space_group_name_H-M	'P1'
_symmetry_Int_Tables_number	1
_symmetry_cell_setting	triclinic
loop_
_symmetry_equiv_pos_as_xyz
  x,y,z
_cell_length_a	17.038272
_cell_length_b	13.101039
_cell_length_c	14.044220
_cell_angle_alpha	93.667477
_cell_angle_beta	92.150217
_cell_angle_gamma	86.404528
loop_
_atom_site_label
_atom_site_type_symbol
_atom_site_fract_x
_atom_site_fract_y
_atom_site_fract_z
O1	O	1.055801	-0.085089	0.202095
O2	O	1.555801	0.414911	0.702095
O3	O	0.827941	-0.085119	0.198806
O4	O	1.327941	0.414881	0.698806
O5	O	0.938450	-0.085095	0.062191
O6	O	1.438450	0.414905	0.562191
O7	O	0.945292	-0.085114	0.338710
O8	O	1.445292	0.414886	0.838710
O9	O	0.930523	0.085333	0.072010
O10	O	1.430523	0.585333	0.572010
O11	O	0.820014	0.085309	0.208625
O12	O	1.320014	0.585309	0.708625
O13	O	1.047873	0.085339	0.211914
O14	O	1.547873	0.585339	0.711914
Zn15	Zn	0.932685	0.112383	0.211829
Zn16	Zn	1.432685	0.612383	0.711829
Zn17	Zn	0.943130	-0.112163	0.198891
Zn18	Zn	1.443130	0.387837	0.698891
O19	O	0.937364	0.085314	0.348530
O20	O	1.437364	0.585314	0.848530
C21	C	0.794640	0.000091	0.200726
C22	C	1.294640	0.500091	0.700726
C23	C	0.707224	0.000080	0.191806
C24	C	1.207224	0.500080	0.691806
C25	C	0.931492	0.000119	0.031544
C26	C	1.431492	0.500119	0.531544
C27	C	0.922561	0.000119	-0.074402
C28	C	1.422561	0.500119	0.425598
C29	C	0.662839	0.000075	0.273694
C30	C	1.162839	0.500075	0.773694
C31	C	0.580701	0.000090	0.265309
C32	C	1.080701	0.500090	0.765309
C33	C	0.542950	0.000102	0.175034
C34	C	1.042950	0.500102	0.675034
C35	C	0.587341	0.000110	0.093140
C36	C	1.087341	0.500110	0.593140
C37	C	0.669477	0.000102	0.101527
C38	C	1.169477	0.500102	0.601527
C39	C	0.295118	0.000131	0.145406
C40	C	0.795118	0.500131	0.645406
C41	C	0.212976	0.000136	0.137025
C42	C	0.712976	0.500136	0.637025
C43	C	0.206341	0.000117	0.309195
C44	C	0.706341	0.500117	0.809195
C45	C	0.288480	0.000104	0.317573
C46	C	0.788480	0.500104	0.817573
C47	C	0.332863	0.000117	0.235680
C48	C	0.832863	0.500117	0.735680
C49	C	0.458992	0.000114	0.166461
C50	C	0.958992	0.500114	0.666461
C51	C	0.416819	0.000113	0.244254
C52	C	0.916819	0.500113	0.744254
C53	C	1.081174	0.000126	0.209994
C54	C	1.581174	0.500126	0.709994
C55	C	1.168591	0.000131	0.218913
C56	C	1.668591	0.500131	0.718913
N57	N	0.925562	0.265630	0.220658
N58	N	1.425562	0.765630	0.720658
N59	N	0.950258	-0.265410	0.190055
N60	N	1.450258	0.234590	0.690055
C61	C	0.915872	0.474670	0.232680
C62	C	1.415872	0.974670	0.732680
C63	C	0.959946	0.525556	0.178037
C64	C	1.459946	1.025556	0.678037
C65	C	0.954554	0.641873	0.184725
C66	C	1.454554	1.141873	0.684725
C67	C	0.921263	0.358342	0.225992
C68	C	1.421263	0.858342	0.725992
C69	C	0.906233	0.000103	-0.268381
C70	C	1.406233	0.500103	0.231619
C71	C	0.969578	0.000108	-0.320905
C72	C	1.469578	0.500108	0.179095
C73	C	0.960493	0.000098	-0.428842
C74	C	1.460493	0.500098	0.071158
C75	C	0.915317	0.000112	-0.160434
C76	C	1.415317	0.500112	0.339566
C77	C	0.944322	0.000098	0.379176
C78	C	1.444322	0.500098	0.879176
C79	C	0.953254	0.000091	0.485121
C80	C	1.453254	0.500091	0.985121
H81	H	0.693569	0.000064	0.347205
H82	H	1.193569	0.500064	0.847205
O83	O	1.042443	-0.000050	-0.277908
O84	O	1.542443	0.499950	0.222092
C85	C	1.087646	-0.088293	-0.310640
C86	C	1.587646	0.411707	0.189360
H87	H	1.046798	-0.150004	-0.338362
H88	H	1.546798	0.349996	0.161638
H89	H	1.126599	-0.117901	-0.249343
H90	H	1.626599	0.382099	0.250657
H91	H	1.126093	-0.068331	-0.370681
H92	H	1.626093	0.431669	0.129319
H93	H	0.319211	0.000082	0.391084
H94	H	0.819211	0.500082	0.891084
O95	O	0.537631	-0.000101	0.344875
O96	O	1.037631	0.499899	0.844875
C97	C	0.559793	-0.088366	0.394211
C98	C	1.059793	0.411634	0.894211
H99	H	0.587171	-0.150054	0.342585
H100	H	1.087171	0.349946	0.842585
H101	H	0.505647	-0.117992	0.426040
H102	H	1.005647	0.382008	0.926040
H103	H	0.604478	-0.068425	0.453900
H104	H	1.104478	0.431575	0.953900
O105	O	0.833447	-0.000039	-0.311550
O106	O	1.333447	0.499961	0.188450
C107	C	0.828524	-0.088321	-0.373872
C108	C	1.328524	0.411679	0.126128
H109	H	0.890167	-0.117750	-0.395203
H110	H	1.390167	0.382250	0.104797
H111	H	0.791813	-0.068471	-0.440435
H112	H	1.291813	0.431529	0.059565
H113	H	0.799612	-0.150126	-0.336373
H114	H	1.299612	0.349874	0.163627
O115	O	0.163106	0.000158	0.388647
O116	O	0.663106	0.500158	0.888647
C117	C	0.082517	0.000141	0.361891
C118	C	0.582517	0.500141	0.861891
H119	H	0.072653	0.032412	0.288624
H120	H	0.572653	0.532412	0.788624
H121	H	0.046887	0.049621	0.416533
H122	H	0.546887	0.549621	0.916533
H123	H	0.062843	-0.081620	0.358883
H124	H	0.562843	0.418380	0.858883
H125	H	0.182242	0.000145	0.063509
H126	H	0.682242	0.500145	0.563509
H127	H	0.331245	0.000143	0.078722
H128	H	0.831245	0.500143	0.578722
O129	O	0.866076	0.526789	0.294610
O130	O	1.366076	1.026789	0.794610
C131	C	0.886777	0.500680	0.388503
C132	C	1.386777	1.000680	0.888503
H133	H	0.920630	0.422747	0.386378
H134	H	1.420630	0.922747	0.886378
H135	H	0.831174	0.497145	0.430564
H136	H	1.331174	0.997145	0.930564
H137	H	0.925264	0.561033	0.424492
H138	H	1.425264	1.061033	0.924492
H139	H	1.001729	0.481763	0.126232
H140	H	1.501729	0.981763	0.626232
H141	H	0.556597	0.000135	0.019637
H142	H	1.056597	0.500135	0.519637
H143	H	0.705615	0.000106	0.034845
H144	H	1.205615	0.500106	0.534845
H145	H	0.447559	0.000108	0.317756
H146	H	0.947559	0.500108	0.817756
H147	H	0.428245	0.000153	0.092960
H148	H	0.928245	0.500153	0.592960
