data_functionalizedCrystal
_audit_creation_method	'MofGen! by Chris Wilmer'
_symmetry_space_group_name_H-M	'P1'
_symmetry_Int_Tables_number	1
_symmetry_cell_setting	triclinic
loop_
_symmetry_equiv_pos_as_xyz
  x,y,z
_cell_length_a	18.215407
_cell_length_b	18.215405
_cell_length_c	18.215399
_cell_angle_alpha	89.967040
_cell_angle_beta	89.983176
_cell_angle_gamma	90.025333
loop_
_atom_site_label
_atom_site_type_symbol
_atom_site_fract_x
_atom_site_fract_y
_atom_site_fract_z
Zn1	Zn	1.125050	-0.292966	-0.416103
Zn2	Zn	1.458383	0.040368	-0.082769
Zn3	Zn	1.791717	0.373701	0.250564
Zn4	Zn	1.124965	-0.416042	-0.293031
Zn5	Zn	1.458298	-0.082709	0.040303
Zn6	Zn	1.791632	0.250625	0.373636
Zn7	Zn	1.001989	-0.292995	-0.293050
Zn8	Zn	1.335322	0.040339	0.040283
Zn9	Zn	1.668656	0.373672	0.373617
Zn10	Zn	1.001949	-0.415996	-0.416056
Zn11	Zn	1.335282	-0.082663	-0.082722
Zn12	Zn	1.668615	0.250671	0.250611
O13	O	1.063488	-0.354500	-0.354560
O14	O	1.396822	-0.021166	-0.021226
O15	O	1.730155	0.312167	0.312107
O16	O	1.228023	-0.309299	-0.399788
O17	O	1.561356	0.024034	-0.066455
O18	O	1.894690	0.357368	0.266878
O19	O	1.108633	-0.399751	-0.190049
O20	O	1.441967	-0.066418	0.143284
O21	O	1.775300	0.266916	0.476618
O22	O	1.018366	-0.190007	-0.309401
O23	O	1.351699	0.143327	0.023932
O24	O	1.685033	0.476660	0.357266
O25	O	1.227961	-0.399723	-0.309368
O26	O	1.561294	-0.066389	0.023965
O27	O	1.894627	0.266944	0.357299
O28	O	1.108778	-0.189985	-0.399807
O29	O	1.442112	0.143348	-0.066474
O30	O	1.775445	0.476682	0.266860
O31	O	1.018283	-0.309349	-0.190063
O32	O	1.351617	0.023985	0.143270
O33	O	1.684950	0.357318	0.476604
O34	O	0.898999	-0.309304	-0.309355
O35	O	1.232333	0.024029	0.023978
O36	O	1.565666	0.357363	0.357311
O37	O	1.018297	-0.399644	-0.519046
O38	O	1.351630	-0.066311	-0.185713
O39	O	1.684964	0.267023	0.147621
O40	O	0.898970	-0.399672	-0.399727
O41	O	1.232303	-0.066339	-0.066394
O42	O	1.565636	0.266994	0.266940
O43	O	1.108739	-0.309254	-0.519081
O44	O	1.442072	0.024079	-0.185747
O45	O	1.775406	0.357412	0.147586
O46	O	1.108594	-0.519020	-0.309322
O47	O	1.441927	-0.185687	0.024011
O48	O	1.775261	0.147647	0.357344
O49	O	1.018214	-0.518986	-0.399708
O50	O	1.351548	-0.185653	-0.066375
O51	O	1.684881	0.147680	0.266958
C52	C	0.872282	-0.354487	-0.354539
C53	C	1.205615	-0.021154	-0.021205
C54	C	1.538949	0.312180	0.312128
C55	C	0.790483	-0.354499	-0.354547
C56	C	1.123816	-0.021166	-0.021214
C57	C	1.457150	0.312167	0.312120
C58	C	0.602293	-0.401628	-0.401545
C59	C	0.935626	-0.068295	-0.068211
C60	C	1.268960	0.265039	0.265122
C61	C	0.525434	-0.401630	-0.401554
C62	C	0.858767	-0.068297	-0.068220
C63	C	1.192101	0.265036	0.265113
C64	C	0.525436	-0.307384	-0.307591
C65	C	0.858769	0.025949	0.025742
C66	C	1.192102	0.359282	0.359076
C67	C	0.602293	-0.307379	-0.307586
C68	C	0.935626	0.025954	0.025747
C69	C	1.268960	0.359288	0.359081
C70	C	0.640720	-0.354505	-0.354562
C71	C	0.974053	-0.021172	-0.021228
C72	C	1.307386	0.312162	0.312105
C73	C	0.487003	-0.354513	-0.354576
C74	C	0.820337	-0.021179	-0.021242
C75	C	1.153670	0.312154	0.312091
C76	C	0.403670	-0.354515	-0.354585
C77	C	0.737003	-0.021182	-0.021252
C78	C	1.070336	0.312152	0.312081
C79	C	0.724059	-0.354502	-0.354553
C80	C	1.057392	-0.021169	-0.021220
C81	C	1.390725	0.312165	0.312113
C82	C	1.063410	-0.545706	-0.354524
C83	C	1.396744	-0.212373	-0.021191
C84	C	1.730077	0.120961	0.312142
C85	C	1.063445	-0.627505	-0.354534
C86	C	1.396778	-0.294171	-0.021200
C87	C	1.730111	0.039162	0.312133
C88	C	1.110616	-0.815692	-0.307556
C89	C	1.443949	-0.482358	0.025777
C90	C	1.777282	-0.149025	0.359110
C91	C	1.110649	-0.892551	-0.307574
C92	C	1.443982	-0.559217	0.025759
C93	C	1.777315	-0.225884	0.359092
C94	C	1.016455	-0.892555	-0.401616
C95	C	1.349788	-0.559222	-0.068283
C96	C	1.683121	-0.225889	0.265051
C97	C	1.016426	-0.815698	-0.401601
C98	C	1.349759	-0.482365	-0.068268
C99	C	1.683093	-0.149031	0.265065
C100	C	1.063506	-0.777268	-0.354567
C101	C	1.396839	-0.443935	-0.021234
C102	C	1.730172	-0.110602	0.312099
C103	C	1.063567	-0.930984	-0.354600
C104	C	1.396900	-0.597651	-0.021266
C105	C	1.730234	-0.264318	0.312067
C106	C	1.063602	-1.014318	-0.354619
C107	C	1.396936	-0.680985	-0.021286
C108	C	1.730269	-0.347651	0.312047
C109	C	1.063471	-0.693929	-0.354548
C110	C	1.396805	-0.360596	-0.021215
C111	C	1.730138	-0.027263	0.312118
C112	C	1.255441	-0.354513	-0.354581
C113	C	1.588774	-0.021179	-0.021248
C114	C	1.922108	0.312154	0.312085
C115	C	1.337240	-0.354518	-0.354591
C116	C	1.670573	-0.021185	-0.021257
C117	C	2.003907	0.312148	0.312076
C118	C	1.063523	-0.354441	-0.546513
C119	C	1.396856	-0.021107	-0.213179
C120	C	1.730190	0.312226	0.120154
C121	C	1.063538	-0.354416	-0.628312
C122	C	1.396871	-0.021082	-0.294978
C123	C	1.730204	0.312251	0.038355
C124	C	1.063586	-0.162547	-0.354611
C125	C	1.396920	0.170787	-0.021278
C126	C	1.730253	0.504120	0.312055
C127	C	1.063628	-0.080748	-0.354633
C128	C	1.396961	0.252586	-0.021300
C129	C	1.730295	0.585919	0.312033
C130	C	1.016532	-0.307311	-0.816514
C131	C	1.349866	0.026022	-0.483181
C132	C	1.683199	0.359355	-0.149847
C133	C	1.016545	-0.307297	-0.893373
C134	C	1.349879	0.026037	-0.560039
C135	C	1.683212	0.359370	-0.226706
C136	C	1.110631	-0.401432	-0.893347
C137	C	1.443964	-0.068099	-0.560014
C138	C	1.777298	0.265235	-0.226681
C139	C	1.110614	-0.401450	-0.816490
C140	C	1.443947	-0.068117	-0.483157
C141	C	1.777281	0.265217	-0.149823
C142	C	1.063566	-0.354386	-0.778075
C143	C	1.396899	-0.021052	-0.444742
C144	C	1.730232	0.312281	-0.111409
C145	C	1.063596	-0.354353	-0.931791
C146	C	1.396929	-0.021019	-0.598458
C147	C	1.730262	0.312314	-0.265125
C148	C	1.063610	-0.354337	-1.015125
C149	C	1.396943	-0.021004	-0.681792
C150	C	1.730277	0.312330	-0.348458
C151	C	1.063550	-0.354402	-0.694736
C152	C	1.396884	-0.021069	-0.361403
C153	C	1.730217	0.312265	-0.028070
C154	C	1.063496	-0.354505	-0.163353
C155	C	1.396829	-0.021172	0.169980
C156	C	1.730163	0.312162	0.503313
C157	C	1.063624	-0.354323	-0.081555
C158	C	1.396957	-0.020989	0.251778
C159	C	1.730290	0.312344	0.585112
H160	H	0.494139	-0.269017	-0.269344
H161	H	0.827473	0.064316	0.063989
H162	H	1.160806	0.397650	0.397323
H163	H	1.148916	-0.439786	-0.785192
H164	H	1.482250	-0.106453	-0.451859
H165	H	1.815583	0.226880	-0.118526
H166	H	0.633581	-0.269001	-0.269327
H167	H	0.966914	0.064332	0.064006
H168	H	1.300247	0.397666	0.397340
Br169	Br	0.952492	-0.763546	-0.465413
Br170	Br	1.285826	-0.430213	-0.132079
Br171	Br	1.619159	-0.096880	0.201254
Br172	Br	0.473286	-0.465583	-0.465322
Br173	Br	0.806619	-0.132249	-0.131989
Br174	Br	1.139953	0.201084	0.201344
H175	H	0.633578	-0.439999	-0.439797
H176	H	0.966911	-0.106666	-0.106464
H177	H	1.300244	0.226667	0.226870
Br178	Br	1.174480	-0.465302	-0.945486
Br179	Br	1.507813	-0.131968	-0.612153
Br180	Br	1.841146	0.201365	-0.278819
H181	H	1.148952	-0.784404	-0.269260
H182	H	1.482285	-0.451071	0.064074
H183	H	1.815618	-0.117737	0.397407
Br184	Br	0.952699	-0.243420	-0.945537
Br185	Br	1.286032	0.089913	-0.612204
Br186	Br	1.619365	0.423247	-0.278870
Br187	Br	1.174591	-0.944694	-0.243775
Br188	Br	1.507924	-0.611361	0.089558
Br189	Br	1.841258	-0.278028	0.422892
H190	H	0.978123	-0.923854	-0.439908
H191	H	1.311457	-0.590521	-0.106575
H192	H	1.644790	-0.257187	0.226759
H193	H	0.978223	-0.268989	-0.785239
H194	H	1.311556	0.064345	-0.451906
H195	H	1.644889	0.397678	-0.118572
