data_functionalizedCrystal
_audit_creation_method	'MofGen! by Chris Wilmer'
_symmetry_space_group_name_H-M	'P1'
_symmetry_Int_Tables_number	1
_symmetry_cell_setting	triclinic
loop_
_symmetry_equiv_pos_as_xyz
  x,y,z
_cell_length_a	19.121275
_cell_length_b	19.121111
_cell_length_c	17.640968
_cell_angle_alpha	81.650773
_cell_angle_beta	99.301410
_cell_angle_gamma	90.071991
loop_
_atom_site_label
_atom_site_type_symbol
_atom_site_fract_x
_atom_site_fract_y
_atom_site_fract_z
Zn1	Zn	1.135481	0.255339	0.404642
Zn2	Zn	1.107160	0.393898	0.280465
Zn3	Zn	0.994939	0.271761	0.280012
Zn4	Zn	1.015269	0.365647	0.415667
O5	O	1.063212	0.321661	0.345196
O6	O	1.228998	0.278670	0.383745
O7	O	1.071913	0.396391	0.171664
O8	O	1.016926	0.172303	0.291741
O9	O	1.208191	0.380468	0.292513
O10	O	1.120181	0.160238	0.383306
O11	O	0.989465	0.306658	0.171331
O12	O	0.900362	0.279264	0.302431
O13	O	1.051576	0.332319	0.522945
O14	O	0.915299	0.348242	0.402096
O15	O	1.139895	0.251276	0.514846
O16	O	1.091627	0.487429	0.303203
O17	O	1.024115	0.466673	0.402536
C18	C	0.882608	0.312470	0.353411
C19	C	0.805348	0.308552	0.356945
C20	C	0.758203	0.359652	0.311027
C21	C	0.685611	0.355969	0.314358
C22	C	0.660164	0.301182	0.363602
C23	C	0.707314	0.250078	0.409525
C24	C	0.779906	0.253765	0.406198
C25	C	0.441527	0.287404	0.376031
C26	C	0.368930	0.283720	0.379353
C27	C	0.347231	0.389612	0.284187
C28	C	0.419825	0.393291	0.280861
C29	C	0.466969	0.342190	0.326786
C30	C	0.585963	0.297414	0.367006
C31	C	0.541170	0.345961	0.323386
C32	C	1.057026	0.502273	0.354131
C33	C	1.054448	0.579538	0.357976
C34	C	1.088429	0.626615	0.308105
C35	C	1.086009	0.699212	0.311726
C36	C	1.049604	0.724732	0.365215
C37	C	1.015622	0.677649	0.415091
C38	C	1.018047	0.605052	0.411473
C39	C	1.040528	0.943387	0.378727
C40	C	1.038104	1.015990	0.382339
C41	C	1.108492	1.037548	0.278975
C42	C	1.110910	0.964950	0.275359
C43	C	1.076931	0.917873	0.325238
C44	C	1.047128	0.798938	0.368916
C45	C	1.079412	0.843667	0.321540
C46	C	1.244522	0.330888	0.336950
C47	C	1.321785	0.334821	0.333436
C48	C	1.101163	0.286814	0.547879
C49	C	1.117335	0.271965	0.634250
C50	C	1.069441	1.140340	0.336253
C51	C	1.072085	1.063067	0.332468
C52	C	1.025452	0.356324	0.143298
C53	C	1.009421	0.370984	0.056911
C54	C	0.940634	0.434107	0.939400
C55	C	0.955846	0.420145	1.020558
C56	C	1.047804	0.335763	1.012114
C57	C	1.032598	0.349715	0.930953
C58	C	0.979013	0.398888	0.894603
C59	C	1.070977	0.314496	0.886157
C60	C	1.055775	0.328450	0.805003
C61	C	1.002194	0.377622	0.768647
C62	C	0.963811	0.412842	0.813450
C63	C	1.124565	0.265326	0.922508
C64	C	1.162944	0.230108	0.877712
C65	C	1.147739	0.244057	0.796557
C66	C	1.094158	0.293230	0.760200
C67	C	1.186122	0.208838	0.751754
C68	C	1.170920	0.222791	0.670601
C69	C	1.078956	0.307184	0.679047
H70	H	0.348214	0.239100	0.419451
F71	F	1.127172	0.599463	0.251170
H72	H	0.479905	0.245794	0.413428
H73	H	0.924589	0.448829	1.057029
H74	H	1.136157	1.075886	0.238367
H75	H	0.778916	0.404264	0.270924
F76	F	1.149667	0.937795	0.218437
H77	H	0.308839	0.431216	0.246798
H78	H	0.686590	0.205472	0.449624
F79	F	0.830081	0.199378	0.455071
H80	H	1.229755	0.168806	0.781363
F81	F	0.635437	0.410348	0.265472
H82	H	0.561893	0.390571	0.283296
F83	F	0.558873	0.239108	0.419415
F84	F	0.446899	0.451589	0.228429
H85	H	0.896984	0.474131	0.909801
H86	H	1.113680	0.737541	0.271115
F87	F	0.999346	1.043148	0.439264
H88	H	1.012859	0.905062	0.419339
F89	F	0.986017	0.392477	0.682275
H90	H	1.202171	0.194112	0.634126
H91	H	1.136943	0.253969	0.988589
F92	F	0.976882	0.704810	0.472022
H93	H	0.990377	0.566721	0.452085
F94	F	1.118159	0.816506	0.264618
F95	F	1.008383	0.826105	0.425840
F96	F	1.021919	0.359514	0.640356
F97	F	0.906774	0.465172	0.774759
H98	H	1.091435	0.295728	1.041721
H99	H	1.206575	0.190073	0.907319
