data_functionalizedCrystal
_audit_creation_method	'MofGen! by Chris Wilmer'
_symmetry_space_group_name_H-M	'P1'
_symmetry_Int_Tables_number	1
_symmetry_cell_setting	triclinic
loop_
_symmetry_equiv_pos_as_xyz
  x,y,z
_cell_length_a	15.995350
_cell_length_b	14.519709
_cell_length_c	12.996460
_cell_angle_alpha	89.998766
_cell_angle_beta	89.997437
_cell_angle_gamma	83.586260
loop_
_atom_site_label
_atom_site_type_symbol
_atom_site_fract_x
_atom_site_fract_y
_atom_site_fract_z
O1	O	-1.111166	-0.118867	0.085482
O2	O	-0.861166	0.131133	0.335482
O3	O	-0.611166	0.381133	0.585482
O4	O	-0.361166	0.631133	0.835482
O5	O	-0.867413	-0.133546	0.085503
O6	O	-0.617413	0.116454	0.335503
O7	O	-0.367413	0.366454	0.585503
O8	O	-0.117413	0.616454	0.835503
O9	O	-0.995752	0.008044	0.085483
O10	O	-0.745752	0.258044	0.335483
O11	O	-0.495752	0.508044	0.585483
O12	O	-0.245752	0.758044	0.835483
O13	O	-0.982827	-0.260457	0.085502
O14	O	-0.732827	-0.010457	0.335502
O15	O	-0.482827	0.239543	0.585502
O16	O	-0.232827	0.489543	0.835502
O17	O	-0.995736	0.008035	-0.085651
O18	O	-0.745736	0.258035	0.164349
O19	O	-0.495736	0.508035	0.414349
O20	O	-0.245736	0.758035	0.664349
O21	O	-0.867396	-0.133554	-0.085630
O22	O	-0.617396	0.116446	0.164370
O23	O	-0.367396	0.366446	0.414370
O24	O	-0.117396	0.616446	0.664370
O25	O	-1.111150	-0.118875	-0.085652
O26	O	-0.861150	0.131125	0.164348
O27	O	-0.611150	0.381125	0.414348
O28	O	-0.361150	0.631125	0.664348
Cu29	Cu	-0.989272	-0.126215	-0.101267
Cu30	Cu	-0.739272	0.123785	0.148733
Cu31	Cu	-0.489272	0.373785	0.398733
Cu32	Cu	-0.239272	0.623785	0.648733
Cu33	Cu	-0.989291	-0.126206	0.101118
Cu34	Cu	-0.739291	0.123794	0.351118
Cu35	Cu	-0.489291	0.373794	0.601118
Cu36	Cu	-0.239291	0.623794	0.851118
O37	O	-0.982810	-0.260465	-0.085631
O38	O	-0.732810	-0.010465	0.164369
O39	O	-0.482810	0.239535	0.414369
O40	O	-0.232810	0.489535	0.664369
C41	C	-0.995142	0.042398	-0.000084
C42	C	-0.745142	0.292398	0.249916
C43	C	-0.495142	0.542398	0.499916
C44	C	-0.245142	0.792398	0.749916
C45	C	-0.993337	0.144776	-0.000085
C46	C	-0.743337	0.394776	0.249915
C47	C	-0.493337	0.644776	0.499915
C48	C	-0.243337	0.894776	0.749915
C49	C	-0.836209	-0.132943	-0.000061
C50	C	-0.586209	0.117057	0.249939
C51	C	-0.336209	0.367057	0.499939
C52	C	-0.086209	0.617057	0.749939
C53	C	-0.743256	-0.131124	-0.000053
C54	C	-0.493256	0.118876	0.249947
C55	C	-0.243256	0.368876	0.499947
C56	C	0.006744	0.618876	0.749947
C57	C	-1.142354	-0.119478	-0.000085
C58	C	-0.892354	0.130522	0.249915
C59	C	-0.642354	0.380522	0.499915
C60	C	-0.392354	0.630522	0.749915
C61	C	-1.235307	-0.121297	-0.000087
C62	C	-0.985307	0.128703	0.249913
C63	C	-0.735307	0.378703	0.499913
C64	C	-0.485307	0.628703	0.749913
C65	C	-0.405499	-0.124590	-0.000075
C66	C	-0.155499	0.125410	0.249925
C67	C	0.094501	0.375410	0.499925
C68	C	0.344501	0.625410	0.749925
C69	C	-0.452782	-0.023752	-0.000464
C70	C	-0.202782	0.226248	0.249536
C71	C	0.047218	0.476248	0.499536
C72	C	0.297218	0.726248	0.749536
C73	C	-0.549475	-0.025572	-0.000071
C74	C	-0.299475	0.224428	0.249929
C75	C	-0.049475	0.474428	0.499929
C76	C	0.200525	0.724428	0.749929
C77	C	-0.573064	-0.127831	-0.000065
C78	C	-0.323064	0.122169	0.249935
C79	C	-0.073064	0.372169	0.499935
C80	C	0.176936	0.622169	0.749935
C81	C	-0.532061	-0.177563	0.097661
C82	C	-0.282061	0.072437	0.347661
C83	C	-0.032061	0.322437	0.597661
C84	C	0.217939	0.572437	0.847661
C85	C	-0.435421	-0.175030	0.097735
C86	C	-0.185421	0.074970	0.347735
C87	C	0.064579	0.324970	0.597735
C88	C	0.314579	0.574970	0.847735
C89	C	-0.435067	-0.177123	-0.096876
C90	C	-0.185067	0.072877	0.153124
C91	C	0.064933	0.322877	0.403124
C92	C	0.314933	0.572877	0.653124
C93	C	-0.532012	-0.177099	-0.098160
C94	C	-0.282012	0.072901	0.151840
C95	C	-0.032012	0.322901	0.401840
C96	C	0.217988	0.572901	0.651840
C97	C	-0.667764	-0.129668	-0.000055
C98	C	-0.417764	0.120332	0.249945
C99	C	-0.167764	0.370332	0.499945
C100	C	0.082236	0.620332	0.749945
C101	C	-0.310798	-0.122756	-0.000077
C102	C	-0.060798	0.127244	0.249923
C103	C	0.189202	0.377244	0.499923
C104	C	0.439202	0.627244	0.749923
C105	C	-0.983421	-0.294819	-0.000062
C106	C	-0.733421	-0.044819	0.249938
C107	C	-0.483421	0.205181	0.499938
C108	C	-0.233421	0.455181	0.749938
C109	C	-0.985226	-0.397197	-0.000055
C110	C	-0.735226	-0.147197	0.249945
C111	C	-0.485226	0.102803	0.499945
C112	C	-0.235226	0.352803	0.749945
N113	N	-0.989264	-0.126222	-0.243614
N114	N	-0.739264	0.123778	0.006386
N115	N	-0.489264	0.373778	0.256386
N116	N	-0.239264	0.623778	0.506386
C117	C	-0.986691	0.519660	-0.000057
C118	C	-0.736691	0.769660	0.249943
C119	C	-0.486691	1.019660	0.499943
C120	C	-0.236691	1.269660	0.749943
C121	C	-0.988537	0.415355	-0.000065
C122	C	-0.738537	0.665355	0.249935
C123	C	-0.488537	0.915355	0.499935
C124	C	-0.238537	1.165355	0.749935
C125	C	-0.990014	0.332221	-0.000072
C126	C	-0.740014	0.582221	0.249928
C127	C	-0.490014	0.832221	0.499928
C128	C	-0.240014	1.082221	0.749928
C129	C	-0.991859	0.227910	-0.000078
C130	C	-0.741859	0.477910	0.249922
C131	C	-0.491859	0.727910	0.499922
C132	C	-0.241859	0.977910	0.749922
C133	C	-0.989268	-0.126224	-0.336720
C134	C	-0.739268	0.123776	-0.086720
C135	C	-0.489268	0.373776	0.163280
C136	C	-0.239268	0.623776	0.413280
C137	C	-0.989275	-0.126218	-0.453525
C138	C	-0.739275	0.123782	-0.203525
C139	C	-0.489275	0.373782	0.046475
C140	C	-0.239275	0.623782	0.296475
C141	C	-0.989286	-0.126208	-0.546624
C142	C	-0.739286	0.123792	-0.296624
C143	C	-0.489286	0.373792	-0.046624
C144	C	-0.239286	0.623792	0.203376
C145	C	-0.989295	-0.126202	-0.663436
C146	C	-0.739295	0.123798	-0.413436
C147	C	-0.489295	0.373798	-0.163436
C148	C	-0.239295	0.623798	0.086564
N149	N	-0.989305	-0.126192	0.243466
N150	N	-0.739305	0.123808	0.493466
N151	N	-0.489305	0.373808	0.743466
N152	N	-0.239305	0.623808	0.993466
H153	H	-0.577838	0.013520	-0.070125
H154	H	-0.327838	0.263520	0.179875
H155	H	-0.077838	0.513520	0.429875
H156	H	0.172162	0.763520	0.679875
H157	H	-0.560390	-0.143015	0.170385
H158	H	-0.310390	0.106985	0.420385
H159	H	-0.060390	0.356985	0.670385
H160	H	0.189610	0.606985	0.920385
F161	F	-0.428480	0.028928	-0.092068
F162	F	-0.178480	0.278928	0.157932
F163	F	0.071520	0.528928	0.407932
F164	F	0.321520	0.778928	0.657932
H165	H	-0.403416	-0.251469	-0.097532
H166	H	-0.153416	-0.001469	0.152468
H167	H	0.096584	0.248531	0.402468
H168	H	0.346584	0.498531	0.652468
H169	H	-0.433135	0.016373	0.069227
H170	H	-0.183135	0.266373	0.319227
H171	H	0.066865	0.516373	0.569227
H172	H	0.316865	0.766373	0.819227
F173	F	-0.552235	-0.274571	-0.105869
F174	F	-0.302235	-0.024571	0.144131
F175	F	-0.052235	0.225429	0.394131
F176	F	0.197765	0.475429	0.644131
F177	F	-0.550689	-0.275752	0.102436
F178	F	-0.300689	-0.025752	0.352436
F179	F	-0.050689	0.224248	0.602436
F180	F	0.199311	0.474248	0.852436
F181	F	-0.585798	0.025670	0.091792
F182	F	-0.335798	0.275670	0.341792
F183	F	-0.085798	0.525670	0.591792
F184	F	0.164202	0.775670	0.841792
H185	H	-0.417066	-0.138756	0.170783
H186	H	-0.167066	0.111244	0.420783
H187	H	0.082934	0.361244	0.670783
H188	H	0.332934	0.611244	0.920783
H189	H	-0.414475	-0.144160	-0.170949
H190	H	-0.164475	0.105840	0.079051
H191	H	0.085525	0.355840	0.329051
H192	H	0.335525	0.605840	0.579051
H193	H	-0.403284	-0.249063	0.102175
H194	H	-0.153284	0.000937	0.352175
H195	H	0.096716	0.250937	0.602175
H196	H	0.346716	0.500937	0.852175
F197	F	-0.567553	-0.129572	-0.192657
F198	F	-0.317553	0.120428	0.057343
F199	F	-0.067553	0.370428	0.307343
F200	F	0.182447	0.620428	0.557343
