data_functionalizedCrystal
_audit_creation_method	'MofGen! by Chris Wilmer'
_symmetry_space_group_name_H-M	'P1'
_symmetry_Int_Tables_number	1
_symmetry_cell_setting	triclinic
loop_
_symmetry_equiv_pos_as_xyz
  x,y,z
_cell_length_a	17.917603
_cell_length_b	17.052862
_cell_length_c	17.052862
_cell_angle_alpha	61.493325
_cell_angle_beta	90.786232
_cell_angle_gamma	67.577043
loop_
_atom_site_label
_atom_site_type_symbol
_atom_site_fract_x
_atom_site_fract_y
_atom_site_fract_z
Zr1	Zr	0.890123	0.744198	-0.153027
O2	O	0.805307	0.878999	-0.285675
O3	O	0.897450	0.592879	-0.098446
O4	O	0.938605	0.707331	-0.257065
O5	O	0.752930	0.799388	-0.017766
O6	O	1.064996	0.697038	-0.250330
O7	O	0.764151	0.764547	-0.127055
O8	O	0.991377	0.492305	0.033412
O9	O	0.826549	1.004121	-0.301507
O10	O	1.017461	0.653555	-0.086956
O11	O	0.914762	0.687237	-0.010421
O12	O	0.963217	0.821989	-0.197175
O13	O	0.860519	0.855672	-0.120640
Zr14	Zr	1.073805	0.783349	0.032020
Zr15	Zr	1.091702	0.727782	-0.142285
Zr16	Zr	0.872227	0.799765	0.021277
Zr17	Zr	0.924003	0.943753	-0.178278
Zr18	Zr	1.039926	0.583794	0.057270
O19	O	1.066479	0.934667	-0.022562
O20	O	1.091926	0.855658	-0.270400
O21	O	0.779860	0.958008	-0.037836
O22	O	1.158622	0.648548	0.164667
O23	O	1.184069	0.569539	-0.083171
O24	O	0.872003	0.671888	0.149393
O25	O	1.210999	0.728159	-0.103242
O26	O	1.025324	0.820216	0.136058
O27	O	0.898933	0.830508	0.129322
O28	O	1.199778	0.762999	0.006048
O29	O	0.986777	0.991073	-0.292968
O30	O	0.977152	0.536474	0.171961
O31	O	1.137380	0.523426	0.180500
O32	O	1.151605	0.479257	0.041951
O33	O	0.812323	1.048289	-0.162958
O34	O	0.972552	1.035241	-0.154419
O35	O	1.000712	0.705557	0.076167
O36	O	1.103410	0.671875	-0.000368
O37	O	1.049167	0.840309	-0.110587
O38	O	0.946468	0.873992	-0.034052
C39	C	0.939587	0.514160	-0.028919
C40	C	0.925204	0.429444	-0.018200
C41	C	1.099091	0.120319	-0.147798
C42	C	1.112603	0.199917	-0.157876
C43	C	1.065754	0.257302	-0.122957
C44	C	1.005391	0.235082	-0.077960
C45	C	0.991874	0.155481	-0.067888
C46	C	0.958537	0.292464	-0.043047
C47	C	0.898174	0.270244	0.001950
C48	C	0.884660	0.190650	0.012021
C49	C	0.931508	0.133265	-0.022898
C50	C	0.972055	0.372066	-0.053120
C51	C	0.864838	0.407227	0.026790
C52	C	0.851326	0.327629	0.036868
C53	C	0.729820	0.784307	-0.073941
C54	C	0.644245	0.791276	-0.078502
C55	C	0.487574	0.804005	-0.086831
C56	C	0.476349	0.723545	-0.034180
C57	C	0.389172	0.730628	-0.038814
C58	C	0.574758	0.796924	-0.082198
C59	C	1.234109	0.743240	-0.047066
C60	C	1.319684	0.736271	-0.042506
C61	C	1.004351	0.694268	-0.278532
C62	C	1.011948	0.670678	-0.352529
C63	C	1.024342	1.013387	-0.092088
C64	C	1.038725	1.098103	-0.102808
C65	C	0.920094	0.955877	-0.791253
C66	C	0.912950	0.978044	-0.721732
C67	C	0.937699	0.901204	-0.629428
C68	C	0.969593	0.802194	-0.606652
C69	C	0.976731	0.780025	-0.676181
C70	C	0.994336	0.725353	-0.514356
C71	C	1.026230	0.626342	-0.491579
C72	C	1.033367	0.604178	-0.561102
C73	C	1.008618	0.681017	-0.653406
C74	C	0.987198	0.747522	-0.444827
C75	C	1.043835	0.571670	-0.329754
C76	C	1.050979	0.549503	-0.399276
C77	C	0.959578	0.833279	0.157525
C78	C	0.951981	0.856869	0.231522
C79	C	1.191731	0.493627	-0.015482
C80	C	1.262924	0.401942	-0.000202
C81	C	0.917200	0.583666	0.189109
C82	C	0.895220	0.522539	0.273825
C83	C	1.169345	0.563132	0.202546
C84	C	1.232940	0.495037	0.291823
C85	C	0.794584	0.964414	-0.323554
C86	C	0.730989	1.032510	-0.412831
C87	C	0.772198	1.033920	-0.105525
C88	C	0.701005	1.125605	-0.120805
C89	C	1.046729	0.943881	-0.310117
C90	C	1.068709	1.005008	-0.394833
C91	C	1.251493	0.349320	-0.038232
C92	C	1.318382	0.263178	-0.023893
C93	C	1.396700	0.229656	0.028482
C94	C	1.408130	0.282286	0.066512
C95	C	1.341243	0.368430	0.052167
C96	C	0.929762	0.503398	0.358815
C97	C	0.909107	0.445977	0.438420
C98	C	0.853914	0.407691	0.433034
C99	C	0.819368	0.426837	0.348036
C100	C	0.840019	0.484264	0.268432
C101	C	1.316421	0.445476	0.293798
C102	C	1.376186	0.381501	0.377676
C103	C	1.352467	0.367083	0.459578
C104	C	1.268978	0.416652	0.457599
C105	C	1.209216	0.480631	0.373722
C106	C	0.647510	1.082081	-0.414807
C107	C	0.587749	1.146080	-0.498688
C108	C	0.611469	1.160502	-0.580590
C109	C	0.694957	1.110928	-0.578611
C110	C	0.754717	1.046935	-0.494732
C111	C	0.712438	1.178233	-0.082784
C112	C	0.645555	1.264390	-0.097145
C113	C	0.567238	1.297914	-0.149522
C114	C	0.555806	1.245282	-0.187549
C115	C	0.622690	1.159130	-0.173193
C116	C	1.123904	1.043276	-0.389418
C117	C	1.144573	1.100701	-0.469009
C118	C	1.110041	1.119863	-0.554015
C119	C	1.054843	1.081587	-0.559428
C120	C	1.034179	1.024158	-0.479836
H121	H	1.076759	0.322114	-0.131165
Cl122	Cl	0.659943	1.330537	-0.049328
Cl123	Cl	1.188481	0.227849	-0.214445
H124	H	0.431717	0.878203	-0.135384
Cl125	Cl	0.888970	1.052463	-0.907287
Cl126	Cl	0.964779	0.976065	-0.486662
Cl127	Cl	0.928723	0.929073	-0.542030
Cl128	Cl	0.859661	0.984615	-0.492262
Cl129	Cl	1.104267	0.542925	0.371256
H130	H	0.532210	0.649342	0.014377
Cl131	Cl	0.810889	1.136111	-0.016939
Cl132	Cl	0.952548	0.421916	0.545264
H133	H	1.471906	0.254979	0.109156
H134	H	1.249677	0.404903	0.524295
Cl135	Cl	0.483162	1.406221	-0.167559
H136	H	1.189517	1.131861	-0.464585
H137	H	0.837106	0.360932	0.497860
Cl138	Cl	0.947108	0.871988	-0.473468
Cl139	Cl	0.872829	1.102510	-0.750369
Cl140	Cl	0.457343	1.287437	-0.253388
H141	H	1.137225	0.073597	-0.176231
H142	H	1.014434	0.662974	-0.710021
Cl143	Cl	0.914524	0.033190	-0.010223
Cl144	Cl	1.427607	0.286646	0.565017
H145	H	1.152028	1.027686	-0.320210
Cl146	Cl	0.724762	1.129065	-0.681582
H147	H	1.059328	0.523557	-0.542551
H148	H	1.309058	0.220337	-0.054864
H149	H	0.774428	0.395657	0.343664
H150	H	0.562800	1.212611	-0.648883
H151	H	1.026731	1.097198	-0.628650
Cl152	Cl	0.808766	0.162728	0.068576
Cl153	Cl	0.796591	0.508311	0.161593
Cl154	Cl	0.805936	0.479368	0.070685
Cl155	Cl	0.482799	1.208386	-0.501154
Cl156	Cl	0.617669	1.063966	-0.311856
H157	H	1.350561	0.411266	0.083143
Cl158	Cl	1.136024	1.192067	-0.654066
H159	H	1.076945	0.468888	-0.380743
H160	H	1.021203	0.390150	-0.089757
Cl161	Cl	0.775448	0.299681	0.093438
Cl162	Cl	1.074946	0.475067	-0.213719
H163	H	0.613369	1.116283	-0.204154
Cl164	Cl	1.346261	0.463592	0.190847
H165	H	1.451156	0.159510	0.040156
Cl166	Cl	1.153044	0.391446	-0.104083
Cl167	Cl	1.481135	0.319192	0.380142
H168	H	0.974703	0.534566	0.363216
