data_functionalizedCrystal
_audit_creation_method	'MofGen! by Chris Wilmer'
_symmetry_space_group_name_H-M	'P1'
_symmetry_Int_Tables_number	1
_symmetry_cell_setting	triclinic
loop_
_symmetry_equiv_pos_as_xyz
  x,y,z
_cell_length_a	13.032831
_cell_length_b	12.759400
_cell_length_c	12.759393
_cell_angle_alpha	90.031769
_cell_angle_beta	97.192589
_cell_angle_gamma	82.819639
loop_
_atom_site_label
_atom_site_type_symbol
_atom_site_fract_x
_atom_site_fract_y
_atom_site_fract_z
Zn1	Zn	1.597734	-0.622486	0.797712
Zn2	Zn	1.597632	-0.798193	0.622019
Zn3	Zn	1.422970	-0.600196	0.599767
Zn4	Zn	1.422955	-0.775777	0.775387
O5	O	1.510323	-0.699163	0.698721
O6	O	1.743962	-0.664504	0.793062
O7	O	1.574426	-0.771981	0.472042
O8	O	1.446201	-0.456138	0.626055
O9	O	1.743887	-0.793595	0.663981
O10	O	1.574599	-0.472515	0.771484
O11	O	1.446103	-0.626514	0.455693
O12	O	1.276726	-0.604778	0.604408
O13	O	1.446176	-0.755390	0.925374
O14	O	1.276715	-0.733776	0.733435
O15	O	1.574585	-0.642768	0.941776
O16	O	1.574412	-0.942234	0.642333
O17	O	1.446078	-0.925765	0.755012
C18	C	1.238802	-0.664427	0.664085
C19	C	1.122644	-0.649592	0.649292
C20	C	1.070879	-0.706906	0.706442
C21	C	0.950824	-0.691574	0.691154
C22	C	1.510261	-0.972123	0.698691
C23	C	1.510330	-1.088908	0.698726
C24	C	1.577227	-1.152320	0.640138
C25	C	1.577292	-1.262052	0.640178
C26	C	1.443551	-1.244950	0.757397
C27	C	1.443493	-1.135220	0.757362
C28	C	1.644064	-1.106008	0.581502
C29	C	1.710966	-1.169420	0.522908
C30	C	1.711031	-1.279153	0.522949
C31	C	1.644192	-1.325472	0.581583
C32	C	1.782904	-0.734036	0.733494
C33	C	1.899062	-0.748897	0.748312
C34	C	1.510390	-0.699065	0.972763
C35	C	1.510419	-0.699023	1.089544
C36	C	1.510413	-0.425141	0.698778
C37	C	1.510452	-0.308370	0.698802
C38	C	1.510315	-0.699193	0.425753
C39	C	1.510489	-0.698965	0.308999
C40	C	1.443630	-0.623269	1.135903
C41	C	1.443661	-0.623242	1.245631
C42	C	1.577281	-0.774726	1.262633
C43	C	1.577244	-0.774757	1.152906
C44	C	1.376805	-0.547535	1.072541
C45	C	1.310011	-0.471775	1.118899
C46	C	1.310043	-0.471748	1.228627
C47	C	1.376869	-0.547481	1.291997
H48	H	1.115442	-0.767321	0.766691
H49	H	1.765390	-1.131702	0.475177
H50	H	1.376886	-0.547455	1.381344
Br51	Br	0.973318	-0.849588	0.848755
H52	H	0.906265	-0.631147	0.630908
Br53	Br	1.801836	-1.365212	0.443445
Br54	Br	1.667968	-0.877499	1.348633
H55	H	1.078081	-0.589168	0.589051
Br56	Br	1.644302	-0.957128	0.581809
H57	H	1.644258	-1.414825	0.581621
Br58	Br	1.667880	-0.877574	1.089982
H59	H	1.389134	-1.282672	0.805133
H60	H	1.376774	-0.547547	0.983194
Br61	Br	1.352707	-1.049155	0.836881
H62	H	1.255598	-0.410121	1.067296
H63	H	1.255649	-0.410066	1.266368
