data_functionalizedCrystal
_audit_creation_method	'MofGen! by Chris Wilmer'
_symmetry_space_group_name_H-M	'P1'
_symmetry_Int_Tables_number	1
_symmetry_cell_setting	triclinic
loop_
_symmetry_equiv_pos_as_xyz
  x,y,z
_cell_length_a	12.759401
_cell_length_b	16.994747
_cell_length_c	12.759393
_cell_angle_alpha	90.011549
_cell_angle_beta	90.018496
_cell_angle_gamma	90.011218
loop_
_atom_site_label
_atom_site_type_symbol
_atom_site_fract_x
_atom_site_fract_y
_atom_site_fract_z
Zn1	Zn	1.606282	-0.313978	0.594127
Zn2	Zn	1.606188	-0.445905	0.418509
Zn3	Zn	1.430584	-0.314019	0.418467
Zn4	Zn	1.430584	-0.445844	0.594150
O5	O	1.518409	-0.379937	0.506313
O6	O	1.753290	-0.331487	0.570839
O7	O	1.582854	-0.428453	0.271482
O8	O	1.453930	-0.203633	0.441741
O9	O	1.753221	-0.428413	0.441813
O10	O	1.583015	-0.203602	0.570798
O11	O	1.453839	-0.331557	0.271451
O12	O	1.283563	-0.331498	0.441764
O13	O	1.453930	-0.428309	0.741168
O14	O	1.283563	-0.428349	0.570838
O15	O	1.583015	-0.331428	0.741152
O16	O	1.582854	-0.556278	0.441835
O17	O	1.453838	-0.556234	0.570878
C18	C	1.245442	-0.379922	0.506299
C19	C	1.128665	-0.379935	0.506318
C20	C	1.518349	-0.584877	0.506361
C21	C	1.518356	-0.674199	0.506358
Zn22	Zn	1.430614	-0.945106	0.418437
Zn23	Zn	1.606329	-0.945043	0.594081
Zn24	Zn	1.430620	-0.813237	0.594133
Zn25	Zn	1.606207	-0.813160	0.418475
O26	O	1.518442	-0.879136	0.506282
O27	O	1.453972	-1.055479	0.441700
O28	O	1.583074	-0.927564	0.741109
O29	O	1.283598	-0.830788	0.570832
O30	O	1.583069	-1.055433	0.570744
O31	O	1.283594	-0.927672	0.441750
O32	O	1.453981	-0.830727	0.741147
O33	O	1.453863	-0.702845	0.570869
O34	O	1.582861	-0.830657	0.271449
O35	O	1.582866	-0.702789	0.441813
O36	O	1.453853	-0.927597	0.271421
O37	O	1.753334	-0.927490	0.570781
O38	O	1.753244	-0.830597	0.441763
C39	C	1.073831	-0.430446	0.573416
C40	C	0.964107	-0.430456	0.573427
C41	C	0.964061	-0.329442	0.439234
C42	C	1.073784	-0.329428	0.439229
C43	C	1.128713	-0.480953	0.640505
C44	C	1.073878	-0.531469	0.707607
C45	C	0.964154	-0.531479	0.707619
C46	C	0.909264	-0.480973	0.640528
C47	C	1.792443	-0.379952	0.506328
C48	C	1.909219	-0.379958	0.506335
C49	C	1.518483	-0.379857	0.780347
C50	C	1.518514	-0.379823	0.897124
C51	C	1.518476	-0.174197	0.506260
C52	C	1.518508	-0.084875	0.506238
C53	C	1.518397	-0.379959	0.233346
C54	C	1.518569	-0.379771	0.116570
C55	C	1.585738	-0.329372	0.951979
C56	C	1.585763	-0.329344	1.061703
C57	C	1.451338	-0.430224	1.061707
C58	C	1.451308	-0.430248	0.951985
C59	C	1.652944	-0.278947	0.897117
C60	C	1.720174	-0.228493	0.951972
C61	C	1.720199	-0.228464	1.061696
C62	C	1.652994	-0.278890	1.116565
C63	C	1.791410	-0.879030	0.506273
C64	C	1.908186	-0.879008	0.506300
C65	C	1.518343	-0.879126	0.232248
C66	C	1.518300	-0.879121	0.115471
C67	C	1.244409	-0.879245	0.506293
C68	C	1.127632	-0.879291	0.506297
C69	C	1.518467	-0.879192	0.779249
C70	C	1.518216	-0.879347	0.896025
C71	C	1.963060	-0.929486	0.573425
C72	C	2.072784	-0.929472	0.573430
C73	C	2.072751	-0.828497	0.439185
C74	C	1.963029	-0.828515	0.439175
C75	C	1.908218	-0.979979	0.640550
C76	C	1.963092	-1.030460	0.707681
C77	C	2.072816	-1.030447	0.707687
C78	C	2.127666	-0.979952	0.640562
C79	C	1.451115	-0.929587	0.060593
C80	C	1.451068	-0.929571	-0.049131
C81	C	1.585400	-0.828620	-0.049089
C82	C	1.585441	-0.828633	0.060633
C83	C	1.383975	-0.980075	0.115432
C84	C	1.316785	-1.030546	0.060554
C85	C	1.316738	-1.030530	-0.049170
C86	C	1.383880	-0.980043	-0.104016
H87	H	1.218055	-0.480952	0.640501
Br88	Br	1.225542	-1.099014	-0.123646
H89	H	1.118576	-0.572584	0.762237
H90	H	2.217011	-0.979950	0.640566
H91	H	2.117419	-0.787386	0.384536
Br92	Br	1.676509	-0.760102	-0.123523
Br93	Br	0.889737	-0.600026	0.798695
Br94	Br	1.383808	-0.980017	-0.252929
H95	H	1.118431	-0.288292	0.384600
H96	H	1.652934	-0.278967	0.807774
Br97	Br	0.760352	-0.480979	0.640556
Br98	Br	0.889569	-0.260903	0.348188
Br99	Br	1.811355	-0.160046	0.877511
H100	H	1.774933	-0.187376	1.106356
H101	H	1.640144	-0.787536	0.105316
Br102	Br	1.888656	-1.098997	0.798757
H103	H	1.653008	-0.278854	1.205910
H104	H	1.396622	-0.471278	1.106390
Br105	Br	2.147286	-1.098964	0.798778
H106	H	1.918349	-0.787407	0.384522
H107	H	1.396552	-0.471318	0.907321
Br108	Br	1.759307	-0.979994	0.640554
H109	H	1.384007	-0.980096	0.204775
Br110	Br	1.225655	-1.099051	0.134984
