data_functionalizedCrystal
_audit_creation_method	'MofGen! by Chris Wilmer'
_symmetry_space_group_name_H-M	'P1'
_symmetry_Int_Tables_number	1
_symmetry_cell_setting	triclinic
loop_
_symmetry_equiv_pos_as_xyz
  x,y,z
_cell_length_a	13.897447
_cell_length_b	19.805407
_cell_length_c	13.897441
_cell_angle_alpha	90.022189
_cell_angle_beta	89.971646
_cell_angle_gamma	89.981485
loop_
_atom_site_label
_atom_site_type_symbol
_atom_site_fract_x
_atom_site_fract_y
_atom_site_fract_z
Zn1	Zn	-0.384019	-1.034776	-0.545482
Zn2	Zn	0.115981	-0.534776	-0.045482
Zn3	Zn	-0.545338	-1.034702	-0.384187
Zn4	Zn	-0.045338	-0.534702	0.115813
Zn5	Zn	-0.384056	-0.921588	-0.384190
Zn6	Zn	0.115944	-0.421588	0.115810
Zn7	Zn	-0.545271	-0.921567	-0.545430
Zn8	Zn	-0.045271	-0.421567	-0.045430
O9	O	-0.464671	-0.978158	-0.464822
O10	O	0.035329	-0.478158	0.035178
O11	O	-0.405431	-1.129482	-0.524107
O12	O	0.094569	-0.629482	-0.024107
O13	O	-0.523987	-1.019675	-0.249206
O14	O	-0.023987	-0.519675	0.250794
O15	O	-0.249070	-0.936642	-0.405609
O16	O	0.250930	-0.436642	0.094391
O17	O	-0.523952	-1.129428	-0.405604
O18	O	-0.023952	-0.629428	0.094396
O19	O	-0.249043	-1.019801	-0.524110
O20	O	0.250957	-0.519801	-0.024110
O21	O	-0.405494	-0.936571	-0.249208
O22	O	0.094506	-0.436571	0.250792
O23	O	-0.405429	-0.826869	-0.405559
O24	O	0.094571	-0.326869	0.094441
O25	O	-0.523837	-0.936607	-0.680418
O26	O	-0.023837	-0.436607	-0.180418
O27	O	-0.523873	-0.826853	-0.524020
O28	O	-0.023873	-0.326853	-0.024020
O29	O	-0.405366	-1.019780	-0.680457
O30	O	0.094634	-0.519780	-0.180457
O31	O	-0.680311	-1.019655	-0.405553
O32	O	-0.180311	-0.519655	0.094447
O33	O	-0.680262	-0.936535	-0.524017
O34	O	-0.180262	-0.436535	-0.024017
C35	C	-0.464648	-0.802302	-0.464785
C36	C	0.035352	-0.302302	0.035215
C37	C	-0.464662	-0.727070	-0.464791
C38	C	0.035338	-0.227070	0.035209
C39	C	-0.526428	-0.691736	-0.526373
C40	C	-0.026428	-0.191736	-0.026373
C41	C	-0.526428	-0.621047	-0.526384
C42	C	-0.026428	-0.121047	-0.026384
C43	C	-0.464666	-0.585695	-0.464808
C44	C	0.035334	-0.085695	0.035192
C45	C	-0.402893	-0.621034	-0.403223
C46	C	0.097107	-0.121034	0.096777
C47	C	-0.402889	-0.691721	-0.403218
C48	C	0.097111	-0.191721	0.096782
C49	C	-0.402907	-0.335961	-0.403244
C50	C	0.097093	0.164039	0.096756
C51	C	-0.402918	-0.265268	-0.403253
C52	C	0.097082	0.234732	0.096747
C53	C	-0.526446	-0.265287	-0.526411
C54	C	-0.026446	0.234713	-0.026411
C55	C	-0.526442	-0.335974	-0.526406
C56	C	-0.026442	0.164026	-0.026406
C57	C	-0.464666	-0.371307	-0.464825
C58	C	0.035334	0.128693	0.035175
C59	C	-0.464666	-0.447956	-0.464815
C60	C	0.035334	0.052044	0.035185
C61	C	-0.464670	-0.509047	-0.464812
C62	C	0.035330	-0.009047	0.035188
C63	C	-0.715286	-0.978103	-0.464800
C64	C	-0.215286	-0.478103	0.035200
C65	C	-0.822500	-0.978142	-0.464823
C66	C	-0.322500	-0.478142	0.035177
C67	C	-0.909569	-0.978174	-0.464845
C68	C	-0.409569	-0.478174	0.035155
C69	C	-1.018802	-0.978222	-0.464869
C70	C	-0.518802	-0.478222	0.035131
C71	C	-0.213078	-0.978232	-0.464866
C72	C	0.286922	-0.478232	0.035134
C73	C	-0.105864	-0.978263	-0.464884
C74	C	0.394136	-0.478263	0.035116
C75	C	-0.464590	-0.978200	-0.716415
C76	C	0.035410	-0.478200	-0.216415
C77	C	-0.464556	-0.978217	-0.823629
C78	C	0.035444	-0.478217	-0.323629
C79	C	-0.464689	-0.154701	-0.464851
C80	C	0.035311	0.345299	0.035149
C81	C	-0.464680	-0.229933	-0.464840
C82	C	0.035320	0.270067	0.035160
C83	C	-0.464529	-0.978231	-0.910699
C84	C	0.035471	-0.478231	-0.410699
C85	C	-0.464485	-0.978251	-1.019932
C86	C	0.035515	-0.478251	-0.519932
C87	C	-0.464682	-0.978156	-0.214208
C88	C	0.035318	-0.478156	0.285792
C89	C	-0.464445	-0.978269	-0.106995
C90	C	0.035555	-0.478269	0.393005
H91	H	-0.352613	-0.364720	-0.353094
H92	H	0.147387	0.135280	0.146906
H93	H	-0.352602	-0.592244	-0.353091
H94	H	0.147398	-0.092244	0.146909
H95	H	-0.352618	-0.236486	-0.353109
H96	H	0.147382	0.263514	0.146891
H97	H	-0.576738	-0.364755	-0.576544
H98	H	-0.076738	0.135245	-0.076544
C99	C	-0.648525	-0.684646	-0.648123
C100	C	-0.148525	-0.184646	-0.148123
C101	C	-0.594316	-0.730592	-0.594065
C102	C	-0.094316	-0.230592	-0.094065
H103	H	-0.690430	-0.708635	-0.689920
H104	H	-0.190430	-0.208635	-0.189920
H105	H	-0.685372	-0.657058	-0.606036
H106	H	-0.185372	-0.157058	-0.106036
H107	H	-0.606532	-0.657093	-0.685089
H108	H	-0.106532	-0.157093	-0.185089
H109	H	-0.636309	-0.758142	-0.557094
H110	H	-0.136309	-0.258142	-0.057094
H111	H	-0.557466	-0.758192	-0.636157
H112	H	-0.057466	-0.258192	-0.136157
C113	C	-0.540012	-0.541603	-0.656128
C114	C	-0.040012	-0.041603	-0.156128
C115	C	-0.594329	-0.582213	-0.594076
C116	C	-0.094329	-0.082213	-0.094076
H117	H	-0.581937	-0.517634	-0.697924
H118	H	-0.081937	-0.017634	-0.197924
H119	H	-0.503240	-0.510431	-0.619464
H120	H	-0.003240	-0.010431	-0.119464
H121	H	-0.498034	-0.569207	-0.693091
H122	H	0.001966	-0.069207	-0.193091
H123	H	-0.636303	-0.554608	-0.557108
H124	H	-0.136303	-0.054608	-0.057108
H125	H	-0.631118	-0.613388	-0.630745
H126	H	-0.131118	-0.113388	-0.130745
H127	H	-0.576743	-0.236510	-0.576556
H128	H	-0.076743	0.263490	-0.076556
H129	H	-0.352588	-0.720489	-0.353077
H130	H	0.147412	-0.220489	0.146923
