data_functionalizedCrystal
_audit_creation_method	'MofGen! by Chris Wilmer'
_symmetry_space_group_name_H-M	'P1'
_symmetry_Int_Tables_number	1
_symmetry_cell_setting	triclinic
loop_
_symmetry_equiv_pos_as_xyz
  x,y,z
_cell_length_a	12.759395
_cell_length_b	15.297327
_cell_length_c	12.759387
_cell_angle_alpha	99.642565
_cell_angle_beta	89.979491
_cell_angle_gamma	99.708038
loop_
_atom_site_label
_atom_site_type_symbol
_atom_site_fract_x
_atom_site_fract_y
_atom_site_fract_z
Zn1	Zn	1.533819	-0.359077	-0.666313
Zn2	Zn	1.503266	-0.509964	-0.521018
Zn3	Zn	1.358107	-0.359126	-0.490660
Zn4	Zn	1.327678	-0.509900	-0.696644
O5	O	1.430717	-0.434517	-0.593659
O6	O	1.676786	-0.379099	-0.647051
O7	O	1.483958	-0.490002	-0.369979
O8	O	1.406937	-0.232874	-0.488562
O9	O	1.654338	-0.489955	-0.540303
O10	O	1.536031	-0.232838	-0.617614
O11	O	1.377311	-0.379183	-0.347675
O12	O	1.207051	-0.379120	-0.517973
O13	O	1.355076	-0.489845	-0.839632
O14	O	1.184695	-0.489893	-0.669309
O15	O	1.506526	-0.379037	-0.817348
O16	O	1.454452	-0.636201	-0.569714
O17	O	1.325449	-0.636154	-0.698746
C18	C	1.157752	-0.434506	-0.593639
C19	C	1.040972	-0.434523	-0.593659
C20	C	1.017694	-0.550057	-0.751065
C21	C	0.951193	-0.607831	-0.829773
C22	C	0.841469	-0.607842	-0.829788
C23	C	0.798245	-0.550070	-0.751089
C24	C	0.864747	-0.492296	-0.672381
C25	C	0.974471	-0.492294	-0.672373
C26	C	0.888026	-0.376759	-0.514982
C27	C	0.997749	-0.376751	-0.514960
C28	C	0.844802	-0.318988	-0.436283
C29	C	0.911303	-0.261217	-0.357569
C30	C	1.021033	-0.261209	-0.357556
C31	C	1.064250	-0.318977	-0.436253
C32	C	1.383362	-0.668911	-0.640838
C33	C	1.363199	-0.769187	-0.661057
C34	C	1.575257	-1.051818	-0.449512
C35	C	1.594200	-0.957605	-0.430510
C36	C	1.536452	-0.910495	-0.488145
C37	C	1.459756	-0.957609	-0.564785
C38	C	1.440805	-1.051832	-0.583783
C39	C	1.402000	-0.910509	-0.622416
C40	C	1.325305	-0.957623	-0.699056
C41	C	1.306358	-1.051836	-0.718051
C42	C	1.364106	-1.098945	-0.660416
C43	C	1.420952	-0.816286	-0.603419
C44	C	1.286500	-0.816300	-0.737690
C45	C	1.267557	-0.910513	-0.756692
C46	C	1.704749	-0.434528	-0.593680
C47	C	1.821524	-0.434533	-0.593689
C48	C	1.430815	-0.434428	-0.867675
C49	C	1.430856	-0.434391	-0.984444
C50	C	1.478287	-0.199207	-0.546318
C51	C	1.498558	-0.098932	-0.526145
C52	C	1.588569	-0.319013	-0.961261
C53	C	1.667443	-0.261311	-1.004527
C54	C	1.667475	-0.261278	-1.114242
C55	C	1.588623	-0.318952	-1.180694
C56	C	1.509749	-0.376654	-1.137428
C57	C	1.509727	-0.376682	-1.027709
C58	C	1.352034	-0.492025	-1.160610
C59	C	1.352004	-0.492064	-1.050896
C60	C	1.273182	-0.549699	-1.227062
C61	C	1.194310	-0.607407	-1.183796
C62	C	1.194282	-0.607438	-1.074074
C63	C	1.273130	-0.549766	-1.007629
C64	C	1.430694	-0.434540	-0.320696
C65	C	1.430908	-0.434323	-0.203876
H66	H	0.787323	-0.654882	-0.893883
H67	H	1.551879	-0.833783	-0.472668
H68	H	1.588649	-0.318912	-1.270028
H69	H	1.130111	-0.654356	-1.237908
H70	H	1.153591	-0.318979	-0.436248
H71	H	1.273118	-0.549790	-0.918293
H72	H	1.130044	-0.654417	-1.038852
N73	N	0.679902	-0.550081	-0.751107
H74	H	0.650106	-0.566588	-0.682326
H75	H	0.666067	-0.488202	-0.758133
N76	N	0.726457	-0.319004	-0.436287
H77	H	0.703380	-0.302509	-0.505073
H78	H	0.687617	-0.380888	-0.429258
N79	N	1.136036	-0.550056	-0.751037
H80	H	1.153326	-0.595421	-0.812829
H81	H	1.174902	-0.488160	-0.757981
N82	N	0.997810	-0.670142	-0.914650
H83	H	1.077409	-0.661375	-0.902698
H84	H	0.965607	-0.734554	-0.911126
H85	H	1.622261	-1.090183	-0.402587
H86	H	0.876102	-0.214180	-0.293503
H87	H	1.075174	-0.214156	-0.293469
N88	N	1.676925	-0.906793	-0.347864
H89	H	1.733460	-0.867640	-0.382714
H90	H	1.642019	-0.867816	-0.291294
H91	H	1.348689	-1.175661	-0.675886
N92	N	1.184825	-0.961335	-0.839337
H93	H	1.151112	-0.917202	-0.872968
H94	H	1.219717	-1.000366	-0.895862
H95	H	1.273210	-0.549665	-1.316396
N96	N	1.503673	-0.765473	-0.520771
H97	H	1.484086	-0.781931	-0.449008
H98	H	1.575411	-0.781828	-0.540543
H99	H	1.243895	-1.090193	-0.780444
H100	H	1.588559	-0.319043	-0.871926
N101	N	1.224201	-0.765502	-0.799855
H102	H	1.247846	-0.698667	-0.776193
H103	H	1.237212	-0.781909	-0.878213
H104	H	1.731641	-0.214353	-0.950410
N105	N	1.752535	-0.199037	-1.160915
H106	H	1.802480	-0.162503	-1.102175
H107	H	1.793738	-0.235752	-1.213833
