data_functionalizedCrystal
_audit_creation_method	'MofGen! by Chris Wilmer'
_symmetry_space_group_name_H-M	'P1'
_symmetry_Int_Tables_number	1
_symmetry_cell_setting	triclinic
loop_
_symmetry_equiv_pos_as_xyz
  x,y,z
_cell_length_a	19.805407
_cell_length_b	12.759394
_cell_length_c	19.805399
_cell_angle_alpha	89.976033
_cell_angle_beta	89.980427
_cell_angle_gamma	90.014837
loop_
_atom_site_label
_atom_site_type_symbol
_atom_site_fract_x
_atom_site_fract_y
_atom_site_fract_z
Zn1	Zn	1.034790	-0.418291	-0.382737
Zn2	Zn	1.034728	-0.593984	-0.269556
Zn3	Zn	0.921605	-0.418320	-0.269561
Zn4	Zn	0.921591	-0.593928	-0.382702
O5	O	0.978178	-0.506131	-0.326139
O6	O	1.129498	-0.441608	-0.367735
O7	O	1.019701	-0.570717	-0.174840
O8	O	0.936651	-0.271295	-0.284591
O9	O	1.129453	-0.570689	-0.284581
O10	O	1.019808	-0.271274	-0.367740
O11	O	0.936590	-0.441658	-0.174844
O12	O	0.826886	-0.441603	-0.284558
O13	O	0.936628	-0.570594	-0.477423
O14	O	0.826876	-0.570622	-0.367682
O15	O	1.019794	-0.441554	-0.477449
O16	O	1.019688	-0.740998	-0.284548
O17	O	0.936567	-0.740957	-0.367676
C18	C	0.802322	-0.506111	-0.326117
C19	C	0.727090	-0.506127	-0.326124
C20	C	0.978138	-0.779098	-0.326123
C21	C	0.978182	-0.895875	-0.326138
C22	C	0.691759	-0.573409	-0.369336
C23	C	0.621070	-0.573411	-0.369346
C24	C	0.585715	-0.506136	-0.326139
C25	C	0.621051	-0.438847	-0.282924
C26	C	0.691739	-0.438841	-0.282919
C27	C	0.335978	-0.438870	-0.282947
C28	C	0.265286	-0.438884	-0.282954
C29	C	0.265310	-0.573440	-0.369374
C30	C	0.335997	-0.573434	-0.369368
C31	C	0.371327	-0.506142	-0.326157
C32	C	0.447976	-0.506139	-0.326148
C33	C	0.509068	-0.506143	-0.326144
C34	C	1.064801	-0.895864	-0.239641
C35	C	1.108128	-0.950720	-0.196401
C36	C	1.108168	-1.060441	-0.196419
C37	C	1.064877	-1.115310	-0.239684
C38	C	1.021550	-1.060455	-0.282925
C39	C	1.021514	-0.950730	-0.282900
C40	C	0.934936	-1.060465	-0.369424
C41	C	0.934892	-0.950744	-0.369403
C42	C	0.891645	-1.115334	-0.412689
C43	C	0.848314	-1.060478	-0.455927
C44	C	0.848275	-0.950750	-0.455906
C45	C	0.891565	-0.895888	-0.412644
C46	C	1.154721	-0.506152	-0.326161
C47	C	1.229953	-0.506161	-0.326171
C48	C	0.978216	-0.506065	-0.502682
C49	C	0.978233	-0.506036	-0.577914
C50	C	0.978238	-0.232097	-0.326170
C51	C	0.978263	-0.115321	-0.326183
C52	C	1.021539	-0.438842	-0.613272
C53	C	1.021545	-0.438811	-0.683961
C54	C	0.978249	-0.505982	-0.719289
C55	C	0.934939	-0.573179	-0.683926
C56	C	0.934929	-0.573203	-0.613239
C57	C	0.934977	-0.573081	-0.969000
C58	C	0.934992	-0.573054	-1.039692
C59	C	1.021594	-0.438689	-1.039721
C60	C	1.021584	-0.438713	-0.969034
C61	C	0.978271	-0.505907	-0.933677
C62	C	0.978263	-0.505937	-0.857028
C63	C	0.978260	-0.505957	-0.795937
C64	C	0.978180	-0.506121	-0.150283
C65	C	0.978295	-0.505853	-0.075051
H66	H	0.592306	-0.628199	-0.404534
H67	H	1.056797	-0.384147	-0.584513
H68	H	1.143452	-1.105105	-0.161213
H69	H	0.236502	-0.384094	-0.247770
H70	H	1.056811	-0.384097	-0.712746
H71	H	1.143377	-0.906036	-0.161176
H72	H	1.064919	-1.204651	-0.239701
O73	O	0.231062	-0.638746	-0.411453
C74	C	0.248358	-0.615902	-0.478936
H75	H	0.299688	-0.575517	-0.480376
H76	H	0.250779	-0.691787	-0.509202
H77	H	0.208594	-0.561934	-0.501798
H78	H	1.056842	-0.384020	-0.940273
O79	O	0.370397	-0.373549	-0.241030
C80	C	0.440369	-0.387979	-0.250274
H81	H	0.450045	-0.422486	-0.302471
H82	H	0.467239	-0.309269	-0.245763
H83	H	0.460404	-0.443847	-0.210064
O84	O	0.892969	-0.638497	-0.934697
C85	C	0.907720	-0.743207	-0.951972
H86	H	0.961799	-0.748529	-0.971398
H87	H	0.901850	-0.795130	-0.905482
H88	H	0.871440	-0.770634	-0.993004
H89	H	0.899684	-0.627866	-0.712696
H90	H	0.891683	-1.204675	-0.412704
O91	O	0.892897	-0.638158	-1.074087
C92	C	0.849196	-0.578316	-1.114966
H93	H	0.873090	-0.498697	-1.125565
H94	H	0.840128	-0.621089	-1.164669
H95	H	0.799032	-0.566774	-1.087722
H96	H	0.592259	-0.384066	-0.247747
H97	H	0.899658	-0.627910	-0.584451
H98	H	0.720505	-0.384048	-0.247734
H99	H	1.064765	-0.806523	-0.239613
H100	H	0.891533	-0.806547	-0.412618
H101	H	1.056859	-0.383973	-1.068518
O102	O	0.725996	-0.638794	-0.411373
C103	C	0.679649	-0.698194	-0.449504
H104	H	0.629268	-0.655169	-0.451898
H105	H	0.700092	-0.709506	-0.502819
H106	H	0.672110	-0.777938	-0.424631
O107	O	0.370414	-0.638636	-0.411375
C108	C	0.411314	-0.578898	-0.455164
H109	H	0.421903	-0.499231	-0.431377
H110	H	0.461020	-0.621703	-0.464187
H111	H	0.384092	-0.567455	-0.505338
H112	H	0.813073	-1.105161	-0.491153
H113	H	0.812996	-0.906092	-0.491120
