data_functionalizedCrystal
_audit_creation_method	'MofGen! by Chris Wilmer'
_symmetry_space_group_name_H-M	'P1'
_symmetry_Int_Tables_number	1
_symmetry_cell_setting	triclinic
loop_
_symmetry_equiv_pos_as_xyz
  x,y,z
_cell_length_a	17.019383
_cell_length_b	17.038272
_cell_length_c	7.088929
_cell_angle_alpha	96.674532
_cell_angle_beta	87.650775
_cell_angle_gamma	87.246883
loop_
_atom_site_label
_atom_site_type_symbol
_atom_site_fract_x
_atom_site_fract_y
_atom_site_fract_z
O1	O	1.037683	0.116341	0.329666
O2	O	0.810647	0.127140	0.292328
O3	O	0.922816	0.007914	0.310760
O4	O	0.925514	0.235567	0.311234
O5	O	0.937804	-0.008055	-0.004753
O6	O	0.825635	0.111170	-0.023185
O7	O	1.052671	0.100371	0.014153
Cu8	Cu	0.940521	0.104313	-0.033324
Cu9	Cu	0.922796	0.123199	0.339805
O10	O	0.940501	0.219597	-0.004279
C11	C	0.788948	0.118429	0.129770
C12	C	0.701962	0.116256	0.115464
C13	C	0.652919	0.123941	0.280715
C14	C	0.571187	0.121910	0.267245
C15	C	0.538499	0.112189	0.088522
C16	C	0.587548	0.104505	-0.076741
C17	C	0.669278	0.106542	-0.063269
C18	C	0.292135	0.105609	0.039242
C19	C	0.210398	0.103571	0.025783
C20	C	0.194042	0.120978	0.369770
C21	C	0.275775	0.123009	0.383226
C22	C	0.324817	0.115330	0.217963
C23	C	0.454956	0.110110	0.074750
C24	C	0.408358	0.117414	0.231737
C25	C	0.927856	-0.029217	0.152600
C26	C	0.920533	-0.116065	0.151396
C27	C	0.987767	-0.165674	0.162451
C28	C	0.980880	-0.247276	0.161337
C29	C	0.906760	-0.279267	0.149154
C30	C	0.839521	-0.229651	0.138104
C31	C	0.846407	-0.148051	0.139232
C32	C	0.882431	-0.525206	0.145179
C33	C	0.875550	-0.606813	0.144046
C34	C	1.016910	-0.624432	0.167283
C35	C	1.023791	-0.542830	0.168399
C36	C	0.956551	-0.493221	0.157359
C37	C	0.899720	-0.362677	0.148009
C38	C	0.963591	-0.409812	0.158518
C39	C	1.074369	0.109083	0.176715
C40	C	1.161355	0.111256	0.191033
C41	C	0.935462	0.256729	0.153885
C42	C	0.942784	0.343577	0.155101
N43	N	0.952994	0.091029	-0.295763
N44	N	0.910330	0.136476	0.602245
H45	H	0.709209	0.100287	-0.197834
F46	F	1.042473	-0.375762	0.171494
F47	F	0.420160	0.099763	-0.115455
F48	F	0.141844	0.129143	0.545642
H49	H	1.048124	-0.139635	0.172361
H50	H	0.332055	0.099351	-0.095327
F51	F	1.052441	-0.300071	0.173100
H52	H	0.997219	0.043935	-0.370152
H53	H	0.302383	0.130920	0.528761
H54	H	0.866113	0.183573	-0.323375
F55	F	0.760635	-0.263700	0.125159
F56	F	0.687700	0.134283	0.470937
H57	H	0.791658	-0.107659	0.130230
H58	H	0.531259	0.128169	0.401810
F59	F	0.443148	0.127763	0.421941
H60	H	0.183786	0.095676	-0.119762
F61	F	0.552757	0.094165	-0.266952
H62	H	1.084147	-0.516789	0.178320
F63	F	1.088466	-0.677235	0.179035
H64	H	0.827680	-0.484824	0.136188
F65	F	0.820837	-0.396731	0.135050
F66	F	0.796658	-0.640859	0.131069
