data_functionalizedCrystal
_audit_creation_method	'MofGen! by Chris Wilmer'
_symmetry_space_group_name_H-M	'P1'
_symmetry_Int_Tables_number	1
_symmetry_cell_setting	triclinic
loop_
_symmetry_equiv_pos_as_xyz
  x,y,z
_cell_length_a	18.101398
_cell_length_b	25.639240
_cell_length_c	18.101389
_cell_angle_alpha	89.972369
_cell_angle_beta	89.990255
_cell_angle_gamma	90.028316
loop_
_atom_site_label
_atom_site_type_symbol
_atom_site_fract_x
_atom_site_fract_y
_atom_site_fract_z
Zn1	Zn	1.132112	-0.208268	-0.418503
Zn2	Zn	1.632112	0.291732	0.081497
Zn3	Zn	1.132005	-0.295689	-0.294642
Zn4	Zn	1.632005	0.204311	0.205358
Zn5	Zn	1.008271	-0.208263	-0.294696
Zn6	Zn	1.508271	0.291737	0.205304
Zn7	Zn	1.008218	-0.295667	-0.418462
Zn8	Zn	1.508218	0.204333	0.081538
O9	O	1.070152	-0.251972	-0.356576
O10	O	1.570152	0.248028	0.143424
O11	O	1.235731	-0.219876	-0.402067
O12	O	1.735731	0.280124	0.097933
O13	O	1.115568	-0.284099	-0.191016
O14	O	1.615568	0.215901	0.308984
O15	O	1.024766	-0.135098	-0.311159
O16	O	1.524766	0.364902	0.188841
O17	O	1.235652	-0.284104	-0.311067
O18	O	1.735652	0.215896	0.188933
O19	O	1.115752	-0.135102	-0.402120
O20	O	1.615752	0.364898	0.097880
O21	O	1.024662	-0.219867	-0.191056
O22	O	1.524662	0.280133	0.308944
O23	O	0.904631	-0.219846	-0.311119
O24	O	1.404631	0.280154	0.188881
O25	O	1.024676	-0.284066	-0.522100
O26	O	1.524676	0.215934	-0.022100
O27	O	0.904593	-0.284061	-0.402049
O28	O	1.404593	0.215939	0.097951
O29	O	1.115701	-0.219854	-0.522131
O30	O	1.615701	0.280146	-0.022131
O31	O	1.115517	-0.368851	-0.311027
O32	O	1.615517	0.131149	0.188973
O33	O	1.024572	-0.368835	-0.401997
O34	O	1.524572	0.131165	0.098003
C35	C	0.877741	-0.251951	-0.356586
C36	C	1.377741	0.248049	0.143414
C37	C	0.795427	-0.251955	-0.356608
C38	C	1.295427	0.248045	0.143392
C39	C	0.496336	-0.251986	-0.356577
C40	C	0.996336	0.248014	0.143423
C41	C	0.527662	-0.292584	-0.413505
C42	C	1.027662	0.207416	0.086495
C43	C	0.613280	-0.292457	-0.413739
C44	C	1.113280	0.207543	0.086261
C45	C	0.644719	-0.251971	-0.356592
C46	C	1.144719	0.248029	0.143408
C47	C	0.613666	-0.196903	-0.377933
C48	C	1.113666	0.303097	0.122067
C49	C	0.528021	-0.197147	-0.378337
C50	C	1.028021	0.302853	0.121663
C51	C	0.527883	-0.265969	-0.278171
C52	C	1.027883	0.234031	0.221829
C53	C	0.613533	-0.267178	-0.278590
C54	C	1.113533	0.232822	0.221410
C55	C	0.728578	-0.251959	-0.356600
C56	C	1.228578	0.248041	0.143400
C57	C	0.412477	-0.251994	-0.356571
C58	C	0.912477	0.248006	0.143429
C59	C	1.070047	-0.387814	-0.356518
C60	C	1.570047	0.112186	0.143482
C61	C	1.070070	-0.445928	-0.356518
C62	C	1.570070	0.054072	0.143482
C63	C	1.117551	-0.806255	-0.404024
C64	C	1.617551	-0.306255	0.095976
C65	C	1.117573	-0.860859	-0.404039
C66	C	1.617573	-0.360859	0.095961
O67	O	1.157819	-0.889065	-0.444372
O68	O	1.657819	-0.389065	0.055628
N69	N	1.070254	-0.888211	-0.356647
N70	N	1.570254	-0.388211	0.143353
C71	C	1.022905	-0.860955	-0.309242
C72	C	1.522905	-0.360955	0.190758
O73	O	0.982659	-0.889234	-0.268933
O74	O	1.482659	-0.389234	0.231067
C75	C	1.022880	-0.806352	-0.309231
C76	C	1.522880	-0.306352	0.190769
C77	C	1.070208	-0.779003	-0.356621
C78	C	1.570208	-0.279003	0.143379
C79	C	1.164874	-0.778906	-0.451411
C80	C	1.664874	-0.278906	0.048589
C81	C	1.164853	-0.724305	-0.451395
C82	C	1.664853	-0.224305	0.048605
C83	C	1.117509	-0.697054	-0.403992
C84	C	1.617509	-0.197054	0.096008
C85	C	1.070187	-0.724402	-0.356605
C86	C	1.570187	-0.224402	0.143395
C87	C	0.975528	-0.779097	-0.261831
C88	C	1.475528	-0.279097	0.238169
C89	C	0.975507	-0.724490	-0.261824
C90	C	1.475507	-0.224490	0.238176
C91	C	1.022834	-0.697142	-0.309214
C92	C	1.522834	-0.197142	0.190786
C93	C	1.022822	-0.642550	-0.309186
C94	C	1.522822	-0.142550	0.190814
N95	N	1.070140	-0.615199	-0.356578
N96	N	1.570140	-0.115199	0.143422
C97	C	1.117484	-0.642450	-0.403981
C98	C	1.617484	-0.142450	0.096019
C99	C	1.022961	-0.975626	-0.309269
C100	C	1.522961	-0.475626	0.190731
C101	C	1.022989	-1.030228	-0.309276
C102	C	1.522989	-0.530228	0.190724
C103	C	1.117656	-1.030128	-0.404074
C104	C	1.617656	-0.530128	0.095926
C105	C	1.117631	-0.975525	-0.404063
C106	C	1.617631	-0.475525	0.095937
C107	C	1.070279	-0.948274	-0.356661
C108	C	1.570279	-0.448274	0.143339
C109	C	1.117437	-0.527785	-0.403943
C110	C	1.617437	-0.027785	0.096057
C111	C	1.117414	-0.473180	-0.403920
C112	C	1.617414	0.026820	0.096080
C113	C	1.022744	-0.473285	-0.309125
C114	C	1.522744	0.026715	0.190875
C115	C	1.022770	-0.527885	-0.309145
C116	C	1.522770	-0.027885	0.190855
C117	C	1.070119	-0.555134	-0.356560
C118	C	1.570119	-0.055134	0.143440
O119	O	0.982594	-0.614310	-0.268876
O120	O	1.482594	-0.114310	0.231124
O121	O	1.157717	-0.614165	-0.444290
O122	O	1.657717	-0.114165	0.055710
C123	C	1.263314	-0.251993	-0.356566
C124	C	1.763314	0.248007	0.143434
C125	C	1.345628	-0.252002	-0.356561
C126	C	1.845628	0.247998	0.143439
C127	C	1.070194	-0.251958	-0.549738
C128	C	1.570194	0.248042	-0.049738
C129	C	1.070213	-0.251953	-0.632052
C130	C	1.570213	0.248047	-0.132052
C131	C	1.070277	-0.115599	-0.356650
C132	C	1.570277	0.384401	0.143350
C133	C	1.070330	-0.057485	-0.356682
C134	C	1.570330	0.442515	0.143318
C135	C	1.070256	-0.251855	-0.931143
C136	C	1.570256	0.248145	-0.431143
C137	C	1.012789	-0.292127	-0.899799
C138	C	1.512789	0.207873	-0.399799
C139	C	1.012944	-0.292314	-0.814180
C140	C	1.512944	0.207686	-0.314180
C141	C	1.070234	-0.251903	-0.782760
C142	C	1.570234	0.248097	-0.282760
C143	C	1.148259	-0.266864	-0.813843
C144	C	1.648259	0.233136	-0.313843
C145	C	1.147938	-0.267128	-0.899488
C146	C	1.647938	0.232872	-0.399488
C147	C	1.050377	-0.196533	-0.899585
C148	C	1.550377	0.303467	-0.399585
C149	C	1.048641	-0.196852	-0.813934
C150	C	1.548641	0.303148	-0.313934
C151	C	1.070226	-0.251930	-0.698901
C152	C	1.570226	0.248070	-0.198901
C153	C	1.070269	-0.251829	-1.015002
C154	C	1.570269	0.248171	-0.515002
C155	C	1.070152	-0.251947	-0.164165
C156	C	1.570152	0.248053	0.335835
C157	C	1.070277	-0.251805	-0.081851
C158	C	1.570277	0.248195	0.418149
H159	H	0.633783	-0.283205	-0.471833
H160	H	1.133783	0.216795	0.028167
Br161	Br	0.911239	-0.687510	-0.197491
Br162	Br	1.411239	-0.187510	0.302509
Br163	Br	1.221544	-0.219512	-0.779930
Br164	Br	1.721544	0.280488	-0.279930
H165	H	0.634032	-0.165835	-0.337763
H166	H	1.134032	0.334165	0.162237
H167	H	0.984404	-0.953441	-0.270663
H168	H	1.484404	-0.453441	0.229337
H169	H	1.092233	-0.166528	-0.919857
H170	H	1.592233	0.333472	-0.419857
H171	H	0.984200	-0.451088	-0.270528
H172	H	1.484200	0.048912	0.229472
H173	H	1.087443	-0.165254	-0.792547
H174	H	1.587443	0.334746	-0.292547
Br175	Br	0.957194	-0.173817	-0.935588
Br176	Br	1.457194	0.326183	-0.435588
Br177	Br	0.647355	-0.334722	-0.251768
Br178	Br	1.147355	0.165278	0.248232
Br179	Br	0.648275	-0.360524	-0.391478
Br180	Br	1.148275	0.139476	0.108522
H181	H	1.026068	-0.333320	-0.793685
H182	H	1.526068	0.166680	-0.293685
H183	H	0.954756	-0.282860	-0.920401
H184	H	1.454756	0.217140	-0.420401
H185	H	0.634934	-0.239754	-0.233895
H186	H	1.134934	0.260246	0.266105
H187	H	0.507626	-0.236398	-0.235754
H188	H	1.007626	0.263602	0.264246
H189	H	1.155956	-0.450914	-0.442511
H190	H	1.655956	0.049086	0.057489
Br191	Br	1.176838	-0.333551	-0.778084
Br192	Br	1.676838	0.166449	-0.278084
Br193	Br	0.494748	-0.177378	-0.473872
Br194	Br	0.994748	0.322622	0.026128
H195	H	0.936990	-0.801355	-0.223240
H196	H	1.436990	-0.301355	0.276760
H197	H	1.025782	-0.332883	-0.921312
H198	H	1.525782	0.167117	-0.421312
H199	H	0.991221	-0.185571	-0.793620
H200	H	1.491221	0.314429	-0.293620
Br201	Br	0.916510	-0.276705	-0.779148
Br202	Br	1.416510	0.223295	-0.279148
Br203	Br	0.958552	-0.565003	-0.244818
Br204	Br	1.458552	-0.065003	0.255182
H205	H	0.507301	-0.165815	-0.338775
H206	H	1.007301	0.334185	0.161225
H207	H	1.155988	-0.549965	-0.442558
H208	H	1.655988	-0.049965	0.057442
H209	H	0.984458	-1.052491	-0.270678
H210	H	1.484458	-0.552491	0.229322
Br211	Br	0.649440	-0.176773	-0.472429
Br212	Br	1.149440	0.323227	0.027571
Br213	Br	0.491843	-0.331746	-0.245842
Br214	Br	0.991843	0.168254	0.254158
Br215	Br	1.229081	-0.687197	-0.515718
Br216	Br	1.729081	-0.187197	-0.015718
H217	H	1.203427	-0.801088	-0.490017
H218	H	1.703427	-0.301088	0.009983
H219	H	1.156168	-0.953261	-0.442653
H220	H	1.656168	-0.453261	0.057347
Br221	Br	1.221676	-0.220329	-0.934053
Br222	Br	1.721676	0.279671	-0.434053
Br223	Br	0.491792	-0.277374	-0.509770
Br224	Br	0.991792	0.222626	-0.009770
Br225	Br	0.493295	-0.360871	-0.391467
Br226	Br	0.993295	0.139129	0.108533
Br227	Br	1.181910	-1.067123	-0.468407
Br228	Br	1.681910	-0.567123	0.031593
Br229	Br	1.176027	-0.334532	-0.932777
Br230	Br	1.676027	0.165468	-0.432777
