data_functionalizedCrystal
_audit_creation_method	'MofGen! by Chris Wilmer'
_symmetry_space_group_name_H-M	'P1'
_symmetry_Int_Tables_number	1
_symmetry_cell_setting	triclinic
loop_
_symmetry_equiv_pos_as_xyz
  x,y,z
_cell_length_a	12.759401
_cell_length_b	10.686285
_cell_length_c	12.759393
_cell_angle_alpha	85.601879
_cell_angle_beta	89.982620
_cell_angle_gamma	85.631983
loop_
_atom_site_label
_atom_site_type_symbol
_atom_site_fract_x
_atom_site_fract_y
_atom_site_fract_z
Zn1	Zn	1.638381	-0.502268	-0.561964
Zn2	Zn	1.651782	-0.713313	-0.372831
Zn3	Zn	1.462691	-0.502335	-0.386299
Zn4	Zn	1.476169	-0.713215	-0.548479
O5	O	1.557256	-0.607783	-0.467393
O6	O	1.787181	-0.530277	-0.536882
O7	O	1.626667	-0.685395	-0.227592
O8	O	1.474747	-0.325749	-0.420882
O9	O	1.797027	-0.685330	-0.397927
O10	O	1.603826	-0.325700	-0.549942
O11	O	1.487742	-0.530391	-0.237487
O12	O	1.317457	-0.530296	-0.407805
O13	O	1.497719	-0.685164	-0.697293
O14	O	1.327359	-0.685228	-0.526958
O15	O	1.616896	-0.530182	-0.707201
O16	O	1.639736	-0.889877	-0.384851
O17	O	1.510714	-0.889805	-0.513899
C18	C	1.284287	-0.607760	-0.467380
C19	C	1.167512	-0.607780	-0.467398
C20	C	1.117842	-0.688583	-0.529321
C21	C	1.008119	-0.688599	-0.529332
C22	C	0.997745	-0.527006	-0.405487
C23	C	1.107466	-0.526985	-0.405483
C24	C	1.123830	-0.781881	-0.600819
C25	C	1.014107	-0.781897	-0.600829
C26	C	1.578170	-0.935625	-0.446473
C27	C	1.587214	-1.075877	-0.437558
C28	C	1.831291	-0.607807	-0.467407
C29	C	1.948068	-0.607817	-0.467412
C30	C	1.557316	-0.607654	-0.741435
C31	C	1.557341	-0.607600	-0.858215
C32	C	1.536288	-0.278660	-0.488418
C33	C	1.527353	-0.138408	-0.497378
C34	C	1.485031	-0.526874	-0.918236
C35	C	1.485060	-0.526836	-1.027963
C36	C	1.629720	-0.688254	-1.017637
C37	C	1.629685	-0.688297	-0.907912
C38	C	1.401515	-0.433677	-0.924199
C39	C	1.401545	-0.433639	-1.033926
C40	C	1.557251	-0.607820	-0.194423
C41	C	1.557406	-0.607519	-0.077667
H42	H	1.147902	-0.461179	-0.355066
C43	C	0.932370	-0.439439	-0.338286
C44	C	0.825651	-0.456772	-0.351522
C45	C	0.765400	-0.376143	-0.289618
H46	H	0.944810	-0.354623	-0.359118
H47	H	0.951442	-0.457823	-0.266475
H48	H	0.806586	-0.438380	-0.423318
H49	H	0.813178	-0.541572	-0.330684
H50	H	0.784472	-0.394526	-0.217806
H51	H	0.777849	-0.291331	-0.310454
H52	H	0.692986	-0.387900	-0.298582
C53	C	1.664800	-1.147332	-0.360061
C54	C	1.718192	-1.061540	-0.306647
C55	C	1.789661	-1.127316	-0.235241
H56	H	1.713917	-1.198673	-0.396944
H57	H	1.627938	-1.198794	-0.310955
H58	H	1.755054	-1.010099	-0.355746
H59	H	1.669103	-1.010195	-0.269742
H60	H	1.752798	-1.178778	-0.186135
H61	H	1.838770	-1.178656	-0.272133
H62	H	1.825889	-1.069117	-0.198984
C63	C	1.708308	-0.775996	-0.842931
C64	C	1.771687	-0.846627	-0.909944
C65	C	1.844139	-0.927419	-0.850122
H66	H	1.671729	-0.831095	-0.796602
H67	H	1.751060	-0.727779	-0.803233
H68	H	1.728941	-0.894840	-0.949623
H69	H	1.808291	-0.791561	-0.956273
H70	H	1.886891	-0.879202	-0.810424
H71	H	1.807551	-0.982510	-0.803795
H72	H	1.887157	-0.975343	-0.895581
C73	C	1.449628	-1.066800	-0.574640
C74	C	1.347731	-1.098863	-0.549644
C75	C	1.276102	-1.032904	-0.620788
H76	H	1.466192	-1.088209	-0.643935
H77	H	1.453585	-0.978888	-0.570546
H78	H	1.343778	-1.186756	-0.553748
H79	H	1.331134	-1.077451	-0.480361
H80	H	1.280059	-0.944991	-0.616694
H81	H	1.292675	-1.054318	-0.690079
H82	H	1.206956	-1.054640	-0.603832
H83	H	1.417108	-0.335897	-1.069954
C84	C	1.161501	-0.746960	-0.711494
C85	C	1.215459	-0.637649	-0.711800
C86	C	1.250191	-0.605456	-0.813728
H87	H	1.102780	-0.732394	-0.757746
H88	H	1.207200	-0.813838	-0.734169
H89	H	1.169763	-0.570785	-0.689138
H90	H	1.274193	-0.652185	-0.665569
H91	H	1.295890	-0.672334	-0.836404
H92	H	1.191464	-0.590895	-0.859972
H93	H	1.286814	-0.531292	-0.813948
C94	C	1.432450	-0.309807	-0.886929
C95	C	1.452989	-0.227706	-0.974087
C96	C	1.481479	-0.113582	-0.939794
H97	H	1.493674	-0.324653	-0.844089
H98	H	1.376603	-0.273224	-0.847397
H99	H	1.508832	-0.264281	-1.013601
H100	H	1.391779	-0.212823	-1.016937
H101	H	1.425632	-0.076998	-0.900262
H102	H	1.542700	-0.128441	-0.896953
H103	H	1.495409	-0.057858	-0.998924
C104	C	0.965863	-0.735616	-0.707014
C105	C	1.004914	-0.813948	-0.783406
C106	C	0.960484	-0.771358	-0.881228
H107	H	0.983487	-0.651954	-0.725152
H108	H	0.891603	-0.737275	-0.703416
H109	H	1.079157	-0.812276	-0.787006
H110	H	0.987292	-0.897613	-0.765303
H111	H	0.886224	-0.773017	-0.877630
H112	H	0.978111	-0.687696	-0.899355
H113	H	0.986966	-0.824506	-0.933070
H114	H	1.163781	-0.874663	-0.565620
C115	C	0.982913	-0.912233	-0.563202
C116	C	1.073524	-0.991941	-0.540176
C117	C	1.044829	-1.112005	-0.505501
H118	H	0.943691	-0.944954	-0.616709
H119	H	0.941215	-0.906888	-0.501775
H120	H	1.115204	-0.997290	-0.601596
H121	H	1.112757	-0.959260	-0.486662
H122	H	1.003131	-1.106660	-0.444073
H123	H	1.005606	-1.144713	-0.559012
H124	H	1.106303	-1.166098	-0.489864
H125	H	1.688620	-0.753953	-1.058114
H126	H	1.321800	-0.459846	-0.892754
C127	C	1.301366	-0.480247	-1.076134
C128	C	1.234971	-0.511174	-0.992249
C129	C	1.142676	-0.554100	-1.031093
H130	H	1.318326	-0.552649	-1.113392
H131	H	1.266823	-0.415967	-1.122120
H132	H	1.269507	-0.575450	-0.946281
H133	H	1.217981	-0.438792	-0.954983
H134	H	1.108133	-0.489819	-1.077079
H135	H	1.159647	-0.626498	-1.068351
H136	H	1.097612	-0.575078	-0.974184
