data_functionalizedCrystal
_audit_creation_method	'MofGen! by Chris Wilmer'
_symmetry_space_group_name_H-M	'P1'
_symmetry_Int_Tables_number	1
_symmetry_cell_setting	triclinic
loop_
_symmetry_equiv_pos_as_xyz
  x,y,z
_cell_length_a	6.817900
_cell_length_b	16.305681
_cell_length_c	16.305656
_cell_angle_alpha	95.365664
_cell_angle_beta	103.457069
_cell_angle_gamma	103.457389
loop_
_atom_site_label
_atom_site_type_symbol
_atom_site_fract_x
_atom_site_fract_y
_atom_site_fract_z
V1	V	-4.026195	-0.117404	-0.263318
O2	O	-4.013848	0.004935	-0.258009
O3	O	-3.977593	-0.232112	-0.261803
O4	O	-3.977604	-0.115908	-0.378030
O5	O	-4.013837	-0.112074	-0.140977
V6	V	-4.509874	-0.102734	-0.248650
O7	O	-4.287112	-0.149583	-0.295493
O8	O	-4.699155	-0.070555	-0.216476
O9	O	-4.335270	0.011975	-0.250166
O10	O	-4.639619	-0.225073	-0.253960
O11	O	-4.639630	-0.108064	-0.370992
O12	O	-4.335259	-0.104230	-0.133939
C13	C	-3.822551	-0.260066	-0.257723
C14	C	-3.864098	-0.353844	-0.257248
C15	C	-3.940240	-0.525545	-0.256403
C16	C	-3.736021	-0.556062	-0.251123
C17	C	-3.779336	-0.653655	-0.250961
C18	C	-4.015203	-0.694597	-0.255569
C19	C	-4.151345	-0.674577	-0.339097
C20	C	-4.106677	-0.576979	-0.339614
C21	C	-4.026210	-0.551409	-0.178452
C22	C	-4.064814	-0.648725	-0.176812
C23	C	-4.057583	-0.790139	-0.255101
C24	C	-3.897870	-0.430005	-0.256877
C25	C	-3.822564	-0.111835	-0.405981
C26	C	-3.864117	-0.111371	-0.499760
C27	C	-3.940246	-0.110497	-0.671458
C28	C	-3.736028	-0.105218	-0.701975
C29	C	-3.779003	-0.104399	-0.799464
C30	C	-4.015198	-0.109639	-0.840506
C31	C	-4.067485	-0.031561	-0.794880
C32	C	-4.022753	-0.031955	-0.697262
C33	C	-4.109611	-0.193268	-0.722786
C34	C	-4.149312	-0.193740	-0.820436
C35	C	-4.057568	-0.109151	-0.936044
C36	C	-3.897880	-0.110980	-0.575918
C37	C	-4.153654	0.039924	-0.254244
C38	C	-4.091345	0.133701	-0.254723
C39	C	-4.153641	-0.108306	-0.105983
C40	C	-4.091327	-0.108765	-0.012203
H41	H	-4.177668	-0.532016	-0.181544
H42	H	-3.904012	0.030352	-0.663079
Cl43	Cl	-4.253117	-0.032592	-0.665824
H44	H	-4.059564	-0.253013	-0.706215
H45	H	-4.238223	-0.032419	-0.821445
H46	H	-3.673709	-0.666392	-0.190930
Cl47	Cl	-4.342832	-0.547335	-0.351571
H48	H	-4.324966	-0.702024	-0.345512
H49	H	-3.668844	-0.161260	-0.685646
H50	H	-4.118086	-0.706799	-0.397589
Cl51	Cl	-3.919427	0.064524	-0.815095
Cl52	Cl	-3.850795	-0.495843	-0.081513
H53	H	-3.608711	-0.521373	-0.191290
H54	H	-3.609643	-0.045501	-0.666275
Cl55	Cl	-3.909042	-0.666929	-0.081467
H56	H	-4.110450	-0.251545	-0.851170
H57	H	-3.669679	-0.538695	-0.307122
Cl58	Cl	-4.325345	-0.690918	-0.174481
Cl59	Cl	-3.615819	-0.011194	-0.818135
H60	H	-3.733476	-0.160194	-0.830553
H61	H	-4.323354	-0.202460	-0.849404
H62	H	-4.050856	-0.562007	-0.398569
H63	H	-4.261877	-0.197923	-0.703638
H64	H	-3.734107	-0.684206	-0.307118
