data_functionalizedCrystal
_audit_creation_method	'MofGen! by Chris Wilmer'
_symmetry_space_group_name_H-M	'P1'
_symmetry_Int_Tables_number	1
_symmetry_cell_setting	triclinic
loop_
_symmetry_equiv_pos_as_xyz
  x,y,z
_cell_length_a	17.077404
_cell_length_b	12.594516
_cell_length_c	17.077396
_cell_angle_alpha	90.024821
_cell_angle_beta	90.019501
_cell_angle_gamma	90.012041
loop_
_atom_site_label
_atom_site_type_symbol
_atom_site_fract_x
_atom_site_fract_y
_atom_site_fract_z
Zn1	Zn	1.200115	-0.423736	0.443863
Zn2	Zn	1.200047	-0.601736	0.312605
Zn3	Zn	1.068847	-0.423773	0.312611
Zn4	Zn	1.068840	-0.601673	0.443829
O5	O	1.134462	-0.512730	0.378227
O6	O	1.309953	-0.447359	0.426463
O7	O	1.182618	-0.578171	0.202759
O8	O	1.086291	-0.274822	0.330038
O9	O	1.309903	-0.578135	0.330029
O10	O	1.182733	-0.274795	0.426468
O11	O	1.086225	-0.447422	0.202763
O12	O	0.958999	-0.447361	0.330005
O13	O	1.086280	-0.578027	0.553680
O14	O	0.958994	-0.578064	0.426410
O15	O	1.182727	-0.447297	0.553705
O16	O	1.182611	-0.750674	0.329996
O17	O	1.086214	-0.750627	0.426405
C18	C	0.930515	-0.512710	0.378205
C19	C	0.843265	-0.512728	0.378214
C20	C	0.802293	-0.580887	0.428332
C21	C	0.720312	-0.580889	0.428345
C22	C	0.679305	-0.512737	0.378235
C23	C	0.720283	-0.444570	0.328115
C24	C	0.802262	-0.444563	0.328107
C25	C	0.549413	-0.444591	0.328134
C26	C	0.467429	-0.444599	0.328141
C27	C	0.467463	-0.580917	0.428372
C28	C	0.549442	-0.580910	0.428364
C29	C	0.590414	-0.512745	0.378242
C30	C	1.134426	-0.789271	0.378213
C31	C	1.134482	-0.907576	0.378234
C32	C	1.186974	-0.976816	0.325852
C33	C	1.206155	-1.047517	0.397500
C34	C	1.115399	-1.047673	0.306632
C35	C	1.153700	-0.976719	0.449918
C36	C	1.062911	-0.976869	0.359002
C37	C	1.082065	-1.047539	0.430699
C38	C	1.339207	-0.512750	0.378249
C39	C	1.426456	-0.512758	0.378258
C40	C	1.134510	-0.512651	0.582971
C41	C	1.134530	-0.512618	0.670221
C42	C	1.134520	-0.235109	0.378258
C43	C	1.134545	-0.116803	0.378271
C44	C	1.134460	-0.512731	0.174279
C45	C	1.134592	-0.512464	0.087030
C46	C	1.184752	-0.444541	0.711225
C47	C	1.184761	-0.444506	0.793206
C48	C	1.134552	-0.512553	0.834180
C49	C	1.084325	-0.580633	0.793170
C50	C	1.084312	-0.580662	0.711191
C51	C	1.084357	-0.580569	0.964040
C52	C	1.084370	-0.580541	1.046025
C53	C	1.184806	-0.444412	1.046055
C54	C	1.184793	-0.444442	0.964076
C55	C	1.134566	-0.512523	0.923072
H56	H	0.582828	-0.636412	0.469163
C57	C	0.675246	-0.655876	0.483471
C58	C	0.618864	-0.739383	0.449354
C59	C	0.573800	-0.814375	0.504483
C60	C	0.585119	-0.805859	0.593730
C61	C	0.641504	-0.722348	0.627852
C62	C	0.686568	-0.647356	0.572722
H63	H	0.610482	-0.745690	0.383284
H64	H	0.532060	-0.876195	0.479223
H65	H	0.551760	-0.861372	0.634539
H66	H	0.649885	-0.716041	0.693921
H67	H	0.728308	-0.585536	0.597982
H68	H	0.835674	-0.636389	0.469135
C69	C	0.847337	-0.369586	0.272978
C70	C	0.836078	-0.248600	0.279541
C71	C	0.881153	-0.173616	0.224415
C72	C	0.937485	-0.219618	0.162725
C73	C	0.948746	-0.340611	0.156160
C74	C	0.903671	-0.415595	0.211286
H75	H	0.794376	-0.214540	0.325210
H76	H	0.872816	-0.084048	0.229276
H77	H	0.970852	-0.164111	0.121918
H78	H	0.990448	-0.374671	0.110491
H79	H	0.912008	-0.505163	0.206425
C80	C	1.287955	-1.089448	0.419508
C81	C	1.359224	-1.061521	0.368273
C82	C	1.441026	-1.103444	0.390277
C83	C	1.451558	-1.173294	0.463515
C84	C	1.380286	-1.201224	0.514753
C85	C	1.298484	-1.159301	0.492750
H86	H	1.351430	-1.009812	0.314054
H87	H	1.493786	-1.082768	0.352346
H88	H	1.512112	-1.204328	0.479803
H89	H	1.388080	-1.252934	0.568972
H90	H	1.245724	-1.179977	0.530681
H91	H	1.231371	-0.945761	0.281595
C92	C	0.422398	-0.655901	0.483507
C93	C	0.332224	-0.655912	0.483523
C94	C	0.287155	-0.730899	0.538651
C95	C	0.332260	-0.805875	0.593763
C96	C	0.422438	-0.805867	0.593750
C97	C	0.467507	-0.730880	0.538621
H98	H	0.298831	-0.600408	0.442723
H99	H	0.220399	-0.730905	0.538661
H100	H	0.298897	-0.861385	0.634573
H101	H	0.455832	-0.861371	0.634549
H102	H	0.534264	-0.730875	0.538611
H103	H	1.099233	-1.078839	0.246064
H104	H	1.037702	-1.078396	0.475063
H105	H	1.169806	-0.945685	0.510538
H106	H	1.225659	-0.389073	0.826588
H107	H	1.002376	-0.945811	0.342694
H108	H	0.434043	-0.389090	0.287346
H109	H	1.225640	-0.389132	0.677870
C110	C	1.240024	-0.369590	0.919004
C111	C	1.233646	-0.248585	0.930285
C112	C	1.288876	-0.173730	0.885214
C113	C	1.350485	-0.219881	0.828861
C114	C	1.356866	-0.340892	0.817577
C115	C	1.301635	-0.415747	0.862648
H116	H	1.188037	-0.214416	0.972003
H117	H	1.284152	-0.084150	0.893567
H118	H	1.391370	-0.164469	0.795496
H119	H	1.402474	-0.375061	0.775859
H120	H	1.306359	-0.505328	0.854295
C121	C	1.240055	-0.369518	1.091156
C122	C	1.240070	-0.369475	1.181330
C123	C	1.295321	-0.294590	1.226434
C124	C	1.350556	-0.219748	1.181365
C125	C	1.350542	-0.219788	1.091186
C126	C	1.295292	-0.294673	1.046082
H127	H	1.199180	-0.424881	1.214697
H128	H	1.295330	-0.294561	1.293191
H129	H	1.391456	-0.164313	1.214754
H130	H	1.391432	-0.164383	1.057819
H131	H	1.295282	-0.294703	0.979325
H132	H	1.043484	-0.635949	1.079384
H133	H	1.043445	-0.635991	0.930657
H134	H	1.043441	-0.636034	0.826538
C135	C	0.594488	-0.369606	0.273005
C136	C	0.583233	-0.248619	0.279565
C137	C	0.628310	-0.173639	0.224438
C138	C	0.684641	-0.219648	0.162750
C139	C	0.695899	-0.340641	0.156187
C140	C	0.650822	-0.415621	0.211315
H141	H	0.541531	-0.214555	0.325232
H142	H	0.619976	-0.084072	0.229296
H143	H	0.718010	-0.164143	0.121941
H144	H	0.737601	-0.374705	0.110520
H145	H	0.659156	-0.505189	0.206456
C146	C	1.029072	-0.655550	0.666080
C147	C	0.939838	-0.646854	0.677334
C148	C	0.884594	-0.721740	0.632222
C149	C	0.918583	-0.805322	0.575856
C150	C	1.007822	-0.814022	0.564599
C151	C	1.063066	-0.739136	0.609711
H152	H	0.914673	-0.584979	0.719062
H153	H	0.818534	-0.715300	0.640556
H154	H	0.877688	-0.860758	0.542462
H155	H	1.032987	-0.875897	0.522871
H156	H	1.129126	-0.745576	0.601378
H157	H	0.686889	-0.389074	0.287318
