data_functionalizedCrystal
_audit_creation_method	'MofGen! by Chris Wilmer'
_symmetry_space_group_name_H-M	'P1'
_symmetry_Int_Tables_number	1
_symmetry_cell_setting	triclinic
loop_
_symmetry_equiv_pos_as_xyz
  x,y,z
_cell_length_a	19.188930
_cell_length_b	27.732048
_cell_length_c	18.266242
_cell_angle_alpha	89.988683
_cell_angle_beta	89.977082
_cell_angle_gamma	82.893716
loop_
_atom_site_label
_atom_site_type_symbol
_atom_site_fract_x
_atom_site_fract_y
_atom_site_fract_z
O1	O	0.925764	0.060348	-0.061124
O2	O	0.722401	0.068472	-0.061075
O3	O	0.830399	-0.005968	-0.061087
O4	O	0.817767	0.134787	-0.061112
O5	O	0.830381	-0.005971	0.060675
O6	O	0.722383	0.068468	0.060687
O7	O	0.925746	0.060344	0.060638
Zn8	Zn	0.824062	0.064405	0.079995
Zn9	Zn	0.824086	0.064410	-0.080432
O10	O	0.817749	0.134783	0.060650
C11	C	0.696383	0.068207	-0.000187
C12	C	0.618883	0.067417	-0.000168
C13	C	0.573681	0.111096	-0.000187
C14	C	0.500862	0.110354	-0.000195
C15	C	0.473249	0.065931	-0.000199
C16	C	0.518461	0.022246	-0.000175
C17	C	0.591278	0.022990	-0.000160
N18	N	0.365491	0.031976	-0.041663
N19	N	0.296317	0.031273	-0.041679
C20	C	0.253854	0.063689	-0.000243
N21	N	0.283177	0.096842	0.041201
N22	N	0.352358	0.097546	0.041213
C23	C	0.394291	0.065120	-0.000215
C24	C	0.129692	0.106566	-0.000270
C25	C	0.056872	0.105822	-0.000273
C26	C	0.074473	0.017714	-0.000261
C27	C	0.147292	0.018459	-0.000250
C28	C	0.174897	0.062886	-0.000258
C29	C	0.830125	-0.023977	-0.000204
C30	C	0.829326	-0.077635	-0.000198
C31	C	0.888119	-0.416270	-0.000250
C32	C	0.885157	-0.617939	-0.000259
O33	O	0.938918	-0.649030	-0.000304
N34	N	0.821118	-0.637258	-0.000243
C35	C	0.757816	-0.606157	-0.000229
O36	O	0.703280	-0.627217	-0.000223
C37	C	0.760780	-0.404489	-0.000225
C38	C	0.824822	-0.385173	-0.000234
C39	C	0.952156	-0.396953	-0.000259
C40	C	0.952896	-0.346539	-0.000253
C41	C	0.889599	-0.315441	-0.000237
C42	C	0.825562	-0.334759	-0.000227
C43	C	0.697478	-0.373389	-0.000216
C44	C	0.698225	-0.322969	-0.000217
C45	C	0.762267	-0.303653	-0.000226
C46	C	0.763005	-0.253247	-0.000205
N47	N	0.827043	-0.233928	-0.000221
C48	C	0.890340	-0.265025	-0.000237
C49	C	0.756265	-0.712036	-0.000230
C50	C	0.755524	-0.762452	-0.000230
C51	C	0.882865	-0.774231	-0.000261
C52	C	0.883605	-0.723813	-0.000256
C53	C	0.820303	-0.692716	-0.000246
C54	C	0.891889	-0.159151	-0.000223
C55	C	0.892623	-0.108732	-0.000214
C56	C	0.765283	-0.096958	-0.000186
C57	C	0.764549	-0.147373	-0.000192
C58	C	0.827857	-0.178468	-0.000213
O59	O	0.709272	-0.222127	-0.000168
O60	O	0.944868	-0.243956	-0.000259
C61	C	0.887379	-0.466684	-0.000256
C62	C	0.823342	-0.486001	-0.000246
C63	C	0.760045	-0.454904	-0.000230
C64	C	0.822601	-0.536418	-0.000246
C65	C	0.885898	-0.567515	-0.000262
C66	C	0.949936	-0.548195	-0.000278
C67	C	0.950676	-0.497781	-0.000272
C68	C	0.696007	-0.474223	-0.000214
C69	C	0.695272	-0.524638	-0.000220
C70	C	0.758569	-0.555735	-0.000236
C71	C	0.951765	0.060609	-0.000251
C72	C	1.029264	0.061399	-0.000275
C73	C	0.818023	0.152793	-0.000235
C74	C	0.818821	0.206450	-0.000246
N75	N	0.824051	0.064402	0.189482
N76	N	0.824103	0.064410	-0.189919
C77	C	0.871887	0.031456	0.227785
C78	C	0.871892	0.031454	0.304430
C79	C	0.824066	0.064406	0.342769
C80	C	0.776220	0.097354	0.304456
C81	C	0.776213	0.097352	0.227813
N82	N	0.814718	0.107196	0.463095
N83	N	0.814729	0.107196	0.535903
C84	C	0.824086	0.064413	0.573691
N85	N	0.833444	0.021627	0.535921
N86	N	0.833436	0.021628	0.463106
C87	C	0.824069	0.064411	0.425876
C88	C	0.871930	0.031462	0.695102
C89	C	0.871929	0.031459	0.771748
C90	C	0.776261	0.097363	0.771772
C91	C	0.776258	0.097362	0.695127
C92	C	0.824096	0.064412	0.656797
H93	H	0.944776	-0.093007	-0.000219
O94	O	0.635262	-0.019410	-0.000245
C95	C	0.677928	-0.021619	-0.063310
H96	H	0.681207	0.016741	-0.084338
H97	H	0.732851	-0.039740	-0.049117
H98	H	0.654230	-0.043643	-0.107468
O99	O	0.918394	-0.000485	0.341726
C100	C	0.961198	0.025334	0.386011
H101	H	0.932976	0.063205	0.397495
H102	H	0.972472	0.005141	0.439909
H103	H	1.012757	0.028532	0.356443
O104	O	0.635310	-0.392201	-0.000313
C105	C	0.631074	-0.420989	-0.063389
H106	H	0.686246	-0.433662	-0.084416
H107	H	0.603588	-0.453945	-0.049211
H108	H	0.599962	-0.398639	-0.107543
H109	H	0.051991	-0.018456	-0.000309
H110	H	0.152169	0.142741	-0.000266
O111	O	0.729694	0.129381	0.341581
C112	C	0.687480	0.158469	0.291334
H113	H	0.686903	0.138650	0.236707
H114	H	0.631646	0.165936	0.313506
H115	H	0.709755	0.194340	0.283156
O116	O	0.918305	-0.000595	0.808990
C117	C	0.881249	-0.030348	0.853365
H118	H	0.826196	-0.031075	0.830296
H119	H	0.910158	-0.068816	0.854231
H120	H	0.877428	-0.015215	0.911449
H121	H	0.020068	0.141392	-0.000285
O122	O	0.918377	-0.000601	0.190666
C123	C	0.960612	-0.029672	0.240915
H124	H	0.931999	-0.030166	0.295565
H125	H	0.971681	-0.068295	0.218782
H126	H	1.012307	-0.014065	0.249031
H127	H	0.184097	-0.017109	-0.000238
O128	O	0.456914	0.152772	-0.000089
C129	C	0.414215	0.154976	0.062951
H130	H	0.441125	0.130205	0.107043
H131	H	0.405590	0.193931	0.084104
H132	H	0.361402	0.142575	0.048683
O133	O	0.633074	-0.543422	-0.000082
C134	C	0.628820	-0.572256	0.062963
H135	H	0.665163	-0.560417	0.107040
H136	H	0.572494	-0.567618	0.084135
H137	H	0.645362	-0.612046	0.048694
H138	H	0.943441	-0.184464	-0.000243
H139	H	1.005046	-0.330816	-0.000263
O140	O	0.634563	-0.443970	-0.000099
C141	C	0.631161	-0.414474	0.062977
H142	H	0.686548	-0.412035	0.083987
H143	H	0.604729	-0.376527	0.048808
H144	H	0.599455	-0.431010	0.107142
H145	H	0.737308	0.124191	0.663939
O146	O	1.013712	-0.427088	-0.000240
C147	C	1.070382	-0.399216	-0.000268
H148	H	1.052228	-0.361554	0.022784
H149	H	1.114694	-0.417899	0.035078
H150	H	1.090051	-0.395658	-0.058686
H151	H	0.935754	-0.708089	-0.000264
O152	O	0.600379	0.154293	-0.000155
C153	C	0.544861	0.192686	-0.000191
H154	H	0.495520	0.179240	0.022850
H155	H	0.559723	0.223710	0.035161
H156	H	0.534446	0.206154	-0.058610
H157	H	0.934404	-0.799559	-0.000274
O158	O	0.729678	0.129293	0.190567
C159	C	0.686897	0.103480	0.146246
H160	H	0.686131	0.065362	0.169356
H161	H	0.631190	0.123298	0.145394
H162	H	0.708775	0.100909	0.088151
O163	O	0.693357	-0.781270	-0.000312
C164	C	0.689118	-0.810062	-0.063383
H165	H	0.744289	-0.822731	-0.084418
H166	H	0.661641	-0.843021	-0.049197
H167	H	0.657996	-0.787716	-0.107535
O168	O	0.918418	-0.000595	0.657975
C169	C	0.960650	-0.029670	0.708223
H170	H	0.932035	-0.030167	0.762871
H171	H	0.971717	-0.068292	0.686085
H172	H	1.012345	-0.014065	0.716344
O173	O	0.729773	0.129306	0.809085
C174	C	0.686974	0.103492	0.853435
H175	H	0.715194	0.065620	0.864916
H176	H	0.675712	0.123688	0.907329
H177	H	0.635409	0.100295	0.823923
H178	H	0.704714	-0.686720	-0.000222
H179	H	0.495974	-0.013923	-0.000188
O180	O	0.636686	-0.292811	-0.000304
C181	C	0.597794	-0.301531	-0.063370
H182	H	0.615368	-0.339808	-0.084400
H183	H	0.539520	-0.297872	-0.049177
H184	H	0.607044	-0.273965	-0.107526
O185	O	0.702278	-0.166059	-0.000213
C186	C	0.646570	-0.127798	-0.000176
H187	H	0.665770	-0.093581	-0.023219
H188	H	0.601834	-0.138236	-0.035526
H189	H	0.627058	-0.120640	0.058244
O190	O	1.012905	-0.479044	-0.000416
C191	C	1.051469	-0.494953	-0.063479
H192	H	1.014014	-0.505355	-0.107546
H193	H	1.080848	-0.464471	-0.084653
H194	H	1.090729	-0.527897	-0.049232
O195	O	1.011406	-0.578428	-0.000425
C196	C	1.014777	-0.607940	-0.063483
H197	H	0.978878	-0.589392	-0.107546
H198	H	1.071082	-0.613725	-0.084668
H199	H	0.997101	-0.644567	-0.049225
H200	H	0.713749	-0.071630	-0.000171
