data_functionalizedCrystal
_audit_creation_method	'MofGen! by Chris Wilmer'
_symmetry_space_group_name_H-M	'P1'
_symmetry_Int_Tables_number	1
_symmetry_cell_setting	triclinic
loop_
_symmetry_equiv_pos_as_xyz
  x,y,z
_cell_length_a	18.266242
_cell_length_b	10.723024
_cell_length_c	10.723024
_cell_angle_alpha	84.467869
_cell_angle_beta	89.996690
_cell_angle_gamma	89.994679
loop_
_atom_site_label
_atom_site_type_symbol
_atom_site_fract_x
_atom_site_fract_y
_atom_site_fract_z
O1	O	0.060874	-1.657191	-0.175027
O2	O	0.060876	-1.294038	-0.191780
O3	O	0.060873	-1.483991	-0.001827
O4	O	0.060878	-1.467238	-0.364979
O5	O	-0.060889	-1.483970	-0.001822
O6	O	-0.060885	-1.294017	-0.191775
O7	O	-0.060888	-1.657170	-0.175022
Zn8	Zn	-0.080219	-1.475590	-0.183398
Zn9	Zn	0.080208	-1.475618	-0.183404
O10	O	-0.060884	-1.467217	-0.364975
C11	C	-0.000004	-1.247528	-0.190558
C12	C	-0.000003	-1.108974	-0.186911
C13	C	-0.000008	-1.482762	0.044675
C14	C	-0.000005	-1.479114	0.183229
N15	N	-0.189706	-1.475581	-0.183393
C16	C	-0.771985	-1.559750	-0.099311
C17	C	-0.695340	-1.559752	-0.099314
C18	C	-0.657018	-1.475619	-0.183393
C19	C	-0.695348	-1.391499	-0.267496
C20	C	-0.771992	-1.391508	-0.267500
N21	N	-0.536691	-1.365324	-0.198282
N22	N	-0.463883	-1.365319	-0.198272
C23	C	-0.426096	-1.475588	-0.183390
N24	N	-0.463868	-1.585865	-0.168494
N25	N	-0.536682	-1.585869	-0.168499
C26	C	-0.573912	-1.475600	-0.183399
C27	C	-0.304668	-1.559710	-0.099300
C28	C	-0.228022	-1.559713	-0.099312
C29	C	-0.228032	-1.391450	-0.267488
C30	C	-0.304677	-1.391457	-0.267483
C31	C	-0.342990	-1.475586	-0.183382
N32	N	0.189695	-1.475637	-0.183399
C33	C	-0.000005	-1.703680	-0.176243
C34	C	-0.000002	-1.842234	-0.179891
C35	C	-0.000001	-1.033991	-0.293198
C36	C	-0.000000	-0.890788	-0.289431
C37	C	-0.000002	-1.468447	-0.411477
C38	C	0.000000	-1.472094	-0.550031
C39	C	-0.000005	-1.585401	0.258212
C40	C	-0.000002	-1.581634	0.401415
H41	H	-0.803178	-1.628256	-0.030835
C42	C	-0.795606	-1.176113	-0.338810
C43	C	-0.814120	-1.299036	-0.359925
H44	H	-0.821620	-1.119024	-0.395864
H45	H	-0.744483	-1.164077	-0.350853
H46	H	-0.808173	-1.161868	-0.255394
H47	H	-0.801549	-1.313283	-0.443338
H48	H	-0.865254	-1.311077	-0.347892
C49	C	0.000001	-0.856911	0.044961
C50	C	-0.000000	-0.929197	-0.057042
H51	H	0.000006	-0.910607	0.120801
H52	H	-0.042459	-0.805557	0.041643
H53	H	0.042464	-0.805558	0.041626
H54	H	-0.042467	-0.980543	-0.053712
H55	H	0.042463	-0.980572	-0.053723
H56	H	-0.196831	-1.322952	-0.335951
H57	H	-0.335865	-1.628217	-0.030824
H58	H	-0.000005	-1.381099	0.385544
H59	H	0.000014	-1.067152	-0.093125
H60	H	0.000000	-1.385328	0.225051
C61	C	-0.235716	-1.726011	0.066942
C62	C	-0.185897	-1.652177	-0.006873
H63	H	-0.209707	-1.783088	0.124015
H64	H	-0.265602	-1.771348	0.014594
H65	H	-0.265617	-1.673666	0.112295
H66	H	-0.156000	-1.704521	-0.052233
H67	H	-0.155998	-1.606837	0.045482
H68	H	-0.335879	-1.322959	-0.335950
H69	H	-0.000005	-1.672624	0.465848
C70	C	-0.703021	-1.726048	0.066947
C71	C	-0.653206	-1.652207	-0.006870
H72	H	-0.677009	-1.783118	0.124023
H73	H	-0.732903	-1.771394	0.014600
H74	H	-0.732927	-1.673708	0.112296
H75	H	-0.623304	-1.704547	-0.052226
H76	H	-0.623311	-1.606858	0.045484
H77	H	-0.000004	-1.075814	-0.386984
H78	H	-0.000010	-1.679187	0.216390
C79	C	-0.577862	-1.316763	-0.342150
C80	C	-0.653228	-1.299015	-0.359915
H81	H	-0.551861	-1.259662	-0.399207
H82	H	-0.565296	-1.400149	-0.356462
H83	H	-0.565317	-1.302494	-0.258735
H84	H	-0.665774	-1.313293	-0.443327
H85	H	-0.665800	-1.215610	-0.345612
C86	C	0.062596	-0.728126	-0.417140
C87	C	0.000003	-0.803814	-0.412272
H88	H	0.062595	-0.674426	-0.492977
H89	H	0.105048	-0.779498	-0.413830
H90	H	0.062588	-0.679108	-0.347923
H91	H	0.000014	-0.852840	-0.481485
H92	H	-0.042460	-0.752437	-0.415595
