data_functionalizedCrystal
_audit_creation_method	'MofGen! by Chris Wilmer'
_symmetry_space_group_name_H-M	'P1'
_symmetry_Int_Tables_number	1
_symmetry_cell_setting	triclinic
loop_
_symmetry_equiv_pos_as_xyz
  x,y,z
_cell_length_a	13.635800
_cell_length_b	7.076090
_cell_length_c	7.190334
_cell_angle_alpha	109.695070
_cell_angle_beta	60.611776
_cell_angle_gamma	117.701400
loop_
_atom_site_label
_atom_site_type_symbol
_atom_site_fract_x
_atom_site_fract_y
_atom_site_fract_z
V1	V	-2.008474	0.291701	0.663510
V2	V	-1.508474	0.791701	1.163510
O3	O	-2.109551	-0.017518	0.652431
O4	O	-1.609551	0.482482	1.152431
O5	O	-1.881140	0.581760	0.657480
O6	O	-1.381140	1.081760	1.157480
O7	O	-2.029183	0.285678	0.953571
O8	O	-1.529183	0.785678	1.453571
O9	O	-1.960483	0.280614	0.354291
O10	O	-1.460483	0.780614	0.854291
V11	V	-2.257833	0.254896	0.626707
V12	V	-1.757833	0.754896	1.126707
O13	O	-2.122439	0.372435	0.744243
O14	O	-1.622439	0.872435	1.244243
O15	O	-2.368967	0.174162	0.545974
O16	O	-1.868967	0.674162	1.045974
O17	O	-2.273564	-0.035163	0.632737
O18	O	-1.773564	0.464837	1.132737
O19	O	-2.215455	0.564115	0.637786
O20	O	-1.715455	1.064115	1.137786
O21	O	-2.364523	0.265983	0.935926
O22	O	-1.864523	0.765983	1.435926
O23	O	-2.125521	0.260919	0.336646
O24	O	-1.625521	0.760919	0.836646
V25	V	-1.508474	0.291701	0.663510
V26	V	-1.008474	0.791701	1.163510
O27	O	-1.609551	-0.017518	0.652431
O28	O	-1.109551	0.482482	1.152431
O29	O	-1.381140	0.581760	0.657480
O30	O	-0.881140	1.081760	1.157480
O31	O	-1.529183	0.285678	0.953571
O32	O	-1.029183	0.785678	1.453571
O33	O	-1.460483	0.280614	0.354291
O34	O	-0.960483	0.780614	0.854291
V35	V	-1.757833	0.254896	0.626707
V36	V	-1.257833	0.754896	1.126707
O37	O	-1.622439	0.372435	0.744243
O38	O	-1.122439	0.872435	1.244243
O39	O	-1.868967	0.174162	0.545974
O40	O	-1.368967	0.674162	1.045974
O41	O	-1.773564	-0.035163	0.632737
O42	O	-1.273564	0.464837	1.132737
O43	O	-1.715455	0.564115	0.637786
O44	O	-1.215455	1.064115	1.137786
O45	O	-1.864523	0.265983	0.935926
O46	O	-1.364523	0.765983	1.435926
O47	O	-1.625521	0.260919	0.336646
O48	O	-1.125521	0.760919	0.836646
C49	C	-1.777106	0.652521	0.646638
C50	C	-1.277106	1.152521	1.146638
C51	C	-1.712752	0.894096	0.643590
C52	C	-1.212752	1.394096	1.143590
C53	C	-2.209280	-0.105911	0.643585
C54	C	-1.709280	0.394089	1.143585
C55	C	-2.263068	-0.347478	0.646683
C56	C	-1.763068	0.152522	1.146683
C57	C	-1.965951	0.274825	1.024318
C58	C	-1.465951	0.774825	1.524318
C59	C	-2.023912	0.271761	1.265891
C60	C	-1.523912	0.771761	1.765891
C61	C	-1.465951	0.274825	1.024318
C62	C	-0.965951	0.774825	1.524318
C63	C	-1.523912	0.271761	1.265891
C64	C	-1.023912	0.771761	1.765891
