data_functionalizedCrystal
_audit_creation_method	'MofGen! by Chris Wilmer'
_symmetry_space_group_name_H-M	'P1'
_symmetry_Int_Tables_number	1
_symmetry_cell_setting	triclinic
loop_
_symmetry_equiv_pos_as_xyz
  x,y,z
_cell_length_a	19.379189
_cell_length_b	15.698487
_cell_length_c	19.377372
_cell_angle_alpha	90.001052
_cell_angle_beta	62.432560
_cell_angle_gamma	52.484673
loop_
_atom_site_label
_atom_site_type_symbol
_atom_site_fract_x
_atom_site_fract_y
_atom_site_fract_z
Zr1	Zr	1.207673	-0.553466	0.316715
O2	O	1.345828	-0.704485	0.190302
O3	O	1.039838	-0.474455	0.382882
O4	O	1.220797	-0.699349	0.343343
O5	O	1.164867	-0.339407	0.229844
O6	O	1.264911	-0.732513	0.432880
O7	O	1.164869	-0.479591	0.229841
O8	O	0.941209	-0.330220	0.503607
O9	O	1.488569	-0.741700	0.159117
O10	O	1.152786	-0.505035	0.444799
O11	O	1.119862	-0.375666	0.377982
O12	O	1.332918	-0.640450	0.331431
O13	O	1.299994	-0.511082	0.264614
Zr14	Zr	1.278028	-0.382782	0.459521
Zr15	Zr	1.278031	-0.606360	0.459515
Zr16	Zr	1.207670	-0.329889	0.316721
Zr17	Zr	1.435329	-0.612821	0.266978
Zr18	Zr	1.050372	-0.323427	0.509257
O19	O	1.445863	-0.461793	0.393354
O20	O	1.445868	-0.779692	0.393346
O21	O	1.345823	-0.386586	0.190311
O22	O	1.139873	-0.231764	0.585934
O23	O	1.139878	-0.549663	0.585925
O24	O	1.039833	-0.156556	0.382890
O25	O	1.320834	-0.596842	0.546391
O26	O	1.264904	-0.236900	0.432893
O27	O	1.220790	-0.203735	0.343356
O28	O	1.320832	-0.456658	0.546395
O29	O	1.544494	-0.783743	0.272625
O30	O	0.941207	-0.152505	0.503611
O31	O	0.997132	-0.194548	0.617118
O32	O	0.997134	-0.372263	0.617114
O33	O	1.488567	-0.563986	0.159122
O34	O	1.544492	-0.606029	0.272629
O35	O	1.152783	-0.295799	0.444805
O36	O	1.185707	-0.425167	0.511622
O37	O	1.365839	-0.560582	0.398254
O38	O	1.332915	-0.431214	0.331436
C39	C	0.958087	-0.393881	0.450330
C40	C	0.861441	-0.368683	0.471445
C41	C	0.814840	-0.682692	0.208489
C42	C	0.723961	-0.658890	0.228370
C43	C	0.615402	-0.500002	0.361360
C44	C	0.706272	-0.523786	0.341488
C45	C	0.805986	-0.615134	0.265052
C46	C	0.697419	-0.456228	0.398051
C47	C	0.788282	-0.480015	0.378183
C48	C	0.887999	-0.571360	0.301751
C49	C	0.896850	-0.638921	0.245183
C50	C	0.597705	-0.364886	0.474489
C51	C	0.588851	-0.297328	0.531052
C52	C	0.679714	-0.321109	0.511182
C53	C	0.779431	-0.412454	0.434750
C54	C	0.670864	-0.253548	0.567749
C55	C	0.761727	-0.277335	0.547881
C56	C	0.870295	-0.436241	0.414882
C57	C	1.242854	-0.747786	0.388111
C58	C	1.242856	-0.842701	0.388108
C59	C	1.242842	-1.016465	0.388128
C60	C	1.242845	-0.919767	0.388120
C61	C	1.527614	-0.542368	0.325905
C62	C	1.624260	-0.567566	0.304791
C63	C	1.154843	-0.401963	0.209496
C64	C	1.124975	-0.379508	0.148874
C65	C	1.242847	-0.188463	0.388125
C66	C	1.242845	-0.093548	0.388128
C67	C	1.496863	-0.659082	-0.346385
C68	C	1.468772	-0.637963	-0.403333
C69	C	1.280728	-0.496600	-0.284976
C70	C	1.308804	-0.517703	-0.228016
C71	C	1.416873	-0.598947	-0.258728
C72	C	1.228813	-0.457568	-0.140358
C73	C	1.256887	-0.478674	-0.083404
C74	C	1.364951	-0.559916	-0.114107
C75	C	1.444947	-0.620053	-0.201773
C76	C	1.120745	-0.376331	-0.109649
C77	C	1.040754	-0.316195	-0.021991
C78	C	1.068827	-0.337295	0.034965
C79	C	1.176891	-0.418537	0.004262
C80	C	0.988832	-0.277158	0.122631
C81	C	1.016905	-0.298265	0.179586
C82	C	1.204965	-0.439644	0.061217
C83	C	1.330858	-0.534286	0.566739
C84	C	1.360726	-0.556740	0.627362
C85	C	1.046095	-0.460042	0.628952
C86	C	0.979317	-0.457299	0.710689
C87	C	0.958083	-0.114219	0.450338
C88	C	0.861436	0.005893	0.471455
C89	C	1.046091	-0.180380	0.628959
C90	C	0.979312	-0.082723	0.710699
C91	C	1.439610	-0.755868	0.147277
C92	C	1.506389	-0.853526	0.065537
C93	C	1.439606	-0.476206	0.147284
C94	C	1.506384	-0.478949	0.065547
C95	C	1.527618	-0.822030	0.325898
C96	C	1.624265	-0.942142	0.304781
C97	C	0.930774	-0.497710	0.714192
C98	C	0.868039	-0.495155	0.790985
C99	C	0.853844	-0.452181	0.864274
C100	C	0.902396	-0.411769	0.860767
C101	C	0.965135	-0.414333	0.783974
C102	C	0.833234	0.103999	0.516252
C103	C	0.742435	0.216863	0.536088
C104	C	0.679835	0.231620	0.511132
C105	C	0.708044	0.133503	0.466328
C106	C	0.798846	0.020641	0.446487
C107	C	0.965141	-0.104393	0.783968
C108	C	0.902411	-0.012647	0.860774
C109	C	0.853846	0.100770	0.864309
C110	C	0.868023	0.122438	0.791031
C111	C	0.930759	0.030691	0.714226
C112	C	1.520571	-0.831858	-0.007735
C113	C	1.583329	-0.923612	-0.084546
C114	C	1.631899	-1.037029	-0.088083
C115	C	1.617716	-1.058696	-0.014803
C116	C	1.554965	-0.966945	0.062005
C117	C	1.554937	-0.438550	0.062041
C118	C	1.617696	-0.441136	-0.014756
C119	C	1.631895	-0.484115	-0.088046
C120	C	1.583339	-0.524521	-0.084538
C121	C	1.520587	-0.521942	-0.007743
C122	C	1.686839	-0.956860	0.329751
C123	C	1.777644	-1.069711	0.309925
C124	C	1.805877	-1.167843	0.265124
C125	C	1.743293	-1.153120	0.240155
C126	C	1.652486	-1.040270	0.259986
H127	H	0.896029	-0.757050	0.146233
H128	H	0.802754	-0.450099	0.926798
H129	H	0.884195	0.092005	0.536579
O130	O	1.692776	-1.126006	-0.162757
C131	C	1.694889	-1.082551	-0.226670
H132	H	1.621683	-0.984311	-0.196179
H133	H	1.770760	-1.099306	-0.264486
C134	C	1.783514	-1.265819	-0.324038
C135	C	1.693595	-1.145160	-0.286589
H136	H	1.782720	-1.304441	-0.361002
H137	H	1.782094	-1.295097	-0.280981
H138	H	1.846729	-1.279765	-0.355545
H139	H	1.630381	-1.131215	-0.255074
H140	H	1.695004	-1.115880	-0.329643
H141	H	1.543419	-0.984600	0.121664
O142	O	0.714852	0.312255	0.579709
C143	C	0.611737	0.382147	0.656472
H144	H	0.565989	0.363586	0.650222
H145	H	0.619060	0.360700	0.710287
C146	C	0.607194	0.535333	0.683748
C147	C	0.551002	0.512544	0.676069
H148	H	0.569731	0.615768	0.695840
H149	H	0.676667	0.488244	0.632034
H150	H	0.613293	0.517452	0.728593
H151	H	0.544916	0.530411	0.631219
H152	H	0.481527	0.559638	0.727777
O153	O	0.821002	-0.534576	0.794393
C154	C	0.858377	-0.628435	0.820407
H155	H	0.939262	-0.670467	0.805650
H156	H	0.798551	-0.594304	0.891672
C157	C	0.771413	-0.668667	0.790617
C158	C	0.870761	-0.720297	0.772485
H159	H	0.779048	-0.725330	0.761060
H160	H	0.746229	-0.605429	0.773093
H161	H	0.721568	-0.640226	0.850005
H162	H	0.920600	-0.748724	0.713100
H163	H	0.895954	-0.783542	0.789998
H164	H	1.828591	-1.081677	0.330260
H165	H	0.961984	-0.590728	0.285577
H166	H	0.942285	0.048353	0.654572
O167	O	0.944631	-0.539380	0.642934
C168	C	1.010438	-0.533016	0.574388
H169	H	1.006454	-0.463583	0.599842
H170	H	1.096643	-0.621734	0.535821
C171	C	0.976146	-0.585289	0.485961
C172	C	0.971246	-0.500004	0.517225
H173	H	0.951974	-0.564931	0.450697
H174	H	0.931814	-0.589582	0.532140
H175	H	1.047986	-0.659214	0.453827
H176	H	0.899405	-0.426084	0.549366
H177	H	1.015565	-0.495698	0.471049
H178	H	1.879821	-1.259726	0.248981
H179	H	0.507655	-0.222956	0.593288
H180	H	0.890828	-0.376781	0.920449
O181	O	1.473523	-0.721773	-0.004470
C182	C	1.499497	-0.722344	-0.085619
H183	H	1.576570	-0.814677	-0.136101
H184	H	1.431678	-0.693283	-0.089400
C185	C	1.420707	-0.524095	-0.038957
C186	C	1.515375	-0.637498	-0.100960
H187	H	1.430497	-0.471754	-0.048420
H188	H	1.403204	-0.523707	0.015716
H189	H	1.364201	-0.499893	-0.042114
H190	H	1.571876	-0.661703	-0.097794
H191	H	1.532888	-0.637887	-0.155632
H192	H	1.292966	-0.505770	0.036206
O193	O	0.888844	-0.033894	0.931863
C194	C	0.989357	-0.116881	0.917975
H195	H	1.054920	-0.170768	0.846849
H196	H	1.003994	-0.069543	0.944943
C197	C	0.910287	-0.132503	1.049817
C198	C	0.990813	-0.198694	0.962458
H199	H	0.911185	-0.182966	1.077258
H200	H	0.842568	-0.076589	1.059175
H201	H	0.922494	-0.093058	1.072278
H202	H	0.978597	-0.238126	0.939996
H203	H	1.058530	-0.254617	0.953096
H204	H	1.657222	-0.408228	-0.017596
H205	H	0.605901	0.323526	0.527293
H206	H	1.663868	-0.876969	0.366229
H207	H	0.523726	-0.345542	0.490674
H208	H	1.543382	-0.403544	0.121710
O209	O	0.647231	0.147695	0.442146
C210	C	0.607310	0.096914	0.479297
H211	H	0.660927	0.027524	0.495866
H212	H	0.522444	0.167701	0.539555
C213	C	0.540064	0.124784	0.395748
C214	C	0.605922	0.039550	0.416091
H215	H	0.539202	0.089403	0.356762
H216	H	0.566955	0.159000	0.370721
H217	H	0.469348	0.183767	0.445969
H218	H	0.676638	-0.019422	0.365872
H219	H	0.579042	0.005323	0.441109
H220	H	1.004652	-0.381418	0.781133
O221	O	0.826255	-0.074740	0.403082
C222	C	0.826083	-0.140366	0.452723
H223	H	0.837418	-0.120389	0.501093
H224	H	0.746441	-0.115928	0.487416
C225	C	0.904249	-0.296588	0.335335
C226	C	0.918179	-0.272058	0.394740
H227	H	0.961054	-0.377821	0.299569
H228	H	0.904360	-0.252373	0.301891
H229	H	0.837876	-0.276214	0.364256
H230	H	0.984543	-0.292418	0.365819
H231	H	0.918080	-0.316280	0.428178
H232	H	1.766295	-1.233035	0.203676
H233	H	1.004675	-0.196735	0.781105
O234	O	1.601807	-0.738086	-0.376113
C235	C	1.623681	-0.827918	-0.346732
H236	H	1.546247	-0.794174	-0.286818
H237	H	1.659268	-0.906049	-0.397892
C238	C	1.799205	-0.907532	-0.400048
C239	C	1.704101	-0.866083	-0.326457
H240	H	1.848816	-0.931079	-0.387545
H241	H	1.784471	-0.847013	-0.419846
H242	H	1.828848	-0.972636	-0.442675
H243	H	1.674454	-0.800972	-0.283836
H244	H	1.718833	-0.926592	-0.306651
O245	O	0.792896	0.189765	0.938999
C246	C	0.790830	0.146298	1.002902
H247	H	0.809417	0.062297	0.984343
H248	H	0.853380	0.126965	1.010478
C249	C	0.656138	0.341576	1.110334
C250	C	0.678958	0.238410	1.087544
H251	H	0.587133	0.398396	1.162546
H252	H	0.657533	0.370861	1.067282
H253	H	0.708272	0.325449	1.116642
H254	H	0.626833	0.254535	1.081226
H255	H	0.677552	0.209130	1.130597
O256	O	0.573943	-0.164703	0.641918
C257	C	0.501841	-0.082061	0.624244
H258	H	0.548642	-0.089474	0.557352
H259	H	0.451250	-0.099892	0.628928
C260	C	0.370717	0.051419	0.771126
C261	C	0.428200	0.042321	0.688971
H262	H	0.325288	0.128144	0.811054
H263	H	0.419292	-0.004260	0.783035
H264	H	0.328567	0.036553	0.775018
H265	H	0.470359	0.057172	0.685077
H266	H	0.379630	0.098005	0.677062
H267	H	0.754514	-0.222321	0.593939
O268	O	1.664655	-1.168791	-0.018145
C269	C	1.584981	-1.167882	0.038120
H270	H	1.509695	-1.075575	0.089449
H271	H	1.565495	-1.196328	0.001478
C272	C	1.718438	-1.366527	0.016700
C273	C	1.625974	-1.253156	0.079748
H274	H	1.743725	-1.419131	0.042375
H275	H	1.772117	-1.367142	-0.021210
H276	H	1.702188	-1.390215	-0.013831
H277	H	1.642228	-1.229464	0.110270
H278	H	1.572298	-1.252539	0.117664
H279	H	1.601545	-1.028302	0.239647
O280	O	1.692715	-0.486536	-0.162668
C281	C	1.629543	-0.417385	-0.191135
H282	H	1.558440	-0.409283	-0.161816
H283	H	1.599220	-0.326467	-0.171275
C284	C	1.784876	-0.485559	-0.324676
C285	C	1.697551	-0.475616	-0.288671
H286	H	1.826826	-0.521475	-0.384840
H287	H	1.827437	-0.532145	-0.305497
H288	H	1.759594	-0.409789	-0.308117
H289	H	1.722834	-0.551386	-0.305221
H290	H	1.654996	-0.429045	-0.307855
H291	H	0.828473	0.214793	0.793922
H292	H	0.951484	-0.510599	0.352626
O293	O	0.518481	-0.411149	0.435526
C294	C	0.446388	-0.328511	0.417843
H295	H	0.493198	-0.335937	0.350948
H296	H	0.395791	-0.346336	0.422530
C297	C	0.315260	-0.195012	0.564720
C298	C	0.372753	-0.204126	0.482561
H299	H	0.269834	-0.118286	0.604643
H300	H	0.363828	-0.250688	0.576635
H301	H	0.273105	-0.209872	0.568614
H302	H	0.414916	-0.189281	0.478666
H303	H	0.324189	-0.148444	0.470647
O304	O	0.993730	-0.727795	0.170988
C305	C	1.020831	-0.834468	0.168518
H306	H	0.975471	-0.826286	0.236054
H307	H	0.998264	-0.855701	0.131084
C308	C	1.197905	-0.943409	0.042205
C309	C	1.142200	-0.933363	0.125155
H310	H	1.272771	-1.004415	0.015454
H311	H	1.179646	-0.871543	0.043867
H312	H	1.179087	-0.961099	0.011021
H313	H	1.161008	-0.915660	0.156341
H314	H	1.160465	-1.005230	0.123497
O315	O	1.546392	-0.696203	-0.488506
C316	C	1.535812	-0.614863	-0.524998
H317	H	1.449970	-0.525861	-0.482154
H318	H	1.593034	-0.606502	-0.532251
C319	C	1.668349	-0.766846	-0.665562
C320	C	1.562913	-0.657534	-0.612943
H321	H	1.685071	-0.793169	-0.719812
H322	H	1.675481	-0.821648	-0.640977
H323	H	1.716022	-0.759864	-0.671596
H324	H	1.515242	-0.664521	-0.606901
H325	H	1.555774	-0.602735	-0.637529
O326	O	1.175806	-0.417684	-0.255291
C327	C	1.168177	-0.411972	-0.324356
H328	H	1.245154	-0.443022	-0.382999
H329	H	1.155748	-0.470598	-0.337710
C330	C	0.978106	-0.246456	-0.230515
C331	C	1.072647	-0.284584	-0.302540
H332	H	0.919176	-0.167879	-0.217058
H333	H	0.983244	-0.250307	-0.183984
H334	H	0.967763	-0.295322	-0.241653
H335	H	1.082995	-0.235727	-0.291398
H336	H	1.067508	-0.280722	-0.349069
H337	H	1.594863	-0.905947	-0.144204
H338	H	1.481053	-0.554836	-0.004898
O339	O	0.935766	-0.237414	0.007879
C340	C	0.885407	-0.272917	0.057823
H341	H	0.948134	-0.371365	0.038853
H342	H	0.843078	-0.224502	0.127784
C343	C	0.725802	-0.123198	0.066798
C344	C	0.802844	-0.244116	0.043494
H345	H	0.674869	-0.105428	0.057964
H346	H	0.759727	-0.099276	0.033153
H347	H	0.690540	-0.082866	0.125098
H348	H	0.838113	-0.284444	-0.014807
H349	H	0.768922	-0.268044	0.077130
H350	H	0.731183	-0.713914	0.182305
H351	H	1.387806	-0.577101	-0.067728
H352	H	1.097891	-0.359156	-0.156028
H353	H	1.532947	-0.686179	-0.226783
H354	H	0.900843	-0.211019	0.147625
H355	H	0.951769	-0.249279	0.250962
H356	H	1.594910	-0.559513	-0.144221
