data_functionalizedCrystal
_audit_creation_method	'MofGen! by Chris Wilmer'
_symmetry_space_group_name_H-M	'P1'
_symmetry_Int_Tables_number	1
_symmetry_cell_setting	triclinic
loop_
_symmetry_equiv_pos_as_xyz
  x,y,z
_cell_length_a	14.971487
_cell_length_b	13.448316
_cell_length_c	14.971486
_cell_angle_alpha	89.996136
_cell_angle_beta	83.614266
_cell_angle_gamma	90.001095
loop_
_atom_site_label
_atom_site_type_symbol
_atom_site_fract_x
_atom_site_fract_y
_atom_site_fract_z
O1	O	-1.186945	0.082550	-0.116564
O2	O	-0.926545	0.082583	-0.130522
O3	O	-1.063725	0.082559	0.006657
O4	O	-1.049766	0.082575	-0.253743
O5	O	-1.063711	-0.082825	0.006658
O6	O	-0.926531	-0.082801	-0.130521
O7	O	-1.186932	-0.082834	-0.116563
Cu8	Cu	-1.056730	-0.097918	-0.123542
Cu9	Cu	-1.056746	0.097667	-0.123543
O10	O	-1.049752	-0.082809	-0.253742
C11	C	-0.893214	-0.000104	-0.129897
C12	C	-0.793917	-0.000092	-0.128026
N13	N	-1.056725	-0.235482	-0.123540
C14	C	-0.736691	-0.000087	-0.208615
C15	C	-0.643392	-0.000100	-0.206852
C16	C	-0.607320	-0.000110	-0.124499
C17	C	-0.664552	-0.000118	-0.043903
C18	C	-0.757850	-0.000112	-0.045668
C19	C	-0.470090	-0.000127	-0.040232
C20	C	-0.376786	-0.000131	-0.038467
C21	C	-0.355632	-0.000115	-0.201416
C22	C	-0.448929	-0.000109	-0.203181
C23	C	-0.506156	-0.000115	-0.122585
C24	C	-1.111028	-0.287522	-0.177881
C25	C	-1.111039	-0.391625	-0.177878
C26	C	-1.056742	-0.443687	-0.123537
C27	C	-1.002438	-0.391640	-0.069189
C28	C	-1.002432	-0.287538	-0.069189
C29	C	-1.002452	-0.608620	-0.069195
C30	C	-1.002456	-0.712728	-0.069196
C31	C	-1.111059	-0.712707	-0.177884
C32	C	-1.111053	-0.608606	-0.177884
C33	C	-1.056747	-0.556566	-0.123537
C34	C	-0.220263	-0.000138	-0.117187
C35	C	-0.319560	-0.000126	-0.119056
C36	C	-1.063094	-0.000133	0.039982
C37	C	-1.061223	-0.000132	0.139279
N38	N	-1.056758	0.235232	-0.123538
C39	C	-1.050383	-0.000116	-0.287067
C40	C	-1.052254	-0.000110	-0.386364
C41	C	-1.141812	-0.000143	0.196504
C42	C	-1.140049	-0.000133	0.289804
C43	C	-1.057696	-0.000118	0.325876
C44	C	-0.977100	-0.000104	0.268644
C45	C	-0.978864	-0.000108	0.175346
C46	C	-0.973429	-0.000100	0.463107
C47	C	-0.971665	-0.000099	0.556411
C48	C	-1.134614	-0.000125	0.577564
C49	C	-1.136378	-0.000128	0.484266
C50	C	-1.055782	-0.000116	0.427040
H51	H	-0.766053	-0.000078	-0.275677
H52	H	-1.155259	-0.433992	-0.222126
H53	H	-1.208873	-0.000160	0.167142
H54	H	-0.913240	-0.000098	0.128754
H55	H	-0.635175	-0.000141	0.023150
H56	H	-0.958213	-0.245169	-0.024939
Br57	Br	-1.249425	-0.000147	0.367464
H58	H	-0.596802	-0.000095	-0.272476
H59	H	-1.155262	-0.566220	-0.222137
Br60	Br	-0.327830	-0.000179	0.073299
Br61	Br	-0.497885	-0.000080	-0.314947
H62	H	-1.155273	-0.755083	-0.222138
H63	H	-0.958242	-0.755114	-0.024948
Br64	Br	-1.248144	-0.000145	0.435311
Br65	Br	-0.864048	-0.000080	0.385443
H66	H	-0.904606	-0.000104	0.585777
H67	H	-0.516682	-0.000134	0.025398
H68	H	-1.200238	-0.000132	0.624162
H69	H	-0.958231	-0.566252	-0.024939
Br70	Br	-0.928752	-0.462293	0.004564
Br71	Br	-0.865333	-0.000069	0.317598
H72	H	-0.309033	-0.000114	-0.267040
Br73	Br	-1.184717	-0.216877	-0.251637
Br74	Br	-0.835515	-0.000128	0.063708
