data_functionalizedCrystal
_audit_creation_method	'MofGen! by Chris Wilmer'
_symmetry_space_group_name_H-M	'P1'
_symmetry_Int_Tables_number	1
_symmetry_cell_setting	triclinic
loop_
_symmetry_equiv_pos_as_xyz
  x,y,z
_cell_length_a	10.654549
_cell_length_b	15.995292
_cell_length_c	9.730217
_cell_angle_alpha	89.999943
_cell_angle_beta	89.997559
_cell_angle_gamma	83.977767
loop_
_atom_site_label
_atom_site_type_symbol
_atom_site_fract_x
_atom_site_fract_y
_atom_site_fract_z
O1	O	1.666260	0.117624	-0.114313
O2	O	2.166260	0.617624	0.385687
O3	O	1.300632	0.128824	-0.114307
O4	O	1.800632	0.628824	0.385693
O5	O	1.493479	0.001391	-0.114312
O6	O	1.993479	0.501391	0.385688
O7	O	1.473413	0.245056	-0.114308
O8	O	1.973413	0.745056	0.385692
O9	O	1.493473	0.001390	0.114268
O10	O	1.993473	0.501390	0.614268
O11	O	1.300626	0.128823	0.114273
O12	O	1.800626	0.628823	0.614273
O13	O	1.666254	0.117622	0.114267
O14	O	2.166254	0.617622	0.614267
Zn15	Zn	1.483439	0.123222	0.150562
Zn16	Zn	1.983439	0.623222	0.650562
Zn17	Zn	1.483447	0.123224	-0.150602
Zn18	Zn	1.983447	0.623224	0.349398
O19	O	1.473407	0.245055	0.114272
O20	O	1.973407	0.745055	0.614272
C21	C	1.253842	0.128000	-0.000016
C22	C	1.753842	0.628000	0.499984
C23	C	1.114432	0.125537	-0.000015
C24	C	1.614432	0.625537	0.499985
C25	C	0.822471	0.273294	-0.000051
C26	C	1.322471	0.773294	0.499949
C27	C	0.872974	0.350644	-0.000044
C28	C	1.372974	0.850644	0.499956
C29	C	1.003961	0.352961	-0.000026
C30	C	1.503961	0.852961	0.499974
C31	C	1.084450	0.277920	-0.000019
C32	C	1.584450	0.777920	0.499981
C33	C	1.033947	0.200570	-0.000026
C34	C	1.533947	0.700570	0.499974
C35	C	0.902956	0.198261	-0.000040
C36	C	1.402956	0.698261	0.499960
C37	C	1.063930	0.048187	-0.000022
C38	C	1.563930	0.548187	0.499978
C39	C	0.932943	0.045868	-0.000030
C40	C	1.432943	0.545868	0.499970
C41	C	1.144419	-0.026854	-0.000015
C42	C	1.644419	0.473146	0.499985
C43	C	1.093917	-0.104205	-0.000012
C44	C	1.593917	0.395795	0.499988
C45	C	0.962922	-0.106519	-0.000029
C46	C	1.462922	0.393481	0.499971
C47	C	0.882441	-0.031482	-0.000037
C48	C	1.382441	0.468518	0.499963
C49	C	1.492659	-0.029810	-0.000026
C50	C	1.992659	0.470190	0.499974
C51	C	1.490211	-0.122777	-0.000036
C52	C	1.990211	0.377223	0.499964
C53	C	1.481210	-0.460568	-0.000023
C54	C	1.981210	0.039432	0.499977
C55	C	1.620401	-0.436446	0.000485
C56	C	2.120401	0.063554	0.500485
C57	C	1.623047	-0.339755	-0.000035
C58	C	2.123047	0.160245	0.499965
C59	C	1.485676	-0.292986	-0.000029
C60	C	1.985676	0.207014	0.499971
C61	C	1.416090	-0.322491	-0.130554
C62	C	1.916090	0.177509	0.369446
C63	C	1.414415	-0.419291	-0.130658
C64	C	1.914415	0.080709	0.369342
C65	C	1.411566	-0.419166	0.129280
C66	C	1.911566	0.080834	0.629280
C67	C	1.416724	-0.322644	0.131000
C68	C	1.916724	0.177356	0.631000
C69	C	1.488193	-0.198275	-0.000036
C70	C	1.988193	0.301725	0.499964
C71	C	1.478689	-0.555278	-0.000025
C72	C	1.978689	-0.055278	0.499975
C73	C	1.713044	0.118446	-0.000026
C74	C	2.213044	0.618446	0.499974
C75	C	1.852454	0.120909	-0.000037
C76	C	2.352454	0.620909	0.499963
C77	C	1.474227	0.276256	-0.000017
C78	C	1.974227	0.776256	0.499983
C79	C	1.476675	0.369223	-0.000016
C80	C	1.976675	0.869223	0.499984
N81	N	1.483443	0.123221	0.356099
N82	N	1.983443	0.623221	0.856099
N83	N	1.483453	0.123219	-0.356138
N84	N	1.983453	0.623219	0.143862
C85	C	1.654278	0.010412	0.356085
C86	C	2.154278	0.510412	0.856085
C87	C	1.739704	-0.045990	0.428018
C88	C	2.239704	0.454010	0.928018
C89	C	1.739717	-0.045990	0.571898
C90	C	2.239717	0.454010	1.071898
C91	C	1.654292	0.010416	0.643848
C92	C	2.154292	0.510416	1.143848
C93	C	1.568866	0.066818	0.571915
C94	C	2.068866	0.566818	1.071915
C95	C	1.568865	0.066814	0.428032
C96	C	2.068865	0.566814	0.928032
C97	C	1.398027	0.179621	0.571929
C98	C	1.898027	0.679621	1.071929
C99	C	1.398018	0.179627	0.428049
C100	C	1.898018	0.679627	0.928049
C101	C	1.312602	0.236027	0.643879
C102	C	1.812602	0.736027	1.143879
C103	C	1.227180	0.292434	0.571946
C104	C	1.727180	0.792434	1.071946
C105	C	1.227172	0.292433	0.428057
C106	C	1.727172	0.792433	0.928057
C107	C	1.312592	0.236028	0.356116
C108	C	1.812592	0.736028	0.856116
H109	H	0.807425	0.411740	-0.000054
H110	H	1.307425	0.911740	0.499946
H111	H	1.191105	0.279813	-0.000020
H112	H	1.691105	0.779813	0.499980
H113	H	1.312358	-0.434435	-0.136568
H114	H	1.812358	0.065565	0.363432
H115	H	0.775782	-0.033358	-0.000039
H116	H	1.275782	0.466642	0.499961
H117	H	1.045078	0.415946	-0.000018
H118	H	1.545078	0.915946	0.499982
H119	H	1.455397	-0.447000	0.228218
H120	H	1.955397	0.053000	0.728218
H121	H	1.315004	-0.291212	-0.135402
H122	H	1.815004	0.208788	0.364598
H123	H	1.809273	-0.091920	0.630466
H124	H	2.309273	0.408080	1.130466
H125	H	1.677545	-0.320413	0.093528
H126	H	2.177545	0.179587	0.593528
H127	H	1.467393	-0.303784	0.227562
H128	H	1.967393	0.196216	0.727562
H129	H	1.157603	0.338359	0.369497
H130	H	1.657603	0.838359	0.869497
H131	H	1.251075	-0.024962	-0.000007
H132	H	1.751075	0.475038	0.499993
H133	H	1.309110	-0.433753	0.130164
H134	H	1.809110	0.066247	0.630164
H135	H	1.316457	-0.290258	0.138888
H136	H	1.816457	0.209742	0.638888
H137	H	1.464417	-0.302149	-0.227694
H138	H	1.964417	0.197851	0.272306
H139	H	1.157628	0.338352	0.630536
H140	H	1.657628	0.838352	1.130536
H141	H	1.462612	-0.445827	-0.228232
H142	H	1.962612	0.054173	0.271768
H143	H	1.159461	-0.165297	-0.000016
H144	H	1.659461	0.334703	0.499984
H145	H	1.674050	-0.464131	0.094090
H146	H	2.174050	0.035869	0.594090
H147	H	0.921812	-0.169507	-0.000042
H148	H	1.421812	0.330493	0.499958
H149	H	1.677871	-0.321030	-0.093765
H150	H	2.177871	0.178970	0.406235
H151	H	1.654286	0.010414	0.238930
H152	H	2.154286	0.510414	0.738930
H153	H	1.312598	0.236025	0.238961
H154	H	1.812598	0.736025	0.738961
H155	H	1.673757	-0.465152	-0.092596
H156	H	2.173757	0.034848	0.407404
H157	H	1.809254	-0.091916	0.369424
H158	H	2.309254	0.408084	0.869424
H159	H	1.654297	0.010405	0.761002
H160	H	2.154297	0.510405	1.261002
H161	H	0.715813	0.271415	-0.000042
H162	H	1.215813	0.771415	0.499958
H163	H	1.312611	0.236020	0.761033
H164	H	1.812611	0.736020	1.261033
