data_functionalizedCrystal
_audit_creation_method	'MofGen! by Chris Wilmer'
_symmetry_space_group_name_H-M	'P1'
_symmetry_Int_Tables_number	1
_symmetry_cell_setting	triclinic
loop_
_symmetry_equiv_pos_as_xyz
  x,y,z
_cell_length_a	17.699097
_cell_length_b	14.044220
_cell_length_c	16.176319
_cell_angle_alpha	89.992517
_cell_angle_beta	89.988988
_cell_angle_gamma	88.238654
loop_
_atom_site_label
_atom_site_type_symbol
_atom_site_fract_x
_atom_site_fract_y
_atom_site_fract_z
O1	O	1.012344	0.119911	-0.068818
O2	O	0.793042	0.135490	-0.068805
O3	O	0.899401	-0.010277	-0.068803
O4	O	0.905985	0.265678	-0.068820
O5	O	0.899385	-0.010286	0.068690
O6	O	0.793025	0.135481	0.068688
O7	O	1.012327	0.119901	0.068675
Cu8	Cu	0.902675	0.127690	0.081236
Cu9	Cu	0.902694	0.127701	-0.081366
O10	O	0.905968	0.265668	0.068673
C11	C	0.764798	0.134925	-0.000057
C12	C	0.680664	0.133244	-0.000051
C13	C	0.164244	0.122944	-0.075032
C14	C	0.243297	0.124518	-0.075028
C15	C	0.282808	0.125301	-0.000077
C16	C	0.243263	0.124501	0.074875
C17	C	0.164212	0.122921	0.074870
C18	C	0.562067	0.130871	0.074896
C19	C	0.641123	0.132454	0.074895
C20	C	0.641152	0.132468	-0.075001
C21	C	0.562101	0.130888	-0.075006
C22	C	0.522563	0.130083	-0.000055
C23	C	0.436845	0.128376	-0.000060
C24	C	0.368524	0.127015	-0.000071
C25	C	0.896511	-0.045589	-0.000056
C26	C	0.887915	-0.150796	-0.000055
C27	C	0.872200	-0.343422	-0.000066
C28	C	0.933166	-0.401192	-0.000072
C29	C	0.924422	-0.508376	-0.000078
C30	C	0.880943	-0.236228	-0.000059
C31	C	1.040571	0.120466	-0.000075
C32	C	1.124705	0.122148	-0.000086
C33	C	0.908858	0.300981	-0.000076
C34	C	0.917454	0.406188	-0.000083
N35	N	0.902666	0.127682	0.195601
N36	N	0.902708	0.127702	-0.195731
C37	C	0.949780	0.063163	0.238866
C38	C	0.949783	0.063162	0.325413
C39	C	0.902677	0.127685	0.368694
C40	C	0.855559	0.192208	0.325423
C41	C	0.855552	0.192204	0.238877
C42	C	0.855586	0.192226	0.674451
C43	C	0.855598	0.192227	0.761002
C44	C	0.949818	0.063184	0.760987
C45	C	0.949811	0.063180	0.674441
C46	C	0.902690	0.127698	0.631178
C47	C	0.902685	0.127697	0.537334
C48	C	0.902685	0.127692	0.462536
H49	H	0.275487	0.125161	-0.136056
H50	H	0.817200	0.244741	0.360667
H51	H	0.991927	-0.370153	-0.000131
H52	H	0.988146	0.010625	0.360639
H53	H	0.988171	0.010642	0.639205
H54	H	0.988184	0.010646	0.796221
H55	H	0.817236	0.244771	0.796240
H56	H	0.529934	0.130255	-0.136039
H57	H	0.132020	0.122282	0.135899
H58	H	0.813443	-0.374459	-0.000064
H59	H	0.817220	0.244760	0.639232
H60	H	0.132080	0.122314	-0.136066
H61	H	0.673353	0.133119	-0.136030
H62	H	0.673291	0.133092	0.135933
H63	H	0.817186	0.244740	0.203651
H64	H	0.529885	0.130202	0.135926
H65	H	0.275440	0.125132	0.135901
H66	H	0.988142	0.010624	0.203633
