data_functionalizedCrystal
_audit_creation_method	'MofGen! by Chris Wilmer'
_symmetry_space_group_name_H-M	'P1'
_symmetry_Int_Tables_number	1
_symmetry_cell_setting	triclinic
loop_
_symmetry_equiv_pos_as_xyz
  x,y,z
_cell_length_a	11.792254
_cell_length_b	10.268362
_cell_length_c	10.654550
_cell_angle_alpha	90.005126
_cell_angle_beta	84.341764
_cell_angle_gamma	90.004525
loop_
_atom_site_label
_atom_site_type_symbol
_atom_site_fract_x
_atom_site_fract_y
_atom_site_fract_z
O1	O	1.507298	0.108299	0.172212
O2	O	1.177000	0.108302	0.189936
O3	O	1.349743	0.108292	-0.001686
O4	O	1.334555	0.108308	0.363834
O5	O	1.349728	-0.108309	-0.001694
O6	O	1.176985	-0.108299	0.189928
O7	O	1.507283	-0.108302	0.172204
Cu8	Cu	1.342132	-0.128078	0.181065
Cu9	Cu	1.342150	0.128078	0.181075
O10	O	1.334540	-0.108292	0.363826
C11	C	1.134699	0.000002	0.188815
C12	C	1.008678	0.000003	0.185474
N13	N	1.342128	-0.308244	0.181058
C14	C	0.906335	0.000008	0.182758
C15	C	0.777941	0.000009	0.179363
C16	C	1.342145	-0.573914	0.181072
C17	C	1.342132	-0.426076	0.181068
C18	C	1.549584	0.000001	0.173325
C19	C	1.675605	0.000009	0.176666
C20	C	1.348620	-0.000008	-0.048485
C21	C	1.345284	-0.000006	-0.187919
N22	N	1.342164	0.308243	0.181072
C23	C	1.446992	-0.000006	-0.267687
C24	C	1.443850	0.000010	-0.398699
C25	C	1.237283	0.000021	-0.370162
C26	C	1.240426	0.000015	-0.239153
C27	C	1.563644	0.075901	-0.594874
C28	C	1.665358	0.075878	-0.674648
C29	C	1.757559	-0.000028	-0.644735
C30	C	1.748051	-0.075943	-0.535051
C31	C	1.646335	-0.075932	-0.455284
C32	C	1.554138	0.000005	-0.485196
C33	C	1.120639	-0.075887	-0.042977
C34	C	1.018922	-0.075886	0.036793
C35	C	0.926712	0.000013	0.006884
C36	C	0.936209	0.075908	-0.102803
C37	C	1.037926	0.075906	-0.182572
C38	C	1.130137	0.000010	-0.152654
C39	C	1.335662	0.000010	0.410625
C40	C	1.338999	0.000017	0.550059
H41	H	1.532374	-0.000020	-0.225978
N42	N	1.636629	-0.153480	-0.343262
N43	N	1.718957	-0.221264	-0.316570
H44	H	1.712108	-0.276032	-0.237449
H45	H	1.823129	-0.137762	-0.510714
H46	H	1.011191	-0.137701	0.126098
H47	H	0.843883	-0.000009	0.071835
N48	N	1.675052	0.153424	-0.786680
N49	N	1.592725	0.221211	-0.813371
H50	H	1.599572	0.275971	-0.892496
H51	H	1.151911	0.000035	-0.411893
N52	N	1.469474	0.153451	-0.625454
N53	N	1.426300	0.134339	-0.726401
H54	H	1.359792	0.189109	-0.748006
H55	H	1.195733	-0.137666	-0.018595
H56	H	1.045659	0.137724	-0.271876
N57	N	0.842014	0.153421	-0.133380
N58	N	0.749188	0.100410	-0.149744
H59	H	0.682657	0.155148	-0.171341
H60	H	1.840377	-0.000045	-0.709696
