data_functionalizedCrystal
_audit_creation_method	'MofGen! by Chris Wilmer'
_symmetry_space_group_name_H-M	'P1'
_symmetry_Int_Tables_number	1
_symmetry_cell_setting	triclinic
loop_
_symmetry_equiv_pos_as_xyz
  x,y,z
_cell_length_a	14.519709
_cell_length_b	19.188924
_cell_length_c	13.596369
_cell_angle_alpha	89.991944
_cell_angle_beta	90.000291
_cell_angle_gamma	83.411055
loop_
_atom_site_label
_atom_site_type_symbol
_atom_site_fract_x
_atom_site_fract_y
_atom_site_fract_z
O1	O	1.223297	0.091525	-0.081668
O2	O	1.723297	0.591525	0.418332
O3	O	0.954753	0.102303	-0.081699
O4	O	1.454753	0.602303	0.418301
O5	O	1.096778	-0.004715	-0.081671
O6	O	1.596778	0.495285	0.418329
O7	O	1.081272	0.198542	-0.081696
O8	O	1.581272	0.698542	0.418304
O9	O	1.096764	-0.004720	0.081912
O10	O	1.596764	0.495280	0.581912
O11	O	0.954739	0.102297	0.081884
O12	O	1.454739	0.602297	0.581884
O13	O	1.223283	0.091519	0.081915
O14	O	1.723283	0.591519	0.581915
Zn15	Zn	1.089008	0.096907	0.107872
Zn16	Zn	1.589008	0.596907	0.607872
Zn17	Zn	1.089027	0.096915	-0.107656
Zn18	Zn	1.589027	0.596915	0.392344
O19	O	1.081258	0.198536	0.081887
O20	O	1.581258	0.698536	0.581887
C21	C	0.920389	0.101798	0.000089
C22	C	1.420389	0.601798	0.500089
C23	C	0.818017	0.100292	0.000078
C24	C	1.318017	0.600292	0.500078
C25	C	1.096270	-0.030730	0.000121
C26	C	1.596270	0.469270	0.500121
C27	C	1.094765	-0.108240	0.000124
C28	C	1.594765	0.391760	0.500124
C29	C	0.443156	0.094751	0.000123
C30	C	0.943156	0.594751	0.500123
C31	C	0.547454	0.096290	0.000110
C32	C	1.047454	0.596290	0.500110
C33	C	0.630583	0.097522	0.000100
C34	C	1.130583	0.597522	0.500100
C35	C	0.734888	0.099061	0.000088
C36	C	1.234888	0.599061	0.500088
C37	C	1.094071	-0.144639	-0.089045
C38	C	1.594071	0.355361	0.410955
C39	C	1.092645	-0.217467	-0.089053
C40	C	1.592645	0.282533	0.410947
C41	C	1.091931	-0.253895	0.000114
C42	C	1.591931	0.246105	0.500114
C43	C	1.092620	-0.217487	0.089295
C44	C	1.592620	0.282513	0.589295
C45	C	1.094038	-0.144660	0.089300
C46	C	1.594038	0.355340	0.589300
N47	N	1.142181	-0.373382	0.066484
N48	N	1.642181	0.126618	0.566484
N49	N	1.140837	-0.442565	0.066473
N50	N	1.640837	0.057435	0.566473
C51	C	1.087660	-0.473319	0.000104
C52	C	1.587660	0.026681	0.500104
N53	N	1.035889	-0.432279	-0.066270
N54	N	1.535889	0.067721	0.433730
N55	N	1.037237	-0.363090	-0.066261
N56	N	1.537237	0.136910	0.433739
C57	C	1.090394	-0.332864	0.000118
C58	C	1.590394	0.167136	0.500118
C59	C	1.085417	-0.588686	-0.089080
C60	C	1.585417	-0.088686	0.410920
C61	C	1.083985	-0.661514	-0.089084
C62	C	1.583985	-0.161514	0.410916
C63	C	1.083970	-0.661535	0.089267
C64	C	1.583970	-0.161535	0.589267
C65	C	1.085393	-0.588707	0.089268
C66	C	1.585393	-0.088707	0.589268
C67	C	1.086121	-0.552287	0.000092
C68	C	1.586121	-0.052287	0.500092
C69	C	1.257646	0.092024	0.000125
C70	C	1.757646	0.592024	0.500125
C71	C	1.360018	0.093529	0.000130
C72	C	1.860018	0.593529	0.500130
C73	C	1.081766	0.224552	0.000093
C74	C	1.581766	0.724552	0.500093
C75	C	1.083270	0.302062	0.000084
C76	C	1.583270	0.802062	0.500084
N77	N	1.089003	0.096902	0.254964
N78	N	1.589003	0.596902	0.754964
N79	N	1.089040	0.096915	-0.254747
N80	N	1.589040	0.596915	0.245253
C81	C	1.089026	0.096915	0.656255
C82	C	1.589026	0.596915	1.156255
C83	C	1.089017	0.096914	0.544603
C84	C	1.589017	0.596914	1.044603
C85	C	1.089015	0.096909	0.455613
C86	C	1.589015	0.596909	0.955613
C87	C	1.089005	0.096907	0.343954
C88	C	1.589005	0.596907	0.843954
H89	H	1.092074	-0.247107	-0.161668
H90	H	1.592074	0.252893	0.338332
O91	O	1.086122	-0.553459	0.175976
O92	O	1.586122	-0.053459	0.675976
C93	C	1.085912	-0.561162	0.352871
C94	C	1.585912	-0.061162	0.852871
C95	C	1.085108	-0.601169	0.254741
C96	C	1.585108	-0.101169	0.754741
H97	H	1.085073	-0.599717	0.416579
H98	H	1.585073	-0.099717	0.916579
H99	H	1.151117	-0.533401	0.357403
H100	H	1.651117	-0.033401	0.857403
H101	H	1.022068	-0.520737	0.357275
H102	H	1.522068	-0.020737	0.857275
H103	H	1.148908	-0.641628	0.250272
H104	H	1.648908	-0.141628	0.750272
H105	H	1.019861	-0.628882	0.250251
H106	H	1.519861	-0.128882	0.750251
O107	O	1.094554	-0.109252	0.175897
O108	O	1.594554	0.390748	0.675897
C109	C	1.016302	-0.019193	0.279365
C110	C	1.516302	0.480807	0.779365
C111	C	1.015589	-0.059251	0.181269
C112	C	1.515589	0.440749	0.681269
H113	H	0.952476	0.021252	0.283731
H114	H	1.452476	0.521252	0.783731
H115	H	1.015484	-0.057697	0.343137
H116	H	1.515484	0.442303	0.843137
H117	H	1.081521	0.008555	0.283819
H118	H	1.581521	0.508555	0.783819
H119	H	0.950380	-0.087001	0.176720
H120	H	1.450380	0.412999	0.676720
H121	H	1.016455	-0.020714	0.117544
H122	H	1.516455	0.479286	0.617544
H123	H	1.086004	-0.559031	-0.161692
H124	H	1.586004	-0.059031	0.338308
H125	H	1.083415	-0.691148	-0.161699
H126	H	1.583415	-0.191148	0.338301
O127	O	1.094835	-0.109199	-0.175613
O128	O	1.594835	0.390801	0.324387
C129	C	1.176060	-0.034598	-0.279091
C130	C	1.676060	0.465402	0.220909
C131	C	1.175390	-0.074746	-0.181050
C132	C	1.675390	0.425254	0.318950
H133	H	1.241173	-0.006720	-0.283509
H134	H	1.741173	0.493280	0.216491
H135	H	1.175335	-0.073055	-0.342915
H136	H	1.675335	0.426945	0.157085
H137	H	1.112123	0.005747	-0.283399
H138	H	1.612123	0.505747	0.216601
H139	H	1.239317	-0.115091	-0.176646
H140	H	1.739317	0.384909	0.323354
H141	H	1.176068	-0.036247	-0.117271
H142	H	1.676068	0.463753	0.382729
H143	H	1.083382	-0.691193	0.161868
H144	H	1.583382	-0.191193	0.661868
H145	H	1.092037	-0.247152	0.161895
H146	H	1.592037	0.252848	0.661895
