data_functionalizedCrystal
_audit_creation_method	'MofGen! by Chris Wilmer'
_symmetry_space_group_name_H-M	'P1'
_symmetry_Int_Tables_number	1
_symmetry_cell_setting	triclinic
loop_
_symmetry_equiv_pos_as_xyz
  x,y,z
_cell_length_a	17.699083
_cell_length_b	19.188930
_cell_length_c	16.176319
_cell_angle_alpha	89.988074
_cell_angle_beta	89.998611
_cell_angle_gamma	83.213899
loop_
_atom_site_label
_atom_site_type_symbol
_atom_site_fract_x
_atom_site_fract_y
_atom_site_fract_z
O1	O	1.003963	0.088294	-0.068640
O2	O	1.503963	0.588294	0.431360
O3	O	0.783569	0.099782	-0.068668
O4	O	1.283569	0.599782	0.431332
O5	O	0.900126	-0.007610	-0.068637
O6	O	1.400126	0.492390	0.431363
O7	O	0.887406	0.195687	-0.068671
O8	O	1.387406	0.695687	0.431329
O9	O	0.900110	-0.007617	0.068856
O10	O	1.400110	0.492383	0.568856
O11	O	0.783553	0.099775	0.068825
O12	O	1.283553	0.599775	0.568825
O13	O	1.003947	0.088288	0.068853
O14	O	1.503947	0.588288	0.568853
Cu15	Cu	0.893748	0.094031	0.081393
Cu16	Cu	1.393748	0.594031	0.581393
Cu17	Cu	0.893767	0.094039	-0.081208
Cu18	Cu	1.393767	0.594039	0.418792
O19	O	0.887390	0.195680	0.068822
O20	O	1.387390	0.695680	0.568822
C21	C	0.755365	0.099367	0.000075
C22	C	1.255365	0.599367	0.500075
C23	C	0.671348	0.098132	0.000065
C24	C	1.171348	0.598132	0.500065
C25	C	0.622644	0.161169	0.000055
C26	C	1.122644	0.661169	0.500055
C27	C	0.543702	0.160004	0.000065
C28	C	1.043702	0.660004	0.500065
C29	C	0.513466	0.095802	0.000081
C30	C	1.013466	0.595802	0.500081
C31	C	0.562176	0.032761	0.000093
C32	C	1.062176	0.532761	0.500093
C33	C	0.641117	0.033926	0.000088
C34	C	1.141117	0.533926	0.500088
C35	C	0.243819	0.028060	0.000115
C36	C	0.743819	0.528060	0.500115
C37	C	0.164873	0.026900	0.000117
C38	C	0.664873	0.526900	0.500117
C39	C	0.146405	0.154139	0.000092
C40	C	0.646405	0.654139	0.500092
C41	C	0.225345	0.155304	0.000087
C42	C	0.725345	0.655304	0.500087
C43	C	0.274049	0.092263	0.000104
C44	C	0.774049	0.592263	0.500104
C45	C	0.359646	0.093526	0.000094
C46	C	0.859646	0.593526	0.500094
C47	C	0.427870	0.094538	0.000085
C48	C	0.927870	0.594538	0.500085
C49	C	0.899706	-0.033625	0.000112
C50	C	1.399706	0.466375	0.500112
C51	C	0.898469	-0.111131	0.000119
C52	C	1.398469	0.388869	0.500119
C53	C	0.966861	-0.155978	0.000131
C54	C	1.466861	0.344022	0.500131
C55	C	0.965699	-0.228804	0.000118
C56	C	1.465699	0.271196	0.500118
C57	C	0.896142	-0.256778	0.000108
C58	C	1.396142	0.243222	0.500108
C59	C	0.827741	-0.211921	0.000091
C60	C	1.327741	0.288079	0.500091
C61	C	0.828905	-0.139098	0.000096
C62	C	1.328905	0.360902	0.500096
N63	N	0.842968	-0.364845	0.046893
N64	N	1.342968	0.135155	0.546893
N65	N	0.841868	-0.434025	0.046890
N66	N	1.341868	0.065975	0.546890
C67	C	0.892632	-0.476191	0.000091
C68	C	1.392632	0.023809	0.500091
N69	N	0.944550	-0.446565	-0.046694
N70	N	1.444550	0.053435	0.453306
N71	N	0.945653	-0.377379	-0.046687
N72	N	1.445653	0.122621	0.453313
C73	C	0.894873	-0.335742	0.000102
C74	C	1.394873	0.164258	0.500102
C75	C	0.959769	-0.600004	0.000088
C76	C	1.459769	-0.100004	0.500088
C77	C	0.958604	-0.672830	0.000070
C78	C	1.458604	-0.172830	0.500070
C79	C	0.820644	-0.655946	0.000051
C80	C	1.320644	-0.155946	0.500051
C81	C	0.821811	-0.583121	0.000061
C82	C	1.321811	-0.083121	0.500061
C83	C	0.891375	-0.555155	0.000084
C84	C	1.391375	-0.055155	0.500084
C85	C	1.032151	0.088703	0.000108
C86	C	1.532151	0.588703	0.500108
C87	C	1.116167	0.089938	0.000113
C88	C	1.616167	0.589938	0.500113
C89	C	0.887810	0.221695	0.000071
C90	C	1.387810	0.721695	0.500071
C91	C	0.889046	0.299201	0.000059
C92	C	1.389046	0.799201	0.500059
N93	N	0.893741	0.094025	0.195758
N94	N	1.393741	0.594025	0.695758
N95	N	0.893781	0.094039	-0.195574
N96	N	1.393781	0.594039	0.304426
C97	C	0.945367	0.046491	0.239036
C98	C	1.445367	0.546491	0.739036
C99	C	0.945371	0.046490	0.325584
C100	C	1.445371	0.546490	0.825584
C101	C	0.893751	0.094027	0.368851
C102	C	1.393751	0.594027	0.868851
C103	C	0.842119	0.141563	0.325567
C104	C	1.342119	0.641563	0.825567
C105	C	0.842112	0.141560	0.239022
C106	C	1.342112	0.641560	0.739022
C107	C	0.842145	0.141576	0.674595
C108	C	1.342145	0.641576	1.174595
C109	C	0.842157	0.141577	0.761147
C110	C	1.342157	0.641577	1.261147
C111	C	0.945404	0.046506	0.761157
C112	C	1.445404	0.546506	1.261157
C113	C	0.945397	0.046503	0.674612
C114	C	1.445397	0.546503	1.174612
C115	C	0.893763	0.094036	0.631335
C116	C	1.393763	0.594036	1.131335
C117	C	0.893758	0.094036	0.537491
C118	C	1.393758	0.594036	1.037491
C119	C	0.893759	0.094031	0.462694
C120	C	1.393759	0.594031	0.962694
H121	H	0.249959	0.207584	0.000070
H122	H	0.749959	0.707584	0.500070
H123	H	0.647256	0.213450	0.000042
H124	H	1.147256	0.713450	0.500042
O125	O	0.688538	-0.027244	0.000132
O126	O	1.188538	0.472756	0.500132
C127	C	0.764696	-0.012450	0.000105
C128	C	1.264696	0.487550	0.500105
H129	H	0.767539	0.042386	0.026124
H130	H	1.267539	0.542386	0.526124
H131	H	0.800597	-0.052639	0.040030
H132	H	1.300597	0.447361	0.540030
H133	H	0.787534	-0.015133	-0.065858
H134	H	1.287534	0.484867	0.434142
H135	H	0.987405	0.007784	0.203814
H136	H	1.487405	0.507784	0.703814
O137	O	0.995554	0.000416	0.367719
O138	O	1.495554	0.500416	0.867719
C139	C	1.042128	0.037763	0.417749
C140	C	1.542128	0.537763	0.917749
H141	H	1.011795	0.092432	0.430698
H142	H	1.511795	0.592432	0.930698
H143	H	1.054203	0.008611	0.478617
H144	H	1.554203	0.508611	0.978617
H145	H	1.098044	0.042445	0.384390
H146	H	1.598044	0.542445	0.884390
O147	O	0.098986	0.215315	0.000120
O148	O	0.598986	0.715315	0.500120
C149	C	0.022826	0.200525	0.000110
C150	C	0.522826	0.700525	0.500110
H151	H	0.019981	0.145690	0.026155
H152	H	0.519981	0.645690	0.526155
H153	H	-0.013070	0.240716	0.040020
H154	H	0.486930	0.740716	0.540020
H155	H	-0.000017	0.203211	-0.065852
H156	H	0.499983	0.703211	0.434148
O157	O	1.027406	-0.572948	0.000059
O158	O	1.527406	-0.072948	0.500059
C159	C	1.087524	-0.628152	0.000076
C160	C	1.587524	-0.128152	0.500076
H161	H	1.066473	-0.677583	-0.025959
H162	H	1.566473	-0.177583	0.474041
H163	H	1.136103	-0.613005	-0.039840
H164	H	1.636103	-0.113005	0.460160
H165	H	1.108609	-0.638508	0.066038
H166	H	1.608609	-0.138508	0.566038
H167	H	0.140258	-0.025384	0.000131
H168	H	0.640258	0.474616	0.500131
H169	H	1.014299	-0.709345	0.000076
H170	H	1.514299	-0.209345	0.500076
O171	O	0.755304	-0.539652	0.000096
O172	O	1.255304	-0.039652	0.500096
C173	C	0.693660	-0.579956	0.000064
C174	C	1.193660	-0.079956	0.500064
H175	H	0.713049	-0.634348	0.026092
H176	H	1.213049	-0.134348	0.526092
H177	H	0.645750	-0.553020	0.039979
H178	H	1.145750	-0.053020	0.539979
H179	H	0.672334	-0.585090	-0.065901
H180	H	1.172334	-0.085090	0.434099
O181	O	0.995569	0.000258	0.632711
O182	O	1.495569	0.500258	1.132711
C183	C	1.041150	-0.041688	0.689469
C184	C	1.541150	0.458312	1.189469
H185	H	1.010130	-0.042438	0.751167
H186	H	1.510130	0.457562	1.251167
H187	H	1.052880	-0.097462	0.664478
H188	H	1.552880	0.402538	1.164478
H189	H	1.097297	-0.019083	0.698657
H190	H	1.597297	0.480917	1.198657
O191	O	0.792038	0.187832	0.197015
O192	O	1.292038	0.687832	0.697015
C193	C	0.804096	0.256937	0.218154
C194	C	1.304096	0.756937	0.718154
H195	H	0.864690	0.257211	0.241937
H196	H	1.364690	0.757211	0.741937
H197	H	0.795266	0.291985	0.161228
H198	H	1.295266	0.791985	0.661228
H199	H	0.762082	0.277495	0.268389
H200	H	1.262082	0.777495	0.768389
H201	H	0.800119	0.180289	0.796374
H202	H	1.300119	0.680289	1.296374
O203	O	0.496499	0.221303	0.000018
O204	O	0.996499	0.721303	0.500018
C205	C	0.540114	0.278219	0.000019
C206	C	1.040114	0.778219	0.500019
H207	H	0.599091	0.260397	-0.026015
H208	H	1.099091	0.760397	0.473985
H209	H	0.510844	0.322379	-0.039906
H210	H	1.010844	0.822379	0.460094
H211	H	0.545676	0.297903	0.065976
H212	H	1.045676	0.797903	0.565976
H213	H	0.764009	-0.678722	0.000039
H214	H	1.264009	-0.178722	0.500039
O215	O	0.791964	0.187819	0.632692
O216	O	1.291964	0.687819	1.132692
C217	C	0.746397	0.229765	0.689443
C218	C	1.246397	0.729765	1.189443
H219	H	0.777433	0.230518	0.751129
H220	H	1.277433	0.730518	1.251129
H221	H	0.734659	0.285538	0.664424
H222	H	1.234659	0.785538	1.164424
H223	H	0.690253	0.207159	0.698665
H224	H	1.190253	0.707159	1.198665
O225	O	0.291089	-0.033196	-0.000021
O226	O	0.791089	0.466804	0.499979
C227	C	0.277399	-0.072187	-0.071212
C228	C	0.777399	0.427813	0.428788
H229	H	0.250300	-0.035277	-0.120990
H230	H	0.750300	0.464723	0.379010
H231	H	0.333500	-0.100285	-0.095110
H232	H	0.833500	0.399715	0.404890
H233	H	0.237330	-0.112527	-0.055105
H234	H	0.737330	0.387473	0.444895
H235	H	0.987446	0.007800	0.796402
H236	H	1.487446	0.507800	1.296402
H237	H	0.800085	0.180266	0.360800
H238	H	1.300085	0.680266	0.860800
H239	H	1.021394	-0.265325	0.000125
H240	H	1.521394	0.234675	0.500125
H241	H	0.537552	-0.019514	0.000118
H242	H	1.037552	0.480486	0.500118
O243	O	1.034367	-0.128697	0.000178
O244	O	1.534367	0.371303	0.500178
C245	C	1.020733	-0.054803	0.000155
C246	C	1.520733	0.445197	0.500155
H247	H	0.961610	-0.037605	0.026180
H248	H	1.461610	0.462395	0.526180
H249	H	1.065225	-0.032525	0.040076
H250	H	1.565225	0.467475	0.540076
H251	H	1.024338	-0.034527	-0.065808
H252	H	1.524338	0.465473	0.434192
O253	O	0.760126	-0.239009	0.000192
O254	O	1.260126	0.260991	0.500192
C255	C	0.718444	-0.216106	0.071404
C256	C	1.218444	0.283894	0.571404
H257	H	0.738898	-0.165636	0.095151
H258	H	1.238898	0.334364	0.595151
H259	H	0.655384	-0.205889	0.055377
H260	H	1.155384	0.294111	0.555377
H261	H	0.727342	-0.258272	0.121267
H262	H	1.227342	0.241728	0.621267
O263	O	0.762416	-0.095600	-0.000022
O264	O	1.262416	0.404400	0.499978
C265	C	0.720186	-0.108228	-0.071250
C266	C	1.220186	0.391772	0.428750
H267	H	0.738957	-0.163497	-0.094995
H268	H	1.238957	0.336503	0.405005
H269	H	0.657042	-0.103001	-0.055245
H270	H	1.157042	0.396999	0.444755
H271	H	0.730411	-0.068400	-0.121106
H272	H	1.230411	0.431600	0.378894
