data_functionalizedCrystal
_audit_creation_method	'MofGen! by Chris Wilmer'
_symmetry_space_group_name_H-M	'P1'
_symmetry_Int_Tables_number	1
_symmetry_cell_setting	triclinic
loop_
_symmetry_equiv_pos_as_xyz
  x,y,z
_cell_length_a	10.654583
_cell_length_b	14.853567
_cell_length_c	9.130313
_cell_angle_alpha	90.002541
_cell_angle_beta	90.005937
_cell_angle_gamma	95.933269
loop_
_atom_site_label
_atom_site_type_symbol
_atom_site_fract_x
_atom_site_fract_y
_atom_site_fract_z
O1	O	-1.666493	0.126765	-0.121979
O2	O	-1.300895	0.138798	-0.121939
O3	O	-1.493459	0.001605	-0.121964
O4	O	-1.473928	0.263958	-0.121953
O5	O	-1.493457	0.001608	0.121634
O6	O	-1.300892	0.138801	0.121660
O7	O	-1.666490	0.126769	0.121619
Cu8	Cu	-1.483691	0.132785	0.143882
Cu9	Cu	-1.483694	0.132781	-0.144201
O10	O	-1.473926	0.263962	0.121645
C11	C	-1.254105	0.137910	-0.000134
C12	C	-1.114692	0.135247	-0.000119
C13	C	-1.049173	0.134008	0.132659
C14	C	-0.918178	0.131514	0.132642
C15	C	-0.918231	0.131503	-0.132943
C16	C	-1.049225	0.133990	-0.132924
C17	C	-1.049141	0.134018	0.285993
C18	C	-0.918146	0.131524	0.285976
C19	C	-1.492573	-0.031987	-0.000169
C20	C	-1.489921	-0.132085	-0.000182
C21	C	-1.364323	-0.545302	-0.000140
C22	C	-1.593095	-0.565339	-0.000165
C23	C	-1.595588	-0.471292	-0.000174
C24	C	-1.482447	-0.414245	-0.000164
C25	C	-1.366813	-0.451246	-0.000144
C26	C	-1.711220	-0.434283	-0.000179
C27	C	-1.713718	-0.340231	-0.000186
C28	C	-1.600576	-0.283183	-0.000186
C29	C	-1.484938	-0.320189	-0.000168
C30	C	-1.371797	-0.263142	-0.000158
C31	C	-1.256157	-0.300147	-0.000150
C32	C	-1.253671	-0.394198	-0.000144
C33	C	-1.603062	-0.189132	-0.000192
C34	C	-1.374287	-0.169086	-0.000162
C35	C	-0.713282	0.127643	-0.000174
C36	C	-0.852703	0.130266	-0.000154
C37	C	-1.474812	0.297553	-0.000153
C38	C	-1.477464	0.397651	-0.000150
N39	N	-1.483698	0.132788	0.346505
N40	N	-1.483697	0.132771	-0.346824
C41	C	-1.568988	0.072060	0.423145
C42	C	-1.568984	0.072049	0.576482
C43	C	-1.398398	0.193502	0.576525
C44	C	-1.398397	0.193508	0.423191
C45	C	-1.667478	0.001942	0.423122
C46	C	-1.667475	0.001931	0.576459
H47	H	-1.096047	0.071717	0.344870
Br48	Br	-0.869936	0.022036	0.365619
Br49	Br	-1.632942	-0.113553	0.353738
Br50	Br	-1.097308	0.243609	0.365286
Br51	Br	-1.282634	0.275902	0.680605
Br52	Br	-1.746635	-0.642758	-0.000148
H53	H	-1.803333	-0.480737	-0.000174
Br54	Br	-1.282623	0.275911	0.319175
H55	H	-1.637642	-0.063555	0.624007
Br56	Br	-1.870654	-0.290018	-0.000219
H57	H	-0.871212	0.193828	0.344846
Br58	Br	-1.759988	-0.138914	-0.000167
Br59	Br	-1.102615	-0.222716	-0.000117
H60	H	-1.282153	-0.122644	-0.000160
H61	H	-1.763824	0.017386	0.618066
H62	H	-1.758432	0.023907	0.375555
H63	H	-1.159523	-0.424336	-0.000137
H64	H	-0.864912	0.130479	-0.241068
Br65	Br	-1.138145	0.135648	-0.313130
Br66	Br	-1.207390	-0.595518	-0.000150
